
  -OEChem-04052319463D

 83 90  0     1  0  0  0  0  0999 V2000
  -31.5873   -6.1317   33.8257 C   0  0  0  0  0  0  0  0  0  0  0  0
  -30.9809   -7.1497   33.0967 C   0  0  0  0  0  0  0  0  0  0  0  0
  -23.2852   -9.8009   19.9128 C   0  0  0  0  0  0  0  0  0  0  0  0
  -23.7325   -9.9426   22.2828 C   0  0  0  0  0  0  0  0  0  0  0  0
  -31.9664   -4.9506   33.1891 C   0  0  0  0  0  0  0  0  0  0  0  0
  -30.7542   -6.9875   31.7304 C   0  0  0  0  0  0  0  0  0  0  0  0
  -26.0157   -9.1417   28.5037 C   0  0  0  0  0  0  0  0  0  0  0  0
  -22.5573   -8.6293   20.1202 C   0  0  0  0  0  0  0  0  0  0  0  0
  -23.0045   -8.7711   22.4902 C   0  0  0  0  0  0  0  0  0  0  0  0
  -25.8663  -10.2666   27.6938 C   0  0  0  0  0  0  0  0  0  0  0  0
  -23.2063   -5.3546   20.6488 C   0  0  0  0  0  0  0  0  0  0  0  0
  -23.4349   -4.2880   19.7795 C   0  0  0  0  0  0  0  0  0  0  0  0
  -26.3457   -8.9226   25.7488 C   0  0  0  0  0  0  0  0  0  0  0  0
  -21.1140   -4.3359   19.1103 C   0  0  0  0  0  0  0  0  0  0  0  0
  -23.8729  -10.4575   20.9941 C   0  0  0  0  0  0  0  0  0  0  0  0
  -24.1354  -12.9871   20.7942 C   0  0  0  0  0  0  0  0  0  0  0  0
  -31.7355   -4.7701   31.8163 C   0  0  0  0  0  0  0  0  0  0  0  0
  -26.3424   -7.8989   27.9424 C   0  0  0  0  0  0  0  0  0  0  0  0
  -31.1318   -5.8034   31.0746 C   0  0  0  0  0  0  0  0  0  0  0  0
  -26.4961   -7.7829   26.5535 C   0  0  0  0  0  0  0  0  0  0  0  0
  -22.4168   -8.1144   21.4089 C   0  0  0  0  0  0  0  0  0  0  0  0
  -26.0341  -10.1578   26.3165 C   0  0  0  0  0  0  0  0  0  0  0  0
  -21.9315   -5.9119   20.7489 C   0  0  0  0  0  0  0  0  0  0  0  0
  -22.3888   -3.7787   19.0103 C   0  0  0  0  0  0  0  0  0  0  0  0
  -20.8853   -5.4026   19.9796 C   0  0  0  0  0  0  0  0  0  0  0  0
  -24.6255  -11.6675   20.7804 C   0  0  0  0  0  0  0  0  0  0  0  0
  -25.2382  -13.7656   20.5404 C   0  0  0  0  0  0  0  0  0  0  0  0
  -22.8026  -13.4664   21.0166 C   0  0  0  0  0  0  0  0  0  0  0  0
  -28.7849   -5.8839   28.2219 C   0  0  0  0  0  0  0  0  0  0  0  0
  -26.9290   -3.9879   26.3554 C   0  0  0  0  0  0  0  0  0  0  0  0
  -24.4131   -3.7518   24.0617 C   0  0  0  0  0  0  0  0  0  0  0  0
  -31.1069  -12.9166   21.3697 C   0  0  0  0  0  0  0  0  0  0  0  0
  -32.2056   -3.4948   31.1626 C   0  0  0  0  0  0  0  0  0  0  0  0
  -26.4738   -6.6894   28.8269 C   0  0  0  0  0  0  0  0  0  0  0  0
  -26.8273   -6.4673   25.8994 C   0  0  0  0  0  0  0  0  0  0  0  0
  -31.5903   -3.2528   29.7868 C   0  0  0  0  0  0  0  0  0  0  0  0
  -29.4636  -13.6558   18.2989 C   0  0  0  0  0  0  0  0  0  0  0  0
  -31.6499   -4.5231   28.9444 C   0  0  0  0  0  0  0  0  0  0  0  0
  -27.9931  -13.3491   18.5879 C   0  0  0  0  0  0  0  0  0  0  0  0
  -30.3947  -12.6758   19.0093 C   0  0  0  0  0  0  0  0  0  0  0  0
  -28.7049  -12.2495   20.7519 C   0  0  0  0  0  0  0  0  0  0  0  0
  -30.8466   -5.6552   29.5958 C   0  0  1  0  0  0  0  0  0  0  0  0
  -27.3135   -5.5800   28.2013 C   0  0  1  0  0  0  0  0  0  0  0  0
  -27.7290  -13.2454   20.1021 C   0  0  2  0  0  0  0  0  0  0  0  0
  -23.1451   -2.0724   22.6945 C   0  0  0  0  0  0  0  0  0  0  0  0
  -25.5837  -13.7396   23.9834 C   0  0  0  0  0  0  0  0  0  0  0  0
  -30.2194  -11.9373   24.4365 C   0  0  0  0  0  0  0  0  0  0  0  0
  -31.0065  -13.8670   26.7255 C   0  0  0  0  0  0  0  0  0  0  0  0
  -29.3076   -3.7380   24.4608 C   0  0  0  0  0  0  0  0  0  0  0  0
  -27.7347   -2.8826   22.7107 C   0  0  0  0  0  0  0  0  0  0  0  0
  -28.0442   -1.6124   24.8352 C   0  0  0  0  0  0  0  0  0  0  0  0
  -21.8454   -4.4737   25.3442 C   0  0  0  0  0  0  0  0  0  0  0  0
  -30.2673  -16.4508   25.0614 C   0  0  0  0  0  0  0  0  0  0  0  0
  -27.9727  -13.0392   24.3135 C   0  0  0  0  0  0  0  0  0  0  0  0
  -31.6653  -13.1314   23.7782 C   0  0  0  0  0  0  0  0  0  0  0  0
  -31.6704  -14.5978   24.1678 C   0  0  0  0  0  0  0  0  0  0  0  0
  -26.2183  -12.5188   26.0981 C   0  0  0  0  0  0  0  0  0  1  0  0
  -26.7587   -3.7891   24.8687 C   0  0  1  0  0  0  0  0  0  0  0  0
  -23.1895   -2.8556   23.9973 C   0  0  2  0  0  0  0  0  0  0  0  0
  -26.6878  -13.5104   25.0252 C   0  0  2  0  0  0  0  0  0  0  0  0
  -29.2142  -12.8055   25.2106 C   0  0  2  0  0  0  0  0  0  0  0  0
  -29.8354  -14.1049   25.7773 C   0  0  2  0  0  0  0  0  0  0  0  0
  -27.9570   -3.0309   24.2311 C   0  0  0  0  0  0  0  0  0  0  0  0
  -25.9375  -11.6072   20.5369 N   0  0  0  0  0  0  0  0  0  0  0  0
  -26.2811  -12.8987   20.3953 N   0  0  0  0  0  0  0  0  0  0  0  0
  -26.9517   -5.3150   26.8073 N   0  0  0  0  0  0  0  0  0  0  0  0
  -30.0931  -12.6257   20.4420 N   0  0  0  0  0  0  0  0  0  0  0  0
  -25.4078  -15.1003   20.4293 N   0  0  0  0  0  0  0  0  0  0  0  0
  -21.7886  -12.5308   21.2631 N   0  0  0  0  0  0  0  0  0  0  0  0
  -29.4299   -5.4647   29.3698 N   0  0  0  0  0  0  0  0  0  0  0  0
  -25.4703   -3.1284   24.6901 N   0  0  0  0  0  0  0  0  0  0  0  0
  -30.7351  -12.8524   22.7069 N   0  0  0  0  0  0  0  0  0  0  0  0
  -21.9453   -3.6696   24.0990 N   0  3  0  0  0  0  0  0  0  0  0  0
  -30.3098  -14.9940   24.6795 N   0  3  1  0  0  0  0  0  0  0  0  0
  -22.5161  -14.6871   20.9810 O   0  0  0  0  0  0  0  0  0  0  0  0
  -29.2973   -6.4549   27.2664 O   0  0  0  0  0  0  0  0  0  0  0  0
  -27.0307   -3.0019   27.0897 O   0  0  0  0  0  0  0  0  0  0  0  0
  -24.4306   -4.8896   23.5973 O   0  0  0  0  0  0  0  0  0  0  0  0
  -32.2568  -13.2169   21.0311 O   0  0  0  0  0  0  0  0  0  0  0  0
  -21.7063   -6.9714   21.6117 O   0  0  0  0  0  0  0  0  0  0  0  0
  -25.8885  -11.2618   25.5185 O   0  0  0  0  0  0  0  0  0  1  0  0
  -22.6088   -2.7554   18.1744 F   0  0  0  0  0  0  0  0  0  0  0  0
  -19.6588   -5.9346   20.0706 F   0  0  0  0  0  0  0  0  0  0  0  0
  1  2  1  0  0  0  0
  1  5  2  0  0  0  0
  2  6  2  0  0  0  0
  3  8  2  0  0  0  0
  3 15  1  0  0  0  0
  4  9  1  0  0  0  0
  4 15  2  0  0  0  0
  5 17  1  0  0  0  0
  6 19  1  0  0  0  0
  7 10  2  0  0  0  0
  7 18  1  0  0  0  0
  8 21  1  0  0  0  0
  9 21  2  0  0  0  0
 10 22  1  0  0  0  0
 11 12  2  0  0  0  0
 11 23  1  0  0  0  0
 12 24  1  0  0  0  0
 13 20  1  0  0  0  0
 13 22  2  0  0  0  0
 14 24  2  0  0  0  0
 14 25  1  0  0  0  0
 15 26  1  0  0  0  0
 16 26  1  0  0  0  0
 16 27  2  0  0  0  0
 16 28  1  0  0  0  0
 17 19  2  0  0  0  0
 17 33  1  0  0  0  0
 18 20  2  0  0  0  0
 18 34  1  0  0  0  0
 19 42  1  0  0  0  0
 20 35  1  0  0  0  0
 21 80  1  0  0  0  0
 22 81  1  0  0  0  0
 23 25  2  0  0  0  0
 23 80  1  0  0  0  0
 24 82  1  0  0  0  0
 25 83  1  0  0  0  0
 26 64  2  0  0  0  0
 27 65  1  0  0  0  0
 27 68  1  0  0  0  0
 28 69  1  0  0  0  0
 28 75  2  0  0  0  0
 29 43  1  0  0  0  0
 29 70  1  0  0  0  0
 29 76  2  0  0  0  0
 30 58  1  0  0  0  0
 30 66  1  0  0  0  0
 30 77  2  0  0  0  0
 31 59  1  0  0  0  0
 31 71  1  0  0  0  0
 31 78  2  0  0  0  0
 32 67  1  0  0  0  0
 32 72  1  0  0  0  0
 32 79  2  0  0  0  0
 33 36  1  0  0  0  0
 34 43  1  0  0  0  0
 35 66  1  0  0  0  0
 36 38  1  0  0  0  0
 37 39  1  0  0  0  0
 37 40  1  0  0  0  0
 38 42  1  0  0  0  0
 39 44  1  0  0  0  0
 40 67  1  0  0  0  0
 41 44  1  0  0  0  0
 41 67  1  0  0  0  0
 42 70  1  0  0  0  0
 43 66  1  0  0  0  0
 44 65  1  0  0  0  0
 45 59  1  0  0  0  0
 46 60  1  0  0  0  0
 47 61  1  0  0  0  0
 48 62  1  0  0  0  0
 49 63  1  0  0  0  0
 50 63  1  0  0  0  0
 51 63  1  0  0  0  0
 52 73  1  0  0  0  0
 53 74  1  0  0  0  0
 54 60  1  0  0  0  0
 54 61  1  0  0  0  0
 55 56  1  0  0  0  0
 55 72  1  0  0  0  0
 56 74  1  0  0  0  0
 57 60  1  0  0  0  0
 57 81  1  0  0  0  0
 58 63  1  0  0  0  0
 58 71  1  0  0  0  0
 59 73  1  0  0  0  0
 61 62  1  0  0  0  0
 62 74  1  0  0  0  0
 64 65  1  0  0  0  0
M  CHG  2  73   1  74   1
M  ISO  4  32 100  57 101  72 100  81 101
M  END
> <Batch ID>
0105

> <Smiles>
CNC(C)C(=O)NC(C(=O)N1Cc2cc([101O:1][101CH2:1]C(C)CC(C)C(C)N(C)CC[100NH:0][100C:0](=O)N3CCCC(n4nc(-c5ccc(Oc6ccc(F)cc6F)cc5)c(C(N)=O)c4N)C3)ccc2CC1C(=O)NC1CCCc2ccccc21)C(C)(C)C

> <Shape>
0.136

> <Color>
0.170

> <Negative vol penalty>
0.000

$$$$

  -OEChem-04052319463D

 81 89  0     1  0  0  0  0  0999 V2000
  -21.2583   -5.9765   23.2546 C   0  0  0  0  0  0  0  0  0  0  0  0
  -20.9037   -7.3217   23.2660 C   0  0  0  0  0  0  0  0  0  0  0  0
  -25.0707  -31.2990   24.1847 C   0  0  0  0  0  0  0  0  0  0  0  0
  -25.9613  -32.7734   22.4906 C   0  0  0  0  0  0  0  0  0  0  0  0
  -22.6026   -5.6107   23.3084 C   0  0  0  0  0  0  0  0  0  0  0  0
  -21.8933   -8.3019   23.3322 C   0  0  0  0  0  0  0  0  0  0  0  0
  -23.3213  -14.9539   21.0898 C   0  0  0  0  0  0  0  0  0  0  0  0
  -25.4364  -32.2132   25.1727 C   0  0  0  0  0  0  0  0  0  0  0  0
  -26.3270  -33.6876   23.4786 C   0  0  0  0  0  0  0  0  0  0  0  0
  -23.7205  -16.1948   21.5843 C   0  0  0  0  0  0  0  0  0  0  0  0
  -24.8161  -36.0447   25.3711 C   0  0  0  0  0  0  0  0  0  0  0  0
  -24.5275  -37.3905   25.1453 C   0  0  0  0  0  0  0  0  0  0  0  0
  -26.0139  -15.4467   21.5933 C   0  0  0  0  0  0  0  0  0  0  0  0
  -26.8798  -37.9203   25.2973 C   0  0  0  0  0  0  0  0  0  0  0  0
  -25.3332  -31.5791   22.8437 C   0  0  0  0  0  0  0  0  0  0  0  0
  -23.7327  -30.5766   21.1287 C   0  0  0  0  0  0  0  0  0  0  0  0
  -23.6096   -6.5870   23.3656 C   0  0  0  0  0  0  0  0  0  0  0  0
  -24.2658  -13.9447   20.8532 C   0  0  0  0  0  0  0  0  0  0  0  0
  -23.2523   -7.9487   23.3881 C   0  0  0  0  0  0  0  0  0  0  0  0
  -25.6244  -14.1948   21.0933 C   0  0  0  0  0  0  0  0  0  0  0  0
  -26.0646  -33.4075   24.8196 C   0  0  0  0  0  0  0  0  0  0  0  0
  -25.0666  -16.4404   21.8389 C   0  0  0  0  0  0  0  0  0  0  0  0
  -26.1365  -35.6366   25.5601 C   0  0  0  0  0  0  0  0  0  0  0  0
  -25.5594  -38.3284   25.1084 C   0  0  0  0  0  0  0  0  0  0  0  0
  -27.1684  -36.5744   25.5231 C   0  0  0  0  0  0  0  0  0  0  0  0
  -24.9561  -30.6348   21.8227 C   0  0  0  0  0  0  0  0  0  0  0  0
  -23.8733  -29.5108   20.2738 C   0  0  0  0  0  0  0  0  0  0  0  0
  -29.6676  -22.1684   21.7547 C   0  0  0  0  0  0  0  0  0  0  0  0
  -30.3060  -22.1643   22.9346 C   0  0  0  0  0  0  0  0  0  0  0  0
  -22.5730  -31.4114   21.2461 C   0  0  0  0  0  0  0  0  0  0  0  0
  -24.7628  -11.0233   22.0031 C   0  0  0  0  0  0  0  0  0  0  0  0
  -27.0469  -10.9285   19.7018 C   0  0  0  0  0  0  0  0  0  0  0  0
  -29.1727  -12.6453   17.6573 C   0  0  0  0  0  0  0  0  0  0  0  0
  -27.0754  -24.6477   20.4999 C   0  0  0  0  0  0  0  0  0  0  0  0
  -25.0469   -6.1422   23.4700 C   0  0  0  0  0  0  0  0  0  0  0  0
  -23.8222  -12.6206   20.2943 C   0  0  0  0  0  0  0  0  0  0  0  0
  -26.6802  -13.1517   20.8369 C   0  0  0  0  0  0  0  0  0  0  0  0
  -30.2914  -22.7424   20.5089 C   0  0  0  0  0  0  0  0  0  0  0  0
  -26.0512   -7.2494   23.1605 C   0  0  0  0  0  0  0  0  0  0  0  0
  -27.1648  -27.0401   17.8586 C   0  0  0  0  0  0  0  0  0  0  0  0
  -25.6712   -8.5340   23.8900 C   0  0  0  0  0  0  0  0  0  0  0  0
  -26.5067  -28.2470   18.5235 C   0  0  0  0  0  0  0  0  0  0  0  0
  -29.4140  -23.8487   19.9029 C   0  0  0  0  0  0  0  0  0  0  0  0
  -28.0709  -26.2705   18.8218 C   0  0  0  0  0  0  0  0  0  0  0  0
  -27.5877  -22.2333   20.3326 C   0  0  0  0  0  0  0  0  0  0  0  0
  -26.7438  -27.0878   20.7480 C   0  0  0  0  0  0  0  0  0  0  0  0
  -24.2979   -9.0417   23.4342 C   0  0  1  0  0  0  0  0  0  0  0  0
  -28.2440  -21.6592   21.6031 C   0  0  1  0  0  0  0  0  0  0  0  0
  -24.8093  -11.4921   20.5763 C   0  0  1  0  0  0  0  0  0  0  0  0
  -25.7789  -27.8307   19.8126 C   0  0  1  0  0  0  0  0  0  0  0  0
  -29.7278  -21.6082   24.1893 C   0  0  0  0  0  0  0  0  0  0  0  0
  -30.9432  -12.2929   15.9141 C   0  0  0  0  0  0  0  0  0  0  0  0
  -29.0332  -10.1445   21.8813 C   0  0  0  0  0  0  0  0  0  0  0  0
  -30.8877  -10.7321   20.3053 C   0  0  0  0  0  0  0  0  0  0  0  0
  -29.2989   -8.8971   19.7300 C   0  0  0  0  0  0  0  0  0  0  0  0
  -27.6056  -14.0933   15.6063 C   0  0  0  0  0  0  0  0  0  0  0  0
  -28.1921  -20.1314   21.5764 C   0  0  0  0  0  0  0  0  0  0  0  0
  -26.8078  -19.6236   21.9531 C   0  0  0  0  0  0  0  0  0  0  0  0
  -26.7640  -18.1013   21.9669 C   0  0  0  0  0  0  0  0  0  1  0  0
  -28.5092  -11.2969   19.6311 C   0  0  1  0  0  0  0  0  0  0  0  0
  -29.4620  -12.5209   16.1722 C   0  0  2  0  0  0  0  0  0  0  0  0
  -29.4124  -10.2869   20.3937 C   0  0  0  0  0  0  0  0  0  0  0  0
  -25.8108  -29.6817   21.4419 N   0  0  0  0  0  0  0  0  0  0  0  0
  -25.1235  -29.0145   20.4993 N   0  0  0  0  0  0  0  0  0  0  0  0
  -26.1958  -11.8708   20.2963 N   0  0  0  0  0  0  0  0  0  0  0  0
  -27.9753  -23.6310   20.1380 N   0  0  0  0  0  0  0  0  0  0  0  0
  -27.3686  -25.9492   20.0702 N   0  0  0  0  0  0  0  0  0  0  0  0
  -23.0482  -28.9590   19.3588 N   0  0  0  0  0  0  0  0  0  0  0  0
  -22.5969  -32.4617   22.1738 N   0  0  0  0  0  0  0  0  0  0  0  0
  -24.4027   -9.6972   22.1482 N   0  0  0  0  0  0  0  0  0  0  0  0
  -28.8281  -11.4317   18.2138 N   0  0  0  0  0  0  0  0  0  0  0  0
  -29.0459  -13.7609   15.4578 N   0  3  0  0  0  0  0  0  0  0  0  0
  -21.5398  -31.2211   20.5606 O   0  0  0  0  0  0  0  0  0  0  0  0
  -25.0350  -11.8064   22.9056 O   0  0  0  0  0  0  0  0  0  0  0  0
  -26.6726   -9.8476   19.2400 O   0  0  0  0  0  0  0  0  0  0  0  0
  -29.2489  -13.7116   18.2637 O   0  0  0  0  0  0  0  0  0  0  0  0
  -26.0781  -24.4096   21.1934 O   0  0  0  0  0  0  0  0  0  0  0  0
  -26.4214  -34.3000   25.7834 O   0  0  0  0  0  0  0  0  0  0  0  0
  -25.4617  -17.6593   22.3257 O   0  0  0  0  0  0  0  0  0  1  0  0
  -25.2823  -39.6205   24.8900 F   0  0  0  0  0  0  0  0  0  0  0  0
  -28.4390  -36.1882   25.7027 F   0  0  0  0  0  0  0  0  0  0  0  0
  1  2  1  0  0  0  0
  1  5  2  0  0  0  0
  2  6  2  0  0  0  0
  3  8  2  0  0  0  0
  3 15  1  0  0  0  0
  4  9  1  0  0  0  0
  4 15  2  0  0  0  0
  5 17  1  0  0  0  0
  6 19  1  0  0  0  0
  7 10  2  0  0  0  0
  7 18  1  0  0  0  0
  8 21  1  0  0  0  0
  9 21  2  0  0  0  0
 10 22  1  0  0  0  0
 11 12  2  0  0  0  0
 11 23  1  0  0  0  0
 12 24  1  0  0  0  0
 13 20  1  0  0  0  0
 13 22  2  0  0  0  0
 14 24  2  0  0  0  0
 14 25  1  0  0  0  0
 15 26  1  0  0  0  0
 16 26  1  0  0  0  0
 16 27  2  0  0  0  0
 16 30  1  0  0  0  0
 17 19  2  0  0  0  0
 17 35  1  0  0  0  0
 18 20  2  0  0  0  0
 18 36  1  0  0  0  0
 19 47  1  0  0  0  0
 20 37  1  0  0  0  0
 21 78  1  0  0  0  0
 22 79  1  0  0  0  0
 23 25  2  0  0  0  0
 23 78  1  0  0  0  0
 24 80  1  0  0  0  0
 25 81  1  0  0  0  0
 26 63  2  0  0  0  0
 27 64  1  0  0  0  0
 27 68  1  0  0  0  0
 28 29  2  0  0  0  0
 28 38  1  0  0  0  0
 28 48  1  0  0  0  0
 29 51  1  0  0  0  0
 30 69  1  0  0  0  0
 30 73  2  0  0  0  0
 31 49  1  0  0  0  0
 31 70  1  0  0  0  0
 31 74  2  0  0  0  0
 32 60  1  0  0  0  0
 32 65  1  0  0  0  0
 32 75  2  0  0  0  0
 33 61  1  0  0  0  0
 33 71  1  0  0  0  0
 33 76  2  0  0  0  0
 34 66  1  0  0  0  0
 34 67  1  0  0  0  0
 34 77  2  0  0  0  0
 35 39  1  0  0  0  0
 36 49  1  0  0  0  0
 37 65  1  0  0  0  0
 38 43  1  0  0  0  0
 39 41  1  0  0  0  0
 40 42  1  0  0  0  0
 40 44  1  0  0  0  0
 41 47  1  0  0  0  0
 42 50  1  0  0  0  0
 43 66  1  0  0  0  0
 44 67  1  0  0  0  0
 45 48  1  0  0  0  0
 45 66  1  0  0  0  0
 46 50  1  0  0  0  0
 46 67  1  0  0  0  0
 47 70  1  0  0  0  0
 48 57  1  0  0  0  0
 49 65  1  0  0  0  0
 50 64  1  0  0  0  0
 52 61  1  0  0  0  0
 53 62  1  0  0  0  0
 54 62  1  0  0  0  0
 55 62  1  0  0  0  0
 56 72  1  0  0  0  0
 57 58  1  0  0  0  0
 58 59  1  0  0  0  0
 59 79  1  0  0  0  0
 60 62  1  0  0  0  0
 60 71  1  0  0  0  0
 61 72  1  0  0  0  0
 63 64  1  0  0  0  0
M  CHG  1  72   1
M  ISO  4  34 100  59 101  66 100  79 101
M  END
> <Batch ID>
0105

> <Smiles>
CC=C1CC[100N:0]([100C:0](=O)N2CCCC(n3nc(-c4ccc(Oc5ccc(F)cc5F)cc4)c(C(N)=O)c3N)C2)CC1CC[101CH2:1][101O:1]c1ccc2c(c1)CN(C(=O)C(NC(=O)C(C)NC)C(C)(C)C)C(C(=O)NC1CCCc3ccccc31)C2

> <Shape>
0.288

> <Color>
0.038

> <Negative vol penalty>
0.000

$$$$

  -OEChem-04052319463D

 76 83  0     1  0  0  0  0  0999 V2000
  -29.4827  -12.8646   19.3923 C   0  0  0  0  0  0  0  0  0  0  0  0
  -28.8408  -13.7993   18.5862 C   0  0  0  0  0  0  0  0  0  0  0  0
  -22.4879  -28.4373   20.7591 C   0  0  0  0  0  0  0  0  0  0  0  0
  -23.6102  -27.2535   22.5412 C   0  0  0  0  0  0  0  0  0  0  0  0
  -28.7596  -12.1637   20.3565 C   0  0  0  0  0  0  0  0  0  0  0  0
  -27.4751  -14.0328   18.7432 C   0  0  0  0  0  0  0  0  0  0  0  0
  -28.3953  -17.7642   21.8635 C   0  0  0  0  0  0  0  0  0  0  0  0
  -21.2543  -28.1393   21.3380 C   0  0  0  0  0  0  0  0  0  0  0  0
  -22.3767  -26.9555   23.1202 C   0  0  0  0  0  0  0  0  0  0  0  0
  -29.6154  -18.2307   21.3760 C   0  0  0  0  0  0  0  0  0  0  0  0
  -19.3623  -29.2826   23.8965 C   0  0  0  0  0  0  0  0  0  0  0  0
  -18.4241  -30.3106   23.9885 C   0  0  0  0  0  0  0  0  0  0  0  0
  -28.4866  -19.1604   19.4575 C   0  0  0  0  0  0  0  0  0  0  0  0
  -16.8872  -29.0292   22.6345 C   0  0  0  0  0  0  0  0  0  0  0  0
  -23.6658  -27.9943   21.3607 C   0  0  0  0  0  0  0  0  0  0  0  0
  -25.7440  -29.4310   21.0074 C   0  0  0  0  0  0  0  0  0  0  0  0
  -27.3863  -12.3957   20.5319 C   0  0  0  0  0  0  0  0  0  0  0  0
  -27.2112  -17.9832   21.1449 C   0  0  0  0  0  0  0  0  0  0  0  0
  -26.7326  -13.3334   19.7098 C   0  0  0  0  0  0  0  0  0  0  0  0
  -27.2524  -18.6979   19.9393 C   0  0  0  0  0  0  0  0  0  0  0  0
  -21.1987  -27.3985   22.5186 C   0  0  0  0  0  0  0  0  0  0  0  0
  -29.6616  -18.9264   20.1715 C   0  0  0  0  0  0  0  0  0  0  0  0
  -19.0630  -28.1278   23.1736 C   0  0  0  0  0  0  0  0  0  0  0  0
  -17.1865  -30.1839   23.3575 C   0  0  0  0  0  0  0  0  0  0  0  0
  -17.8255  -28.0011   22.5426 C   0  0  0  0  0  0  0  0  0  0  0  0
  -24.9404  -28.3013   20.7628 C   0  0  0  0  0  0  0  0  0  0  0  0
  -26.8408  -29.2535   20.1998 C   0  0  0  0  0  0  0  0  0  0  0  0
  -25.5193  -30.5415   21.8860 C   0  0  0  0  0  0  0  0  0  0  0  0
  -25.0385  -16.1094   19.7767 C   0  0  0  0  0  0  0  0  0  0  0  0
  -23.4892  -18.9179   19.2926 C   0  0  0  0  0  0  0  0  0  0  0  0
  -23.6744  -22.3098   18.9652 C   0  0  0  0  0  0  0  0  0  0  0  0
  -29.4293  -24.3930   17.8490 C   0  0  0  0  0  0  0  0  0  0  0  0
  -26.6371  -11.5796   21.5553 C   0  0  0  0  0  0  0  0  0  0  0  0
  -25.8995  -17.4967   21.6976 C   0  0  0  0  0  0  0  0  0  0  0  0
  -26.0069  -18.9770   19.1398 C   0  0  0  0  0  0  0  0  0  0  0  0
  -25.2694  -12.1563   21.9116 C   0  0  0  0  0  0  0  0  0  0  0  0
  -28.1665  -27.2133   16.0803 C   0  0  0  0  0  0  0  0  0  0  0  0
  -24.5088  -12.5462   20.6482 C   0  0  0  0  0  0  0  0  0  0  0  0
  -27.2690  -27.9138   17.1018 C   0  0  0  0  0  0  0  0  0  0  0  0
  -28.0964  -25.6938   16.2156 C   0  0  0  0  0  0  0  0  0  0  0  0
  -27.4717  -25.8801   18.5923 C   0  0  0  0  0  0  0  0  0  0  0  0
  -25.2575  -13.6325   19.8666 C   0  0  1  0  0  0  0  0  0  0  0  0
  -24.8254  -17.3296   20.6273 C   0  0  1  0  0  0  0  0  0  0  0  0
  -27.5516  -27.4151   18.5318 C   0  0  2  0  0  0  0  0  0  0  0  0
  -22.2462  -24.3286   18.5380 C   0  0  0  0  0  0  0  0  0  0  0  0
  -23.3282  -18.1757   16.3374 C   0  0  0  0  0  0  0  0  0  0  0  0
  -22.7801  -20.5671   15.8384 C   0  0  0  0  0  0  0  0  0  0  0  0
  -21.2504  -19.2109   17.2677 C   0  0  0  0  0  0  0  0  0  0  0  0
  -31.3622  -20.7096   21.6179 C   0  0  0  0  0  0  0  0  0  0  0  0
  -32.6240  -20.9600   19.4704 C   0  0  0  0  0  0  0  0  0  0  0  0
  -24.3869  -23.5098   21.5750 C   0  0  0  0  0  0  0  0  0  0  0  0
  -30.1912  -21.7137   19.6288 C   0  0  0  0  0  0  0  0  0  0  0  0
  -30.6791  -23.1619   19.6044 C   0  0  0  0  0  0  0  0  0  0  0  0
  -23.4789  -19.9585   18.1989 C   0  0  1  0  0  0  0  0  0  0  0  0
  -22.8650  -23.4284   19.5961 C   0  0  2  0  0  0  0  0  0  0  0  0
  -22.7333  -19.4713   16.9245 C   0  0  0  0  0  0  0  0  0  0  0  0
  -31.2513  -20.6932   20.0899 C   0  0  0  0  0  0  0  0  0  1  0  0
  -25.4805  -27.4679   19.8697 N   0  0  0  0  0  0  0  0  0  0  0  0
  -26.6352  -28.0744   19.5459 N   0  0  0  0  0  0  0  0  0  0  0  0
  -24.7496  -18.4754   19.7188 N   0  0  0  0  0  0  0  0  0  0  0  0
  -28.3756  -25.2864   17.5948 N   0  0  0  0  0  0  0  0  0  0  0  0
  -27.9512  -29.9925   19.9923 N   0  0  0  0  0  0  0  0  0  0  0  0
  -24.3405  -30.5661   22.6437 N   0  0  0  0  0  0  0  0  0  0  0  0
  -25.0661  -14.9253   20.4885 N   0  0  0  0  0  0  0  0  0  0  0  0
  -22.9202  -21.1686   18.7921 N   0  0  0  0  0  0  0  0  0  0  0  0
  -29.6301  -24.0639   19.1839 N   0  0  0  0  0  0  0  0  0  0  0  0
  -23.7322  -24.2633   20.4747 N   0  3  0  0  0  0  0  0  0  0  0  0
  -26.3318  -31.4922   21.9837 O   0  0  0  0  0  0  0  0  0  0  0  0
  -25.1668  -16.2329   18.5643 O   0  0  0  0  0  0  0  0  0  0  0  0
  -22.4187  -18.5178   19.7569 O   0  0  0  0  0  0  0  0  0  0  0  0
  -24.8564  -22.4371   18.6533 O   0  0  0  0  0  0  0  0  0  0  0  0
  -30.1421  -23.9277   16.9532 O   0  0  0  0  0  0  0  0  0  0  0  0
  -19.9952  -27.1077   23.0839 O   0  0  0  0  0  0  0  0  0  0  0  0
  -30.8512  -19.3822   19.6931 O   0  0  0  0  0  0  0  0  0  1  0  0
  -16.2851  -31.1706   23.4471 F   0  0  0  0  0  0  0  0  0  0  0  0
  -17.5318  -26.8936   21.8476 F   0  0  0  0  0  0  0  0  0  0  0  0
  1  2  1  0  0  0  0
  1  5  2  0  0  0  0
  2  6  2  0  0  0  0
  3  8  2  0  0  0  0
  3 15  1  0  0  0  0
  4  9  1  0  0  0  0
  4 15  2  0  0  0  0
  5 17  1  0  0  0  0
  6 19  1  0  0  0  0
  7 10  2  0  0  0  0
  7 18  1  0  0  0  0
  8 21  1  0  0  0  0
  9 21  2  0  0  0  0
 10 22  1  0  0  0  0
 11 12  2  0  0  0  0
 11 23  1  0  0  0  0
 12 24  1  0  0  0  0
 13 20  1  0  0  0  0
 13 22  2  0  0  0  0
 14 24  2  0  0  0  0
 14 25  1  0  0  0  0
 15 26  1  0  0  0  0
 16 26  1  0  0  0  0
 16 27  2  0  0  0  0
 16 28  1  0  0  0  0
 17 19  2  0  0  0  0
 17 33  1  0  0  0  0
 18 20  2  0  0  0  0
 18 34  1  0  0  0  0
 19 42  1  0  0  0  0
 20 35  1  0  0  0  0
 21 73  1  0  0  0  0
 22 74  1  0  0  0  0
 23 25  2  0  0  0  0
 23 73  1  0  0  0  0
 24 75  1  0  0  0  0
 25 76  1  0  0  0  0
 26 58  2  0  0  0  0
 27 59  1  0  0  0  0
 27 62  1  0  0  0  0
 28 63  1  0  0  0  0
 28 68  2  0  0  0  0
 29 43  1  0  0  0  0
 29 64  1  0  0  0  0
 29 69  2  0  0  0  0
 30 54  1  0  0  0  0
 30 60  1  0  0  0  0
 30 70  2  0  0  0  0
 31 55  1  0  0  0  0
 31 65  1  0  0  0  0
 31 71  2  0  0  0  0
 32 61  1  0  0  0  0
 32 66  1  0  0  0  0
 32 72  2  0  0  0  0
 33 36  1  0  0  0  0
 34 43  1  0  0  0  0
 35 60  1  0  0  0  0
 36 38  1  0  0  0  0
 37 39  1  0  0  0  0
 37 40  1  0  0  0  0
 38 42  1  0  0  0  0
 39 44  1  0  0  0  0
 40 61  1  0  0  0  0
 41 44  1  0  0  0  0
 41 61  1  0  0  0  0
 42 64  1  0  0  0  0
 43 60  1  0  0  0  0
 44 59  1  0  0  0  0
 45 55  1  0  0  0  0
 46 56  1  0  0  0  0
 47 56  1  0  0  0  0
 48 56  1  0  0  0  0
 49 57  1  0  0  0  0
 50 57  1  0  0  0  0
 51 67  1  0  0  0  0
 52 53  1  0  0  0  0
 52 57  1  0  0  0  0
 53 66  1  0  0  0  0
 54 56  1  0  0  0  0
 54 65  1  0  0  0  0
 55 67  1  0  0  0  0
 57 74  1  0  0  0  0
 58 59  1  0  0  0  0
M  CHG  1  67   1
M  ISO  4  32 100  57 101  66 100  74 101
M  END
> <Batch ID>
0105

> <Smiles>
CNC(C)C(=O)NC(C(=O)N1Cc2cc([101O:1][101C:1](C)(C)CC[100NH:0][100C:0](=O)N3CCCC(n4nc(-c5ccc(Oc6ccc(F)cc6F)cc5)c(C(N)=O)c4N)C3)ccc2CC1C(=O)NC1CCCc2ccccc21)C(C)(C)C

> <Shape>
0.260

> <Color>
0.072

> <Negative vol penalty>
0.000

$$$$

  -OEChem-04052319463D

 84 92  0     1  0  0  0  0  0999 V2000
  -28.8834  -32.3104   25.8254 C   0  0  0  0  0  0  0  0  0  0  0  0
  -28.3603  -31.0218   25.7891 C   0  0  0  0  0  0  0  0  0  0  0  0
  -22.9885   -9.8268   20.0400 C   0  0  0  0  0  0  0  0  0  0  0  0
  -23.6644  -10.0066   22.3526 C   0  0  0  0  0  0  0  0  0  0  0  0
  -29.2825  -32.9331   24.6435 C   0  0  0  0  0  0  0  0  0  0  0  0
  -28.2350  -30.3556   24.5706 C   0  0  0  0  0  0  0  0  0  0  0  0
  -28.9123  -24.3516   23.5708 C   0  0  0  0  0  0  0  0  0  0  0  0
  -22.2139   -8.7099   20.3532 C   0  0  0  0  0  0  0  0  0  0  0  0
  -22.8898   -8.8896   22.6658 C   0  0  0  0  0  0  0  0  0  0  0  0
  -27.9921  -23.3115   23.4480 C   0  0  0  0  0  0  0  0  0  0  0  0
  -23.1366   -5.5292   22.3877 C   0  0  0  0  0  0  0  0  0  0  0  0
  -23.7057   -4.5553   23.2082 C   0  0  0  0  0  0  0  0  0  0  0  0
  -28.0687  -23.5351   21.0473 C   0  0  0  0  0  0  0  0  0  0  0  0
  -28.3649  -18.7482   21.5359 C   0  0  0  0  0  0  0  0  0  0  0  0
  -21.9469   -4.8939   24.8297 C   0  0  0  0  0  0  0  0  0  0  0  0
  -26.5011  -18.9205   20.0686 C   0  0  0  0  0  0  0  0  0  0  0  0
  -23.7138  -10.4751   21.0397 C   0  0  0  0  0  0  0  0  0  0  0  0
  -24.1084  -12.9764   20.7308 C   0  0  0  0  0  0  0  0  0  0  0  0
  -29.1710  -32.2705   23.4110 C   0  0  0  0  0  0  0  0  0  0  0  0
  -29.4102  -24.9997   22.4312 C   0  0  0  0  0  0  0  0  0  0  0  0
  -28.6317  -30.9705   23.3709 C   0  0  0  0  0  0  0  0  0  0  0  0
  -28.9971  -24.5815   21.1582 C   0  0  0  0  0  0  0  0  0  0  0  0
  -27.0256  -19.0678   21.3426 C   0  0  0  0  0  0  0  0  0  0  0  0
  -29.1280  -18.2974   20.4646 C   0  0  0  0  0  0  0  0  0  0  0  0
  -22.1645   -8.2413   21.6661 C   0  0  0  0  0  0  0  0  0  0  0  0
  -27.5680  -22.9050   22.1862 C   0  0  0  0  0  0  0  0  0  0  0  0
  -21.9727   -6.1855   22.7882 C   0  0  0  0  0  0  0  0  0  0  0  0
  -23.1108   -4.2376   24.4292 C   0  0  0  0  0  0  0  0  0  0  0  0
  -21.3779   -5.8678   24.0092 C   0  0  0  0  0  0  0  0  0  0  0  0
  -24.5146  -11.6286   20.7167 C   0  0  0  0  0  0  0  0  0  0  0  0
  -28.5093  -18.1844   19.2299 C   0  0  0  0  0  0  0  0  0  0  0  0
  -25.2273  -13.6762   20.3503 C   0  0  0  0  0  0  0  0  0  0  0  0
  -22.8337  -13.5450   21.0587 C   0  0  0  0  0  0  0  0  0  0  0  0
  -29.3028  -27.9741   21.3156 C   0  0  0  0  0  0  0  0  0  0  0  0
  -31.3172  -26.7884   19.0664 C   0  0  0  0  0  0  0  0  0  0  0  0
  -32.4792  -24.0696   17.3620 C   0  0  0  0  0  0  0  0  0  0  0  0
  -30.7192  -14.6176   20.6637 C   0  0  0  0  0  0  0  0  0  0  0  0
  -29.5717  -33.0022   22.1546 C   0  0  0  0  0  0  0  0  0  0  0  0
  -30.4226  -26.1022   22.5796 C   0  0  0  0  0  0  0  0  0  0  0  0
  -29.5169  -25.2311   19.9027 C   0  0  0  0  0  0  0  0  0  0  0  0
  -29.7540  -32.0855   20.9477 C   0  0  0  0  0  0  0  0  0  0  0  0
  -29.6234  -12.0670   18.4343 C   0  0  0  0  0  0  0  0  0  0  0  0
  -28.5859  -31.1108   20.8363 C   0  0  0  0  0  0  0  0  0  0  0  0
  -28.1658  -11.8327   18.8346 C   0  0  0  0  0  0  0  0  0  0  0  0
  -30.5003  -12.3691   19.6474 C   0  0  0  0  0  0  0  0  0  0  0  0
  -28.5639  -13.2407   20.8981 C   0  0  0  0  0  0  0  0  0  0  0  0
  -28.5030  -30.2057   22.0714 C   0  0  1  0  0  0  0  0  0  0  0  0
  -30.4731  -27.0334   21.3723 C   0  0  1  0  0  0  0  0  0  0  0  0
  -27.6300  -12.9875   19.7022 C   0  0  2  0  0  0  0  0  0  0  0  0
  -29.2796  -17.7046   18.0433 C   0  0  0  0  0  0  0  0  0  0  0  0
  -26.0432  -18.4991   23.5883 C   0  0  0  0  0  0  0  0  0  0  0  0
  -34.0985  -23.4196   15.5585 C   0  0  0  0  0  0  0  0  0  0  0  0
  -29.3981  -27.8720   16.9562 C   0  0  0  0  0  0  0  0  0  0  0  0
  -30.5310  -26.4051   15.2730 C   0  0  0  0  0  0  0  0  0  0  0  0
  -31.8209  -28.1998   16.4296 C   0  0  0  0  0  0  0  0  0  0  0  0
  -34.0177  -22.3399   19.2059 C   0  0  0  0  0  0  0  0  0  0  0  0
  -30.7815  -16.8597   21.7260 C   0  0  0  0  0  0  0  0  0  0  0  0
  -26.6843  -20.8838   23.0749 C   0  0  0  0  0  0  0  0  0  1  0  0
  -26.1632  -19.5626   22.4931 C   0  0  1  0  0  0  0  0  0  0  0  0
  -30.5640  -17.9550   20.6644 C   0  0  2  0  0  0  0  0  0  0  0  0
  -31.1464  -26.1315   17.7179 C   0  0  1  0  0  0  0  0  0  0  0  0
  -33.8899  -23.6013   17.0539 C   0  0  2  0  0  0  0  0  0  0  0  0
  -30.7127  -27.1409   16.6177 C   0  0  0  0  0  0  0  0  0  0  0  0
  -27.2109  -18.4855   19.0035 N   0  0  0  0  0  0  0  0  0  0  0  0
  -25.7917  -11.4787   20.3556 N   0  0  0  0  0  0  0  0  0  0  0  0
  -26.1977  -12.7414   20.1392 N   0  0  0  0  0  0  0  0  0  0  0  0
  -30.5004  -26.3087   20.1002 N   0  0  0  0  0  0  0  0  0  0  0  0
  -29.9379  -13.4746   20.4267 N   0  0  0  0  0  0  0  0  0  0  0  0
  -25.4659  -14.9938   20.1789 N   0  0  0  0  0  0  0  0  0  0  0  0
  -21.7928  -12.6827   21.4292 N   0  0  0  0  0  0  0  0  0  0  0  0
  -29.4998  -29.1590   21.9988 N   0  0  0  0  0  0  0  0  0  0  0  0
  -32.4022  -25.4443   17.4367 N   0  0  0  0  0  0  0  0  0  0  0  0
  -30.1079  -15.6210   21.4054 N   0  0  0  0  0  0  0  0  0  0  0  0
  -31.4049  -19.1433   21.0520 N   0  3  0  0  0  0  0  0  0  0  0  0
  -34.1627  -22.3005   17.7280 N   0  3  0  0  0  0  0  0  0  0  0  0
  -22.6193  -14.7799   21.0084 O   0  0  0  0  0  0  0  0  0  0  0  0
  -28.2963  -27.6497   20.6964 O   0  0  0  0  0  0  0  0  0  0  0  0
  -32.1497  -27.6888   19.1994 O   0  0  0  0  0  0  0  0  0  0  0  0
  -31.5387  -23.2937   17.5170 O   0  0  0  0  0  0  0  0  0  0  0  0
  -31.8741  -14.7373   20.2408 O   0  0  0  0  0  0  0  0  0  0  0  0
  -21.4086   -7.1516   21.9721 O   0  0  0  0  0  0  0  0  0  0  0  0
  -26.6694  -21.8904   22.0636 O   0  0  0  0  0  0  0  0  0  1  0  0
  -23.6566   -3.3013   25.2164 F   0  0  0  0  0  0  0  0  0  0  0  0
  -20.2591   -6.4941   24.3988 F   0  0  0  0  0  0  0  0  0  0  0  0
  1  2  1  0  0  0  0
  1  5  2  0  0  0  0
  2  6  2  0  0  0  0
  3  8  2  0  0  0  0
  3 17  1  0  0  0  0
  4  9  1  0  0  0  0
  4 17  2  0  0  0  0
  5 19  1  0  0  0  0
  6 21  1  0  0  0  0
  7 10  2  0  0  0  0
  7 20  1  0  0  0  0
  8 25  1  0  0  0  0
  9 25  2  0  0  0  0
 10 26  1  0  0  0  0
 11 12  2  0  0  0  0
 11 27  1  0  0  0  0
 12 28  1  0  0  0  0
 13 22  1  0  0  0  0
 13 26  2  0  0  0  0
 14 23  2  0  0  0  0
 14 24  1  0  0  0  0
 15 28  2  0  0  0  0
 15 29  1  0  0  0  0
 16 23  1  0  0  0  0
 16 64  2  0  0  0  0
 17 30  1  0  0  0  0
 18 30  1  0  0  0  0
 18 32  2  0  0  0  0
 18 33  1  0  0  0  0
 19 21  2  0  0  0  0
 19 38  1  0  0  0  0
 20 22  2  0  0  0  0
 20 39  1  0  0  0  0
 21 47  1  0  0  0  0
 22 40  1  0  0  0  0
 23 59  1  0  0  0  0
 24 31  2  0  0  0  0
 24 60  1  0  0  0  0
 25 81  1  0  0  0  0
 26 82  1  0  0  0  0
 27 29  2  0  0  0  0
 27 81  1  0  0  0  0
 28 83  1  0  0  0  0
 29 84  1  0  0  0  0
 30 65  2  0  0  0  0
 31 50  1  0  0  0  0
 31 64  1  0  0  0  0
 32 66  1  0  0  0  0
 32 69  1  0  0  0  0
 33 70  1  0  0  0  0
 33 76  2  0  0  0  0
 34 48  1  0  0  0  0
 34 71  1  0  0  0  0
 34 77  2  0  0  0  0
 35 61  1  0  0  0  0
 35 67  1  0  0  0  0
 35 78  2  0  0  0  0
 36 62  1  0  0  0  0
 36 72  1  0  0  0  0
 36 79  2  0  0  0  0
 37 68  1  0  0  0  0
 37 73  1  0  0  0  0
 37 80  2  0  0  0  0
 38 41  1  0  0  0  0
 39 48  1  0  0  0  0
 40 67  1  0  0  0  0
 41 43  1  0  0  0  0
 42 44  1  0  0  0  0
 42 45  1  0  0  0  0
 43 47  1  0  0  0  0
 44 49  1  0  0  0  0
 45 68  1  0  0  0  0
 46 49  1  0  0  0  0
 46 68  1  0  0  0  0
 47 71  1  0  0  0  0
 48 67  1  0  0  0  0
 49 66  1  0  0  0  0
 51 59  1  0  0  0  0
 52 62  1  0  0  0  0
 53 63  1  0  0  0  0
 54 63  1  0  0  0  0
 55 63  1  0  0  0  0
 56 75  1  0  0  0  0
 57 60  1  0  0  0  0
 57 73  1  0  0  0  0
 58 59  1  0  0  0  0
 58 82  1  0  0  0  0
 60 74  1  0  0  0  0
 61 63  1  0  0  0  0
 61 72  1  0  0  0  0
 62 75  1  0  0  0  0
 65 66  1  0  0  0  0
M  CHG  2  74   1  75   1
M  ISO  4  37 100  58 101  73 100  82 101
M  END
> <Batch ID>
0105

> <Smiles>
CNC(C)C(=O)NC(C(=O)N1Cc2cc([101O:1][101CH2:1]C(C)c3cnc(C)c(C(N)C[100NH:0][100C:0](=O)N4CCCC(n5nc(-c6ccc(Oc7ccc(F)cc7F)cc6)c(C(N)=O)c5N)C4)c3)ccc2CC1C(=O)NC1CCCc2ccccc21)C(C)(C)C

> <Shape>
0.301

> <Color>
0.192

> <Negative vol penalty>
0.000

$$$$

  -OEChem-04052319463D

 84 92  0     1  0  0  0  0  0999 V2000
  -32.6145  -31.1941   20.2625 C   0  0  0  0  0  0  0  0  0  0  0  0
  -32.1815  -29.9013   19.9856 C   0  0  0  0  0  0  0  0  0  0  0  0
  -22.6728  -10.2595   20.2038 C   0  0  0  0  0  0  0  0  0  0  0  0
  -24.2604   -9.6032   21.9026 C   0  0  0  0  0  0  0  0  0  0  0  0
  -32.0011  -31.9317   21.2742 C   0  0  0  0  0  0  0  0  0  0  0  0
  -31.1355  -29.3450   20.7210 C   0  0  0  0  0  0  0  0  0  0  0  0
  -26.8461  -25.4809   18.6775 C   0  0  0  0  0  0  0  0  0  0  0  0
  -21.9339   -9.1017   20.4470 C   0  0  0  0  0  0  0  0  0  0  0  0
  -23.5214   -8.4454   22.1459 C   0  0  0  0  0  0  0  0  0  0  0  0
  -26.7202  -24.0945   18.7523 C   0  0  0  0  0  0  0  0  0  0  0  0
  -20.7077   -7.5924   23.8120 C   0  0  0  0  0  0  0  0  0  0  0  0
  -20.4700   -7.2445   25.1416 C   0  0  0  0  0  0  0  0  0  0  0  0
  -25.3184  -24.3330   20.7010 C   0  0  0  0  0  0  0  0  0  0  0  0
  -21.6198   -5.1475   24.7986 C   0  0  0  0  0  0  0  0  0  0  0  0
  -23.8361  -10.5102   20.9316 C   0  0  0  0  0  0  0  0  0  0  0  0
  -24.1614  -13.0373   20.8072 C   0  0  0  0  0  0  0  0  0  0  0  0
  -30.9406  -31.3878   22.0159 C   0  0  0  0  0  0  0  0  0  0  0  0
  -26.2169  -26.3048   19.6218 C   0  0  0  0  0  0  0  0  0  0  0  0
  -30.5082  -30.0756   21.7444 C   0  0  0  0  0  0  0  0  0  0  0  0
  -25.4357  -25.7297   20.6344 C   0  0  0  0  0  0  0  0  0  0  0  0
  -22.3582   -8.1947   21.4181 C   0  0  0  0  0  0  0  0  0  0  0  0
  -25.9587  -23.5201   19.7659 C   0  0  0  0  0  0  0  0  0  0  0  0
  -21.4014   -6.7178   22.9755 C   0  0  0  0  0  0  0  0  0  0  0  0
  -20.9261   -6.0221   25.6350 C   0  0  0  0  0  0  0  0  0  0  0  0
  -21.8575   -5.4954   23.4689 C   0  0  0  0  0  0  0  0  0  0  0  0
  -24.6001  -11.7057   20.6804 C   0  0  0  0  0  0  0  0  0  0  0  0
  -25.2531  -13.7934   20.4566 C   0  0  0  0  0  0  0  0  0  0  0  0
  -22.8814  -13.5454   21.2063 C   0  0  0  0  0  0  0  0  0  0  0  0
  -27.2192  -28.3927   21.7990 C   0  0  0  0  0  0  0  0  0  0  0  0
  -24.0439  -28.9487   22.1607 C   0  0  0  0  0  0  0  0  0  0  0  0
  -20.8462  -27.8020   21.8340 C   0  0  0  0  0  0  0  0  0  0  0  0
  -30.7261  -14.8529   20.7185 C   0  0  0  0  0  0  0  0  0  0  0  0
  -30.3400  -32.2061   23.1314 C   0  0  0  0  0  0  0  0  0  0  0  0
  -26.3406  -27.7997   19.5115 C   0  0  0  0  0  0  0  0  0  0  0  0
  -24.7235  -26.5709   21.6608 C   0  0  0  0  0  0  0  0  0  0  0  0
  -28.9901  -31.6811   23.6133 C   0  0  0  0  0  0  0  0  0  0  0  0
  -27.5547  -19.5574   17.7416 C   0  0  0  0  0  0  0  0  0  0  0  0
  -29.6396  -12.4518   18.3247 C   0  0  0  0  0  0  0  0  0  0  0  0
  -29.0472  -30.1706   23.8186 C   0  0  0  0  0  0  0  0  0  0  0  0
  -28.1122  -18.7267   18.8956 C   0  0  0  0  0  0  0  0  0  0  0  0
  -28.1983  -12.1492   18.7383 C   0  0  0  0  0  0  0  0  0  0  0  0
  -26.4533  -20.5011   18.2103 C   0  0  0  0  0  0  0  0  0  0  0  0
  -27.4784  -20.5572   20.5166 C   0  0  0  0  0  0  0  0  0  0  0  0
  -30.5381  -12.6835   19.5375 C   0  0  0  0  0  0  0  0  0  0  0  0
  -28.6117  -13.4057   20.8945 C   0  0  0  0  0  0  0  0  0  0  0  0
  -29.3601  -29.4466   22.5036 C   0  0  1  0  0  0  0  0  0  0  0  0
  -26.0776  -28.5201   20.8303 C   0  0  1  0  0  0  0  0  0  0  0  0
  -28.5937  -19.6124   20.0532 C   0  0  1  0  0  0  0  0  0  0  0  0
  -27.6555  -13.2199   19.7039 C   0  0  2  0  0  0  0  0  0  0  0  0
  -26.9251  -21.3886   19.3603 C   0  0  2  0  0  0  0  0  0  1  0  0
  -18.4626  -28.4682   22.2487 C   0  0  0  0  0  0  0  0  0  0  0  0
  -33.8878  -19.7911   21.1028 C   0  0  0  0  0  0  0  0  0  0  0  0
  -32.6287  -19.1879   18.9993 C   0  0  0  0  0  0  0  0  0  0  0  0
  -24.4198  -28.4280   25.1435 C   0  0  0  0  0  0  0  0  0  0  0  0
  -21.9376  -28.1662   25.3397 C   0  0  0  0  0  0  0  0  0  0  0  0
  -22.9059  -30.3434   24.6016 C   0  0  0  0  0  0  0  0  0  0  0  0
  -20.1669  -27.5953   18.9609 C   0  0  0  0  0  0  0  0  0  0  0  0
  -29.0936  -18.7564   21.2153 C   0  0  0  0  0  0  0  0  0  0  0  0
  -30.7590  -17.0083   21.9484 C   0  0  0  0  0  0  0  0  0  0  0  0
  -22.9485  -28.3692   23.0228 C   0  0  1  0  0  0  0  0  0  0  0  0
  -19.6025  -28.4407   21.2425 C   0  0  2  0  0  0  0  0  0  0  0  0
  -32.8066  -18.9191   20.4849 C   0  0  0  0  0  0  0  0  0  0  0  0
  -30.4803  -18.1540   20.9765 C   0  0  2  0  0  0  0  0  0  0  0  0
  -23.0678  -28.8105   24.5089 C   0  0  0  0  0  0  0  0  0  0  0  0
  -25.8714  -11.6176   20.2803 N   0  0  0  0  0  0  0  0  0  0  0  0
  -26.2408  -12.9034   20.1526 N   0  0  0  0  0  0  0  0  0  0  0  0
  -24.8802  -28.0274   21.5143 N   0  0  0  0  0  0  0  0  0  0  0  0
  -29.9676  -13.7112   20.4119 N   0  0  0  0  0  0  0  0  0  0  0  0
  -25.4549  -15.1261   20.3818 N   0  0  0  0  0  0  0  0  0  0  0  0
  -22.6553  -13.7923   22.5673 N   0  0  0  0  0  0  0  0  0  0  0  0
  -28.1787  -29.3788   21.6705 N   0  0  0  0  0  0  0  0  0  0  0  0
  -21.6890  -28.7422   22.3880 N   0  0  0  0  0  0  0  0  0  0  0  0
  -30.1085  -15.7804   21.5487 N   0  0  0  0  0  0  0  0  0  0  0  0
  -19.1515  -27.6817   20.0419 N   0  3  0  0  0  0  0  0  0  0  0  0
  -31.5218  -19.2045   21.1723 N   0  3  0  0  0  0  0  0  0  0  0  0
  -21.9598  -13.7582   20.3824 O   0  0  0  0  0  0  0  0  0  0  0  0
  -27.2280  -27.4691   22.6043 O   0  0  0  0  0  0  0  0  0  0  0  0
  -24.1490  -30.1735   22.0586 O   0  0  0  0  0  0  0  0  0  0  0  0
  -21.0479  -26.5899   21.8106 O   0  0  0  0  0  0  0  0  0  0  0  0
  -31.8671  -15.0351   20.2803 O   0  0  0  0  0  0  0  0  0  0  0  0
  -21.6373   -7.0650   21.6559 O   0  0  0  0  0  0  0  0  0  0  0  0
  -25.8347  -22.1671   19.8416 O   0  0  0  0  0  0  0  0  0  1  0  0
  -20.6991   -5.6889   26.9123 F   0  0  0  0  0  0  0  0  0  0  0  0
  -22.5255   -4.6516   22.6704 F   0  0  0  0  0  0  0  0  0  0  0  0
  1  2  1  0  0  0  0
  1  5  2  0  0  0  0
  2  6  2  0  0  0  0
  3  8  2  0  0  0  0
  3 15  1  0  0  0  0
  4  9  1  0  0  0  0
  4 15  2  0  0  0  0
  5 17  1  0  0  0  0
  6 19  1  0  0  0  0
  7 10  2  0  0  0  0
  7 18  1  0  0  0  0
  8 21  1  0  0  0  0
  9 21  2  0  0  0  0
 10 22  1  0  0  0  0
 11 12  2  0  0  0  0
 11 23  1  0  0  0  0
 12 24  1  0  0  0  0
 13 20  1  0  0  0  0
 13 22  2  0  0  0  0
 14 24  2  0  0  0  0
 14 25  1  0  0  0  0
 15 26  1  0  0  0  0
 16 26  1  0  0  0  0
 16 27  2  0  0  0  0
 16 28  1  0  0  0  0
 17 19  2  0  0  0  0
 17 33  1  0  0  0  0
 18 20  2  0  0  0  0
 18 34  1  0  0  0  0
 19 46  1  0  0  0  0
 20 35  1  0  0  0  0
 21 81  1  0  0  0  0
 22 82  1  0  0  0  0
 23 25  2  0  0  0  0
 23 81  1  0  0  0  0
 24 83  1  0  0  0  0
 25 84  1  0  0  0  0
 26 65  2  0  0  0  0
 27 66  1  0  0  0  0
 27 69  1  0  0  0  0
 28 70  1  0  0  0  0
 28 76  2  0  0  0  0
 29 47  1  0  0  0  0
 29 71  1  0  0  0  0
 29 77  2  0  0  0  0
 30 60  1  0  0  0  0
 30 67  1  0  0  0  0
 30 78  2  0  0  0  0
 31 61  1  0  0  0  0
 31 72  1  0  0  0  0
 31 79  2  0  0  0  0
 32 68  1  0  0  0  0
 32 73  1  0  0  0  0
 32 80  2  0  0  0  0
 33 36  1  0  0  0  0
 34 47  1  0  0  0  0
 35 67  1  0  0  0  0
 36 39  1  0  0  0  0
 37 40  1  0  0  0  0
 37 42  1  0  0  0  0
 38 41  1  0  0  0  0
 38 44  1  0  0  0  0
 39 46  1  0  0  0  0
 40 48  1  0  0  0  0
 41 49  1  0  0  0  0
 42 50  1  0  0  0  0
 43 48  1  0  0  0  0
 43 50  1  0  0  0  0
 44 68  1  0  0  0  0
 45 49  1  0  0  0  0
 45 68  1  0  0  0  0
 46 71  1  0  0  0  0
 47 67  1  0  0  0  0
 48 58  1  0  0  0  0
 49 66  1  0  0  0  0
 50 82  1  0  0  0  0
 51 61  1  0  0  0  0
 52 62  1  0  0  0  0
 53 62  1  0  0  0  0
 54 64  1  0  0  0  0
 55 64  1  0  0  0  0
 56 64  1  0  0  0  0
 57 74  1  0  0  0  0
 58 63  1  0  0  0  0
 59 63  1  0  0  0  0
 59 73  1  0  0  0  0
 60 64  1  0  0  0  0
 60 72  1  0  0  0  0
 61 74  1  0  0  0  0
 62 75  1  0  0  0  0
 63 75  1  0  0  0  0
 65 66  1  0  0  0  0
M  CHG  2  74   1  75   1
M  ISO  4  32 100  50 101  73 100  82 101
M  END
> <Batch ID>
0105

> <Smiles>
CNC(C)C(=O)NC(C(=O)N1Cc2cc([101O:1][101CH:1]3CCCC(CC(C[100NH:0][100C:0](=O)N4CCCC(n5nc(-c6ccc(Oc7ccc(F)cc7F)cc6)c(C(N)=O)c5N)C4)NC(C)C)C3)ccc2CC1C(=O)NC1CCCc2ccccc21)C(C)(C)C

> <Shape>
0.324

> <Color>
0.191

> <Negative vol penalty>
0.000

$$$$

  -OEChem-04052319463D

 81 89  0     1  0  0  0  0  0999 V2000
  -28.0499  -37.0485   21.1314 C   0  0  0  0  0  0  0  0  0  0  0  0
  -28.4643  -35.7306   20.9672 C   0  0  0  0  0  0  0  0  0  0  0  0
  -26.8776  -12.7327   21.8094 C   0  0  0  0  0  0  0  0  0  0  0  0
  -26.2288  -14.3611   20.1467 C   0  0  0  0  0  0  0  0  0  0  0  0
  -26.9303  -37.3339   21.9117 C   0  0  0  0  0  0  0  0  0  0  0  0
  -27.7600  -34.6974   21.5843 C   0  0  0  0  0  0  0  0  0  0  0  0
  -26.8397  -29.0510   19.3988 C   0  0  0  0  0  0  0  0  0  0  0  0
  -25.5580  -12.2877   21.8885 C   0  0  0  0  0  0  0  0  0  0  0  0
  -24.9092  -13.9160   20.2258 C   0  0  0  0  0  0  0  0  0  0  0  0
  -27.4769  -27.8352   19.6430 C   0  0  0  0  0  0  0  0  0  0  0  0
  -23.4878  -10.3010   20.0996 C   0  0  0  0  0  0  0  0  0  0  0  0
  -23.2673   -8.9237   20.1035 C   0  0  0  0  0  0  0  0  0  0  0  0
  -25.7864  -27.2834   21.2730 C   0  0  0  0  0  0  0  0  0  0  0  0
  -29.0910  -23.0658   19.5809 C   0  0  0  0  0  0  0  0  0  0  0  0
  -30.3922  -22.6607   22.0151 C   0  0  0  0  0  0  0  0  0  0  0  0
  -22.2055   -9.0999   22.2666 C   0  0  0  0  0  0  0  0  0  0  0  0
  -27.2130  -13.7694   20.9386 C   0  0  0  0  0  0  0  0  0  0  0  0
  -29.5839  -13.7540   19.9971 C   0  0  0  0  0  0  0  0  0  0  0  0
  -26.2062  -36.3028   22.5308 C   0  0  0  0  0  0  0  0  0  0  0  0
  -25.6751  -29.3974   20.0989 C   0  0  0  0  0  0  0  0  0  0  0  0
  -26.6305  -34.9694   22.3748 C   0  0  0  0  0  0  0  0  0  0  0  0
  -25.1348  -28.5030   21.0340 C   0  0  0  0  0  0  0  0  0  0  0  0
  -29.2716  -24.1326   20.4612 C   0  0  0  0  0  0  0  0  0  0  0  0
  -29.5609  -21.7964   19.9178 C   0  0  0  0  0  0  0  0  0  0  0  0
  -29.9222  -23.9301   21.6783 C   0  0  0  0  0  0  0  0  0  0  0  0
  -30.2116  -21.5939   21.1349 C   0  0  0  0  0  0  0  0  0  0  0  0
  -24.5738  -12.8793   21.0967 C   0  0  0  0  0  0  0  0  0  0  0  0
  -26.9520  -26.9525   20.5823 C   0  0  0  0  0  0  0  0  0  0  0  0
  -23.0672  -11.0778   21.1792 C   0  0  0  0  0  0  0  0  0  0  0  0
  -22.6261   -8.3232   21.1870 C   0  0  0  0  0  0  0  0  0  0  0  0
  -22.4260  -10.4772   22.2626 C   0  0  0  0  0  0  0  0  0  0  0  0
  -28.5759  -14.2300   20.8568 C   0  0  0  0  0  0  0  0  0  0  0  0
  -30.6864  -14.5119   20.3079 C   0  0  0  0  0  0  0  0  0  0  0  0
  -29.5286  -12.7194   19.0060 C   0  0  0  0  0  0  0  0  0  0  0  0
  -24.8730  -31.7305   22.1032 C   0  0  0  0  0  0  0  0  0  0  0  0
  -21.9206  -30.4130   21.8396 C   0  0  0  0  0  0  0  0  0  0  0  0
  -20.0281  -27.6612   21.1372 C   0  0  0  0  0  0  0  0  0  0  0  0
  -31.3615  -19.9595   22.6688 C   0  0  0  0  0  0  0  0  0  0  0  0
  -25.0304  -36.6642   23.4035 C   0  0  0  0  0  0  0  0  0  0  0  0
  -24.9847  -30.7009   19.8046 C   0  0  0  0  0  0  0  0  0  0  0  0
  -23.8756  -28.8188   21.7976 C   0  0  0  0  0  0  0  0  0  0  0  0
  -24.1184  -35.4810   23.7174 C   0  0  0  0  0  0  0  0  0  0  0  0
  -32.6794  -16.9077   23.9442 C   0  0  0  0  0  0  0  0  0  0  0  0
  -24.9428  -34.2682   24.1372 C   0  0  0  0  0  0  0  0  0  0  0  0
  -31.8726  -15.8313   23.2145 C   0  0  0  0  0  0  0  0  0  0  0  0
  -31.8231  -18.1268   24.2822 C   0  0  0  0  0  0  0  0  0  0  0  0
  -30.2915  -17.6342   22.4165 C   0  0  0  0  0  0  0  0  0  0  0  0
  -25.8780  -33.8191   23.0078 C   0  0  1  0  0  0  0  0  0  0  0  0
  -24.0911  -31.1750   20.9466 C   0  0  1  0  0  0  0  0  0  0  0  0
  -31.1273  -16.4137   21.9975 C   0  0  2  0  0  0  0  0  0  0  0  0
  -30.1268  -25.0571   22.6366 C   0  0  0  0  0  0  0  0  0  0  0  0
  -30.6258  -20.3267   18.1878 C   0  0  0  0  0  0  0  0  0  0  0  0
  -17.6449  -26.8808   21.0444 C   0  0  0  0  0  0  0  0  0  0  0  0
  -21.8569  -30.2531   24.8860 C   0  0  0  0  0  0  0  0  0  0  0  0
  -19.9473  -28.6455   24.6922 C   0  0  0  0  0  0  0  0  0  0  0  0
  -19.7061  -30.9754   23.8341 C   0  0  0  0  0  0  0  0  0  0  0  0
  -20.2185  -27.0514   18.2474 C   0  0  0  0  0  0  0  0  0  0  0  0
  -29.3537  -20.6719   18.9557 C   0  0  0  0  0  0  0  0  0  0  0  0
  -28.7572  -25.4889   20.0774 C   0  0  0  0  0  0  0  0  0  1  0  0
  -21.1612  -29.3353   22.5752 C   0  0  1  0  0  0  0  0  0  0  0  0
  -18.8026  -27.4787   20.2601 C   0  0  2  0  0  0  0  0  0  0  0  0
  -20.6927  -29.7969   23.9840 C   0  0  0  0  0  0  0  0  0  0  0  0
  -29.0003  -15.2139   21.6541 N   0  0  0  0  0  0  0  0  0  0  0  0
  -30.2873  -15.3624   21.2967 N   0  0  0  0  0  0  0  0  0  0  0  0
  -23.2408  -30.1084   21.4790 N   0  0  0  0  0  0  0  0  0  0  0  0
  -31.1510  -18.6265   23.0807 N   0  0  0  0  0  0  0  0  0  0  0  0
  -31.9485  -14.5271   19.8293 N   0  0  0  0  0  0  0  0  0  0  0  0
  -28.3171  -12.0409   18.8153 N   0  0  0  0  0  0  0  0  0  0  0  0
  -30.6962  -20.3120   21.4950 N   0  0  0  0  0  0  0  0  0  0  0  0
  -25.1405  -33.0825   22.0038 N   0  0  0  0  0  0  0  0  0  0  0  0
  -20.0770  -28.9234   21.6902 N   0  0  0  0  0  0  0  0  0  0  0  0
  -19.1133  -26.5737   19.1176 N   0  3  0  0  0  0  0  0  0  0  0  0
  -30.5284  -12.3947   18.3216 O   0  0  0  0  0  0  0  0  0  0  0  0
  -25.2075  -30.9878   23.0187 O   0  0  0  0  0  0  0  0  0  0  0  0
  -21.3606  -31.4828   21.5878 O   0  0  0  0  0  0  0  0  0  0  0  0
  -20.8571  -26.7718   21.3169 O   0  0  0  0  0  0  0  0  0  0  0  0
  -32.1006  -20.7233   23.2951 O   0  0  0  0  0  0  0  0  0  0  0  0
  -23.2861  -12.4452   21.1734 O   0  0  0  0  0  0  0  0  0  0  0  0
  -27.5723  -25.7655   20.8231 O   0  0  0  0  0  0  0  0  0  1  0  0
  -22.4131   -7.0008   21.1899 F   0  0  0  0  0  0  0  0  0  0  0  0
  -22.0187  -11.2184   23.3021 F   0  0  0  0  0  0  0  0  0  0  0  0
  1  2  1  0  0  0  0
  1  5  2  0  0  0  0
  2  6  2  0  0  0  0
  3  8  2  0  0  0  0
  3 17  1  0  0  0  0
  4  9  1  0  0  0  0
  4 17  2  0  0  0  0
  5 19  1  0  0  0  0
  6 21  1  0  0  0  0
  7 10  2  0  0  0  0
  7 20  1  0  0  0  0
  8 27  1  0  0  0  0
  9 27  2  0  0  0  0
 10 28  1  0  0  0  0
 11 12  2  0  0  0  0
 11 29  1  0  0  0  0
 12 30  1  0  0  0  0
 13 22  1  0  0  0  0
 13 28  2  0  0  0  0
 14 23  2  0  0  0  0
 14 24  1  0  0  0  0
 15 25  2  0  0  0  0
 15 26  1  0  0  0  0
 16 30  2  0  0  0  0
 16 31  1  0  0  0  0
 17 32  1  0  0  0  0
 18 32  1  0  0  0  0
 18 33  2  0  0  0  0
 18 34  1  0  0  0  0
 19 21  2  0  0  0  0
 19 39  1  0  0  0  0
 20 22  2  0  0  0  0
 20 40  1  0  0  0  0
 21 48  1  0  0  0  0
 22 41  1  0  0  0  0
 23 25  1  0  0  0  0
 23 59  1  0  0  0  0
 24 26  2  0  0  0  0
 24 58  1  0  0  0  0
 25 51  1  0  0  0  0
 26 69  1  0  0  0  0
 27 78  1  0  0  0  0
 28 79  1  0  0  0  0
 29 31  2  0  0  0  0
 29 78  1  0  0  0  0
 30 80  1  0  0  0  0
 31 81  1  0  0  0  0
 32 63  2  0  0  0  0
 33 64  1  0  0  0  0
 33 67  1  0  0  0  0
 34 68  1  0  0  0  0
 34 73  2  0  0  0  0
 35 49  1  0  0  0  0
 35 70  1  0  0  0  0
 35 74  2  0  0  0  0
 36 60  1  0  0  0  0
 36 65  1  0  0  0  0
 36 75  2  0  0  0  0
 37 61  1  0  0  0  0
 37 71  1  0  0  0  0
 37 76  2  0  0  0  0
 38 66  1  0  0  0  0
 38 69  1  0  0  0  0
 38 77  2  0  0  0  0
 39 42  1  0  0  0  0
 40 49  1  0  0  0  0
 41 65  1  0  0  0  0
 42 44  1  0  0  0  0
 43 45  1  0  0  0  0
 43 46  1  0  0  0  0
 44 48  1  0  0  0  0
 45 50  1  0  0  0  0
 46 66  1  0  0  0  0
 47 50  1  0  0  0  0
 47 66  1  0  0  0  0
 48 70  1  0  0  0  0
 49 65  1  0  0  0  0
 50 64  1  0  0  0  0
 52 58  1  0  0  0  0
 53 61  1  0  0  0  0
 54 62  1  0  0  0  0
 55 62  1  0  0  0  0
 56 62  1  0  0  0  0
 57 72  1  0  0  0  0
 59 79  1  0  0  0  0
 60 62  1  0  0  0  0
 60 71  1  0  0  0  0
 61 72  1  0  0  0  0
 63 64  1  0  0  0  0
M  CHG  1  72   1
M  ISO  4  38 100  59 101  69 100  79 101
M  END
> <Batch ID>
0105

> <Smiles>
CCc1cc([101CH2:1][101O:1]c2ccc3c(c2)CN(C(=O)C(NC(=O)C(C)NC)C(C)(C)C)C(C(=O)NC2CCCc4ccccc42)C3)c(C)cc1[100NH:0][100C:0](=O)N1CCCC(n2nc(-c3ccc(Oc4ccc(F)cc4F)cc3)c(C(N)=O)c2N)C1

> <Shape>
0.343

> <Color>
0.077

> <Negative vol penalty>
0.000

$$$$

  -OEChem-04052319463D

 76 83  0     1  0  0  0  0  0999 V2000
  -22.1420  -11.6163   19.0973 C   0  0  0  0  0  0  0  0  0  0  0  0
  -21.6951  -12.7208   19.8155 C   0  0  0  0  0  0  0  0  0  0  0  0
  -25.9161  -25.8063   20.4291 C   0  0  0  0  0  0  0  0  0  0  0  0
  -25.1016  -27.9971   19.8177 C   0  0  0  0  0  0  0  0  0  0  0  0
  -23.4981  -11.2928   19.0905 C   0  0  0  0  0  0  0  0  0  0  0  0
  -22.6041  -13.5018   20.5284 C   0  0  0  0  0  0  0  0  0  0  0  0
  -22.3676  -19.5598   21.3945 C   0  0  0  0  0  0  0  0  0  0  0  0
  -27.2291  -26.2656   20.3257 C   0  0  0  0  0  0  0  0  0  0  0  0
  -26.4146  -28.4565   19.7143 C   0  0  0  0  0  0  0  0  0  0  0  0
  -21.9172  -20.3381   22.4599 C   0  0  0  0  0  0  0  0  0  0  0  0
  -29.3867  -28.0823   22.1905 C   0  0  0  0  0  0  0  0  0  0  0  0
  -30.2767  -27.7355   23.2069 C   0  0  0  0  0  0  0  0  0  0  0  0
  -24.1751  -20.4899   23.2956 C   0  0  0  0  0  0  0  0  0  0  0  0
  -31.6807  -26.6111   21.5939 C   0  0  0  0  0  0  0  0  0  0  0  0
  -24.8523  -26.6721   20.1750 C   0  0  0  0  0  0  0  0  0  0  0  0
  -22.9003  -25.1540   19.5482 C   0  0  0  0  0  0  0  0  0  0  0  0
  -24.4255  -12.0758   19.7958 C   0  0  0  0  0  0  0  0  0  0  0  0
  -23.7258  -19.2310   21.2774 C   0  0  0  0  0  0  0  0  0  0  0  0
  -23.9738  -13.1876   20.5322 C   0  0  0  0  0  0  0  0  0  0  0  0
  -24.6405  -19.7094   22.2264 C   0  0  0  0  0  0  0  0  0  0  0  0
  -27.4784  -27.5907   19.9683 C   0  0  0  0  0  0  0  0  0  0  0  0
  -22.8205  -20.8009   23.4122 C   0  0  0  0  0  0  0  0  0  0  0  0
  -29.6436  -27.6935   20.8757 C   0  0  0  0  0  0  0  0  0  0  0  0
  -31.4237  -26.9999   22.9087 C   0  0  0  0  0  0  0  0  0  0  0  0
  -30.7906  -26.9579   20.5775 C   0  0  0  0  0  0  0  0  0  0  0  0
  -23.4958  -26.1981   20.2811 C   0  0  0  0  0  0  0  0  0  0  0  0
  -21.6105  -25.0976   20.0169 C   0  0  0  0  0  0  0  0  0  0  0  0
  -23.4629  -24.3106   18.5344 C   0  0  0  0  0  0  0  0  0  0  0  0
  -25.3855  -16.5201   21.2769 C   0  0  0  0  0  0  0  0  0  0  0  0
  -27.8605  -18.4908   20.5606 C   0  0  0  0  0  0  0  0  0  0  0  0
  -19.1571  -26.8072   25.2294 C   0  0  0  0  0  0  0  0  0  0  0  0
  -29.1895  -21.6320   20.6746 C   0  0  0  0  0  0  0  0  0  0  0  0
  -25.8750  -11.6592   19.7973 C   0  0  0  0  0  0  0  0  0  0  0  0
  -24.1996  -18.4128   20.1076 C   0  0  0  0  0  0  0  0  0  0  0  0
  -26.1120  -19.4015   22.1350 C   0  0  0  0  0  0  0  0  0  0  0  0
  -26.8237  -12.7563   20.2735 C   0  0  0  0  0  0  0  0  0  0  0  0
  -18.1918  -27.8286   21.9332 C   0  0  0  0  0  0  0  0  0  0  0  0
  -26.2911  -13.4073   21.5460 C   0  0  0  0  0  0  0  0  0  0  0  0
  -19.3998  -27.4574   21.0741 C   0  0  0  0  0  0  0  0  0  0  0  0
  -18.6162  -28.2882   23.3245 C   0  0  0  0  0  0  0  0  0  0  0  0
  -20.6818  -26.9323   23.1968 C   0  0  0  0  0  0  0  0  0  0  0  0
  -24.9325  -14.0736   21.2978 C   0  0  1  0  0  0  0  0  0  0  0  0
  -25.5277  -17.7092   20.3694 C   0  0  1  0  0  0  0  0  0  0  0  0
  -20.2957  -26.4332   21.7932 C   0  0  2  0  0  0  0  0  0  0  0  0
  -30.8145  -23.4906   20.2243 C   0  0  0  0  0  0  0  0  0  0  0  0
  -19.5412  -25.3919   27.1992 C   0  0  0  0  0  0  0  0  0  0  0  0
  -21.4795  -26.4234   25.9992 C   0  0  0  0  0  0  0  0  0  0  0  0
  -29.3531  -17.2706   22.9256 C   0  0  0  0  0  0  0  0  0  0  0  0
  -30.9406  -19.2043   22.8318 C   0  0  0  0  0  0  0  0  0  0  0  0
  -30.7557  -17.6494   20.8900 C   0  0  0  0  0  0  0  0  0  0  0  0
  -27.8355  -22.3592   18.1454 C   0  0  0  0  0  0  0  0  0  0  0  0
  -21.3241  -23.6084   25.1223 C   0  0  0  0  0  0  0  0  0  0  0  0
  -20.1272  -24.5413   24.9098 C   0  0  0  0  0  0  0  0  0  0  0  0
  -21.2389  -22.3809   24.2235 C   0  0  0  0  0  0  0  0  0  1  0  0
  -28.8738  -19.2699   21.3638 C   0  0  1  0  0  0  0  0  0  0  0  0
  -29.8559  -22.4831   19.6087 C   0  0  2  0  0  0  0  0  0  0  0  0
  -20.0967  -25.7879   25.8227 C   0  0  0  0  0  0  0  0  0  0  0  0
  -29.9529  -18.3529   22.0059 C   0  0  0  0  0  0  0  0  0  0  0  0
  -22.6534  -26.7643   21.1494 N   0  0  0  0  0  0  0  0  0  0  0  0
  -21.5154  -26.0736   20.9649 N   0  0  0  0  0  0  0  0  0  0  0  0
  -26.5254  -18.5926   20.9764 N   0  0  0  0  0  0  0  0  0  0  0  0
  -19.4839  -27.2984   23.9652 N   0  0  0  0  0  0  0  0  0  0  0  0
  -20.5598  -24.3090   19.7064 N   0  0  0  0  0  0  0  0  0  0  0  0
  -24.0741  -23.1117   18.9260 N   0  0  0  0  0  0  0  0  0  0  0  0
  -25.1069  -15.3386   20.6167 N   0  0  0  0  0  0  0  0  0  0  0  0
  -29.4111  -20.2871   20.4666 N   0  0  0  0  0  0  0  0  0  0  0  0
  -28.8306  -23.2282   18.8249 N   0  3  0  0  0  0  0  0  0  0  0  0
  -23.4390  -24.6190   17.3187 O   0  0  0  0  0  0  0  0  0  0  0  0
  -25.5201  -16.6636   22.4864 O   0  0  0  0  0  0  0  0  0  0  0  0
  -28.2387  -17.8223   19.5953 O   0  0  0  0  0  0  0  0  0  0  0  0
  -18.1614  -27.1532   25.8705 O   0  0  0  0  0  0  0  0  0  0  0  0
  -28.5407  -22.1125   21.6012 O   0  0  0  0  0  0  0  0  0  0  0  0
  -28.7595  -28.0392   19.8676 O   0  0  0  0  0  0  0  0  0  0  0  0
  -22.3835  -21.5603   24.4535 O   0  0  0  0  0  0  0  0  0  1  0  0
  -32.2791  -26.6683   23.8846 F   0  0  0  0  0  0  0  0  0  0  0  0
  -31.0434  -26.5825   19.3161 F   0  0  0  0  0  0  0  0  0  0  0  0
  1  2  1  0  0  0  0
  1  5  2  0  0  0  0
  2  6  2  0  0  0  0
  3  8  2  0  0  0  0
  3 15  1  0  0  0  0
  4  9  1  0  0  0  0
  4 15  2  0  0  0  0
  5 17  1  0  0  0  0
  6 19  1  0  0  0  0
  7 10  2  0  0  0  0
  7 18  1  0  0  0  0
  8 21  1  0  0  0  0
  9 21  2  0  0  0  0
 10 22  1  0  0  0  0
 11 12  2  0  0  0  0
 11 23  1  0  0  0  0
 12 24  1  0  0  0  0
 13 20  1  0  0  0  0
 13 22  2  0  0  0  0
 14 24  2  0  0  0  0
 14 25  1  0  0  0  0
 15 26  1  0  0  0  0
 16 26  1  0  0  0  0
 16 27  2  0  0  0  0
 16 28  1  0  0  0  0
 17 19  2  0  0  0  0
 17 33  1  0  0  0  0
 18 20  2  0  0  0  0
 18 34  1  0  0  0  0
 19 42  1  0  0  0  0
 20 35  1  0  0  0  0
 21 73  1  0  0  0  0
 22 74  1  0  0  0  0
 23 25  2  0  0  0  0
 23 73  1  0  0  0  0
 24 75  1  0  0  0  0
 25 76  1  0  0  0  0
 26 59  2  0  0  0  0
 27 60  1  0  0  0  0
 27 63  1  0  0  0  0
 28 64  1  0  0  0  0
 28 68  2  0  0  0  0
 29 43  1  0  0  0  0
 29 65  1  0  0  0  0
 29 69  2  0  0  0  0
 30 55  1  0  0  0  0
 30 61  1  0  0  0  0
 30 70  2  0  0  0  0
 31 57  1  0  0  0  0
 31 62  1  0  0  0  0
 31 71  2  0  0  0  0
 32 56  1  0  0  0  0
 32 66  1  0  0  0  0
 32 72  2  0  0  0  0
 33 36  1  0  0  0  0
 34 43  1  0  0  0  0
 35 61  1  0  0  0  0
 36 38  1  0  0  0  0
 37 39  1  0  0  0  0
 37 40  1  0  0  0  0
 38 42  1  0  0  0  0
 39 44  1  0  0  0  0
 40 62  1  0  0  0  0
 41 44  1  0  0  0  0
 41 62  1  0  0  0  0
 42 65  1  0  0  0  0
 43 61  1  0  0  0  0
 44 60  1  0  0  0  0
 45 56  1  0  0  0  0
 46 57  1  0  0  0  0
 47 57  1  0  0  0  0
 48 58  1  0  0  0  0
 49 58  1  0  0  0  0
 50 58  1  0  0  0  0
 51 67  1  0  0  0  0
 52 53  1  0  0  0  0
 52 54  1  0  0  0  0
 53 57  1  0  0  0  0
 54 74  1  0  0  0  0
 55 58  1  0  0  0  0
 55 66  1  0  0  0  0
 56 67  1  0  0  0  0
 59 60  1  0  0  0  0
M  CHG  1  67   1
M  ISO  4  31 100  54 101  57 100  74 101
M  END
> <Batch ID>
0105

> <Smiles>
CNC(C)C(=O)NC(C(=O)N1Cc2cc([101O:1][101CH2:1]CC[100C:0](C)(C)[100C:0](=O)N3CCCC(n4nc(-c5ccc(Oc6ccc(F)cc6F)cc5)c(C(N)=O)c4N)C3)ccc2CC1C(=O)NC1CCCc2ccccc21)C(C)(C)C

> <Shape>
0.210

> <Color>
0.063

> <Negative vol penalty>
0.000

$$$$

  -OEChem-04052319463D

 85 93  0     1  0  0  0  0  0999 V2000
  -28.0368  -11.2033   20.6911 C   0  0  0  0  0  0  0  0  0  0  0  0
  -28.6068  -12.3911   20.2442 C   0  0  0  0  0  0  0  0  0  0  0  0
  -20.0802  -26.9308   23.5749 C   0  0  0  0  0  0  0  0  0  0  0  0
  -20.2412  -28.3779   21.6469 C   0  0  0  0  0  0  0  0  0  0  0  0
  -26.6564  -11.1166   20.8665 C   0  0  0  0  0  0  0  0  0  0  0  0
  -27.7964  -13.4927   19.9715 C   0  0  0  0  0  0  0  0  0  0  0  0
  -29.1918  -19.3931   20.8340 C   0  0  0  0  0  0  0  0  0  0  0  0
  -18.6903  -27.0430   23.5430 C   0  0  0  0  0  0  0  0  0  0  0  0
  -18.8512  -28.4901   21.6150 C   0  0  0  0  0  0  0  0  0  0  0  0
  -29.6495  -20.3850   19.9678 C   0  0  0  0  0  0  0  0  0  0  0  0
  -15.0814  -26.6581   23.7500 C   0  0  0  0  0  0  0  0  0  0  0  0
  -14.3328  -25.4918   23.9077 C   0  0  0  0  0  0  0  0  0  0  0  0
  -27.3838  -21.1538   19.6605 C   0  0  0  0  0  0  0  0  0  0  0  0
  -30.6954  -27.9979   20.0576 C   0  0  0  0  0  0  0  0  0  0  0  0
  -15.3744  -24.5570   21.9383 C   0  0  0  0  0  0  0  0  0  0  0  0
  -30.1800  -27.8045   17.7438 C   0  0  0  0  0  0  0  0  0  0  0  0
  -20.8557  -27.5983   22.6268 C   0  0  0  0  0  0  0  0  0  0  0  0
  -23.0825  -26.5212   22.0032 C   0  0  0  0  0  0  0  0  0  0  0  0
  -25.8297  -12.2206   20.6050 C   0  0  0  0  0  0  0  0  0  0  0  0
  -27.8231  -19.2670   21.1119 C   0  0  0  0  0  0  0  0  0  0  0  0
  -26.4035  -13.4202   20.1423 C   0  0  0  0  0  0  0  0  0  0  0  0
  -26.9115  -20.1610   20.5326 C   0  0  0  0  0  0  0  0  0  0  0  0
  -30.7570  -27.2609   18.8802 C   0  0  0  0  0  0  0  0  0  0  0  0
  -30.0677  -29.2385   20.0626 C   0  0  0  0  0  0  0  0  0  0  0  0
  -18.0758  -27.8227   22.5631 C   0  0  0  0  0  0  0  0  0  0  0  0
  -28.7452  -21.2637   19.3786 C   0  0  0  0  0  0  0  0  0  0  0  0
  -15.9764  -26.7739   22.6864 C   0  0  0  0  0  0  0  0  0  0  0  0
  -14.4793  -24.4412   23.0019 C   0  0  0  0  0  0  0  0  0  0  0  0
  -16.1230  -25.7234   21.7806 C   0  0  0  0  0  0  0  0  0  0  0  0
  -22.2916  -27.4832   22.6595 C   0  0  0  0  0  0  0  0  0  0  0  0
  -29.5217  -29.6937   18.8732 C   0  0  0  0  0  0  0  0  0  0  0  0
  -24.3721  -26.8419   22.3506 C   0  0  0  0  0  0  0  0  0  0  0  0
  -22.6869  -25.4348   21.1553 C   0  0  0  0  0  0  0  0  0  0  0  0
  -25.6425  -16.9985   20.6615 C   0  0  0  0  0  0  0  0  0  0  0  0
  -23.7600  -19.0129   22.3706 C   0  0  0  0  0  0  0  0  0  0  0  0
  -23.1233  -22.1999   23.4120 C   0  0  0  0  0  0  0  0  0  0  0  0
  -28.4054  -30.6187   23.1332 C   0  0  0  0  0  0  0  0  0  0  0  0
  -24.3381  -12.0644   20.7642 C   0  0  0  0  0  0  0  0  0  0  0  0
  -27.3483  -18.2086   22.0694 C   0  0  0  0  0  0  0  0  0  0  0  0
  -25.4341  -20.0807   20.8141 C   0  0  0  0  0  0  0  0  0  0  0  0
  -23.5881  -13.3932   20.8113 C   0  0  0  0  0  0  0  0  0  0  0  0
  -26.1412  -30.0649   25.8246 C   0  0  0  0  0  0  0  0  0  0  0  0
  -24.0706  -14.3183   19.6985 C   0  0  0  0  0  0  0  0  0  0  0  0
  -25.0009  -29.2704   25.1856 C   0  0  0  0  0  0  0  0  0  0  0  0
  -26.7057  -31.1116   24.8666 C   0  0  0  0  0  0  0  0  0  0  0  0
  -25.9834  -29.7929   22.9139 C   0  0  0  0  0  0  0  0  0  0  0  0
  -25.5603  -14.6446   19.8595 C   0  0  1  0  0  0  0  0  0  0  0  0
  -25.8785  -17.8467   21.8791 C   0  0  1  0  0  0  0  0  0  0  0  0
  -25.4189  -28.6872   23.8223 C   0  0  2  0  0  0  0  0  0  0  0  0
  -27.3477  -30.8953   18.4445 C   0  0  0  0  0  0  0  0  0  0  0  0
  -29.5363  -32.0037   17.8643 C   0  0  0  0  0  0  0  0  0  0  0  0
  -21.4925  -23.5401   24.7690 C   0  0  0  0  0  0  0  0  0  0  0  0
  -21.7391  -18.8588   20.0898 C   0  0  0  0  0  0  0  0  0  0  0  0
  -20.6244  -20.8925   21.0329 C   0  0  0  0  0  0  0  0  0  0  0  0
  -20.7350  -18.7954   22.3794 C   0  0  0  0  0  0  0  0  0  0  0  0
  -25.2259  -23.0489   25.3139 C   0  0  0  0  0  0  0  0  0  0  0  0
  -31.4313  -25.9127   18.8408 C   0  0  0  0  0  0  0  0  0  0  0  0
  -29.9966  -30.0326   21.3211 C   0  0  0  0  0  0  0  0  0  0  0  0
  -30.4915  -24.7412   19.1467 C   0  0  0  0  0  0  0  0  0  0  0  0
  -29.3695  -24.5895   18.1186 C   0  0  0  0  0  0  0  0  0  0  0  0
  -28.4345  -23.4422   18.4767 C   0  0  0  0  0  0  0  0  0  1  0  0
  -28.8358  -31.0197   18.8189 C   0  0  0  0  0  0  0  0  0  0  0  0
  -22.8362  -20.1580   22.0326 C   0  0  1  0  0  0  0  0  0  0  0  0
  -22.8016  -22.7662   24.7832 C   0  0  2  0  0  0  0  0  0  0  0  0
  -21.5112  -19.6767   21.3766 C   0  0  0  0  0  0  0  0  0  0  0  0
  -29.5617  -29.0062   17.7099 N   0  0  0  0  0  0  0  0  0  0  0  0
  -23.0180  -28.3500   23.3702 N   0  0  0  0  0  0  0  0  0  0  0  0
  -24.2788  -27.9338   23.1625 N   0  0  0  0  0  0  0  0  0  0  0  0
  -25.0182  -19.0248   21.7521 N   0  0  0  0  0  0  0  0  0  0  0  0
  -27.0843  -30.4935   23.5936 N   0  0  0  0  0  0  0  0  0  0  0  0
  -25.5653  -26.2935   22.0378 N   0  0  0  0  0  0  0  0  0  0  0  0
  -21.3211  -25.2481   20.9020 N   0  0  0  0  0  0  0  0  0  0  0  0
  -25.7507  -15.6404   20.8923 N   0  0  0  0  0  0  0  0  0  0  0  0
  -22.6520  -20.9121   23.2678 N   0  0  0  0  0  0  0  0  0  0  0  0
  -28.6815  -29.9977   21.9213 N   0  0  0  0  0  0  0  0  0  0  0  0
  -23.8859  -23.6850   25.2316 N   0  3  0  0  0  0  0  0  0  0  0  0
  -23.5187  -24.6429   20.6508 O   0  0  0  0  0  0  0  0  0  0  0  0
  -25.3801  -17.5364   19.5921 O   0  0  0  0  0  0  0  0  0  0  0  0
  -23.3820  -18.1437   23.1601 O   0  0  0  0  0  0  0  0  0  0  0  0
  -23.7287  -22.8375   22.5532 O   0  0  0  0  0  0  0  0  0  0  0  0
  -29.2758  -31.2336   23.7587 O   0  0  0  0  0  0  0  0  0  0  0  0
  -16.7195  -27.9322   22.5316 O   0  0  0  0  0  0  0  0  0  0  0  0
  -29.1892  -22.2324   18.5322 O   0  0  0  0  0  0  0  0  0  1  0  0
  -13.7615  -23.3206   23.1543 F   0  0  0  0  0  0  0  0  0  0  0  0
  -16.9821  -25.8283   20.7575 F   0  0  0  0  0  0  0  0  0  0  0  0
  1  2  1  0  0  0  0
  1  5  2  0  0  0  0
  2  6  2  0  0  0  0
  3  8  2  0  0  0  0
  3 17  1  0  0  0  0
  4  9  1  0  0  0  0
  4 17  2  0  0  0  0
  5 19  1  0  0  0  0
  6 21  1  0  0  0  0
  7 10  2  0  0  0  0
  7 20  1  0  0  0  0
  8 25  1  0  0  0  0
  9 25  2  0  0  0  0
 10 26  1  0  0  0  0
 11 12  2  0  0  0  0
 11 27  1  0  0  0  0
 12 28  1  0  0  0  0
 13 22  1  0  0  0  0
 13 26  2  0  0  0  0
 14 23  2  0  0  0  0
 14 24  1  0  0  0  0
 15 28  2  0  0  0  0
 15 29  1  0  0  0  0
 16 23  1  0  0  0  0
 16 66  2  0  0  0  0
 17 30  1  0  0  0  0
 18 30  1  0  0  0  0
 18 32  2  0  0  0  0
 18 33  1  0  0  0  0
 19 21  2  0  0  0  0
 19 38  1  0  0  0  0
 20 22  2  0  0  0  0
 20 39  1  0  0  0  0
 21 47  1  0  0  0  0
 22 40  1  0  0  0  0
 23 57  1  0  0  0  0
 24 31  2  0  0  0  0
 24 58  1  0  0  0  0
 25 82  1  0  0  0  0
 26 83  1  0  0  0  0
 27 29  2  0  0  0  0
 27 82  1  0  0  0  0
 28 84  1  0  0  0  0
 29 85  1  0  0  0  0
 30 67  2  0  0  0  0
 31 62  1  0  0  0  0
 31 66  1  0  0  0  0
 32 68  1  0  0  0  0
 32 71  1  0  0  0  0
 33 72  1  0  0  0  0
 33 77  2  0  0  0  0
 34 48  1  0  0  0  0
 34 73  1  0  0  0  0
 34 78  2  0  0  0  0
 35 63  1  0  0  0  0
 35 69  1  0  0  0  0
 35 79  2  0  0  0  0
 36 64  1  0  0  0  0
 36 74  1  0  0  0  0
 36 80  2  0  0  0  0
 37 70  1  0  0  0  0
 37 75  1  0  0  0  0
 37 81  2  0  0  0  0
 38 41  1  0  0  0  0
 39 48  1  0  0  0  0
 40 69  1  0  0  0  0
 41 43  1  0  0  0  0
 42 44  1  0  0  0  0
 42 45  1  0  0  0  0
 43 47  1  0  0  0  0
 44 49  1  0  0  0  0
 45 70  1  0  0  0  0
 46 49  1  0  0  0  0
 46 70  1  0  0  0  0
 47 73  1  0  0  0  0
 48 69  1  0  0  0  0
 49 68  1  0  0  0  0
 50 62  1  0  0  0  0
 51 62  1  0  0  0  0
 52 64  1  0  0  0  0
 53 65  1  0  0  0  0
 54 65  1  0  0  0  0
 55 65  1  0  0  0  0
 56 76  1  0  0  0  0
 57 59  1  0  0  0  0
 58 75  1  0  0  0  0
 59 60  1  0  0  0  0
 60 61  1  0  0  0  0
 61 83  1  0  0  0  0
 63 65  1  0  0  0  0
 63 74  1  0  0  0  0
 64 76  1  0  0  0  0
 67 68  1  0  0  0  0
M  CHG  1  76   1
M  ISO  4  37 100  61 101  75 100  83 101
M  END
> <Batch ID>
0105

> <Smiles>
CNC(C)C(=O)NC(C(=O)N1Cc2cc([101O:1][101CH2:1]CCCc3cnc(C(C)C)c(C[100NH:0][100C:0](=O)N4CCCC(n5nc(-c6ccc(Oc7ccc(F)cc7F)cc6)c(C(N)=O)c5N)C4)c3)ccc2CC1C(=O)NC1CCCc2ccccc21)C(C)(C)C

> <Shape>
0.211

> <Color>
0.062

> <Negative vol penalty>
0.000

$$$$

  -OEChem-04052319463D

 82 89  0     1  0  0  0  0  0999 V2000
  -17.6902  -25.7142   20.4959 C   0  0  0  0  0  0  0  0  0  0  0  0
  -18.8987  -26.0036   19.8705 C   0  0  0  0  0  0  0  0  0  0  0  0
  -27.3377  -13.5162   21.7461 C   0  0  0  0  0  0  0  0  0  0  0  0
  -26.9196  -14.1355   19.4486 C   0  0  0  0  0  0  0  0  0  0  0  0
  -17.4082  -26.2553   21.7496 C   0  0  0  0  0  0  0  0  0  0  0  0
  -19.8256  -26.8351   20.4981 C   0  0  0  0  0  0  0  0  0  0  0  0
  -24.5496  -25.0305   20.2284 C   0  0  0  0  0  0  0  0  0  0  0  0
  -26.5231  -12.3944   21.5920 C   0  0  0  0  0  0  0  0  0  0  0  0
  -26.1050  -13.0137   19.2945 C   0  0  0  0  0  0  0  0  0  0  0  0
  -25.2272  -25.1979   19.0215 C   0  0  0  0  0  0  0  0  0  0  0  0
  -23.2140  -11.7080   21.5397 C   0  0  0  0  0  0  0  0  0  0  0  0
  -22.2936  -11.4326   22.5509 C   0  0  0  0  0  0  0  0  0  0  0  0
  -26.3986  -27.0918   19.9490 C   0  0  0  0  0  0  0  0  0  0  0  0
  -23.3423   -9.2877   22.9211 C   0  0  0  0  0  0  0  0  0  0  0  0
  -27.5359  -14.3867   20.6744 C   0  0  0  0  0  0  0  0  0  0  0  0
  -29.7632  -15.6284   20.6028 C   0  0  0  0  0  0  0  0  0  0  0  0
  -18.3363  -27.0860   22.3971 C   0  0  0  0  0  0  0  0  0  0  0  0
  -24.7838  -25.9006   21.3028 C   0  0  0  0  0  0  0  0  0  0  0  0
  -19.5553  -27.3888   21.7610 C   0  0  0  0  0  0  0  0  0  0  0  0
  -25.7246  -26.9317   21.1693 C   0  0  0  0  0  0  0  0  0  0  0  0
  -25.9068  -12.1432   20.3662 C   0  0  0  0  0  0  0  0  0  0  0  0
  -26.1498  -26.2305   18.8807 C   0  0  0  0  0  0  0  0  0  0  0  0
  -24.1985  -10.7733   21.2191 C   0  0  0  0  0  0  0  0  0  0  0  0
  -22.3577  -10.2224   23.2417 C   0  0  0  0  0  0  0  0  0  0  0  0
  -24.2626   -9.5631   21.9099 C   0  0  0  0  0  0  0  0  0  0  0  0
  -28.3768  -15.5459   20.8331 C   0  0  0  0  0  0  0  0  0  0  0  0
  -30.0828  -16.9319   20.8950 C   0  0  0  0  0  0  0  0  0  0  0  0
  -30.6800  -14.6173   20.1638 C   0  0  0  0  0  0  0  0  0  0  0  0
  -23.0058  -27.9513   22.9573 C   0  0  0  0  0  0  0  0  0  0  0  0
  -25.6791  -28.1986   24.7777 C   0  0  0  0  0  0  0  0  0  0  0  0
  -29.0690  -27.8767   25.0059 C   0  0  0  0  0  0  0  0  0  0  0  0
  -29.0111  -22.3985   20.5588 C   0  0  0  0  0  0  0  0  0  0  0  0
  -17.9671  -27.6856   23.7309 C   0  0  0  0  0  0  0  0  0  0  0  0
  -24.0643  -25.6901   22.6069 C   0  0  0  0  0  0  0  0  0  0  0  0
  -26.0271  -27.8804   22.2992 C   0  0  0  0  0  0  0  0  0  0  0  0
  -19.1602  -28.2556   24.4937 C   0  0  0  0  0  0  0  0  0  0  0  0
  -27.3659  -20.5662   23.1303 C   0  0  0  0  0  0  0  0  0  0  0  0
  -20.0271  -29.1060   23.5706 C   0  0  0  0  0  0  0  0  0  0  0  0
  -27.5913  -19.1045   22.7395 C   0  0  0  0  0  0  0  0  0  0  0  0
  -27.1586  -21.4527   21.9043 C   0  0  0  0  0  0  0  0  0  0  0  0
  -28.4443  -19.8943   20.4929 C   0  0  0  0  0  0  0  0  0  0  0  0
  -20.5967  -28.2666   22.4206 C   0  0  1  0  0  0  0  0  0  0  0  0
  -24.0035  -26.9495   23.4658 C   0  0  1  0  0  0  0  0  0  0  0  0
  -28.7139  -18.9706   21.6931 C   0  0  2  0  0  0  0  0  0  0  0  0
  -30.9738  -28.1880   26.6096 C   0  0  0  0  0  0  0  0  0  0  0  0
  -28.1518  -28.2774   17.0114 C   0  0  0  0  0  0  0  0  0  0  0  0
  -29.9841  -21.1020   15.0330 C   0  0  0  0  0  0  0  0  0  0  0  0
  -31.6206  -21.1811   16.9134 C   0  0  0  0  0  0  0  0  0  0  0  0
  -31.6316  -22.9811   15.1843 C   0  0  0  0  0  0  0  0  0  0  0  0
  -25.5276  -31.2184   24.3678 C   0  0  0  0  0  0  0  0  0  0  0  0
  -27.9009  -31.3736   25.1500 C   0  0  0  0  0  0  0  0  0  0  0  0
  -26.1366  -30.5098   26.6876 C   0  0  0  0  0  0  0  0  0  0  0  0
  -29.7924  -25.0095   24.8841 C   0  0  0  0  0  0  0  0  0  0  0  0
  -29.7571  -22.8566   16.9042 C   0  0  0  0  0  0  0  0  0  0  0  0
  -30.9047  -23.1936   19.1655 C   0  0  0  0  0  0  0  0  0  0  0  0
  -29.1268  -25.9258   17.2632 C   0  0  0  0  0  0  0  0  0  0  0  0
  -26.9099  -29.0727   24.7566 C   0  0  1  0  0  0  0  0  0  0  0  0
  -29.9499  -27.2132   26.0491 C   0  0  2  0  0  0  0  0  0  0  0  0
  -30.3883  -23.8621   17.8866 C   0  0  2  0  0  0  0  0  0  0  0  0
  -28.1230  -26.9566   17.7693 C   0  0  2  0  0  0  0  0  0  1  0  0
  -30.7236  -22.0397   15.9969 C   0  0  0  0  0  0  0  0  0  0  0  0
  -26.6118  -30.5271   25.2184 C   0  0  0  0  0  0  0  0  0  0  0  0
  -27.8519  -16.7046   21.2404 N   0  0  0  0  0  0  0  0  0  0  0  0
  -28.9141  -17.5275   21.2684 N   0  0  0  0  0  0  0  0  0  0  0  0
  -25.2933  -27.6374   23.5522 N   0  0  0  0  0  0  0  0  0  0  0  0
  -28.2583  -21.2797   20.9521 N   0  0  0  0  0  0  0  0  0  0  0  0
  -31.2468  -17.6151   20.8666 N   0  0  0  0  0  0  0  0  0  0  0  0
  -30.1844  -13.3315   19.9082 N   0  0  0  0  0  0  0  0  0  0  0  0
  -21.7130  -27.4692   22.8817 N   0  0  0  0  0  0  0  0  0  0  0  0
  -27.9134  -28.3841   25.5611 N   0  0  0  0  0  0  0  0  0  0  0  0
  -30.0388  -22.1457   19.6584 N   0  0  0  0  0  0  0  0  0  0  0  0
  -30.6781  -26.0577   25.4531 N   0  3  0  0  0  0  0  0  0  0  0  0
  -29.3772  -24.8788   18.2848 N   0  3  0  0  0  0  0  0  0  0  0  0
  -31.9054  -14.8430   20.0188 O   0  0  0  0  0  0  0  0  0  0  0  0
  -23.3808  -29.0786   22.6572 O   0  0  0  0  0  0  0  0  0  0  0  0
  -25.0863  -28.0147   25.8437 O   0  0  0  0  0  0  0  0  0  0  0  0
  -29.3771  -27.9418   23.8179 O   0  0  0  0  0  0  0  0  0  0  0  0
  -28.7875  -23.5373   20.9830 O   0  0  0  0  0  0  0  0  0  0  0  0
  -25.1120  -11.0485   20.2154 O   0  0  0  0  0  0  0  0  0  0  0  0
  -26.8121  -26.3966   17.7036 O   0  0  0  0  0  0  0  0  0  1  0  0
  -21.4748   -9.9587   24.2138 F   0  0  0  0  0  0  0  0  0  0  0  0
  -25.2069   -8.6618   21.6072 F   0  0  0  0  0  0  0  0  0  0  0  0
  1  2  1  0  0  0  0
  1  5  2  0  0  0  0
  2  6  2  0  0  0  0
  3  8  2  0  0  0  0
  3 15  1  0  0  0  0
  4  9  1  0  0  0  0
  4 15  2  0  0  0  0
  5 17  1  0  0  0  0
  6 19  1  0  0  0  0
  7 10  2  0  0  0  0
  7 18  1  0  0  0  0
  8 21  1  0  0  0  0
  9 21  2  0  0  0  0
 10 22  1  0  0  0  0
 11 12  2  0  0  0  0
 11 23  1  0  0  0  0
 12 24  1  0  0  0  0
 13 20  1  0  0  0  0
 13 22  2  0  0  0  0
 14 24  2  0  0  0  0
 14 25  1  0  0  0  0
 15 26  1  0  0  0  0
 16 26  1  0  0  0  0
 16 27  2  0  0  0  0
 16 28  1  0  0  0  0
 17 19  2  0  0  0  0
 17 33  1  0  0  0  0
 18 20  2  0  0  0  0
 18 34  1  0  0  0  0
 19 42  1  0  0  0  0
 20 35  1  0  0  0  0
 21 79  1  0  0  0  0
 22 80  1  0  0  0  0
 23 25  2  0  0  0  0
 23 79  1  0  0  0  0
 24 81  1  0  0  0  0
 25 82  1  0  0  0  0
 26 63  2  0  0  0  0
 27 64  1  0  0  0  0
 27 67  1  0  0  0  0
 28 68  1  0  0  0  0
 28 74  2  0  0  0  0
 29 43  1  0  0  0  0
 29 69  1  0  0  0  0
 29 75  2  0  0  0  0
 30 57  1  0  0  0  0
 30 65  1  0  0  0  0
 30 76  2  0  0  0  0
 31 58  1  0  0  0  0
 31 70  1  0  0  0  0
 31 77  2  0  0  0  0
 32 66  1  0  0  0  0
 32 71  1  0  0  0  0
 32 78  2  0  0  0  0
 33 36  1  0  0  0  0
 34 43  1  0  0  0  0
 35 65  1  0  0  0  0
 36 38  1  0  0  0  0
 37 39  1  0  0  0  0
 37 40  1  0  0  0  0
 38 42  1  0  0  0  0
 39 44  1  0  0  0  0
 40 66  1  0  0  0  0
 41 44  1  0  0  0  0
 41 66  1  0  0  0  0
 42 69  1  0  0  0  0
 43 65  1  0  0  0  0
 44 64  1  0  0  0  0
 45 58  1  0  0  0  0
 46 60  1  0  0  0  0
 47 61  1  0  0  0  0
 48 61  1  0  0  0  0
 49 61  1  0  0  0  0
 50 62  1  0  0  0  0
 51 62  1  0  0  0  0
 52 62  1  0  0  0  0
 53 72  1  0  0  0  0
 54 59  1  0  0  0  0
 54 61  1  0  0  0  0
 55 59  1  0  0  0  0
 55 71  1  0  0  0  0
 56 60  1  0  0  0  0
 56 73  1  0  0  0  0
 57 62  1  0  0  0  0
 57 70  1  0  0  0  0
 58 72  1  0  0  0  0
 59 73  1  0  0  0  0
 60 80  1  0  0  0  0
 63 64  1  0  0  0  0
M  CHG  2  72   1  73   1
M  ISO  4  32 100  60 101  71 100  80 101
M  END
> <Batch ID>
0105

> <Smiles>
CNC(C)C(=O)NC(C(=O)N1Cc2cc([101O:1][101CH:1](C)CNC(C[100NH:0][100C:0](=O)N3CCCC(n4nc(-c5ccc(Oc6ccc(F)cc6F)cc5)c(C(N)=O)c4N)C3)CC(C)(C)C)ccc2CC1C(=O)NC1CCCc2ccccc21)C(C)(C)C

> <Shape>
0.284

> <Color>
0.072

> <Negative vol penalty>
0.000

$$$$

  -OEChem-04052319463D

 76 83  0     1  0  0  0  0  0999 V2000
  -33.0392   -5.9105   28.4753 C   0  0  0  0  0  0  0  0  0  0  0  0
  -32.3001   -6.9593   27.9375 C   0  0  0  0  0  0  0  0  0  0  0  0
  -23.2263   -9.8325   19.9141 C   0  0  0  0  0  0  0  0  0  0  0  0
  -23.7982   -9.9276   22.2595 C   0  0  0  0  0  0  0  0  0  0  0  0
  -32.4003   -4.7291   28.8497 C   0  0  0  0  0  0  0  0  0  0  0  0
  -30.9218   -6.8269   27.7728 C   0  0  0  0  0  0  0  0  0  0  0  0
  -28.3791  -10.9286   29.3077 C   0  0  0  0  0  0  0  0  0  0  0  0
  -22.5036   -8.6607   20.1379 C   0  0  0  0  0  0  0  0  0  0  0  0
  -23.0754   -8.7558   22.4833 C   0  0  0  0  0  0  0  0  0  0  0  0
  -28.3686  -12.0287   28.4512 C   0  0  0  0  0  0  0  0  0  0  0  0
  -19.4761   -7.7987   21.3725 C   0  0  0  0  0  0  0  0  0  0  0  0
  -18.2149   -7.6931   20.7863 C   0  0  0  0  0  0  0  0  0  0  0  0
  -26.1672  -11.4049   27.6869 C   0  0  0  0  0  0  0  0  0  0  0  0
  -18.9438   -5.7366   19.5706 C   0  0  0  0  0  0  0  0  0  0  0  0
  -23.8737  -10.4660   20.9750 C   0  0  0  0  0  0  0  0  0  0  0  0
  -24.1398  -12.9976   20.8083 C   0  0  0  0  0  0  0  0  0  0  0  0
  -31.0120   -4.5858   28.6984 C   0  0  0  0  0  0  0  0  0  0  0  0
  -27.2865  -10.0508   29.3523 C   0  0  0  0  0  0  0  0  0  0  0  0
  -30.2639   -5.6421   28.1443 C   0  0  0  0  0  0  0  0  0  0  0  0
  -26.1653  -10.2959   28.5466 C   0  0  0  0  0  0  0  0  0  0  0  0
  -22.4281   -8.1224   21.4224 C   0  0  0  0  0  0  0  0  0  0  0  0
  -27.2637  -12.2654   27.6386 C   0  0  0  0  0  0  0  0  0  0  0  0
  -20.4712   -6.8733   21.0577 C   0  0  0  0  0  0  0  0  0  0  0  0
  -17.9487   -6.6621   19.8853 C   0  0  0  0  0  0  0  0  0  0  0  0
  -20.2050   -5.8423   20.1568 C   0  0  0  0  0  0  0  0  0  0  0  0
  -24.6210  -11.6761   20.7444 C   0  0  0  0  0  0  0  0  0  0  0  0
  -25.2321  -13.7755   20.5113 C   0  0  0  0  0  0  0  0  0  0  0  0
  -22.8232  -13.4789   21.1093 C   0  0  0  0  0  0  0  0  0  0  0  0
  -26.8629   -6.9629   28.7283 C   0  0  0  0  0  0  0  0  0  0  0  0
  -23.8922   -7.5334   29.8995 C   0  0  0  0  0  0  0  0  0  0  0  0
  -21.4107   -9.7898   30.5305 C   0  0  0  0  0  0  0  0  0  0  0  0
  -31.0492  -13.4662   21.5836 C   0  0  0  0  0  0  0  0  0  0  0  0
  -30.3726   -3.2724   29.0736 C   0  0  0  0  0  0  0  0  0  0  0  0
  -27.3022   -8.8837   30.3010 C   0  0  0  0  0  0  0  0  0  0  0  0
  -24.9585   -9.3950   28.5718 C   0  0  0  0  0  0  0  0  0  0  0  0
  -28.8547   -3.3520   29.2140 C   0  0  0  0  0  0  0  0  0  0  0  0
  -29.5447  -13.0291   18.2299 C   0  0  0  0  0  0  0  0  0  0  0  0
  -28.2480   -4.1028   28.0329 C   0  0  0  0  0  0  0  0  0  0  0  0
  -28.0923  -12.6876   18.5583 C   0  0  0  0  0  0  0  0  0  0  0  0
  -30.4949  -12.5950   19.3418 C   0  0  0  0  0  0  0  0  0  0  0  0
  -28.6819  -12.7857   21.0125 C   0  0  0  0  0  0  0  0  0  0  0  0
  -28.7634   -5.5458   27.9729 C   0  0  1  0  0  0  0  0  0  0  0  0
  -26.3488   -7.7662   29.8895 C   0  0  1  0  0  0  0  0  0  0  0  0
  -27.6935  -13.2517   19.9330 C   0  0  2  0  0  0  0  0  0  0  0  0
  -19.0852   -9.9519   31.4594 C   0  0  0  0  0  0  0  0  0  0  0  0
  -22.7821   -6.3332   27.3232 C   0  0  0  0  0  0  0  0  0  0  0  0
  -20.5709   -7.3693   27.8754 C   0  0  0  0  0  0  0  0  0  0  0  0
  -21.5605   -5.6597   29.3988 C   0  0  0  0  0  0  0  0  0  0  0  0
  -31.5813  -14.3604   23.8189 C   0  0  0  0  0  0  0  0  0  0  0  0
  -22.2756  -11.6210   32.6887 C   0  0  0  0  0  0  0  0  0  0  0  0
  -28.5758  -13.5889   24.2038 C   0  0  0  0  0  0  0  0  0  0  0  0
  -27.1466  -14.0477   24.4952 C   0  0  0  0  0  0  0  0  0  0  0  0
  -29.2280  -14.3872   23.0794 C   0  0  0  0  0  0  0  0  0  0  0  0
  -26.5029  -13.2099   25.5929 C   0  0  0  0  0  0  0  0  0  1  0  0
  -22.5755   -7.9734   29.3064 C   0  0  1  0  0  0  0  0  0  0  0  0
  -20.5711  -10.0434   31.7696 C   0  0  2  0  0  0  0  0  0  0  0  0
  -21.8956   -6.8500   28.4738 C   0  0  0  0  0  0  0  0  0  0  0  0
  -25.9179  -11.6142   20.4312 N   0  0  0  0  0  0  0  0  0  0  0  0
  -26.2610  -12.9065   20.2955 N   0  0  0  0  0  0  0  0  0  0  0  0
  -25.0245   -8.2636   29.5115 N   0  0  0  0  0  0  0  0  0  0  0  0
  -30.0683  -13.1091   20.6438 N   0  0  0  0  0  0  0  0  0  0  0  0
  -25.4033  -15.1111   20.4161 N   0  0  0  0  0  0  0  0  0  0  0  0
  -21.8183  -12.5436   21.3915 N   0  0  0  0  0  0  0  0  0  0  0  0
  -28.0877   -6.3652   28.9561 N   0  0  0  0  0  0  0  0  0  0  0  0
  -21.7696   -8.4631   30.4196 N   0  0  0  0  0  0  0  0  0  0  0  0
  -30.6022  -13.9657   22.8162 N   0  0  0  0  0  0  0  0  0  0  0  0
  -20.8541  -11.3999   32.3182 N   0  3  0  0  0  0  0  0  0  0  0  0
  -22.5423  -14.7014   21.1114 O   0  0  0  0  0  0  0  0  0  0  0  0
  -26.1969   -6.8896   27.7023 O   0  0  0  0  0  0  0  0  0  0  0  0
  -23.9142   -6.5816   30.6838 O   0  0  0  0  0  0  0  0  0  0  0  0
  -21.7145  -10.6789   29.7382 O   0  0  0  0  0  0  0  0  0  0  0  0
  -32.2558  -13.3544   21.3314 O   0  0  0  0  0  0  0  0  0  0  0  0
  -21.7227   -6.9791   21.6412 O   0  0  0  0  0  0  0  0  0  0  0  0
  -27.2511  -13.3380   26.8012 O   0  0  0  0  0  0  0  0  0  1  0  0
  -16.7370   -6.5599   19.3236 F   0  0  0  0  0  0  0  0  0  0  0  0
  -21.1567   -4.9496   19.8514 F   0  0  0  0  0  0  0  0  0  0  0  0
  1  2  1  0  0  0  0
  1  5  2  0  0  0  0
  2  6  2  0  0  0  0
  3  8  2  0  0  0  0
  3 15  1  0  0  0  0
  4  9  1  0  0  0  0
  4 15  2  0  0  0  0
  5 17  1  0  0  0  0
  6 19  1  0  0  0  0
  7 10  2  0  0  0  0
  7 18  1  0  0  0  0
  8 21  1  0  0  0  0
  9 21  2  0  0  0  0
 10 22  1  0  0  0  0
 11 12  2  0  0  0  0
 11 23  1  0  0  0  0
 12 24  1  0  0  0  0
 13 20  1  0  0  0  0
 13 22  2  0  0  0  0
 14 24  2  0  0  0  0
 14 25  1  0  0  0  0
 15 26  1  0  0  0  0
 16 26  1  0  0  0  0
 16 27  2  0  0  0  0
 16 28  1  0  0  0  0
 17 19  2  0  0  0  0
 17 33  1  0  0  0  0
 18 20  2  0  0  0  0
 18 34  1  0  0  0  0
 19 42  1  0  0  0  0
 20 35  1  0  0  0  0
 21 73  1  0  0  0  0
 22 74  1  0  0  0  0
 23 25  2  0  0  0  0
 23 73  1  0  0  0  0
 24 75  1  0  0  0  0
 25 76  1  0  0  0  0
 26 58  2  0  0  0  0
 27 59  1  0  0  0  0
 27 62  1  0  0  0  0
 28 63  1  0  0  0  0
 28 68  2  0  0  0  0
 29 43  1  0  0  0  0
 29 64  1  0  0  0  0
 29 69  2  0  0  0  0
 30 55  1  0  0  0  0
 30 60  1  0  0  0  0
 30 70  2  0  0  0  0
 31 56  1  0  0  0  0
 31 65  1  0  0  0  0
 31 71  2  0  0  0  0
 32 61  1  0  0  0  0
 32 66  1  0  0  0  0
 32 72  2  0  0  0  0
 33 36  1  0  0  0  0
 34 43  1  0  0  0  0
 35 60  1  0  0  0  0
 36 38  1  0  0  0  0
 37 39  1  0  0  0  0
 37 40  1  0  0  0  0
 38 42  1  0  0  0  0
 39 44  1  0  0  0  0
 40 61  1  0  0  0  0
 41 44  1  0  0  0  0
 41 61  1  0  0  0  0
 42 64  1  0  0  0  0
 43 60  1  0  0  0  0
 44 59  1  0  0  0  0
 45 56  1  0  0  0  0
 46 57  1  0  0  0  0
 47 57  1  0  0  0  0
 48 57  1  0  0  0  0
 49 66  1  0  0  0  0
 50 67  1  0  0  0  0
 51 52  1  0  0  0  0
 51 53  1  0  0  0  0
 52 54  1  0  0  0  0
 53 66  1  0  0  0  0
 54 74  1  0  0  0  0
 55 57  1  0  0  0  0
 55 65  1  0  0  0  0
 56 67  1  0  0  0  0
 58 59  1  0  0  0  0
M  CHG  1  67   1
M  ISO  4  32 100  54 101  66 100  74 101
M  END
> <Batch ID>
0105

> <Smiles>
CNC(C)C(=O)NC(C(=O)N1Cc2cc([101O:1][101CH2:1]CCC[100N:0](C)[100C:0](=O)N3CCCC(n4nc(-c5ccc(Oc6ccc(F)cc6F)cc5)c(C(N)=O)c4N)C3)ccc2CC1C(=O)NC1CCCc2ccccc21)C(C)(C)C

> <Shape>
0.129

> <Color>
0.190

> <Negative vol penalty>
0.000

$$$$

  -OEChem-04052319463D

 84 92  0     1  0  0  0  0  0999 V2000
  -17.0734  -31.5789   23.0214 C   0  0  0  0  0  0  0  0  0  0  0  0
  -18.2509  -31.9472   22.3785 C   0  0  0  0  0  0  0  0  0  0  0  0
  -25.5989  -13.5611   21.5073 C   0  0  0  0  0  0  0  0  0  0  0  0
  -26.6937  -13.1761   19.3883 C   0  0  0  0  0  0  0  0  0  0  0  0
  -17.0781  -30.5216   23.9302 C   0  0  0  0  0  0  0  0  0  0  0  0
  -19.4340  -31.2591   22.6450 C   0  0  0  0  0  0  0  0  0  0  0  0
  -25.5083  -29.1639   19.4780 C   0  0  0  0  0  0  0  0  0  0  0  0
  -24.5972  -12.6570   21.1540 C   0  0  0  0  0  0  0  0  0  0  0  0
  -25.6920  -12.2720   19.0350 C   0  0  0  0  0  0  0  0  0  0  0  0
  -26.8901  -29.2192   19.6553 C   0  0  0  0  0  0  0  0  0  0  0  0
  -24.1955   -9.3014   21.0452 C   0  0  0  0  0  0  0  0  0  0  0  0
  -23.7970   -8.3688   22.0027 C   0  0  0  0  0  0  0  0  0  0  0  0
  -26.7622  -27.3581   21.1847 C   0  0  0  0  0  0  0  0  0  0  0  0
  -21.5464   -9.2433   21.9178 C   0  0  0  0  0  0  0  0  0  0  0  0
  -30.7750  -24.8469   18.3755 C   0  0  0  0  0  0  0  0  0  0  0  0
  -26.6471  -13.8207   20.6244 C   0  0  0  0  0  0  0  0  0  0  0  0
  -28.8852  -14.4709   21.6616 C   0  0  0  0  0  0  0  0  0  0  0  0
  -18.2599  -29.8139   24.2007 C   0  0  0  0  0  0  0  0  0  0  0  0
  -24.7405  -28.2107   20.1622 C   0  0  0  0  0  0  0  0  0  0  0  0
  -19.4548  -30.1922   23.5593 C   0  0  0  0  0  0  0  0  0  0  0  0
  -25.3712  -27.2912   21.0124 C   0  0  0  0  0  0  0  0  0  0  0  0
  -29.9955  -24.1101   17.5114 C   0  0  0  0  0  0  0  0  0  0  0  0
  -29.1857  -25.0218   16.7902 C   0  0  0  0  0  0  0  0  0  0  0  0
  -24.6437  -12.0124   19.9179 C   0  0  0  0  0  0  0  0  0  0  0  0
  -27.5169  -28.3181   20.5110 C   0  0  0  0  0  0  0  0  0  0  0  0
  -23.2695  -10.2051   20.5240 C   0  0  0  0  0  0  0  0  0  0  0  0
  -22.4724   -8.3396   22.4390 C   0  0  0  0  0  0  0  0  0  0  0  0
  -21.9450  -10.1760   20.9603 C   0  0  0  0  0  0  0  0  0  0  0  0
  -27.6819  -14.7550   20.9885 C   0  0  0  0  0  0  0  0  0  0  0  0
  -29.4952  -26.2880   17.2354 C   0  0  0  0  0  0  0  0  0  0  0  0
  -29.5157  -15.6867   21.7656 C   0  0  0  0  0  0  0  0  0  0  0  0
  -29.3881  -13.2199   22.1492 C   0  0  0  0  0  0  0  0  0  0  0  0
  -22.3924  -28.3375   22.3010 C   0  0  0  0  0  0  0  0  0  0  0  0
  -22.3303  -25.1263   21.8462 C   0  0  0  0  0  0  0  0  0  0  0  0
  -23.9907  -22.3035   20.8860 C   0  0  0  0  0  0  0  0  0  0  0  0
  -29.1771  -20.5860   18.4888 C   0  0  0  0  0  0  0  0  0  0  0  0
  -18.2256  -28.7087   25.2263 C   0  0  0  0  0  0  0  0  0  0  0  0
  -23.2543  -28.1469   19.9395 C   0  0  0  0  0  0  0  0  0  0  0  0
  -24.5946  -26.2355   21.7546 C   0  0  0  0  0  0  0  0  0  0  0  0
  -19.4431  -27.7893   25.1720 C   0  0  0  0  0  0  0  0  0  0  0  0
  -28.5887  -20.3734   22.0534 C   0  0  0  0  0  0  0  0  0  0  0  0
  -20.7268  -28.6083   25.0821 C   0  0  0  0  0  0  0  0  0  0  0  0
  -28.4036  -18.8666   22.2417 C   0  0  0  0  0  0  0  0  0  0  0  0
  -27.9713  -20.8464   20.7407 C   0  0  0  0  0  0  0  0  0  0  0  0
  -28.2875  -18.6265   19.7181 C   0  0  0  0  0  0  0  0  0  0  0  0
  -20.7532  -29.4541   23.8033 C   0  0  1  0  0  0  0  0  0  0  0  0
  -22.5075  -27.4661   21.0823 C   0  0  1  0  0  0  0  0  0  0  0  0
  -28.9101  -18.0824   21.0167 C   0  0  2  0  0  0  0  0  0  0  0  0
  -28.9551  -27.6036   16.8289 C   0  0  0  0  0  0  0  0  0  0  0  0
  -23.6903  -19.8225   20.6588 C   0  0  0  0  0  0  0  0  0  0  0  0
  -31.7474  -28.3237   21.1584 C   0  0  0  0  0  0  0  0  0  0  0  0
  -22.6044  -24.8187   24.8694 C   0  0  0  0  0  0  0  0  0  0  0  0
  -23.2472  -22.4277   24.4979 C   0  0  0  0  0  0  0  0  0  0  0  0
  -20.9915  -23.2336   23.8015 C   0  0  0  0  0  0  0  0  0  0  0  0
  -27.0663  -25.4868   15.5582 C   0  0  0  0  0  0  0  0  0  0  0  0
  -24.4753  -22.3952   17.9678 C   0  0  0  0  0  0  0  0  0  0  0  0
  -30.0127  -22.6395   17.3743 C   0  0  0  0  0  0  0  0  0  0  0  0
  -31.0983  -27.3075   18.9596 C   0  0  0  0  0  0  0  0  0  0  0  0
  -29.5293  -27.1433   20.9861 C   0  0  0  0  0  0  0  0  0  1  0  0
  -23.0247  -23.9436   22.4771 C   0  0  1  0  0  0  0  0  0  0  0  0
  -23.5956  -21.1689   19.9581 C   0  0  2  0  0  0  0  0  0  0  0  0
  -30.9840  -27.1724   20.4932 C   0  0  2  0  0  0  0  0  0  0  0  0
  -22.4816  -23.6269   23.8991 C   0  0  0  0  0  0  0  0  0  0  0  0
  -27.5533  -16.0496   20.6863 N   0  0  0  0  0  0  0  0  0  0  0  0
  -30.4626  -26.1695   18.1988 N   0  0  0  0  0  0  0  0  0  0  0  0
  -28.6840  -16.5899   21.1718 N   0  0  0  0  0  0  0  0  0  0  0  0
  -23.1432  -26.2177   21.5085 N   0  0  0  0  0  0  0  0  0  0  0  0
  -28.5091  -20.0725   19.6129 N   0  0  0  0  0  0  0  0  0  0  0  0
  -30.6949  -16.0606   22.3061 N   0  0  0  0  0  0  0  0  0  0  0  0
  -28.6126  -12.0681   21.9586 N   0  0  0  0  0  0  0  0  0  0  0  0
  -28.2763  -24.7134   15.8403 N   0  0  0  0  0  0  0  0  0  0  0  0
  -21.0913  -28.6326   22.6608 N   0  0  0  0  0  0  0  0  0  0  0  0
  -22.8964  -22.8418   21.5294 N   0  0  0  0  0  0  0  0  0  0  0  0
  -29.3401  -21.9657   18.4627 N   0  0  0  0  0  0  0  0  0  0  0  0
  -24.4876  -21.1414   18.7646 N   0  3  0  0  0  0  0  0  0  0  0  0
  -30.4849  -13.1289   22.7511 O   0  0  0  0  0  0  0  0  0  0  0  0
  -23.4088  -28.7130   22.8734 O   0  0  0  0  0  0  0  0  0  0  0  0
  -21.1128  -25.0806   21.6533 O   0  0  0  0  0  0  0  0  0  0  0  0
  -25.1543  -22.6728   21.0288 O   0  0  0  0  0  0  0  0  0  0  0  0
  -29.6020  -19.8673   17.5778 O   0  0  0  0  0  0  0  0  0  0  0  0
  -23.6666  -11.1300   19.5729 O   0  0  0  0  0  0  0  0  0  0  0  0
  -28.8653  -28.3703   20.6864 O   0  0  0  0  0  0  0  0  0  1  0  0
  -22.0895   -7.4429   23.3574 F   0  0  0  0  0  0  0  0  0  0  0  0
  -21.0506  -11.0408   20.4624 F   0  0  0  0  0  0  0  0  0  0  0  0
  1  2  1  0  0  0  0
  1  5  2  0  0  0  0
  2  6  2  0  0  0  0
  3  8  2  0  0  0  0
  3 16  1  0  0  0  0
  4  9  1  0  0  0  0
  4 16  2  0  0  0  0
  5 18  1  0  0  0  0
  6 20  1  0  0  0  0
  7 10  2  0  0  0  0
  7 19  1  0  0  0  0
  8 24  1  0  0  0  0
  9 24  2  0  0  0  0
 10 25  1  0  0  0  0
 11 12  2  0  0  0  0
 11 26  1  0  0  0  0
 12 27  1  0  0  0  0
 13 21  1  0  0  0  0
 13 25  2  0  0  0  0
 14 27  2  0  0  0  0
 14 28  1  0  0  0  0
 15 22  2  0  0  0  0
 15 65  1  0  0  0  0
 16 29  1  0  0  0  0
 17 29  1  0  0  0  0
 17 31  2  0  0  0  0
 17 32  1  0  0  0  0
 18 20  2  0  0  0  0
 18 37  1  0  0  0  0
 19 21  2  0  0  0  0
 19 38  1  0  0  0  0
 20 46  1  0  0  0  0
 21 39  1  0  0  0  0
 22 23  1  0  0  0  0
 22 57  1  0  0  0  0
 23 30  2  0  0  0  0
 23 71  1  0  0  0  0
 24 81  1  0  0  0  0
 25 82  1  0  0  0  0
 26 28  2  0  0  0  0
 26 81  1  0  0  0  0
 27 83  1  0  0  0  0
 28 84  1  0  0  0  0
 29 64  2  0  0  0  0
 30 49  1  0  0  0  0
 30 65  1  0  0  0  0
 31 66  1  0  0  0  0
 31 69  1  0  0  0  0
 32 70  1  0  0  0  0
 32 76  2  0  0  0  0
 33 47  1  0  0  0  0
 33 72  1  0  0  0  0
 33 77  2  0  0  0  0
 34 60  1  0  0  0  0
 34 67  1  0  0  0  0
 34 78  2  0  0  0  0
 35 61  1  0  0  0  0
 35 73  1  0  0  0  0
 35 79  2  0  0  0  0
 36 68  1  0  0  0  0
 36 74  1  0  0  0  0
 36 80  2  0  0  0  0
 37 40  1  0  0  0  0
 38 47  1  0  0  0  0
 39 67  1  0  0  0  0
 40 42  1  0  0  0  0
 41 43  1  0  0  0  0
 41 44  1  0  0  0  0
 42 46  1  0  0  0  0
 43 48  1  0  0  0  0
 44 68  1  0  0  0  0
 45 48  1  0  0  0  0
 45 68  1  0  0  0  0
 46 72  1  0  0  0  0
 47 67  1  0  0  0  0
 48 66  1  0  0  0  0
 50 61  1  0  0  0  0
 51 62  1  0  0  0  0
 52 63  1  0  0  0  0
 53 63  1  0  0  0  0
 54 63  1  0  0  0  0
 55 71  1  0  0  0  0
 56 75  1  0  0  0  0
 57 74  1  0  0  0  0
 58 62  1  0  0  0  0
 58 65  1  0  0  0  0
 59 62  1  0  0  0  0
 59 82  1  0  0  0  0
 60 63  1  0  0  0  0
 60 73  1  0  0  0  0
 61 75  1  0  0  0  0
 64 66  1  0  0  0  0
M  CHG  1  75   1
M  ISO  4  36 100  59 101  74 100  82 101
M  END
> <Batch ID>
0105

> <Smiles>
CNc1c(C[100NH:0][100C:0](=O)N2CCCC(n3nc(-c4ccc(Oc5ccc(F)cc5F)cc4)c(C(N)=O)c3N)C2)cn(CC(C)[101CH2:1][101O:1]c2ccc3c(c2)CN(C(=O)C(NC(=O)C(C)NC)C(C)(C)C)C(C(=O)NC2CCCc4ccccc42)C3)c1C

> <Shape>
0.284

> <Color>
0.076

> <Negative vol penalty>
0.000

$$$$

  -OEChem-04052319463D

 84 92  0     1  0  0  0  0  0999 V2000
  -30.8044  -33.5280   17.5943 C   0  0  0  0  0  0  0  0  0  0  0  0
  -30.6786  -32.4751   18.4948 C   0  0  0  0  0  0  0  0  0  0  0  0
  -27.8458  -20.4162   19.1901 C   0  0  0  0  0  0  0  0  0  0  0  0
  -24.4523   -9.4245   21.6817 C   0  0  0  0  0  0  0  0  0  0  0  0
  -22.7539  -10.2011   20.1490 C   0  0  0  0  0  0  0  0  0  0  0  0
  -29.8694  -34.5623   17.5978 C   0  0  0  0  0  0  0  0  0  0  0  0
  -29.6183  -32.4564   19.4002 C   0  0  0  0  0  0  0  0  0  0  0  0
  -27.4173  -27.9069   19.7206 C   0  0  0  0  0  0  0  0  0  0  0  0
  -23.6884   -8.2895   21.9533 C   0  0  0  0  0  0  0  0  0  0  0  0
  -21.9899   -9.0660   20.4205 C   0  0  0  0  0  0  0  0  0  0  0  0
  -28.0710  -26.9352   20.4771 C   0  0  0  0  0  0  0  0  0  0  0  0
  -20.9937   -7.4921   23.8314 C   0  0  0  0  0  0  0  0  0  0  0  0
  -20.8562   -7.1083   25.1653 C   0  0  0  0  0  0  0  0  0  0  0  0
  -27.7347  -21.7140   19.7474 C   0  0  0  0  0  0  0  0  0  0  0  0
  -26.5797  -27.3764   22.3212 C   0  0  0  0  0  0  0  0  0  0  0  0
  -21.8814   -4.9800   24.6586 C   0  0  0  0  0  0  0  0  0  0  0  0
  -27.1032  -19.5651   19.9785 C   0  0  0  0  0  0  0  0  0  0  0  0
  -23.9851  -10.3803   20.7796 C   0  0  0  0  0  0  0  0  0  0  0  0
  -25.7481  -11.7021   19.4942 C   0  0  0  0  0  0  0  0  0  0  0  0
  -28.7916  -34.5514   18.4972 C   0  0  0  0  0  0  0  0  0  0  0  0
  -26.3451  -28.6295   20.2634 C   0  0  0  0  0  0  0  0  0  0  0  0
  -28.6687  -33.4922   19.4167 C   0  0  0  0  0  0  0  0  0  0  0  0
  -25.9125  -28.3550   21.5686 C   0  0  0  0  0  0  0  0  0  0  0  0
  -22.4572   -8.1103   21.3226 C   0  0  0  0  0  0  0  0  0  0  0  0
  -27.6540  -26.6719   21.7786 C   0  0  0  0  0  0  0  0  0  0  0  0
  -21.5750   -6.6199   22.9110 C   0  0  0  0  0  0  0  0  0  0  0  0
  -21.3001   -5.8523   25.5789 C   0  0  0  0  0  0  0  0  0  0  0  0
  -22.0189   -5.3639   23.3246 C   0  0  0  0  0  0  0  0  0  0  0  0
  -24.7735  -11.5533   20.4991 C   0  0  0  0  0  0  0  0  0  0  0  0
  -26.9278  -21.6164   20.8595 C   0  0  0  0  0  0  0  0  0  0  0  0
  -26.2012  -12.9901   19.6434 C   0  0  0  0  0  0  0  0  0  0  0  0
  -26.2031  -10.7604   18.5135 C   0  0  0  0  0  0  0  0  0  0  0  0
  -25.7986  -31.6961   20.8965 C   0  0  0  0  0  0  0  0  0  0  0  0
  -22.8272  -30.6148   21.6202 C   0  0  0  0  0  0  0  0  0  0  0  0
  -24.1155  -18.1640   20.9463 C   0  0  0  0  0  0  0  0  0  0  0  0
  -20.8477  -28.0061   22.5809 C   0  0  0  0  0  0  0  0  0  0  0  0
  -27.8326  -35.7154   18.4952 C   0  0  0  0  0  0  0  0  0  0  0  0
  -25.6334  -29.6557   19.4250 C   0  0  0  0  0  0  0  0  0  0  0  0
  -24.7535  -29.0886   22.1907 C   0  0  0  0  0  0  0  0  0  0  0  0
  -26.5280  -35.4311   19.2352 C   0  0  0  0  0  0  0  0  0  0  0  0
  -26.1698  -16.3038   23.3014 C   0  0  0  0  0  0  0  0  0  0  0  0
  -26.8106  -34.7716   20.5813 C   0  0  0  0  0  0  0  0  0  0  0  0
  -26.0844  -14.8889   22.7304 C   0  0  0  0  0  0  0  0  0  0  0  0
  -24.8599  -17.0647   23.1141 C   0  0  0  0  0  0  0  0  0  0  0  0
  -24.3048  -15.7034   21.1233 C   0  0  0  0  0  0  0  0  0  0  0  0
  -27.5183  -33.4237   20.3975 C   0  0  1  0  0  0  0  0  0  0  0  0
  -24.8829  -30.6909   20.2572 C   0  0  1  0  0  0  0  0  0  0  0  0
  -25.6161  -14.9126   21.2648 C   0  0  2  0  0  0  0  0  0  0  0  0
  -18.4651  -27.4379   23.1264 C   0  0  0  0  0  0  0  0  0  0  0  0
  -29.6394  -23.5707   23.9621 C   0  0  0  0  0  0  0  0  0  0  0  0
  -23.2753  -19.5270   22.8357 C   0  0  0  0  0  0  0  0  0  0  0  0
  -23.7819  -20.5709   20.6217 C   0  0  0  0  0  0  0  0  0  0  0  0
  -23.1201  -31.9945   24.3258 C   0  0  0  0  0  0  0  0  0  0  0  0
  -21.1907  -30.6298   25.1523 C   0  0  0  0  0  0  0  0  0  0  0  0
  -20.8655  -32.2351   23.2708 C   0  0  0  0  0  0  0  0  0  0  0  0
  -20.6941  -26.0300   20.3831 C   0  0  0  0  0  0  0  0  0  0  0  0
  -26.4782  -22.6843   21.8250 C   0  0  0  0  0  0  0  0  0  0  0  0
  -27.4200  -22.8806   23.0211 C   0  0  0  0  0  0  0  0  0  0  0  0
  -25.6990  -19.7683   22.0292 C   0  0  0  0  0  0  0  0  0  0  0  0
  -28.8709  -24.6288   21.8128 C   0  0  0  0  0  0  0  0  0  1  0  0
  -22.1524  -30.0966   22.8672 C   0  0  1  0  0  0  0  0  0  0  0  0
  -19.5267  -27.4911   22.0387 C   0  0  2  0  0  0  0  0  0  0  0  0
  -28.8471  -23.3538   22.6665 C   0  0  1  0  0  0  0  0  0  0  0  0
  -24.2263  -19.5018   21.6332 C   0  0  0  0  0  0  0  0  0  0  0  0
  -21.8553  -31.2264   23.8933 C   0  0  0  0  0  0  0  0  0  0  0  0
  -24.6162  -12.6584   21.2326 N   0  0  0  0  0  0  0  0  0  0  0  0
  -26.5500  -20.3055   20.9904 N   0  0  0  0  0  0  0  0  0  0  0  0
  -25.4981  -13.5139   20.6881 N   0  0  0  0  0  0  0  0  0  0  0  0
  -24.0941  -30.0871   21.3330 N   0  0  0  0  0  0  0  0  0  0  0  0
  -24.4339  -17.0405   21.7097 N   0  0  0  0  0  0  0  0  0  0  0  0
  -27.1285  -13.7143   18.9816 N   0  0  0  0  0  0  0  0  0  0  0  0
  -25.6313   -9.4808   18.5001 N   0  0  0  0  0  0  0  0  0  0  0  0
  -26.5708  -32.4059   19.9968 N   0  0  0  0  0  0  0  0  0  0  0  0
  -20.9693  -29.3700   22.4192 N   0  0  0  0  0  0  0  0  0  0  0  0
  -19.6955  -26.1201   21.4793 N   0  3  0  0  0  0  0  0  0  0  0  0
  -27.1022  -11.0397   17.6846 O   0  0  0  0  0  0  0  0  0  0  0  0
  -25.8031  -31.8198   22.1157 O   0  0  0  0  0  0  0  0  0  0  0  0
  -22.2484  -31.4515   20.9226 O   0  0  0  0  0  0  0  0  0  0  0  0
  -23.7591  -18.1210   19.7659 O   0  0  0  0  0  0  0  0  0  0  0  0
  -21.6863  -27.2724   23.0997 O   0  0  0  0  0  0  0  0  0  0  0  0
  -21.7116   -7.0027   21.5872 O   0  0  0  0  0  0  0  0  0  0  0  0
  -28.2907  -25.7244   22.5195 O   0  0  0  0  0  0  0  0  0  1  0  0
  -21.1694   -5.4844   26.8602 F   0  0  0  0  0  0  0  0  0  0  0  0
  -22.5793   -4.5221   22.4453 F   0  0  0  0  0  0  0  0  0  0  0  0
  1  2  1  0  0  0  0
  1  6  2  0  0  0  0
  2  7  2  0  0  0  0
  3 14  1  0  0  0  0
  3 17  2  0  0  0  0
  4  9  2  0  0  0  0
  4 18  1  0  0  0  0
  5 10  1  0  0  0  0
  5 18  2  0  0  0  0
  6 20  1  0  0  0  0
  7 22  1  0  0  0  0
  8 11  2  0  0  0  0
  8 21  1  0  0  0  0
  9 24  1  0  0  0  0
 10 24  2  0  0  0  0
 11 25  1  0  0  0  0
 12 13  2  0  0  0  0
 12 26  1  0  0  0  0
 13 27  1  0  0  0  0
 14 30  2  0  0  0  0
 15 23  1  0  0  0  0
 15 25  2  0  0  0  0
 16 27  2  0  0  0  0
 16 28  1  0  0  0  0
 17 67  1  0  0  0  0
 18 29  1  0  0  0  0
 19 29  1  0  0  0  0
 19 31  2  0  0  0  0
 19 32  1  0  0  0  0
 20 22  2  0  0  0  0
 20 37  1  0  0  0  0
 21 23  2  0  0  0  0
 21 38  1  0  0  0  0
 22 46  1  0  0  0  0
 23 39  1  0  0  0  0
 24 81  1  0  0  0  0
 25 82  1  0  0  0  0
 26 28  2  0  0  0  0
 26 81  1  0  0  0  0
 27 83  1  0  0  0  0
 28 84  1  0  0  0  0
 29 66  2  0  0  0  0
 30 57  1  0  0  0  0
 30 67  1  0  0  0  0
 31 68  1  0  0  0  0
 31 71  1  0  0  0  0
 32 72  1  0  0  0  0
 32 76  2  0  0  0  0
 33 47  1  0  0  0  0
 33 73  1  0  0  0  0
 33 77  2  0  0  0  0
 34 61  1  0  0  0  0
 34 69  1  0  0  0  0
 34 78  2  0  0  0  0
 35 64  1  0  0  0  0
 35 70  1  0  0  0  0
 35 79  2  0  0  0  0
 36 62  1  0  0  0  0
 36 74  1  0  0  0  0
 36 80  2  0  0  0  0
 37 40  1  0  0  0  0
 38 47  1  0  0  0  0
 39 69  1  0  0  0  0
 40 42  1  0  0  0  0
 41 43  1  0  0  0  0
 41 44  1  0  0  0  0
 42 46  1  0  0  0  0
 43 48  1  0  0  0  0
 44 70  1  0  0  0  0
 45 48  1  0  0  0  0
 45 70  1  0  0  0  0
 46 73  1  0  0  0  0
 47 69  1  0  0  0  0
 48 68  1  0  0  0  0
 49 62  1  0  0  0  0
 50 63  1  0  0  0  0
 51 64  1  0  0  0  0
 52 64  1  0  0  0  0
 53 65  1  0  0  0  0
 54 65  1  0  0  0  0
 55 65  1  0  0  0  0
 56 75  1  0  0  0  0
 57 58  1  0  0  0  0
 58 63  1  0  0  0  0
 59 64  1  0  0  0  0
 59 67  1  0  0  0  0
 60 63  1  0  0  0  0
 60 82  1  0  0  0  0
 61 65  1  0  0  0  0
 61 74  1  0  0  0  0
 62 75  1  0  0  0  0
 66 68  1  0  0  0  0
M  CHG  1  75   1
M  ISO  4  35 100  60 101  64 100  82 101
M  END
> <Batch ID>
0105

> <Smiles>
CNC(C)C(=O)NC(C(=O)N1Cc2cc([101O:1][101CH2:1]C(C)CCc3cccn3C[100C:0](C)(C)[100C:0](=O)N3CCCC(n4nc(-c5ccc(Oc6ccc(F)cc6F)cc5)c(C(N)=O)c4N)C3)ccc2CC1C(=O)NC1CCCc2ccccc21)C(C)(C)C

> <Shape>
0.260

> <Color>
0.090

> <Negative vol penalty>
0.000

$$$$

  -OEChem-04052319463D

 84 91  0     1  0  0  0  0  0999 V2000
  -17.8512  -29.0850   22.5247 C   0  0  0  0  0  0  0  0  0  0  0  0
  -19.2080  -29.2626   22.2736 C   0  0  0  0  0  0  0  0  0  0  0  0
  -27.7375  -18.3806   20.7821 C   0  0  0  0  0  0  0  0  0  0  0  0
  -30.0469  -17.6806   20.6645 C   0  0  0  0  0  0  0  0  0  0  0  0
  -17.3822  -27.8509   22.9729 C   0  0  0  0  0  0  0  0  0  0  0  0
  -20.0967  -28.2064   22.4714 C   0  0  0  0  0  0  0  0  0  0  0  0
  -25.1219  -26.9613   19.2000 C   0  0  0  0  0  0  0  0  0  0  0  0
  -27.3501  -17.0624   21.0224 C   0  0  0  0  0  0  0  0  0  0  0  0
  -29.6595  -16.3623   20.9049 C   0  0  0  0  0  0  0  0  0  0  0  0
  -26.4726  -27.2312   19.4160 C   0  0  0  0  0  0  0  0  0  0  0  0
  -28.3253  -13.7985   19.1506 C   0  0  0  0  0  0  0  0  0  0  0  0
  -28.8951  -12.8011   18.3593 C   0  0  0  0  0  0  0  0  0  0  0  0
  -26.7570  -25.0266   20.3530 C   0  0  0  0  0  0  0  0  0  0  0  0
  -29.8152  -11.7592   20.3354 C   0  0  0  0  0  0  0  0  0  0  0  0
  -29.0859  -18.6898   20.6031 C   0  0  0  0  0  0  0  0  0  0  0  0
  -29.8306  -21.0246   21.3114 C   0  0  0  0  0  0  0  0  0  0  0  0
  -18.2642  -26.7762   23.1671 C   0  0  0  0  0  0  0  0  0  0  0  0
  -24.5754  -25.7239   19.5694 C   0  0  0  0  0  0  0  0  0  0  0  0
  -19.6391  -26.9572   22.9239 C   0  0  0  0  0  0  0  0  0  0  0  0
  -25.3997  -24.7425   20.1382 C   0  0  0  0  0  0  0  0  0  0  0  0
  -28.3111  -16.0533   21.0838 C   0  0  0  0  0  0  0  0  0  0  0  0
  -27.2897  -26.2648   19.9953 C   0  0  0  0  0  0  0  0  0  0  0  0
  -28.5005  -13.7763   20.5343 C   0  0  0  0  0  0  0  0  0  0  0  0
  -29.6400  -11.7814   18.9517 C   0  0  0  0  0  0  0  0  0  0  0  0
  -29.2454  -12.7566   21.1266 C   0  0  0  0  0  0  0  0  0  0  0  0
  -29.4866  -20.0512   20.3543 C   0  0  0  0  0  0  0  0  0  0  0  0
  -30.1325  -22.1418   20.5717 C   0  0  0  0  0  0  0  0  0  0  0  0
  -29.8735  -20.9275   22.7412 C   0  0  0  0  0  0  0  0  0  0  0  0
  -22.3214  -24.7851   21.6046 C   0  0  0  0  0  0  0  0  0  0  0  0
  -22.8618  -21.8837   20.2583 C   0  0  0  0  0  0  0  0  0  0  0  0
  -24.9996  -19.8237   18.5752 C   0  0  0  0  0  0  0  0  0  0  0  0
  -32.6029  -23.6493   15.5579 C   0  0  0  0  0  0  0  0  0  0  0  0
  -17.7170  -25.4748   23.6979 C   0  0  0  0  0  0  0  0  0  0  0  0
  -23.1224  -25.4386   19.3052 C   0  0  0  0  0  0  0  0  0  0  0  0
  -24.8663  -23.3908   20.5341 C   0  0  0  0  0  0  0  0  0  0  0  0
  -18.6718  -24.2965   23.5240 C   0  0  0  0  0  0  0  0  0  0  0  0
  -29.0697  -23.6829   15.9959 C   0  0  0  0  0  0  0  0  0  0  0  0
  -20.0813  -24.6825   23.9612 C   0  0  0  0  0  0  0  0  0  0  0  0
  -28.8490  -22.8403   17.2534 C   0  0  0  0  0  0  0  0  0  0  0  0
  -30.2146  -23.1377   15.1450 C   0  0  0  0  0  0  0  0  0  0  0  0
  -31.2678  -22.1115   17.1227 C   0  0  0  0  0  0  0  0  0  0  0  0
  -20.6309  -25.8282   23.1029 C   0  0  1  0  0  0  0  0  0  0  0  0
  -22.5598  -24.3320   20.1919 C   0  0  1  0  0  0  0  0  0  0  0  0
  -30.1598  -22.6547   18.0412 C   0  0  2  0  0  0  0  0  0  0  0  0
  -25.1738  -17.4981   17.6486 C   0  0  0  0  0  0  0  0  0  0  0  0
  -34.2477  -27.0602   16.3868 C   0  0  0  0  0  0  0  0  0  0  0  0
  -35.9785  -28.0040   18.4702 C   0  0  0  0  0  0  0  0  0  0  0  0
  -36.0336  -23.0029   15.8414 C   0  0  0  0  0  0  0  0  0  0  0  0
  -23.2931  -20.7959   23.0762 C   0  0  0  0  0  0  0  0  0  0  0  0
  -24.3702  -18.7784   22.0573 C   0  0  0  0  0  0  0  0  0  0  0  0
  -21.9792  -19.2946   21.5681 C   0  0  0  0  0  0  0  0  0  0  0  0
  -25.3573  -20.8261   15.8137 C   0  0  0  0  0  0  0  0  0  0  0  0
  -33.5334  -26.2115   21.5967 C   0  0  0  0  0  0  0  0  0  0  0  0
  -30.7154  -27.0408   19.1752 C   0  0  0  0  0  0  0  0  0  0  0  0
  -35.4235  -24.9826   17.2770 C   0  0  0  0  0  0  0  0  0  0  0  0
  -31.4754  -27.0752   20.4925 C   0  0  0  0  0  0  0  0  0  0  0  0
  -33.7166  -27.6489   19.5713 C   0  0  0  0  0  0  0  0  0  0  0  0
  -29.2468  -27.4261   19.3044 C   0  0  0  0  0  0  0  0  0  1  0  0
  -23.7915  -20.7291   20.5437 C   0  0  1  0  0  0  0  0  0  0  0  0
  -24.7983  -18.9424   17.3557 C   0  0  2  0  0  0  0  0  0  0  0  0
  -34.4562  -26.1473   17.6036 C   0  0  1  0  0  0  0  0  0  0  0  0
  -34.8970  -26.9807   18.8495 C   0  0  1  0  0  0  0  0  0  0  0  0
  -34.9838  -24.0785   16.1115 C   0  0  2  0  0  0  0  0  0  0  0  0
  -23.3684  -19.9256   21.8058 C   0  0  0  0  0  0  0  0  0  0  0  0
  -29.5625  -20.5099   19.1021 N   0  0  0  0  0  0  0  0  0  0  0  0
  -29.9575  -21.7838   19.2674 N   0  0  0  0  0  0  0  0  0  0  0  0
  -23.4377  -23.1620   20.2612 N   0  0  0  0  0  0  0  0  0  0  0  0
  -31.4284  -22.9867   15.9511 N   0  0  0  0  0  0  0  0  0  0  0  0
  -30.5278  -23.3857   20.9163 N   0  0  0  0  0  0  0  0  0  0  0  0
  -29.5329  -19.7062   23.3385 N   0  0  0  0  0  0  0  0  0  0  0  0
  -21.0696  -25.3306   21.8167 N   0  0  0  0  0  0  0  0  0  0  0  0
  -23.8449  -19.9360   19.3204 N   0  0  0  0  0  0  0  0  0  0  0  0
  -33.7059  -23.4578   16.3810 N   0  0  0  0  0  0  0  0  0  0  0  0
  -25.6375  -19.4258   16.2230 N   0  3  0  0  0  0  0  0  0  0  0  0
  -32.9045  -26.6358   20.2930 N   0  3  1  0  0  0  0  0  0  0  0  0
  -30.1882  -21.8999   23.4685 O   0  0  0  0  0  0  0  0  0  0  0  0
  -23.2069  -24.6483   22.4406 O   0  0  0  0  0  0  0  0  0  0  0  0
  -21.6698  -21.6590   20.0337 O   0  0  0  0  0  0  0  0  0  0  0  0
  -26.0747  -20.3560   18.8422 O   0  0  0  0  0  0  0  0  0  0  0  0
  -32.6626  -24.3632   14.5510 O   0  0  0  0  0  0  0  0  0  0  0  0
  -27.9335  -14.7668   21.3185 O   0  0  0  0  0  0  0  0  0  0  0  0
  -28.6175  -26.5278   20.2094 O   0  0  0  0  0  0  0  0  0  1  0  0
  -30.1858  -10.8228   18.1919 F   0  0  0  0  0  0  0  0  0  0  0  0
  -29.4162  -12.7293   22.4555 F   0  0  0  0  0  0  0  0  0  0  0  0
  1  2  1  0  0  0  0
  1  5  2  0  0  0  0
  2  6  2  0  0  0  0
  3  8  2  0  0  0  0
  3 15  1  0  0  0  0
  4  9  1  0  0  0  0
  4 15  2  0  0  0  0
  5 17  1  0  0  0  0
  6 19  1  0  0  0  0
  7 10  2  0  0  0  0
  7 18  1  0  0  0  0
  8 21  1  0  0  0  0
  9 21  2  0  0  0  0
 10 22  1  0  0  0  0
 11 12  2  0  0  0  0
 11 23  1  0  0  0  0
 12 24  1  0  0  0  0
 13 20  1  0  0  0  0
 13 22  2  0  0  0  0
 14 24  2  0  0  0  0
 14 25  1  0  0  0  0
 15 26  1  0  0  0  0
 16 26  1  0  0  0  0
 16 27  2  0  0  0  0
 16 28  1  0  0  0  0
 17 19  2  0  0  0  0
 17 33  1  0  0  0  0
 18 20  2  0  0  0  0
 18 34  1  0  0  0  0
 19 42  1  0  0  0  0
 20 35  1  0  0  0  0
 21 81  1  0  0  0  0
 22 82  1  0  0  0  0
 23 25  2  0  0  0  0
 23 81  1  0  0  0  0
 24 83  1  0  0  0  0
 25 84  1  0  0  0  0
 26 65  2  0  0  0  0
 27 66  1  0  0  0  0
 27 69  1  0  0  0  0
 28 70  1  0  0  0  0
 28 76  2  0  0  0  0
 29 43  1  0  0  0  0
 29 71  1  0  0  0  0
 29 77  2  0  0  0  0
 30 59  1  0  0  0  0
 30 67  1  0  0  0  0
 30 78  2  0  0  0  0
 31 60  1  0  0  0  0
 31 72  1  0  0  0  0
 31 79  2  0  0  0  0
 32 68  1  0  0  0  0
 32 73  1  0  0  0  0
 32 80  2  0  0  0  0
 33 36  1  0  0  0  0
 34 43  1  0  0  0  0
 35 67  1  0  0  0  0
 36 38  1  0  0  0  0
 37 39  1  0  0  0  0
 37 40  1  0  0  0  0
 38 42  1  0  0  0  0
 39 44  1  0  0  0  0
 40 68  1  0  0  0  0
 41 44  1  0  0  0  0
 41 68  1  0  0  0  0
 42 71  1  0  0  0  0
 43 67  1  0  0  0  0
 44 66  1  0  0  0  0
 45 60  1  0  0  0  0
 46 61  1  0  0  0  0
 47 62  1  0  0  0  0
 48 63  1  0  0  0  0
 49 64  1  0  0  0  0
 50 64  1  0  0  0  0
 51 64  1  0  0  0  0
 52 74  1  0  0  0  0
 53 75  1  0  0  0  0
 54 56  1  0  0  0  0
 54 58  1  0  0  0  0
 55 61  1  0  0  0  0
 55 63  1  0  0  0  0
 56 75  1  0  0  0  0
 57 62  1  0  0  0  0
 57 75  1  0  0  0  0
 58 82  1  0  0  0  0
 59 64  1  0  0  0  0
 59 72  1  0  0  0  0
 60 74  1  0  0  0  0
 61 62  1  0  0  0  0
 63 73  1  0  0  0  0
 65 66  1  0  0  0  0
M  CHG  2  74   1  75   1
M  ISO  4  32 100  58 101  73 100  82 101
M  END
> <Batch ID>
0105

> <Smiles>
CNC(C)C(=O)NC(C(=O)N1Cc2cc([101O:1][101CH2:1]CCN(C)CC(C)C(C)CC(C)[100NH:0][100C:0](=O)N3CCCC(n4nc(-c5ccc(Oc6ccc(F)cc6F)cc5)c(C(N)=O)c4N)C3)ccc2CC1C(=O)NC1CCCc2ccccc21)C(C)(C)C

> <Shape>
0.195

> <Color>
0.055

> <Negative vol penalty>
0.000

$$$$

  -OEChem-04052319463D

 83 91  0     1  0  0  0  0  0999 V2000
  -24.5146  -32.2267   24.0905 C   0  0  0  0  0  0  0  0  0  0  0  0
  -24.6702  -31.0025   24.7327 C   0  0  0  0  0  0  0  0  0  0  0  0
  -23.2045   -9.7015   19.9826 C   0  0  0  0  0  0  0  0  0  0  0  0
  -23.7968   -9.9333   22.3133 C   0  0  0  0  0  0  0  0  0  0  0  0
  -24.5857  -32.2972   22.6999 C   0  0  0  0  0  0  0  0  0  0  0  0
  -24.8959  -29.8477   23.9844 C   0  0  0  0  0  0  0  0  0  0  0  0
  -28.3701  -25.0579   25.5635 C   0  0  0  0  0  0  0  0  0  0  0  0
  -22.5142   -8.5253   20.2749 C   0  0  0  0  0  0  0  0  0  0  0  0
  -23.1064   -8.7570   22.6057 C   0  0  0  0  0  0  0  0  0  0  0  0
  -28.0595  -23.8135   26.1101 C   0  0  0  0  0  0  0  0  0  0  0  0
  -23.6325   -5.4279   22.3396 C   0  0  0  0  0  0  0  0  0  0  0  0
  -24.2547   -4.5025   23.1775 C   0  0  0  0  0  0  0  0  0  0  0  0
  -28.0555  -22.8499   23.8986 C   0  0  0  0  0  0  0  0  0  0  0  0
  -28.1678  -18.5453   22.1332 C   0  0  0  0  0  0  0  0  0  0  0  0
  -22.4284   -4.6961   24.7473 C   0  0  0  0  0  0  0  0  0  0  0  0
  -29.7297  -18.6454   23.9240 C   0  0  0  0  0  0  0  0  0  0  0  0
  -23.8459  -10.4056   21.0018 C   0  0  0  0  0  0  0  0  0  0  0  0
  -24.0454  -12.9309   20.7009 C   0  0  0  0  0  0  0  0  0  0  0  0
  -24.8219  -31.1442   21.9347 C   0  0  0  0  0  0  0  0  0  0  0  0
  -28.5152  -25.2102   24.1771 C   0  0  0  0  0  0  0  0  0  0  0  0
  -24.9688  -29.9025   22.5821 C   0  0  0  0  0  0  0  0  0  0  0  0
  -28.3705  -24.0967   23.3372 C   0  0  0  0  0  0  0  0  0  0  0  0
  -29.4052  -18.1880   22.6570 C   0  0  0  0  0  0  0  0  0  0  0  0
  -27.3048  -19.3378   22.8819 C   0  0  0  0  0  0  0  0  0  0  0  0
  -22.4652   -8.0530   21.5865 C   0  0  0  0  0  0  0  0  0  0  0  0
  -27.8993  -22.7098   25.2774 C   0  0  0  0  0  0  0  0  0  0  0  0
  -22.4083   -5.9874   22.7055 C   0  0  0  0  0  0  0  0  0  0  0  0
  -23.6526   -4.1366   24.3814 C   0  0  0  0  0  0  0  0  0  0  0  0
  -21.8062   -5.6215   23.9094 C   0  0  0  0  0  0  0  0  0  0  0  0
  -24.5596  -11.6204   20.7003 C   0  0  0  0  0  0  0  0  0  0  0  0
  -27.7232  -19.7436   24.1389 C   0  0  0  0  0  0  0  0  0  0  0  0
  -25.1144  -13.7193   20.3517 C   0  0  0  0  0  0  0  0  0  0  0  0
  -22.7199  -13.3941   20.9911 C   0  0  0  0  0  0  0  0  0  0  0  0
  -27.0183  -26.8965   21.9368 C   0  0  0  0  0  0  0  0  0  0  0  0
  -29.3872  -25.7491   20.0410 C   0  0  0  0  0  0  0  0  0  0  0  0
  -31.7304  -23.3336   19.4737 C   0  0  0  0  0  0  0  0  0  0  0  0
  -30.5008  -15.1021   20.8217 C   0  0  0  0  0  0  0  0  0  0  0  0
  -24.8434  -31.2624   20.4313 C   0  0  0  0  0  0  0  0  0  0  0  0
  -28.8767  -26.5537   23.6055 C   0  0  0  0  0  0  0  0  0  0  0  0
  -28.5358  -24.2030   21.8439 C   0  0  0  0  0  0  0  0  0  0  0  0
  -25.4588  -30.0520   19.7339 C   0  0  0  0  0  0  0  0  0  0  0  0
  -29.6798  -12.4732   18.5652 C   0  0  0  0  0  0  0  0  0  0  0  0
  -24.8990  -28.7583   20.3168 C   0  0  0  0  0  0  0  0  0  0  0  0
  -28.2350  -12.1212   18.9238 C   0  0  0  0  0  0  0  0  0  0  0  0
  -30.4940  -12.8442   19.8027 C   0  0  0  0  0  0  0  0  0  0  0  0
  -28.4581  -13.5549   20.9959 C   0  0  0  0  0  0  0  0  0  0  0  0
  -25.2397  -28.6316   21.8065 C   0  0  1  0  0  0  0  0  0  0  0  0
  -28.4946  -26.7001   22.1358 C   0  0  1  0  0  0  0  0  0  0  0  0
  -27.5827  -13.2280   19.7740 C   0  0  2  0  0  0  0  0  0  0  0  0
  -25.0726  -18.5085   22.0552 C   0  0  0  0  0  0  0  0  0  0  0  0
  -26.0998  -20.5788   21.0483 C   0  0  0  0  0  0  0  0  0  0  0  0
  -25.9306  -19.7747   25.9078 C   0  0  0  0  0  0  0  0  0  0  0  0
  -33.4901  -22.6453   17.8223 C   0  0  0  0  0  0  0  0  0  0  0  0
  -27.2150  -24.7396   18.1509 C   0  0  0  0  0  0  0  0  0  0  0  0
  -28.9350  -23.2792   17.0661 C   0  0  0  0  0  0  0  0  0  0  0  0
  -29.1954  -25.7596   17.0142 C   0  0  0  0  0  0  0  0  0  0  0  0
  -33.8804  -23.5587   21.4951 C   0  0  0  0  0  0  0  0  0  0  0  0
  -30.3507  -17.3408   21.8822 C   0  0  0  0  0  0  0  0  0  0  0  0
  -25.9782  -19.7257   22.3259 C   0  0  0  0  0  0  0  0  0  0  0  0
  -26.8269  -20.6055   24.9983 C   0  0  1  0  0  0  0  0  0  1  0  0
  -29.5704  -24.5191   19.1851 C   0  0  1  0  0  0  0  0  0  0  0  0
  -33.1981  -23.4229   19.0962 C   0  0  2  0  0  0  0  0  0  0  0  0
  -28.7238  -24.5724   17.8820 C   0  0  0  0  0  0  0  0  0  0  0  0
  -28.9177  -19.4167   24.6811 N   0  0  0  0  0  0  0  0  0  0  0  0
  -25.8545  -11.5747   20.3763 N   0  0  0  0  0  0  0  0  0  0  0  0
  -26.1630  -12.8664   20.1699 N   0  0  0  0  0  0  0  0  0  0  0  0
  -28.8830  -25.5392   21.3324 N   0  0  0  0  0  0  0  0  0  0  0  0
  -29.8217  -13.8998   20.5639 N   0  0  0  0  0  0  0  0  0  0  0  0
  -25.2504  -15.0521   20.1853 N   0  0  0  0  0  0  0  0  0  0  0  0
  -21.7420  -12.4499   21.3327 N   0  0  0  0  0  0  0  0  0  0  0  0
  -26.6160  -28.2179   21.9768 N   0  0  0  0  0  0  0  0  0  0  0  0
  -31.0059  -24.3884   18.9601 N   0  0  0  0  0  0  0  0  0  0  0  0
  -29.7890  -16.0520   21.5440 N   0  0  0  0  0  0  0  0  0  0  0  0
  -34.0484  -22.8715   20.1887 N   0  3  0  0  0  0  0  0  0  0  0  0
  -22.4078  -14.6076   20.9329 O   0  0  0  0  0  0  0  0  0  0  0  0
  -26.2977  -25.9215   21.7585 O   0  0  0  0  0  0  0  0  0  0  0  0
  -29.6873  -26.8545   19.5833 O   0  0  0  0  0  0  0  0  0  0  0  0
  -31.2719  -22.4177   20.1529 O   0  0  0  0  0  0  0  0  0  0  0  0
  -31.6539  -15.3153   20.4320 O   0  0  0  0  0  0  0  0  0  0  0  0
  -21.7914   -6.9054   21.8722 O   0  0  0  0  0  0  0  0  0  0  0  0
  -27.5955  -21.4942   25.8082 O   0  0  0  0  0  0  0  0  0  1  0  0
  -24.2495   -3.2468   25.1853 F   0  0  0  0  0  0  0  0  0  0  0  0
  -20.6296   -6.1547   24.2657 F   0  0  0  0  0  0  0  0  0  0  0  0
  1  2  1  0  0  0  0
  1  5  2  0  0  0  0
  2  6  2  0  0  0  0
  3  8  2  0  0  0  0
  3 17  1  0  0  0  0
  4  9  1  0  0  0  0
  4 17  2  0  0  0  0
  5 19  1  0  0  0  0
  6 21  1  0  0  0  0
  7 10  2  0  0  0  0
  7 20  1  0  0  0  0
  8 25  1  0  0  0  0
  9 25  2  0  0  0  0
 10 26  1  0  0  0  0
 11 12  2  0  0  0  0
 11 27  1  0  0  0  0
 12 28  1  0  0  0  0
 13 22  1  0  0  0  0
 13 26  2  0  0  0  0
 14 23  2  0  0  0  0
 14 24  1  0  0  0  0
 15 28  2  0  0  0  0
 15 29  1  0  0  0  0
 16 23  1  0  0  0  0
 16 64  2  0  0  0  0
 17 30  1  0  0  0  0
 18 30  1  0  0  0  0
 18 32  2  0  0  0  0
 18 33  1  0  0  0  0
 19 21  2  0  0  0  0
 19 38  1  0  0  0  0
 20 22  2  0  0  0  0
 20 39  1  0  0  0  0
 21 47  1  0  0  0  0
 22 40  1  0  0  0  0
 23 58  1  0  0  0  0
 24 31  2  0  0  0  0
 24 59  1  0  0  0  0
 25 80  1  0  0  0  0
 26 81  1  0  0  0  0
 27 29  2  0  0  0  0
 27 80  1  0  0  0  0
 28 82  1  0  0  0  0
 29 83  1  0  0  0  0
 30 65  2  0  0  0  0
 31 60  1  0  0  0  0
 31 64  1  0  0  0  0
 32 66  1  0  0  0  0
 32 69  1  0  0  0  0
 33 70  1  0  0  0  0
 33 75  2  0  0  0  0
 34 48  1  0  0  0  0
 34 71  1  0  0  0  0
 34 76  2  0  0  0  0
 35 61  1  0  0  0  0
 35 67  1  0  0  0  0
 35 77  2  0  0  0  0
 36 62  1  0  0  0  0
 36 72  1  0  0  0  0
 36 78  2  0  0  0  0
 37 68  1  0  0  0  0
 37 73  1  0  0  0  0
 37 79  2  0  0  0  0
 38 41  1  0  0  0  0
 39 48  1  0  0  0  0
 40 67  1  0  0  0  0
 41 43  1  0  0  0  0
 42 44  1  0  0  0  0
 42 45  1  0  0  0  0
 43 47  1  0  0  0  0
 44 49  1  0  0  0  0
 45 68  1  0  0  0  0
 46 49  1  0  0  0  0
 46 68  1  0  0  0  0
 47 71  1  0  0  0  0
 48 67  1  0  0  0  0
 49 66  1  0  0  0  0
 50 59  1  0  0  0  0
 51 59  1  0  0  0  0
 52 60  1  0  0  0  0
 53 62  1  0  0  0  0
 54 63  1  0  0  0  0
 55 63  1  0  0  0  0
 56 63  1  0  0  0  0
 57 74  1  0  0  0  0
 58 73  1  0  0  0  0
 60 81  1  0  0  0  0
 61 63  1  0  0  0  0
 61 72  1  0  0  0  0
 62 74  1  0  0  0  0
 65 66  1  0  0  0  0
M  CHG  1  74   1
M  ISO  4  37 100  60 101  73 100  81 101
M  END
> <Batch ID>
0105

> <Smiles>
CNC(C)C(=O)NC(C(=O)N1Cc2cc([101O:1][101CH:1](C)c3ncc(C[100NH:0][100C:0](=O)N4CCCC(n5nc(-c6ccc(Oc7ccc(F)cc7F)cc6)c(C(N)=O)c5N)C4)cc3C(C)C)ccc2CC1C(=O)NC1CCCc2ccccc21)C(C)(C)C

> <Shape>
0.283

> <Color>
0.208

> <Negative vol penalty>
0.000

$$$$

  -OEChem-04052319463D

 88 96  0     1  0  0  0  0  0999 V2000
  -22.8250  -14.9084   16.4868 C   0  0  0  0  0  0  0  0  0  0  0  0
  -23.4542  -15.8297   17.3179 C   0  0  0  0  0  0  0  0  0  0  0  0
  -22.9991   -9.8957   19.9815 C   0  0  0  0  0  0  0  0  0  0  0  0
  -23.7247   -9.9456   22.2854 C   0  0  0  0  0  0  0  0  0  0  0  0
  -21.8100  -15.3263   15.6270 C   0  0  0  0  0  0  0  0  0  0  0  0
  -23.0695  -17.1697   17.2888 C   0  0  0  0  0  0  0  0  0  0  0  0
  -22.9193  -21.0600   22.0163 C   0  0  0  0  0  0  0  0  0  0  0  0
  -22.2320   -8.7616   20.2477 C   0  0  0  0  0  0  0  0  0  0  0  0
  -22.9575   -8.8115   22.5516 C   0  0  0  0  0  0  0  0  0  0  0  0
  -23.8096  -22.0399   22.4534 C   0  0  0  0  0  0  0  0  0  0  0  0
  -23.1998   -5.4725   22.0787 C   0  0  0  0  0  0  0  0  0  0  0  0
  -23.7869   -4.4548   22.8305 C   0  0  0  0  0  0  0  0  0  0  0  0
  -22.5383  -23.7140   21.2700 C   0  0  0  0  0  0  0  0  0  0  0  0
  -30.6566  -19.8045   21.4100 C   0  0  0  0  0  0  0  0  0  0  0  0
  -29.5423  -17.8616   22.3156 C   0  0  0  0  0  0  0  0  0  0  0  0
  -31.1963  -17.6030   20.5736 C   0  0  0  0  0  0  0  0  0  0  0  0
  -22.0634   -4.6983   24.5061 C   0  0  0  0  0  0  0  0  0  0  0  0
  -23.7456  -10.4877   21.0004 C   0  0  0  0  0  0  0  0  0  0  0  0
  -24.1324  -13.0031   20.8250 C   0  0  0  0  0  0  0  0  0  0  0  0
  -21.4061  -16.6703   15.5944 C   0  0  0  0  0  0  0  0  0  0  0  0
  -21.8363  -21.3987   21.1925 C   0  0  0  0  0  0  0  0  0  0  0  0
  -22.0492  -17.6062   16.4268 C   0  0  0  0  0  0  0  0  0  0  0  0
  -21.6343  -22.7369   20.8260 C   0  0  0  0  0  0  0  0  0  0  0  0
  -29.7339  -19.2430   22.2925 C   0  0  0  0  0  0  0  0  0  0  0  0
  -31.3878  -18.9845   20.5505 C   0  0  0  0  0  0  0  0  0  0  0  0
  -30.2735  -17.0415   21.4562 C   0  0  0  0  0  0  0  0  0  0  0  0
  -22.2111   -8.2195   21.5327 C   0  0  0  0  0  0  0  0  0  0  0  0
  -23.6208  -23.3667   22.0778 C   0  0  0  0  0  0  0  0  0  0  0  0
  -22.0446   -6.1032   22.5407 C   0  0  0  0  0  0  0  0  0  0  0  0
  -23.2187   -4.0676   24.0441 C   0  0  0  0  0  0  0  0  0  0  0  0
  -21.4764   -5.7161   23.7543 C   0  0  0  0  0  0  0  0  0  0  0  0
  -24.5387  -11.6589   20.7259 C   0  0  0  0  0  0  0  0  0  0  0  0
  -25.2425  -13.7251   20.4606 C   0  0  0  0  0  0  0  0  0  0  0  0
  -22.8648  -13.5501   21.2119 C   0  0  0  0  0  0  0  0  0  0  0  0
  -20.9287  -20.6200   18.2474 C   0  0  0  0  0  0  0  0  0  0  0  0
  -18.2820  -22.3237   19.0316 C   0  0  0  0  0  0  0  0  0  0  0  0
  -16.8684  -24.7527   20.9676 C   0  0  0  0  0  0  0  0  0  0  0  0
  -30.7226  -14.6828   20.6938 C   0  0  0  0  0  0  0  0  0  0  0  0
  -20.3368  -17.0834   14.6143 C   0  0  0  0  0  0  0  0  0  0  0  0
  -20.8697  -20.3339   20.7515 C   0  0  0  0  0  0  0  0  0  0  0  0
  -20.4757  -23.1557   19.9596 C   0  0  0  0  0  0  0  0  0  0  0  0
  -19.7318  -18.4524   14.9141 C   0  0  0  0  0  0  0  0  0  0  0  0
  -29.6024  -12.2313   18.3674 C   0  0  0  0  0  0  0  0  0  0  0  0
  -20.8306  -19.4693   15.2063 C   0  0  0  0  0  0  0  0  0  0  0  0
  -28.1517  -11.9744   18.7818 C   0  0  0  0  0  0  0  0  0  0  0  0
  -30.5033  -12.4738   19.5771 C   0  0  0  0  0  0  0  0  0  0  0  0
  -28.5886  -13.2634   20.9112 C   0  0  0  0  0  0  0  0  0  0  0  0
  -21.6430  -19.0639   16.4421 C   0  0  1  0  0  0  0  0  0  0  0  0
  -20.0947  -20.7143   19.4937 C   0  0  1  0  0  0  0  0  0  0  0  0
  -27.6307  -13.0780   19.7231 C   0  0  2  0  0  0  0  0  0  0  0  0
  -14.6965  -25.9493   21.3528 C   0  0  0  0  0  0  0  0  0  0  0  0
  -33.4878  -20.3645   20.3733 C   0  0  0  0  0  0  0  0  0  0  0  0
  -31.6857  -20.5877   18.6301 C   0  0  0  0  0  0  0  0  0  0  0  0
  -33.1336  -18.5675   18.6919 C   0  0  0  0  0  0  0  0  0  0  0  0
  -18.7358  -23.9586   16.4957 C   0  0  0  0  0  0  0  0  0  0  0  0
  -17.1659  -25.6817   17.4092 C   0  0  0  0  0  0  0  0  0  0  0  0
  -16.3466  -23.3717   16.9450 C   0  0  0  0  0  0  0  0  0  0  0  0
  -24.9914  -23.2606   24.5942 C   0  0  0  0  0  0  0  0  0  0  0  0
  -26.3945  -25.1381   23.7006 C   0  0  0  0  0  0  0  0  0  0  0  0
  -16.7106  -23.8075   23.7676 C   0  0  0  0  0  0  0  0  0  0  0  0
  -28.9473  -20.1251   23.2167 C   0  0  0  0  0  0  0  0  0  0  0  0
  -26.4430  -22.9191   22.5229 C   0  0  0  0  0  0  0  0  0  0  0  0
  -27.2725  -21.9706   23.3841 C   0  0  0  0  0  0  0  0  0  0  0  0
  -17.8715  -23.7722   18.9214 C   0  0  1  0  0  0  0  0  0  0  0  0
  -15.5774  -24.7805   21.7657 C   0  0  2  0  0  0  0  0  0  0  0  0
  -32.3745  -19.5849   19.6070 C   0  0  0  0  0  0  0  0  0  0  0  0
  -17.5530  -24.1882   17.4575 C   0  0  0  0  0  0  0  0  0  0  0  0
  -25.5706  -23.9006   23.3305 C   0  0  0  0  0  0  0  0  0  1  0  0
  -25.8078  -11.5317   20.3295 N   0  0  0  0  0  0  0  0  0  0  0  0
  -26.2085  -12.8053   20.1761 N   0  0  0  0  0  0  0  0  0  0  0  0
  -19.5617  -22.0771   19.5487 N   0  0  0  0  0  0  0  0  0  0  0  0
  -29.9490  -13.5348   20.4208 N   0  0  0  0  0  0  0  0  0  0  0  0
  -25.4767  -15.0507   20.3588 N   0  0  0  0  0  0  0  0  0  0  0  0
  -21.8325  -12.6665   21.5554 N   0  0  0  0  0  0  0  0  0  0  0  0
  -30.0790  -15.6382   21.4798 N   0  0  0  0  0  0  0  0  0  0  0  0
  -20.9113  -19.3733   17.6517 N   0  0  0  0  0  0  0  0  0  0  0  0
  -16.7604  -23.9533   19.8493 N   0  0  0  0  0  0  0  0  0  0  0  0
  -15.8710  -24.9046   23.2215 N   0  3  0  0  0  0  0  0  0  0  0  0
  -28.1086  -21.1220   22.4980 N   0  3  0  0  0  0  0  0  0  0  0  0
  -22.6488  -14.7856   21.2360 O   0  0  0  0  0  0  0  0  0  0  0  0
  -21.5414  -21.6058   17.8544 O   0  0  0  0  0  0  0  0  0  0  0  0
  -17.4935  -21.4431   18.6787 O   0  0  0  0  0  0  0  0  0  0  0  0
  -17.8710  -25.3806   21.3006 O   0  0  0  0  0  0  0  0  0  0  0  0
  -31.8612  -14.8212   20.2396 O   0  0  0  0  0  0  0  0  0  0  0  0
  -21.4625   -7.1130   21.7929 O   0  0  0  0  0  0  0  0  0  0  0  0
  -24.4887  -24.3250   22.5025 O   0  0  0  0  0  0  0  0  0  1  0  0
  -23.7817   -3.0892   24.7651 F   0  0  0  0  0  0  0  0  0  0  0  0
  -20.3659   -6.3175   24.2027 F   0  0  0  0  0  0  0  0  0  0  0  0
  1  2  1  0  0  0  0
  1  5  2  0  0  0  0
  2  6  2  0  0  0  0
  3  8  2  0  0  0  0
  3 18  1  0  0  0  0
  4  9  1  0  0  0  0
  4 18  2  0  0  0  0
  5 20  1  0  0  0  0
  6 22  1  0  0  0  0
  7 10  2  0  0  0  0
  7 21  1  0  0  0  0
  8 27  1  0  0  0  0
  9 27  2  0  0  0  0
 10 28  1  0  0  0  0
 11 12  2  0  0  0  0
 11 29  1  0  0  0  0
 12 30  1  0  0  0  0
 13 23  1  0  0  0  0
 13 28  2  0  0  0  0
 14 24  2  0  0  0  0
 14 25  1  0  0  0  0
 15 24  1  0  0  0  0
 15 26  2  0  0  0  0
 16 25  2  0  0  0  0
 16 26  1  0  0  0  0
 17 30  2  0  0  0  0
 17 31  1  0  0  0  0
 18 32  1  0  0  0  0
 19 32  1  0  0  0  0
 19 33  2  0  0  0  0
 19 34  1  0  0  0  0
 20 22  2  0  0  0  0
 20 39  1  0  0  0  0
 21 23  2  0  0  0  0
 21 40  1  0  0  0  0
 22 48  1  0  0  0  0
 23 41  1  0  0  0  0
 24 61  1  0  0  0  0
 25 66  1  0  0  0  0
 26 75  1  0  0  0  0
 27 85  1  0  0  0  0
 28 86  1  0  0  0  0
 29 31  2  0  0  0  0
 29 85  1  0  0  0  0
 30 87  1  0  0  0  0
 31 88  1  0  0  0  0
 32 69  2  0  0  0  0
 33 70  1  0  0  0  0
 33 73  1  0  0  0  0
 34 74  1  0  0  0  0
 34 80  2  0  0  0  0
 35 49  1  0  0  0  0
 35 76  1  0  0  0  0
 35 81  2  0  0  0  0
 36 64  1  0  0  0  0
 36 71  1  0  0  0  0
 36 82  2  0  0  0  0
 37 65  1  0  0  0  0
 37 77  1  0  0  0  0
 37 83  2  0  0  0  0
 38 72  1  0  0  0  0
 38 75  1  0  0  0  0
 38 84  2  0  0  0  0
 39 42  1  0  0  0  0
 40 49  1  0  0  0  0
 41 71  1  0  0  0  0
 42 44  1  0  0  0  0
 43 45  1  0  0  0  0
 43 46  1  0  0  0  0
 44 48  1  0  0  0  0
 45 50  1  0  0  0  0
 46 72  1  0  0  0  0
 47 50  1  0  0  0  0
 47 72  1  0  0  0  0
 48 76  1  0  0  0  0
 49 71  1  0  0  0  0
 50 70  1  0  0  0  0
 51 65  1  0  0  0  0
 52 66  1  0  0  0  0
 53 66  1  0  0  0  0
 54 66  1  0  0  0  0
 55 67  1  0  0  0  0
 56 67  1  0  0  0  0
 57 67  1  0  0  0  0
 58 68  1  0  0  0  0
 59 68  1  0  0  0  0
 60 78  1  0  0  0  0
 61 79  1  0  0  0  0
 62 63  1  0  0  0  0
 62 68  1  0  0  0  0
 63 79  1  0  0  0  0
 64 67  1  0  0  0  0
 64 77  1  0  0  0  0
 65 78  1  0  0  0  0
 68 86  1  0  0  0  0
 69 70  1  0  0  0  0
M  CHG  2  78   1  79   1
M  ISO  4  38 100  68 101  75 100  86 101
M  END
> <Batch ID>
0105

> <Smiles>
CNC(C)C(=O)NC(C(=O)N1Cc2cc([101O:1][101C:1](C)(C)CCNCc3cc([100NH:0][100C:0](=O)N4CCCC(n5nc(-c6ccc(Oc7ccc(F)cc7F)cc6)c(C(N)=O)c5N)C4)cc(C(C)(C)C)c3)ccc2CC1C(=O)NC1CCCc2ccccc21)C(C)(C)C

> <Shape>
0.187

> <Color>
0.189

> <Negative vol penalty>
0.000

$$$$

  -OEChem-04052319463D

 84 92  0     1  0  0  0  0  0999 V2000
  -17.0590  -30.9009   23.5508 C   0  0  0  0  0  0  0  0  0  0  0  0
  -18.3917  -31.2768   23.4175 C   0  0  0  0  0  0  0  0  0  0  0  0
  -24.2571  -13.7092   20.3461 C   0  0  0  0  0  0  0  0  0  0  0  0
  -26.3292  -13.6744   21.5879 C   0  0  0  0  0  0  0  0  0  0  0  0
  -16.7045  -29.5547   23.4738 C   0  0  0  0  0  0  0  0  0  0  0  0
  -19.3711  -30.3065   23.2082 C   0  0  0  0  0  0  0  0  0  0  0  0
  -25.6294  -29.3213   19.8646 C   0  0  0  0  0  0  0  0  0  0  0  0
  -30.2371  -26.5077   17.3105 C   0  0  0  0  0  0  0  0  0  0  0  0
  -24.3251  -12.3244   20.1937 C   0  0  0  0  0  0  0  0  0  0  0  0
  -26.3973  -12.2896   21.4356 C   0  0  0  0  0  0  0  0  0  0  0  0
  -26.9286  -28.8836   20.1178 C   0  0  0  0  0  0  0  0  0  0  0  0
  -30.0241  -25.5743   16.2962 C   0  0  0  0  0  0  0  0  0  0  0  0
  -23.6832   -9.5786   22.0596 C   0  0  0  0  0  0  0  0  0  0  0  0
  -22.5193   -8.8438   22.2851 C   0  0  0  0  0  0  0  0  0  0  0  0
  -26.1893  -26.5957   19.9230 C   0  0  0  0  0  0  0  0  0  0  0  0
  -30.6707  -24.7141   18.8701 C   0  0  0  0  0  0  0  0  0  0  0  0
  -22.6007   -8.0187   20.0157 C   0  0  0  0  0  0  0  0  0  0  0  0
  -25.2592  -14.3843   21.0431 C   0  0  0  0  0  0  0  0  0  0  0  0
  -24.5743  -16.5261   22.2478 C   0  0  0  0  0  0  0  0  0  0  0  0
  -17.6787  -28.5683   23.2538 C   0  0  0  0  0  0  0  0  0  0  0  0
  -24.5964  -28.3977   19.6491 C   0  0  0  0  0  0  0  0  0  0  0  0
  -19.0295  -28.9457   23.1295 C   0  0  0  0  0  0  0  0  0  0  0  0
  -24.8784  -27.0243   19.6647 C   0  0  0  0  0  0  0  0  0  0  0  0
  -30.5605  -26.0777   18.5975 C   0  0  0  0  0  0  0  0  0  0  0  0
  -30.4576  -23.7807   17.8558 C   0  0  0  0  0  0  0  0  0  0  0  0
  -25.3952  -11.6146   20.7385 C   0  0  0  0  0  0  0  0  0  0  0  0
  -27.2082  -27.5206   20.1499 C   0  0  0  0  0  0  0  0  0  0  0  0
  -30.1343  -24.2108   16.5688 C   0  0  0  0  0  0  0  0  0  0  0  0
  -24.3058   -9.5337   20.8122 C   0  0  0  0  0  0  0  0  0  0  0  0
  -21.9780   -8.0638   21.2631 C   0  0  0  0  0  0  0  0  0  0  0  0
  -23.7646   -8.7537   19.7903 C   0  0  0  0  0  0  0  0  0  0  0  0
  -25.1898  -15.8148   21.2004 C   0  0  0  0  0  0  0  0  0  0  0  0
  -24.7844  -17.8470   21.9358 C   0  0  0  0  0  0  0  0  0  0  0  0
  -23.8751  -16.0364   23.3998 C   0  0  0  0  0  0  0  0  0  0  0  0
  -21.8716  -27.6944   21.1271 C   0  0  0  0  0  0  0  0  0  0  0  0
  -21.4452  -25.7381   18.5751 C   0  0  0  0  0  0  0  0  0  0  0  0
  -22.8485  -23.9393   16.0370 C   0  0  0  0  0  0  0  0  0  0  0  0
  -28.9892  -20.5197   18.7684 C   0  0  0  0  0  0  0  0  0  0  0  0
  -17.2534  -27.1216   23.2251 C   0  0  0  0  0  0  0  0  0  0  0  0
  -23.2056  -28.8865   19.3507 C   0  0  0  0  0  0  0  0  0  0  0  0
  -23.8090  -25.9924   19.4195 C   0  0  0  0  0  0  0  0  0  0  0  0
  -18.3042  -26.1895   22.6272 C   0  0  0  0  0  0  0  0  0  0  0  0
  -25.4248  -20.7535   18.1874 C   0  0  0  0  0  0  0  0  0  0  0  0
  -19.6807  -26.4931   23.2101 C   0  0  0  0  0  0  0  0  0  0  0  0
  -24.9052  -19.5686   19.0037 C   0  0  0  0  0  0  0  0  0  0  0  0
  -26.7520  -20.4202   17.5124 C   0  0  0  0  0  0  0  0  0  0  0  0
  -27.3012  -18.7733   19.2617 C   0  0  0  0  0  0  0  0  0  0  0  0
  -20.1175  -27.9247   22.8767 C   0  0  1  0  0  0  0  0  0  0  0  0
  -22.1295  -27.8488   19.6549 C   0  0  1  0  0  0  0  0  0  0  0  0
  -25.9730  -19.0547   19.9875 C   0  0  2  0  0  0  0  0  0  0  0  0
  -31.9922  -27.9932   19.3800 C   0  0  0  0  0  0  0  0  0  0  0  0
  -31.6717  -21.6316   17.3369 C   0  0  0  0  0  0  0  0  0  0  0  0
  -22.2478  -22.4119   14.1386 C   0  0  0  0  0  0  0  0  0  0  0  0
  -20.9837  -23.4627   20.5549 C   0  0  0  0  0  0  0  0  0  0  0  0
  -21.3374  -21.8479   18.6746 C   0  0  0  0  0  0  0  0  0  0  0  0
  -19.4388  -23.4637   18.5883 C   0  0  0  0  0  0  0  0  0  0  0  0
  -23.9854  -25.7950   14.0314 C   0  0  0  0  0  0  0  0  0  0  0  0
  -29.5955  -23.8404   14.2823 C   0  0  0  0  0  0  0  0  0  0  0  0
  -29.5429  -27.9404   19.9795 C   0  0  0  0  0  0  0  0  0  1  0  0
  -30.7941  -27.0958   19.7025 C   0  0  1  0  0  0  0  0  0  0  0  0
  -30.5810  -22.3250   18.1648 C   0  0  2  0  0  0  0  0  0  0  0  0
  -21.7993  -24.3059   18.2549 C   0  0  1  0  0  0  0  0  0  0  0  0
  -22.5109  -23.8494   14.5597 C   0  0  2  0  0  0  0  0  0  0  0  0
  -20.9098  -23.2892   19.0247 C   0  0  0  0  0  0  0  0  0  0  0  0
  -25.7489  -16.6175   20.2909 N   0  0  0  0  0  0  0  0  0  0  0  0
  -25.4854  -17.8468   20.7658 N   0  0  0  0  0  0  0  0  0  0  0  0
  -22.4636  -26.5200   19.1384 N   0  0  0  0  0  0  0  0  0  0  0  0
  -27.7300  -19.9551   18.5061 N   0  0  0  0  0  0  0  0  0  0  0  0
  -24.4360  -18.9972   22.5507 N   0  0  0  0  0  0  0  0  0  0  0  0
  -23.7509  -14.6505   23.5669 N   0  0  0  0  0  0  0  0  0  0  0  0
  -20.5804  -28.0061   21.5079 N   0  0  0  0  0  0  0  0  0  0  0  0
  -21.7280  -24.1826   16.8030 N   0  0  0  0  0  0  0  0  0  0  0  0
  -29.3219  -21.6320   18.0050 N   0  0  0  0  0  0  0  0  0  0  0  0
  -23.6348  -24.3815   13.7383 N   0  3  0  0  0  0  0  0  0  0  0  0
  -23.3612  -16.8055   24.2472 O   0  0  0  0  0  0  0  0  0  0  0  0
  -22.7768  -27.3189   21.8629 O   0  0  0  0  0  0  0  0  0  0  0  0
  -20.3090  -26.1499   18.3277 O   0  0  0  0  0  0  0  0  0  0  0  0
  -23.9911  -23.8032   16.4687 O   0  0  0  0  0  0  0  0  0  0  0  0
  -29.7585  -20.0691   19.6241 O   0  0  0  0  0  0  0  0  0  0  0  0
  -25.4617  -10.2632   20.5902 O   0  0  0  0  0  0  0  0  0  0  0  0
  -29.9212  -23.3127   15.5664 O   0  0  0  0  0  0  0  0  0  0  0  0
  -28.4754  -27.0906   20.3975 O   0  0  0  0  0  0  0  0  0  1  0  0
  -20.8612   -7.3569   21.4802 F   0  0  0  0  0  0  0  0  0  0  0  0
  -24.3589   -8.7055   18.5902 F   0  0  0  0  0  0  0  0  0  0  0  0
  1  2  1  0  0  0  0
  1  5  2  0  0  0  0
  2  6  2  0  0  0  0
  3  9  2  0  0  0  0
  3 18  1  0  0  0  0
  4 10  1  0  0  0  0
  4 18  2  0  0  0  0
  5 20  1  0  0  0  0
  6 22  1  0  0  0  0
  7 11  2  0  0  0  0
  7 21  1  0  0  0  0
  8 12  2  0  0  0  0
  8 24  1  0  0  0  0
  9 26  1  0  0  0  0
 10 26  2  0  0  0  0
 11 27  1  0  0  0  0
 12 28  1  0  0  0  0
 13 14  2  0  0  0  0
 13 29  1  0  0  0  0
 14 30  1  0  0  0  0
 15 23  1  0  0  0  0
 15 27  2  0  0  0  0
 16 24  2  0  0  0  0
 16 25  1  0  0  0  0
 17 30  2  0  0  0  0
 17 31  1  0  0  0  0
 18 32  1  0  0  0  0
 19 32  1  0  0  0  0
 19 33  2  0  0  0  0
 19 34  1  0  0  0  0
 20 22  2  0  0  0  0
 20 39  1  0  0  0  0
 21 23  2  0  0  0  0
 21 40  1  0  0  0  0
 22 48  1  0  0  0  0
 23 41  1  0  0  0  0
 24 60  1  0  0  0  0
 25 28  2  0  0  0  0
 25 61  1  0  0  0  0
 26 80  1  0  0  0  0
 27 82  1  0  0  0  0
 28 81  1  0  0  0  0
 29 31  2  0  0  0  0
 29 80  1  0  0  0  0
 30 83  1  0  0  0  0
 31 84  1  0  0  0  0
 32 65  2  0  0  0  0
 33 66  1  0  0  0  0
 33 69  1  0  0  0  0
 34 70  1  0  0  0  0
 34 75  2  0  0  0  0
 35 49  1  0  0  0  0
 35 71  1  0  0  0  0
 35 76  2  0  0  0  0
 36 62  1  0  0  0  0
 36 67  1  0  0  0  0
 36 77  2  0  0  0  0
 37 63  1  0  0  0  0
 37 72  1  0  0  0  0
 37 78  2  0  0  0  0
 38 68  1  0  0  0  0
 38 73  1  0  0  0  0
 38 79  2  0  0  0  0
 39 42  1  0  0  0  0
 40 49  1  0  0  0  0
 41 67  1  0  0  0  0
 42 44  1  0  0  0  0
 43 45  1  0  0  0  0
 43 46  1  0  0  0  0
 44 48  1  0  0  0  0
 45 50  1  0  0  0  0
 46 68  1  0  0  0  0
 47 50  1  0  0  0  0
 47 68  1  0  0  0  0
 48 71  1  0  0  0  0
 49 67  1  0  0  0  0
 50 66  1  0  0  0  0
 51 60  1  0  0  0  0
 52 61  1  0  0  0  0
 53 63  1  0  0  0  0
 54 64  1  0  0  0  0
 55 64  1  0  0  0  0
 56 64  1  0  0  0  0
 57 74  1  0  0  0  0
 58 81  1  0  0  0  0
 59 60  1  0  0  0  0
 59 82  1  0  0  0  0
 61 73  1  0  0  0  0
 62 64  1  0  0  0  0
 62 72  1  0  0  0  0
 63 74  1  0  0  0  0
 65 66  1  0  0  0  0
M  CHG  1  74   1
M  ISO  4  38 100  59 101  73 100  82 101
M  END
> <Batch ID>
0105

> <Smiles>
CNC(C)C(=O)NC(C(=O)N1Cc2cc([101O:1][101CH2:1]C(C)c3ccc(OC)c(C(C)[100NH:0][100C:0](=O)N4CCCC(n5nc(-c6ccc(Oc7ccc(F)cc7F)cc6)c(C(N)=O)c5N)C4)c3)ccc2CC1C(=O)NC1CCCc2ccccc21)C(C)(C)C

> <Shape>
0.250

> <Color>
0.107

> <Negative vol penalty>
0.000

$$$$

  -OEChem-04052319463D

 86 94  0     1  0  0  0  0  0999 V2000
  -27.9678  -34.4497   17.7387 C   0  0  0  0  0  0  0  0  0  0  0  0
  -28.5261  -33.1780   17.8202 C   0  0  0  0  0  0  0  0  0  0  0  0
  -23.0705   -9.8979   19.8728 C   0  0  0  0  0  0  0  0  0  0  0  0
  -23.8348   -9.8344   22.1639 C   0  0  0  0  0  0  0  0  0  0  0  0
  -26.7759  -34.7304   18.4055 C   0  0  0  0  0  0  0  0  0  0  0  0
  -27.8935  -32.1867   18.5695 C   0  0  0  0  0  0  0  0  0  0  0  0
  -27.7075  -26.1917   17.3319 C   0  0  0  0  0  0  0  0  0  0  0  0
  -22.3252   -8.7389   20.0894 C   0  0  0  0  0  0  0  0  0  0  0  0
  -23.0895   -8.6754   22.3804 C   0  0  0  0  0  0  0  0  0  0  0  0
  -28.4496  -25.1121   17.8087 C   0  0  0  0  0  0  0  0  0  0  0  0
  -19.8611   -7.8651   22.9650 C   0  0  0  0  0  0  0  0  0  0  0  0
  -19.1064   -7.7910   24.1357 C   0  0  0  0  0  0  0  0  0  0  0  0
  -26.7220  -24.6466   19.4266 C   0  0  0  0  0  0  0  0  0  0  0  0
  -20.3460   -5.8302   24.8108 C   0  0  0  0  0  0  0  0  0  0  0  0
  -29.7241  -19.0490   21.3975 C   0  0  0  0  0  0  0  0  0  0  0  0
  -23.8254  -10.4456   20.9101 C   0  0  0  0  0  0  0  0  0  0  0  0
  -24.1712  -12.9727   20.8656 C   0  0  0  0  0  0  0  0  0  0  0  0
  -26.1232  -33.7393   19.1554 C   0  0  0  0  0  0  0  0  0  0  0  0
  -26.4699  -26.5141   17.9071 C   0  0  0  0  0  0  0  0  0  0  0  0
  -26.6924  -32.4548   19.2480 C   0  0  0  0  0  0  0  0  0  0  0  0
  -25.9649  -25.7293   18.9536 C   0  0  0  0  0  0  0  0  0  0  0  0
  -29.8903  -17.9741   22.2425 C   0  0  0  0  0  0  0  0  0  0  0  0
  -29.0086  -18.1556   23.3364 C   0  0  0  0  0  0  0  0  0  0  0  0
  -22.3346   -8.1277   21.3431 C   0  0  0  0  0  0  0  0  0  0  0  0
  -27.9583  -24.3411   18.8580 C   0  0  0  0  0  0  0  0  0  0  0  0
  -20.8583   -6.9216   22.7172 C   0  0  0  0  0  0  0  0  0  0  0  0
  -19.3488   -6.7737   25.0586 C   0  0  0  0  0  0  0  0  0  0  0  0
  -21.1007   -5.9042   23.6401 C   0  0  0  0  0  0  0  0  0  0  0  0
  -24.5960  -11.6425   20.6869 C   0  0  0  0  0  0  0  0  0  0  0  0
  -28.3303  -19.3359   23.1265 C   0  0  0  0  0  0  0  0  0  0  0  0
  -25.2639  -13.7310   20.5230 C   0  0  0  0  0  0  0  0  0  0  0  0
  -22.9024  -13.4777   21.3025 C   0  0  0  0  0  0  0  0  0  0  0  0
  -25.3011  -29.0376   19.4464 C   0  0  0  0  0  0  0  0  0  0  0  0
  -22.5244  -27.3698   19.2704 C   0  0  0  0  0  0  0  0  0  0  0  0
  -20.9769  -24.3444   18.9558 C   0  0  0  0  0  0  0  0  0  0  0  0
  -30.7498  -14.7350   20.7311 C   0  0  0  0  0  0  0  0  0  0  0  0
  -24.8616  -34.1033   19.8974 C   0  0  0  0  0  0  0  0  0  0  0  0
  -25.6692  -27.6656   17.3636 C   0  0  0  0  0  0  0  0  0  0  0  0
  -24.6323  -26.0213   19.5920 C   0  0  0  0  0  0  0  0  0  0  0  0
  -24.0583  -32.8919   20.3637 C   0  0  0  0  0  0  0  0  0  0  0  0
  -29.6035  -12.4254   18.2757 C   0  0  0  0  0  0  0  0  0  0  0  0
  -24.9744  -31.8650   21.0217 C   0  0  0  0  0  0  0  0  0  0  0  0
  -28.1664  -12.1211   18.7024 C   0  0  0  0  0  0  0  0  0  0  0  0
  -30.5233  -12.6084   19.4809 C   0  0  0  0  0  0  0  0  0  0  0  0
  -28.6255  -13.3004   20.8927 C   0  0  0  0  0  0  0  0  0  0  0  0
  -26.0230  -31.3459   20.0305 C   0  0  1  0  0  0  0  0  0  0  0  0
  -24.6584  -28.2159   18.3650 C   0  0  1  0  0  0  0  0  0  0  0  0
  -27.6488  -13.1630   19.7123 C   0  0  2  0  0  0  0  0  0  0  0  0
  -27.2974  -20.0047   23.9473 C   0  0  0  0  0  0  0  0  0  0  0  0
  -18.6984  -23.2953   18.8838 C   0  0  0  0  0  0  0  0  0  0  0  0
  -27.6138  -20.9133   19.9705 C   0  0  0  0  0  0  0  0  0  0  0  0
  -29.3427  -15.6776   26.1122 C   0  0  0  0  0  0  0  0  0  0  0  0
  -31.0770  -17.3500   25.3765 C   0  0  0  0  0  0  0  0  0  0  0  0
  -22.2779  -27.7036   22.2933 C   0  0  0  0  0  0  0  0  0  0  0  0
  -20.5616  -25.8808   22.2846 C   0  0  0  0  0  0  0  0  0  0  0  0
  -20.1375  -27.9968   21.0334 C   0  0  0  0  0  0  0  0  0  0  0  0
  -21.4185  -23.2961   16.2236 C   0  0  0  0  0  0  0  0  0  0  0  0
  -30.8216  -16.8471   22.0322 C   0  0  0  0  0  0  0  0  0  0  0  0
  -29.4555  -22.1818   21.2084 C   0  0  0  0  0  0  0  0  0  0  0  0
  -21.8339  -26.3481   20.1412 C   0  0  1  0  0  0  0  0  0  0  0  0
  -19.8370  -23.8838   18.0653 C   0  0  2  0  0  0  0  0  0  0  0  0
  -28.2959  -21.1723   21.3201 C   0  0  2  0  0  0  0  0  0  0  0  0
  -29.9087  -16.4751   24.9462 C   0  0  0  0  0  0  0  0  0  0  0  0
  -21.2288  -26.9777   21.4276 C   0  0  0  0  0  0  0  0  0  0  0  0
  -25.8598  -11.5572   20.2634 N   0  0  0  0  0  0  0  0  0  0  0  0
  -28.7731  -19.8702   21.9447 N   0  0  0  0  0  0  0  0  0  0  0  0
  -26.2387  -12.8435   20.1731 N   0  0  0  0  0  0  0  0  0  0  0  0
  -23.8898  -27.1615   19.0297 N   0  0  0  0  0  0  0  0  0  0  0  0
  -29.9762  -13.6106   20.3986 N   0  0  0  0  0  0  0  0  0  0  0  0
  -25.4765  -15.0637   20.4898 N   0  0  0  0  0  0  0  0  0  0  0  0
  -21.8897  -12.5604   21.6142 N   0  0  0  0  0  0  0  0  0  0  0  0
  -28.8562  -17.3283   24.3932 N   0  0  0  0  0  0  0  0  0  0  0  0
  -25.4332  -30.3767   19.1321 N   0  0  0  0  0  0  0  0  0  0  0  0
  -20.8586  -25.6773   19.2885 N   0  0  0  0  0  0  0  0  0  0  0  0
  -30.1538  -15.6389   21.6019 N   0  0  0  0  0  0  0  0  0  0  0  0
  -28.9981  -23.4822   20.7402 N   0  0  0  0  0  0  0  0  0  1  0  0
  -20.3140  -22.8453   17.1088 N   0  3  0  0  0  0  0  0  0  0  0  0
  -22.6684  -14.7064   21.3974 O   0  0  0  0  0  0  0  0  0  0  0  0
  -25.6498  -28.4970   20.4894 O   0  0  0  0  0  0  0  0  0  0  0  0
  -21.8745  -28.3140   18.8145 O   0  0  0  0  0  0  0  0  0  0  0  0
  -21.8798  -23.5957   19.3228 O   0  0  0  0  0  0  0  0  0  0  0  0
  -31.8851  -14.9222   20.2807 O   0  0  0  0  0  0  0  0  0  0  0  0
  -21.6072   -6.9969   21.5548 O   0  0  0  0  0  0  0  0  0  0  0  0
  -28.6810  -23.2871   19.3257 O   0  0  0  0  0  0  0  0  0  1  0  0
  -18.6250   -6.7036   26.1835 F   0  0  0  0  0  0  0  0  0  0  0  0
  -22.0581   -4.9957   23.4081 F   0  0  0  0  0  0  0  0  0  0  0  0
  1  2  1  0  0  0  0
  1  5  2  0  0  0  0
  2  6  2  0  0  0  0
  3  8  2  0  0  0  0
  3 16  1  0  0  0  0
  4  9  1  0  0  0  0
  4 16  2  0  0  0  0
  5 18  1  0  0  0  0
  6 20  1  0  0  0  0
  7 10  2  0  0  0  0
  7 19  1  0  0  0  0
  8 24  1  0  0  0  0
  9 24  2  0  0  0  0
 10 25  1  0  0  0  0
 11 12  2  0  0  0  0
 11 26  1  0  0  0  0
 12 27  1  0  0  0  0
 13 21  1  0  0  0  0
 13 25  2  0  0  0  0
 14 27  2  0  0  0  0
 14 28  1  0  0  0  0
 15 22  2  0  0  0  0
 15 66  1  0  0  0  0
 16 29  1  0  0  0  0
 17 29  1  0  0  0  0
 17 31  2  0  0  0  0
 17 32  1  0  0  0  0
 18 20  2  0  0  0  0
 18 37  1  0  0  0  0
 19 21  2  0  0  0  0
 19 38  1  0  0  0  0
 20 46  1  0  0  0  0
 21 39  1  0  0  0  0
 22 23  1  0  0  0  0
 22 58  1  0  0  0  0
 23 30  2  0  0  0  0
 23 72  1  0  0  0  0
 24 83  1  0  0  0  0
 25 84  1  0  0  0  0
 26 28  2  0  0  0  0
 26 83  1  0  0  0  0
 27 85  1  0  0  0  0
 28 86  1  0  0  0  0
 29 65  2  0  0  0  0
 30 49  1  0  0  0  0
 30 66  1  0  0  0  0
 31 67  1  0  0  0  0
 31 70  1  0  0  0  0
 32 71  1  0  0  0  0
 32 78  2  0  0  0  0
 33 47  1  0  0  0  0
 33 73  1  0  0  0  0
 33 79  2  0  0  0  0
 34 60  1  0  0  0  0
 34 68  1  0  0  0  0
 34 80  2  0  0  0  0
 35 61  1  0  0  0  0
 35 74  1  0  0  0  0
 35 81  2  0  0  0  0
 36 69  1  0  0  0  0
 36 75  1  0  0  0  0
 36 82  2  0  0  0  0
 37 40  1  0  0  0  0
 38 47  1  0  0  0  0
 39 68  1  0  0  0  0
 40 42  1  0  0  0  0
 41 43  1  0  0  0  0
 41 44  1  0  0  0  0
 42 46  1  0  0  0  0
 43 48  1  0  0  0  0
 44 69  1  0  0  0  0
 45 48  1  0  0  0  0
 45 69  1  0  0  0  0
 46 73  1  0  0  0  0
 47 68  1  0  0  0  0
 48 67  1  0  0  0  0
 50 61  1  0  0  0  0
 51 62  1  0  0  0  0
 52 63  1  0  0  0  0
 53 63  1  0  0  0  0
 54 64  1  0  0  0  0
 55 64  1  0  0  0  0
 56 64  1  0  0  0  0
 57 77  1  0  0  0  0
 58 75  1  0  0  0  0
 59 62  1  0  0  0  0
 59 76  1  0  0  0  0
 60 64  1  0  0  0  0
 60 74  1  0  0  0  0
 61 77  1  0  0  0  0
 62 66  1  0  0  0  0
 63 72  1  0  0  0  0
 65 67  1  0  0  0  0
 76 84  1  0  0  0  0
M  CHG  1  77   1
M  ISO  4  36 100  75 100  76 101  84 101
M  END
> <Batch ID>
0105

> <Smiles>
CNC(C)C(=O)NC(C(=O)N1Cc2cc([101O:1][101NH:1]CC(C)n3cc(C[100NH:0][100C:0](=O)N4CCCC(n5nc(-c6ccc(Oc7ccc(F)cc7F)cc6)c(C(N)=O)c5N)C4)c(NC(C)C)c3C)ccc2CC1C(=O)NC1CCCc2ccccc21)C(C)(C)C

> <Shape>
0.287

> <Color>
0.195

> <Negative vol penalty>
0.000

$$$$

  -OEChem-04052319463D

 80 87  0     1  0  0  0  0  0999 V2000
  -23.6033  -19.0867   21.1739 C   0  0  0  0  0  0  0  0  0  0  0  0
  -24.6775  -19.8468   20.7226 C   0  0  0  0  0  0  0  0  0  0  0  0
  -26.1139  -12.8231   19.5677 C   0  0  0  0  0  0  0  0  0  0  0  0
  -25.5487  -14.3581   21.3458 C   0  0  0  0  0  0  0  0  0  0  0  0
  -22.3641  -19.6897   21.3853 C   0  0  0  0  0  0  0  0  0  0  0  0
  -24.5128  -21.2103   20.4814 C   0  0  0  0  0  0  0  0  0  0  0  0
  -28.3167  -23.9861   22.3441 C   0  0  0  0  0  0  0  0  0  0  0  0
  -24.9411  -12.1087   19.8117 C   0  0  0  0  0  0  0  0  0  0  0  0
  -24.3758  -13.6437   21.5897 C   0  0  0  0  0  0  0  0  0  0  0  0
  -29.5051  -24.0081   21.6154 C   0  0  0  0  0  0  0  0  0  0  0  0
  -23.8364   -9.8216   22.0417 C   0  0  0  0  0  0  0  0  0  0  0  0
  -23.9230   -8.4301   22.0844 C   0  0  0  0  0  0  0  0  0  0  0  0
  -28.8891  -26.1476   20.6868 C   0  0  0  0  0  0  0  0  0  0  0  0
  -22.3603   -8.2765   20.2482 C   0  0  0  0  0  0  0  0  0  0  0  0
  -26.4178  -13.9479   20.3348 C   0  0  0  0  0  0  0  0  0  0  0  0
  -28.9498  -14.2034   20.1585 C   0  0  0  0  0  0  0  0  0  0  0  0
  -22.1866  -21.0632   21.1558 C   0  0  0  0  0  0  0  0  0  0  0  0
  -27.3990  -25.0414   22.2410 C   0  0  0  0  0  0  0  0  0  0  0  0
  -23.2697  -21.8320   20.6886 C   0  0  0  0  0  0  0  0  0  0  0  0
  -27.6910  -26.1378   21.4172 C   0  0  0  0  0  0  0  0  0  0  0  0
  -24.0720  -12.5189   20.8226 C   0  0  0  0  0  0  0  0  0  0  0  0
  -29.7902  -25.0876   20.7844 C   0  0  0  0  0  0  0  0  0  0  0  0
  -23.0116  -10.4406   21.1024 C   0  0  0  0  0  0  0  0  0  0  0  0
  -23.1850   -7.6575   21.1877 C   0  0  0  0  0  0  0  0  0  0  0  0
  -22.2737   -9.6680   20.2056 C   0  0  0  0  0  0  0  0  0  0  0  0
  -27.6295  -14.6860   20.0837 C   0  0  0  0  0  0  0  0  0  0  0  0
  -29.7300  -15.2857   19.8323 C   0  0  0  0  0  0  0  0  0  0  0  0
  -29.4283  -12.8938   20.4928 C   0  0  0  0  0  0  0  0  0  0  0  0
  -24.3874  -25.3073   21.2596 C   0  0  0  0  0  0  0  0  0  0  0  0
  -24.7101  -28.3453   22.3499 C   0  0  0  0  0  0  0  0  0  0  0  0
  -28.5315  -20.1104   16.5825 C   0  0  0  0  0  0  0  0  0  0  0  0
  -26.7860  -30.9443   23.1133 C   0  0  0  0  0  0  0  0  0  0  0  0
  -20.8161  -21.6610   21.3533 C   0  0  0  0  0  0  0  0  0  0  0  0
  -26.1339  -25.0151   23.0542 C   0  0  0  0  0  0  0  0  0  0  0  0
  -26.7483  -27.3052   21.2871 C   0  0  0  0  0  0  0  0  0  0  0  0
  -20.8223  -23.1855   21.4322 C   0  0  0  0  0  0  0  0  0  0  0  0
  -29.7817  -20.0600   19.9974 C   0  0  0  0  0  0  0  0  0  0  0  0
  -21.6781  -23.7744   20.3152 C   0  0  0  0  0  0  0  0  0  0  0  0
  -29.4605  -18.6269   20.4193 C   0  0  0  0  0  0  0  0  0  0  0  0
  -28.7122  -20.6238   19.0655 C   0  0  0  0  0  0  0  0  0  0  0  0
  -28.1413  -18.3490   18.2756 C   0  0  0  0  0  0  0  0  0  0  0  0
  -23.1370  -23.3187   20.4393 C   0  0  1  0  0  0  0  0  0  0  0  0
  -25.0347  -25.9024   22.4780 C   0  0  1  0  0  0  0  0  0  0  0  0
  -29.2116  -17.7328   19.1920 C   0  0  2  0  0  0  0  0  0  0  0  0
  -27.4774  -33.1931   23.9864 C   0  0  0  0  0  0  0  0  0  0  0  0
  -31.9313  -25.8727   16.5032 C   0  0  0  0  0  0  0  0  0  0  0  0
  -28.8450  -21.7387   14.7755 C   0  0  0  0  0  0  0  0  0  0  0  0
  -23.7670  -29.2962   19.6083 C   0  0  0  0  0  0  0  0  0  0  0  0
  -24.6503  -31.5704   20.1705 C   0  0  0  0  0  0  0  0  0  0  0  0
  -22.8183  -30.5726   21.5384 C   0  0  0  0  0  0  0  0  0  0  0  0
  -27.2025  -29.8846   25.8451 C   0  0  0  0  0  0  0  0  0  0  0  0
  -31.7491  -23.6531   17.7321 C   0  0  0  0  0  0  0  0  0  0  0  0
  -30.2279  -21.8517   16.9076 C   0  0  0  0  0  0  0  0  0  0  0  0
  -30.9300  -25.8030   18.8235 C   0  0  0  0  0  0  0  0  0  1  0  0
  -27.7103  -22.3990   16.9152 C   0  0  0  0  0  0  0  0  0  0  0  0
  -25.1643  -29.6539   21.7497 C   0  0  1  0  0  0  0  0  0  0  0  0
  -26.8666  -31.8442   24.3332 C   0  0  2  0  0  0  0  0  0  0  0  0
  -31.9444  -25.1679   17.8643 C   0  0  2  0  0  0  0  0  0  0  0  0
  -28.8444  -21.5584   16.3009 C   0  0  2  0  0  0  0  0  0  0  0  0
  -24.1170  -30.2506   20.7675 C   0  0  0  0  0  0  0  0  0  0  0  0
  -27.5704  -15.9746   19.7374 N   0  0  0  0  0  0  0  0  0  0  0  0
  -28.8633  -16.3109   19.5917 N   0  0  0  0  0  0  0  0  0  0  0  0
  -25.5214  -27.2300   22.0975 N   0  0  0  0  0  0  0  0  0  0  0  0
  -28.4851  -19.7297   17.9238 N   0  0  0  0  0  0  0  0  0  0  0  0
  -31.0660  -15.4509   19.7308 N   0  0  0  0  0  0  0  0  0  0  0  0
  -29.7016  -12.6053   21.8368 N   0  0  0  0  0  0  0  0  0  0  0  0
  -23.8143  -24.0685   21.4754 N   0  0  0  0  0  0  0  0  0  0  0  0
  -25.4947  -30.5250   22.8724 N   0  0  0  0  0  0  0  0  0  0  0  0
  -27.7012  -31.2085   25.3916 N   0  3  0  0  0  0  0  0  0  0  0  0
  -30.4510  -23.3107   17.1038 N   0  3  0  0  0  0  0  0  0  0  0  0
  -29.6238  -12.0110   19.6234 O   0  0  0  0  0  0  0  0  0  0  0  0
  -24.4052  -25.9268   20.2025 O   0  0  0  0  0  0  0  0  0  0  0  0
  -23.6774  -28.3152   23.0239 O   0  0  0  0  0  0  0  0  0  0  0  0
  -28.3372  -19.3416   15.6373 O   0  0  0  0  0  0  0  0  0  0  0  0
  -27.7695  -30.6462   22.4393 O   0  0  0  0  0  0  0  0  0  0  0  0
  -26.4558  -22.0538   16.3394 O   0  0  0  0  0  0  0  0  0  0  0  0
  -22.9273  -11.8222   21.0607 O   0  0  0  0  0  0  0  0  0  0  0  0
  -30.9491  -25.1113   20.0715 O   0  0  0  0  0  0  0  0  0  1  0  0
  -23.2696   -6.3214   21.2278 F   0  0  0  0  0  0  0  0  0  0  0  0
  -21.4806  -10.2570   19.3001 F   0  0  0  0  0  0  0  0  0  0  0  0
  1  2  1  0  0  0  0
  1  5  2  0  0  0  0
  2  6  2  0  0  0  0
  3  8  2  0  0  0  0
  3 15  1  0  0  0  0
  4  9  1  0  0  0  0
  4 15  2  0  0  0  0
  5 17  1  0  0  0  0
  6 19  1  0  0  0  0
  7 10  2  0  0  0  0
  7 18  1  0  0  0  0
  8 21  1  0  0  0  0
  9 21  2  0  0  0  0
 10 22  1  0  0  0  0
 11 12  2  0  0  0  0
 11 23  1  0  0  0  0
 12 24  1  0  0  0  0
 13 20  1  0  0  0  0
 13 22  2  0  0  0  0
 14 24  2  0  0  0  0
 14 25  1  0  0  0  0
 15 26  1  0  0  0  0
 16 26  1  0  0  0  0
 16 27  2  0  0  0  0
 16 28  1  0  0  0  0
 17 19  2  0  0  0  0
 17 33  1  0  0  0  0
 18 20  2  0  0  0  0
 18 34  1  0  0  0  0
 19 42  1  0  0  0  0
 20 35  1  0  0  0  0
 21 77  1  0  0  0  0
 22 78  1  0  0  0  0
 23 25  2  0  0  0  0
 23 77  1  0  0  0  0
 24 79  1  0  0  0  0
 25 80  1  0  0  0  0
 26 61  2  0  0  0  0
 27 62  1  0  0  0  0
 27 65  1  0  0  0  0
 28 66  1  0  0  0  0
 28 71  2  0  0  0  0
 29 43  1  0  0  0  0
 29 67  1  0  0  0  0
 29 72  2  0  0  0  0
 30 56  1  0  0  0  0
 30 63  1  0  0  0  0
 30 73  2  0  0  0  0
 31 59  1  0  0  0  0
 31 64  1  0  0  0  0
 31 74  2  0  0  0  0
 32 57  1  0  0  0  0
 32 68  1  0  0  0  0
 32 75  2  0  0  0  0
 33 36  1  0  0  0  0
 34 43  1  0  0  0  0
 35 63  1  0  0  0  0
 36 38  1  0  0  0  0
 37 39  1  0  0  0  0
 37 40  1  0  0  0  0
 38 42  1  0  0  0  0
 39 44  1  0  0  0  0
 40 64  1  0  0  0  0
 41 44  1  0  0  0  0
 41 64  1  0  0  0  0
 42 67  1  0  0  0  0
 43 63  1  0  0  0  0
 44 62  1  0  0  0  0
 45 57  1  0  0  0  0
 46 58  1  0  0  0  0
 47 59  1  0  0  0  0
 48 60  1  0  0  0  0
 49 60  1  0  0  0  0
 50 60  1  0  0  0  0
 51 69  1  0  0  0  0
 52 58  1  0  0  0  0
 52 70  1  0  0  0  0
 53 59  1  0  0  0  0
 53 70  1  0  0  0  0
 54 58  1  0  0  0  0
 54 78  1  0  0  0  0
 55 59  1  0  0  0  0
 55 76  1  0  0  0  0
 56 60  1  0  0  0  0
 56 68  1  0  0  0  0
 57 69  1  0  0  0  0
 61 62  1  0  0  0  0
M  CHG  2  69   1  70   1
M  ISO  4  31 100  54 101  59 100  78 101
M  END
> <Batch ID>
0105

> <Smiles>
CNC(C)C(=O)NC(C(=O)N1Cc2cc([101O:1][101CH2:1]C(C)CNC[100C:0](C)(CO)[100C:0](=O)N3CCCC(n4nc(-c5ccc(Oc6ccc(F)cc6F)cc5)c(C(N)=O)c4N)C3)ccc2CC1C(=O)NC1CCCc2ccccc21)C(C)(C)C

> <Shape>
0.262

> <Color>
0.060

> <Negative vol penalty>
0.000

$$$$

  -OEChem-04052319463D

 85 93  0     1  0  0  0  0  0999 V2000
  -16.8458  -26.1414   22.4216 C   0  0  0  0  0  0  0  0  0  0  0  0
  -18.1057  -25.6352   22.1186 C   0  0  0  0  0  0  0  0  0  0  0  0
  -24.2775  -13.6693   24.1353 C   0  0  0  0  0  0  0  0  0  0  0  0
  -23.6968  -15.5415   22.7229 C   0  0  0  0  0  0  0  0  0  0  0  0
  -16.7167  -27.4418   22.9077 C   0  0  0  0  0  0  0  0  0  0  0  0
  -19.2372  -26.4296   22.3003 C   0  0  0  0  0  0  0  0  0  0  0  0
  -23.0248  -23.9306   24.5484 C   0  0  0  0  0  0  0  0  0  0  0  0
  -29.8116  -18.7693   19.4293 C   0  0  0  0  0  0  0  0  0  0  0  0
  -23.7295  -14.3291   25.2352 C   0  0  0  0  0  0  0  0  0  0  0  0
  -23.1488  -16.2013   23.8229 C   0  0  0  0  0  0  0  0  0  0  0  0
  -23.7721  -23.0601   23.7561 C   0  0  0  0  0  0  0  0  0  0  0  0
  -29.0395  -19.4920   20.3389 C   0  0  0  0  0  0  0  0  0  0  0  0
  -21.9195  -18.5316   26.3266 C   0  0  0  0  0  0  0  0  0  0  0  0
  -22.2284  -19.8816   26.4929 C   0  0  0  0  0  0  0  0  0  0  0  0
  -25.4940  -24.7368   23.5487 C   0  0  0  0  0  0  0  0  0  0  0  0
  -27.7461  -20.4062   18.5145 C   0  0  0  0  0  0  0  0  0  0  0  0
  -24.5750  -19.3262   26.6421 C   0  0  0  0  0  0  0  0  0  0  0  0
  -24.2612  -14.2755   22.8791 C   0  0  0  0  0  0  0  0  0  0  0  0
  -24.1661  -12.7223   20.8577 C   0  0  0  0  0  0  0  0  0  0  0  0
  -17.8481  -28.2492   23.1046 C   0  0  0  0  0  0  0  0  0  0  0  0
  -23.5024  -25.2168   24.8382 C   0  0  0  0  0  0  0  0  0  0  0  0
  -19.1230  -27.7425   22.7881 C   0  0  0  0  0  0  0  0  0  0  0  0
  -24.7521  -25.6207   24.3470 C   0  0  0  0  0  0  0  0  0  0  0  0
  -29.5510  -18.8651   18.0624 C   0  0  0  0  0  0  0  0  0  0  0  0
  -28.5182  -19.6835   17.6049 C   0  0  0  0  0  0  0  0  0  0  0  0
  -23.1651  -15.5950   25.0791 C   0  0  0  0  0  0  0  0  0  0  0  0
  -25.0055  -23.4642   23.2537 C   0  0  0  0  0  0  0  0  0  0  0  0
  -28.0067  -20.3104   19.8814 C   0  0  0  0  0  0  0  0  0  0  0  0
  -22.9383  -17.5789   26.3181 C   0  0  0  0  0  0  0  0  0  0  0  0
  -23.5562  -20.2789   26.6506 C   0  0  0  0  0  0  0  0  0  0  0  0
  -24.2660  -17.9762   26.4759 C   0  0  0  0  0  0  0  0  0  0  0  0
  -24.8277  -13.5947   21.7425 C   0  0  0  0  0  0  0  0  0  0  0  0
  -25.1341  -12.3456   19.9590 C   0  0  0  0  0  0  0  0  0  0  0  0
  -22.7988  -12.2909   20.8489 C   0  0  0  0  0  0  0  0  0  0  0  0
  -22.4912  -28.1714   24.2457 C   0  0  0  0  0  0  0  0  0  0  0  0
  -24.9935  -28.9901   26.1405 C   0  0  0  0  0  0  0  0  0  0  0  0
  -28.0363  -28.1569   27.4420 C   0  0  0  0  0  0  0  0  0  0  0  0
  -30.2164  -14.9233   18.1214 C   0  0  0  0  0  0  0  0  0  0  0  0
  -17.6545  -29.6649   23.5874 C   0  0  0  0  0  0  0  0  0  0  0  0
  -22.6965  -26.1341   25.7165 C   0  0  0  0  0  0  0  0  0  0  0  0
  -25.3188  -26.9837   24.6459 C   0  0  0  0  0  0  0  0  0  0  0  0
  -18.9360  -30.3122   24.1059 C   0  0  0  0  0  0  0  0  0  0  0  0
  -29.8613  -11.7028   19.5975 C   0  0  0  0  0  0  0  0  0  0  0  0
  -20.0887  -30.0643   23.1381 C   0  0  0  0  0  0  0  0  0  0  0  0
  -28.4713  -11.7438   20.2348 C   0  0  0  0  0  0  0  0  0  0  0  0
  -30.5709  -13.0508   19.7039 C   0  0  0  0  0  0  0  0  0  0  0  0
  -28.4143  -14.2382   19.8183 C   0  0  0  0  0  0  0  0  0  0  0  0
  -20.3764  -28.5649   22.9952 C   0  0  1  0  0  0  0  0  0  0  0  0
  -23.0459  -27.6064   25.5227 C   0  0  1  0  0  0  0  0  0  0  0  0
  -27.6373  -12.9171   19.6862 C   0  0  2  0  0  0  0  0  0  0  0  0
  -28.4177  -21.2373   15.6227 C   0  0  0  0  0  0  0  0  0  0  0  0
  -26.8085  -19.3042   15.7919 C   0  0  0  0  0  0  0  0  0  0  0  0
  -29.8531  -29.0446   28.9282 C   0  0  0  0  0  0  0  0  0  0  0  0
  -25.9385  -30.8195   23.8888 C   0  0  0  0  0  0  0  0  0  0  0  0
  -28.1750  -30.9272   25.0089 C   0  0  0  0  0  0  0  0  0  0  0  0
  -26.1513  -31.7930   26.1826 C   0  0  0  0  0  0  0  0  0  0  0  0
  -27.7038  -25.9362   29.3699 C   0  0  0  0  0  0  0  0  0  0  0  0
  -30.3911  -18.0819   17.1079 C   0  0  0  0  0  0  0  0  0  0  0  0
  -29.7081  -16.8106   16.5920 C   0  0  0  0  0  0  0  0  0  0  0  0
  -26.5841  -23.2054   21.4938 C   0  0  0  0  0  0  0  0  0  1  0  0
  -26.7103  -22.2557   20.3184 C   0  0  0  0  0  0  0  0  0  0  0  0
  -28.2215  -19.8027   16.1461 C   0  0  0  0  0  0  0  0  0  0  0  0
  -26.4534  -29.2977   25.9099 C   0  0  1  0  0  0  0  0  0  0  0  0
  -28.5772  -28.2199   28.8590 C   0  0  2  0  0  0  0  0  0  0  0  0
  -26.6682  -30.6843   25.2401 C   0  0  0  0  0  0  0  0  0  0  0  0
  -26.1164  -13.7624   21.4340 N   0  0  0  0  0  0  0  0  0  0  0  0
  -26.2723  -12.9900   20.3453 N   0  0  0  0  0  0  0  0  0  0  0  0
  -24.4903  -27.8467   25.5040 N   0  0  0  0  0  0  0  0  0  0  0  0
  -29.7275  -14.1205   19.1652 N   0  0  0  0  0  0  0  0  0  0  0  0
  -25.1141  -11.5294   18.8840 N   0  0  0  0  0  0  0  0  0  0  0  0
  -21.9392  -12.7745   21.8446 N   0  0  0  0  0  0  0  0  0  0  0  0
  -21.1163  -28.0809   24.1410 N   0  0  0  0  0  0  0  0  0  0  0  0
  -27.1108  -29.1509   27.2040 N   0  0  0  0  0  0  0  0  0  0  0  0
  -29.3506  -15.9097   17.6650 N   0  0  0  0  0  0  0  0  0  0  0  0
  -28.8761  -26.8488   29.3607 N   0  3  0  0  0  0  0  0  0  0  0  0
  -22.3565  -11.4872   19.9933 O   0  0  0  0  0  0  0  0  0  0  0  0
  -23.2539  -28.6551   23.4175 O   0  0  0  0  0  0  0  0  0  0  0  0
  -24.3261  -29.7329   26.8647 O   0  0  0  0  0  0  0  0  0  0  0  0
  -28.4013  -27.3129   26.6266 O   0  0  0  0  0  0  0  0  0  0  0  0
  -31.3390  -14.7687   17.6287 O   0  0  0  0  0  0  0  0  0  0  0  0
  -22.6301  -16.2391   26.1522 O   0  0  0  0  0  0  0  0  0  0  0  0
  -25.7366  -22.6168   22.4796 O   0  0  0  0  0  0  0  0  0  1  0  0
  -27.2486  -21.0207   20.7747 O   0  0  0  0  0  0  0  0  0  0  0  0
  -23.8528  -21.5755   26.8087 F   0  0  0  0  0  0  0  0  0  0  0  0
  -25.2492  -17.0656   26.4674 F   0  0  0  0  0  0  0  0  0  0  0  0
  1  2  1  0  0  0  0
  1  5  2  0  0  0  0
  2  6  2  0  0  0  0
  3  9  2  0  0  0  0
  3 18  1  0  0  0  0
  4 10  1  0  0  0  0
  4 18  2  0  0  0  0
  5 20  1  0  0  0  0
  6 22  1  0  0  0  0
  7 11  2  0  0  0  0
  7 21  1  0  0  0  0
  8 12  2  0  0  0  0
  8 24  1  0  0  0  0
  9 26  1  0  0  0  0
 10 26  2  0  0  0  0
 11 27  1  0  0  0  0
 12 28  1  0  0  0  0
 13 14  2  0  0  0  0
 13 29  1  0  0  0  0
 14 30  1  0  0  0  0
 15 23  1  0  0  0  0
 15 27  2  0  0  0  0
 16 25  1  0  0  0  0
 16 28  2  0  0  0  0
 17 30  2  0  0  0  0
 17 31  1  0  0  0  0
 18 32  1  0  0  0  0
 19 32  1  0  0  0  0
 19 33  2  0  0  0  0
 19 34  1  0  0  0  0
 20 22  2  0  0  0  0
 20 39  1  0  0  0  0
 21 23  2  0  0  0  0
 21 40  1  0  0  0  0
 22 48  1  0  0  0  0
 23 41  1  0  0  0  0
 24 25  2  0  0  0  0
 24 58  1  0  0  0  0
 25 62  1  0  0  0  0
 26 81  1  0  0  0  0
 27 82  1  0  0  0  0
 28 83  1  0  0  0  0
 29 31  2  0  0  0  0
 29 81  1  0  0  0  0
 30 84  1  0  0  0  0
 31 85  1  0  0  0  0
 32 66  2  0  0  0  0
 33 67  1  0  0  0  0
 33 70  1  0  0  0  0
 34 71  1  0  0  0  0
 34 76  2  0  0  0  0
 35 49  1  0  0  0  0
 35 72  1  0  0  0  0
 35 77  2  0  0  0  0
 36 63  1  0  0  0  0
 36 68  1  0  0  0  0
 36 78  2  0  0  0  0
 37 64  1  0  0  0  0
 37 73  1  0  0  0  0
 37 79  2  0  0  0  0
 38 69  1  0  0  0  0
 38 74  1  0  0  0  0
 38 80  2  0  0  0  0
 39 42  1  0  0  0  0
 40 49  1  0  0  0  0
 41 68  1  0  0  0  0
 42 44  1  0  0  0  0
 43 45  1  0  0  0  0
 43 46  1  0  0  0  0
 44 48  1  0  0  0  0
 45 50  1  0  0  0  0
 46 69  1  0  0  0  0
 47 50  1  0  0  0  0
 47 69  1  0  0  0  0
 48 72  1  0  0  0  0
 49 68  1  0  0  0  0
 50 67  1  0  0  0  0
 51 62  1  0  0  0  0
 52 62  1  0  0  0  0
 53 64  1  0  0  0  0
 54 65  1  0  0  0  0
 55 65  1  0  0  0  0
 56 65  1  0  0  0  0
 57 75  1  0  0  0  0
 58 59  1  0  0  0  0
 59 74  1  0  0  0  0
 60 61  1  0  0  0  0
 60 82  1  0  0  0  0
 61 83  1  0  0  0  0
 63 65  1  0  0  0  0
 63 73  1  0  0  0  0
 64 75  1  0  0  0  0
 66 67  1  0  0  0  0
M  CHG  1  75   1
M  ISO  4  38 100  60 101  74 100  82 101
M  END
> <Batch ID>
0105

> <Smiles>
CNC(C)C(=O)NC(C(=O)N1Cc2cc([101O:1][101CH2:1]COc3ccc(CC[100NH:0][100C:0](=O)N4CCCC(n5nc(-c6ccc(Oc7ccc(F)cc7F)cc6)c(C(N)=O)c5N)C4)c(C(C)C)c3)ccc2CC1C(=O)NC1CCCc2ccccc21)C(C)(C)C

> <Shape>
0.209

> <Color>
0.095

> <Negative vol penalty>
0.000

$$$$

  -OEChem-04052319463D

 87 95  0     1  0  0  0  0  0999 V2000
  -20.3666  -31.2198   25.0865 C   0  0  0  0  0  0  0  0  0  0  0  0
  -21.2826  -30.2025   25.3345 C   0  0  0  0  0  0  0  0  0  0  0  0
  -31.2336  -22.2238   21.6554 C   0  0  0  0  0  0  0  0  0  0  0  0
  -29.0362  -22.0436   20.6674 C   0  0  0  0  0  0  0  0  0  0  0  0
  -19.3618  -31.0356   24.1377 C   0  0  0  0  0  0  0  0  0  0  0  0
  -21.1935  -28.9998   24.6345 C   0  0  0  0  0  0  0  0  0  0  0  0
  -25.3053  -23.7775   21.9630 C   0  0  0  0  0  0  0  0  0  0  0  0
  -31.4400  -23.4251   20.9773 C   0  0  0  0  0  0  0  0  0  0  0  0
  -29.2426  -23.2449   19.9893 C   0  0  0  0  0  0  0  0  0  0  0  0
  -25.4318  -22.3892   21.9835 C   0  0  0  0  0  0  0  0  0  0  0  0
  -29.0489  -26.4474   18.2791 C   0  0  0  0  0  0  0  0  0  0  0  0
  -28.0115  -27.3798   18.2796 C   0  0  0  0  0  0  0  0  0  0  0  0
  -23.7026  -22.2130   20.3107 C   0  0  0  0  0  0  0  0  0  0  0  0
  -24.4244  -13.1501   21.5878 C   0  0  0  0  0  0  0  0  0  0  0  0
  -28.1063  -27.4838   20.6916 C   0  0  0  0  0  0  0  0  0  0  0  0
  -30.0317  -21.5330   21.5004 C   0  0  0  0  0  0  0  0  0  0  0  0
  -29.2564  -20.1231   23.4800 C   0  0  0  0  0  0  0  0  0  0  0  0
  -19.2663  -29.8337   23.4188 C   0  0  0  0  0  0  0  0  0  0  0  0
  -24.3673  -24.3944   21.1227 C   0  0  0  0  0  0  0  0  0  0  0  0
  -20.1857  -28.7988   23.6761 C   0  0  0  0  0  0  0  0  0  0  0  0
  -23.5679  -23.6094   20.2796 C   0  0  0  0  0  0  0  0  0  0  0  0
  -24.6321  -11.7942   21.8152 C   0  0  0  0  0  0  0  0  0  0  0  0
  -30.4445  -23.9357   20.1442 C   0  0  0  0  0  0  0  0  0  0  0  0
  -24.6284  -21.6065   21.1594 C   0  0  0  0  0  0  0  0  0  0  0  0
  -29.6150  -26.0331   19.4848 C   0  0  0  0  0  0  0  0  0  0  0  0
  -25.2070  -13.8207   20.6545 C   0  0  0  0  0  0  0  0  0  0  0  0
  -27.5402  -27.8980   19.4858 C   0  0  0  0  0  0  0  0  0  0  0  0
  -29.1437  -26.5514   20.6910 C   0  0  0  0  0  0  0  0  0  0  0  0
  -29.8182  -20.2917   22.2002 C   0  0  0  0  0  0  0  0  0  0  0  0
  -25.6271  -11.1598   21.0891 C   0  0  0  0  0  0  0  0  0  0  0  0
  -26.1765  -13.0956   19.9805 C   0  0  0  0  0  0  0  0  0  0  0  0
  -29.2740  -18.7653   23.6865 C   0  0  0  0  0  0  0  0  0  0  0  0
  -28.7627  -21.1059   24.3998 C   0  0  0  0  0  0  0  0  0  0  0  0
  -21.8103  -26.2268   21.5789 C   0  0  0  0  0  0  0  0  0  0  0  0
  -21.8623  -26.4316   18.3420 C   0  0  0  0  0  0  0  0  0  0  0  0
  -22.8142  -25.0570   15.3669 C   0  0  0  0  0  0  0  0  0  0  0  0
  -29.2978  -14.0749   19.9648 C   0  0  0  0  0  0  0  0  0  0  0  0
  -18.1343  -29.6631   22.4368 C   0  0  0  0  0  0  0  0  0  0  0  0
  -24.2617  -25.8945   21.0929 C   0  0  0  0  0  0  0  0  0  0  0  0
  -22.5598  -24.2239   19.3444 C   0  0  0  0  0  0  0  0  0  0  0  0
  -18.3367  -28.4992   21.4701 C   0  0  0  0  0  0  0  0  0  0  0  0
  -31.7048  -14.8253   22.4787 C   0  0  0  0  0  0  0  0  0  0  0  0
  -18.7913  -27.2528   22.2230 C   0  0  0  0  0  0  0  0  0  0  0  0
  -31.4435  -16.2962   22.8079 C   0  0  0  0  0  0  0  0  0  0  0  0
  -31.5040  -14.5352   20.9930 C   0  0  0  0  0  0  0  0  0  0  0  0
  -29.9366  -16.4251   20.7803 C   0  0  0  0  0  0  0  0  0  0  0  0
  -20.1369  -27.4891   22.9194 C   0  0  1  0  0  0  0  0  0  0  0  0
  -22.9151  -26.3885   20.5734 C   0  0  1  0  0  0  0  0  0  0  0  0
  -30.0720  -16.7546   22.2767 C   0  0  2  0  0  0  0  0  0  0  0  0
  -23.7970  -11.0701   22.8139 C   0  0  0  0  0  0  0  0  0  0  0  0
  -27.3162   -9.4373   21.8195 C   0  0  0  0  0  0  0  0  0  0  0  0
  -25.6445   -8.8784   20.0173 C   0  0  0  0  0  0  0  0  0  0  0  0
  -22.6804  -25.4352   12.8897 C   0  0  0  0  0  0  0  0  0  0  0  0
  -18.9505  -25.5198   18.3625 C   0  0  0  0  0  0  0  0  0  0  0  0
  -19.1668  -25.0065   15.9217 C   0  0  0  0  0  0  0  0  0  0  0  0
  -19.4600  -27.3471   16.7329 C   0  0  0  0  0  0  0  0  0  0  0  0
  -25.7590  -25.2085   15.1139 C   0  0  0  0  0  0  0  0  0  0  0  0
  -27.0454  -13.7679   18.9691 C   0  0  0  0  0  0  0  0  0  0  0  0
  -24.5833  -18.2466   22.5137 C   0  0  0  0  0  0  0  0  0  0  0  0
  -25.0726  -17.3508   21.3811 C   0  0  0  0  0  0  0  0  0  0  0  0
  -25.1591  -19.6524   22.4067 C   0  0  0  0  0  0  0  0  0  1  0  0
  -24.5318  -15.9339   21.5113 C   0  0  0  0  0  0  0  0  0  0  0  0
  -25.8946   -9.7043   21.2922 C   0  0  0  0  0  0  0  0  0  0  0  0
  -21.2583  -25.6353   17.2106 C   0  0  1  0  0  0  0  0  0  0  0  0
  -23.4980  -25.6584   14.1524 C   0  0  2  0  0  0  0  0  0  0  0  0
  -19.7264  -25.8652   17.0758 C   0  0  0  0  0  0  0  0  0  0  0  0
  -30.1673  -19.1336   21.6337 N   0  0  0  0  0  0  0  0  0  0  0  0
  -26.4075  -11.7777   20.1744 N   0  0  0  0  0  0  0  0  0  0  0  0
  -29.8241  -18.2243   22.5618 N   0  0  0  0  0  0  0  0  0  0  0  0
  -22.4896  -25.6944   19.3563 N   0  0  0  0  0  0  0  0  0  0  0  0
  -30.1838  -14.9926   20.5529 N   0  0  0  0  0  0  0  0  0  0  0  0
  -28.8725  -17.9933   24.7186 N   0  0  0  0  0  0  0  0  0  0  0  0
  -28.8195  -22.4562   24.0289 N   0  0  0  0  0  0  0  0  0  0  0  0
  -21.2207  -27.4160   21.9631 N   0  0  0  0  0  0  0  0  0  0  0  0
  -22.0216  -25.9799   16.0160 N   0  0  0  0  0  0  0  0  0  0  0  0
  -28.0652  -14.5896   19.5821 N   0  0  0  0  0  0  0  0  0  0  0  0
  -24.8416  -25.0438   13.9571 N   0  3  0  0  0  0  0  0  0  0  0  0
  -28.3004  -20.7970   25.5243 O   0  0  0  0  0  0  0  0  0  0  0  0
  -21.5138  -25.1059   21.9757 O   0  0  0  0  0  0  0  0  0  0  0  0
  -21.7866  -27.6627   18.3229 O   0  0  0  0  0  0  0  0  0  0  0  0
  -22.9649  -23.8847   15.7039 O   0  0  0  0  0  0  0  0  0  0  0  0
  -29.5821  -12.8840   19.7983 O   0  0  0  0  0  0  0  0  0  0  0  0
  -30.6454  -25.1080   19.4825 O   0  0  0  0  0  0  0  0  0  0  0  0
  -24.7494  -20.2512   21.1779 O   0  0  0  0  0  0  0  0  0  1  0  0
  -25.0106  -15.1572   20.4220 O   0  0  0  0  0  0  0  0  0  0  0  0
  -26.5450  -28.7945   19.4861 F   0  0  0  0  0  0  0  0  0  0  0  0
  -29.6844  -26.1582   21.8524 F   0  0  0  0  0  0  0  0  0  0  0  0
  1  2  1  0  0  0  0
  1  5  2  0  0  0  0
  2  6  2  0  0  0  0
  3  8  2  0  0  0  0
  3 16  1  0  0  0  0
  4  9  1  0  0  0  0
  4 16  2  0  0  0  0
  5 18  1  0  0  0  0
  6 20  1  0  0  0  0
  7 10  2  0  0  0  0
  7 19  1  0  0  0  0
  8 23  1  0  0  0  0
  9 23  2  0  0  0  0
 10 24  1  0  0  0  0
 11 12  2  0  0  0  0
 11 25  1  0  0  0  0
 12 27  1  0  0  0  0
 13 21  1  0  0  0  0
 13 24  2  0  0  0  0
 14 22  2  0  0  0  0
 14 26  1  0  0  0  0
 15 27  2  0  0  0  0
 15 28  1  0  0  0  0
 16 29  1  0  0  0  0
 17 29  1  0  0  0  0
 17 32  2  0  0  0  0
 17 33  1  0  0  0  0
 18 20  2  0  0  0  0
 18 38  1  0  0  0  0
 19 21  2  0  0  0  0
 19 39  1  0  0  0  0
 20 47  1  0  0  0  0
 21 40  1  0  0  0  0
 22 30  1  0  0  0  0
 22 50  1  0  0  0  0
 23 83  1  0  0  0  0
 24 84  1  0  0  0  0
 25 28  2  0  0  0  0
 25 83  1  0  0  0  0
 26 31  2  0  0  0  0
 26 85  1  0  0  0  0
 27 86  1  0  0  0  0
 28 87  1  0  0  0  0
 29 67  2  0  0  0  0
 30 63  1  0  0  0  0
 30 68  2  0  0  0  0
 31 58  1  0  0  0  0
 31 68  1  0  0  0  0
 32 69  1  0  0  0  0
 32 72  1  0  0  0  0
 33 73  1  0  0  0  0
 33 78  2  0  0  0  0
 34 48  1  0  0  0  0
 34 74  1  0  0  0  0
 34 79  2  0  0  0  0
 35 64  1  0  0  0  0
 35 70  1  0  0  0  0
 35 80  2  0  0  0  0
 36 65  1  0  0  0  0
 36 75  1  0  0  0  0
 36 81  2  0  0  0  0
 37 71  1  0  0  0  0
 37 76  1  0  0  0  0
 37 82  2  0  0  0  0
 38 41  1  0  0  0  0
 39 48  1  0  0  0  0
 40 70  1  0  0  0  0
 41 43  1  0  0  0  0
 42 44  1  0  0  0  0
 42 45  1  0  0  0  0
 43 47  1  0  0  0  0
 44 49  1  0  0  0  0
 45 71  1  0  0  0  0
 46 49  1  0  0  0  0
 46 71  1  0  0  0  0
 47 74  1  0  0  0  0
 48 70  1  0  0  0  0
 49 69  1  0  0  0  0
 51 63  1  0  0  0  0
 52 63  1  0  0  0  0
 53 65  1  0  0  0  0
 54 66  1  0  0  0  0
 55 66  1  0  0  0  0
 56 66  1  0  0  0  0
 57 77  1  0  0  0  0
 58 76  1  0  0  0  0
 59 60  1  0  0  0  0
 59 61  1  0  0  0  0
 60 62  1  0  0  0  0
 61 84  1  0  0  0  0
 62 85  1  0  0  0  0
 64 66  1  0  0  0  0
 64 75  1  0  0  0  0
 65 77  1  0  0  0  0
 67 69  1  0  0  0  0
M  CHG  1  77   1
M  ISO  4  37 100  61 101  76 100  84 101
M  END
> <Batch ID>
0105

> <Smiles>
CNC(C)C(=O)NC(C(=O)N1Cc2cc([101O:1][101CH2:1]CCCOc3cc(C)c(C(C)C)nc3C[100NH:0][100C:0](=O)N3CCCC(n4nc(-c5ccc(Oc6ccc(F)cc6F)cc5)c(C(N)=O)c4N)C3)ccc2CC1C(=O)NC1CCCc2ccccc21)C(C)(C)C

> <Shape>
0.219

> <Color>
0.072

> <Negative vol penalty>
0.000

$$$$

  -OEChem-04052319463D

 83 90  0     1  0  0  0  0  0999 V2000
  -25.3372  -20.9653   29.0359 C   0  0  0  0  0  0  0  0  0  0  0  0
  -26.1664  -21.4413   28.0253 C   0  0  0  0  0  0  0  0  0  0  0  0
  -26.0948  -12.8463   20.1284 C   0  0  0  0  0  0  0  0  0  0  0  0
  -24.3096  -14.4479   20.4195 C   0  0  0  0  0  0  0  0  0  0  0  0
  -23.9525  -21.0139   28.8807 C   0  0  0  0  0  0  0  0  0  0  0  0
  -25.6113  -21.9652   26.8584 C   0  0  0  0  0  0  0  0  0  0  0  0
  -27.8021  -26.5892   23.4931 C   0  0  0  0  0  0  0  0  0  0  0  0
  -25.3890  -11.9200   20.8962 C   0  0  0  0  0  0  0  0  0  0  0  0
  -23.6038  -13.5217   21.1872 C   0  0  0  0  0  0  0  0  0  0  0  0
  -28.5623  -26.6211   22.3248 C   0  0  0  0  0  0  0  0  0  0  0  0
  -22.8000   -9.7877   20.4688 C   0  0  0  0  0  0  0  0  0  0  0  0
  -22.7269   -8.4768   19.9979 C   0  0  0  0  0  0  0  0  0  0  0  0
  -26.5449  -26.8717   21.0261 C   0  0  0  0  0  0  0  0  0  0  0  0
  -23.8205   -7.6946   22.0052 C   0  0  0  0  0  0  0  0  0  0  0  0
  -25.5552  -14.1103   19.8901 C   0  0  0  0  0  0  0  0  0  0  0  0
  -26.2152  -15.2448   17.7027 C   0  0  0  0  0  0  0  0  0  0  0  0
  -23.3800  -21.5476   27.7154 C   0  0  0  0  0  0  0  0  0  0  0  0
  -26.4044  -26.6875   23.4357 C   0  0  0  0  0  0  0  0  0  0  0  0
  -24.2176  -22.0198   26.6869 C   0  0  0  0  0  0  0  0  0  0  0  0
  -25.7694  -26.8433   22.1953 C   0  0  0  0  0  0  0  0  0  0  0  0
  -24.1435  -12.2577   21.4256 C   0  0  0  0  0  0  0  0  0  0  0  0
  -27.9335  -26.7594   21.0909 C   0  0  0  0  0  0  0  0  0  0  0  0
  -23.3833  -10.0521   21.7080 C   0  0  0  0  0  0  0  0  0  0  0  0
  -23.2371   -7.4303   20.7660 C   0  0  0  0  0  0  0  0  0  0  0  0
  -23.8935   -9.0056   22.4762 C   0  0  0  0  0  0  0  0  0  0  0  0
  -26.2840  -15.0678   19.0976 C   0  0  0  0  0  0  0  0  0  0  0  0
  -27.0916  -16.2701   17.4431 C   0  0  0  0  0  0  0  0  0  0  0  0
  -25.4293  -14.5452   16.7288 C   0  0  0  0  0  0  0  0  0  0  0  0
  -23.9870  -24.7943   24.2574 C   0  0  0  0  0  0  0  0  0  0  0  0
  -22.2002  -27.3815   23.4599 C   0  0  0  0  0  0  0  0  0  0  0  0
  -21.9342  -30.2821   21.6816 C   0  0  0  0  0  0  0  0  0  0  0  0
  -29.1371  -20.5923   21.2736 C   0  0  0  0  0  0  0  0  0  0  0  0
  -21.8785  -21.5357   27.5731 C   0  0  0  0  0  0  0  0  0  0  0  0
  -25.6007  -26.6783   24.7071 C   0  0  0  0  0  0  0  0  0  0  0  0
  -24.2733  -26.9733   22.0811 C   0  0  0  0  0  0  0  0  0  0  0  0
  -21.3645  -22.4501   26.4641 C   0  0  0  0  0  0  0  0  0  0  0  0
  -31.0813  -18.3117   19.1009 C   0  0  0  0  0  0  0  0  0  0  0  0
  -22.1804  -22.2549   25.1901 C   0  0  0  0  0  0  0  0  0  0  0  0
  -30.0761  -17.2016   18.7992 C   0  0  0  0  0  0  0  0  0  0  0  0
  -30.8076  -18.9740   20.4479 C   0  0  0  0  0  0  0  0  0  0  0  0
  -28.4131  -18.3766   20.2940 C   0  0  0  0  0  0  0  0  0  0  0  0
  -23.6528  -22.6183   25.4168 C   0  0  1  0  0  0  0  0  0  0  0  0
  -24.1467  -26.2698   24.4918 C   0  0  1  0  0  0  0  0  0  0  0  0
  -28.6327  -17.7199   18.9228 C   0  0  2  0  0  0  0  0  0  0  0  0
  -28.1800  -25.5926   14.5389 C   0  0  0  0  0  0  0  0  0  0  0  0
  -20.3401  -32.1601   21.2028 C   0  0  0  0  0  0  0  0  0  0  0  0
  -26.3481  -20.8684   22.5795 C   0  0  0  0  0  0  0  0  0  0  0  0
  -27.7417  -22.9591   22.6808 C   0  0  0  0  0  0  0  0  0  0  0  0
  -20.6084  -25.5543   21.6058 C   0  0  0  0  0  0  0  0  0  0  0  0
  -19.7028  -27.5999   20.4816 C   0  0  0  0  0  0  0  0  0  0  0  0
  -19.2263  -27.1913   22.8959 C   0  0  0  0  0  0  0  0  0  0  0  0
  -23.7870  -32.2965   22.8078 C   0  0  0  0  0  0  0  0  0  0  0  0
  -28.3320  -25.7255   16.0455 C   0  0  0  0  0  0  0  0  0  0  0  0
  -27.6826  -22.7021   18.8138 C   0  0  0  0  0  0  0  0  0  0  0  0
  -27.6380  -21.3199   19.4562 C   0  0  0  0  0  0  0  0  0  0  0  0
  -28.9662  -24.4811   16.6462 C   0  0  0  0  0  0  0  0  0  0  0  0
  -29.0813  -23.3051   18.8381 C   0  0  0  0  0  0  0  0  0  0  0  0
  -30.1727  -25.5257   18.5581 C   0  0  0  0  0  0  0  0  0  0  0  0
  -29.8998  -26.0611   19.9498 C   0  0  0  0  0  0  0  0  0  1  0  0
  -21.5535  -27.8844   22.1919 C   0  0  1  0  0  0  0  0  0  0  0  0
  -21.4789  -31.6729   22.0852 C   0  0  2  0  0  0  0  0  0  0  0  0
  -27.0583  -21.9467   21.7707 C   0  0  0  0  0  0  0  0  0  0  0  0
  -20.3008  -27.0531   21.7954 C   0  0  0  0  0  0  0  0  0  0  0  0
  -27.1369  -15.9126   19.6832 N   0  0  0  0  0  0  0  0  0  0  0  0
  -27.6120  -16.6305   18.6512 N   0  0  0  0  0  0  0  0  0  0  0  0
  -23.5306  -26.9523   23.3521 N   0  0  0  0  0  0  0  0  0  0  0  0
  -29.4176  -19.4185   20.5551 N   0  0  0  0  0  0  0  0  0  0  0  0
  -27.4601  -16.8894   16.3016 N   0  0  0  0  0  0  0  0  0  0  0  0
  -24.5811  -13.5191   17.1667 N   0  0  0  0  0  0  0  0  0  0  0  0
  -23.8250  -24.0552   25.4137 N   0  0  0  0  0  0  0  0  0  0  0  0
  -21.2866  -29.3028   22.4046 N   0  0  0  0  0  0  0  0  0  0  0  0
  -28.0296  -21.3471   20.8583 N   0  0  0  0  0  0  0  0  0  0  0  0
  -22.6071  -32.6402   21.9732 N   0  3  0  0  0  0  0  0  0  0  0  0
  -29.0523  -24.6442   18.1436 N   0  3  1  0  0  0  0  0  0  0  0  0
  -25.4901  -14.8109   15.5043 O   0  0  0  0  0  0  0  0  0  0  0  0
  -24.0076  -24.3587   23.1122 O   0  0  0  0  0  0  0  0  0  0  0  0
  -21.5511  -27.3765   24.5089 O   0  0  0  0  0  0  0  0  0  0  0  0
  -22.7773  -30.0842   20.8095 O   0  0  0  0  0  0  0  0  0  0  0  0
  -29.8422  -20.9504   22.2257 O   0  0  0  0  0  0  0  0  0  0  0  0
  -23.4544  -11.3540   22.1746 O   0  0  0  0  0  0  0  0  0  0  0  0
  -28.6731  -26.7902   19.9490 O   0  0  0  0  0  0  0  0  0  1  0  0
  -23.1655   -6.1713   20.3143 F   0  0  0  0  0  0  0  0  0  0  0  0
  -24.4540   -9.2533   23.6680 F   0  0  0  0  0  0  0  0  0  0  0  0
  1  2  1  0  0  0  0
  1  5  2  0  0  0  0
  2  6  2  0  0  0  0
  3  8  2  0  0  0  0
  3 15  1  0  0  0  0
  4  9  1  0  0  0  0
  4 15  2  0  0  0  0
  5 17  1  0  0  0  0
  6 19  1  0  0  0  0
  7 10  2  0  0  0  0
  7 18  1  0  0  0  0
  8 21  1  0  0  0  0
  9 21  2  0  0  0  0
 10 22  1  0  0  0  0
 11 12  2  0  0  0  0
 11 23  1  0  0  0  0
 12 24  1  0  0  0  0
 13 20  1  0  0  0  0
 13 22  2  0  0  0  0
 14 24  2  0  0  0  0
 14 25  1  0  0  0  0
 15 26  1  0  0  0  0
 16 26  1  0  0  0  0
 16 27  2  0  0  0  0
 16 28  1  0  0  0  0
 17 19  2  0  0  0  0
 17 33  1  0  0  0  0
 18 20  2  0  0  0  0
 18 34  1  0  0  0  0
 19 42  1  0  0  0  0
 20 35  1  0  0  0  0
 21 80  1  0  0  0  0
 22 81  1  0  0  0  0
 23 25  2  0  0  0  0
 23 80  1  0  0  0  0
 24 82  1  0  0  0  0
 25 83  1  0  0  0  0
 26 64  2  0  0  0  0
 27 65  1  0  0  0  0
 27 68  1  0  0  0  0
 28 69  1  0  0  0  0
 28 75  2  0  0  0  0
 29 43  1  0  0  0  0
 29 70  1  0  0  0  0
 29 76  2  0  0  0  0
 30 60  1  0  0  0  0
 30 66  1  0  0  0  0
 30 77  2  0  0  0  0
 31 61  1  0  0  0  0
 31 71  1  0  0  0  0
 31 78  2  0  0  0  0
 32 67  1  0  0  0  0
 32 72  1  0  0  0  0
 32 79  2  0  0  0  0
 33 36  1  0  0  0  0
 34 43  1  0  0  0  0
 35 66  1  0  0  0  0
 36 38  1  0  0  0  0
 37 39  1  0  0  0  0
 37 40  1  0  0  0  0
 38 42  1  0  0  0  0
 39 44  1  0  0  0  0
 40 67  1  0  0  0  0
 41 44  1  0  0  0  0
 41 67  1  0  0  0  0
 42 70  1  0  0  0  0
 43 66  1  0  0  0  0
 44 65  1  0  0  0  0
 45 53  1  0  0  0  0
 46 61  1  0  0  0  0
 47 62  1  0  0  0  0
 48 62  1  0  0  0  0
 49 63  1  0  0  0  0
 50 63  1  0  0  0  0
 51 63  1  0  0  0  0
 52 73  1  0  0  0  0
 53 56  1  0  0  0  0
 54 55  1  0  0  0  0
 54 57  1  0  0  0  0
 55 72  1  0  0  0  0
 56 74  1  0  0  0  0
 57 74  1  0  0  0  0
 58 59  1  0  0  0  0
 58 74  1  0  0  0  0
 59 81  1  0  0  0  0
 60 63  1  0  0  0  0
 60 71  1  0  0  0  0
 61 73  1  0  0  0  0
 62 72  1  0  0  0  0
 64 65  1  0  0  0  0
M  CHG  2  73   1  74   1
M  ISO  4  32 100  59 101  72 100  81 101
M  END
> <Batch ID>
0105

> <Smiles>
CCCN(CCC[100N:0](C(C)C)[100C:0](=O)N1CCCC(n2nc(-c3ccc(Oc4ccc(F)cc4F)cc3)c(C(N)=O)c2N)C1)C[101CH2:1][101O:1]c1ccc2c(c1)CN(C(=O)C(NC(=O)C(C)NC)C(C)(C)C)C(C(=O)NC1CCCc3ccccc31)C2

> <Shape>
0.226

> <Color>
0.063

> <Negative vol penalty>
0.000

$$$$

  -OEChem-04052319463D

 94103  0     1  0  0  0  0  0999 V2000
  -30.1873  -34.2346   17.6576 C   0  0  0  0  0  0  0  0  0  0  0  0
  -30.1903  -33.2532   18.6437 C   0  0  0  0  0  0  0  0  0  0  0  0
  -24.0564   -9.7703   22.1637 C   0  0  0  0  0  0  0  0  0  0  0  0
  -24.0817   -9.1921   19.8180 C   0  0  0  0  0  0  0  0  0  0  0  0
  -29.0840  -35.0751   17.5157 C   0  0  0  0  0  0  0  0  0  0  0  0
  -29.0904  -33.1125   19.4891 C   0  0  0  0  0  0  0  0  0  0  0  0
  -27.7241  -28.2760   20.1110 C   0  0  0  0  0  0  0  0  0  0  0  0
  -23.0214   -8.8599   22.3769 C   0  0  0  0  0  0  0  0  0  0  0  0
  -23.0467   -8.2817   20.0312 C   0  0  0  0  0  0  0  0  0  0  0  0
  -28.4875  -27.5064   20.9879 C   0  0  0  0  0  0  0  0  0  0  0  0
  -22.6806   -5.5151   22.7362 C   0  0  0  0  0  0  0  0  0  0  0  0
  -22.7769   -4.6717   23.8430 C   0  0  0  0  0  0  0  0  0  0  0  0
  -26.8172  -27.8128   22.7012 C   0  0  0  0  0  0  0  0  0  0  0  0
  -32.0358  -22.6413   24.9662 C   0  0  0  0  0  0  0  0  0  0  0  0
  -32.2429  -21.7818   27.2146 C   0  0  0  0  0  0  0  0  0  0  0  0
  -30.2707  -23.0204   26.5717 C   0  0  0  0  0  0  0  0  0  0  0  0
  -20.7144   -5.5797   24.7142 C   0  0  0  0  0  0  0  0  0  0  0  0
  -24.5865   -9.9365   20.8842 C   0  0  0  0  0  0  0  0  0  0  0  0
  -27.0384  -10.6259   20.7398 C   0  0  0  0  0  0  0  0  0  0  0  0
  -27.9660  -34.9384   18.3536 C   0  0  0  0  0  0  0  0  0  0  0  0
  -26.5047  -28.8298   20.5268 C   0  0  0  0  0  0  0  0  0  0  0  0
  -27.9717  -33.9529   19.3592 C   0  0  0  0  0  0  0  0  0  0  0  0
  -26.0390  -28.5869   21.8269 C   0  0  0  0  0  0  0  0  0  0  0  0
  -32.7623  -21.9420   25.9300 C   0  0  0  0  0  0  0  0  0  0  0  0
  -30.7901  -23.1806   25.2871 C   0  0  0  0  0  0  0  0  0  0  0  0
  -22.5166   -8.1155   21.3107 C   0  0  0  0  0  0  0  0  0  0  0  0
  -28.0354  -27.2771   22.2841 C   0  0  0  0  0  0  0  0  0  0  0  0
  -21.6013   -6.3908   22.6183 C   0  0  0  0  0  0  0  0  0  0  0  0
  -21.7938   -4.7040   24.8320 C   0  0  0  0  0  0  0  0  0  0  0  0
  -20.6182   -6.4231   23.6073 C   0  0  0  0  0  0  0  0  0  0  0  0
  -30.9971  -22.3210   27.5355 C   0  0  0  0  0  0  0  0  0  0  0  0
  -25.6553  -10.8772   20.6632 C   0  0  0  0  0  0  0  0  0  0  0  0
  -27.6235  -11.8337   20.4476 C   0  0  0  0  0  0  0  0  0  0  0  0
  -27.7322   -9.4095   21.0476 C   0  0  0  0  0  0  0  0  0  0  0  0
  -25.3747  -31.7838   20.8437 C   0  0  0  0  0  0  0  0  0  0  0  0
  -22.6025  -30.2346   21.5050 C   0  0  0  0  0  0  0  0  0  0  0  0
  -21.0613  -27.3919   22.5960 C   0  0  0  0  0  0  0  0  0  0  0  0
  -28.0818  -17.1614   20.9235 C   0  0  0  0  0  0  0  0  0  0  0  0
  -26.8163  -35.9012   18.1929 C   0  0  0  0  0  0  0  0  0  0  0  0
  -25.6804  -29.6353   19.5605 C   0  0  0  0  0  0  0  0  0  0  0  0
  -24.7271  -29.1419   22.3159 C   0  0  0  0  0  0  0  0  0  0  0  0
  -25.5358  -35.4418   18.8855 C   0  0  0  0  0  0  0  0  0  0  0  0
  -25.6445  -16.1080   18.6227 C   0  0  0  0  0  0  0  0  0  0  0  0
  -25.8382  -34.9574   20.2999 C   0  0  0  0  0  0  0  0  0  0  0  0
  -25.5367  -14.6202   18.9551 C   0  0  0  0  0  0  0  0  0  0  0  0
  -25.7797  -16.9683   19.8804 C   0  0  0  0  0  0  0  0  0  0  0  0
  -26.8700  -19.3700   21.2029 C   0  0  0  0  0  0  0  0  0  0  0  0
  -29.2871  -19.3134   20.7107 C   0  0  0  0  0  0  0  0  0  0  0  0
  -26.7751  -15.0653   21.1079 C   0  0  0  0  0  0  0  0  0  0  0  0
  -27.1362  -20.1864   22.4636 C   0  0  0  0  0  0  0  0  0  0  0  0
  -29.5916  -20.1044   21.9725 C   0  0  0  0  0  0  0  0  0  0  0  0
  -26.7871  -33.7530   20.2795 C   0  0  1  0  0  0  0  0  0  0  0  0
  -24.7006  -30.5782   20.2522 C   0  0  1  0  0  0  0  0  0  0  0  0
  -26.6972  -14.1712   19.8608 C   0  0  1  0  0  0  0  0  0  0  0  0
  -32.0628  -28.2941   25.8592 C   0  0  0  0  0  0  0  0  0  0  0  0
  -35.1196  -22.4437   25.1918 C   0  0  0  0  0  0  0  0  0  0  0  0
  -34.0044  -20.2990   24.4768 C   0  0  0  0  0  0  0  0  0  0  0  0
  -18.7872  -26.4396   23.0640 C   0  0  0  0  0  0  0  0  0  0  0  0
  -22.4553  -31.8596   24.0833 C   0  0  0  0  0  0  0  0  0  0  0  0
  -20.7493  -30.2337   24.9284 C   0  0  0  0  0  0  0  0  0  0  0  0
  -20.2725  -31.5932   22.8919 C   0  0  0  0  0  0  0  0  0  0  0  0
  -21.4170  -25.2497   20.5852 C   0  0  0  0  0  0  0  0  0  0  0  0
  -31.8424  -27.4262   24.6285 C   0  0  0  0  0  0  0  0  0  0  0  0
  -31.0584  -26.1563   24.9751 C   0  0  0  0  0  0  0  0  0  0  0  0
  -29.6045  -23.0010   23.0619 C   0  0  0  0  0  0  0  0  0  0  0  0
  -28.6742  -21.8647   23.4847 C   0  0  0  0  0  0  0  0  0  0  0  0
  -30.0105  -26.0046   22.6524 C   0  0  0  0  0  0  0  0  0  1  0  0
  -34.0937  -21.3644   25.5857 C   0  0  0  0  0  0  0  0  0  0  0  0
  -29.9948  -23.9446   24.2304 C   0  0  2  0  0  0  0  0  0  0  0  0
  -21.9469  -29.7036   22.7568 C   0  0  1  0  0  0  0  0  0  0  0  0
  -19.8947  -26.5995   22.0341 C   0  0  2  0  0  0  0  0  0  0  0  0
  -30.7630  -25.2354   23.7558 C   0  0  2  0  0  0  0  0  0  0  0  0
  -21.3817  -30.8386   23.6568 C   0  0  0  0  0  0  0  0  0  0  0  0
  -25.3783  -12.1450   20.3472 N   0  0  0  0  0  0  0  0  0  0  0  0
  -26.5954  -12.7013   20.2228 N   0  0  0  0  0  0  0  0  0  0  0  0
  -23.9603  -29.9285   21.3357 N   0  0  0  0  0  0  0  0  0  0  0  0
  -26.8720  -16.4774   20.7321 N   0  0  0  0  0  0  0  0  0  0  0  0
  -28.0414  -18.5613   20.8443 N   0  0  0  0  0  0  0  0  0  0  0  0
  -28.9119  -12.2277   20.3637 N   0  0  0  0  0  0  0  0  0  0  0  0
  -26.9773   -8.2612   21.3232 N   0  0  0  0  0  0  0  0  0  0  0  0
  -26.0675  -32.5485   19.9246 N   0  0  0  0  0  0  0  0  0  0  0  0
  -20.9471  -28.7371   22.3156 N   0  0  0  0  0  0  0  0  0  0  0  0
  -28.4068  -20.9845   22.2959 N   0  3  0  0  0  0  0  0  0  0  0  0
  -20.3450  -25.2425   21.6136 N   0  3  0  0  0  0  0  0  0  0  0  0
  -28.9841   -9.3469   21.0934 O   0  0  0  0  0  0  0  0  0  0  0  0
  -25.2725  -32.0047   22.0447 O   0  0  0  0  0  0  0  0  0  0  0  0
  -21.9328  -30.8906   20.7032 O   0  0  0  0  0  0  0  0  0  0  0  0
  -21.9798  -26.8703   23.2242 O   0  0  0  0  0  0  0  0  0  0  0  0
  -29.1367  -16.5563   21.1527 O   0  0  0  0  0  0  0  0  0  0  0  0
  -21.5068   -7.2269   21.5185 O   0  0  0  0  0  0  0  0  0  0  0  0
  -28.7845  -26.5211   23.1488 O   0  0  0  0  0  0  0  0  0  1  0  0
  -21.8855   -3.8930   25.8941 F   0  0  0  0  0  0  0  0  0  0  0  0
  -19.5783   -7.2614   23.4990 F   0  0  0  0  0  0  0  0  0  0  0  0
  -30.3569  -22.1245   29.1209 Cl  0  0  0  0  0  0  0  0  0  0  0  0
  1  2  1  0  0  0  0
  1  5  2  0  0  0  0
  2  6  2  0  0  0  0
  3  8  2  0  0  0  0
  3 18  1  0  0  0  0
  4  9  1  0  0  0  0
  4 18  2  0  0  0  0
  5 20  1  0  0  0  0
  6 22  1  0  0  0  0
  7 10  2  0  0  0  0
  7 21  1  0  0  0  0
  8 26  1  0  0  0  0
  9 26  2  0  0  0  0
 10 27  1  0  0  0  0
 11 12  2  0  0  0  0
 11 28  1  0  0  0  0
 12 29  1  0  0  0  0
 13 23  1  0  0  0  0
 13 27  2  0  0  0  0
 14 24  1  0  0  0  0
 14 25  2  0  0  0  0
 15 24  2  0  0  0  0
 15 31  1  0  0  0  0
 16 25  1  0  0  0  0
 16 31  2  0  0  0  0
 17 29  2  0  0  0  0
 17 30  1  0  0  0  0
 18 32  1  0  0  0  0
 19 32  1  0  0  0  0
 19 33  2  0  0  0  0
 19 34  1  0  0  0  0
 20 22  2  0  0  0  0
 20 39  1  0  0  0  0
 21 23  2  0  0  0  0
 21 40  1  0  0  0  0
 22 52  1  0  0  0  0
 23 41  1  0  0  0  0
 24 68  1  0  0  0  0
 25 69  1  0  0  0  0
 26 90  1  0  0  0  0
 27 91  1  0  0  0  0
 28 30  2  0  0  0  0
 28 90  1  0  0  0  0
 29 92  1  0  0  0  0
 30 93  1  0  0  0  0
 31 94  1  0  0  0  0
 32 74  2  0  0  0  0
 33 75  1  0  0  0  0
 33 79  1  0  0  0  0
 34 80  1  0  0  0  0
 34 85  2  0  0  0  0
 35 53  1  0  0  0  0
 35 81  1  0  0  0  0
 35 86  2  0  0  0  0
 36 70  1  0  0  0  0
 36 76  1  0  0  0  0
 36 87  2  0  0  0  0
 37 71  1  0  0  0  0
 37 82  1  0  0  0  0
 37 88  2  0  0  0  0
 38 77  1  0  0  0  0
 38 78  1  0  0  0  0
 38 89  2  0  0  0  0
 39 42  1  0  0  0  0
 40 53  1  0  0  0  0
 41 76  1  0  0  0  0
 42 44  1  0  0  0  0
 43 45  1  0  0  0  0
 43 46  1  0  0  0  0
 44 52  1  0  0  0  0
 45 54  1  0  0  0  0
 46 77  1  0  0  0  0
 47 50  1  0  0  0  0
 47 78  1  0  0  0  0
 48 51  1  0  0  0  0
 48 78  1  0  0  0  0
 49 54  1  0  0  0  0
 49 77  1  0  0  0  0
 50 83  1  0  0  0  0
 51 83  1  0  0  0  0
 52 81  1  0  0  0  0
 53 76  1  0  0  0  0
 54 75  1  0  0  0  0
 55 63  1  0  0  0  0
 56 68  1  0  0  0  0
 57 68  1  0  0  0  0
 58 71  1  0  0  0  0
 59 73  1  0  0  0  0
 60 73  1  0  0  0  0
 61 73  1  0  0  0  0
 62 84  1  0  0  0  0
 63 64  1  0  0  0  0
 64 72  1  0  0  0  0
 65 66  1  0  0  0  0
 65 69  1  0  0  0  0
 66 83  1  0  0  0  0
 67 72  1  0  0  0  0
 67 91  1  0  0  0  0
 69 72  1  0  0  0  0
 70 73  1  0  0  0  0
 70 82  1  0  0  0  0
 71 84  1  0  0  0  0
 74 75  1  0  0  0  0
M  CHG  2  83   1  84   1
M  ISO  4  38 100  67 101  78 100  91 101
M  END
> <Batch ID>
0105

> <Smiles>
CCCC(C(CCN1CC[100N:0]([100C:0](=O)N2CCCC(n3nc(-c4ccc(Oc5ccc(F)cc5F)cc4)c(C(N)=O)c3N)C2)CC1)c1cc(Cl)cc(C(C)C)c1)[101CH2:1][101O:1]c1ccc2c(c1)CN(C(=O)C(NC(=O)C(C)NC)C(C)(C)C)C(C(=O)NC1CCCc3ccccc31)C2

> <Shape>
0.244

> <Color>
0.080

> <Negative vol penalty>
0.000

$$$$

  -OEChem-04052319463D

 85 94  0     1  0  0  0  0  0999 V2000
  -32.2703  -20.9759   36.8860 C   0  0  0  0  0  0  0  0  0  0  0  0
  -32.2199  -20.8844   35.4987 C   0  0  0  0  0  0  0  0  0  0  0  0
  -23.0724   -9.8709   19.9431 C   0  0  0  0  0  0  0  0  0  0  0  0
  -23.8352   -9.8786   22.2354 C   0  0  0  0  0  0  0  0  0  0  0  0
  -31.3949  -20.2211   37.6656 C   0  0  0  0  0  0  0  0  0  0  0  0
  -31.2945  -20.0371   34.8902 C   0  0  0  0  0  0  0  0  0  0  0  0
  -28.3778  -20.9722   29.5870 C   0  0  0  0  0  0  0  0  0  0  0  0
  -22.3287   -8.7179   20.1944 C   0  0  0  0  0  0  0  0  0  0  0  0
  -23.0915   -8.7256   22.4868 C   0  0  0  0  0  0  0  0  0  0  0  0
  -28.6149  -20.5124   28.2924 C   0  0  0  0  0  0  0  0  0  0  0  0
  -19.9435   -5.9778   20.3268 C   0  0  0  0  0  0  0  0  0  0  0  0
  -18.6372   -5.9298   19.8402 C   0  0  0  0  0  0  0  0  0  0  0  0
  -27.0281  -18.7293   28.6415 C   0  0  0  0  0  0  0  0  0  0  0  0
  -18.0739   -7.8732   21.1605 C   0  0  0  0  0  0  0  0  0  0  0  0
  -30.2391  -18.1975   24.0011 C   0  0  0  0  0  0  0  0  0  0  0  0
  -23.8257  -10.4512   20.9636 C   0  0  0  0  0  0  0  0  0  0  0  0
  -28.7101  -18.3323   22.3537 C   0  0  0  0  0  0  0  0  0  0  0  0
  -24.1676  -12.9763   20.8422 C   0  0  0  0  0  0  0  0  0  0  0  0
  -30.4519  -19.3714   37.0661 C   0  0  0  0  0  0  0  0  0  0  0  0
  -27.4706  -20.3064   30.4238 C   0  0  0  0  0  0  0  0  0  0  0  0
  -30.4066  -19.2692   35.6626 C   0  0  0  0  0  0  0  0  0  0  0  0
  -26.7794  -19.1841   29.9455 C   0  0  0  0  0  0  0  0  0  0  0  0
  -29.9587  -17.7728   22.7211 C   0  0  0  0  0  0  0  0  0  0  0  0
  -22.3383   -8.1453   21.4662 C   0  0  0  0  0  0  0  0  0  0  0  0
  -27.9422  -19.3891   27.8204 C   0  0  0  0  0  0  0  0  0  0  0  0
  -20.3150   -6.9735   21.2303 C   0  0  0  0  0  0  0  0  0  0  0  0
  -17.7024   -6.8774   20.2570 C   0  0  0  0  0  0  0  0  0  0  0  0
  -19.3802   -7.9212   21.6471 C   0  0  0  0  0  0  0  0  0  0  0  0
  -24.5946  -11.6420   20.7044 C   0  0  0  0  0  0  0  0  0  0  0  0
  -28.2656  -19.0822   23.4203 C   0  0  0  0  0  0  0  0  0  0  0  0
  -25.2594  -13.7256   20.4773 C   0  0  0  0  0  0  0  0  0  0  0  0
  -28.0060  -18.1711   21.1121 C   0  0  0  0  0  0  0  0  0  0  0  0
  -22.8977  -13.4924   21.2626 C   0  0  0  0  0  0  0  0  0  0  0  0
  -27.6855  -18.7900   33.2092 C   0  0  0  0  0  0  0  0  0  0  0  0
  -24.4565  -18.6438   32.9356 C   0  0  0  0  0  0  0  0  0  0  0  0
  -21.7168  -18.6799   30.9010 C   0  0  0  0  0  0  0  0  0  0  0  0
  -30.7435  -14.7441   20.6582 C   0  0  0  0  0  0  0  0  0  0  0  0
  -29.5581  -18.5395   37.9514 C   0  0  0  0  0  0  0  0  0  0  0  0
  -27.2062  -20.8307   31.8086 C   0  0  0  0  0  0  0  0  0  0  0  0
  -25.7804  -18.4456   30.7970 C   0  0  0  0  0  0  0  0  0  0  0  0
  -28.3558  -17.9484   37.2197 C   0  0  0  0  0  0  0  0  0  0  0  0
  -29.6025  -12.3589   18.2737 C   0  0  0  0  0  0  0  0  0  0  0  0
  -28.7894  -17.3260   35.8962 C   0  0  0  0  0  0  0  0  0  0  0  0
  -26.6759  -20.9113   22.4207 C   0  0  0  0  0  0  0  0  0  0  0  0
  -27.0158  -21.3539   23.8096 C   0  0  0  0  0  0  0  0  0  0  0  0
  -28.1656  -12.0655   18.7086 C   0  0  0  0  0  0  0  0  0  0  0  0
  -30.5212  -12.5801   19.4734 C   0  0  0  0  0  0  0  0  0  0  0  0
  -28.6214  -13.3118   20.8621 C   0  0  0  0  0  0  0  0  0  0  0  0
  -29.4002  -18.3800   34.9649 C   0  0  1  0  0  0  0  0  0  0  0  0
  -26.9571  -19.8755   23.4884 C   0  0  0  0  0  0  0  0  0  0  0  0
  -26.6438  -19.7714   32.7514 C   0  0  1  0  0  0  0  0  0  0  0  0
  -27.6457  -13.1369   19.6858 C   0  0  2  0  0  0  0  0  0  0  0  0
  -28.1237  -18.4635   18.5619 C   0  0  0  0  0  0  0  0  0  0  0  0
  -19.2143  -18.5027   30.9634 C   0  0  0  0  0  0  0  0  0  0  0  0
  -24.6828  -15.6299   33.3538 C   0  0  0  0  0  0  0  0  0  0  0  0
  -22.3498  -15.4029   32.4741 C   0  0  0  0  0  0  0  0  0  0  0  0
  -22.7742  -16.7096   34.5563 C   0  0  0  0  0  0  0  0  0  0  0  0
  -21.3805  -21.3883   29.7564 C   0  0  0  0  0  0  0  0  0  0  0  0
  -30.8111  -16.8951   21.8942 C   0  0  0  0  0  0  0  0  0  0  0  0
  -28.8111  -17.9431   19.8145 C   0  0  0  0  0  0  0  0  0  0  0  0
  -29.1169  -19.6606   25.7627 C   0  0  0  0  0  0  0  0  0  1  0  0
  -23.4783  -17.6691   32.3257 C   0  0  1  0  0  0  0  0  0  0  0  0
  -20.4082  -19.4445   30.9872 C   0  0  2  0  0  0  0  0  0  0  0  0
  -23.3415  -16.3654   33.1618 C   0  0  0  0  0  0  0  0  0  0  0  0
  -25.8589  -11.5459   20.2845 N   0  0  0  0  0  0  0  0  0  0  0  0
  -29.2031  -18.9931   24.4159 N   0  0  0  0  0  0  0  0  0  0  0  0
  -26.2357  -12.8293   20.1553 N   0  0  0  0  0  0  0  0  0  0  0  0
  -25.5611  -18.9933   32.1459 N   0  0  0  0  0  0  0  0  0  0  0  0
  -29.9719  -13.6089   20.3597 N   0  0  0  0  0  0  0  0  0  0  0  0
  -25.4698  -15.0570   20.4035 N   0  0  0  0  0  0  0  0  0  0  0  0
  -21.8862  -12.5835   21.6015 N   0  0  0  0  0  0  0  0  0  0  0  0
  -28.3593  -19.1770   34.3519 N   0  0  0  0  0  0  0  0  0  0  0  0
  -22.2284  -18.4007   32.1507 N   0  0  0  0  0  0  0  0  0  0  0  0
  -30.1455  -15.6733   21.5007 N   0  0  0  0  0  0  0  0  0  0  0  0
  -20.2841  -20.3895   29.8415 N   0  3  0  0  0  0  0  0  0  0  0  0
  -26.7578  -18.2050   21.0129 O   0  0  0  0  0  0  0  0  0  0  0  0
  -22.6617  -14.7231   21.3198 O   0  0  0  0  0  0  0  0  0  0  0  0
  -27.8636  -17.7575   32.5737 O   0  0  0  0  0  0  0  0  0  0  0  0
  -24.2445  -19.0846   34.0680 O   0  0  0  0  0  0  0  0  0  0  0  0
  -22.2316  -18.3589   29.8322 O   0  0  0  0  0  0  0  0  0  0  0  0
  -31.8788  -14.9193   20.2030 O   0  0  0  0  0  0  0  0  0  0  0  0
  -21.6125   -7.0203   21.7119 O   0  0  0  0  0  0  0  0  0  0  0  0
  -28.1722  -18.9379   26.5573 O   0  0  0  0  0  0  0  0  0  1  0  0
  -16.4483   -6.8321   19.7885 F   0  0  0  0  0  0  0  0  0  0  0  0
  -19.7316   -8.8808   22.5140 F   0  0  0  0  0  0  0  0  0  0  0  0
  1  2  1  0  0  0  0
  1  5  2  0  0  0  0
  2  6  2  0  0  0  0
  3  8  2  0  0  0  0
  3 16  1  0  0  0  0
  4  9  1  0  0  0  0
  4 16  2  0  0  0  0
  5 19  1  0  0  0  0
  6 21  1  0  0  0  0
  7 10  2  0  0  0  0
  7 20  1  0  0  0  0
  8 24  1  0  0  0  0
  9 24  2  0  0  0  0
 10 25  1  0  0  0  0
 11 12  2  0  0  0  0
 11 26  1  0  0  0  0
 12 27  1  0  0  0  0
 13 22  1  0  0  0  0
 13 25  2  0  0  0  0
 14 27  2  0  0  0  0
 14 28  1  0  0  0  0
 15 23  2  0  0  0  0
 15 66  1  0  0  0  0
 16 29  1  0  0  0  0
 17 23  1  0  0  0  0
 17 30  2  0  0  0  0
 17 32  1  0  0  0  0
 18 29  1  0  0  0  0
 18 31  2  0  0  0  0
 18 33  1  0  0  0  0
 19 21  2  0  0  0  0
 19 38  1  0  0  0  0
 20 22  2  0  0  0  0
 20 39  1  0  0  0  0
 21 49  1  0  0  0  0
 22 40  1  0  0  0  0
 23 59  1  0  0  0  0
 24 82  1  0  0  0  0
 25 83  1  0  0  0  0
 26 28  2  0  0  0  0
 26 82  1  0  0  0  0
 27 84  1  0  0  0  0
 28 85  1  0  0  0  0
 29 65  2  0  0  0  0
 30 50  1  0  0  0  0
 30 66  1  0  0  0  0
 31 67  1  0  0  0  0
 31 70  1  0  0  0  0
 32 60  1  0  0  0  0
 32 76  2  0  0  0  0
 33 71  1  0  0  0  0
 33 77  2  0  0  0  0
 34 51  1  0  0  0  0
 34 72  1  0  0  0  0
 34 78  2  0  0  0  0
 35 62  1  0  0  0  0
 35 68  1  0  0  0  0
 35 79  2  0  0  0  0
 36 63  1  0  0  0  0
 36 73  1  0  0  0  0
 36 80  2  0  0  0  0
 37 69  1  0  0  0  0
 37 74  1  0  0  0  0
 37 81  2  0  0  0  0
 38 41  1  0  0  0  0
 39 51  1  0  0  0  0
 40 68  1  0  0  0  0
 41 43  1  0  0  0  0
 42 46  1  0  0  0  0
 42 47  1  0  0  0  0
 43 49  1  0  0  0  0
 44 45  1  0  0  0  0
 44 50  1  0  0  0  0
 45 50  1  0  0  0  0
 46 52  1  0  0  0  0
 47 69  1  0  0  0  0
 48 52  1  0  0  0  0
 48 69  1  0  0  0  0
 49 72  1  0  0  0  0
 51 68  1  0  0  0  0
 52 67  1  0  0  0  0
 53 60  1  0  0  0  0
 54 63  1  0  0  0  0
 55 64  1  0  0  0  0
 56 64  1  0  0  0  0
 57 64  1  0  0  0  0
 58 75  1  0  0  0  0
 59 74  1  0  0  0  0
 61 66  1  0  0  0  0
 61 83  1  0  0  0  0
 62 64  1  0  0  0  0
 62 73  1  0  0  0  0
 63 75  1  0  0  0  0
 65 67  1  0  0  0  0
M  CHG  1  75   1
M  ISO  4  37 100  61 101  74 100  83 101
M  END
> <Batch ID>
0105

> <Smiles>
CCC(=O)c1c(C[100NH:0][100C:0](=O)N2CCCC(n3nc(-c4ccc(Oc5ccc(F)cc5F)cc4)c(C(N)=O)c3N)C2)cn([101CH2:1][101O:1]c2ccc3c(c2)CN(C(=O)C(NC(=O)C(C)NC)C(C)(C)C)C(C(=O)NC2CCCc4ccccc42)C3)c1C1CC1

> <Shape>
0.164

> <Color>
0.191

> <Negative vol penalty>
0.000

$$$$

  -OEChem-04052319463D

 83 91  0     1  0  0  0  0  0999 V2000
  -17.7231  -14.8236   23.3366 C   0  0  0  0  0  0  0  0  0  0  0  0
  -19.0237  -15.3089   23.4278 C   0  0  0  0  0  0  0  0  0  0  0  0
  -23.2858   -9.8011   19.9140 C   0  0  0  0  0  0  0  0  0  0  0  0
  -23.7368   -9.9425   22.2833 C   0  0  0  0  0  0  0  0  0  0  0  0
  -17.1867  -14.0698   24.3796 C   0  0  0  0  0  0  0  0  0  0  0  0
  -19.7884  -15.0415   24.5629 C   0  0  0  0  0  0  0  0  0  0  0  0
  -25.8332  -14.0851   24.7880 C   0  0  0  0  0  0  0  0  0  0  0  0
  -22.5590   -8.6289   20.1222 C   0  0  0  0  0  0  0  0  0  0  0  0
  -23.0099   -8.7703   22.4916 C   0  0  0  0  0  0  0  0  0  0  0  0
  -26.9036  -14.9194   25.1074 C   0  0  0  0  0  0  0  0  0  0  0  0
  -20.8869   -5.4026   19.9854 C   0  0  0  0  0  0  0  0  0  0  0  0
  -21.1114   -4.3354   19.1158 C   0  0  0  0  0  0  0  0  0  0  0  0
  -26.8708  -14.0849   27.3706 C   0  0  0  0  0  0  0  0  0  0  0  0
  -32.8288  -13.5364   23.9065 C   0  0  0  0  0  0  0  0  0  0  0  0
  -23.4344   -4.2845   19.7777 C   0  0  0  0  0  0  0  0  0  0  0  0
  -31.0025  -13.1218   25.1566 C   0  0  0  0  0  0  0  0  0  0  0  0
  -23.8748  -10.4578   20.9945 C   0  0  0  0  0  0  0  0  0  0  0  0
  -24.1351  -12.9877   20.7949 C   0  0  0  0  0  0  0  0  0  0  0  0
  -17.9485  -13.7849   25.5238 C   0  0  0  0  0  0  0  0  0  0  0  0
  -25.2656  -13.2510   25.7619 C   0  0  0  0  0  0  0  0  0  0  0  0
  -19.2612  -14.2843   25.6228 C   0  0  0  0  0  0  0  0  0  0  0  0
  -25.7950  -13.2391   27.0603 C   0  0  0  0  0  0  0  0  0  0  0  0
  -31.4599  -13.1746   23.8584 C   0  0  0  0  0  0  0  0  0  0  0  0
  -22.4210   -8.1135   21.4110 C   0  0  0  0  0  0  0  0  0  0  0  0
  -27.4207  -14.9215   26.3996 C   0  0  0  0  0  0  0  0  0  0  0  0
  -21.9363   -5.9109   20.7512 C   0  0  0  0  0  0  0  0  0  0  0  0
  -22.3850   -3.7763   19.0119 C   0  0  0  0  0  0  0  0  0  0  0  0
  -23.2099   -5.3518   20.6473 C   0  0  0  0  0  0  0  0  0  0  0  0
  -24.6262  -11.6684   20.7800 C   0  0  0  0  0  0  0  0  0  0  0  0
  -33.1663  -13.6935   25.2327 C   0  0  0  0  0  0  0  0  0  0  0  0
  -25.2369  -13.7670   20.5395 C   0  0  0  0  0  0  0  0  0  0  0  0
  -22.8023  -13.4659   21.0195 C   0  0  0  0  0  0  0  0  0  0  0  0
  -22.3938  -12.9974   27.1006 C   0  0  0  0  0  0  0  0  0  0  0  0
  -23.7025  -10.3741   28.4892 C   0  0  0  0  0  0  0  0  0  0  0  0
  -26.5175   -8.7328   29.5035 C   0  0  0  0  0  0  0  0  0  0  0  0
  -31.0969  -12.9510   21.3756 C   0  0  0  0  0  0  0  0  0  0  0  0
  -17.3094  -13.0059   26.6460 C   0  0  0  0  0  0  0  0  0  0  0  0
  -24.1286  -12.3374   25.3945 C   0  0  0  0  0  0  0  0  0  0  0  0
  -25.2345  -12.3475   28.1371 C   0  0  0  0  0  0  0  0  0  0  0  0
  -18.3146  -12.4506   27.6517 C   0  0  0  0  0  0  0  0  0  0  0  0
  -29.4637  -13.6544   18.2909 C   0  0  0  0  0  0  0  0  0  0  0  0
  -19.3254  -13.5235   28.0441 C   0  0  0  0  0  0  0  0  0  0  0  0
  -27.9923  -13.3509   18.5823 C   0  0  0  0  0  0  0  0  0  0  0  0
  -30.3965  -12.6793   19.0069 C   0  0  0  0  0  0  0  0  0  0  0  0
  -28.7032  -12.2527   20.7446 C   0  0  0  0  0  0  0  0  0  0  0  0
  -20.1306  -13.9945   26.8271 C   0  0  1  0  0  0  0  0  0  0  0  0
  -23.2959  -11.9060   26.5978 C   0  0  1  0  0  0  0  0  0  0  0  0
  -27.7272  -13.2487   20.0972 C   0  0  2  0  0  0  0  0  0  0  0  0
  -34.4588  -14.0648   25.8440 C   0  0  0  0  0  0  0  0  0  0  0  0
  -27.2670   -6.6253   30.6410 C   0  0  0  0  0  0  0  0  0  0  0  0
  -31.8109  -14.8314   29.6032 C   0  0  0  0  0  0  0  0  0  0  0  0
  -30.8999  -17.2700   27.8917 C   0  0  0  0  0  0  0  0  0  0  0  0
  -22.8418  -11.5239   31.1812 C   0  0  0  0  0  0  0  0  0  0  0  0
  -24.4085   -9.9164   32.2901 C   0  0  0  0  0  0  0  0  0  0  0  0
  -22.4938   -9.0591   30.9403 C   0  0  0  0  0  0  0  0  0  0  0  0
  -28.0532   -7.8597   27.1290 C   0  0  0  0  0  0  0  0  0  0  0  0
  -31.9618  -13.4938   27.4894 C   0  0  0  0  0  0  0  0  0  0  0  0
  -29.3546  -15.2852   27.7352 C   0  0  0  0  0  0  0  0  0  1  0  0
  -24.4693  -10.1085   29.7621 C   0  0  1  0  0  0  0  0  0  0  0  0
  -26.9718   -7.2975   29.3092 C   0  0  2  0  0  0  0  0  0  0  0  0
  -31.8999  -14.9263   28.0735 C   0  0  1  0  0  0  0  0  0  0  0  0
  -30.7723  -15.8028   27.4511 C   0  0  2  0  0  0  0  0  0  0  0  0
  -23.5629  -10.1703   31.0239 C   0  0  0  0  0  0  0  0  0  0  0  0
  -25.9377  -11.6091   20.5344 N   0  0  0  0  0  0  0  0  0  0  0  0
  -32.0485  -13.4387   25.9835 N   0  0  0  0  0  0  0  0  0  0  0  0
  -26.2802  -12.9009   20.3926 N   0  0  0  0  0  0  0  0  0  0  0  0
  -24.1191  -11.4769   27.7302 N   0  0  0  0  0  0  0  0  0  0  0  0
  -30.0897  -12.6382   20.4383 N   0  0  0  0  0  0  0  0  0  0  0  0
  -25.4053  -15.1018   20.4285 N   0  0  0  0  0  0  0  0  0  0  0  0
  -21.7893  -12.5295   21.2674 N   0  0  0  0  0  0  0  0  0  0  0  0
  -30.6797  -12.9103   22.7055 N   0  0  0  0  0  0  0  0  0  0  0  0
  -21.1533  -13.0267   26.4924 N   0  0  0  0  0  0  0  0  0  0  0  0
  -25.1437   -8.8288   29.5730 N   0  0  0  0  0  0  0  0  0  0  0  0
  -28.2069   -7.2533   28.4765 N   0  3  0  0  0  0  0  0  0  0  0  0
  -22.5148  -14.6864   20.9847 O   0  0  0  0  0  0  0  0  0  0  0  0
  -22.7930  -13.7556   27.9765 O   0  0  0  0  0  0  0  0  0  0  0  0
  -22.7728   -9.6263   28.1760 O   0  0  0  0  0  0  0  0  0  0  0  0
  -27.3029   -9.6743   29.5891 O   0  0  0  0  0  0  0  0  0  0  0  0
  -32.2379  -13.2607   21.0230 O   0  0  0  0  0  0  0  0  0  0  0  0
  -21.7117   -6.9699   21.6147 O   0  0  0  0  0  0  0  0  0  0  0  0
  -28.4650  -15.7353   26.7142 O   0  0  0  0  0  0  0  0  0  1  0  0
  -22.6001   -2.7505   18.1779 F   0  0  0  0  0  0  0  0  0  0  0  0
  -24.2217   -5.8350   21.3813 F   0  0  0  0  0  0  0  0  0  0  0  0
  1  2  1  0  0  0  0
  1  5  2  0  0  0  0
  2  6  2  0  0  0  0
  3  8  2  0  0  0  0
  3 17  1  0  0  0  0
  4  9  1  0  0  0  0
  4 17  2  0  0  0  0
  5 19  1  0  0  0  0
  6 21  1  0  0  0  0
  7 10  2  0  0  0  0
  7 20  1  0  0  0  0
  8 24  1  0  0  0  0
  9 24  2  0  0  0  0
 10 25  1  0  0  0  0
 11 12  2  0  0  0  0
 11 26  1  0  0  0  0
 12 27  1  0  0  0  0
 13 22  1  0  0  0  0
 13 25  2  0  0  0  0
 14 23  1  0  0  0  0
 14 30  2  0  0  0  0
 15 27  2  0  0  0  0
 15 28  1  0  0  0  0
 16 23  2  0  0  0  0
 16 65  1  0  0  0  0
 17 29  1  0  0  0  0
 18 29  1  0  0  0  0
 18 31  2  0  0  0  0
 18 32  1  0  0  0  0
 19 21  2  0  0  0  0
 19 37  1  0  0  0  0
 20 22  2  0  0  0  0
 20 38  1  0  0  0  0
 21 46  1  0  0  0  0
 22 39  1  0  0  0  0
 23 71  1  0  0  0  0
 24 80  1  0  0  0  0
 25 81  1  0  0  0  0
 26 28  2  0  0  0  0
 26 80  1  0  0  0  0
 27 82  1  0  0  0  0
 28 83  1  0  0  0  0
 29 64  2  0  0  0  0
 30 49  1  0  0  0  0
 30 65  1  0  0  0  0
 31 66  1  0  0  0  0
 31 69  1  0  0  0  0
 32 70  1  0  0  0  0
 32 75  2  0  0  0  0
 33 47  1  0  0  0  0
 33 72  1  0  0  0  0
 33 76  2  0  0  0  0
 34 59  1  0  0  0  0
 34 67  1  0  0  0  0
 34 77  2  0  0  0  0
 35 60  1  0  0  0  0
 35 73  1  0  0  0  0
 35 78  2  0  0  0  0
 36 68  1  0  0  0  0
 36 71  1  0  0  0  0
 36 79  2  0  0  0  0
 37 40  1  0  0  0  0
 38 47  1  0  0  0  0
 39 67  1  0  0  0  0
 40 42  1  0  0  0  0
 41 43  1  0  0  0  0
 41 44  1  0  0  0  0
 42 46  1  0  0  0  0
 43 48  1  0  0  0  0
 44 68  1  0  0  0  0
 45 48  1  0  0  0  0
 45 68  1  0  0  0  0
 46 72  1  0  0  0  0
 47 67  1  0  0  0  0
 48 66  1  0  0  0  0
 50 60  1  0  0  0  0
 51 61  1  0  0  0  0
 52 62  1  0  0  0  0
 53 63  1  0  0  0  0
 54 63  1  0  0  0  0
 55 63  1  0  0  0  0
 56 74  1  0  0  0  0
 57 61  1  0  0  0  0
 57 65  1  0  0  0  0
 58 62  1  0  0  0  0
 58 81  1  0  0  0  0
 59 63  1  0  0  0  0
 59 73  1  0  0  0  0
 60 74  1  0  0  0  0
 61 62  1  0  0  0  0
 64 66  1  0  0  0  0
M  CHG  1  74   1
M  ISO  4  36 100  58 101  71 100  81 101
M  END
> <Batch ID>
0105

> <Smiles>
CNC(C)C(=O)NC(C(=O)N1Cc2cc([101O:1][101CH2:1]C(C)C(C)Cn3cc([100NH:0][100C:0](=O)N4CCCC(n5nc(-c6ccc(Oc7ccc(F)cc7F)cc6)c(C(N)=O)c5N)C4)cc3C)ccc2CC1C(=O)NC1CCCc2ccccc21)C(C)(C)C

> <Shape>
0.121

> <Color>
0.174

> <Negative vol penalty>
0.000

$$$$

  -OEChem-04052319463D

 84 92  0     1  0  0  0  0  0999 V2000
  -20.7432  -29.5265   25.5253 C   0  0  0  0  0  0  0  0  0  0  0  0
  -21.0436  -28.2166   25.8848 C   0  0  0  0  0  0  0  0  0  0  0  0
  -29.7531  -23.6530   19.3297 C   0  0  0  0  0  0  0  0  0  0  0  0
  -28.2742  -23.7177   21.2390 C   0  0  0  0  0  0  0  0  0  0  0  0
  -20.0594  -29.7828   24.3376 C   0  0  0  0  0  0  0  0  0  0  0  0
  -20.6594  -27.1621   25.0573 C   0  0  0  0  0  0  0  0  0  0  0  0
  -22.7837  -20.6492   22.9630 C   0  0  0  0  0  0  0  0  0  0  0  0
  -29.6280  -25.0347   19.1858 C   0  0  0  0  0  0  0  0  0  0  0  0
  -28.1490  -25.0995   21.0952 C   0  0  0  0  0  0  0  0  0  0  0  0
  -22.3092  -19.3422   22.8622 C   0  0  0  0  0  0  0  0  0  0  0  0
  -27.1538  -28.5942   21.0127 C   0  0  0  0  0  0  0  0  0  0  0  0
  -25.8752  -29.1430   21.1105 C   0  0  0  0  0  0  0  0  0  0  0  0
  -21.2021  -19.9099   20.7955 C   0  0  0  0  0  0  0  0  0  0  0  0
  -22.9064  -12.9017   21.2401 C   0  0  0  0  0  0  0  0  0  0  0  0
  -25.1572  -27.8053   19.2310 C   0  0  0  0  0  0  0  0  0  0  0  0
  -24.2617  -13.1258   23.1816 C   0  0  0  0  0  0  0  0  0  0  0  0
  -21.9893  -12.9014   23.4344 C   0  0  0  0  0  0  0  0  0  0  0  0
  -29.0761  -22.9944   20.3562 C   0  0  0  0  0  0  0  0  0  0  0  0
  -30.1621  -20.8748   21.2704 C   0  0  0  0  0  0  0  0  0  0  0  0
  -19.6751  -28.7316   23.4904 C   0  0  0  0  0  0  0  0  0  0  0  0
  -22.4615  -21.6009   21.9848 C   0  0  0  0  0  0  0  0  0  0  0  0
  -19.9686  -27.4045   23.8578 C   0  0  0  0  0  0  0  0  0  0  0  0
  -21.6759  -21.2277   20.8849 C   0  0  0  0  0  0  0  0  0  0  0  0
  -24.1693  -13.0566   21.8009 C   0  0  0  0  0  0  0  0  0  0  0  0
  -21.7903  -12.8219   22.0655 C   0  0  0  0  0  0  0  0  0  0  0  0
  -28.8260  -25.7580   20.0686 C   0  0  0  0  0  0  0  0  0  0  0  0
  -21.5158  -18.9731   21.7799 C   0  0  0  0  0  0  0  0  0  0  0  0
  -27.4342  -27.6509   20.0240 C   0  0  0  0  0  0  0  0  0  0  0  0
  -24.8769  -28.7486   20.2197 C   0  0  0  0  0  0  0  0  0  0  0  0
  -26.4359  -27.2565   19.1332 C   0  0  0  0  0  0  0  0  0  0  0  0
  -29.2046  -21.5670   20.5050 C   0  0  0  0  0  0  0  0  0  0  0  0
  -29.8589  -19.5486   21.0816 C   0  0  0  0  0  0  0  0  0  0  0  0
  -31.2299  -21.3851   22.0797 C   0  0  0  0  0  0  0  0  0  0  0  0
  -20.8847  -24.3609   21.9737 C   0  0  0  0  0  0  0  0  0  0  0  0
  -21.9119  -24.4882   18.8994 C   0  0  0  0  0  0  0  0  0  0  0  0
  -22.9877  -22.8054   16.1322 C   0  0  0  0  0  0  0  0  0  0  0  0
  -26.1960  -15.4876   20.8854 C   0  0  0  0  0  0  0  0  0  0  0  0
  -18.8961  -29.0547   22.2400 C   0  0  0  0  0  0  0  0  0  0  0  0
  -23.0034  -22.9997   22.0942 C   0  0  0  0  0  0  0  0  0  0  0  0
  -21.3182  -22.2064   19.7973 C   0  0  0  0  0  0  0  0  0  0  0  0
  -18.8542  -27.9066   21.2347 C   0  0  0  0  0  0  0  0  0  0  0  0
  -26.7090  -17.3224   17.8084 C   0  0  0  0  0  0  0  0  0  0  0  0
  -18.5199  -26.5943   21.9367 C   0  0  0  0  0  0  0  0  0  0  0  0
  -27.4888  -18.5404   18.3070 C   0  0  0  0  0  0  0  0  0  0  0  0
  -25.6419  -16.8997   18.8138 C   0  0  0  0  0  0  0  0  0  0  0  0
  -26.9396  -17.8433   20.6845 C   0  0  0  0  0  0  0  0  0  0  0  0
  -19.5904  -26.2354   22.9744 C   0  0  1  0  0  0  0  0  0  0  0  0
  -22.1872  -24.0200   21.3066 C   0  0  1  0  0  0  0  0  0  0  0  0
  -28.0489  -18.3062   19.7225 C   0  0  2  0  0  0  0  0  0  0  0  0
  -19.7794  -11.3154   21.9223 C   0  0  0  0  0  0  0  0  0  0  0  0
  -23.9039  -22.4712   13.8200 C   0  0  0  0  0  0  0  0  0  0  0  0
  -19.0053  -24.9200   18.0777 C   0  0  0  0  0  0  0  0  0  0  0  0
  -19.6550  -24.3370   15.7311 C   0  0  0  0  0  0  0  0  0  0  0  0
  -20.6593  -26.3317   16.8425 C   0  0  0  0  0  0  0  0  0  0  0  0
  -25.7823  -22.8779   17.1036 C   0  0  0  0  0  0  0  0  0  0  0  0
  -25.3829  -13.1440   20.9452 C   0  0  0  0  0  0  0  0  0  0  0  0
  -19.1216  -16.2683   21.5509 C   0  0  0  0  0  0  0  0  0  0  0  0
  -19.4527  -13.8093   21.8378 C   0  0  0  0  0  0  0  0  0  0  0  0
  -19.8014  -17.5130   21.0153 C   0  0  0  0  0  0  0  0  0  1  0  0
  -20.3927  -12.6500   21.4825 C   0  0  1  0  0  0  0  0  0  0  0  0
  -21.3707  -24.0176   17.5711 C   0  0  1  0  0  0  0  0  0  0  0  0
  -24.1669  -23.0403   15.2055 C   0  0  2  0  0  0  0  0  0  0  0  0
  -20.1775  -24.8834   17.0769 C   0  0  0  0  0  0  0  0  0  0  0  0
  -23.2004  -13.0520   24.0158 N   0  0  0  0  0  0  0  0  0  0  0  0
  -28.3567  -20.7482   19.8767 N   0  0  0  0  0  0  0  0  0  0  0  0
  -28.7805  -19.5278   20.2469 N   0  0  0  0  0  0  0  0  0  0  0  0
  -21.8669  -23.5637   19.9526 N   0  0  0  0  0  0  0  0  0  0  0  0
  -26.2434  -16.6747   20.1358 N   0  0  0  0  0  0  0  0  0  0  0  0
  -30.4124  -18.4098   21.5498 N   0  0  0  0  0  0  0  0  0  0  0  0
  -31.4001  -22.7737   22.1634 N   0  0  0  0  0  0  0  0  0  0  0  0
  -20.7632  -25.6922   22.3235 N   0  0  0  0  0  0  0  0  0  0  0  0
  -22.5061  -23.9867   16.6555 N   0  0  0  0  0  0  0  0  0  0  0  0
  -25.5117  -14.4306   20.2978 N   0  0  0  0  0  0  0  0  0  0  0  0
  -25.3932  -22.3948   15.7537 N   0  3  0  0  0  0  0  0  0  0  0  0
  -20.0014  -15.0939   21.3254 N   0  3  0  0  0  0  0  0  0  0  0  0
  -32.0203  -20.6314   22.6968 O   0  0  0  0  0  0  0  0  0  0  0  0
  -20.0510  -23.4814   22.1561 O   0  0  0  0  0  0  0  0  0  0  0  0
  -22.3646  -25.6315   18.9972 O   0  0  0  0  0  0  0  0  0  0  0  0
  -22.5364  -21.6863   16.3654 O   0  0  0  0  0  0  0  0  0  0  0  0
  -26.7290  -15.3759   21.9947 O   0  0  0  0  0  0  0  0  0  0  0  0
  -28.7038  -27.1064   19.9287 O   0  0  0  0  0  0  0  0  0  0  0  0
  -21.0508  -17.6981   21.6794 O   0  0  0  0  0  0  0  0  0  1  0  0
  -23.6487  -29.2746   20.3147 F   0  0  0  0  0  0  0  0  0  0  0  0
  -26.6989  -26.3499   18.1821 F   0  0  0  0  0  0  0  0  0  0  0  0
  1  2  1  0  0  0  0
  1  5  2  0  0  0  0
  2  6  2  0  0  0  0
  3  8  2  0  0  0  0
  3 18  1  0  0  0  0
  4  9  1  0  0  0  0
  4 18  2  0  0  0  0
  5 20  1  0  0  0  0
  6 22  1  0  0  0  0
  7 10  2  0  0  0  0
  7 21  1  0  0  0  0
  8 26  1  0  0  0  0
  9 26  2  0  0  0  0
 10 27  1  0  0  0  0
 11 12  2  0  0  0  0
 11 28  1  0  0  0  0
 12 29  1  0  0  0  0
 13 23  1  0  0  0  0
 13 27  2  0  0  0  0
 14 24  1  0  0  0  0
 14 25  2  0  0  0  0
 15 29  2  0  0  0  0
 15 30  1  0  0  0  0
 16 24  2  0  0  0  0
 16 64  1  0  0  0  0
 17 25  1  0  0  0  0
 17 64  2  0  0  0  0
 18 31  1  0  0  0  0
 19 31  1  0  0  0  0
 19 32  2  0  0  0  0
 19 33  1  0  0  0  0
 20 22  2  0  0  0  0
 20 38  1  0  0  0  0
 21 23  2  0  0  0  0
 21 39  1  0  0  0  0
 22 47  1  0  0  0  0
 23 40  1  0  0  0  0
 24 56  1  0  0  0  0
 25 60  1  0  0  0  0
 26 81  1  0  0  0  0
 27 82  1  0  0  0  0
 28 30  2  0  0  0  0
 28 81  1  0  0  0  0
 29 83  1  0  0  0  0
 30 84  1  0  0  0  0
 31 65  2  0  0  0  0
 32 66  1  0  0  0  0
 32 69  1  0  0  0  0
 33 70  1  0  0  0  0
 33 76  2  0  0  0  0
 34 48  1  0  0  0  0
 34 71  1  0  0  0  0
 34 77  2  0  0  0  0
 35 61  1  0  0  0  0
 35 67  1  0  0  0  0
 35 78  2  0  0  0  0
 36 62  1  0  0  0  0
 36 72  1  0  0  0  0
 36 79  2  0  0  0  0
 37 68  1  0  0  0  0
 37 73  1  0  0  0  0
 37 80  2  0  0  0  0
 38 41  1  0  0  0  0
 39 48  1  0  0  0  0
 40 67  1  0  0  0  0
 41 43  1  0  0  0  0
 42 44  1  0  0  0  0
 42 45  1  0  0  0  0
 43 47  1  0  0  0  0
 44 49  1  0  0  0  0
 45 68  1  0  0  0  0
 46 49  1  0  0  0  0
 46 68  1  0  0  0  0
 47 71  1  0  0  0  0
 48 67  1  0  0  0  0
 49 66  1  0  0  0  0
 50 60  1  0  0  0  0
 51 62  1  0  0  0  0
 52 63  1  0  0  0  0
 53 63  1  0  0  0  0
 54 63  1  0  0  0  0
 55 74  1  0  0  0  0
 56 73  1  0  0  0  0
 57 59  1  0  0  0  0
 57 75  1  0  0  0  0
 58 60  1  0  0  0  0
 58 75  1  0  0  0  0
 59 82  1  0  0  0  0
 61 63  1  0  0  0  0
 61 72  1  0  0  0  0
 62 74  1  0  0  0  0
 65 66  1  0  0  0  0
M  CHG  2  74   1  75   1
M  ISO  4  37 100  59 101  73 100  82 101
M  END
> <Batch ID>
0105

> <Smiles>
CNC(C)C(=O)NC(C(=O)N1Cc2cc([101O:1][101CH2:1]CNCC(C)c3cncc(C[100NH:0][100C:0](=O)N4CCCC(n5nc(-c6ccc(Oc7ccc(F)cc7F)cc6)c(C(N)=O)c5N)C4)c3)ccc2CC1C(=O)NC1CCCc2ccccc21)C(C)(C)C

> <Shape>
0.202

> <Color>
0.068

> <Negative vol penalty>
0.000

$$$$

  -OEChem-04052319463D

 84 92  0     1  0  0  0  0  0999 V2000
  -17.2302  -25.7978   23.8507 C   0  0  0  0  0  0  0  0  0  0  0  0
  -18.4740  -25.7602   23.2288 C   0  0  0  0  0  0  0  0  0  0  0  0
  -26.7067  -10.6193   21.0255 C   0  0  0  0  0  0  0  0  0  0  0  0
  -25.6455  -12.1666   19.5035 C   0  0  0  0  0  0  0  0  0  0  0  0
  -16.6169  -27.0235   24.1069 C   0  0  0  0  0  0  0  0  0  0  0  0
  -19.1049  -26.9483   22.8616 C   0  0  0  0  0  0  0  0  0  0  0  0
  -24.0204  -26.9943   24.0783 C   0  0  0  0  0  0  0  0  0  0  0  0
  -25.4620  -10.0732   21.3385 C   0  0  0  0  0  0  0  0  0  0  0  0
  -24.4006  -11.6205   19.8164 C   0  0  0  0  0  0  0  0  0  0  0  0
  -24.8883  -26.2855   23.2488 C   0  0  0  0  0  0  0  0  0  0  0  0
  -23.2730   -7.9035   19.9479 C   0  0  0  0  0  0  0  0  0  0  0  0
  -23.1675   -6.5134   19.9921 C   0  0  0  0  0  0  0  0  0  0  0  0
  -27.7093  -20.0381   21.0589 C   0  0  0  0  0  0  0  0  0  0  0  0
  -25.5183  -28.3435   22.1595 C   0  0  0  0  0  0  0  0  0  0  0  0
  -22.4953   -6.6381   22.3094 C   0  0  0  0  0  0  0  0  0  0  0  0
  -26.7579  -20.8230   21.6903 C   0  0  0  0  0  0  0  0  0  0  0  0
  -26.7985  -11.6660   20.1081 C   0  0  0  0  0  0  0  0  0  0  0  0
  -28.9585  -11.8227   18.7599 C   0  0  0  0  0  0  0  0  0  0  0  0
  -17.2450  -28.2275   23.7514 C   0  0  0  0  0  0  0  0  0  0  0  0
  -23.8865  -28.3840   23.9471 C   0  0  0  0  0  0  0  0  0  0  0  0
  -18.4989  -28.1911   23.1120 C   0  0  0  0  0  0  0  0  0  0  0  0
  -24.6499  -29.0680   22.9902 C   0  0  0  0  0  0  0  0  0  0  0  0
  -28.6394  -20.6728   20.2432 C   0  0  0  0  0  0  0  0  0  0  0  0
  -28.5903  -22.0535   20.0859 C   0  0  0  0  0  0  0  0  0  0  0  0
  -24.3089  -10.5738   20.7339 C   0  0  0  0  0  0  0  0  0  0  0  0
  -25.6353  -26.9597   22.2873 C   0  0  0  0  0  0  0  0  0  0  0  0
  -22.9897   -8.6610   21.0845 C   0  0  0  0  0  0  0  0  0  0  0  0
  -22.7787   -5.8806   21.1728 C   0  0  0  0  0  0  0  0  0  0  0  0
  -22.6008   -8.0282   22.2652 C   0  0  0  0  0  0  0  0  0  0  0  0
  -28.0840  -12.2309   19.7849 C   0  0  0  0  0  0  0  0  0  0  0  0
  -27.5993  -22.7481   20.7607 C   0  0  0  0  0  0  0  0  0  0  0  0
  -30.0344  -12.6694   18.8691 C   0  0  0  0  0  0  0  0  0  0  0  0
  -28.8113  -10.7722   17.7953 C   0  0  0  0  0  0  0  0  0  0  0  0
  -21.4972  -30.3481   23.2143 C   0  0  0  0  0  0  0  0  0  0  0  0
  -23.6728  -32.6398   23.9472 C   0  0  0  0  0  0  0  0  0  0  0  0
  -26.9537  -33.5302   24.2469 C   0  0  0  0  0  0  0  0  0  0  0  0
  -30.6692  -18.1891   21.1009 C   0  0  0  0  0  0  0  0  0  0  0  0
  -16.5217  -29.5263   24.0059 C   0  0  0  0  0  0  0  0  0  0  0  0
  -22.9659  -29.1374   24.8675 C   0  0  0  0  0  0  0  0  0  0  0  0
  -24.5578  -30.5619   22.8226 C   0  0  0  0  0  0  0  0  0  0  0  0
  -17.4261  -30.7534   23.9237 C   0  0  0  0  0  0  0  0  0  0  0  0
  -32.4457  -15.2647   22.0849 C   0  0  0  0  0  0  0  0  0  0  0  0
  -18.3062  -30.6855   22.6797 C   0  0  0  0  0  0  0  0  0  0  0  0
  -31.6082  -14.1187   21.5145 C   0  0  0  0  0  0  0  0  0  0  0  0
  -31.5688  -16.4143   22.5763 C   0  0  0  0  0  0  0  0  0  0  0  0
  -29.7720  -15.7843   21.0116 C   0  0  0  0  0  0  0  0  0  0  0  0
  -19.2262  -29.4593   22.7210 C   0  0  1  0  0  0  0  0  0  0  0  0
  -22.5256  -30.4839   24.3013 C   0  0  1  0  0  0  0  0  0  0  0  0
  -30.6145  -14.6253   20.4519 C   0  0  2  0  0  0  0  0  0  0  0  0
  -28.4200  -35.4821   24.8276 C   0  0  0  0  0  0  0  0  0  0  0  0
  -30.8176  -23.1891   19.9944 C   0  0  0  0  0  0  0  0  0  0  0  0
  -23.1056  -33.8754   21.2156 C   0  0  0  0  0  0  0  0  0  0  0  0
  -25.2146  -35.2031   21.4558 C   0  0  0  0  0  0  0  0  0  0  0  0
  -23.3473  -35.5271   23.0778 C   0  0  0  0  0  0  0  0  0  0  0  0
  -28.1540  -32.0949   26.5400 C   0  0  0  0  0  0  0  0  0  0  0  0
  -29.6767  -19.8530   19.5498 C   0  0  0  0  0  0  0  0  0  0  0  0
  -27.4956  -24.2481   20.6289 C   0  0  0  0  0  0  0  0  0  0  0  0
  -26.5570  -24.8577   21.6646 C   0  0  0  0  0  0  0  0  0  1  0  0
  -24.7197  -33.4060   23.1753 C   0  0  1  0  0  0  0  0  0  0  0  0
  -27.7058  -34.2468   25.3538 C   0  0  2  0  0  0  0  0  0  0  0  0
  -29.5751  -22.7612   19.2172 C   0  0  0  0  0  0  0  0  0  0  0  0
  -24.0973  -34.4745   22.2327 C   0  0  0  0  0  0  0  0  0  0  0  0
  -26.6787  -22.1664   21.5618 N   0  0  0  0  0  0  0  0  0  0  0  0
  -28.5630  -13.2570   20.4932 N   0  0  0  0  0  0  0  0  0  0  0  0
  -29.7502  -13.5007   19.9124 N   0  0  0  0  0  0  0  0  0  0  0  0
  -23.6390  -31.2532   23.7421 N   0  0  0  0  0  0  0  0  0  0  0  0
  -30.6506  -16.8489   21.5209 N   0  0  0  0  0  0  0  0  0  0  0  0
  -31.1864  -12.7765   18.1736 N   0  0  0  0  0  0  0  0  0  0  0  0
  -27.6434   -9.9979   17.8237 N   0  0  0  0  0  0  0  0  0  0  0  0
  -20.3444  -29.6962   23.6086 N   0  0  0  0  0  0  0  0  0  0  0  0
  -25.6423  -33.9485   24.1667 N   0  0  0  0  0  0  0  0  0  0  0  0
  -29.7715  -18.5158   20.0918 N   0  0  0  0  0  0  0  0  0  0  0  0
  -28.7207  -33.3404   25.9615 N   0  3  0  0  0  0  0  0  0  0  0  0
  -29.6967  -10.5168   16.9442 O   0  0  0  0  0  0  0  0  0  0  0  0
  -21.7316  -30.8025   22.1006 O   0  0  0  0  0  0  0  0  0  0  0  0
  -22.9177  -33.2482   24.7096 O   0  0  0  0  0  0  0  0  0  0  0  0
  -27.4781  -32.6865   23.5232 O   0  0  0  0  0  0  0  0  0  0  0  0
  -31.4332  -19.0310   21.5853 O   0  0  0  0  0  0  0  0  0  0  0  0
  -23.0941  -10.0411   21.0388 O   0  0  0  0  0  0  0  0  0  0  0  0
  -26.4827  -26.2702   21.4759 O   0  0  0  0  0  0  0  0  0  1  0  0
  -22.6759   -4.5458   21.2147 F   0  0  0  0  0  0  0  0  0  0  0  0
  -22.3262   -8.7507   23.3600 F   0  0  0  0  0  0  0  0  0  0  0  0
  -29.0597  -23.8895   18.6318 F   0  0  0  0  0  0  0  0  0  0  0  0
  -30.0050  -21.9976   18.1620 F   0  0  0  0  0  0  0  0  0  0  0  0
  1  2  1  0  0  0  0
  1  5  2  0  0  0  0
  2  6  2  0  0  0  0
  3  8  2  0  0  0  0
  3 17  1  0  0  0  0
  4  9  1  0  0  0  0
  4 17  2  0  0  0  0
  5 19  1  0  0  0  0
  6 21  1  0  0  0  0
  7 10  2  0  0  0  0
  7 20  1  0  0  0  0
  8 25  1  0  0  0  0
  9 25  2  0  0  0  0
 10 26  1  0  0  0  0
 11 12  2  0  0  0  0
 11 27  1  0  0  0  0
 12 28  1  0  0  0  0
 13 16  1  0  0  0  0
 13 23  2  0  0  0  0
 14 22  1  0  0  0  0
 14 26  2  0  0  0  0
 15 28  2  0  0  0  0
 15 29  1  0  0  0  0
 16 63  2  0  0  0  0
 17 30  1  0  0  0  0
 18 30  1  0  0  0  0
 18 32  2  0  0  0  0
 18 33  1  0  0  0  0
 19 21  2  0  0  0  0
 19 38  1  0  0  0  0
 20 22  2  0  0  0  0
 20 39  1  0  0  0  0
 21 47  1  0  0  0  0
 22 40  1  0  0  0  0
 23 24  1  0  0  0  0
 23 56  1  0  0  0  0
 24 31  2  0  0  0  0
 24 61  1  0  0  0  0
 25 79  1  0  0  0  0
 26 80  1  0  0  0  0
 27 29  2  0  0  0  0
 27 79  1  0  0  0  0
 28 81  1  0  0  0  0
 29 82  1  0  0  0  0
 30 64  2  0  0  0  0
 31 57  1  0  0  0  0
 31 63  1  0  0  0  0
 32 65  1  0  0  0  0
 32 68  1  0  0  0  0
 33 69  1  0  0  0  0
 33 74  2  0  0  0  0
 34 48  1  0  0  0  0
 34 70  1  0  0  0  0
 34 75  2  0  0  0  0
 35 59  1  0  0  0  0
 35 66  1  0  0  0  0
 35 76  2  0  0  0  0
 36 60  1  0  0  0  0
 36 71  1  0  0  0  0
 36 77  2  0  0  0  0
 37 67  1  0  0  0  0
 37 72  1  0  0  0  0
 37 78  2  0  0  0  0
 38 41  1  0  0  0  0
 39 48  1  0  0  0  0
 40 66  1  0  0  0  0
 41 43  1  0  0  0  0
 42 44  1  0  0  0  0
 42 45  1  0  0  0  0
 43 47  1  0  0  0  0
 44 49  1  0  0  0  0
 45 67  1  0  0  0  0
 46 49  1  0  0  0  0
 46 67  1  0  0  0  0
 47 70  1  0  0  0  0
 48 66  1  0  0  0  0
 49 65  1  0  0  0  0
 50 60  1  0  0  0  0
 51 61  1  0  0  0  0
 52 62  1  0  0  0  0
 53 62  1  0  0  0  0
 54 62  1  0  0  0  0
 55 73  1  0  0  0  0
 56 72  1  0  0  0  0
 57 58  1  0  0  0  0
 58 80  1  0  0  0  0
 59 62  1  0  0  0  0
 59 71  1  0  0  0  0
 60 73  1  0  0  0  0
 61 83  1  0  0  0  0
 61 84  1  0  0  0  0
 64 65  1  0  0  0  0
M  CHG  1  73   1
M  ISO  4  37 100  58 101  72 100  80 101
M  END
> <Batch ID>
0105

> <Smiles>
CNC(C)C(=O)NC(C(=O)N1Cc2cc([101O:1][101CH2:1]Cc3nccc(C[100NH:0][100C:0](=O)N4CCCC(n5nc(-c6ccc(Oc7ccc(F)cc7F)cc6)c(C(N)=O)c5N)C4)c3C(C)(F)F)ccc2CC1C(=O)NC1CCCc2ccccc21)C(C)(C)C

> <Shape>
0.334

> <Color>
0.063

> <Negative vol penalty>
0.000

$$$$

  -OEChem-04052319463D

 78 85  0     1  0  0  0  0  0999 V2000
  -18.5314  -26.8583   23.3669 C   0  0  0  0  0  0  0  0  0  0  0  0
  -19.6134  -26.0073   23.1660 C   0  0  0  0  0  0  0  0  0  0  0  0
  -24.1189   -9.7456   20.9224 C   0  0  0  0  0  0  0  0  0  0  0  0
  -24.5803  -10.5752   23.1441 C   0  0  0  0  0  0  0  0  0  0  0  0
  -18.5174  -28.1188   22.7713 C   0  0  0  0  0  0  0  0  0  0  0  0
  -20.6817  -26.4160   22.3684 C   0  0  0  0  0  0  0  0  0  0  0  0
  -26.5972  -25.0360   23.1483 C   0  0  0  0  0  0  0  0  0  0  0  0
  -23.7195   -8.5229   21.4619 C   0  0  0  0  0  0  0  0  0  0  0  0
  -24.1808   -9.3525   23.6836 C   0  0  0  0  0  0  0  0  0  0  0  0
  -27.4222  -24.0777   22.5611 C   0  0  0  0  0  0  0  0  0  0  0  0
  -21.2781   -7.7735   24.3915 C   0  0  0  0  0  0  0  0  0  0  0  0
  -20.4385   -7.8015   25.5050 C   0  0  0  0  0  0  0  0  0  0  0  0
  -28.2024  -25.7258   20.9817 C   0  0  0  0  0  0  0  0  0  0  0  0
  -22.0987   -6.6022   26.7868 C   0  0  0  0  0  0  0  0  0  0  0  0
  -24.5493  -10.7718   21.7635 C   0  0  0  0  0  0  0  0  0  0  0  0
  -24.1529  -13.1587   20.9555 C   0  0  0  0  0  0  0  0  0  0  0  0
  -19.5905  -28.5469   21.9739 C   0  0  0  0  0  0  0  0  0  0  0  0
  -26.5605  -26.3458   22.6489 C   0  0  0  0  0  0  0  0  0  0  0  0
  -20.6815  -27.6829   21.7605 C   0  0  0  0  0  0  0  0  0  0  0  0
  -27.3780  -26.6995   21.5660 C   0  0  0  0  0  0  0  0  0  0  0  0
  -23.7504   -8.3263   22.8425 C   0  0  0  0  0  0  0  0  0  0  0  0
  -28.2227  -24.4217   21.4758 C   0  0  0  0  0  0  0  0  0  0  0  0
  -22.5279   -7.1597   24.4755 C   0  0  0  0  0  0  0  0  0  0  0  0
  -20.8488   -7.2159   26.7027 C   0  0  0  0  0  0  0  0  0  0  0  0
  -22.9382   -6.5742   25.6732 C   0  0  0  0  0  0  0  0  0  0  0  0
  -24.9626  -12.0348   21.2068 C   0  0  0  0  0  0  0  0  0  0  0  0
  -25.0134  -14.0911   20.4295 C   0  0  0  0  0  0  0  0  0  0  0  0
  -22.7486  -13.3434   21.1777 C   0  0  0  0  0  0  0  0  0  0  0  0
  -24.3188  -28.1912   21.3553 C   0  0  0  0  0  0  0  0  0  0  0  0
  -26.6398  -30.4519   21.5124 C   0  0  0  0  0  0  0  0  0  0  0  0
  -29.9712  -31.1790   21.6546 C   0  0  0  0  0  0  0  0  0  0  0  0
  -29.9057  -16.7759   20.4841 C   0  0  0  0  0  0  0  0  0  0  0  0
  -19.5088  -29.8999   21.3125 C   0  0  0  0  0  0  0  0  0  0  0  0
  -25.6852  -27.3747   23.3104 C   0  0  0  0  0  0  0  0  0  0  0  0
  -27.3905  -28.0972   21.0051 C   0  0  0  0  0  0  0  0  0  0  0  0
  -20.8508  -30.4028   20.7866 C   0  0  0  0  0  0  0  0  0  0  0  0
  -29.7877  -13.6287   18.8235 C   0  0  0  0  0  0  0  0  0  0  0  0
  -21.5694  -29.2997   20.0160 C   0  0  0  0  0  0  0  0  0  0  0  0
  -28.4587  -13.0241   19.2796 C   0  0  0  0  0  0  0  0  0  0  0  0
  -30.4594  -14.4232   19.9413 C   0  0  0  0  0  0  0  0  0  0  0  0
  -28.2836  -14.8566   21.0145 C   0  0  0  0  0  0  0  0  0  0  0  0
  -21.8704  -28.0998   20.9222 C   0  0  1  0  0  0  0  0  0  0  0  0
  -25.3438  -28.5464   22.3950 C   0  0  1  0  0  0  0  0  0  0  0  0
  -27.5416  -14.0926   19.9045 C   0  0  2  0  0  0  0  0  0  0  0  0
  -31.5626  -33.1175   21.7358 C   0  0  0  0  0  0  0  0  0  0  0  0
  -27.1815  -19.6103   19.6748 C   0  0  0  0  0  0  0  0  0  0  0  0
  -26.1847  -30.9470   18.5362 C   0  0  0  0  0  0  0  0  0  0  0  0
  -28.3776  -32.1534   18.4727 C   0  0  0  0  0  0  0  0  0  0  0  0
  -26.5218  -33.0170   19.8985 C   0  0  0  0  0  0  0  0  0  0  0  0
  -28.6415  -21.9732   18.4345 C   0  0  0  0  0  0  0  0  0  0  0  0
  -30.6833  -21.4301   19.7338 C   0  0  0  0  0  0  0  0  0  0  0  0
  -31.0483  -30.3344   24.2787 C   0  0  0  0  0  0  0  0  0  0  0  0
  -29.2031  -19.0816   21.0751 C   0  0  0  0  0  0  0  0  0  0  0  0
  -28.5891  -22.1313   20.9507 C   0  0  0  0  0  0  0  0  0  1  0  0
  -27.7442  -30.9159   20.5936 C   0  0  1  0  0  0  0  0  0  0  0  0
  -30.7603  -32.1156   22.5515 C   0  0  2  0  0  0  0  0  0  0  0  0
  -28.7028  -19.8106   19.8096 C   0  0  2  0  0  0  0  0  0  0  0  0
  -27.2056  -31.7314   19.3844 C   0  0  0  0  0  0  0  0  0  0  0  0
  -29.1387  -21.3255   19.7491 C   0  0  0  0  0  0  0  0  0  0  0  0
  -26.2393  -12.2330   20.8681 N   0  0  0  0  0  0  0  0  0  0  0  0
  -26.2384  -13.4922   20.3986 N   0  0  0  0  0  0  0  0  0  0  0  0
  -26.5127  -29.0660   21.6822 N   0  0  0  0  0  0  0  0  0  0  0  0
  -29.5372  -15.4205   20.4899 N   0  0  0  0  0  0  0  0  0  0  0  0
  -24.8342  -15.3566   19.9949 N   0  0  0  0  0  0  0  0  0  0  0  0
  -22.0137  -12.2831   21.7254 N   0  0  0  0  0  0  0  0  0  0  0  0
  -23.0127  -28.3779   21.7661 N   0  0  0  0  0  0  0  0  0  0  0  0
  -28.6924  -31.6435   21.4302 N   0  0  0  0  0  0  0  0  0  0  0  0
  -28.9713  -17.6556   21.0169 N   0  0  0  0  0  0  0  0  0  0  0  0
  -31.7047  -31.3415   23.4058 N   0  3  0  0  0  0  0  0  0  0  0  0
  -22.1596  -14.4111   20.8835 O   0  0  0  0  0  0  0  0  0  0  0  0
  -24.6858  -27.7797   20.2609 O   0  0  0  0  0  0  0  0  0  0  0  0
  -25.9211  -31.2886   22.0647 O   0  0  0  0  0  0  0  0  0  0  0  0
  -30.4432  -30.1411   21.1958 O   0  0  0  0  0  0  0  0  0  0  0  0
  -30.9850  -17.1734   20.0324 O   0  0  0  0  0  0  0  0  0  0  0  0
  -23.3605   -7.1334   23.3693 O   0  0  0  0  0  0  0  0  0  0  0  0
  -29.0284  -23.4881   20.9003 O   0  0  0  0  0  0  0  0  0  1  0  0
  -20.0432   -7.2442   27.7724 F   0  0  0  0  0  0  0  0  0  0  0  0
  -24.1382   -5.9842   25.7603 F   0  0  0  0  0  0  0  0  0  0  0  0
  1  2  1  0  0  0  0
  1  5  2  0  0  0  0
  2  6  2  0  0  0  0
  3  8  2  0  0  0  0
  3 15  1  0  0  0  0
  4  9  1  0  0  0  0
  4 15  2  0  0  0  0
  5 17  1  0  0  0  0
  6 19  1  0  0  0  0
  7 10  2  0  0  0  0
  7 18  1  0  0  0  0
  8 21  1  0  0  0  0
  9 21  2  0  0  0  0
 10 22  1  0  0  0  0
 11 12  2  0  0  0  0
 11 23  1  0  0  0  0
 12 24  1  0  0  0  0
 13 20  1  0  0  0  0
 13 22  2  0  0  0  0
 14 24  2  0  0  0  0
 14 25  1  0  0  0  0
 15 26  1  0  0  0  0
 16 26  1  0  0  0  0
 16 27  2  0  0  0  0
 16 28  1  0  0  0  0
 17 19  2  0  0  0  0
 17 33  1  0  0  0  0
 18 20  2  0  0  0  0
 18 34  1  0  0  0  0
 19 42  1  0  0  0  0
 20 35  1  0  0  0  0
 21 75  1  0  0  0  0
 22 76  1  0  0  0  0
 23 25  2  0  0  0  0
 23 75  1  0  0  0  0
 24 77  1  0  0  0  0
 25 78  1  0  0  0  0
 26 60  2  0  0  0  0
 27 61  1  0  0  0  0
 27 64  1  0  0  0  0
 28 65  1  0  0  0  0
 28 70  2  0  0  0  0
 29 43  1  0  0  0  0
 29 66  1  0  0  0  0
 29 71  2  0  0  0  0
 30 55  1  0  0  0  0
 30 62  1  0  0  0  0
 30 72  2  0  0  0  0
 31 56  1  0  0  0  0
 31 67  1  0  0  0  0
 31 73  2  0  0  0  0
 32 63  1  0  0  0  0
 32 68  1  0  0  0  0
 32 74  2  0  0  0  0
 33 36  1  0  0  0  0
 34 43  1  0  0  0  0
 35 62  1  0  0  0  0
 36 38  1  0  0  0  0
 37 39  1  0  0  0  0
 37 40  1  0  0  0  0
 38 42  1  0  0  0  0
 39 44  1  0  0  0  0
 40 63  1  0  0  0  0
 41 44  1  0  0  0  0
 41 63  1  0  0  0  0
 42 66  1  0  0  0  0
 43 62  1  0  0  0  0
 44 61  1  0  0  0  0
 45 56  1  0  0  0  0
 46 57  1  0  0  0  0
 47 58  1  0  0  0  0
 48 58  1  0  0  0  0
 49 58  1  0  0  0  0
 50 59  1  0  0  0  0
 51 59  1  0  0  0  0
 52 69  1  0  0  0  0
 53 57  1  0  0  0  0
 53 68  1  0  0  0  0
 54 59  1  0  0  0  0
 54 76  1  0  0  0  0
 55 58  1  0  0  0  0
 55 67  1  0  0  0  0
 56 69  1  0  0  0  0
 57 59  1  0  0  0  0
 60 61  1  0  0  0  0
M  CHG  1  69   1
M  ISO  4  32 100  54 101  68 100  76 101
M  END
> <Batch ID>
0105

> <Smiles>
CNC(C)C(=O)NC(C(=O)N1Cc2cc([101O:1][101CH2:1]C(C)(C)C(C)C[100NH:0][100C:0](=O)N3CCCC(n4nc(-c5ccc(Oc6ccc(F)cc6F)cc5)c(C(N)=O)c4N)C3)ccc2CC1C(=O)NC1CCCc2ccccc21)C(C)(C)C

> <Shape>
0.278

> <Color>
0.118

> <Negative vol penalty>
0.000

$$$$

  -OEChem-04052319463D

 83 90  0     1  0  0  0  0  0999 V2000
  -16.9184  -26.1851   22.1812 C   0  0  0  0  0  0  0  0  0  0  0  0
  -18.1906  -25.7553   21.8175 C   0  0  0  0  0  0  0  0  0  0  0  0
  -30.6094  -13.2545   16.8377 C   0  0  0  0  0  0  0  0  0  0  0  0
  -29.6333  -11.0774   17.2178 C   0  0  0  0  0  0  0  0  0  0  0  0
  -16.7522  -27.4247   22.7972 C   0  0  0  0  0  0  0  0  0  0  0  0
  -19.2973  -26.5655   22.0687 C   0  0  0  0  0  0  0  0  0  0  0  0
  -23.1925  -23.9836   24.0196 C   0  0  0  0  0  0  0  0  0  0  0  0
  -31.0878  -12.8240   15.6002 C   0  0  0  0  0  0  0  0  0  0  0  0
  -30.1117  -10.6468   15.9803 C   0  0  0  0  0  0  0  0  0  0  0  0
  -23.9585  -23.2234   23.1369 C   0  0  0  0  0  0  0  0  0  0  0  0
  -30.7667   -9.0850   12.7631 C   0  0  0  0  0  0  0  0  0  0  0  0
  -29.8968   -8.3628   11.9463 C   0  0  0  0  0  0  0  0  0  0  0  0
  -25.6213  -24.9701   23.0850 C   0  0  0  0  0  0  0  0  0  0  0  0
  -28.3739  -10.2381   11.9102 C   0  0  0  0  0  0  0  0  0  0  0  0
  -29.8822  -12.3811   17.6465 C   0  0  0  0  0  0  0  0  0  0  0  0
  -30.1477  -13.2965   20.0128 C   0  0  0  0  0  0  0  0  0  0  0  0
  -17.8586  -28.2464   23.0648 C   0  0  0  0  0  0  0  0  0  0  0  0
  -23.6308  -25.2496   24.4338 C   0  0  0  0  0  0  0  0  0  0  0  0
  -19.1456  -27.8180   22.6877 C   0  0  0  0  0  0  0  0  0  0  0  0
  -24.8603  -25.7433   23.9750 C   0  0  0  0  0  0  0  0  0  0  0  0
  -30.8389  -11.5202   15.1714 C   0  0  0  0  0  0  0  0  0  0  0  0
  -25.1717  -23.7178   22.6672 C   0  0  0  0  0  0  0  0  0  0  0  0
  -30.4402  -10.3838   13.1535 C   0  0  0  0  0  0  0  0  0  0  0  0
  -28.7004   -8.9393   11.5198 C   0  0  0  0  0  0  0  0  0  0  0  0
  -29.2438  -10.9603   12.7270 C   0  0  0  0  0  0  0  0  0  0  0  0
  -29.3883  -12.8251   18.9252 C   0  0  0  0  0  0  0  0  0  0  0  0
  -29.2175  -13.5883   20.9803 C   0  0  0  0  0  0  0  0  0  0  0  0
  -31.5671  -13.4564   20.1374 C   0  0  0  0  0  0  0  0  0  0  0  0
  -22.5152  -28.2126   24.1517 C   0  0  0  0  0  0  0  0  0  0  0  0
  -25.0119  -28.9214   26.0976 C   0  0  0  0  0  0  0  0  0  0  0  0
  -28.0962  -28.0657   27.2816 C   0  0  0  0  0  0  0  0  0  0  0  0
  -23.2511  -14.7951   20.2849 C   0  0  0  0  0  0  0  0  0  0  0  0
  -17.6241  -29.5988   23.6899 C   0  0  0  0  0  0  0  0  0  0  0  0
  -22.8056  -26.0458   25.4072 C   0  0  0  0  0  0  0  0  0  0  0  0
  -25.3852  -27.0879   24.4052 C   0  0  0  0  0  0  0  0  0  0  0  0
  -18.8897  -30.2340   24.2600 C   0  0  0  0  0  0  0  0  0  0  0  0
  -24.8720  -12.3256   22.5156 C   0  0  0  0  0  0  0  0  0  0  0  0
  -20.0381  -30.1243   23.2620 C   0  0  0  0  0  0  0  0  0  0  0  0
  -26.2558  -12.1675   21.8878 C   0  0  0  0  0  0  0  0  0  0  0  0
  -23.8202  -12.7121   21.4802 C   0  0  0  0  0  0  0  0  0  0  0  0
  -25.5512  -13.7683   20.0653 C   0  0  0  0  0  0  0  0  0  0  0  0
  -20.3735  -28.6576   22.9659 C   0  0  1  0  0  0  0  0  0  0  0  0
  -23.1038  -27.5412   25.3602 C   0  0  1  0  0  0  0  0  0  0  0  0
  -26.6430  -13.4246   21.0897 C   0  0  2  0  0  0  0  0  0  0  0  0
  -29.9004  -28.8607   28.8340 C   0  0  0  0  0  0  0  0  0  0  0  0
  -28.0161  -18.4301   22.9146 C   0  0  0  0  0  0  0  0  0  0  0  0
  -29.5610  -22.0331   21.4362 C   0  0  0  0  0  0  0  0  0  0  0  0
  -25.8684  -30.9994   24.0341 C   0  0  0  0  0  0  0  0  0  0  0  0
  -28.1136  -31.0700   25.1397 C   0  0  0  0  0  0  0  0  0  0  0  0
  -26.0767  -31.7437   26.4125 C   0  0  0  0  0  0  0  0  0  0  0  0
  -22.6513  -17.1228   19.7357 C   0  0  0  0  0  0  0  0  0  0  0  0
  -28.0154  -17.8889   19.0773 C   0  0  0  0  0  0  0  0  0  0  0  0
  -27.8607  -25.6522   28.9781 C   0  0  0  0  0  0  0  0  0  0  0  0
  -24.8847  -16.6850   20.6877 C   0  0  0  0  0  0  0  0  0  0  0  0
  -25.7486  -17.2718   19.5805 C   0  0  0  0  0  0  0  0  0  0  0  0
  -26.7926  -19.0817   20.7668 C   0  0  0  0  0  0  0  0  0  0  0  0
  -27.3361  -23.1537   21.8591 C   0  0  0  0  0  0  0  0  0  1  0  0
  -26.4578  -29.3003   25.8865 C   0  0  1  0  0  0  0  0  0  0  0  0
  -28.6518  -28.0041   28.6930 C   0  0  2  0  0  0  0  0  0  0  0  0
  -27.9028  -19.4178   21.7611 C   0  0  1  0  0  0  0  0  0  0  0  0
  -28.0485  -21.8855   21.4029 C   0  0  2  0  0  0  0  0  0  0  0  0
  -26.6186  -30.7538   25.3584 C   0  0  0  0  0  0  0  0  0  0  0  0
  -28.0767  -12.8161   19.1775 N   0  0  0  0  0  0  0  0  0  0  0  0
  -28.0047  -13.2854   20.4348 N   0  0  0  0  0  0  0  0  0  0  0  0
  -24.5391  -27.8314   25.3532 N   0  0  0  0  0  0  0  0  0  0  0  0
  -24.2330  -13.8837   20.7069 N   0  0  0  0  0  0  0  0  0  0  0  0
  -29.3268  -14.0718   22.2360 N   0  0  0  0  0  0  0  0  0  0  0  0
  -32.3199  -12.3816   20.6298 N   0  0  0  0  0  0  0  0  0  0  0  0
  -21.1429  -28.0862   24.0504 N   0  0  0  0  0  0  0  0  0  0  0  0
  -27.1355  -29.0465   27.1534 N   0  0  0  0  0  0  0  0  0  0  0  0
  -23.6369  -16.1382   20.1590 N   0  0  0  0  0  0  0  0  0  0  0  0
  -27.0018  -17.7988   20.1364 N   0  0  2  0  0  0  0  0  0  0  0  0
  -29.0020  -26.6004   29.0509 N   0  3  0  0  0  0  0  0  0  0  0  0
  -27.6695  -20.7731   22.3216 N   0  3  0  0  0  0  0  0  0  0  0  0
  -32.1485  -14.5265   19.8368 O   0  0  0  0  0  0  0  0  0  0  0  0
  -23.2514  -28.8030   23.3699 O   0  0  0  0  0  0  0  0  0  0  0  0
  -24.3290  -29.5642   26.8990 O   0  0  0  0  0  0  0  0  0  0  0  0
  -28.4789  -27.3210   26.3819 O   0  0  0  0  0  0  0  0  0  0  0  0
  -22.0930  -14.4307   20.0441 O   0  0  0  0  0  0  0  0  0  0  0  0
  -31.3053  -11.0998   13.9638 O   0  0  0  0  0  0  0  0  0  0  0  0
  -25.9210  -22.9781   21.8051 O   0  0  0  0  0  0  0  0  0  1  0  0
  -27.8658   -8.2462   10.7342 F   0  0  0  0  0  0  0  0  0  0  0  0
  -28.9253  -12.2080   13.0978 F   0  0  0  0  0  0  0  0  0  0  0  0
  1  2  1  0  0  0  0
  1  5  2  0  0  0  0
  2  6  2  0  0  0  0
  3  8  2  0  0  0  0
  3 15  1  0  0  0  0
  4  9  1  0  0  0  0
  4 15  2  0  0  0  0
  5 17  1  0  0  0  0
  6 19  1  0  0  0  0
  7 10  2  0  0  0  0
  7 18  1  0  0  0  0
  8 21  1  0  0  0  0
  9 21  2  0  0  0  0
 10 22  1  0  0  0  0
 11 12  2  0  0  0  0
 11 23  1  0  0  0  0
 12 24  1  0  0  0  0
 13 20  1  0  0  0  0
 13 22  2  0  0  0  0
 14 24  2  0  0  0  0
 14 25  1  0  0  0  0
 15 26  1  0  0  0  0
 16 26  1  0  0  0  0
 16 27  2  0  0  0  0
 16 28  1  0  0  0  0
 17 19  2  0  0  0  0
 17 33  1  0  0  0  0
 18 20  2  0  0  0  0
 18 34  1  0  0  0  0
 19 42  1  0  0  0  0
 20 35  1  0  0  0  0
 21 80  1  0  0  0  0
 22 81  1  0  0  0  0
 23 25  2  0  0  0  0
 23 80  1  0  0  0  0
 24 82  1  0  0  0  0
 25 83  1  0  0  0  0
 26 63  2  0  0  0  0
 27 64  1  0  0  0  0
 27 67  1  0  0  0  0
 28 68  1  0  0  0  0
 28 75  2  0  0  0  0
 29 43  1  0  0  0  0
 29 69  1  0  0  0  0
 29 76  2  0  0  0  0
 30 58  1  0  0  0  0
 30 65  1  0  0  0  0
 30 77  2  0  0  0  0
 31 59  1  0  0  0  0
 31 70  1  0  0  0  0
 31 78  2  0  0  0  0
 32 66  1  0  0  0  0
 32 71  1  0  0  0  0
 32 79  2  0  0  0  0
 33 36  1  0  0  0  0
 34 43  1  0  0  0  0
 35 65  1  0  0  0  0
 36 38  1  0  0  0  0
 37 39  1  0  0  0  0
 37 40  1  0  0  0  0
 38 42  1  0  0  0  0
 39 44  1  0  0  0  0
 40 66  1  0  0  0  0
 41 44  1  0  0  0  0
 41 66  1  0  0  0  0
 42 69  1  0  0  0  0
 43 65  1  0  0  0  0
 44 64  1  0  0  0  0
 45 59  1  0  0  0  0
 46 60  1  0  0  0  0
 47 61  1  0  0  0  0
 48 62  1  0  0  0  0
 49 62  1  0  0  0  0
 50 62  1  0  0  0  0
 51 71  1  0  0  0  0
 52 72  1  0  0  0  0
 53 73  1  0  0  0  0
 54 55  1  0  0  0  0
 54 71  1  0  0  0  0
 55 72  1  0  0  0  0
 56 60  1  0  0  0  0
 56 72  1  0  0  0  0
 57 61  1  0  0  0  0
 57 81  1  0  0  0  0
 58 62  1  0  0  0  0
 58 70  1  0  0  0  0
 59 73  1  0  0  0  0
 60 74  1  0  0  0  0
 61 74  1  0  0  0  0
 63 64  1  0  0  0  0
M  CHG  2  73   1  74   1
M  ISO  4  32 100  57 101  71 100  81 101
M  END
> <Batch ID>
0105

> <Smiles>
CNC(C)C(=O)NC(C(=O)N1Cc2cc([101O:1][101CH2:1]C(C)NC(C)CN(C)CC[100N:0](C)[100C:0](=O)N3CCCC(n4nc(-c5ccc(Oc6ccc(F)cc6F)cc5)c(C(N)=O)c4N)C3)ccc2CC1C(=O)NC1CCCc2ccccc21)C(C)(C)C

> <Shape>
0.219

> <Color>
0.101

> <Negative vol penalty>
0.000

$$$$

  -OEChem-04052319463D

 84 92  0     1  0  0  0  0  0999 V2000
  -17.1424  -24.6834   23.8510 C   0  0  0  0  0  0  0  0  0  0  0  0
  -17.8477  -24.0486   22.8336 C   0  0  0  0  0  0  0  0  0  0  0  0
  -25.6095  -13.2255   21.7212 C   0  0  0  0  0  0  0  0  0  0  0  0
  -25.1761  -13.9634   19.4618 C   0  0  0  0  0  0  0  0  0  0  0  0
  -17.3747  -26.0310   24.1229 C   0  0  0  0  0  0  0  0  0  0  0  0
  -18.7850  -24.7614   22.0868 C   0  0  0  0  0  0  0  0  0  0  0  0
  -24.0354  -22.6275   19.7662 C   0  0  0  0  0  0  0  0  0  0  0  0
  -24.5881  -12.2823   21.6091 C   0  0  0  0  0  0  0  0  0  0  0  0
  -24.1546  -13.0201   19.3497 C   0  0  0  0  0  0  0  0  0  0  0  0
  -24.3845  -22.1787   18.4932 C   0  0  0  0  0  0  0  0  0  0  0  0
  -22.3344   -9.4358   21.7921 C   0  0  0  0  0  0  0  0  0  0  0  0
  -22.5893   -8.1456   22.2567 C   0  0  0  0  0  0  0  0  0  0  0  0
  -29.0111  -21.2237   15.8501 C   0  0  0  0  0  0  0  0  0  0  0  0
  -25.2522  -24.3670   17.9662 C   0  0  0  0  0  0  0  0  0  0  0  0
  -24.4114   -7.9391   20.6837 C   0  0  0  0  0  0  0  0  0  0  0  0
  -28.0499  -23.1156   14.7763 C   0  0  0  0  0  0  0  0  0  0  0  0
  -25.9035  -14.0662   20.6475 C   0  0  0  0  0  0  0  0  0  0  0  0
  -30.1875  -21.9483   16.0066 C   0  0  0  0  0  0  0  0  0  0  0  0
  -28.3178  -14.8643   20.4441 C   0  0  0  0  0  0  0  0  0  0  0  0
  -18.3224  -26.7582   23.3854 C   0  0  0  0  0  0  0  0  0  0  0  0
  -24.2827  -23.9546   20.1456 C   0  0  0  0  0  0  0  0  0  0  0  0
  -19.0293  -26.1203   22.3482 C   0  0  0  0  0  0  0  0  0  0  0  0
  -24.9077  -24.8294   19.2455 C   0  0  0  0  0  0  0  0  0  0  0  0
  -27.9173  -21.8112   15.2243 C   0  0  0  0  0  0  0  0  0  0  0  0
  -23.8607  -12.1795   20.4233 C   0  0  0  0  0  0  0  0  0  0  0  0
  -24.9903  -23.0493   17.5920 C   0  0  0  0  0  0  0  0  0  0  0  0
  -23.1179   -9.9777   20.7732 C   0  0  0  0  0  0  0  0  0  0  0  0
  -23.6278   -7.3972   21.7026 C   0  0  0  0  0  0  0  0  0  0  0  0
  -24.1564   -9.2293   20.2190 C   0  0  0  0  0  0  0  0  0  0  0  0
  -26.9581  -15.0411   20.7629 C   0  0  0  0  0  0  0  0  0  0  0  0
  -30.2185  -23.2465   15.5234 C   0  0  0  0  0  0  0  0  0  0  0  0
  -28.8975  -16.0767   20.7280 C   0  0  0  0  0  0  0  0  0  0  0  0
  -31.3298  -21.3315   16.6619 C   0  0  0  0  0  0  0  0  0  0  0  0
  -28.9963  -13.7077   19.9367 C   0  0  0  0  0  0  0  0  0  0  0  0
  -31.6099  -21.3657   17.9869 C   0  0  0  0  0  0  0  0  0  0  0  0
  -22.4679  -26.4108   21.0273 C   0  0  0  0  0  0  0  0  0  0  0  0
  -25.3332  -27.8256   21.5844 C   0  0  0  0  0  0  0  0  0  0  0  0
  -28.6744  -27.9695   20.9040 C   0  0  0  0  0  0  0  0  0  0  0  0
  -28.8688  -21.6535   20.5162 C   0  0  0  0  0  0  0  0  0  0  0  0
  -18.5050  -28.2251   23.6847 C   0  0  0  0  0  0  0  0  0  0  0  0
  -23.9245  -24.4159   21.5318 C   0  0  0  0  0  0  0  0  0  0  0  0
  -25.2133  -26.2583   19.6110 C   0  0  0  0  0  0  0  0  0  0  0  0
  -19.7847  -28.8123   23.0949 C   0  0  0  0  0  0  0  0  0  0  0  0
  -27.0664  -20.1100   23.1706 C   0  0  0  0  0  0  0  0  0  0  0  0
  -19.9511  -28.3781   21.6421 C   0  0  0  0  0  0  0  0  0  0  0  0
  -26.9845  -18.6411   22.7515 C   0  0  0  0  0  0  0  0  0  0  0  0
  -26.9567  -21.0466   21.9694 C   0  0  0  0  0  0  0  0  0  0  0  0
  -27.8321  -19.3042   20.4623 C   0  0  0  0  0  0  0  0  0  0  0  0
  -20.0721  -26.8533   21.5324 C   0  0  1  0  0  0  0  0  0  0  0  0
  -23.7556  -25.9287   21.6331 C   0  0  1  0  0  0  0  0  0  0  0  0
  -27.9942  -18.3199   21.6333 C   0  0  2  0  0  0  0  0  0  0  0  0
  -31.4506  -24.0819   15.6583 C   0  0  0  0  0  0  0  0  0  0  0  0
  -32.8388  -20.6770   18.5232 C   0  0  0  0  0  0  0  0  0  0  0  0
  -31.0639  -28.7062   21.1148 C   0  0  0  0  0  0  0  0  0  0  0  0
  -24.4004  -30.1273   19.8119 C   0  0  0  0  0  0  0  0  0  0  0  0
  -26.7826  -30.8816   19.6571 C   0  0  0  0  0  0  0  0  0  0  0  0
  -25.6340  -30.8299   21.8708 C   0  0  0  0  0  0  0  0  0  0  0  0
  -29.2422  -25.9298   22.9718 C   0  0  0  0  0  0  0  0  0  0  0  0
  -26.6261  -21.0518   15.0388 C   0  0  0  0  0  0  0  0  0  0  0  0
  -30.7896  -22.1057   19.0111 C   0  0  0  0  0  0  0  0  0  0  0  0
  -25.6719  -21.2347   16.2140 C   0  0  0  0  0  0  0  0  0  1  0  0
  -26.2938  -28.6538   20.7657 C   0  0  1  0  0  0  0  0  0  0  0  0
  -29.8855  -28.0483   21.8157 C   0  0  2  0  0  0  0  0  0  0  0  0
  -25.7703  -30.0968   20.5185 C   0  0  0  0  0  0  0  0  0  0  0  0
  -29.1763  -23.8510   14.9102 N   0  0  0  0  0  0  0  0  0  0  0  0
  -26.6899  -16.2690   21.2149 N   0  0  0  0  0  0  0  0  0  0  0  0
  -27.8891  -16.8748   21.1822 N   0  0  0  0  0  0  0  0  0  0  0  0
  -24.8382  -26.6636   20.9757 N   0  0  0  0  0  0  0  0  0  0  0  0
  -27.9423  -20.6893   20.9463 N   0  0  0  0  0  0  0  0  0  0  0  0
  -30.1663  -16.5273   20.6310 N   0  0  0  0  0  0  0  0  0  0  0  0
  -28.2498  -12.5451   19.7010 N   0  0  0  0  0  0  0  0  0  0  0  0
  -21.4023  -26.4236   21.9070 N   0  0  0  0  0  0  0  0  0  0  0  0
  -27.5768  -28.5939   21.4577 N   0  0  0  0  0  0  0  0  0  0  0  0
  -29.7719  -21.2304   19.5487 N   0  0  0  0  0  0  0  0  0  0  0  0
  -30.2983  -26.6831   22.2479 N   0  3  0  0  0  0  0  0  0  0  0  0
  -30.2309  -13.7001   19.7148 O   0  0  0  0  0  0  0  0  0  0  0  0
  -22.4432  -26.7477   19.8493 O   0  0  0  0  0  0  0  0  0  0  0  0
  -25.0387  -28.1922   22.7248 O   0  0  0  0  0  0  0  0  0  0  0  0
  -28.7004  -27.4131   19.8084 O   0  0  0  0  0  0  0  0  0  0  0  0
  -28.8931  -22.8044   20.9653 O   0  0  0  0  0  0  0  0  0  0  0  0
  -22.8641  -11.2591   20.3135 O   0  0  0  0  0  0  0  0  0  0  0  0
  -25.3314  -22.6140   16.3486 O   0  0  0  0  0  0  0  0  0  1  0  0
  -23.8734   -6.1588   22.1500 F   0  0  0  0  0  0  0  0  0  0  0  0
  -24.9133   -9.7450   19.2408 F   0  0  0  0  0  0  0  0  0  0  0  0
  1  2  1  0  0  0  0
  1  5  2  0  0  0  0
  2  6  2  0  0  0  0
  3  8  2  0  0  0  0
  3 17  1  0  0  0  0
  4  9  1  0  0  0  0
  4 17  2  0  0  0  0
  5 20  1  0  0  0  0
  6 22  1  0  0  0  0
  7 10  2  0  0  0  0
  7 21  1  0  0  0  0
  8 25  1  0  0  0  0
  9 25  2  0  0  0  0
 10 26  1  0  0  0  0
 11 12  2  0  0  0  0
 11 27  1  0  0  0  0
 12 28  1  0  0  0  0
 13 18  1  0  0  0  0
 13 24  2  0  0  0  0
 14 23  1  0  0  0  0
 14 26  2  0  0  0  0
 15 28  2  0  0  0  0
 15 29  1  0  0  0  0
 16 24  1  0  0  0  0
 16 65  2  0  0  0  0
 17 30  1  0  0  0  0
 18 31  2  0  0  0  0
 18 33  1  0  0  0  0
 19 30  1  0  0  0  0
 19 32  2  0  0  0  0
 19 34  1  0  0  0  0
 20 22  2  0  0  0  0
 20 40  1  0  0  0  0
 21 23  2  0  0  0  0
 21 41  1  0  0  0  0
 22 49  1  0  0  0  0
 23 42  1  0  0  0  0
 24 59  1  0  0  0  0
 25 81  1  0  0  0  0
 26 82  1  0  0  0  0
 27 29  2  0  0  0  0
 27 81  1  0  0  0  0
 28 83  1  0  0  0  0
 29 84  1  0  0  0  0
 30 66  2  0  0  0  0
 31 52  1  0  0  0  0
 31 65  1  0  0  0  0
 32 67  1  0  0  0  0
 32 70  1  0  0  0  0
 33 35  2  0  0  0  0
 34 71  1  0  0  0  0
 34 76  2  0  0  0  0
 35 53  1  0  0  0  0
 35 60  1  0  0  0  0
 36 50  1  0  0  0  0
 36 72  1  0  0  0  0
 36 77  2  0  0  0  0
 37 62  1  0  0  0  0
 37 68  1  0  0  0  0
 37 78  2  0  0  0  0
 38 63  1  0  0  0  0
 38 73  1  0  0  0  0
 38 79  2  0  0  0  0
 39 69  1  0  0  0  0
 39 74  1  0  0  0  0
 39 80  2  0  0  0  0
 40 43  1  0  0  0  0
 41 50  1  0  0  0  0
 42 68  1  0  0  0  0
 43 45  1  0  0  0  0
 44 46  1  0  0  0  0
 44 47  1  0  0  0  0
 45 49  1  0  0  0  0
 46 51  1  0  0  0  0
 47 69  1  0  0  0  0
 48 51  1  0  0  0  0
 48 69  1  0  0  0  0
 49 72  1  0  0  0  0
 50 68  1  0  0  0  0
 51 67  1  0  0  0  0
 54 63  1  0  0  0  0
 55 64  1  0  0  0  0
 56 64  1  0  0  0  0
 57 64  1  0  0  0  0
 58 75  1  0  0  0  0
 59 61  1  0  0  0  0
 60 74  1  0  0  0  0
 61 82  1  0  0  0  0
 62 64  1  0  0  0  0
 62 73  1  0  0  0  0
 63 75  1  0  0  0  0
 66 67  1  0  0  0  0
M  CHG  1  75   1
M  ISO  4  39 100  61 101  74 100  82 101
M  END
> <Batch ID>
0105

> <Smiles>
CNC(C)C(=O)NC(C(=O)N1Cc2cc([101O:1][101CH2:1]Cc3cnc(C)c(C=C(C)C[100NH:0][100C:0](=O)N4CCCC(n5nc(-c6ccc(Oc7ccc(F)cc7F)cc6)c(C(N)=O)c5N)C4)c3)ccc2CC1C(=O)NC1CCCc2ccccc21)C(C)(C)C

> <Shape>
0.248

> <Color>
0.061

> <Negative vol penalty>
0.000

$$$$

  -OEChem-04052319463D

 81 88  0     1  0  0  0  0  0999 V2000
  -18.2439  -25.4092   20.2044 C   0  0  0  0  0  0  0  0  0  0  0  0
  -19.5245  -25.6413   19.7129 C   0  0  0  0  0  0  0  0  0  0  0  0
  -25.6690  -15.2392   21.6736 C   0  0  0  0  0  0  0  0  0  0  0  0
  -24.7102  -16.5923   19.9166 C   0  0  0  0  0  0  0  0  0  0  0  0
  -17.8096  -26.0682   21.3537 C   0  0  0  0  0  0  0  0  0  0  0  0
  -20.3712  -26.5334   20.3699 C   0  0  0  0  0  0  0  0  0  0  0  0
  -25.0757  -24.7296   20.8794 C   0  0  0  0  0  0  0  0  0  0  0  0
  -24.5320  -14.4313   21.6719 C   0  0  0  0  0  0  0  0  0  0  0  0
  -23.5731  -15.7844   19.9149 C   0  0  0  0  0  0  0  0  0  0  0  0
  -25.9026  -24.7819   19.7581 C   0  0  0  0  0  0  0  0  0  0  0  0
  -23.2694  -11.9114   19.8041 C   0  0  0  0  0  0  0  0  0  0  0  0
  -23.4560  -10.5295   19.8368 C   0  0  0  0  0  0  0  0  0  0  0  0
  -26.9627  -26.7614   20.6395 C   0  0  0  0  0  0  0  0  0  0  0  0
  -22.2227  -10.4120   21.9110 C   0  0  0  0  0  0  0  0  0  0  0  0
  -25.7581  -16.3197   20.7959 C   0  0  0  0  0  0  0  0  0  0  0  0
  -28.0987  -16.9832   20.0285 C   0  0  0  0  0  0  0  0  0  0  0  0
  -18.6548  -26.9615   22.0306 C   0  0  0  0  0  0  0  0  0  0  0  0
  -25.1788  -25.7008   21.8857 C   0  0  0  0  0  0  0  0  0  0  0  0
  -19.9473  -27.2060   21.5286 C   0  0  0  0  0  0  0  0  0  0  0  0
  -26.1377  -26.7178   21.7738 C   0  0  0  0  0  0  0  0  0  0  0  0
  -23.4840  -14.7039   20.7926 C   0  0  0  0  0  0  0  0  0  0  0  0
  -26.8443  -25.7995   19.6367 C   0  0  0  0  0  0  0  0  0  0  0  0
  -22.5595  -12.5437   20.8249 C   0  0  0  0  0  0  0  0  0  0  0  0
  -22.9326   -9.7798   20.8902 C   0  0  0  0  0  0  0  0  0  0  0  0
  -22.0361  -11.7940   21.8783 C   0  0  0  0  0  0  0  0  0  0  0  0
  -26.9322  -17.1550   20.7976 C   0  0  0  0  0  0  0  0  0  0  0  0
  -28.9078  -18.0315   20.3931 C   0  0  0  0  0  0  0  0  0  0  0  0
  -28.4220  -15.9670   19.0700 C   0  0  0  0  0  0  0  0  0  0  0  0
  -23.2225  -27.8953   23.0942 C   0  0  0  0  0  0  0  0  0  0  0  0
  -25.6449  -28.3287   25.2076 C   0  0  0  0  0  0  0  0  0  0  0  0
  -28.9755  -28.0437   25.8953 C   0  0  0  0  0  0  0  0  0  0  0  0
  -29.6403  -23.4438   21.5401 C   0  0  0  0  0  0  0  0  0  0  0  0
  -18.1243  -27.6862   23.2423 C   0  0  0  0  0  0  0  0  0  0  0  0
  -24.2977  -25.6150   23.1017 C   0  0  0  0  0  0  0  0  0  0  0  0
  -26.3022  -27.7729   22.8360 C   0  0  0  0  0  0  0  0  0  0  0  0
  -19.2156  -28.3322   24.0920 C   0  0  0  0  0  0  0  0  0  0  0  0
  -28.4819  -21.3562   24.1814 C   0  0  0  0  0  0  0  0  0  0  0  0
  -20.1999  -29.0924   23.2088 C   0  0  0  0  0  0  0  0  0  0  0  0
  -28.0662  -20.0660   23.4725 C   0  0  0  0  0  0  0  0  0  0  0  0
  -28.1664  -22.5901   23.3388 C   0  0  0  0  0  0  0  0  0  0  0  0
  -28.2987  -21.2716   21.2608 C   0  0  0  0  0  0  0  0  0  0  0  0
  -20.9039  -28.1477   22.2273 C   0  0  1  0  0  0  0  0  0  0  0  0
  -24.1390  -26.9515   23.8200 C   0  0  1  0  0  0  0  0  0  0  0  0
  -28.6479  -19.9967   22.0476 C   0  0  2  0  0  0  0  0  0  0  0  0
  -30.6637  -28.5166   27.6908 C   0  0  0  0  0  0  0  0  0  0  0  0
  -32.5421  -21.9742   16.7017 C   0  0  0  0  0  0  0  0  0  0  0  0
  -30.8621  -25.4232   15.7038 C   0  0  0  0  0  0  0  0  0  0  0  0
  -25.5723  -31.2938   24.4915 C   0  0  0  0  0  0  0  0  0  0  0  0
  -27.8281  -31.5334   25.5507 C   0  0  0  0  0  0  0  0  0  0  0  0
  -25.8756  -30.8161   26.9275 C   0  0  0  0  0  0  0  0  0  0  0  0
  -29.6842  -25.1810   26.1446 C   0  0  0  0  0  0  0  0  0  0  0  0
  -28.4634  -25.0857   16.4196 C   0  0  0  0  0  0  0  0  0  0  0  0
  -31.0844  -24.1627   19.6541 C   0  0  0  0  0  0  0  0  0  0  0  0
  -27.4809  -24.8346   17.5583 C   0  0  0  0  0  0  0  0  0  1  0  0
  -26.8757  -29.2013   25.2588 C   0  0  1  0  0  0  0  0  0  0  0  0
  -29.7110  -27.4881   27.1015 C   0  0  2  0  0  0  0  0  0  0  0  0
  -32.2121  -22.3691   18.1443 C   0  0  2  0  0  0  0  0  0  0  0  0
  -29.9285  -25.0911   16.8603 C   0  0  1  0  0  0  0  0  0  0  0  0
  -31.5166  -23.7469   18.2423 C   0  0  1  0  0  0  0  0  0  0  0  0
  -26.5338  -30.6925   25.5360 C   0  0  0  0  0  0  0  0  0  0  0  0
  -26.9911  -18.2278   21.5910 N   0  0  0  0  0  0  0  0  0  0  0  0
  -28.2043  -18.7396   21.3225 N   0  0  0  0  0  0  0  0  0  0  0  0
  -25.4131  -27.6497   24.0030 N   0  0  0  0  0  0  0  0  0  0  0  0
  -28.7477  -22.4617   22.0003 N   0  0  0  0  0  0  0  0  0  0  0  0
  -30.1454  -18.4073   20.0062 N   0  0  0  0  0  0  0  0  0  0  0  0
  -27.4766  -14.9644   18.8148 N   0  0  0  0  0  0  0  0  0  0  0  0
  -33.4710  -22.3562   18.8962 N   0  0  0  0  0  0  0  0  0  0  0  0
  -21.9457  -27.4031   22.9017 N   0  0  0  0  0  0  0  0  0  0  0  0
  -27.7630  -28.5980   26.2473 N   0  0  0  0  0  0  0  0  0  0  0  0
  -30.1500  -23.2425   20.2632 N   0  0  0  0  0  0  0  0  0  0  0  0
  -30.4992  -26.2830   26.7176 N   0  3  0  0  0  0  0  0  0  0  0  0
  -30.3045  -23.7479   17.3826 N   0  3  0  0  0  0  0  0  0  0  0  0
  -29.5233  -15.9394   18.4702 O   0  0  0  0  0  0  0  0  0  0  0  0
  -23.6422  -28.9897   22.7366 O   0  0  0  0  0  0  0  0  0  0  0  0
  -24.9199  -28.2467   26.2022 O   0  0  0  0  0  0  0  0  0  0  0  0
  -29.4326  -27.9944   24.7555 O   0  0  0  0  0  0  0  0  0  0  0  0
  -29.9634  -24.4244   22.2191 O   0  0  0  0  0  0  0  0  0  0  0  0
  -22.3744  -13.9156   20.7905 O   0  0  0  0  0  0  0  0  0  0  0  0
  -27.6521  -25.8532   18.5429 O   0  0  0  0  0  0  0  0  0  1  0  0
  -23.1106   -8.4525   20.9207 F   0  0  0  0  0  0  0  0  0  0  0  0
  -21.3522  -12.3957   22.8612 F   0  0  0  0  0  0  0  0  0  0  0  0
  1  2  1  0  0  0  0
  1  5  2  0  0  0  0
  2  6  2  0  0  0  0
  3  8  2  0  0  0  0
  3 15  1  0  0  0  0
  4  9  1  0  0  0  0
  4 15  2  0  0  0  0
  5 17  1  0  0  0  0
  6 19  1  0  0  0  0
  7 10  2  0  0  0  0
  7 18  1  0  0  0  0
  8 21  1  0  0  0  0
  9 21  2  0  0  0  0
 10 22  1  0  0  0  0
 11 12  2  0  0  0  0
 11 23  1  0  0  0  0
 12 24  1  0  0  0  0
 13 20  1  0  0  0  0
 13 22  2  0  0  0  0
 14 24  2  0  0  0  0
 14 25  1  0  0  0  0
 15 26  1  0  0  0  0
 16 26  1  0  0  0  0
 16 27  2  0  0  0  0
 16 28  1  0  0  0  0
 17 19  2  0  0  0  0
 17 33  1  0  0  0  0
 18 20  2  0  0  0  0
 18 34  1  0  0  0  0
 19 42  1  0  0  0  0
 20 35  1  0  0  0  0
 21 78  1  0  0  0  0
 22 79  1  0  0  0  0
 23 25  2  0  0  0  0
 23 78  1  0  0  0  0
 24 80  1  0  0  0  0
 25 81  1  0  0  0  0
 26 61  2  0  0  0  0
 27 62  1  0  0  0  0
 27 65  1  0  0  0  0
 28 66  1  0  0  0  0
 28 73  2  0  0  0  0
 29 43  1  0  0  0  0
 29 68  1  0  0  0  0
 29 74  2  0  0  0  0
 30 55  1  0  0  0  0
 30 63  1  0  0  0  0
 30 75  2  0  0  0  0
 31 56  1  0  0  0  0
 31 69  1  0  0  0  0
 31 76  2  0  0  0  0
 32 64  1  0  0  0  0
 32 70  1  0  0  0  0
 32 77  2  0  0  0  0
 33 36  1  0  0  0  0
 34 43  1  0  0  0  0
 35 63  1  0  0  0  0
 36 38  1  0  0  0  0
 37 39  1  0  0  0  0
 37 40  1  0  0  0  0
 38 42  1  0  0  0  0
 39 44  1  0  0  0  0
 40 64  1  0  0  0  0
 41 44  1  0  0  0  0
 41 64  1  0  0  0  0
 42 68  1  0  0  0  0
 43 63  1  0  0  0  0
 44 62  1  0  0  0  0
 45 56  1  0  0  0  0
 46 57  1  0  0  0  0
 47 58  1  0  0  0  0
 48 60  1  0  0  0  0
 49 60  1  0  0  0  0
 50 60  1  0  0  0  0
 51 71  1  0  0  0  0
 52 54  1  0  0  0  0
 52 58  1  0  0  0  0
 53 59  1  0  0  0  0
 53 70  1  0  0  0  0
 54 79  1  0  0  0  0
 55 60  1  0  0  0  0
 55 69  1  0  0  0  0
 56 71  1  0  0  0  0
 57 59  1  0  0  0  0
 57 67  1  0  0  0  0
 58 72  1  0  0  0  0
 59 72  1  0  0  0  0
 61 62  1  0  0  0  0
M  CHG  2  71   1  72   1
M  ISO  4  32 100  54 101  70 100  79 101
M  END
> <Batch ID>
0105

> <Smiles>
CNC(C)C(=O)NC(C(=O)N1Cc2cc([101O:1][101CH2:1]CC(C)NC(C[100NH:0][100C:0](=O)N3CCCC(n4nc(-c5ccc(Oc6ccc(F)cc6F)cc5)c(C(N)=O)c4N)C3)C(C)N)ccc2CC1C(=O)NC1CCCc2ccccc21)C(C)(C)C

> <Shape>
0.241

> <Color>
0.069

> <Negative vol penalty>
0.000

$$$$

  -OEChem-04052319463D

 86 94  0     1  0  0  0  0  0999 V2000
  -33.2454  -29.0423   21.3699 C   0  0  0  0  0  0  0  0  0  0  0  0
  -32.6261  -27.8450   21.0259 C   0  0  0  0  0  0  0  0  0  0  0  0
  -23.0492   -9.9473   19.9012 C   0  0  0  0  0  0  0  0  0  0  0  0
  -23.9139   -9.7933   22.1519 C   0  0  0  0  0  0  0  0  0  0  0  0
  -32.6468  -29.8941   22.2973 C   0  0  0  0  0  0  0  0  0  0  0  0
  -31.4081  -27.4984   21.6098 C   0  0  0  0  0  0  0  0  0  0  0  0
  -26.8002  -24.4427   18.9763 C   0  0  0  0  0  0  0  0  0  0  0  0
  -22.3272   -8.7702   20.0980 C   0  0  0  0  0  0  0  0  0  0  0  0
  -23.1918   -8.6162   22.3488 C   0  0  0  0  0  0  0  0  0  0  0  0
  -26.4163  -23.1032   19.0211 C   0  0  0  0  0  0  0  0  0  0  0  0
  -20.0015   -7.7386   23.0360 C   0  0  0  0  0  0  0  0  0  0  0  0
  -19.2997   -7.6033   24.2338 C   0  0  0  0  0  0  0  0  0  0  0  0
  -24.8343  -23.6211   20.7670 C   0  0  0  0  0  0  0  0  0  0  0  0
  -26.9480  -18.8054   19.9725 C   0  0  0  0  0  0  0  0  0  0  0  0
  -20.5896   -5.6312   24.7668 C   0  0  0  0  0  0  0  0  0  0  0  0
  -28.3581  -18.7036   22.3352 C   0  0  0  0  0  0  0  0  0  0  0  0
  -23.8427  -10.4588   20.9281 C   0  0  0  0  0  0  0  0  0  0  0  0
  -24.1579  -12.9897   20.9811 C   0  0  0  0  0  0  0  0  0  0  0  0
  -31.4162  -29.5623   22.8856 C   0  0  0  0  0  0  0  0  0  0  0  0
  -26.2107  -25.3812   19.8356 C   0  0  0  0  0  0  0  0  0  0  0  0
  -30.7932  -28.3460   22.5469 C   0  0  0  0  0  0  0  0  0  0  0  0
  -25.2106  -24.9724   20.7294 C   0  0  0  0  0  0  0  0  0  0  0  0
  -29.0230  -18.4509   21.1437 C   0  0  0  0  0  0  0  0  0  0  0  0
  -28.3063  -18.5035   19.9521 C   0  0  0  0  0  0  0  0  0  0  0  0
  -22.3984   -8.1047   21.3218 C   0  0  0  0  0  0  0  0  0  0  0  0
  -25.4352  -22.6917   19.9185 C   0  0  0  0  0  0  0  0  0  0  0  0
  -20.9973   -6.8201   22.7035 C   0  0  0  0  0  0  0  0  0  0  0  0
  -19.5937   -6.5496   25.0992 C   0  0  0  0  0  0  0  0  0  0  0  0
  -21.2914   -5.7665   23.5689 C   0  0  0  0  0  0  0  0  0  0  0  0
  -24.5893  -11.6743   20.7251 C   0  0  0  0  0  0  0  0  0  0  0  0
  -26.3356  -19.0490   21.1936 C   0  0  0  0  0  0  0  0  0  0  0  0
  -25.2260  -13.7766   20.6255 C   0  0  0  0  0  0  0  0  0  0  0  0
  -22.9039  -13.4583   21.4944 C   0  0  0  0  0  0  0  0  0  0  0  0
  -27.2761  -27.2866   22.1461 C   0  0  0  0  0  0  0  0  0  0  0  0
  -24.2347  -28.4130   22.0853 C   0  0  0  0  0  0  0  0  0  0  0  0
  -20.9545  -27.8586   21.3239 C   0  0  0  0  0  0  0  0  0  0  0  0
  -30.7040  -14.8425   20.6403 C   0  0  0  0  0  0  0  0  0  0  0  0
  -30.8310  -30.4928   23.9183 C   0  0  0  0  0  0  0  0  0  0  0  0
  -26.6169  -26.8272   19.7564 C   0  0  0  0  0  0  0  0  0  0  0  0
  -24.5325  -25.9442   21.6591 C   0  0  0  0  0  0  0  0  0  0  0  0
  -29.3563  -30.2280   24.2107 C   0  0  0  0  0  0  0  0  0  0  0  0
  -29.4772  -12.6281   18.1366 C   0  0  0  0  0  0  0  0  0  0  0  0
  -29.1109  -28.7354   24.4080 C   0  0  0  0  0  0  0  0  0  0  0  0
  -28.0637  -12.2865   18.6112 C   0  0  0  0  0  0  0  0  0  0  0  0
  -30.4469  -12.7701   19.3078 C   0  0  0  0  0  0  0  0  0  0  0  0
  -28.6051  -13.3744   20.8298 C   0  0  0  0  0  0  0  0  0  0  0  0
  -29.4595  -27.9466   23.1400 C   0  0  1  0  0  0  0  0  0  0  0  0
  -26.3157  -27.6034   21.0348 C   0  0  1  0  0  0  0  0  0  0  0  0
  -27.5792  -13.2762   19.6878 C   0  0  2  0  0  0  0  0  0  0  0  0
  -18.6975  -28.9511   21.4224 C   0  0  0  0  0  0  0  0  0  0  0  0
  -29.0247  -18.0234   16.3233 C   0  0  0  0  0  0  0  0  0  0  0  0
  -29.0405  -20.2835   17.4359 C   0  0  0  0  0  0  0  0  0  0  0  0
  -24.1098  -27.8788   25.0868 C   0  0  0  0  0  0  0  0  0  0  0  0
  -21.6177  -28.0732   24.9471 C   0  0  0  0  0  0  0  0  0  0  0  0
  -23.0540  -30.0278   24.3649 C   0  0  0  0  0  0  0  0  0  0  0  0
  -20.6374  -27.7341   18.3840 C   0  0  0  0  0  0  0  0  0  0  0  0
  -24.8676  -19.3828   21.3019 C   0  0  0  0  0  0  0  0  0  0  0  0
  -30.8092  -16.8962   22.0297 C   0  0  0  0  0  0  0  0  0  0  0  0
  -24.6067  -20.8830   21.2217 C   0  0  0  0  0  0  0  0  0  1  0  0
  -30.4795  -18.1320   21.1716 C   0  0  2  0  0  0  0  0  0  0  0  0
  -22.9476  -28.0545   22.7880 C   0  0  1  0  0  0  0  0  0  0  0  0
  -19.9372  -28.7025   20.5773 C   0  0  2  0  0  0  0  0  0  0  0  0
  -28.5158  -18.8562   17.4909 C   0  0  0  0  0  0  0  0  0  0  0  0
  -22.9462  -28.4897   24.2807 C   0  0  0  0  0  0  0  0  0  0  0  0
  -25.8343  -11.6244   20.2439 N   0  0  0  0  0  0  0  0  0  0  0  0
  -26.1943  -12.9182   20.1946 N   0  0  0  0  0  0  0  0  0  0  0  0
  -27.0495  -18.9918   22.3261 N   0  3  0  0  0  0  0  0  0  0  0  0
  -24.9687  -27.3460   21.5482 N   0  0  0  0  0  0  0  0  0  0  0  0
  -29.9293  -13.7237   20.2920 N   0  0  0  0  0  0  0  0  0  0  0  0
  -25.4219  -15.1122   20.6424 N   0  0  0  0  0  0  0  0  0  0  0  0
  -21.9161  -12.5150   21.8086 N   0  0  0  0  0  0  0  0  0  0  0  0
  -28.9405  -18.2539   18.7157 N   0  0  0  0  0  0  0  0  0  0  0  0
  -28.4068  -28.0808   22.1560 N   0  0  0  0  0  0  0  0  0  0  0  0
  -21.8725  -28.6393   21.9941 N   0  0  0  0  0  0  0  0  0  0  0  0
  -30.1367  -15.6994   21.5755 N   0  0  0  0  0  0  0  0  0  0  0  0
  -31.3225  -19.2762   21.6693 N   0  3  0  0  0  0  0  0  0  0  0  0
  -19.5199  -28.0192   19.3204 N   0  3  0  0  0  0  0  0  0  0  0  0
  -22.6604  -14.6785   21.6539 O   0  0  0  0  0  0  0  0  0  0  0  0
  -27.0102  -26.3891   22.9369 O   0  0  0  0  0  0  0  0  0  0  0  0
  -24.5727  -29.5969   22.0093 O   0  0  0  0  0  0  0  0  0  0  0  0
  -20.9345  -26.6298   21.3166 O   0  0  0  0  0  0  0  0  0  0  0  0
  -31.8164  -15.0642   20.1500 O   0  0  0  0  0  0  0  0  0  0  0  0
  -21.6938   -6.9562   21.5143 O   0  0  0  0  0  0  0  0  0  0  0  0
  -25.0591  -21.3847   19.9647 O   0  0  0  0  0  0  0  0  0  1  0  0
  -18.9208   -6.4208   26.2501 F   0  0  0  0  0  0  0  0  0  0  0  0
  -22.2478   -4.8817   23.2555 F   0  0  0  0  0  0  0  0  0  0  0  0
  1  2  1  0  0  0  0
  1  5  2  0  0  0  0
  2  6  2  0  0  0  0
  3  8  2  0  0  0  0
  3 17  1  0  0  0  0
  4  9  1  0  0  0  0
  4 17  2  0  0  0  0
  5 19  1  0  0  0  0
  6 21  1  0  0  0  0
  7 10  2  0  0  0  0
  7 20  1  0  0  0  0
  8 25  1  0  0  0  0
  9 25  2  0  0  0  0
 10 26  1  0  0  0  0
 11 12  2  0  0  0  0
 11 27  1  0  0  0  0
 12 28  1  0  0  0  0
 13 22  1  0  0  0  0
 13 26  2  0  0  0  0
 14 24  2  0  0  0  0
 14 31  1  0  0  0  0
 15 28  2  0  0  0  0
 15 29  1  0  0  0  0
 16 23  2  0  0  0  0
 16 67  1  0  0  0  0
 17 30  1  0  0  0  0
 18 30  1  0  0  0  0
 18 32  2  0  0  0  0
 18 33  1  0  0  0  0
 19 21  2  0  0  0  0
 19 38  1  0  0  0  0
 20 22  2  0  0  0  0
 20 39  1  0  0  0  0
 21 47  1  0  0  0  0
 22 40  1  0  0  0  0
 23 24  1  0  0  0  0
 23 60  1  0  0  0  0
 24 72  1  0  0  0  0
 25 83  1  0  0  0  0
 26 84  1  0  0  0  0
 27 29  2  0  0  0  0
 27 83  1  0  0  0  0
 28 85  1  0  0  0  0
 29 86  1  0  0  0  0
 30 65  2  0  0  0  0
 31 57  1  0  0  0  0
 31 67  2  0  0  0  0
 32 66  1  0  0  0  0
 32 70  1  0  0  0  0
 33 71  1  0  0  0  0
 33 78  2  0  0  0  0
 34 48  1  0  0  0  0
 34 73  1  0  0  0  0
 34 79  2  0  0  0  0
 35 61  1  0  0  0  0
 35 68  1  0  0  0  0
 35 80  2  0  0  0  0
 36 62  1  0  0  0  0
 36 74  1  0  0  0  0
 36 81  2  0  0  0  0
 37 69  1  0  0  0  0
 37 75  1  0  0  0  0
 37 82  2  0  0  0  0
 38 41  1  0  0  0  0
 39 48  1  0  0  0  0
 40 68  1  0  0  0  0
 41 43  1  0  0  0  0
 42 44  1  0  0  0  0
 42 45  1  0  0  0  0
 43 47  1  0  0  0  0
 44 49  1  0  0  0  0
 45 69  1  0  0  0  0
 46 49  1  0  0  0  0
 46 69  1  0  0  0  0
 47 73  1  0  0  0  0
 48 68  1  0  0  0  0
 49 66  1  0  0  0  0
 50 62  1  0  0  0  0
 51 63  1  0  0  0  0
 52 63  1  0  0  0  0
 53 64  1  0  0  0  0
 54 64  1  0  0  0  0
 55 64  1  0  0  0  0
 56 77  1  0  0  0  0
 57 59  1  0  0  0  0
 58 60  1  0  0  0  0
 58 75  1  0  0  0  0
 59 84  1  0  0  0  0
 60 76  1  0  0  0  0
 61 64  1  0  0  0  0
 61 74  1  0  0  0  0
 62 77  1  0  0  0  0
 63 72  1  0  0  0  0
 65 66  1  0  0  0  0
M  CHG  3  67   1  76   1  77   1
M  ISO  4  37 100  59 101  75 100  84 101
M  END
> <Batch ID>
0105

> <Smiles>
CNC(C)C(=O)NC(C(=O)N1Cc2cc([101O:1][101CH2:1]Cc3cc(NC(C)C)c(C(N)C[100NH:0][100C:0](=O)N4CCCC(n5nc(-c6ccc(Oc7ccc(F)cc7F)cc6)c(C(N)=O)c5N)C4)cn3)ccc2CC1C(=O)NC1CCCc2ccccc21)C(C)(C)C

> <Shape>
0.280

> <Color>
0.185

> <Negative vol penalty>
0.000

$$$$

  -OEChem-04052319463D

 90 98  0     1  0  0  0  0  0999 V2000
  -17.6182  -25.5463   25.7969 C   0  0  0  0  0  0  0  0  0  0  0  0
  -17.7600  -26.4678   24.7655 C   0  0  0  0  0  0  0  0  0  0  0  0
  -26.5443  -12.6012   21.7107 C   0  0  0  0  0  0  0  0  0  0  0  0
  -25.7184  -13.9738   19.9022 C   0  0  0  0  0  0  0  0  0  0  0  0
  -18.7498  -25.0097   26.4073 C   0  0  0  0  0  0  0  0  0  0  0  0
  -19.0332  -26.8439   24.3362 C   0  0  0  0  0  0  0  0  0  0  0  0
  -25.7867  -29.2281   20.0809 C   0  0  0  0  0  0  0  0  0  0  0  0
  -25.3021  -11.9731   21.8014 C   0  0  0  0  0  0  0  0  0  0  0  0
  -24.4762  -13.3458   19.9928 C   0  0  0  0  0  0  0  0  0  0  0  0
  -27.1373  -28.8833   20.1112 C   0  0  0  0  0  0  0  0  0  0  0  0
  -22.4582   -9.7575   22.2683 C   0  0  0  0  0  0  0  0  0  0  0  0
  -22.4413   -8.3681   22.3895 C   0  0  0  0  0  0  0  0  0  0  0  0
  -26.5335  -26.5713   20.4418 C   0  0  0  0  0  0  0  0  0  0  0  0
  -23.5867   -8.1695   20.2715 C   0  0  0  0  0  0  0  0  0  0  0  0
  -29.0654  -24.6405   23.6617 C   0  0  0  0  0  0  0  0  0  0  0  0
  -26.7524  -13.6015   20.7612 C   0  0  0  0  0  0  0  0  0  0  0  0
  -29.1292  -13.8614   19.8719 C   0  0  0  0  0  0  0  0  0  0  0  0
  -20.0372  -25.3893   25.9931 C   0  0  0  0  0  0  0  0  0  0  0  0
  -24.7979  -28.2470   20.2420 C   0  0  0  0  0  0  0  0  0  0  0  0
  -20.1877  -26.2954   24.9236 C   0  0  0  0  0  0  0  0  0  0  0  0
  -25.1710  -26.9059   20.4106 C   0  0  0  0  0  0  0  0  0  0  0  0
  -28.0154  -23.9794   24.2598 C   0  0  0  0  0  0  0  0  0  0  0  0
  -27.4075  -23.1681   23.2701 C   0  0  0  0  0  0  0  0  0  0  0  0
  -24.2681  -12.3454   20.9424 C   0  0  0  0  0  0  0  0  0  0  0  0
  -27.5109  -27.5552   20.2945 C   0  0  0  0  0  0  0  0  0  0  0  0
  -23.0393  -10.3530   21.1488 C   0  0  0  0  0  0  0  0  0  0  0  0
  -23.0056   -7.5740   21.3911 C   0  0  0  0  0  0  0  0  0  0  0  0
  -23.6036   -9.5590   20.1504 C   0  0  0  0  0  0  0  0  0  0  0  0
  -28.0352  -14.2511   20.6675 C   0  0  0  0  0  0  0  0  0  0  0  0
  -28.1048  -23.3580   22.0974 C   0  0  0  0  0  0  0  0  0  0  0  0
  -30.0984  -14.7974   20.1386 C   0  0  0  0  0  0  0  0  0  0  0  0
  -29.2579  -12.7526   18.9721 C   0  0  0  0  0  0  0  0  0  0  0  0
  -22.4967  -27.7093   22.3679 C   0  0  0  0  0  0  0  0  0  0  0  0
  -21.6833  -25.3396   20.3075 C   0  0  0  0  0  0  0  0  0  0  0  0
  -23.4068  -22.8605   18.3324 C   0  0  0  0  0  0  0  0  0  0  0  0
  -29.8758  -20.4614   22.0675 C   0  0  0  0  0  0  0  0  0  0  0  0
  -21.2274  -24.7713   26.6834 C   0  0  0  0  0  0  0  0  0  0  0  0
  -23.3450  -28.6314   20.1802 C   0  0  0  0  0  0  0  0  0  0  0  0
  -24.1479  -25.8118   20.5680 C   0  0  0  0  0  0  0  0  0  0  0  0
  -22.5159  -25.5576   26.4646 C   0  0  0  0  0  0  0  0  0  0  0  0
  -31.6057  -17.7476   23.5904 C   0  0  0  0  0  0  0  0  0  0  0  0
  -22.6986  -25.8544   24.9837 C   0  0  0  0  0  0  0  0  0  0  0  0
  -30.9855  -16.5086   22.9422 C   0  0  0  0  0  0  0  0  0  0  0  0
  -30.5692  -18.8466   23.8134 C   0  0  0  0  0  0  0  0  0  0  0  0
  -29.1838  -17.9902   21.9638 C   0  0  0  0  0  0  0  0  0  0  0  0
  -21.5625  -26.7424   24.4605 C   0  0  1  0  0  0  0  0  0  0  0  0
  -22.4304  -27.6234   20.8693 C   0  0  1  0  0  0  0  0  0  0  0  0
  -30.2017  -16.8754   21.6678 C   0  0  2  0  0  0  0  0  0  0  0  0
  -26.5686  -20.7921   23.2035 C   0  0  0  0  0  0  0  0  0  0  0  0
  -25.0264  -22.6909   22.5944 C   0  0  0  0  0  0  0  0  0  0  0  0
  -22.7388  -21.7221   16.1981 C   0  0  0  0  0  0  0  0  0  0  0  0
  -29.0661  -21.7750   18.7225 C   0  0  0  0  0  0  0  0  0  0  0  0
  -30.0225  -28.6308   21.8523 C   0  0  0  0  0  0  0  0  0  0  0  0
  -28.5246  -25.0998   26.4578 C   0  0  0  0  0  0  0  0  0  0  0  0
  -27.6812  -22.7284   26.4208 C   0  0  0  0  0  0  0  0  0  0  0  0
  -26.1446  -24.6185   25.9233 C   0  0  0  0  0  0  0  0  0  0  0  0
  -20.6017  -23.1596   22.1481 C   0  0  0  0  0  0  0  0  0  0  0  0
  -21.4106  -21.4609   20.4964 C   0  0  0  0  0  0  0  0  0  0  0  0
  -19.6728  -23.1204   19.8265 C   0  0  0  0  0  0  0  0  0  0  0  0
  -25.8962  -23.6999   16.9697 C   0  0  0  0  0  0  0  0  0  0  0  0
  -27.9013  -22.7629   20.7596 C   0  0  0  0  0  0  0  0  0  0  0  0
  -30.5975  -26.1887   21.6076 C   0  0  0  0  0  0  0  0  0  0  0  0
  -30.1201  -24.7532   21.3445 C   0  0  0  0  0  0  0  0  0  0  0  0
  -26.2409  -22.2811   23.4584 C   0  0  0  0  0  0  0  0  0  0  0  0
  -22.0608  -23.8869   20.1461 C   0  0  1  0  0  0  0  0  0  0  0  0
  -23.5543  -22.8441   16.8217 C   0  0  2  0  0  0  0  0  0  0  0  0
  -29.1151  -21.9541   20.2366 C   0  0  1  0  0  0  0  0  0  0  0  0
  -29.4739  -27.2325   21.5977 C   0  0  2  0  0  0  0  0  0  1  0  0
  -27.6074  -24.1023   25.6736 C   0  0  0  0  0  0  0  0  0  0  0  0
  -20.9545  -22.9258   20.6656 C   0  0  0  0  0  0  0  0  0  0  0  0
  -28.2852  -15.3489   21.3859 N   0  0  0  0  0  0  0  0  0  0  0  0
  -29.1104  -24.2548   22.3474 N   0  0  0  0  0  0  0  0  0  0  0  0
  -29.5475  -15.6571   21.0428 N   0  0  0  0  0  0  0  0  0  0  0  0
  -22.7403  -26.2389   20.5068 N   0  0  0  0  0  0  0  0  0  0  0  0
  -29.8624  -19.1483   22.5663 N   0  0  0  0  0  0  0  0  0  0  0  0
  -31.3596  -14.9606   19.6856 N   0  0  0  0  0  0  0  0  0  0  0  0
  -28.1656  -11.8884   18.8161 N   0  0  0  0  0  0  0  0  0  0  0  0
  -21.6554  -26.8280   23.0197 N   0  0  0  0  0  0  0  0  0  0  0  0
  -22.3960  -23.7063   18.7377 N   0  0  0  0  0  0  0  0  0  0  0  0
  -29.1868  -20.6598   20.8773 N   0  0  0  0  0  0  0  0  0  0  0  0
  -24.9830  -22.6533   16.4428 N   0  3  0  0  0  0  0  0  0  0  0  0
  -30.3161  -12.5251   18.3380 O   0  0  0  0  0  0  0  0  0  0  0  0
  -23.2562  -28.5145   22.8939 O   0  0  0  0  0  0  0  0  0  0  0  0
  -20.4948  -25.6654   20.2515 O   0  0  0  0  0  0  0  0  0  0  0  0
  -24.1147  -22.1873   19.0782 O   0  0  0  0  0  0  0  0  0  0  0  0
  -30.4630  -21.3871   22.6378 O   0  0  0  0  0  0  0  0  0  0  0  0
  -23.0560  -11.7326   21.0303 O   0  0  0  0  0  0  0  0  0  0  0  0
  -28.8284  -27.2161   20.3251 O   0  0  0  0  0  0  0  0  0  1  0  0
  -22.9907   -6.2398   21.5083 F   0  0  0  0  0  0  0  0  0  0  0  0
  -24.1643  -10.1254   19.0731 F   0  0  0  0  0  0  0  0  0  0  0  0
  1  2  1  0  0  0  0
  1  5  2  0  0  0  0
  2  6  2  0  0  0  0
  3  8  2  0  0  0  0
  3 16  1  0  0  0  0
  4  9  1  0  0  0  0
  4 16  2  0  0  0  0
  5 18  1  0  0  0  0
  6 20  1  0  0  0  0
  7 10  2  0  0  0  0
  7 19  1  0  0  0  0
  8 24  1  0  0  0  0
  9 24  2  0  0  0  0
 10 25  1  0  0  0  0
 11 12  2  0  0  0  0
 11 26  1  0  0  0  0
 12 27  1  0  0  0  0
 13 21  1  0  0  0  0
 13 25  2  0  0  0  0
 14 27  2  0  0  0  0
 14 28  1  0  0  0  0
 15 22  2  0  0  0  0
 15 72  1  0  0  0  0
 16 29  1  0  0  0  0
 17 29  1  0  0  0  0
 17 31  2  0  0  0  0
 17 32  1  0  0  0  0
 18 20  2  0  0  0  0
 18 37  1  0  0  0  0
 19 21  2  0  0  0  0
 19 38  1  0  0  0  0
 20 46  1  0  0  0  0
 21 39  1  0  0  0  0
 22 23  1  0  0  0  0
 22 69  1  0  0  0  0
 23 30  2  0  0  0  0
 23 64  1  0  0  0  0
 24 87  1  0  0  0  0
 25 88  1  0  0  0  0
 26 28  2  0  0  0  0
 26 87  1  0  0  0  0
 27 89  1  0  0  0  0
 28 90  1  0  0  0  0
 29 71  2  0  0  0  0
 30 61  1  0  0  0  0
 30 72  1  0  0  0  0
 31 73  1  0  0  0  0
 31 76  1  0  0  0  0
 32 77  1  0  0  0  0
 32 82  2  0  0  0  0
 33 47  1  0  0  0  0
 33 78  1  0  0  0  0
 33 83  2  0  0  0  0
 34 65  1  0  0  0  0
 34 74  1  0  0  0  0
 34 84  2  0  0  0  0
 35 66  1  0  0  0  0
 35 79  1  0  0  0  0
 35 85  2  0  0  0  0
 36 75  1  0  0  0  0
 36 80  1  0  0  0  0
 36 86  2  0  0  0  0
 37 40  1  0  0  0  0
 38 47  1  0  0  0  0
 39 74  1  0  0  0  0
 40 42  1  0  0  0  0
 41 43  1  0  0  0  0
 41 44  1  0  0  0  0
 42 46  1  0  0  0  0
 43 48  1  0  0  0  0
 44 75  1  0  0  0  0
 45 48  1  0  0  0  0
 45 75  1  0  0  0  0
 46 78  1  0  0  0  0
 47 74  1  0  0  0  0
 48 73  1  0  0  0  0
 49 64  1  0  0  0  0
 50 64  1  0  0  0  0
 51 66  1  0  0  0  0
 52 67  1  0  0  0  0
 53 68  1  0  0  0  0
 54 69  1  0  0  0  0
 55 69  1  0  0  0  0
 56 69  1  0  0  0  0
 57 70  1  0  0  0  0
 58 70  1  0  0  0  0
 59 70  1  0  0  0  0
 60 81  1  0  0  0  0
 61 67  1  0  0  0  0
 62 63  1  0  0  0  0
 62 68  1  0  0  0  0
 63 72  1  0  0  0  0
 65 70  1  0  0  0  0
 65 79  1  0  0  0  0
 66 81  1  0  0  0  0
 67 80  1  0  0  0  0
 68 88  1  0  0  0  0
 71 73  1  0  0  0  0
M  CHG  1  81   1
M  ISO  4  36 100  68 101  80 100  88 101
M  END
> <Batch ID>
0105

> <Smiles>
CNC(C)C(=O)NC(C(=O)N1Cc2cc([101O:1][101CH:1](C)CCn3cc(C(C)(C)C)c(C(C)C)c3CC(C)[100NH:0][100C:0](=O)N3CCCC(n4nc(-c5ccc(Oc6ccc(F)cc6F)cc5)c(C(N)=O)c4N)C3)ccc2CC1C(=O)NC1CCCc2ccccc21)C(C)(C)C

> <Shape>
0.231

> <Color>
0.090

> <Negative vol penalty>
0.000

$$$$

  -OEChem-04052319463D

 80 87  0     1  0  0  0  0  0999 V2000
  -16.6883  -29.8041   23.7874 C   0  0  0  0  0  0  0  0  0  0  0  0
  -17.1944  -28.7848   22.9871 C   0  0  0  0  0  0  0  0  0  0  0  0
  -26.5696  -12.5228   20.0070 C   0  0  0  0  0  0  0  0  0  0  0  0
  -24.8595  -13.9788   20.8975 C   0  0  0  0  0  0  0  0  0  0  0  0
  -17.5051  -30.8739   24.1512 C   0  0  0  0  0  0  0  0  0  0  0  0
  -18.5174  -28.8354   22.5493 C   0  0  0  0  0  0  0  0  0  0  0  0
  -24.0441  -24.5584   20.9746 C   0  0  0  0  0  0  0  0  0  0  0  0
  -25.8304  -11.4098   20.4073 C   0  0  0  0  0  0  0  0  0  0  0  0
  -24.1203  -12.8657   21.2978 C   0  0  0  0  0  0  0  0  0  0  0  0
  -24.9573  -24.3116   19.9504 C   0  0  0  0  0  0  0  0  0  0  0  0
  -25.2414   -9.7091   23.2683 C   0  0  0  0  0  0  0  0  0  0  0  0
  -25.9246   -8.6734   23.9054 C   0  0  0  0  0  0  0  0  0  0  0  0
  -26.2985  -26.1685   20.7070 C   0  0  0  0  0  0  0  0  0  0  0  0
  -25.2478   -7.1508   22.1559 C   0  0  0  0  0  0  0  0  0  0  0  0
  -26.0842  -13.8074   20.2521 C   0  0  0  0  0  0  0  0  0  0  0  0
  -26.7742  -15.6276   18.6034 C   0  0  0  0  0  0  0  0  0  0  0  0
  -18.8415  -30.9327   23.7256 C   0  0  0  0  0  0  0  0  0  0  0  0
  -24.2459  -25.6207   21.8675 C   0  0  0  0  0  0  0  0  0  0  0  0
  -19.3524  -29.9076   22.9066 C   0  0  0  0  0  0  0  0  0  0  0  0
  -25.3876  -26.4251   21.7431 C   0  0  0  0  0  0  0  0  0  0  0  0
  -24.6058  -11.5812   21.0527 C   0  0  0  0  0  0  0  0  0  0  0  0
  -26.0832  -25.1184   19.8147 C   0  0  0  0  0  0  0  0  0  0  0  0
  -24.5613   -9.4657   22.0750 C   0  0  0  0  0  0  0  0  0  0  0  0
  -25.9278   -7.3942   23.3493 C   0  0  0  0  0  0  0  0  0  0  0  0
  -24.5645   -8.1866   21.5188 C   0  0  0  0  0  0  0  0  0  0  0  0
  -26.8475  -14.9576   19.8393 C   0  0  0  0  0  0  0  0  0  0  0  0
  -27.6926  -16.6435   18.7085 C   0  0  0  0  0  0  0  0  0  0  0  0
  -25.9495  -15.3562   17.4624 C   0  0  0  0  0  0  0  0  0  0  0  0
  -22.6509  -28.2717   22.5970 C   0  0  0  0  0  0  0  0  0  0  0  0
  -29.9538  -20.8109   21.6765 C   0  0  0  0  0  0  0  0  0  0  0  0
  -24.9243  -28.5415   24.8951 C   0  0  0  0  0  0  0  0  0  0  0  0
  -28.0685  -27.7582   25.9661 C   0  0  0  0  0  0  0  0  0  0  0  0
  -19.6721  -32.1329   24.1053 C   0  0  0  0  0  0  0  0  0  0  0  0
  -23.2652  -25.8572   22.9831 C   0  0  0  0  0  0  0  0  0  0  0  0
  -25.6609  -27.5656   22.6881 C   0  0  0  0  0  0  0  0  0  0  0  0
  -21.1714  -31.9227   23.9093 C   0  0  0  0  0  0  0  0  0  0  0  0
  -31.2703  -17.5143   22.1654 C   0  0  0  0  0  0  0  0  0  0  0  0
  -21.4488  -31.2940   22.5475 C   0  0  0  0  0  0  0  0  0  0  0  0
  -30.2164  -16.6089   21.5292 C   0  0  0  0  0  0  0  0  0  0  0  0
  -30.6337  -18.7315   22.8289 C   0  0  0  0  0  0  0  0  0  0  0  0
  -28.7063  -18.6295   21.2809 C   0  0  0  0  0  0  0  0  0  0  0  0
  -20.7894  -29.9143   22.4323 C   0  0  1  0  0  0  0  0  0  0  0  0
  -23.3052  -27.2842   23.5213 C   0  0  1  0  0  0  0  0  0  0  0  0
  -29.3096  -17.4035   20.5728 C   0  0  2  0  0  0  0  0  0  0  0  0
  -28.6278  -20.9419   15.3997 C   0  0  0  0  0  0  0  0  0  0  0  0
  -27.7592  -21.9420   21.4162 C   0  0  0  0  0  0  0  0  0  0  0  0
  -29.6583  -28.1558   27.8666 C   0  0  0  0  0  0  0  0  0  0  0  0
  -30.7339  -24.6871   18.4713 C   0  0  0  0  0  0  0  0  0  0  0  0
  -25.4814  -31.3492   23.8384 C   0  0  0  0  0  0  0  0  0  0  0  0
  -27.6437  -31.3195   25.1000 C   0  0  0  0  0  0  0  0  0  0  0  0
  -25.4808  -31.1539   26.3317 C   0  0  0  0  0  0  0  0  0  0  0  0
  -28.1925  -24.8741   26.6185 C   0  0  0  0  0  0  0  0  0  0  0  0
  -28.3224  -21.9386   16.5060 C   0  0  0  0  0  0  0  0  0  0  0  0
  -29.4280  -21.9579   17.5495 C   0  0  0  0  0  0  0  0  0  0  0  0
  -29.7477  -22.5851   19.9380 C   0  0  0  0  0  0  0  0  0  0  0  0
  -28.3377  -25.2258   19.0652 C   0  0  0  0  0  0  0  0  0  1  0  0
  -29.0200  -21.4771   20.6976 C   0  0  1  0  0  0  0  0  0  0  0  0
  -26.2906  -29.1782   24.9778 C   0  0  1  0  0  0  0  0  0  0  0  0
  -28.5796  -27.2455   27.3005 C   0  0  2  0  0  0  0  0  0  0  0  0
  -29.2707  -24.3448   18.2421 C   0  0  2  0  0  0  0  0  0  0  0  0
  -26.2183  -30.7300   25.0428 C   0  0  0  0  0  0  0  0  0  0  0  0
  -27.7420  -15.5018   20.6686 N   0  0  0  0  0  0  0  0  0  0  0  0
  -28.2392  -16.5245   19.9524 N   0  0  0  0  0  0  0  0  0  0  0  0
  -24.6693  -27.7606   23.7588 N   0  0  0  0  0  0  0  0  0  0  0  0
  -29.7625  -19.4464   21.8945 N   0  0  0  0  0  0  0  0  0  0  0  0
  -28.0780  -17.6178   17.8574 N   0  0  0  0  0  0  0  0  0  0  0  0
  -25.0607  -14.2742   17.5227 N   0  0  0  0  0  0  0  0  0  0  0  0
  -21.5636  -28.9228   23.1477 N   0  0  0  0  0  0  0  0  0  0  0  0
  -26.9593  -28.5628   26.1191 N   0  0  0  0  0  0  0  0  0  0  0  0
  -29.1521  -25.8784   27.1453 N   0  3  0  0  0  0  0  0  0  0  0  0
  -29.0569  -22.9242   18.6434 N   0  3  1  0  0  0  0  0  0  0  0  0
  -26.0111  -16.0425   16.4142 O   0  0  0  0  0  0  0  0  0  0  0  0
  -23.1003  -28.4321   21.4682 O   0  0  0  0  0  0  0  0  0  0  0  0
  -30.8284  -21.4843   22.2278 O   0  0  0  0  0  0  0  0  0  0  0  0
  -24.1157  -28.7242   25.8085 O   0  0  0  0  0  0  0  0  0  0  0  0
  -28.6023  -27.4762   24.8956 O   0  0  0  0  0  0  0  0  0  0  0  0
  -23.8841  -10.4953   21.4432 O   0  0  0  0  0  0  0  0  0  0  0  0
  -26.9758  -24.8801   18.8156 O   0  0  0  0  0  0  0  0  0  1  0  0
  -26.5853   -6.4000   23.9604 F   0  0  0  0  0  0  0  0  0  0  0  0
  -23.9140   -7.9469   20.3720 F   0  0  0  0  0  0  0  0  0  0  0  0
  1  2  1  0  0  0  0
  1  5  2  0  0  0  0
  2  6  2  0  0  0  0
  3  8  2  0  0  0  0
  3 15  1  0  0  0  0
  4  9  1  0  0  0  0
  4 15  2  0  0  0  0
  5 17  1  0  0  0  0
  6 19  1  0  0  0  0
  7 10  2  0  0  0  0
  7 18  1  0  0  0  0
  8 21  1  0  0  0  0
  9 21  2  0  0  0  0
 10 22  1  0  0  0  0
 11 12  2  0  0  0  0
 11 23  1  0  0  0  0
 12 24  1  0  0  0  0
 13 20  1  0  0  0  0
 13 22  2  0  0  0  0
 14 24  2  0  0  0  0
 14 25  1  0  0  0  0
 15 26  1  0  0  0  0
 16 26  1  0  0  0  0
 16 27  2  0  0  0  0
 16 28  1  0  0  0  0
 17 19  2  0  0  0  0
 17 33  1  0  0  0  0
 18 20  2  0  0  0  0
 18 34  1  0  0  0  0
 19 42  1  0  0  0  0
 20 35  1  0  0  0  0
 21 77  1  0  0  0  0
 22 78  1  0  0  0  0
 23 25  2  0  0  0  0
 23 77  1  0  0  0  0
 24 79  1  0  0  0  0
 25 80  1  0  0  0  0
 26 62  2  0  0  0  0
 27 63  1  0  0  0  0
 27 66  1  0  0  0  0
 28 67  1  0  0  0  0
 28 72  2  0  0  0  0
 29 43  1  0  0  0  0
 29 68  1  0  0  0  0
 29 73  2  0  0  0  0
 30 57  1  0  0  0  0
 30 65  1  0  0  0  0
 30 74  2  0  0  0  0
 31 58  1  0  0  0  0
 31 64  1  0  0  0  0
 31 75  2  0  0  0  0
 32 59  1  0  0  0  0
 32 69  1  0  0  0  0
 32 76  2  0  0  0  0
 33 36  1  0  0  0  0
 34 43  1  0  0  0  0
 35 64  1  0  0  0  0
 36 38  1  0  0  0  0
 37 39  1  0  0  0  0
 37 40  1  0  0  0  0
 38 42  1  0  0  0  0
 39 44  1  0  0  0  0
 40 65  1  0  0  0  0
 41 44  1  0  0  0  0
 41 65  1  0  0  0  0
 42 68  1  0  0  0  0
 43 64  1  0  0  0  0
 44 63  1  0  0  0  0
 45 53  1  0  0  0  0
 46 57  1  0  0  0  0
 47 59  1  0  0  0  0
 48 60  1  0  0  0  0
 49 61  1  0  0  0  0
 50 61  1  0  0  0  0
 51 61  1  0  0  0  0
 52 70  1  0  0  0  0
 53 54  1  0  0  0  0
 54 71  1  0  0  0  0
 55 57  1  0  0  0  0
 55 71  1  0  0  0  0
 56 60  1  0  0  0  0
 56 78  1  0  0  0  0
 58 61  1  0  0  0  0
 58 69  1  0  0  0  0
 59 70  1  0  0  0  0
 60 71  1  0  0  0  0
 62 63  1  0  0  0  0
M  CHG  2  70   1  71   1
M  ISO  4  30 100  56 101  57 100  78 101
M  END
> <Batch ID>
0105

> <Smiles>
CCCN(C[100CH:0](C)[100C:0](=O)N1CCCC(n2nc(-c3ccc(Oc4ccc(F)cc4F)cc3)c(C(N)=O)c2N)C1)C(C)[101CH2:1][101O:1]c1ccc2c(c1)CN(C(=O)C(NC(=O)C(C)NC)C(C)(C)C)C(C(=O)NC1CCCc3ccccc31)C2

> <Shape>
0.251

> <Color>
0.056

> <Negative vol penalty>
0.000

$$$$

  -OEChem-04052319463D

 90 99  0     1  0  0  0  0  0999 V2000
  -28.1988  -38.3575   20.7997 C   0  0  0  0  0  0  0  0  0  0  0  0
  -28.5959  -37.1111   20.3261 C   0  0  0  0  0  0  0  0  0  0  0  0
  -24.8180  -12.1966   21.8436 C   0  0  0  0  0  0  0  0  0  0  0  0
  -25.2794  -12.0303   19.4779 C   0  0  0  0  0  0  0  0  0  0  0  0
  -27.5837  -38.4647   22.0463 C   0  0  0  0  0  0  0  0  0  0  0  0
  -28.3790  -35.9712   21.0994 C   0  0  0  0  0  0  0  0  0  0  0  0
  -27.0162  -30.3541   19.0754 C   0  0  0  0  0  0  0  0  0  0  0  0
  -24.1571  -10.9691   21.8010 C   0  0  0  0  0  0  0  0  0  0  0  0
  -24.6185  -10.8027   19.4353 C   0  0  0  0  0  0  0  0  0  0  0  0
  -27.7972  -29.2194   18.8606 C   0  0  0  0  0  0  0  0  0  0  0  0
  -21.1356   -9.7996   20.8379 C   0  0  0  0  0  0  0  0  0  0  0  0
  -19.9105   -9.7008   21.4974 C   0  0  0  0  0  0  0  0  0  0  0  0
  -31.4672  -25.7693   18.1898 C   0  0  0  0  0  0  0  0  0  0  0  0
  -27.1770  -28.3876   21.0384 C   0  0  0  0  0  0  0  0  0  0  0  0
  -20.8076   -7.9515   22.9018 C   0  0  0  0  0  0  0  0  0  0  0  0
  -32.1395  -24.5584   18.1486 C   0  0  0  0  0  0  0  0  0  0  0  0
  -25.3792  -12.7273   20.6820 C   0  0  0  0  0  0  0  0  0  0  0  0
  -27.4290  -14.2171   20.9762 C   0  0  0  0  0  0  0  0  0  0  0  0
  -27.3504  -37.3243   22.8311 C   0  0  0  0  0  0  0  0  0  0  0  0
  -26.3172  -30.5195   20.2798 C   0  0  0  0  0  0  0  0  0  0  0  0
  -27.7613  -36.0634   22.3583 C   0  0  0  0  0  0  0  0  0  0  0  0
  -26.3858  -29.5242   21.2650 C   0  0  0  0  0  0  0  0  0  0  0  0
  -30.0854  -25.7417   18.3415 C   0  0  0  0  0  0  0  0  0  0  0  0
  -29.4273  -24.5213   18.4459 C   0  0  0  0  0  0  0  0  0  0  0  0
  -24.0573  -10.2721   20.5969 C   0  0  0  0  0  0  0  0  0  0  0  0
  -27.8800  -28.2373   19.8434 C   0  0  0  0  0  0  0  0  0  0  0  0
  -22.1967   -8.9743   21.2103 C   0  0  0  0  0  0  0  0  0  0  0  0
  -19.7465   -8.7768   22.5294 C   0  0  0  0  0  0  0  0  0  0  0  0
  -22.0327   -8.0502   22.2422 C   0  0  0  0  0  0  0  0  0  0  0  0
  -26.0616  -13.9956   20.7253 C   0  0  0  0  0  0  0  0  0  0  0  0
  -30.1908  -23.3663   18.3930 C   0  0  0  0  0  0  0  0  0  0  0  0
  -27.5741  -15.5812   20.9077 C   0  0  0  0  0  0  0  0  0  0  0  0
  -28.4745  -13.2741   21.2468 C   0  0  0  0  0  0  0  0  0  0  0  0
  -26.3931  -32.6430   22.6439 C   0  0  0  0  0  0  0  0  0  0  0  0
  -23.8204  -30.9750   23.7027 C   0  0  0  0  0  0  0  0  0  0  0  0
  -22.0808  -28.0390   23.7265 C   0  0  0  0  0  0  0  0  0  0  0  0
  -24.5012  -19.7244   18.0360 C   0  0  0  0  0  0  0  0  0  0  0  0
  -26.7247  -37.4957   24.1926 C   0  0  0  0  0  0  0  0  0  0  0  0
  -25.4578  -31.7367   20.4852 C   0  0  0  0  0  0  0  0  0  0  0  0
  -25.6385  -29.6444   22.5672 C   0  0  0  0  0  0  0  0  0  0  0  0
  -26.1927  -36.1940   24.7867 C   0  0  0  0  0  0  0  0  0  0  0  0
  -29.4825  -19.0471   18.5849 C   0  0  0  0  0  0  0  0  0  0  0  0
  -29.2978  -19.8747   19.8532 C   0  0  0  0  0  0  0  0  0  0  0  0
  -29.0239  -19.8081   17.3447 C   0  0  0  0  0  0  0  0  0  0  0  0
  -25.1417  -19.6451   21.5971 C   0  0  0  0  0  0  0  0  0  0  0  0
  -27.2217  -35.0783   24.6351 C   0  0  0  0  0  0  0  0  0  0  0  0
  -29.9923  -21.2313   19.7477 C   0  0  0  0  0  0  0  0  0  0  0  0
  -29.7170  -21.1644   17.2267 C   0  0  0  0  0  0  0  0  0  0  0  0
  -25.5834  -18.1938   21.7944 C   0  0  0  0  0  0  0  0  0  0  0  0
  -24.0276  -19.7476   20.5595 C   0  0  0  0  0  0  0  0  0  0  0  0
  -24.8027  -17.6983   19.4312 C   0  0  0  0  0  0  0  0  0  0  0  0
  -27.5209  -34.8007   23.1569 C   0  0  1  0  0  0  0  0  0  0  0  0
  -29.5309  -22.0084   18.5010 C   0  0  0  0  0  0  0  0  0  0  0  0
  -25.1987  -32.0437   21.9570 C   0  0  1  0  0  0  0  0  0  0  0  0
  -25.9428  -17.5300   20.4519 C   0  0  2  0  0  0  0  0  0  0  0  0
  -20.0374  -26.9679   24.7139 C   0  0  0  0  0  0  0  0  0  0  0  0
  -25.2694  -30.6760   26.3711 C   0  0  0  0  0  0  0  0  0  0  0  0
  -23.6615  -28.8496   26.9603 C   0  0  0  0  0  0  0  0  0  0  0  0
  -22.8242  -31.1653   26.5610 C   0  0  0  0  0  0  0  0  0  0  0  0
  -20.8871  -27.5843   21.0568 C   0  0  0  0  0  0  0  0  0  0  0  0
  -27.1419  -25.1637   16.3598 C   0  0  0  0  0  0  0  0  0  0  0  0
  -27.9458  -24.4612   18.6095 C   0  0  0  0  0  0  0  0  0  0  0  0
  -29.3302  -27.0373   18.3897 C   0  0  0  0  0  0  0  0  0  1  0  0
  -25.4963  -22.5090   16.5277 C   0  0  0  0  0  0  0  0  0  0  0  0
  -24.1528  -21.8294   16.7693 C   0  0  0  0  0  0  0  0  0  0  0  0
  -25.8750  -23.4574   17.6580 C   0  0  0  0  0  0  0  0  0  0  0  0
  -23.6176  -29.7789   24.6012 C   0  0  1  0  0  0  0  0  0  0  0  0
  -20.6048  -27.7411   23.5336 C   0  0  2  0  0  0  0  0  0  0  0  0
  -23.8589  -30.1158   26.0998 C   0  0  0  0  0  0  0  0  0  0  0  0
  -31.5347  -23.3533   18.2466 N   0  0  0  0  0  0  0  0  0  0  0  0
  -25.3862  -15.1282   20.5134 N   0  0  0  0  0  0  0  0  0  0  0  0
  -26.3331  -16.0746   20.6311 N   0  0  0  0  0  0  0  0  0  0  0  0
  -24.8167  -30.8559   22.7234 N   0  0  0  0  0  0  0  0  0  0  0  0
  -24.4405  -19.1134   19.2996 N   0  0  0  0  0  0  0  0  0  0  0  0
  -28.6409  -16.3947   21.0579 N   0  0  0  0  0  0  0  0  0  0  0  0
  -28.1522  -11.9105   21.2806 N   0  0  0  0  0  0  0  0  0  0  0  0
  -26.4558  -34.0210   22.5635 N   0  0  0  0  0  0  0  0  0  0  0  0
  -22.2809  -29.2719   24.3105 N   0  0  0  0  0  0  0  0  0  0  0  0
  -24.1354  -21.0643   17.9962 N   0  0  0  0  0  0  0  0  0  0  0  0
  -20.3965  -26.9332   22.2987 N   0  3  0  0  0  0  0  0  0  0  0  0
  -27.2309  -24.0490   17.3701 N   0  3  1  0  0  0  0  0  0  0  0  0
  -29.6563  -13.6312   21.4689 O   0  0  0  0  0  0  0  0  0  0  0  0
  -27.1975  -31.9094   23.2066 O   0  0  0  0  0  0  0  0  0  0  0  0
  -23.1157  -31.9753   23.8591 O   0  0  0  0  0  0  0  0  0  0  0  0
  -22.9674  -27.2547   23.3958 O   0  0  0  0  0  0  0  0  0  0  0  0
  -24.8603  -19.1216   17.0188 O   0  0  0  0  0  0  0  0  0  0  0  0
  -23.4126   -9.0741   20.5550 O   0  0  0  0  0  0  0  0  0  0  0  0
  -28.6422  -27.1290   19.6365 O   0  0  0  0  0  0  0  0  0  1  0  0
  -18.5705   -8.6831   23.1637 F   0  0  0  0  0  0  0  0  0  0  0  0
  -23.0488   -7.2555   22.6051 F   0  0  0  0  0  0  0  0  0  0  0  0
  1  2  1  0  0  0  0
  1  5  2  0  0  0  0
  2  6  2  0  0  0  0
  3  8  2  0  0  0  0
  3 17  1  0  0  0  0
  4  9  1  0  0  0  0
  4 17  2  0  0  0  0
  5 19  1  0  0  0  0
  6 21  1  0  0  0  0
  7 10  2  0  0  0  0
  7 20  1  0  0  0  0
  8 25  1  0  0  0  0
  9 25  2  0  0  0  0
 10 26  1  0  0  0  0
 11 12  2  0  0  0  0
 11 27  1  0  0  0  0
 12 28  1  0  0  0  0
 13 16  2  0  0  0  0
 13 23  1  0  0  0  0
 14 22  1  0  0  0  0
 14 26  2  0  0  0  0
 15 28  2  0  0  0  0
 15 29  1  0  0  0  0
 16 70  1  0  0  0  0
 17 30  1  0  0  0  0
 18 30  1  0  0  0  0
 18 32  2  0  0  0  0
 18 33  1  0  0  0  0
 19 21  2  0  0  0  0
 19 38  1  0  0  0  0
 20 22  2  0  0  0  0
 20 39  1  0  0  0  0
 21 52  1  0  0  0  0
 22 40  1  0  0  0  0
 23 24  2  0  0  0  0
 23 63  1  0  0  0  0
 24 31  1  0  0  0  0
 24 62  1  0  0  0  0
 25 87  1  0  0  0  0
 26 88  1  0  0  0  0
 27 29  2  0  0  0  0
 27 87  1  0  0  0  0
 28 89  1  0  0  0  0
 29 90  1  0  0  0  0
 30 71  2  0  0  0  0
 31 53  1  0  0  0  0
 31 70  2  0  0  0  0
 32 72  1  0  0  0  0
 32 75  1  0  0  0  0
 33 76  1  0  0  0  0
 33 82  2  0  0  0  0
 34 54  1  0  0  0  0
 34 77  1  0  0  0  0
 34 83  2  0  0  0  0
 35 67  1  0  0  0  0
 35 73  1  0  0  0  0
 35 84  2  0  0  0  0
 36 68  1  0  0  0  0
 36 78  1  0  0  0  0
 36 85  2  0  0  0  0
 37 74  1  0  0  0  0
 37 79  1  0  0  0  0
 37 86  2  0  0  0  0
 38 41  1  0  0  0  0
 39 54  1  0  0  0  0
 40 73  1  0  0  0  0
 41 46  1  0  0  0  0
 42 43  1  0  0  0  0
 42 44  1  0  0  0  0
 43 47  1  0  0  0  0
 44 48  1  0  0  0  0
 45 49  1  0  0  0  0
 45 50  1  0  0  0  0
 46 52  1  0  0  0  0
 47 53  1  0  0  0  0
 48 53  1  0  0  0  0
 49 55  1  0  0  0  0
 50 74  1  0  0  0  0
 51 55  1  0  0  0  0
 51 74  1  0  0  0  0
 52 77  1  0  0  0  0
 54 73  1  0  0  0  0
 55 72  1  0  0  0  0
 56 68  1  0  0  0  0
 57 69  1  0  0  0  0
 58 69  1  0  0  0  0
 59 69  1  0  0  0  0
 60 80  1  0  0  0  0
 61 81  1  0  0  0  0
 62 81  1  0  0  0  0
 63 88  1  0  0  0  0
 64 65  1  0  0  0  0
 64 66  1  0  0  0  0
 65 79  1  0  0  0  0
 66 81  1  0  0  0  0
 67 69  1  0  0  0  0
 67 78  1  0  0  0  0
 68 80  1  0  0  0  0
 71 72  1  0  0  0  0
M  CHG  2  80   1  81   1
M  ISO  4  37 100  63 101  79 100  88 101
M  END
> <Batch ID>
0105

> <Smiles>
CNC(C)C(=O)NC(C(=O)N1Cc2cc([101O:1][101CH2:1]c3ccnc(C4CCCCC4)c3CN(C)CCC[100NH:0][100C:0](=O)N3CCCC(n4nc(-c5ccc(Oc6ccc(F)cc6F)cc5)c(C(N)=O)c4N)C3)ccc2CC1C(=O)NC1CCCc2ccccc21)C(C)(C)C

> <Shape>
0.294

> <Color>
0.057

> <Negative vol penalty>
0.000

$$$$

  -OEChem-04052319463D

 82 90  0     1  0  0  0  0  0999 V2000
  -22.6088  -10.7183   18.9793 C   0  0  0  0  0  0  0  0  0  0  0  0
  -21.9484  -11.8127   19.5286 C   0  0  0  0  0  0  0  0  0  0  0  0
  -25.1733  -29.2516   19.6194 C   0  0  0  0  0  0  0  0  0  0  0  0
  -25.9416  -27.1179   20.4523 C   0  0  0  0  0  0  0  0  0  0  0  0
  -23.9837  -10.5730   19.1593 C   0  0  0  0  0  0  0  0  0  0  0  0
  -22.6624  -12.7619   20.2591 C   0  0  0  0  0  0  0  0  0  0  0  0
  -22.7516  -19.7751   21.7162 C   0  0  0  0  0  0  0  0  0  0  0  0
  -26.4728  -29.7516   19.7015 C   0  0  0  0  0  0  0  0  0  0  0  0
  -27.2412  -27.6179   20.5345 C   0  0  0  0  0  0  0  0  0  0  0  0
  -22.7813  -20.6493   22.8019 C   0  0  0  0  0  0  0  0  0  0  0  0
  -29.8122  -28.2256   18.4271 C   0  0  0  0  0  0  0  0  0  0  0  0
  -30.8459  -27.4216   17.9469 C   0  0  0  0  0  0  0  0  0  0  0  0
  -24.2848  -23.7813   26.4730 C   0  0  0  0  0  0  0  0  0  0  0  0
  -25.1666  -20.3364   22.9807 C   0  0  0  0  0  0  0  0  0  0  0  0
  -31.8599  -27.4154   20.1398 C   0  0  0  0  0  0  0  0  0  0  0  0
  -24.0673  -24.5908   27.5660 C   0  0  0  0  0  0  0  0  0  0  0  0
  -24.9076  -27.9347   19.9948 C   0  0  0  0  0  0  0  0  0  0  0  0
  -22.9699  -26.7734   18.8098 C   0  0  0  0  0  0  0  0  0  0  0  0
  -24.7166  -11.5259   19.8841 C   0  0  0  0  0  0  0  0  0  0  0  0
  -23.9295  -19.1655   21.2608 C   0  0  0  0  0  0  0  0  0  0  0  0
  -24.0482  -12.6284   20.4500 C   0  0  0  0  0  0  0  0  0  0  0  0
  -25.1495  -19.4568   21.8875 C   0  0  0  0  0  0  0  0  0  0  0  0
  -23.0256  -23.2792   26.0612 C   0  0  0  0  0  0  0  0  0  0  0  0
  -27.5068  -28.9348   20.1591 C   0  0  0  0  0  0  0  0  0  0  0  0
  -23.9885  -20.9278   23.4361 C   0  0  0  0  0  0  0  0  0  0  0  0
  -29.8024  -28.6247   19.7637 C   0  0  0  0  0  0  0  0  0  0  0  0
  -31.8697  -27.0165   18.8033 C   0  0  0  0  0  0  0  0  0  0  0  0
  -30.8262  -28.2195   20.6200 C   0  0  0  0  0  0  0  0  0  0  0  0
  -23.5653  -27.4178   19.9107 C   0  0  0  0  0  0  0  0  0  0  0  0
  -22.0770  -23.7975   26.9150 C   0  0  0  0  0  0  0  0  0  0  0  0
  -21.6966  -26.4787   19.2319 C   0  0  0  0  0  0  0  0  0  0  0  0
  -23.5189  -26.4684   17.5209 C   0  0  0  0  0  0  0  0  0  0  0  0
  -24.9528  -16.1661   21.0154 C   0  0  0  0  0  0  0  0  0  0  0  0
  -27.4656  -17.5582   19.5087 C   0  0  0  0  0  0  0  0  0  0  0  0
  -29.3663  -20.3504   19.0208 C   0  0  0  0  0  0  0  0  0  0  0  0
  -19.2900  -25.6319   24.6488 C   0  0  0  0  0  0  0  0  0  0  0  0
  -26.1934  -11.3013   20.0921 C   0  0  0  0  0  0  0  0  0  0  0  0
  -23.8846  -18.2456   20.0716 C   0  0  0  0  0  0  0  0  0  0  0  0
  -26.4451  -18.8442   21.4244 C   0  0  0  0  0  0  0  0  0  0  0  0
  -26.9389  -12.5479   20.5617 C   0  0  0  0  0  0  0  0  0  0  0  0
  -18.2873  -28.0254   22.2111 C   0  0  0  0  0  0  0  0  0  0  0  0
  -26.1780  -13.2301   21.6942 C   0  0  0  0  0  0  0  0  0  0  0  0
  -19.4725  -28.0829   21.2458 C   0  0  0  0  0  0  0  0  0  0  0  0
  -18.7446  -27.8347   23.6555 C   0  0  0  0  0  0  0  0  0  0  0  0
  -20.8224  -26.7389   22.9101 C   0  0  0  0  0  0  0  0  0  0  0  0
  -24.7922  -13.6923   21.2278 C   0  0  1  0  0  0  0  0  0  0  0  0
  -25.0665  -17.2825   20.0162 C   0  0  1  0  0  0  0  0  0  0  0  0
  -20.4088  -26.8742   21.4347 C   0  0  2  0  0  0  0  0  0  0  0  0
  -31.3747  -21.1705   17.7595 C   0  0  0  0  0  0  0  0  0  0  0  0
  -20.2125  -22.3966   27.8256 C   0  0  0  0  0  0  0  0  0  0  0  0
  -29.2904  -16.0923   21.4660 C   0  0  0  0  0  0  0  0  0  0  0  0
  -31.1371  -17.6461   20.7999 C   0  0  0  0  0  0  0  0  0  0  0  0
  -30.1112  -16.1315   19.1040 C   0  0  0  0  0  0  0  0  0  0  0  0
  -22.0955  -25.3301   28.9012 C   0  0  0  0  0  0  0  0  0  0  0  0
  -27.7726  -22.3813   17.5737 C   0  0  0  0  0  0  0  0  0  0  0  0
  -22.7794  -22.3536   24.9062 C   0  0  0  0  0  0  0  0  0  1  0  0
  -19.9640  -23.4167   25.5419 C   0  0  0  0  0  0  0  0  0  0  0  0
  -28.7967  -18.1202   19.9461 C   0  0  1  0  0  0  0  0  0  0  0  0
  -29.8611  -21.0232   17.7532 C   0  0  2  0  0  0  0  0  0  0  0  0
  -20.6116  -23.6037   26.9428 C   0  0  2  0  0  0  0  0  0  0  0  0
  -29.8093  -17.0077   20.3392 C   0  0  0  0  0  0  0  0  0  0  0  0
  -22.7381  -27.5265   20.9538 N   0  0  0  0  0  0  0  0  0  0  0  0
  -22.7216  -24.5935   27.8254 N   0  0  0  0  0  0  0  0  0  0  0  0
  -21.6099  -26.9466   20.5101 N   0  0  0  0  0  0  0  0  0  0  0  0
  -26.3484  -17.9463   20.2616 N   0  0  0  0  0  0  0  0  0  0  0  0
  -19.6279  -26.6714   23.7666 N   0  0  0  0  0  0  0  0  0  0  0  0
  -20.6537  -25.8677   18.6306 N   0  0  0  0  0  0  0  0  0  0  0  0
  -24.8431  -26.8416   17.2533 N   0  0  0  0  0  0  0  0  0  0  0  0
  -24.9003  -14.9070   20.4485 N   0  0  0  0  0  0  0  0  0  0  0  0
  -29.2504  -18.9855   18.8627 N   0  0  0  0  0  0  0  0  0  0  0  0
  -20.1781  -24.5640   24.6883 N   0  0  0  0  0  0  0  0  0  0  0  0
  -29.2575  -22.3790   17.6169 N   0  3  0  0  0  0  0  0  0  0  0  0
  -22.8495  -25.8970   16.6270 O   0  0  0  0  0  0  0  0  0  0  0  0
  -24.9169  -16.4276   22.2120 O   0  0  0  0  0  0  0  0  0  0  0  0
  -27.4179  -16.8083   18.5304 O   0  0  0  0  0  0  0  0  0  0  0  0
  -29.1119  -20.9728   20.0496 O   0  0  0  0  0  0  0  0  0  0  0  0
  -18.2696  -25.6515   25.3453 O   0  0  0  0  0  0  0  0  0  0  0  0
  -28.7750  -29.4223   20.2391 O   0  0  0  0  0  0  0  0  0  0  0  0
  -24.0202  -21.7802   24.4965 O   0  0  0  0  0  0  0  0  0  1  0  0
  -32.8614  -26.2430   18.3424 F   0  0  0  0  0  0  0  0  0  0  0  0
  -30.8215  -28.5987   21.9053 F   0  0  0  0  0  0  0  0  0  0  0  0
  -19.9209  -24.6720   27.5051 F   0  0  0  0  0  0  0  0  0  0  0  0
  1  2  1  0  0  0  0
  1  5  2  0  0  0  0
  2  6  2  0  0  0  0
  3  8  2  0  0  0  0
  3 17  1  0  0  0  0
  4  9  1  0  0  0  0
  4 17  2  0  0  0  0
  5 19  1  0  0  0  0
  6 21  1  0  0  0  0
  7 10  2  0  0  0  0
  7 20  1  0  0  0  0
  8 24  1  0  0  0  0
  9 24  2  0  0  0  0
 10 25  1  0  0  0  0
 11 12  2  0  0  0  0
 11 26  1  0  0  0  0
 12 27  1  0  0  0  0
 13 16  2  0  0  0  0
 13 23  1  0  0  0  0
 14 22  1  0  0  0  0
 14 25  2  0  0  0  0
 15 27  2  0  0  0  0
 15 28  1  0  0  0  0
 16 63  1  0  0  0  0
 17 29  1  0  0  0  0
 18 29  1  0  0  0  0
 18 31  2  0  0  0  0
 18 32  1  0  0  0  0
 19 21  2  0  0  0  0
 19 37  1  0  0  0  0
 20 22  2  0  0  0  0
 20 38  1  0  0  0  0
 21 46  1  0  0  0  0
 22 39  1  0  0  0  0
 23 30  2  0  0  0  0
 23 56  1  0  0  0  0
 24 78  1  0  0  0  0
 25 79  1  0  0  0  0
 26 28  2  0  0  0  0
 26 78  1  0  0  0  0
 27 80  1  0  0  0  0
 28 81  1  0  0  0  0
 29 62  2  0  0  0  0
 30 60  1  0  0  0  0
 30 63  1  0  0  0  0
 31 64  1  0  0  0  0
 31 67  1  0  0  0  0
 32 68  1  0  0  0  0
 32 73  2  0  0  0  0
 33 47  1  0  0  0  0
 33 69  1  0  0  0  0
 33 74  2  0  0  0  0
 34 58  1  0  0  0  0
 34 65  1  0  0  0  0
 34 75  2  0  0  0  0
 35 59  1  0  0  0  0
 35 70  1  0  0  0  0
 35 76  2  0  0  0  0
 36 66  1  0  0  0  0
 36 71  1  0  0  0  0
 36 77  2  0  0  0  0
 37 40  1  0  0  0  0
 38 47  1  0  0  0  0
 39 65  1  0  0  0  0
 40 42  1  0  0  0  0
 41 43  1  0  0  0  0
 41 44  1  0  0  0  0
 42 46  1  0  0  0  0
 43 48  1  0  0  0  0
 44 66  1  0  0  0  0
 45 48  1  0  0  0  0
 45 66  1  0  0  0  0
 46 69  1  0  0  0  0
 47 65  1  0  0  0  0
 48 64  1  0  0  0  0
 49 59  1  0  0  0  0
 50 60  1  0  0  0  0
 51 61  1  0  0  0  0
 52 61  1  0  0  0  0
 53 61  1  0  0  0  0
 54 63  1  0  0  0  0
 55 72  1  0  0  0  0
 56 79  1  0  0  0  0
 57 60  1  0  0  0  0
 57 71  1  0  0  0  0
 58 61  1  0  0  0  0
 58 70  1  0  0  0  0
 59 72  1  0  0  0  0
 60 82  1  0  0  0  0
 62 64  1  0  0  0  0
M  CHG  1  72   1
M  ISO  4  36 100  56 101  71 100  79 101
M  END
> <Batch ID>
0105

> <Smiles>
CNC(C)C(=O)NC(C(=O)N1Cc2cc([101O:1][101CH2:1]c3ccn(C)c3C(C)(F)C[100NH:0][100C:0](=O)N3CCCC(n4nc(-c5ccc(Oc6ccc(F)cc6F)cc5)c(C(N)=O)c4N)C3)ccc2CC1C(=O)NC1CCCc2ccccc21)C(C)(C)C

> <Shape>
0.194

> <Color>
0.084

> <Negative vol penalty>
0.000

$$$$

  -OEChem-04052319463D

 83 91  0     1  0  0  0  0  0999 V2000
  -30.6016   -5.2630   37.8838 C   0  0  0  0  0  0  0  0  0  0  0  0
  -29.4579   -5.2285   37.0924 C   0  0  0  0  0  0  0  0  0  0  0  0
  -23.1361  -10.1851   22.1008 C   0  0  0  0  0  0  0  0  0  0  0  0
  -23.7827   -9.4679   19.8862 C   0  0  0  0  0  0  0  0  0  0  0  0
  -31.8058   -5.7168   37.3471 C   0  0  0  0  0  0  0  0  0  0  0  0
  -29.5175   -5.6488   35.7642 C   0  0  0  0  0  0  0  0  0  0  0  0
  -26.6408   -4.2932   29.3452 C   0  0  0  0  0  0  0  0  0  0  0  0
  -22.3939   -9.0154   22.2630 C   0  0  0  0  0  0  0  0  0  0  0  0
  -23.0405   -8.2981   20.0484 C   0  0  0  0  0  0  0  0  0  0  0  0
  -26.0130   -4.9477   28.2863 C   0  0  0  0  0  0  0  0  0  0  0  0
  -22.9893   -5.7694   22.9994 C   0  0  0  0  0  0  0  0  0  0  0  0
  -23.1137   -5.0851   24.2084 C   0  0  0  0  0  0  0  0  0  0  0  0
  -28.1657   -5.6373   27.4441 C   0  0  0  0  0  0  0  0  0  0  0  0
  -20.7479   -5.3651   24.6104 C   0  0  0  0  0  0  0  0  0  0  0  0
  -23.8305  -10.4114   20.9124 C   0  0  0  0  0  0  0  0  0  0  0  0
  -24.1184  -12.9431   20.7872 C   0  0  0  0  0  0  0  0  0  0  0  0
  -31.8823   -6.1338   36.0089 C   0  0  0  0  0  0  0  0  0  0  0  0
  -28.0376   -4.3150   29.4677 C   0  0  0  0  0  0  0  0  0  0  0  0
  -30.7235   -6.1098   35.2095 C   0  0  0  0  0  0  0  0  0  0  0  0
  -28.8090   -4.9801   28.5040 C   0  0  0  0  0  0  0  0  0  0  0  0
  -22.3461   -8.0718   21.2368 C   0  0  0  0  0  0  0  0  0  0  0  0
  -26.7752   -5.6223   27.3372 C   0  0  0  0  0  0  0  0  0  0  0  0
  -21.7442   -6.2516   22.5958 C   0  0  0  0  0  0  0  0  0  0  0  0
  -21.9931   -4.8829   25.0139 C   0  0  0  0  0  0  0  0  0  0  0  0
  -20.6235   -6.0494   23.4013 C   0  0  0  0  0  0  0  0  0  0  0  0
  -24.5970  -11.6199   20.7441 C   0  0  0  0  0  0  0  0  0  0  0  0
  -25.2317  -13.7181   20.5721 C   0  0  0  0  0  0  0  0  0  0  0  0
  -22.7865  -13.4282   21.0026 C   0  0  0  0  0  0  0  0  0  0  0  0
  -30.0821   -5.4188   31.6368 C   0  0  0  0  0  0  0  0  0  0  0  0
  -32.2732   -3.9460   29.7521 C   0  0  0  0  0  0  0  0  0  0  0  0
  -33.1059   -2.7556   26.6640 C   0  0  0  0  0  0  0  0  0  0  0  0
  -31.1169  -12.2526   21.4410 C   0  0  0  0  0  0  0  0  0  0  0  0
  -33.1955   -6.6609   35.4868 C   0  0  0  0  0  0  0  0  0  0  0  0
  -28.7011   -3.5815   30.6009 C   0  0  0  0  0  0  0  0  0  0  0  0
  -30.3128   -5.0163   28.5789 C   0  0  0  0  0  0  0  0  0  0  0  0
  -33.2594   -6.7355   33.9634 C   0  0  0  0  0  0  0  0  0  0  0  0
  -29.4976  -13.6494   18.4197 C   0  0  0  0  0  0  0  0  0  0  0  0
  -31.9896   -7.3713   33.4063 C   0  0  0  0  0  0  0  0  0  0  0  0
  -26.5751   -9.2495   24.0607 C   0  0  0  0  0  0  0  0  0  0  0  0
  -27.5630   -9.7612   26.3318 C   0  0  0  0  0  0  0  0  0  0  0  0
  -28.0222  -13.3299   18.6547 C   0  0  0  0  0  0  0  0  0  0  0  0
  -25.9938   -7.9504   24.6104 C   0  0  0  0  0  0  0  0  0  0  0  0
  -26.9795   -8.4603   26.8751 C   0  0  0  0  0  0  0  0  0  0  0  0
  -30.4128  -12.6411   19.1076 C   0  0  0  0  0  0  0  0  0  0  0  0
  -28.6731  -12.1634   20.7985 C   0  0  0  0  0  0  0  0  0  0  0  0
  -30.7537   -6.5341   33.7572 C   0  0  1  0  0  0  0  0  0  0  0  0
  -30.1007   -4.1028   30.9119 C   0  0  1  0  0  0  0  0  0  0  0  0
  -26.7340  -10.3077   25.1612 C   0  0  0  0  0  0  0  0  0  0  0  0
  -27.7243  -13.1873   20.1574 C   0  0  2  0  0  0  0  0  0  0  0  0
  -26.8188   -7.4119   25.7762 C   0  0  0  0  0  0  0  0  0  1  0  0
  -34.9793   -1.6389   25.4226 C   0  0  0  0  0  0  0  0  0  0  0  0
  -27.4759  -12.6380   25.7135 C   0  0  0  0  0  0  0  0  0  0  0  0
  -26.4547  -12.1422   23.4878 C   0  0  0  0  0  0  0  0  0  0  0  0
  -33.7812   -6.5965   29.6485 C   0  0  0  0  0  0  0  0  0  0  0  0
  -35.0632   -5.7106   27.6889 C   0  0  0  0  0  0  0  0  0  0  0  0
  -35.2355   -4.5782   29.9049 C   0  0  0  0  0  0  0  0  0  0  0  0
  -31.8015  -11.8893   23.7817 C   0  0  0  0  0  0  0  0  0  0  0  0
  -31.4390   -0.3905   26.0422 C   0  0  0  0  0  0  0  0  0  0  0  0
  -28.7607  -11.2928   23.9724 C   0  0  0  0  0  0  0  0  0  0  0  0
  -29.4528  -12.4948   23.3317 C   0  0  0  0  0  0  0  0  0  0  0  0
  -33.1059   -4.3544   28.5609 C   0  0  1  0  0  0  0  0  0  0  0  0
  -33.7024   -1.4314   26.2221 C   0  0  2  0  0  0  0  0  0  0  0  0
  -27.3672  -11.5793   24.5993 C   0  0  0  0  0  0  0  0  0  0  0  0
  -34.2680   -5.3111   28.9502 C   0  0  0  0  0  0  0  0  0  0  0  0
  -25.9119  -11.5543   20.5190 N   0  0  0  0  0  0  0  0  0  0  0  0
  -26.2690  -12.8460   20.4187 N   0  0  0  0  0  0  0  0  0  0  0  0
  -30.9146   -4.2895   29.7090 N   0  0  0  0  0  0  0  0  0  0  0  0
  -30.0798  -12.4931   20.5248 N   0  0  0  0  0  0  0  0  0  0  0  0
  -25.4147  -15.0537   20.5009 N   0  0  0  0  0  0  0  0  0  0  0  0
  -21.7606  -12.4955   21.2075 N   0  0  0  0  0  0  0  0  0  0  0  0
  -30.6630   -5.3790   32.8900 N   0  0  0  0  0  0  0  0  0  0  0  0
  -33.5394   -3.1164   27.9222 N   0  0  0  0  0  0  0  0  0  0  0  0
  -30.7603  -12.1276   22.7923 N   0  0  0  0  0  0  0  0  0  0  0  0
  -32.7323   -0.6841   25.3727 N   0  3  0  0  0  0  0  0  0  0  0  0
  -22.5113  -14.6521   20.9968 O   0  0  0  0  0  0  0  0  0  0  0  0
  -29.5794   -6.3981   31.0985 O   0  0  0  0  0  0  0  0  0  0  0  0
  -32.8071   -3.3381   30.6833 O   0  0  0  0  0  0  0  0  0  0  0  0
  -32.3357   -3.4066   25.9617 O   0  0  0  0  0  0  0  0  0  0  0  0
  -32.2955  -12.1646   21.0735 O   0  0  0  0  0  0  0  0  0  0  0  0
  -21.6221   -6.9302   21.3948 O   0  0  0  0  0  0  0  0  0  0  0  0
  -26.1649   -6.2626   26.3030 O   0  0  0  0  0  0  0  0  0  1  0  0
  -22.1124   -4.2244   26.1742 F   0  0  0  0  0  0  0  0  0  0  0  0
  -19.4244   -6.5093   23.0184 F   0  0  0  0  0  0  0  0  0  0  0  0
  1  2  1  0  0  0  0
  1  5  2  0  0  0  0
  2  6  2  0  0  0  0
  3  8  2  0  0  0  0
  3 15  1  0  0  0  0
  4  9  1  0  0  0  0
  4 15  2  0  0  0  0
  5 17  1  0  0  0  0
  6 19  1  0  0  0  0
  7 10  2  0  0  0  0
  7 18  1  0  0  0  0
  8 21  1  0  0  0  0
  9 21  2  0  0  0  0
 10 22  1  0  0  0  0
 11 12  2  0  0  0  0
 11 23  1  0  0  0  0
 12 24  1  0  0  0  0
 13 20  1  0  0  0  0
 13 22  2  0  0  0  0
 14 24  2  0  0  0  0
 14 25  1  0  0  0  0
 15 26  1  0  0  0  0
 16 26  1  0  0  0  0
 16 27  2  0  0  0  0
 16 28  1  0  0  0  0
 17 19  2  0  0  0  0
 17 33  1  0  0  0  0
 18 20  2  0  0  0  0
 18 34  1  0  0  0  0
 19 46  1  0  0  0  0
 20 35  1  0  0  0  0
 21 80  1  0  0  0  0
 22 81  1  0  0  0  0
 23 25  2  0  0  0  0
 23 80  1  0  0  0  0
 24 82  1  0  0  0  0
 25 83  1  0  0  0  0
 26 65  2  0  0  0  0
 27 66  1  0  0  0  0
 27 69  1  0  0  0  0
 28 70  1  0  0  0  0
 28 75  2  0  0  0  0
 29 47  1  0  0  0  0
 29 71  1  0  0  0  0
 29 76  2  0  0  0  0
 30 61  1  0  0  0  0
 30 67  1  0  0  0  0
 30 77  2  0  0  0  0
 31 62  1  0  0  0  0
 31 72  1  0  0  0  0
 31 78  2  0  0  0  0
 32 68  1  0  0  0  0
 32 73  1  0  0  0  0
 32 79  2  0  0  0  0
 33 36  1  0  0  0  0
 34 47  1  0  0  0  0
 35 67  1  0  0  0  0
 36 38  1  0  0  0  0
 37 41  1  0  0  0  0
 37 44  1  0  0  0  0
 38 46  1  0  0  0  0
 39 42  1  0  0  0  0
 39 48  1  0  0  0  0
 40 43  1  0  0  0  0
 40 48  1  0  0  0  0
 41 49  1  0  0  0  0
 42 50  1  0  0  0  0
 43 50  1  0  0  0  0
 44 68  1  0  0  0  0
 45 49  1  0  0  0  0
 45 68  1  0  0  0  0
 46 71  1  0  0  0  0
 47 67  1  0  0  0  0
 48 63  1  0  0  0  0
 49 66  1  0  0  0  0
 50 81  1  0  0  0  0
 51 62  1  0  0  0  0
 52 63  1  0  0  0  0
 53 63  1  0  0  0  0
 54 64  1  0  0  0  0
 55 64  1  0  0  0  0
 56 64  1  0  0  0  0
 57 73  1  0  0  0  0
 58 74  1  0  0  0  0
 59 60  1  0  0  0  0
 59 63  1  0  0  0  0
 60 73  1  0  0  0  0
 61 64  1  0  0  0  0
 61 72  1  0  0  0  0
 62 74  1  0  0  0  0
 65 66  1  0  0  0  0
M  CHG  1  74   1
M  ISO  4  32 100  50 101  73 100  81 101
M  END
> <Batch ID>
0105

> <Smiles>
CNC(C)C(=O)NC(C(=O)N1Cc2cc([101O:1][101CH:1]3CCC(C(C)(C)CC[100N:0](C)[100C:0](=O)N4CCCC(n5nc(-c6ccc(Oc7ccc(F)cc7F)cc6)c(C(N)=O)c5N)C4)CC3)ccc2CC1C(=O)NC1CCCc2ccccc21)C(C)(C)C

> <Shape>
0.138

> <Color>
0.199

> <Negative vol penalty>
0.000

$$$$

  -OEChem-04052319463D

 81 89  0     1  0  0  0  0  0999 V2000
  -21.9376  -23.4744   20.5359 C   0  0  0  0  0  0  0  0  0  0  0  0
  -23.1662  -22.8346   20.6654 C   0  0  0  0  0  0  0  0  0  0  0  0
  -23.4713  -30.2638   20.4275 C   0  0  0  0  0  0  0  0  0  0  0  0
  -23.3481  -28.5652   22.1412 C   0  0  0  0  0  0  0  0  0  0  0  0
  -20.7794  -22.8595   21.0096 C   0  0  0  0  0  0  0  0  0  0  0  0
  -23.2374  -21.5800   21.2698 C   0  0  0  0  0  0  0  0  0  0  0  0
  -26.1874  -18.3557   18.7112 C   0  0  0  0  0  0  0  0  0  0  0  0
  -22.2033  -30.7196   20.7880 C   0  0  0  0  0  0  0  0  0  0  0  0
  -22.0801  -29.0211   22.5018 C   0  0  0  0  0  0  0  0  0  0  0  0
  -27.5662  -18.4982   18.8611 C   0  0  0  0  0  0  0  0  0  0  0  0
  -18.9112  -28.7337   21.3588 C   0  0  0  0  0  0  0  0  0  0  0  0
  -17.9159  -27.7799   21.5715 C   0  0  0  0  0  0  0  0  0  0  0  0
  -27.5766  -16.6754   20.4411 C   0  0  0  0  0  0  0  0  0  0  0  0
  -17.6635  -28.5507   23.8473 C   0  0  0  0  0  0  0  0  0  0  0  0
  -31.5028  -20.5806   20.3806 C   0  0  0  0  0  0  0  0  0  0  0  0
  -24.0437  -29.1866   21.1040 C   0  0  0  0  0  0  0  0  0  0  0  0
  -26.5903  -29.1454   21.2475 C   0  0  0  0  0  0  0  0  0  0  0  0
  -20.8351  -21.5924   21.6114 C   0  0  0  0  0  0  0  0  0  0  0  0
  -25.4901  -17.3775   19.4346 C   0  0  0  0  0  0  0  0  0  0  0  0
  -22.0790  -20.9482   21.7532 C   0  0  0  0  0  0  0  0  0  0  0  0
  -26.1894  -16.5208   20.2967 C   0  0  0  0  0  0  0  0  0  0  0  0
  -31.1372  -21.8524   20.7628 C   0  0  0  0  0  0  0  0  0  0  0  0
  -30.5890  -21.7614   22.0660 C   0  0  0  0  0  0  0  0  0  0  0  0
  -21.5077  -30.0982   21.8252 C   0  0  0  0  0  0  0  0  0  0  0  0
  -28.2606  -17.6599   19.7284 C   0  0  0  0  0  0  0  0  0  0  0  0
  -19.2827  -29.5960   22.3904 C   0  0  0  0  0  0  0  0  0  0  0  0
  -17.2920  -27.6884   22.8157 C   0  0  0  0  0  0  0  0  0  0  0  0
  -18.6588  -29.5045   23.6346 C   0  0  0  0  0  0  0  0  0  0  0  0
  -25.3532  -28.7149   20.7316 C   0  0  0  0  0  0  0  0  0  0  0  0
  -30.6364  -20.4367   22.4406 C   0  0  0  0  0  0  0  0  0  0  0  0
  -27.5231  -28.3960   20.5730 C   0  0  0  0  0  0  0  0  0  0  0  0
  -26.8712  -30.1342   22.2470 C   0  0  0  0  0  0  0  0  0  0  0  0
  -23.1757  -17.4225   21.6129 C   0  0  0  0  0  0  0  0  0  0  0  0
  -23.2990  -14.2021   21.2439 C   0  0  0  0  0  0  0  0  0  0  0  0
  -25.1095  -11.4582   20.3275 C   0  0  0  0  0  0  0  0  0  0  0  0
  -29.2960  -23.5087   18.5442 C   0  0  0  0  0  0  0  0  0  0  0  0
  -19.5628  -20.9884   22.1507 C   0  0  0  0  0  0  0  0  0  0  0  0
  -24.0069  -17.2191   19.2414 C   0  0  0  0  0  0  0  0  0  0  0  0
  -25.4906  -15.4414   21.0808 C   0  0  0  0  0  0  0  0  0  0  0  0
  -19.6736  -19.4939   22.4414 C   0  0  0  0  0  0  0  0  0  0  0  0
  -27.0349  -25.3878   16.5359 C   0  0  0  0  0  0  0  0  0  0  0  0
  -20.9590  -19.1924   23.2053 C   0  0  0  0  0  0  0  0  0  0  0  0
  -26.4937  -26.4518   17.4923 C   0  0  0  0  0  0  0  0  0  0  0  0
  -27.2589  -24.0536   17.2442 C   0  0  0  0  0  0  0  0  0  0  0  0
  -27.5596  -25.1919   19.4094 C   0  0  0  0  0  0  0  0  0  0  0  0
  -22.1937  -19.5759   22.3807 C   0  0  1  0  0  0  0  0  0  0  0  0
  -23.3220  -16.5265   20.4156 C   0  0  1  0  0  0  0  0  0  0  0  0
  -27.3705  -26.5704   18.7534 C   0  0  2  0  0  0  0  0  0  0  0  0
  -30.0627  -22.8794   22.8760 C   0  0  0  0  0  0  0  0  0  0  0  0
  -30.1995  -19.7832   23.6925 C   0  0  0  0  0  0  0  0  0  0  0  0
  -24.9550   -8.9583   20.1713 C   0  0  0  0  0  0  0  0  0  0  0  0
  -23.6428  -13.9943   24.2686 C   0  0  0  0  0  0  0  0  0  0  0  0
  -24.4218  -11.6366   23.9481 C   0  0  0  0  0  0  0  0  0  0  0  0
  -22.1101  -12.2871   23.2732 C   0  0  0  0  0  0  0  0  0  0  0  0
  -25.5376  -11.4986   17.3993 C   0  0  0  0  0  0  0  0  0  0  0  0
  -31.2926  -23.0778   19.9539 C   0  0  0  0  0  0  0  0  0  0  0  0
  -31.4380  -18.2388   21.3875 C   0  0  0  0  0  0  0  0  0  0  0  0
  -30.1589  -17.4451   21.1447 C   0  0  0  0  0  0  0  0  0  1  0  0
  -24.0739  -13.0806   21.8926 C   0  0  1  0  0  0  0  0  0  0  0  0
  -24.7675  -10.2770   19.4373 C   0  0  2  0  0  0  0  0  0  0  0  0
  -23.5753  -12.7712   23.3325 C   0  0  0  0  0  0  0  0  0  0  0  0
  -25.4848  -27.7658   19.8011 N   0  0  0  0  0  0  0  0  0  0  0  0
  -31.1940  -19.7282   21.4084 N   0  0  0  0  0  0  0  0  0  0  0  0
  -26.8156  -27.5938   19.7268 N   0  0  0  0  0  0  0  0  0  0  0  0
  -24.0388  -15.3304   20.8625 N   0  0  0  0  0  0  0  0  0  0  0  0
  -28.0992  -24.2352   18.4303 N   0  0  0  0  0  0  0  0  0  0  0  0
  -28.8712  -28.3518   20.6270 N   0  0  0  0  0  0  0  0  0  0  0  0
  -25.7955  -30.8103   22.8388 N   0  0  0  0  0  0  0  0  0  0  0  0
  -22.4553  -18.5759   21.3677 N   0  0  0  0  0  0  0  0  0  0  0  0
  -23.9960  -11.9476   20.9769 N   0  0  0  0  0  0  0  0  0  0  0  0
  -30.0358  -23.7449   19.6964 N   0  0  0  0  0  0  0  0  0  0  0  0
  -25.6390  -10.2700   18.2284 N   0  3  0  0  0  0  0  0  0  0  0  0
  -28.0421  -30.4216   22.5931 O   0  0  0  0  0  0  0  0  0  0  0  0
  -23.6778  -17.0911   22.6805 O   0  0  0  0  0  0  0  0  0  0  0  0
  -22.0834  -14.0785   21.0752 O   0  0  0  0  0  0  0  0  0  0  0  0
  -26.2510  -11.8999   20.4387 O   0  0  0  0  0  0  0  0  0  0  0  0
  -29.6796  -22.7128   17.6803 O   0  0  0  0  0  0  0  0  0  0  0  0
  -20.2705  -30.5429   22.1775 O   0  0  0  0  0  0  0  0  0  0  0  0
  -29.6063  -17.7972   19.8771 O   0  0  0  0  0  0  0  0  0  1  0  0
  -16.3352  -26.7734   23.0193 F   0  0  0  0  0  0  0  0  0  0  0  0
  -19.0107  -30.3309   24.6292 F   0  0  0  0  0  0  0  0  0  0  0  0
  1  2  1  0  0  0  0
  1  5  2  0  0  0  0
  2  6  2  0  0  0  0
  3  8  2  0  0  0  0
  3 16  1  0  0  0  0
  4  9  1  0  0  0  0
  4 16  2  0  0  0  0
  5 18  1  0  0  0  0
  6 20  1  0  0  0  0
  7 10  2  0  0  0  0
  7 19  1  0  0  0  0
  8 24  1  0  0  0  0
  9 24  2  0  0  0  0
 10 25  1  0  0  0  0
 11 12  2  0  0  0  0
 11 26  1  0  0  0  0
 12 27  1  0  0  0  0
 13 21  1  0  0  0  0
 13 25  2  0  0  0  0
 14 27  2  0  0  0  0
 14 28  1  0  0  0  0
 15 22  2  0  0  0  0
 15 63  1  0  0  0  0
 16 29  1  0  0  0  0
 17 29  1  0  0  0  0
 17 31  2  0  0  0  0
 17 32  1  0  0  0  0
 18 20  2  0  0  0  0
 18 37  1  0  0  0  0
 19 21  2  0  0  0  0
 19 38  1  0  0  0  0
 20 46  1  0  0  0  0
 21 39  1  0  0  0  0
 22 23  1  0  0  0  0
 22 56  1  0  0  0  0
 23 30  2  0  0  0  0
 23 49  1  0  0  0  0
 24 78  1  0  0  0  0
 25 79  1  0  0  0  0
 26 28  2  0  0  0  0
 26 78  1  0  0  0  0
 27 80  1  0  0  0  0
 28 81  1  0  0  0  0
 29 62  2  0  0  0  0
 30 50  1  0  0  0  0
 30 63  1  0  0  0  0
 31 64  1  0  0  0  0
 31 67  1  0  0  0  0
 32 68  1  0  0  0  0
 32 73  2  0  0  0  0
 33 47  1  0  0  0  0
 33 69  1  0  0  0  0
 33 74  2  0  0  0  0
 34 59  1  0  0  0  0
 34 65  1  0  0  0  0
 34 75  2  0  0  0  0
 35 60  1  0  0  0  0
 35 70  1  0  0  0  0
 35 76  2  0  0  0  0
 36 66  1  0  0  0  0
 36 71  1  0  0  0  0
 36 77  2  0  0  0  0
 37 40  1  0  0  0  0
 38 47  1  0  0  0  0
 39 65  1  0  0  0  0
 40 42  1  0  0  0  0
 41 43  1  0  0  0  0
 41 44  1  0  0  0  0
 42 46  1  0  0  0  0
 43 48  1  0  0  0  0
 44 66  1  0  0  0  0
 45 48  1  0  0  0  0
 45 66  1  0  0  0  0
 46 69  1  0  0  0  0
 47 65  1  0  0  0  0
 48 64  1  0  0  0  0
 51 60  1  0  0  0  0
 52 61  1  0  0  0  0
 53 61  1  0  0  0  0
 54 61  1  0  0  0  0
 55 72  1  0  0  0  0
 56 71  1  0  0  0  0
 57 58  1  0  0  0  0
 57 63  1  0  0  0  0
 58 79  1  0  0  0  0
 59 61  1  0  0  0  0
 59 70  1  0  0  0  0
 60 72  1  0  0  0  0
 62 64  1  0  0  0  0
M  CHG  1  72   1
M  ISO  4  36 100  58 101  71 100  79 101
M  END
> <Batch ID>
0105

> <Smiles>
CNC(C)C(=O)NC(C(=O)N1Cc2cc([101O:1][101CH2:1]Cn3cc(C[100NH:0][100C:0](=O)N4CCCC(n5nc(-c6ccc(Oc7ccc(F)cc7F)cc6)c(C(N)=O)c5N)C4)c(C)c3C)ccc2CC1C(=O)NC1CCCc2ccccc21)C(C)(C)C

> <Shape>
0.237

> <Color>
0.067

> <Negative vol penalty>
0.000

$$$$

  -OEChem-04052319463D

 86 94  0     1  0  0  0  0  0999 V2000
  -17.0844  -15.9797   22.8694 C   0  0  0  0  0  0  0  0  0  0  0  0
  -18.4551  -16.0393   22.6387 C   0  0  0  0  0  0  0  0  0  0  0  0
  -23.2887   -9.7995   19.9128 C   0  0  0  0  0  0  0  0  0  0  0  0
  -23.7394   -9.9398   22.2822 C   0  0  0  0  0  0  0  0  0  0  0  0
  -16.5257  -16.6903   23.9309 C   0  0  0  0  0  0  0  0  0  0  0  0
  -19.2677  -16.8106   23.4689 C   0  0  0  0  0  0  0  0  0  0  0  0
  -25.0201  -15.5757   25.1692 C   0  0  0  0  0  0  0  0  0  0  0  0
  -22.5624   -8.6269   20.1203 C   0  0  0  0  0  0  0  0  0  0  0  0
  -23.0131   -8.7672   22.4898 C   0  0  0  0  0  0  0  0  0  0  0  0
  -26.2538  -16.0237   24.6992 C   0  0  0  0  0  0  0  0  0  0  0  0
  -20.9741   -6.0068   23.6901 C   0  0  0  0  0  0  0  0  0  0  0  0
  -20.0725   -5.9813   24.7541 C   0  0  0  0  0  0  0  0  0  0  0  0
  -26.2960  -17.7041   26.4294 C   0  0  0  0  0  0  0  0  0  0  0  0
  -31.1053  -15.6270   24.1815 C   0  0  0  0  0  0  0  0  0  0  0  0
  -18.8629   -7.8285   23.7733 C   0  0  0  0  0  0  0  0  0  0  0  0
  -30.7136  -15.4817   26.3941 C   0  0  0  0  0  0  0  0  0  0  0  0
  -23.8773  -10.4560   20.9937 C   0  0  0  0  0  0  0  0  0  0  0  0
  -24.1365  -12.9860   20.7955 C   0  0  0  0  0  0  0  0  0  0  0  0
  -17.3333  -17.4630   24.7803 C   0  0  0  0  0  0  0  0  0  0  0  0
  -24.4089  -16.1966   26.2680 C   0  0  0  0  0  0  0  0  0  0  0  0
  -18.7191  -17.5334   24.5419 C   0  0  0  0  0  0  0  0  0  0  0  0
  -25.0557  -17.2604   26.9131 C   0  0  0  0  0  0  0  0  0  0  0  0
  -30.7420  -16.3633   25.3361 C   0  0  0  0  0  0  0  0  0  0  0  0
  -22.4246   -8.1108   21.4088 C   0  0  0  0  0  0  0  0  0  0  0  0
  -26.8906  -17.0899   25.3275 C   0  0  0  0  0  0  0  0  0  0  0  0
  -20.8202   -6.9432   22.6678 C   0  0  0  0  0  0  0  0  0  0  0  0
  -19.0168   -6.8921   24.7957 C   0  0  0  0  0  0  0  0  0  0  0  0
  -19.7645   -7.8540   22.7093 C   0  0  0  0  0  0  0  0  0  0  0  0
  -24.6281  -11.6670   20.7799 C   0  0  0  0  0  0  0  0  0  0  0  0
  -31.2876  -14.3178   24.5690 C   0  0  0  0  0  0  0  0  0  0  0  0
  -25.2379  -13.7660   20.5407 C   0  0  0  0  0  0  0  0  0  0  0  0
  -22.8034  -13.4635   21.0203 C   0  0  0  0  0  0  0  0  0  0  0  0
  -21.6908  -17.7803   26.7238 C   0  0  0  0  0  0  0  0  0  0  0  0
  -22.6224  -17.7058   29.8301 C   0  0  0  0  0  0  0  0  0  0  0  0
  -25.1708  -17.4461   32.0851 C   0  0  0  0  0  0  0  0  0  0  0  0
  -31.1089  -12.9233   21.3603 C   0  0  0  0  0  0  0  0  0  0  0  0
  -16.6775  -18.2516   25.8861 C   0  0  0  0  0  0  0  0  0  0  0  0
  -23.0904  -15.6841   26.7794 C   0  0  0  0  0  0  0  0  0  0  0  0
  -24.4512  -17.9480   28.1090 C   0  0  0  0  0  0  0  0  0  0  0  0
  -17.6585  -18.7463   26.9458 C   0  0  0  0  0  0  0  0  0  0  0  0
  -29.4601  -13.6630   18.2926 C   0  0  0  0  0  0  0  0  0  0  0  0
  -18.8858  -19.3690   26.2879 C   0  0  0  0  0  0  0  0  0  0  0  0
  -27.9904  -13.3544   18.5836 C   0  0  0  0  0  0  0  0  0  0  0  0
  -30.3934  -12.6836   19.0009 C   0  0  0  0  0  0  0  0  0  0  0  0
  -28.7068  -12.2538   20.7457 C   0  0  0  0  0  0  0  0  0  0  0  0
  -19.6370  -18.3392   25.4354 C   0  0  1  0  0  0  0  0  0  0  0  0
  -22.3184  -16.7228   27.5872 C   0  0  1  0  0  0  0  0  0  0  0  0
  -27.7287  -13.2491   20.0981 C   0  0  2  0  0  0  0  0  0  0  0  0
  -33.7649  -19.4165   26.7334 C   0  0  0  0  0  0  0  0  0  0  0  0
  -25.6264  -17.4577   34.5528 C   0  0  0  0  0  0  0  0  0  0  0  0
  -22.2683  -20.7360   29.8788 C   0  0  0  0  0  0  0  0  0  0  0  0
  -23.6127  -20.7893   31.9902 C   0  0  0  0  0  0  0  0  0  0  0  0
  -21.4451  -19.5565   31.9247 C   0  0  0  0  0  0  0  0  0  0  0  0
  -30.7827  -13.3831   28.1921 C   0  0  0  0  0  0  0  0  0  0  0  0
  -32.5541  -12.4575   26.6477 C   0  0  0  0  0  0  0  0  0  0  0  0
  -30.1564  -11.9211   26.2835 C   0  0  0  0  0  0  0  0  0  0  0  0
  -26.2683  -14.6986   32.0129 C   0  0  0  0  0  0  0  0  0  0  0  0
  -31.6707  -13.1367   23.7682 C   0  0  0  0  0  0  0  0  0  0  0  0
  -32.8618  -18.5729   25.8465 C   0  0  0  0  0  0  0  0  0  0  0  0
  -31.4069  -18.6198   26.3263 C   0  0  0  0  0  0  0  0  0  0  0  0
  -28.9837  -18.1017   25.8288 C   0  0  0  0  0  0  0  0  0  1  0  0
  -30.4392  -17.8540   25.3977 C   0  0  2  0  0  0  0  0  0  0  0  0
  -23.4515  -18.6007   30.7194 C   0  0  1  0  0  0  0  0  0  0  0  0
  -25.3279  -16.5981   33.3343 C   0  0  2  0  0  0  0  0  0  0  0  0
  -22.7051  -19.9092   31.1046 C   0  0  0  0  0  0  0  0  0  0  0  0
  -31.1270  -13.0446   26.7247 C   0  0  0  0  0  0  0  0  0  0  0  0
  -25.9397  -11.6085   20.5344 N   0  0  0  0  0  0  0  0  0  0  0  0
  -31.0465  -14.2412   25.9160 N   0  0  0  0  0  0  0  0  0  0  0  0
  -26.2816  -12.9005   20.3933 N   0  0  0  0  0  0  0  0  0  0  0  0
  -23.1579  -17.4145   28.5675 N   0  0  0  0  0  0  0  0  0  0  0  0
  -30.0941  -12.6320   20.4339 N   0  0  0  0  0  0  0  0  0  0  0  0
  -25.4058  -15.1010   20.4304 N   0  0  0  0  0  0  0  0  0  0  0  0
  -21.7909  -12.5265   21.2677 N   0  0  0  0  0  0  0  0  0  0  0  0
  -20.4223  -17.4625   26.2773 N   0  0  0  0  0  0  0  0  0  0  0  0
  -23.8532  -17.7841   31.8596 N   0  0  0  0  0  0  0  0  0  0  0  0
  -30.7392  -12.8575   22.6981 N   0  0  0  0  0  0  0  0  0  0  0  0
  -26.4423  -15.6237   33.1622 N   0  3  0  0  0  0  0  0  0  0  0  0
  -22.5154  -14.6839   20.9862 O   0  0  0  0  0  0  0  0  0  0  0  0
  -22.3109  -18.8092   26.4820 O   0  0  0  0  0  0  0  0  0  0  0  0
  -21.5429  -17.2752   30.2434 O   0  0  0  0  0  0  0  0  0  0  0  0
  -26.1223  -17.7788   31.3819 O   0  0  0  0  0  0  0  0  0  0  0  0
  -32.2579  -13.2252   21.0203 O   0  0  0  0  0  0  0  0  0  0  0  0
  -21.7157   -6.9667   21.6118 O   0  0  0  0  0  0  0  0  0  0  0  0
  -28.0946  -17.5296   24.8704 O   0  0  0  0  0  0  0  0  0  1  0  0
  -18.1502   -6.8665   25.8166 F   0  0  0  0  0  0  0  0  0  0  0  0
  -19.6108   -8.7551   21.7295 F   0  0  0  0  0  0  0  0  0  0  0  0
  1  2  1  0  0  0  0
  1  5  2  0  0  0  0
  2  6  2  0  0  0  0
  3  8  2  0  0  0  0
  3 17  1  0  0  0  0
  4  9  1  0  0  0  0
  4 17  2  0  0  0  0
  5 19  1  0  0  0  0
  6 21  1  0  0  0  0
  7 10  2  0  0  0  0
  7 20  1  0  0  0  0
  8 24  1  0  0  0  0
  9 24  2  0  0  0  0
 10 25  1  0  0  0  0
 11 12  2  0  0  0  0
 11 26  1  0  0  0  0
 12 27  1  0  0  0  0
 13 22  1  0  0  0  0
 13 25  2  0  0  0  0
 14 23  1  0  0  0  0
 14 30  2  0  0  0  0
 15 27  2  0  0  0  0
 15 28  1  0  0  0  0
 16 23  2  0  0  0  0
 16 68  1  0  0  0  0
 17 29  1  0  0  0  0
 18 29  1  0  0  0  0
 18 31  2  0  0  0  0
 18 32  1  0  0  0  0
 19 21  2  0  0  0  0
 19 37  1  0  0  0  0
 20 22  2  0  0  0  0
 20 38  1  0  0  0  0
 21 46  1  0  0  0  0
 22 39  1  0  0  0  0
 23 62  1  0  0  0  0
 24 83  1  0  0  0  0
 25 84  1  0  0  0  0
 26 28  2  0  0  0  0
 26 83  1  0  0  0  0
 27 85  1  0  0  0  0
 28 86  1  0  0  0  0
 29 67  2  0  0  0  0
 30 58  1  0  0  0  0
 30 68  1  0  0  0  0
 31 69  1  0  0  0  0
 31 72  1  0  0  0  0
 32 73  1  0  0  0  0
 32 78  2  0  0  0  0
 33 47  1  0  0  0  0
 33 74  1  0  0  0  0
 33 79  2  0  0  0  0
 34 63  1  0  0  0  0
 34 70  1  0  0  0  0
 34 80  2  0  0  0  0
 35 64  1  0  0  0  0
 35 75  1  0  0  0  0
 35 81  2  0  0  0  0
 36 71  1  0  0  0  0
 36 76  1  0  0  0  0
 36 82  2  0  0  0  0
 37 40  1  0  0  0  0
 38 47  1  0  0  0  0
 39 70  1  0  0  0  0
 40 42  1  0  0  0  0
 41 43  1  0  0  0  0
 41 44  1  0  0  0  0
 42 46  1  0  0  0  0
 43 48  1  0  0  0  0
 44 71  1  0  0  0  0
 45 48  1  0  0  0  0
 45 71  1  0  0  0  0
 46 74  1  0  0  0  0
 47 70  1  0  0  0  0
 48 69  1  0  0  0  0
 49 59  1  0  0  0  0
 50 64  1  0  0  0  0
 51 65  1  0  0  0  0
 52 65  1  0  0  0  0
 53 65  1  0  0  0  0
 54 66  1  0  0  0  0
 55 66  1  0  0  0  0
 56 66  1  0  0  0  0
 57 77  1  0  0  0  0
 58 76  1  0  0  0  0
 59 60  1  0  0  0  0
 60 62  1  0  0  0  0
 61 62  1  0  0  0  0
 61 84  1  0  0  0  0
 63 65  1  0  0  0  0
 63 75  1  0  0  0  0
 64 77  1  0  0  0  0
 66 68  1  0  0  0  0
 67 69  1  0  0  0  0
M  CHG  1  77   1
M  ISO  4  36 100  61 101  76 100  84 101
M  END
> <Batch ID>
0105

> <Smiles>
CCCC(c1cc(C[100NH:0][100C:0](=O)N2CCCC(n3nc(-c4ccc(Oc5ccc(F)cc5F)cc4)c(C(N)=O)c3N)C2)n(C(C)(C)C)c1)[101CH2:1][101O:1]c1ccc2c(c1)CN(C(=O)C(NC(=O)C(C)NC)C(C)(C)C)C(C(=O)NC1CCCc3ccccc31)C2

> <Shape>
0.129

> <Color>
0.174

> <Negative vol penalty>
0.000

$$$$

  -OEChem-04052319463D

 83 91  0     1  0  0  0  0  0999 V2000
  -21.6646  -12.8879   21.6081 C   0  0  0  0  0  0  0  0  0  0  0  0
  -21.0938  -14.1367   21.8263 C   0  0  0  0  0  0  0  0  0  0  0  0
  -29.0953  -17.6913   19.3215 C   0  0  0  0  0  0  0  0  0  0  0  0
  -30.4773  -18.1287   21.2544 C   0  0  0  0  0  0  0  0  0  0  0  0
  -22.8090  -12.7768   20.8214 C   0  0  0  0  0  0  0  0  0  0  0  0
  -21.6603  -15.2733   21.2482 C   0  0  0  0  0  0  0  0  0  0  0  0
  -21.4165  -22.4350   21.0046 C   0  0  0  0  0  0  0  0  0  0  0  0
  -25.3130  -27.9308   19.0193 C   0  0  0  0  0  0  0  0  0  0  0  0
  -25.9709  -29.1015   19.3964 C   0  0  0  0  0  0  0  0  0  0  0  0
  -29.6196  -16.4015   19.2384 C   0  0  0  0  0  0  0  0  0  0  0  0
  -31.0016  -16.8387   21.1713 C   0  0  0  0  0  0  0  0  0  0  0  0
  -22.1487  -23.6048   21.2025 C   0  0  0  0  0  0  0  0  0  0  0  0
  -30.3284  -12.8717   18.7351 C   0  0  0  0  0  0  0  0  0  0  0  0
  -29.4362  -11.8218   18.5176 C   0  0  0  0  0  0  0  0  0  0  0  0
  -23.2461  -23.2698   19.0806 C   0  0  0  0  0  0  0  0  0  0  0  0
  -26.1689  -26.8167   20.9848 C   0  0  0  0  0  0  0  0  0  0  0  0
  -28.2838  -12.3765   20.5673 C   0  0  0  0  0  0  0  0  0  0  0  0
  -29.5242  -18.5550   20.3294 C   0  0  0  0  0  0  0  0  0  0  0  0
  -27.8460  -20.2987   21.1359 C   0  0  0  0  0  0  0  0  0  0  0  0
  -23.3964  -13.9146   20.2439 C   0  0  0  0  0  0  0  0  0  0  0  0
  -21.6018  -21.6667   19.8462 C   0  0  0  0  0  0  0  0  0  0  0  0
  -22.8015  -15.1788   20.4314 C   0  0  0  0  0  0  0  0  0  0  0  0
  -22.5131  -22.0920   18.8691 C   0  0  0  0  0  0  0  0  0  0  0  0
  -25.4119  -26.7884   19.8136 C   0  0  0  0  0  0  0  0  0  0  0  0
  -26.7279  -29.1298   20.5676 C   0  0  0  0  0  0  0  0  0  0  0  0
  -26.8269  -27.9874   21.3619 C   0  0  0  0  0  0  0  0  0  0  0  0
  -30.5728  -15.9751   20.1633 C   0  0  0  0  0  0  0  0  0  0  0  0
  -23.0658  -24.0209   20.2418 C   0  0  0  0  0  0  0  0  0  0  0  0
  -30.1983  -13.6740   19.8687 C   0  0  0  0  0  0  0  0  0  0  0  0
  -28.4139  -11.5742   19.4337 C   0  0  0  0  0  0  0  0  0  0  0  0
  -29.1760  -13.4264   20.7848 C   0  0  0  0  0  0  0  0  0  0  0  0
  -28.9834  -19.8877   20.4154 C   0  0  0  0  0  0  0  0  0  0  0  0
  -27.7564  -21.6481   20.8956 C   0  0  0  0  0  0  0  0  0  0  0  0
  -26.9504  -19.5296   21.9496 C   0  0  0  0  0  0  0  0  0  0  0  0
  -22.5910  -18.7046   19.2536 C   0  0  0  0  0  0  0  0  0  0  0  0
  -21.7527  -19.4502   16.2100 C   0  0  0  0  0  0  0  0  0  0  0  0
  -21.2104  -21.8687   13.8640 C   0  0  0  0  0  0  0  0  0  0  0  0
  -30.1297  -26.6789   20.4436 C   0  0  0  0  0  0  0  0  0  0  0  0
  -24.6302  -13.7359   19.3948 C   0  0  0  0  0  0  0  0  0  0  0  0
  -20.7848  -20.4216   19.6353 C   0  0  0  0  0  0  0  0  0  0  0  0
  -22.7345  -21.3137   17.5988 C   0  0  0  0  0  0  0  0  0  0  0  0
  -25.4070  -15.0331   19.1944 C   0  0  0  0  0  0  0  0  0  0  0  0
  -30.2099  -24.5709   17.5754 C   0  0  0  0  0  0  0  0  0  0  0  0
  -24.4628  -16.1415   18.7533 C   0  0  0  0  0  0  0  0  0  0  0  0
  -29.8105  -23.1981   18.1191 C   0  0  0  0  0  0  0  0  0  0  0  0
  -31.0640  -25.3473   18.5754 C   0  0  0  0  0  0  0  0  0  0  0  0
  -30.0734  -24.1112   20.4634 C   0  0  0  0  0  0  0  0  0  0  0  0
  -23.4179  -16.4327   19.8379 C   0  0  1  0  0  0  0  0  0  0  0  0
  -21.4274  -19.4440   18.6561 C   0  0  1  0  0  0  0  0  0  0  0  0
  -29.1645  -23.3133   19.5130 C   0  0  2  0  0  0  0  0  0  0  0  0
  -26.4412  -31.5508   21.2081 C   0  0  0  0  0  0  0  0  0  0  0  0
  -28.4763  -30.8227   19.9108 C   0  0  0  0  0  0  0  0  0  0  0  0
  -20.5718  -22.1693   11.4559 C   0  0  0  0  0  0  0  0  0  0  0  0
  -24.5592  -18.6044   15.3626 C   0  0  0  0  0  0  0  0  0  0  0  0
  -24.1870  -19.7946   13.1917 C   0  0  0  0  0  0  0  0  0  0  0  0
  -22.7360  -17.8648   13.8188 C   0  0  0  0  0  0  0  0  0  0  0  0
  -18.7821  -23.4020   14.5790 C   0  0  0  0  0  0  0  0  0  0  0  0
  -27.6320  -27.9940   22.6199 C   0  0  0  0  0  0  0  0  0  0  0  0
  -24.7045  -25.5291   19.4075 C   0  0  0  0  0  0  0  0  0  1  0  0
  -29.1410  -27.8731   22.3816 C   0  0  0  0  0  0  0  0  0  0  0  0
  -27.4244  -30.3944   20.9503 C   0  0  0  0  0  0  0  0  0  0  0  0
  -22.4589  -20.0681   15.0274 C   0  0  1  0  0  0  0  0  0  0  0  0
  -20.0681  -22.0878   12.8885 C   0  0  2  0  0  0  0  0  0  0  0  0
  -23.4827  -19.0968   14.3748 C   0  0  0  0  0  0  0  0  0  0  0  0
  -29.5740  -20.8944   19.7660 N   0  0  0  0  0  0  0  0  0  0  0  0
  -28.8046  -21.9514   20.0775 N   0  0  0  0  0  0  0  0  0  0  0  0
  -21.9164  -20.0999   17.4417 N   0  0  0  0  0  0  0  0  0  0  0  0
  -30.3941  -25.4215   19.8760 N   0  0  0  0  0  0  0  0  0  0  0  0
  -26.8841  -22.5929   21.3065 N   0  0  0  0  0  0  0  0  0  0  0  0
  -27.1882  -18.1555   22.0896 N   0  0  0  0  0  0  0  0  0  0  0  0
  -22.4212  -17.3342   19.3033 N   0  0  0  0  0  0  0  0  0  0  0  0
  -21.4120  -20.5293   14.1221 N   0  0  0  0  0  0  0  0  0  0  0  0
  -29.4861  -26.6597   21.6750 N   0  0  0  0  0  0  0  0  0  0  0  0
  -19.3505  -23.3544   13.2072 N   0  3  0  0  0  0  0  0  0  0  0  0
  -25.9591  -20.0426   22.5219 O   0  0  0  0  0  0  0  0  0  0  0  0
  -23.5710  -19.3310   19.6396 O   0  0  0  0  0  0  0  0  0  0  0  0
  -21.0748  -18.4328   16.0456 O   0  0  0  0  0  0  0  0  0  0  0  0
  -21.8615  -22.7932   14.3458 O   0  0  0  0  0  0  0  0  0  0  0  0
  -30.4391  -27.7401   19.8913 O   0  0  0  0  0  0  0  0  0  0  0  0
  -31.0844  -14.7165   20.0828 O   0  0  0  0  0  0  0  0  0  0  0  0
  -23.7822  -25.1619   20.4328 O   0  0  0  0  0  0  0  0  0  1  0  0
  -27.5563  -10.5669   19.2240 F   0  0  0  0  0  0  0  0  0  0  0  0
  -29.0453  -14.1945   21.8751 F   0  0  0  0  0  0  0  0  0  0  0  0
  1  2  1  0  0  0  0
  1  5  2  0  0  0  0
  2  6  2  0  0  0  0
  3 10  2  0  0  0  0
  3 18  1  0  0  0  0
  4 11  1  0  0  0  0
  4 18  2  0  0  0  0
  5 20  1  0  0  0  0
  6 22  1  0  0  0  0
  7 12  2  0  0  0  0
  7 21  1  0  0  0  0
  8  9  2  0  0  0  0
  8 24  1  0  0  0  0
  9 25  1  0  0  0  0
 10 27  1  0  0  0  0
 11 27  2  0  0  0  0
 12 28  1  0  0  0  0
 13 14  2  0  0  0  0
 13 29  1  0  0  0  0
 14 30  1  0  0  0  0
 15 23  1  0  0  0  0
 15 28  2  0  0  0  0
 16 24  2  0  0  0  0
 16 26  1  0  0  0  0
 17 30  2  0  0  0  0
 17 31  1  0  0  0  0
 18 32  1  0  0  0  0
 19 32  1  0  0  0  0
 19 33  2  0  0  0  0
 19 34  1  0  0  0  0
 20 22  2  0  0  0  0
 20 39  1  0  0  0  0
 21 23  2  0  0  0  0
 21 40  1  0  0  0  0
 22 48  1  0  0  0  0
 23 41  1  0  0  0  0
 24 59  1  0  0  0  0
 25 26  2  0  0  0  0
 25 61  1  0  0  0  0
 26 58  1  0  0  0  0
 27 80  1  0  0  0  0
 28 81  1  0  0  0  0
 29 31  2  0  0  0  0
 29 80  1  0  0  0  0
 30 82  1  0  0  0  0
 31 83  1  0  0  0  0
 32 65  2  0  0  0  0
 33 66  1  0  0  0  0
 33 69  1  0  0  0  0
 34 70  1  0  0  0  0
 34 75  2  0  0  0  0
 35 49  1  0  0  0  0
 35 71  1  0  0  0  0
 35 76  2  0  0  0  0
 36 62  1  0  0  0  0
 36 67  1  0  0  0  0
 36 77  2  0  0  0  0
 37 63  1  0  0  0  0
 37 72  1  0  0  0  0
 37 78  2  0  0  0  0
 38 68  1  0  0  0  0
 38 73  1  0  0  0  0
 38 79  2  0  0  0  0
 39 42  1  0  0  0  0
 40 49  1  0  0  0  0
 41 67  1  0  0  0  0
 42 44  1  0  0  0  0
 43 45  1  0  0  0  0
 43 46  1  0  0  0  0
 44 48  1  0  0  0  0
 45 50  1  0  0  0  0
 46 68  1  0  0  0  0
 47 50  1  0  0  0  0
 47 68  1  0  0  0  0
 48 71  1  0  0  0  0
 49 67  1  0  0  0  0
 50 66  1  0  0  0  0
 51 61  1  0  0  0  0
 52 61  1  0  0  0  0
 53 63  1  0  0  0  0
 54 64  1  0  0  0  0
 55 64  1  0  0  0  0
 56 64  1  0  0  0  0
 57 74  1  0  0  0  0
 58 60  1  0  0  0  0
 59 81  1  0  0  0  0
 60 73  1  0  0  0  0
 62 64  1  0  0  0  0
 62 72  1  0  0  0  0
 63 74  1  0  0  0  0
 65 66  1  0  0  0  0
M  CHG  1  74   1
M  ISO  4  38 100  59 101  73 100  81 101
M  END
> <Batch ID>
0105

> <Smiles>
CNC(C)C(=O)NC(C(=O)N1Cc2cc([101O:1][101CH2:1]c3ccc(C(C)C)c(CC[100NH:0][100C:0](=O)N4CCCC(n5nc(-c6ccc(Oc7ccc(F)cc7F)cc6)c(C(N)=O)c5N)C4)c3)ccc2CC1C(=O)NC1CCCc2ccccc21)C(C)(C)C

> <Shape>
0.235

> <Color>
0.062

> <Negative vol penalty>
0.000

$$$$

  -OEChem-04052319463D

 83 91  0     1  0  0  0  0  0999 V2000
  -29.9993  -31.0254   23.8840 C   0  0  0  0  0  0  0  0  0  0  0  0
  -29.4394  -29.7843   23.5985 C   0  0  0  0  0  0  0  0  0  0  0  0
  -23.0118  -10.0028   19.9225 C   0  0  0  0  0  0  0  0  0  0  0  0
  -24.0598   -9.7829   22.0881 C   0  0  0  0  0  0  0  0  0  0  0  0
  -29.1772  -32.0962   24.2325 C   0  0  0  0  0  0  0  0  0  0  0  0
  -28.0571  -29.6129   23.6624 C   0  0  0  0  0  0  0  0  0  0  0  0
  -26.2347  -27.0301   19.7060 C   0  0  0  0  0  0  0  0  0  0  0  0
  -22.3119   -8.8162   20.1406 C   0  0  0  0  0  0  0  0  0  0  0  0
  -23.3599   -8.5962   22.3063 C   0  0  0  0  0  0  0  0  0  0  0  0
  -26.3997  -25.6457   19.7188 C   0  0  0  0  0  0  0  0  0  0  0  0
  -20.2398   -7.6797   23.2260 C   0  0  0  0  0  0  0  0  0  0  0  0
  -19.6397   -7.5029   24.4726 C   0  0  0  0  0  0  0  0  0  0  0  0
  -24.1205  -25.3872   20.4658 C   0  0  0  0  0  0  0  0  0  0  0  0
  -20.9750   -5.5222   24.8344 C   0  0  0  0  0  0  0  0  0  0  0  0
  -23.8858  -10.4862   20.8962 C   0  0  0  0  0  0  0  0  0  0  0  0
  -24.1969  -13.0159   21.0036 C   0  0  0  0  0  0  0  0  0  0  0  0
  -27.7833  -31.9404   24.2913 C   0  0  0  0  0  0  0  0  0  0  0  0
  -25.0128  -27.6048   20.0841 C   0  0  0  0  0  0  0  0  0  0  0  0
  -27.2156  -30.6823   24.0133 C   0  0  0  0  0  0  0  0  0  0  0  0
  -23.9419  -26.7789   20.4545 C   0  0  0  0  0  0  0  0  0  0  0  0
  -22.4859   -8.1129   21.3325 C   0  0  0  0  0  0  0  0  0  0  0  0
  -25.3434  -24.8242   20.1015 C   0  0  0  0  0  0  0  0  0  0  0  0
  -21.2075   -6.7777   22.7835 C   0  0  0  0  0  0  0  0  0  0  0  0
  -20.0073   -6.4241   25.2769 C   0  0  0  0  0  0  0  0  0  0  0  0
  -21.5751   -5.6990   23.5877 C   0  0  0  0  0  0  0  0  0  0  0  0
  -24.6095  -11.7116   20.6712 C   0  0  0  0  0  0  0  0  0  0  0  0
  -25.2296  -13.8195   20.5863 C   0  0  0  0  0  0  0  0  0  0  0  0
  -22.9882  -13.4611   21.6332 C   0  0  0  0  0  0  0  0  0  0  0  0
  -24.0824  -29.5799   22.3944 C   0  0  0  0  0  0  0  0  0  0  0  0
  -21.2542  -29.4768   20.8093 C   0  0  0  0  0  0  0  0  0  0  0  0
  -19.1824  -27.7889   18.6867 C   0  0  0  0  0  0  0  0  0  0  0  0
  -30.8650  -14.5674   20.5589 C   0  0  0  0  0  0  0  0  0  0  0  0
  -26.9390  -33.1147   24.7187 C   0  0  0  0  0  0  0  0  0  0  0  0
  -24.8426  -29.0986   20.0393 C   0  0  0  0  0  0  0  0  0  0  0  0
  -22.6034  -27.3454   20.8497 C   0  0  0  0  0  0  0  0  0  0  0  0
  -25.4558  -32.9471   24.3987 C   0  0  0  0  0  0  0  0  0  0  0  0
  -29.2639  -12.8064   17.7239 C   0  0  0  0  0  0  0  0  0  0  0  0
  -24.9730  -31.5615   24.8156 C   0  0  0  0  0  0  0  0  0  0  0  0
  -27.9423  -19.6299   21.9857 C   0  0  0  0  0  0  0  0  0  0  0  0
  -27.9045  -12.4141   18.3004 C   0  0  0  0  0  0  0  0  0  0  0  0
  -28.0668  -21.0341   21.3966 C   0  0  0  0  0  0  0  0  0  0  0  0
  -30.3314  -12.9107   18.8089 C   0  0  0  0  0  0  0  0  0  0  0  0
  -28.6073  -13.4303   20.5036 C   0  0  0  0  0  0  0  0  0  0  0  0
  -25.7511  -19.3326   20.7710 C   0  0  0  0  0  0  0  0  0  0  0  0
  -25.7186  -30.4633   24.0476 C   0  0  1  0  0  0  0  0  0  0  0  0
  -23.7155  -29.5988   20.9374 C   0  0  1  0  0  0  0  0  0  0  0  0
  -27.1120  -18.7107   21.0801 C   0  0  2  0  0  0  0  0  0  0  0  0
  -27.4988  -13.3619   19.4425 C   0  0  2  0  0  0  0  0  0  0  0  0
  -26.6987  -21.6390   21.0850 C   0  0  1  0  0  0  0  0  0  0  0  0
  -16.9215  -27.9377   17.6079 C   0  0  0  0  0  0  0  0  0  0  0  0
  -26.1519  -17.4742   23.0322 C   0  0  0  0  0  0  0  0  0  0  0  0
  -19.9443  -28.6967   23.4523 C   0  0  0  0  0  0  0  0  0  0  0  0
  -17.9375  -27.9471   22.1564 C   0  0  0  0  0  0  0  0  0  0  0  0
  -18.6425  -30.3390   22.0876 C   0  0  0  0  0  0  0  0  0  0  0  0
  -31.4026  -16.6501   21.7641 C   0  0  0  0  0  0  0  0  0  0  0  0
  -20.3515  -27.7896   15.9678 C   0  0  0  0  0  0  0  0  0  0  0  0
  -26.8124  -22.9751   20.3828 C   0  0  0  0  0  0  0  0  0  1  0  0
  -28.2824  -16.6358   21.9968 C   0  0  0  0  0  0  0  0  0  0  0  0
  -29.1588  -16.4247   20.7640 C   0  0  0  0  0  0  0  0  0  0  0  0
  -20.0239  -28.6043   20.8733 C   0  0  1  0  0  0  0  0  0  0  0  0
  -18.4044  -28.2435   17.4650 C   0  0  2  0  0  0  0  0  0  0  0  0
  -26.9358  -17.3366   21.7233 C   0  0  2  0  0  0  0  0  0  0  0  0
  -19.1627  -28.8859   22.1369 C   0  0  0  0  0  0  0  0  0  0  0  0
  -25.8106  -11.6838   20.0876 N   0  0  0  0  0  0  0  0  0  0  0  0
  -26.1616  -12.9805   20.0500 N   0  0  0  0  0  0  0  0  0  0  0  0
  -22.4886  -28.8121   20.7959 N   0  0  0  0  0  0  0  0  0  0  0  0
  -29.9022  -13.7833   19.9024 N   0  0  0  0  0  0  0  0  0  0  0  0
  -25.4223  -15.1550   20.6295 N   0  0  0  0  0  0  0  0  0  0  0  0
  -22.0325  -12.5029   21.9976 N   0  0  0  0  0  0  0  0  0  0  0  0
  -25.1937  -30.3404   22.7046 N   0  0  0  0  0  0  0  0  0  0  0  0
  -19.3172  -28.8019   19.6124 N   0  0  0  0  0  0  0  0  0  0  0  0
  -30.4386  -15.7964   21.0847 N   0  0  0  0  0  0  0  0  0  0  0  0
  -25.9498  -20.6954   20.1904 N   0  3  0  0  0  0  0  0  0  0  0  0
  -18.9104  -27.5562   16.2433 N   0  3  0  0  0  0  0  0  0  0  0  0
  -22.7552  -14.6743   21.8510 O   0  0  0  0  0  0  0  0  0  0  0  0
  -23.4065  -28.9250   23.1792 O   0  0  0  0  0  0  0  0  0  0  0  0
  -21.1244  -30.7027   20.7653 O   0  0  0  0  0  0  0  0  0  0  0  0
  -19.6230  -26.6481   18.8093 O   0  0  0  0  0  0  0  0  0  0  0  0
  -32.0409  -14.1947   20.6604 O   0  0  0  0  0  0  0  0  0  0  0  0
  -21.8029   -6.9551   21.5459 O   0  0  0  0  0  0  0  0  0  0  0  0
  -25.5019  -23.4727   20.1155 O   0  0  0  0  0  0  0  0  0  1  0  0
  -19.4321   -6.2553   26.4747 F   0  0  0  0  0  0  0  0  0  0  0  0
  -22.5049   -4.8298   23.1685 F   0  0  0  0  0  0  0  0  0  0  0  0
  1  2  1  0  0  0  0
  1  5  2  0  0  0  0
  2  6  2  0  0  0  0
  3  8  2  0  0  0  0
  3 15  1  0  0  0  0
  4  9  1  0  0  0  0
  4 15  2  0  0  0  0
  5 17  1  0  0  0  0
  6 19  1  0  0  0  0
  7 10  2  0  0  0  0
  7 18  1  0  0  0  0
  8 21  1  0  0  0  0
  9 21  2  0  0  0  0
 10 22  1  0  0  0  0
 11 12  2  0  0  0  0
 11 23  1  0  0  0  0
 12 24  1  0  0  0  0
 13 20  1  0  0  0  0
 13 22  2  0  0  0  0
 14 24  2  0  0  0  0
 14 25  1  0  0  0  0
 15 26  1  0  0  0  0
 16 26  1  0  0  0  0
 16 27  2  0  0  0  0
 16 28  1  0  0  0  0
 17 19  2  0  0  0  0
 17 33  1  0  0  0  0
 18 20  2  0  0  0  0
 18 34  1  0  0  0  0
 19 45  1  0  0  0  0
 20 35  1  0  0  0  0
 21 80  1  0  0  0  0
 22 81  1  0  0  0  0
 23 25  2  0  0  0  0
 23 80  1  0  0  0  0
 24 82  1  0  0  0  0
 25 83  1  0  0  0  0
 26 64  2  0  0  0  0
 27 65  1  0  0  0  0
 27 68  1  0  0  0  0
 28 69  1  0  0  0  0
 28 75  2  0  0  0  0
 29 46  1  0  0  0  0
 29 70  1  0  0  0  0
 29 76  2  0  0  0  0
 30 60  1  0  0  0  0
 30 66  1  0  0  0  0
 30 77  2  0  0  0  0
 31 61  1  0  0  0  0
 31 71  1  0  0  0  0
 31 78  2  0  0  0  0
 32 67  1  0  0  0  0
 32 72  1  0  0  0  0
 32 79  2  0  0  0  0
 33 36  1  0  0  0  0
 34 46  1  0  0  0  0
 35 66  1  0  0  0  0
 36 38  1  0  0  0  0
 37 40  1  0  0  0  0
 37 42  1  0  0  0  0
 38 45  1  0  0  0  0
 39 41  1  0  0  0  0
 39 47  1  0  0  0  0
 40 48  1  0  0  0  0
 41 49  1  0  0  0  0
 42 67  1  0  0  0  0
 43 48  1  0  0  0  0
 43 67  1  0  0  0  0
 44 47  1  0  0  0  0
 44 73  1  0  0  0  0
 45 70  1  0  0  0  0
 46 66  1  0  0  0  0
 47 62  1  0  0  0  0
 48 65  1  0  0  0  0
 49 57  1  0  0  0  0
 49 73  1  0  0  0  0
 50 61  1  0  0  0  0
 51 62  1  0  0  0  0
 52 63  1  0  0  0  0
 53 63  1  0  0  0  0
 54 63  1  0  0  0  0
 55 72  1  0  0  0  0
 56 74  1  0  0  0  0
 57 81  1  0  0  0  0
 58 59  1  0  0  0  0
 58 62  1  0  0  0  0
 59 72  1  0  0  0  0
 60 63  1  0  0  0  0
 60 71  1  0  0  0  0
 61 74  1  0  0  0  0
 64 65  1  0  0  0  0
M  CHG  2  73   1  74   1
M  ISO  4  32 100  57 101  72 100  81 101
M  END
> <Batch ID>
0105

> <Smiles>
CNC(C)C(=O)NC(C(=O)N1Cc2cc([101O:1][101CH2:1]C3CCC(C(C)CC[100N:0](C)[100C:0](=O)N4CCCC(n5nc(-c6ccc(Oc7ccc(F)cc7F)cc6)c(C(N)=O)c5N)C4)CN3)ccc2CC1C(=O)NC1CCCc2ccccc21)C(C)(C)C

> <Shape>
0.343

> <Color>
0.190

> <Negative vol penalty>
0.000

$$$$

  -OEChem-04052319463D

 82 90  0     1  0  0  0  0  0999 V2000
  -16.7700  -30.2978   23.3052 C   0  0  0  0  0  0  0  0  0  0  0  0
  -17.8872  -30.9003   22.7356 C   0  0  0  0  0  0  0  0  0  0  0  0
  -26.0032  -14.9579   20.0899 C   0  0  0  0  0  0  0  0  0  0  0  0
  -27.6342  -14.4235   21.7904 C   0  0  0  0  0  0  0  0  0  0  0  0
  -16.9113  -29.1174   24.0337 C   0  0  0  0  0  0  0  0  0  0  0  0
  -19.1465  -30.3232   22.8951 C   0  0  0  0  0  0  0  0  0  0  0  0
  -25.3809  -29.4911   19.4664 C   0  0  0  0  0  0  0  0  0  0  0  0
  -25.7053  -13.6024   19.9497 C   0  0  0  0  0  0  0  0  0  0  0  0
  -27.3362  -13.0681   21.6502 C   0  0  0  0  0  0  0  0  0  0  0  0
  -26.7489  -29.6803   19.6576 C   0  0  0  0  0  0  0  0  0  0  0  0
  -24.2581  -10.3133   19.4003 C   0  0  0  0  0  0  0  0  0  0  0  0
  -22.9135   -9.9483   19.3330 C   0  0  0  0  0  0  0  0  0  0  0  0
  -26.8615  -27.5976   20.8696 C   0  0  0  0  0  0  0  0  0  0  0  0
  -22.5451  -10.9021   21.5220 C   0  0  0  0  0  0  0  0  0  0  0  0
  -26.9677  -15.3684   21.0102 C   0  0  0  0  0  0  0  0  0  0  0  0
  -26.6658  -17.6873   22.0296 C   0  0  0  0  0  0  0  0  0  0  0  0
  -18.1717  -28.5204   24.1940 C   0  0  0  0  0  0  0  0  0  0  0  0
  -24.7398  -28.3571   19.9857 C   0  0  0  0  0  0  0  0  0  0  0  0
  -19.3050  -29.1344   23.6275 C   0  0  0  0  0  0  0  0  0  0  0  0
  -25.4858  -27.3951   20.6814 C   0  0  0  0  0  0  0  0  0  0  0  0
  -26.3718  -12.6575   20.7298 C   0  0  0  0  0  0  0  0  0  0  0  0
  -27.4889  -28.7350   20.3618 C   0  0  0  0  0  0  0  0  0  0  0  0
  -24.7462  -10.9725   20.5285 C   0  0  0  0  0  0  0  0  0  0  0  0
  -22.0570  -10.2428   20.3938 C   0  0  0  0  0  0  0  0  0  0  0  0
  -23.8897  -11.2670   21.5893 C   0  0  0  0  0  0  0  0  0  0  0  0
  -27.2762  -16.7684   21.1551 C   0  0  0  0  0  0  0  0  0  0  0  0
  -27.3112  -18.8748   21.7850 C   0  0  0  0  0  0  0  0  0  0  0  0
  -25.6099  -17.4856   22.9783 C   0  0  0  0  0  0  0  0  0  0  0  0
  -22.4226  -27.8637   22.1048 C   0  0  0  0  0  0  0  0  0  0  0  0
  -22.7320  -24.7813   21.1430 C   0  0  0  0  0  0  0  0  0  0  0  0
  -24.6992  -22.3634   19.7533 C   0  0  0  0  0  0  0  0  0  0  0  0
  -29.2748  -22.6063   18.3853 C   0  0  0  0  0  0  0  0  0  0  0  0
  -18.2815  -27.2698   25.0298 C   0  0  0  0  0  0  0  0  0  0  0  0
  -23.2685  -28.1545   19.7477 C   0  0  0  0  0  0  0  0  0  0  0  0
  -24.8488  -26.1505   21.2416 C   0  0  0  0  0  0  0  0  0  0  0  0
  -19.5976  -26.5212   24.8359 C   0  0  0  0  0  0  0  0  0  0  0  0
  -31.4871  -19.8876   19.1452 C   0  0  0  0  0  0  0  0  0  0  0  0
  -20.7750  -27.4899   24.8847 C   0  0  0  0  0  0  0  0  0  0  0  0
  -30.5251  -18.8882   19.7824 C   0  0  0  0  0  0  0  0  0  0  0  0
  -30.3622  -25.3433   16.1299 C   0  0  0  0  0  0  0  0  0  0  0  0
  -30.8465  -20.6507   17.9841 C   0  0  0  0  0  0  0  0  0  0  0  0
  -30.3823  -22.9665   16.1198 C   0  0  0  0  0  0  0  0  0  0  0  0
  -28.6017  -20.2995   18.9741 C   0  0  0  0  0  0  0  0  0  0  0  0
  -20.6843  -28.5255   23.7574 C   0  0  1  0  0  0  0  0  0  0  0  0
  -22.6226  -27.2171   20.7633 C   0  0  1  0  0  0  0  0  0  0  0  0
  -30.0839  -24.1553   15.2093 C   0  0  2  0  0  0  0  0  0  0  0  0
  -29.2113  -19.5780   20.1844 C   0  0  1  0  0  0  0  0  0  0  0  0
  -29.8168  -24.8700   17.4818 C   0  0  2  0  0  0  0  0  0  0  0  0
  -30.9217  -24.1683   13.9432 C   0  0  0  0  0  0  0  0  0  0  0  0
  -24.6892  -19.9323   19.1315 C   0  0  0  0  0  0  0  0  0  0  0  0
  -23.0816  -24.0311   24.0798 C   0  0  0  0  0  0  0  0  0  0  0  0
  -23.9957  -21.8226   23.3347 C   0  0  0  0  0  0  0  0  0  0  0  0
  -21.6516  -22.4568   22.7640 C   0  0  0  0  0  0  0  0  0  0  0  0
  -25.1296  -22.9748   16.8898 C   0  0  0  0  0  0  0  0  0  0  0  0
  -30.5825  -25.4814   18.6479 C   0  0  0  0  0  0  0  0  0  0  0  0
  -31.1586  -27.6843   19.6747 C   0  0  0  0  0  0  0  0  0  0  0  0
  -29.5281  -29.6439   19.5425 C   0  0  0  0  0  0  0  0  0  1  0  0
  -23.5690  -23.6036   21.5806 C   0  0  1  0  0  0  0  0  0  0  0  0
  -24.4274  -21.3523   18.6542 C   0  0  2  0  0  0  0  0  0  0  0  0
  -30.9920  -29.1943   19.5039 C   0  0  1  0  0  0  0  0  0  0  0  0
  -23.0864  -23.0028   22.9310 C   0  0  0  0  0  0  0  0  0  0  0  0
  -28.2356  -17.3244   20.4104 N   0  0  0  0  0  0  0  0  0  0  0  0
  -28.2328  -18.6055   20.8163 N   0  0  0  0  0  0  0  0  0  0  0  0
  -23.4062  -26.0008   20.9881 N   0  0  0  0  0  0  0  0  0  0  0  0
  -29.5575  -21.2344   18.3740 N   0  0  0  0  0  0  0  0  0  0  0  0
  -29.9221  -23.4058   17.4395 N   0  0  0  0  0  0  0  0  0  0  0  0
  -27.1745  -20.1127   22.3060 N   0  0  0  0  0  0  0  0  0  0  0  0
  -25.0592  -16.2027   23.1024 N   0  0  0  0  0  0  0  0  0  0  0  0
  -31.7213  -29.8579   20.5911 N   0  0  0  0  0  0  0  0  0  0  0  0
  -21.1009  -27.9420   22.5003 N   0  0  0  0  0  0  0  0  0  0  0  0
  -23.5581  -22.6593   20.4686 N   0  0  0  0  0  0  0  0  0  0  0  0
  -25.3000  -21.6205   17.4763 N   0  3  0  0  0  0  0  0  0  0  0  0
  -30.4960  -26.9543   18.5567 N   0  3  0  0  0  0  0  0  0  0  0  0
  -25.1567  -18.4190   23.6832 O   0  0  0  0  0  0  0  0  0  0  0  0
  -23.3956  -28.2607   22.7352 O   0  0  0  0  0  0  0  0  0  0  0  0
  -21.5257  -24.6233   20.9388 O   0  0  0  0  0  0  0  0  0  0  0  0
  -25.8131  -22.8401   19.9594 O   0  0  0  0  0  0  0  0  0  0  0  0
  -28.4602  -23.0899   19.1822 O   0  0  0  0  0  0  0  0  0  0  0  0
  -26.0812  -11.3349   20.5934 O   0  0  0  0  0  0  0  0  0  0  0  0
  -28.8326  -28.9187   20.5516 O   0  0  0  0  0  0  0  0  0  1  0  0
  -20.7655   -9.8937   20.3284 F   0  0  0  0  0  0  0  0  0  0  0  0
  -24.3526  -11.9013   22.6752 F   0  0  0  0  0  0  0  0  0  0  0  0
  1  2  1  0  0  0  0
  1  5  2  0  0  0  0
  2  6  2  0  0  0  0
  3  8  2  0  0  0  0
  3 15  1  0  0  0  0
  4  9  1  0  0  0  0
  4 15  2  0  0  0  0
  5 17  1  0  0  0  0
  6 19  1  0  0  0  0
  7 10  2  0  0  0  0
  7 18  1  0  0  0  0
  8 21  1  0  0  0  0
  9 21  2  0  0  0  0
 10 22  1  0  0  0  0
 11 12  2  0  0  0  0
 11 23  1  0  0  0  0
 12 24  1  0  0  0  0
 13 20  1  0  0  0  0
 13 22  2  0  0  0  0
 14 24  2  0  0  0  0
 14 25  1  0  0  0  0
 15 26  1  0  0  0  0
 16 26  1  0  0  0  0
 16 27  2  0  0  0  0
 16 28  1  0  0  0  0
 17 19  2  0  0  0  0
 17 33  1  0  0  0  0
 18 20  2  0  0  0  0
 18 34  1  0  0  0  0
 19 44  1  0  0  0  0
 20 35  1  0  0  0  0
 21 79  1  0  0  0  0
 22 80  1  0  0  0  0
 23 25  2  0  0  0  0
 23 79  1  0  0  0  0
 24 81  1  0  0  0  0
 25 82  1  0  0  0  0
 26 62  2  0  0  0  0
 27 63  1  0  0  0  0
 27 67  1  0  0  0  0
 28 68  1  0  0  0  0
 28 74  2  0  0  0  0
 29 45  1  0  0  0  0
 29 70  1  0  0  0  0
 29 75  2  0  0  0  0
 30 58  1  0  0  0  0
 30 64  1  0  0  0  0
 30 76  2  0  0  0  0
 31 59  1  0  0  0  0
 31 71  1  0  0  0  0
 31 77  2  0  0  0  0
 32 65  1  0  0  0  0
 32 66  1  0  0  0  0
 32 78  2  0  0  0  0
 33 36  1  0  0  0  0
 34 45  1  0  0  0  0
 35 64  1  0  0  0  0
 36 38  1  0  0  0  0
 37 39  1  0  0  0  0
 37 41  1  0  0  0  0
 38 44  1  0  0  0  0
 39 47  1  0  0  0  0
 40 46  1  0  0  0  0
 40 48  1  0  0  0  0
 41 65  1  0  0  0  0
 42 46  1  0  0  0  0
 42 66  1  0  0  0  0
 43 47  1  0  0  0  0
 43 65  1  0  0  0  0
 44 70  1  0  0  0  0
 45 64  1  0  0  0  0
 46 49  1  0  0  0  0
 47 63  1  0  0  0  0
 48 55  1  0  0  0  0
 48 66  1  0  0  0  0
 50 59  1  0  0  0  0
 51 61  1  0  0  0  0
 52 61  1  0  0  0  0
 53 61  1  0  0  0  0
 54 72  1  0  0  0  0
 55 73  1  0  0  0  0
 56 60  1  0  0  0  0
 56 73  1  0  0  0  0
 57 60  1  0  0  0  0
 57 80  1  0  0  0  0
 58 61  1  0  0  0  0
 58 71  1  0  0  0  0
 59 72  1  0  0  0  0
 60 69  1  0  0  0  0
 62 63  1  0  0  0  0
M  CHG  2  72   1  73   1
M  ISO  4  32 100  57 101  66 100  80 101
M  END
> <Batch ID>
0105

> <Smiles>
CNC(C)C(=O)NC(C(=O)N1Cc2cc([101O:1][101CH2:1]C(N)CNCC3CC(C)C[100N:0]3[100C:0](=O)N3CCCC(n4nc(-c5ccc(Oc6ccc(F)cc6F)cc5)c(C(N)=O)c4N)C3)ccc2CC1C(=O)NC1CCCc2ccccc21)C(C)(C)C

> <Shape>
0.230

> <Color>
0.078

> <Negative vol penalty>
0.000

$$$$

  -OEChem-04052319463D

 90 98  0     1  0  0  0  0  0999 V2000
  -27.7048  -33.6553   25.8739 C   0  0  0  0  0  0  0  0  0  0  0  0
  -27.9072  -32.4264   25.2542 C   0  0  0  0  0  0  0  0  0  0  0  0
  -25.2986  -14.4798   19.1605 C   0  0  0  0  0  0  0  0  0  0  0  0
  -26.0354  -13.7162   21.3311 C   0  0  0  0  0  0  0  0  0  0  0  0
  -26.4146  -34.0578   26.2166 C   0  0  0  0  0  0  0  0  0  0  0  0
  -26.8196  -31.5986   24.9777 C   0  0  0  0  0  0  0  0  0  0  0  0
  -27.0169  -29.6225   20.3193 C   0  0  0  0  0  0  0  0  0  0  0  0
  -24.8913  -13.1841   18.8429 C   0  0  0  0  0  0  0  0  0  0  0  0
  -25.6280  -12.4205   21.0135 C   0  0  0  0  0  0  0  0  0  0  0  0
  -27.8786  -28.5446   20.1209 C   0  0  0  0  0  0  0  0  0  0  0  0
  -24.4521   -8.9817   20.9115 C   0  0  0  0  0  0  0  0  0  0  0  0
  -23.7385   -8.2707   21.8762 C   0  0  0  0  0  0  0  0  0  0  0  0
  -26.0095  -27.0283   20.2844 C   0  0  0  0  0  0  0  0  0  0  0  0
  -26.8185  -22.9247   23.1494 C   0  0  0  0  0  0  0  0  0  0  0  0
  -22.0186   -9.9674   21.8544 C   0  0  0  0  0  0  0  0  0  0  0  0
  -27.9703  -23.0812   25.0778 C   0  0  0  0  0  0  0  0  0  0  0  0
  -25.8707  -14.7459   20.4046 C   0  0  0  0  0  0  0  0  0  0  0  0
  -25.5236  -17.0904   21.3481 C   0  0  0  0  0  0  0  0  0  0  0  0
  -25.3096  -33.2388   25.9354 C   0  0  0  0  0  0  0  0  0  0  0  0
  -25.6444  -29.4104   20.5129 C   0  0  0  0  0  0  0  0  0  0  0  0
  -25.5136  -31.9899   25.3181 C   0  0  0  0  0  0  0  0  0  0  0  0
  -25.1322  -28.1055   20.4824 C   0  0  0  0  0  0  0  0  0  0  0  0
  -26.6962  -23.0268   24.5571 C   0  0  0  0  0  0  0  0  0  0  0  0
  -25.0560  -12.1544   19.7694 C   0  0  0  0  0  0  0  0  0  0  0  0
  -27.3753  -27.2470   20.1063 C   0  0  0  0  0  0  0  0  0  0  0  0
  -23.9491  -10.1857   20.4183 C   0  0  0  0  0  0  0  0  0  0  0  0
  -22.5217   -8.7635   22.3476 C   0  0  0  0  0  0  0  0  0  0  0  0
  -22.7323  -10.6785   20.8897 C   0  0  0  0  0  0  0  0  0  0  0  0
  -26.2921  -16.0840   20.7330 C   0  0  0  0  0  0  0  0  0  0  0  0
  -28.1636  -22.9196   22.8526 C   0  0  0  0  0  0  0  0  0  0  0  0
  -26.3742  -18.1650   21.4384 C   0  0  0  0  0  0  0  0  0  0  0  0
  -24.1626  -17.0569   21.7978 C   0  0  0  0  0  0  0  0  0  0  0  0
  -23.5961  -29.9901   22.8734 C   0  0  0  0  0  0  0  0  0  0  0  0
  -21.4113  -28.9617   20.7074 C   0  0  0  0  0  0  0  0  0  0  0  0
  -20.7485  -27.1210   17.9111 C   0  0  0  0  0  0  0  0  0  0  0  0
  -31.3855  -20.3197   22.6174 C   0  0  0  0  0  0  0  0  0  0  0  0
  -23.9388  -33.6958   26.3674 C   0  0  0  0  0  0  0  0  0  0  0  0
  -24.7243  -30.5857   20.6989 C   0  0  0  0  0  0  0  0  0  0  0  0
  -23.6636  -27.8255   20.6652 C   0  0  0  0  0  0  0  0  0  0  0  0
  -22.8019  -32.9251   25.7012 C   0  0  0  0  0  0  0  0  0  0  0  0
  -30.9211  -18.9481   19.3648 C   0  0  0  0  0  0  0  0  0  0  0  0
  -23.0756  -31.4252   25.7460 C   0  0  0  0  0  0  0  0  0  0  0  0
  -29.6160  -18.1591   19.4835 C   0  0  0  0  0  0  0  0  0  0  0  0
  -31.7490  -18.8654   20.6453 C   0  0  0  0  0  0  0  0  0  0  0  0
  -29.7249  -18.4628   21.9924 C   0  0  0  0  0  0  0  0  0  0  0  0
  -24.3567  -31.0751   24.9794 C   0  0  1  0  0  0  0  0  0  0  0  0
  -23.4195  -30.2181   21.3988 C   0  0  1  0  0  0  0  0  0  0  0  0
  -28.8297  -18.5624   20.7454 C   0  0  2  0  0  0  0  0  0  0  0  0
  -18.8627  -26.4413   16.4014 C   0  0  0  0  0  0  0  0  0  0  0  0
  -23.9602  -22.0104   27.1836 C   0  0  0  0  0  0  0  0  0  0  0  0
  -25.3717  -20.5500   25.7403 C   0  0  0  0  0  0  0  0  0  0  0  0
  -23.8616  -25.6495   24.4381 C   0  0  0  0  0  0  0  0  0  0  0  0
  -20.4481  -26.9718   22.8104 C   0  0  0  0  0  0  0  0  0  0  0  0
  -19.2683  -25.7240   20.9886 C   0  0  0  0  0  0  0  0  0  0  0  0
  -18.6226  -28.0772   21.5065 C   0  0  0  0  0  0  0  0  0  0  0  0
  -22.0072  -28.4132   15.5649 C   0  0  0  0  0  0  0  0  0  0  0  0
  -28.8595  -22.8303   21.5180 C   0  0  0  0  0  0  0  0  0  0  0  0
  -29.1263  -24.1907   20.8702 C   0  0  0  0  0  0  0  0  0  0  0  0
  -30.2937  -23.0433   24.1721 C   0  0  0  0  0  0  0  0  0  0  0  0
  -30.8767  -21.7035   24.6138 C   0  0  0  0  0  0  0  0  0  0  0  0
  -27.8536  -24.9554   20.5257 C   0  0  0  0  0  0  0  0  0  1  0  0
  -25.6812  -26.8049   25.8247 C   0  0  0  0  0  0  0  0  0  0  0  0
  -25.4372  -23.0679   25.3251 C   0  0  1  0  0  0  0  0  0  0  0  0
  -20.8189  -27.6228   20.3396 C   0  0  1  0  0  0  0  0  0  0  0  0
  -19.9729  -27.4508   16.6485 C   0  0  2  0  0  0  0  0  0  0  0  0
  -25.2766  -21.9347   26.3978 C   0  0  0  0  0  0  0  0  0  0  0  0
  -25.2373  -25.5457   25.0824 C   0  0  1  0  0  0  0  0  0  0  0  0
  -19.8175  -27.1037   21.4097 C   0  0  0  0  0  0  0  0  0  0  0  0
  -27.5353  -16.4836   20.4522 N   0  0  0  0  0  0  0  0  0  0  0  0
  -28.8542  -23.0149   24.0325 N   0  0  0  0  0  0  0  0  0  0  0  0
  -27.5544  -17.7531   20.8927 N   0  0  0  0  0  0  0  0  0  0  0  0
  -22.8054  -29.0074   20.8500 N   0  0  0  0  0  0  0  0  0  0  0  0
  -30.9457  -19.2622   21.8043 N   0  0  0  0  0  0  0  0  0  0  0  0
  -26.2203  -19.4127   21.9303 N   0  0  0  0  0  0  0  0  0  0  0  0
  -23.4320  -15.8729   21.6284 N   0  0  0  0  0  0  0  0  0  0  0  0
  -24.1092  -31.0780   23.5535 N   0  0  0  0  0  0  0  0  0  0  0  0
  -20.2419  -27.7832   19.0093 N   0  0  0  0  0  0  0  0  0  0  0  0
  -30.5619  -20.6356   23.6910 N   0  0  0  0  0  0  0  0  0  0  0  0
  -20.8815  -27.4488   15.4671 N   0  3  0  0  0  0  0  0  0  0  0  0
  -25.2353  -24.4010   26.0141 N   0  3  0  0  0  0  0  0  0  0  0  0
  -23.6057  -18.0527   22.3190 O   0  0  0  0  0  0  0  0  0  0  0  0
  -23.2881  -28.9077   23.3585 O   0  0  0  0  0  0  0  0  0  0  0  0
  -20.6654  -29.9329   20.8554 O   0  0  0  0  0  0  0  0  0  0  0  0
  -21.7055  -26.3499   17.9227 O   0  0  0  0  0  0  0  0  0  0  0  0
  -32.4317  -20.9401   22.3995 O   0  0  0  0  0  0  0  0  0  0  0  0
  -24.6585  -10.8900   19.4599 O   0  0  0  0  0  0  0  0  0  0  0  0
  -28.2142  -26.1930   19.9135 O   0  0  0  0  0  0  0  0  0  1  0  0
  -21.8357   -8.0798   23.2729 F   0  0  0  0  0  0  0  0  0  0  0  0
  -22.2434  -11.8339   20.4188 F   0  0  0  0  0  0  0  0  0  0  0  0
  -24.5823  -27.2738   27.1464 Cl  0  0  0  0  0  0  0  0  0  0  0  0
  1  2  1  0  0  0  0
  1  5  2  0  0  0  0
  2  6  2  0  0  0  0
  3  8  2  0  0  0  0
  3 17  1  0  0  0  0
  4  9  1  0  0  0  0
  4 17  2  0  0  0  0
  5 19  1  0  0  0  0
  6 21  1  0  0  0  0
  7 10  2  0  0  0  0
  7 20  1  0  0  0  0
  8 24  1  0  0  0  0
  9 24  2  0  0  0  0
 10 25  1  0  0  0  0
 11 12  2  0  0  0  0
 11 26  1  0  0  0  0
 12 27  1  0  0  0  0
 13 22  1  0  0  0  0
 13 25  2  0  0  0  0
 14 23  1  0  0  0  0
 14 30  2  0  0  0  0
 15 27  2  0  0  0  0
 15 28  1  0  0  0  0
 16 23  2  0  0  0  0
 16 70  1  0  0  0  0
 17 29  1  0  0  0  0
 18 29  1  0  0  0  0
 18 31  2  0  0  0  0
 18 32  1  0  0  0  0
 19 21  2  0  0  0  0
 19 37  1  0  0  0  0
 20 22  2  0  0  0  0
 20 38  1  0  0  0  0
 21 46  1  0  0  0  0
 22 39  1  0  0  0  0
 23 63  1  0  0  0  0
 24 86  1  0  0  0  0
 25 87  1  0  0  0  0
 26 28  2  0  0  0  0
 26 86  1  0  0  0  0
 27 88  1  0  0  0  0
 28 89  1  0  0  0  0
 29 69  2  0  0  0  0
 30 57  1  0  0  0  0
 30 70  1  0  0  0  0
 31 71  1  0  0  0  0
 31 74  1  0  0  0  0
 32 75  1  0  0  0  0
 32 81  2  0  0  0  0
 33 47  1  0  0  0  0
 33 76  1  0  0  0  0
 33 82  2  0  0  0  0
 34 64  1  0  0  0  0
 34 72  1  0  0  0  0
 34 83  2  0  0  0  0
 35 65  1  0  0  0  0
 35 77  1  0  0  0  0
 35 84  2  0  0  0  0
 36 73  1  0  0  0  0
 36 78  1  0  0  0  0
 36 85  2  0  0  0  0
 37 40  1  0  0  0  0
 38 47  1  0  0  0  0
 39 72  1  0  0  0  0
 40 42  1  0  0  0  0
 41 43  1  0  0  0  0
 41 44  1  0  0  0  0
 42 46  1  0  0  0  0
 43 48  1  0  0  0  0
 44 73  1  0  0  0  0
 45 48  1  0  0  0  0
 45 73  1  0  0  0  0
 46 76  1  0  0  0  0
 47 72  1  0  0  0  0
 48 71  1  0  0  0  0
 49 65  1  0  0  0  0
 50 66  1  0  0  0  0
 51 66  1  0  0  0  0
 52 67  1  0  0  0  0
 53 68  1  0  0  0  0
 54 68  1  0  0  0  0
 55 68  1  0  0  0  0
 56 79  1  0  0  0  0
 57 58  1  0  0  0  0
 58 61  1  0  0  0  0
 59 60  1  0  0  0  0
 59 70  1  0  0  0  0
 60 78  1  0  0  0  0
 61 87  1  0  0  0  0
 62 67  1  0  0  0  0
 62 90  1  0  0  0  0
 63 66  1  0  0  0  0
 63 80  1  0  0  0  0
 64 68  1  0  0  0  0
 64 77  1  0  0  0  0
 65 79  1  0  0  0  0
 67 80  1  0  0  0  0
 69 71  1  0  0  0  0
M  CHG  2  79   1  80   1
M  ISO  4  36 100  61 101  78 100  87 101
M  END
> <Batch ID>
0105

> <Smiles>
CNC(C)C(=O)NC(C(=O)N1Cc2cc([101O:1][101CH2:1]CCc3cc(C(NC(C)CCl)C(C)C)cn3CC[100NH:0][100C:0](=O)N3CCCC(n4nc(-c5ccc(Oc6ccc(F)cc6F)cc5)c(C(N)=O)c4N)C3)ccc2CC1C(=O)NC1CCCc2ccccc21)C(C)(C)C

> <Shape>
0.251

> <Color>
0.077

> <Negative vol penalty>
0.000

$$$$

  -OEChem-04052319463D

 85 93  0     1  0  0  0  0  0999 V2000
  -19.2822  -16.7966   28.6465 C   0  0  0  0  0  0  0  0  0  0  0  0
  -19.6382  -17.9065   27.8870 C   0  0  0  0  0  0  0  0  0  0  0  0
  -29.4227  -17.3135   19.4072 C   0  0  0  0  0  0  0  0  0  0  0  0
  -30.8513  -17.8455   21.2816 C   0  0  0  0  0  0  0  0  0  0  0  0
  -19.9137  -15.5728   28.4287 C   0  0  0  0  0  0  0  0  0  0  0  0
  -20.6267  -17.7935   26.9100 C   0  0  0  0  0  0  0  0  0  0  0  0
  -20.8505  -20.7322   21.5416 C   0  0  0  0  0  0  0  0  0  0  0  0
  -30.0508  -16.0747   19.2800 C   0  0  0  0  0  0  0  0  0  0  0  0
  -31.4795  -16.6066   21.1544 C   0  0  0  0  0  0  0  0  0  0  0  0
  -21.5370  -21.8715   21.1239 C   0  0  0  0  0  0  0  0  0  0  0  0
  -31.0343  -12.6252   18.6893 C   0  0  0  0  0  0  0  0  0  0  0  0
  -30.2260  -11.5050   18.4964 C   0  0  0  0  0  0  0  0  0  0  0  0
  -23.2909  -20.4786   20.2278 C   0  0  0  0  0  0  0  0  0  0  0  0
  -26.7267  -27.9918   19.1676 C   0  0  0  0  0  0  0  0  0  0  0  0
  -29.1277  -11.9343   20.6051 C   0  0  0  0  0  0  0  0  0  0  0  0
  -24.6232  -28.0414   20.2763 C   0  0  0  0  0  0  0  0  0  0  0  0
  -29.8229  -18.1990   20.4080 C   0  0  0  0  0  0  0  0  0  0  0  0
  -28.0414  -19.7822   21.3177 C   0  0  0  0  0  0  0  0  0  0  0  0
  -20.9036  -15.4423   27.4420 C   0  0  0  0  0  0  0  0  0  0  0  0
  -21.3852  -19.4559   21.3149 C   0  0  0  0  0  0  0  0  0  0  0  0
  -21.2730  -16.5670   26.6798 C   0  0  0  0  0  0  0  0  0  0  0  0
  -22.6080  -19.3247   20.6414 C   0  0  0  0  0  0  0  0  0  0  0  0
  -25.4286  -27.5073   19.2834 C   0  0  0  0  0  0  0  0  0  0  0  0
  -27.1734  -28.9817   20.0359 C   0  0  0  0  0  0  0  0  0  0  0  0
  -31.0792  -15.7212   20.1536 C   0  0  0  0  0  0  0  0  0  0  0  0
  -22.7588  -21.7449   20.4694 C   0  0  0  0  0  0  0  0  0  0  0  0
  -30.8895  -13.3999   19.8402 C   0  0  0  0  0  0  0  0  0  0  0  0
  -29.2726  -11.1595   19.4542 C   0  0  0  0  0  0  0  0  0  0  0  0
  -29.9361  -13.0545   20.7980 C   0  0  0  0  0  0  0  0  0  0  0  0
  -29.1748  -19.4791   20.5396 C   0  0  0  0  0  0  0  0  0  0  0  0
  -26.2898  -29.4499   20.9950 C   0  0  0  0  0  0  0  0  0  0  0  0
  -27.8257  -21.1215   21.1030 C   0  0  0  0  0  0  0  0  0  0  0  0
  -27.2541  -18.9292   22.1593 C   0  0  0  0  0  0  0  0  0  0  0  0
  -22.3325  -17.0581   23.1742 C   0  0  0  0  0  0  0  0  0  0  0  0
  -22.6738  -15.5122   20.3430 C   0  0  0  0  0  0  0  0  0  0  0  0
  -23.1493  -15.7160   16.9697 C   0  0  0  0  0  0  0  0  0  0  0  0
  -29.7094  -26.2482   20.7624 C   0  0  0  0  0  0  0  0  0  0  0  0
  -21.5914  -14.1105   27.2754 C   0  0  0  0  0  0  0  0  0  0  0  0
  -20.6194  -18.2359   21.7481 C   0  0  0  0  0  0  0  0  0  0  0  0
  -23.2153  -17.9763   20.3557 C   0  0  0  0  0  0  0  0  0  0  0  0
  -22.3646  -13.9839   25.9653 C   0  0  0  0  0  0  0  0  0  0  0  0
  -29.8647  -24.2871   17.7247 C   0  0  0  0  0  0  0  0  0  0  0  0
  -23.2072  -15.2316   25.7200 C   0  0  0  0  0  0  0  0  0  0  0  0
  -29.6030  -22.8777   18.2589 C   0  0  0  0  0  0  0  0  0  0  0  0
  -30.7145  -25.0983   18.6983 C   0  0  0  0  0  0  0  0  0  0  0  0
  -29.8931  -23.7811   20.6125 C   0  0  0  0  0  0  0  0  0  0  0  0
  -22.3232  -16.4782   25.5938 C   0  0  1  0  0  0  0  0  0  0  0  0
  -21.5043  -17.0054   21.9217 C   0  0  1  0  0  0  0  0  0  0  0  0
  -29.0199  -22.9178   19.6838 C   0  0  2  0  0  0  0  0  0  0  0  0
  -26.7145  -30.5134   21.9542 C   0  0  0  0  0  0  0  0  0  0  0  0
  -23.4242  -14.2817   14.9289 C   0  0  0  0  0  0  0  0  0  0  0  0
  -30.8547  -29.5499   21.0060 C   0  0  0  0  0  0  0  0  0  0  0  0
  -25.5397  -14.8791   21.1769 C   0  0  0  0  0  0  0  0  0  0  0  0
  -26.0350  -14.3108   18.7894 C   0  0  0  0  0  0  0  0  0  0  0  0
  -24.3383  -12.9930   20.0572 C   0  0  0  0  0  0  0  0  0  0  0  0
  -20.7261  -16.8499   15.7042 C   0  0  0  0  0  0  0  0  0  0  0  0
  -28.5636  -29.5040   19.9185 C   0  0  0  0  0  0  0  0  0  0  0  0
  -24.9157  -26.4403   18.3618 C   0  0  0  0  0  0  0  0  0  0  0  0
  -24.2639  -24.0393   18.1409 C   0  0  0  0  0  0  0  0  0  0  0  0
  -24.2520  -22.7276   18.9008 C   0  0  0  0  0  0  0  0  0  1  0  0
  -23.7900  -15.3543   19.3389 C   0  0  1  0  0  0  0  0  0  0  0  0
  -22.4421  -15.0381   15.8100 C   0  0  2  0  0  0  0  0  0  0  0  0
  -29.5924  -28.7267   20.7696 C   0  0  1  0  0  0  0  0  0  0  0  0
  -24.9155  -14.4099   19.8475 C   0  0  0  0  0  0  0  0  0  0  0  0
  -25.0217  -29.0037   21.1381 N   0  0  0  0  0  0  0  0  0  0  0  0
  -29.6461  -20.5405   19.8797 N   0  0  0  0  0  0  0  0  0  0  0  0
  -28.8046  -21.5235   20.2427 N   0  0  0  0  0  0  0  0  0  0  0  0
  -22.4314  -16.8137   20.8045 N   0  0  0  0  0  0  0  0  0  0  0  0
  -30.0948  -25.1124   20.0309 N   0  0  0  0  0  0  0  0  0  0  0  0
  -26.8960  -21.9828   21.5682 N   0  0  0  0  0  0  0  0  0  0  0  0
  -27.6147  -17.5791   22.2666 N   0  0  0  0  0  0  0  0  0  0  0  0
  -21.7052  -16.5294   24.2862 N   0  0  0  0  0  0  0  0  0  0  0  0
  -23.1622  -14.9201   18.0956 N   0  0  0  0  0  0  0  0  0  0  0  0
  -29.9410  -27.4706   20.1438 N   0  0  0  0  0  0  0  0  0  0  0  0
  -21.7389  -16.0485   14.9701 N   0  3  0  0  0  0  0  0  0  0  0  0
  -24.8248  -25.1042   19.0101 N   0  3  0  0  0  0  0  0  0  0  0  0
  -26.2504  -19.3482   22.7843 O   0  0  0  0  0  0  0  0  0  0  0  0
  -23.4580  -17.5413   23.1345 O   0  0  0  0  0  0  0  0  0  0  0  0
  -22.0357  -14.5184   20.6991 O   0  0  0  0  0  0  0  0  0  0  0  0
  -23.6442  -16.8377   16.8841 O   0  0  0  0  0  0  0  0  0  0  0  0
  -29.1919  -26.1779   21.8823 O   0  0  0  0  0  0  0  0  0  0  0  0
  -31.6922  -14.5123   20.0299 O   0  0  0  0  0  0  0  0  0  0  0  0
  -23.4313  -22.8553   20.0612 O   0  0  0  0  0  0  0  0  0  1  0  0
  -28.4954  -10.0846   19.2681 F   0  0  0  0  0  0  0  0  0  0  0  0
  -29.7915  -13.7956   21.9051 F   0  0  0  0  0  0  0  0  0  0  0  0
  1  2  1  0  0  0  0
  1  5  2  0  0  0  0
  2  6  2  0  0  0  0
  3  8  2  0  0  0  0
  3 17  1  0  0  0  0
  4  9  1  0  0  0  0
  4 17  2  0  0  0  0
  5 19  1  0  0  0  0
  6 21  1  0  0  0  0
  7 10  2  0  0  0  0
  7 20  1  0  0  0  0
  8 25  1  0  0  0  0
  9 25  2  0  0  0  0
 10 26  1  0  0  0  0
 11 12  2  0  0  0  0
 11 27  1  0  0  0  0
 12 28  1  0  0  0  0
 13 22  1  0  0  0  0
 13 26  2  0  0  0  0
 14 23  2  0  0  0  0
 14 24  1  0  0  0  0
 15 28  2  0  0  0  0
 15 29  1  0  0  0  0
 16 23  1  0  0  0  0
 16 65  2  0  0  0  0
 17 30  1  0  0  0  0
 18 30  1  0  0  0  0
 18 32  2  0  0  0  0
 18 33  1  0  0  0  0
 19 21  2  0  0  0  0
 19 38  1  0  0  0  0
 20 22  2  0  0  0  0
 20 39  1  0  0  0  0
 21 47  1  0  0  0  0
 22 40  1  0  0  0  0
 23 58  1  0  0  0  0
 24 31  2  0  0  0  0
 24 57  1  0  0  0  0
 25 82  1  0  0  0  0
 26 83  1  0  0  0  0
 27 29  2  0  0  0  0
 27 82  1  0  0  0  0
 28 84  1  0  0  0  0
 29 85  1  0  0  0  0
 30 66  2  0  0  0  0
 31 50  1  0  0  0  0
 31 65  1  0  0  0  0
 32 67  1  0  0  0  0
 32 70  1  0  0  0  0
 33 71  1  0  0  0  0
 33 77  2  0  0  0  0
 34 48  1  0  0  0  0
 34 72  1  0  0  0  0
 34 78  2  0  0  0  0
 35 61  1  0  0  0  0
 35 68  1  0  0  0  0
 35 79  2  0  0  0  0
 36 62  1  0  0  0  0
 36 73  1  0  0  0  0
 36 80  2  0  0  0  0
 37 69  1  0  0  0  0
 37 74  1  0  0  0  0
 37 81  2  0  0  0  0
 38 41  1  0  0  0  0
 39 48  1  0  0  0  0
 40 68  1  0  0  0  0
 41 43  1  0  0  0  0
 42 44  1  0  0  0  0
 42 45  1  0  0  0  0
 43 47  1  0  0  0  0
 44 49  1  0  0  0  0
 45 69  1  0  0  0  0
 46 49  1  0  0  0  0
 46 69  1  0  0  0  0
 47 72  1  0  0  0  0
 48 68  1  0  0  0  0
 49 67  1  0  0  0  0
 51 62  1  0  0  0  0
 52 63  1  0  0  0  0
 53 64  1  0  0  0  0
 54 64  1  0  0  0  0
 55 64  1  0  0  0  0
 56 75  1  0  0  0  0
 57 63  1  0  0  0  0
 58 76  1  0  0  0  0
 59 60  1  0  0  0  0
 59 76  1  0  0  0  0
 60 83  1  0  0  0  0
 61 64  1  0  0  0  0
 61 73  1  0  0  0  0
 62 75  1  0  0  0  0
 63 74  1  0  0  0  0
 66 67  1  0  0  0  0
M  CHG  2  75   1  76   1
M  ISO  4  37 100  60 101  74 100  83 101
M  END
> <Batch ID>
0105

> <Smiles>
CNC(C)C(=O)NC(C(=O)N1Cc2cc([101O:1][101CH2:1]CNCc3cnc(C)c(CC(C)[100NH:0][100C:0](=O)N4CCCC(n5nc(-c6ccc(Oc7ccc(F)cc7F)cc6)c(C(N)=O)c5N)C4)c3)ccc2CC1C(=O)NC1CCCc2ccccc21)C(C)(C)C

> <Shape>
0.219

> <Color>
0.074

> <Negative vol penalty>
0.000

$$$$

  -OEChem-04052319463D

 87 95  0     1  0  0  0  0  0999 V2000
  -32.1033  -27.5663   15.1147 C   0  0  0  0  0  0  0  0  0  0  0  0
  -31.2583  -26.7360   15.8441 C   0  0  0  0  0  0  0  0  0  0  0  0
  -23.4542   -9.3280   19.8126 C   0  0  0  0  0  0  0  0  0  0  0  0
  -23.1826   -9.9767   22.1240 C   0  0  0  0  0  0  0  0  0  0  0  0
  -32.5504  -28.7647   15.6695 C   0  0  0  0  0  0  0  0  0  0  0  0
  -30.8607  -27.1032   17.1292 C   0  0  0  0  0  0  0  0  0  0  0  0
  -25.9102  -26.3794   17.9124 C   0  0  0  0  0  0  0  0  0  0  0  0
  -23.5232   -7.9889   20.1965 C   0  0  0  0  0  0  0  0  0  0  0  0
  -23.2515   -8.6375   22.5079 C   0  0  0  0  0  0  0  0  0  0  0  0
  -25.4894  -25.0741   18.1630 C   0  0  0  0  0  0  0  0  0  0  0  0
  -22.9945   -5.3610   24.0626 C   0  0  0  0  0  0  0  0  0  0  0  0
  -22.0629   -4.9040   24.9946 C   0  0  0  0  0  0  0  0  0  0  0  0
  -25.4155  -25.5578   20.5251 C   0  0  0  0  0  0  0  0  0  0  0  0
  -30.0160  -20.2347   20.6923 C   0  0  0  0  0  0  0  0  0  0  0  0
  -20.2676   -5.4933   23.4891 C   0  0  0  0  0  0  0  0  0  0  0  0
  -28.8482  -22.1069   21.1410 C   0  0  0  0  0  0  0  0  0  0  0  0
  -23.2839  -10.3220   20.7764 C   0  0  0  0  0  0  0  0  0  0  0  0
  -22.0578  -12.4345   20.0404 C   0  0  0  0  0  0  0  0  0  0  0  0
  -32.1504  -29.1514   16.9583 C   0  0  0  0  0  0  0  0  0  0  0  0
  -26.0976  -27.2821   18.9690 C   0  0  0  0  0  0  0  0  0  0  0  0
  -31.3039  -28.3073   17.7022 C   0  0  0  0  0  0  0  0  0  0  0  0
  -25.8363  -26.8748   20.2850 C   0  0  0  0  0  0  0  0  0  0  0  0
  -29.9150  -21.6209   20.4178 C   0  0  0  0  0  0  0  0  0  0  0  0
  -23.4218   -7.6436   21.5442 C   0  0  0  0  0  0  0  0  0  0  0  0
  -25.2447  -24.6622   19.4697 C   0  0  0  0  0  0  0  0  0  0  0  0
  -22.5627   -5.8843   22.8438 C   0  0  0  0  0  0  0  0  0  0  0  0
  -20.6994   -4.9701   24.7079 C   0  0  0  0  0  0  0  0  0  0  0  0
  -21.1992   -5.9504   22.5570 C   0  0  0  0  0  0  0  0  0  0  0  0
  -23.2131  -11.7056   20.3805 C   0  0  0  0  0  0  0  0  0  0  0  0
  -29.0076  -19.9157   21.5748 C   0  0  0  0  0  0  0  0  0  0  0  0
  -22.5209  -13.6928   19.7425 C   0  0  0  0  0  0  0  0  0  0  0  0
  -20.6884  -12.0119   19.9976 C   0  0  0  0  0  0  0  0  0  0  0  0
  -28.5797  -28.8940   20.1286 C   0  0  0  0  0  0  0  0  0  0  0  0
  -26.3190  -30.2494   22.0192 C   0  0  0  0  0  0  0  0  0  0  0  0
  -23.2455  -30.0139   23.4837 C   0  0  0  0  0  0  0  0  0  0  0  0
  -27.3242  -16.6364   21.5086 C   0  0  0  0  0  0  0  0  0  0  0  0
  -32.6975  -30.4335   17.5341 C   0  0  0  0  0  0  0  0  0  0  0  0
  -26.5262  -28.6945   18.6796 C   0  0  0  0  0  0  0  0  0  0  0  0
  -26.0028  -27.8113   21.4528 C   0  0  0  0  0  0  0  0  0  0  0  0
  -31.9294  -30.9287   18.7569 C   0  0  0  0  0  0  0  0  0  0  0  0
  -26.3923  -15.9614   18.0774 C   0  0  0  0  0  0  0  0  0  0  0  0
  -31.6839  -29.7826   19.7332 C   0  0  0  0  0  0  0  0  0  0  0  0
  -25.3530  -14.8533   18.2568 C   0  0  0  0  0  0  0  0  0  0  0  0
  -27.5309  -15.8196   19.0832 C   0  0  0  0  0  0  0  0  0  0  0  0
  -26.0549  -14.6719   20.6887 C   0  0  0  0  0  0  0  0  0  0  0  0
  -30.8307  -28.6829   19.0897 C   0  0  1  0  0  0  0  0  0  0  0  0
  -27.1796  -29.3778   19.8769 C   0  0  1  0  0  0  0  0  0  0  0  0
  -24.8661  -14.7727   19.7158 C   0  0  2  0  0  0  0  0  0  0  0  0
  -29.7919  -18.0192   23.0410 C   0  0  0  0  0  0  0  0  0  0  0  0
  -21.6866  -31.2622   25.0032 C   0  0  0  0  0  0  0  0  0  0  0  0
  -24.0037  -20.6772   20.4268 C   0  0  0  0  0  0  0  0  0  0  0  0
  -30.7501  -21.8616   18.0534 C   0  0  0  0  0  0  0  0  0  0  0  0
  -32.2861  -22.3545   19.9858 C   0  0  0  0  0  0  0  0  0  0  0  0
  -30.4568  -23.9323   19.3980 C   0  0  0  0  0  0  0  0  0  0  0  0
  -28.0357  -29.4687   24.4178 C   0  0  0  0  0  0  0  0  0  0  0  0
  -26.0444  -29.8633   25.8831 C   0  0  0  0  0  0  0  0  0  0  0  0
  -27.0128  -31.7461   24.5641 C   0  0  0  0  0  0  0  0  0  0  0  0
  -21.1509  -30.1686   21.3986 C   0  0  0  0  0  0  0  0  0  0  0  0
  -25.8117  -20.6170   22.1629 C   0  0  0  0  0  0  0  0  0  0  0  0
  -27.1124  -21.1740   22.7581 C   0  0  0  0  0  0  0  0  0  0  0  0
  -25.2126  -22.8159   20.9684 C   0  0  0  0  0  0  0  0  0  1  0  0
  -28.6579  -18.6164   22.1852 C   0  0  2  0  0  0  0  0  0  0  0  0
  -25.7222  -29.9303   23.3686 C   0  0  1  0  0  0  0  0  0  0  0  0
  -22.0889  -30.9941   23.5613 C   0  0  2  0  0  0  0  0  0  0  0  0
  -25.3428  -21.2911   20.8546 C   0  0  2  0  0  0  0  0  0  0  0  0
  -30.7906  -22.4014   19.5230 C   0  0  0  0  0  0  0  0  0  0  0  0
  -26.7024  -30.2337   24.5368 C   0  0  0  0  0  0  0  0  0  0  0  0
  -24.3265  -12.4397   20.3058 N   0  0  0  0  0  0  0  0  0  0  0  0
  -28.3040  -21.0614   21.8403 N   0  0  0  0  0  0  0  0  0  0  0  0
  -23.8729  -13.6429   19.9153 N   0  0  0  0  0  0  0  0  0  0  0  0
  -26.4298  -29.1801   21.1191 N   0  0  0  0  0  0  0  0  0  0  0  0
  -27.0012  -15.7674   20.4532 N   0  0  0  0  0  0  0  0  0  0  0  0
  -21.8994  -14.8259   19.3523 N   0  0  0  0  0  0  0  0  0  0  0  0
  -20.3878  -10.6849   20.3339 N   0  0  0  0  0  0  0  0  0  0  0  0
  -29.4380  -29.0755   19.0610 N   0  0  0  0  0  0  0  0  0  0  0  0
  -24.4619  -30.6617   23.4409 N   0  0  0  0  0  0  0  0  0  0  0  0
  -28.2330  -17.6424   21.2045 N   0  0  0  0  0  0  0  0  0  0  0  0
  -20.9041  -30.4558   22.8351 N   0  3  0  0  0  0  0  0  0  0  0  0
  -19.7607  -12.7836   19.6549 O   0  0  0  0  0  0  0  0  0  0  0  0
  -28.8608  -28.3946   21.2117 O   0  0  0  0  0  0  0  0  0  0  0  0
  -26.6672  -31.4063   21.7702 O   0  0  0  0  0  0  0  0  0  0  0  0
  -23.0859  -28.7954   23.4668 O   0  0  0  0  0  0  0  0  0  0  0  0
  -26.8344  -16.5272   22.6379 O   0  0  0  0  0  0  0  0  0  0  0  0
  -23.4889   -6.3369   21.9191 O   0  0  0  0  0  0  0  0  0  0  0  0
  -24.8345  -23.3885   19.7172 O   0  0  0  0  0  0  0  0  0  1  0  0
  -19.8050   -4.5298   25.6025 F   0  0  0  0  0  0  0  0  0  0  0  0
  -20.7784   -6.4509   21.3874 F   0  0  0  0  0  0  0  0  0  0  0  0
  1  2  1  0  0  0  0
  1  5  2  0  0  0  0
  2  6  2  0  0  0  0
  3  8  2  0  0  0  0
  3 17  1  0  0  0  0
  4  9  1  0  0  0  0
  4 17  2  0  0  0  0
  5 19  1  0  0  0  0
  6 21  1  0  0  0  0
  7 10  2  0  0  0  0
  7 20  1  0  0  0  0
  8 24  1  0  0  0  0
  9 24  2  0  0  0  0
 10 25  1  0  0  0  0
 11 12  2  0  0  0  0
 11 26  1  0  0  0  0
 12 27  1  0  0  0  0
 13 22  1  0  0  0  0
 13 25  2  0  0  0  0
 14 23  1  0  0  0  0
 14 30  2  0  0  0  0
 15 27  2  0  0  0  0
 15 28  1  0  0  0  0
 16 23  2  0  0  0  0
 16 69  1  0  0  0  0
 17 29  1  0  0  0  0
 18 29  1  0  0  0  0
 18 31  2  0  0  0  0
 18 32  1  0  0  0  0
 19 21  2  0  0  0  0
 19 37  1  0  0  0  0
 20 22  2  0  0  0  0
 20 38  1  0  0  0  0
 21 46  1  0  0  0  0
 22 39  1  0  0  0  0
 23 66  1  0  0  0  0
 24 84  1  0  0  0  0
 25 85  1  0  0  0  0
 26 28  2  0  0  0  0
 26 84  1  0  0  0  0
 27 86  1  0  0  0  0
 28 87  1  0  0  0  0
 29 68  2  0  0  0  0
 30 62  1  0  0  0  0
 30 69  1  0  0  0  0
 31 70  1  0  0  0  0
 31 73  1  0  0  0  0
 32 74  1  0  0  0  0
 32 79  2  0  0  0  0
 33 47  1  0  0  0  0
 33 75  1  0  0  0  0
 33 80  2  0  0  0  0
 34 63  1  0  0  0  0
 34 71  1  0  0  0  0
 34 81  2  0  0  0  0
 35 64  1  0  0  0  0
 35 76  1  0  0  0  0
 35 82  2  0  0  0  0
 36 72  1  0  0  0  0
 36 77  1  0  0  0  0
 36 83  2  0  0  0  0
 37 40  1  0  0  0  0
 38 47  1  0  0  0  0
 39 71  1  0  0  0  0
 40 42  1  0  0  0  0
 41 43  1  0  0  0  0
 41 44  1  0  0  0  0
 42 46  1  0  0  0  0
 43 48  1  0  0  0  0
 44 72  1  0  0  0  0
 45 48  1  0  0  0  0
 45 72  1  0  0  0  0
 46 75  1  0  0  0  0
 47 71  1  0  0  0  0
 48 70  1  0  0  0  0
 49 62  1  0  0  0  0
 50 64  1  0  0  0  0
 51 65  1  0  0  0  0
 52 66  1  0  0  0  0
 53 66  1  0  0  0  0
 54 66  1  0  0  0  0
 55 67  1  0  0  0  0
 56 67  1  0  0  0  0
 57 67  1  0  0  0  0
 58 78  1  0  0  0  0
 59 60  1  0  0  0  0
 59 65  1  0  0  0  0
 60 69  1  0  0  0  0
 61 65  1  0  0  0  0
 61 85  1  0  0  0  0
 62 77  1  0  0  0  0
 63 67  1  0  0  0  0
 63 76  1  0  0  0  0
 64 78  1  0  0  0  0
 68 70  1  0  0  0  0
M  CHG  1  78   1
M  ISO  4  36 100  61 101  77 100  85 101
M  END
> <Batch ID>
0105

> <Smiles>
CNC(C)C(=O)NC(C(=O)N1Cc2cc([101O:1][101CH2:1]C(C)CCn3cc(C(C)(C)C)cc3C(C)[100NH:0][100C:0](=O)N3CCCC(n4nc(-c5ccc(Oc6ccc(F)cc6F)cc5)c(C(N)=O)c4N)C3)ccc2CC1C(=O)NC1CCCc2ccccc21)C(C)(C)C

> <Shape>
0.250

> <Color>
0.081

> <Negative vol penalty>
0.000

$$$$

  -OEChem-04052319463D

 87 95  0     1  0  0  0  0  0999 V2000
  -25.3137  -37.8854   22.9781 C   0  0  0  0  0  0  0  0  0  0  0  0
  -26.1679  -36.8890   22.5165 C   0  0  0  0  0  0  0  0  0  0  0  0
  -26.6188  -11.9523   21.7464 C   0  0  0  0  0  0  0  0  0  0  0  0
  -25.6454  -13.6796   20.3659 C   0  0  0  0  0  0  0  0  0  0  0  0
  -24.2284  -37.5519   23.7873 C   0  0  0  0  0  0  0  0  0  0  0  0
  -25.9378  -35.5585   22.8649 C   0  0  0  0  0  0  0  0  0  0  0  0
  -26.9864  -30.6135   19.4076 C   0  0  0  0  0  0  0  0  0  0  0  0
  -25.3891  -11.2955   21.7918 C   0  0  0  0  0  0  0  0  0  0  0  0
  -24.4157  -13.0228   20.4112 C   0  0  0  0  0  0  0  0  0  0  0  0
  -28.0403  -29.7015   19.3702 C   0  0  0  0  0  0  0  0  0  0  0  0
  -22.5961   -8.9758   21.9722 C   0  0  0  0  0  0  0  0  0  0  0  0
  -22.5910   -7.5946   21.7778 C   0  0  0  0  0  0  0  0  0  0  0  0
  -26.7943  -28.2122   20.8016 C   0  0  0  0  0  0  0  0  0  0  0  0
  -23.5588   -7.8997   19.5852 C   0  0  0  0  0  0  0  0  0  0  0  0
  -26.7470  -13.1444   21.0335 C   0  0  0  0  0  0  0  0  0  0  0  0
  -29.0424  -13.6444   20.0391 C   0  0  0  0  0  0  0  0  0  0  0  0
  -23.9794  -36.2155   24.1379 C   0  0  0  0  0  0  0  0  0  0  0  0
  -25.8311  -30.3360   20.1524 C   0  0  0  0  0  0  0  0  0  0  0  0
  -24.8490  -35.2070   23.6807 C   0  0  0  0  0  0  0  0  0  0  0  0
  -25.7262  -29.1212   20.8448 C   0  0  0  0  0  0  0  0  0  0  0  0
  -24.2876  -11.8308   21.1242 C   0  0  0  0  0  0  0  0  0  0  0  0
  -27.9455  -28.5019   20.0696 C   0  0  0  0  0  0  0  0  0  0  0  0
  -23.0824   -9.8190   20.9732 C   0  0  0  0  0  0  0  0  0  0  0  0
  -23.0724   -7.0566   20.5843 C   0  0  0  0  0  0  0  0  0  0  0  0
  -23.5638   -9.2810   19.7797 C   0  0  0  0  0  0  0  0  0  0  0  0
  -28.0168  -13.8236   20.9868 C   0  0  0  0  0  0  0  0  0  0  0  0
  -30.0289  -14.5156   20.4320 C   0  0  0  0  0  0  0  0  0  0  0  0
  -29.0981  -12.7689   18.9051 C   0  0  0  0  0  0  0  0  0  0  0  0
  -24.3825  -31.6940   22.6346 C   0  0  0  0  0  0  0  0  0  0  0  0
  -22.1054  -29.4649   22.0279 C   0  0  0  0  0  0  0  0  0  0  0  0
  -21.3035  -26.4362   20.6748 C   0  0  0  0  0  0  0  0  0  0  0  0
  -29.6089  -19.5657   23.8018 C   0  0  0  0  0  0  0  0  0  0  0  0
  -22.8210  -35.9091   25.0538 C   0  0  0  0  0  0  0  0  0  0  0  0
  -24.6922  -31.3184   20.1609 C   0  0  0  0  0  0  0  0  0  0  0  0
  -24.4990  -28.7667   21.6428 C   0  0  0  0  0  0  0  0  0  0  0  0
  -22.4307  -34.4334   25.0693 C   0  0  0  0  0  0  0  0  0  0  0  0
  -31.8071  -16.6685   24.3193 C   0  0  0  0  0  0  0  0  0  0  0  0
  -23.6702  -33.5548   25.2060 C   0  0  0  0  0  0  0  0  0  0  0  0
  -31.1390  -15.5815   23.4764 C   0  0  0  0  0  0  0  0  0  0  0  0
  -30.4099  -21.1375   20.6274 C   0  0  0  0  0  0  0  0  0  0  0  0
  -30.7940  -17.6742   24.8610 C   0  0  0  0  0  0  0  0  0  0  0  0
  -30.1168  -19.8127   21.3212 C   0  0  0  0  0  0  0  0  0  0  0  0
  -29.2586  -17.1916   22.9915 C   0  0  0  0  0  0  0  0  0  0  0  0
  -24.6183  -33.7495   24.0166 C   0  0  1  0  0  0  0  0  0  0  0  0
  -23.7744  -31.1589   21.3690 C   0  0  1  0  0  0  0  0  0  0  0  0
  -30.2545  -16.1981   22.3770 C   0  0  2  0  0  0  0  0  0  0  0  0
  -29.1897  -21.9586   21.0124 C   0  0  1  0  0  0  0  0  0  0  0  0
  -28.9467  -21.5795   22.4747 C   0  0  1  0  0  0  0  0  0  0  0  0
  -19.3708  -24.8653   20.3680 C   0  0  0  0  0  0  0  0  0  0  0  0
  -26.8560  -22.8936   22.0967 C   0  0  0  0  0  0  0  0  0  0  0  0
  -26.7353  -20.4170   22.4675 C   0  0  0  0  0  0  0  0  0  0  0  0
  -22.3305  -28.6207   24.9514 C   0  0  0  0  0  0  0  0  0  0  0  0
  -21.1322  -26.5035   24.3599 C   0  0  0  0  0  0  0  0  0  0  0  0
  -19.9929  -28.7032   24.0665 C   0  0  0  0  0  0  0  0  0  0  0  0
  -24.8772  -23.7503   28.3437 C   0  0  0  0  0  0  0  0  0  0  0  0
  -21.4890  -26.5994   17.7256 C   0  0  0  0  0  0  0  0  0  0  0  0
  -26.1104  -22.6167   24.9157 C   0  0  0  0  0  0  0  0  0  0  0  0
  -27.3894  -21.9442   24.4022 C   0  0  0  0  0  0  0  0  0  0  0  0
  -29.6726  -25.3981   19.4117 C   0  0  0  0  0  0  0  0  0  0  0  0
  -26.1867  -22.8416   26.4207 C   0  0  0  0  0  0  0  0  0  0  0  0
  -29.4044  -23.9013   19.4576 C   0  0  0  0  0  0  0  0  0  0  0  0
  -28.6400  -26.2292   20.1632 C   0  0  0  0  0  0  0  0  0  1  0  0
  -21.8493  -28.0476   22.4803 C   0  0  1  0  0  0  0  0  0  0  0  0
  -20.1682  -26.0096   19.7618 C   0  0  2  0  0  0  0  0  0  0  0  0
  -27.4791  -21.7093   22.8650 C   0  0  0  0  0  0  0  0  0  0  0  0
  -21.3503  -27.9760   23.9511 C   0  0  0  0  0  0  0  0  0  0  0  0
  -28.3236  -14.7367   21.9121 N   0  0  0  0  0  0  0  0  0  0  0  0
  -29.5530  -15.1390   21.5478 N   0  0  0  0  0  0  0  0  0  0  0  0
  -23.4149  -29.7627   21.6252 N   0  0  0  0  0  0  0  0  0  0  0  0
  -29.9570  -18.2085   23.7867 N   0  0  0  0  0  0  0  0  0  0  0  0
  -29.4396  -20.1960   22.5654 N   0  0  0  0  0  0  0  0  0  0  0  0
  -31.2484  -14.8013   19.9284 N   0  0  0  0  0  0  0  0  0  0  0  0
  -27.9978  -11.9405   18.6458 N   0  0  0  0  0  0  0  0  0  0  0  0
  -24.1290  -33.0339   22.8577 N   0  0  0  0  0  0  0  0  0  0  0  0
  -20.9284  -27.4688   21.5081 N   0  0  0  0  0  0  0  0  0  0  0  0
  -29.4521  -23.4018   20.8627 N   0  3  0  0  0  0  0  0  0  0  0  0
  -24.9171  -23.4505   26.8862 N   0  3  0  0  0  0  0  0  0  0  0  0
  -20.7027  -25.5638   18.4441 N   0  3  0  0  0  0  0  0  0  0  0  0
  -30.1009  -12.7107   18.1538 O   0  0  0  0  0  0  0  0  0  0  0  0
  -25.0323  -30.9462   23.3559 O   0  0  0  0  0  0  0  0  0  0  0  0
  -21.1760  -30.2760   22.0250 O   0  0  0  0  0  0  0  0  0  0  0  0
  -22.4111  -25.9039   20.6537 O   0  0  0  0  0  0  0  0  0  0  0  0
  -29.4883  -20.1896   24.8637 O   0  0  0  0  0  0  0  0  0  0  0  0
  -23.0875  -11.1900   21.1680 O   0  0  0  0  0  0  0  0  0  0  0  0
  -28.9802  -27.6040   20.0350 O   0  0  0  0  0  0  0  0  0  1  0  0
  -23.0689   -5.7301   20.3983 F   0  0  0  0  0  0  0  0  0  0  0  0
  -24.0335  -10.0859   18.8167 F   0  0  0  0  0  0  0  0  0  0  0  0
  1  2  1  0  0  0  0
  1  5  2  0  0  0  0
  2  6  2  0  0  0  0
  3  8  2  0  0  0  0
  3 15  1  0  0  0  0
  4  9  1  0  0  0  0
  4 15  2  0  0  0  0
  5 17  1  0  0  0  0
  6 19  1  0  0  0  0
  7 10  2  0  0  0  0
  7 18  1  0  0  0  0
  8 21  1  0  0  0  0
  9 21  2  0  0  0  0
 10 22  1  0  0  0  0
 11 12  2  0  0  0  0
 11 23  1  0  0  0  0
 12 24  1  0  0  0  0
 13 20  1  0  0  0  0
 13 22  2  0  0  0  0
 14 24  2  0  0  0  0
 14 25  1  0  0  0  0
 15 26  1  0  0  0  0
 16 26  1  0  0  0  0
 16 27  2  0  0  0  0
 16 28  1  0  0  0  0
 17 19  2  0  0  0  0
 17 33  1  0  0  0  0
 18 20  2  0  0  0  0
 18 34  1  0  0  0  0
 19 44  1  0  0  0  0
 20 35  1  0  0  0  0
 21 84  1  0  0  0  0
 22 85  1  0  0  0  0
 23 25  2  0  0  0  0
 23 84  1  0  0  0  0
 24 86  1  0  0  0  0
 25 87  1  0  0  0  0
 26 67  2  0  0  0  0
 27 68  1  0  0  0  0
 27 72  1  0  0  0  0
 28 73  1  0  0  0  0
 28 79  2  0  0  0  0
 29 45  1  0  0  0  0
 29 74  1  0  0  0  0
 29 80  2  0  0  0  0
 30 63  1  0  0  0  0
 30 69  1  0  0  0  0
 30 81  2  0  0  0  0
 31 64  1  0  0  0  0
 31 75  1  0  0  0  0
 31 82  2  0  0  0  0
 32 70  1  0  0  0  0
 32 71  1  0  0  0  0
 32 83  2  0  0  0  0
 33 36  1  0  0  0  0
 34 45  1  0  0  0  0
 35 69  1  0  0  0  0
 36 38  1  0  0  0  0
 37 39  1  0  0  0  0
 37 41  1  0  0  0  0
 38 44  1  0  0  0  0
 39 46  1  0  0  0  0
 40 42  1  0  0  0  0
 40 47  1  0  0  0  0
 41 70  1  0  0  0  0
 42 71  1  0  0  0  0
 43 46  1  0  0  0  0
 43 70  1  0  0  0  0
 44 74  1  0  0  0  0
 45 69  1  0  0  0  0
 46 68  1  0  0  0  0
 47 48  1  0  0  0  0
 47 76  1  0  0  0  0
 48 65  1  0  0  0  0
 48 71  1  0  0  0  0
 49 64  1  0  0  0  0
 50 65  1  0  0  0  0
 51 65  1  0  0  0  0
 52 66  1  0  0  0  0
 53 66  1  0  0  0  0
 54 66  1  0  0  0  0
 55 77  1  0  0  0  0
 56 78  1  0  0  0  0
 57 58  1  0  0  0  0
 57 60  1  0  0  0  0
 58 65  1  0  0  0  0
 59 61  1  0  0  0  0
 59 62  1  0  0  0  0
 60 77  1  0  0  0  0
 61 76  1  0  0  0  0
 62 85  1  0  0  0  0
 63 66  1  0  0  0  0
 63 75  1  0  0  0  0
 64 78  1  0  0  0  0
 67 68  1  0  0  0  0
M  CHG  3  76   1  77   1  78   1
M  ISO  4  32 100  62 101  71 100  85 101
M  END
> <Batch ID>
0105

> <Smiles>
CNCCCC(C)(C)C1C(NCC[101CH2:1][101O:1]c2ccc3c(c2)CN(C(=O)C(NC(=O)C(C)NC)C(C)(C)C)C(C(=O)NC2CCCc4ccccc42)C3)CC[100N:0]1[100C:0](=O)N1CCCC(n2nc(-c3ccc(Oc4ccc(F)cc4F)cc3)c(C(N)=O)c2N)C1

> <Shape>
0.328

> <Color>
0.063

> <Negative vol penalty>
0.000

$$$$

  -OEChem-04052319463D

 85 93  0     1  0  0  0  0  0999 V2000
  -16.8587  -28.9109   24.5538 C   0  0  0  0  0  0  0  0  0  0  0  0
  -17.6643  -27.8109   24.2769 C   0  0  0  0  0  0  0  0  0  0  0  0
  -27.3418  -16.6252   18.1086 C   0  0  0  0  0  0  0  0  0  0  0  0
  -27.7492  -17.2288   20.4123 C   0  0  0  0  0  0  0  0  0  0  0  0
  -17.0567  -30.1086   23.8682 C   0  0  0  0  0  0  0  0  0  0  0  0
  -18.6675  -27.9078   23.3133 C   0  0  0  0  0  0  0  0  0  0  0  0
  -23.0356  -25.8525   24.8432 C   0  0  0  0  0  0  0  0  0  0  0  0
  -28.0351  -17.7603   17.6885 C   0  0  0  0  0  0  0  0  0  0  0  0
  -28.4426  -18.3639   19.9922 C   0  0  0  0  0  0  0  0  0  0  0  0
  -23.1358  -24.4627   24.7974 C   0  0  0  0  0  0  0  0  0  0  0  0
  -27.6977  -21.4558   18.8448 C   0  0  0  0  0  0  0  0  0  0  0  0
  -27.4225  -22.6600   19.4927 C   0  0  0  0  0  0  0  0  0  0  0  0
  -24.3645  -24.6255   22.7278 C   0  0  0  0  0  0  0  0  0  0  0  0
  -20.6970  -19.4664   24.9667 C   0  0  0  0  0  0  0  0  0  0  0  0
  -29.7330  -22.8178   20.1809 C   0  0  0  0  0  0  0  0  0  0  0  0
  -22.5143  -18.1414   24.8583 C   0  0  0  0  0  0  0  0  0  0  0  0
  -27.1988  -16.3595   19.4705 C   0  0  0  0  0  0  0  0  0  0  0  0
  -27.0143  -13.9067   20.1467 C   0  0  0  0  0  0  0  0  0  0  0  0
  -18.0692  -30.2232   22.9026 C   0  0  0  0  0  0  0  0  0  0  0  0
  -23.5905  -26.6401   23.8243 C   0  0  0  0  0  0  0  0  0  0  0  0
  -18.8783  -29.1079   22.6132 C   0  0  0  0  0  0  0  0  0  0  0  0
  -24.2721  -26.0253   22.7644 C   0  0  0  0  0  0  0  0  0  0  0  0
  -22.0107  -19.3561   24.4479 C   0  0  0  0  0  0  0  0  0  0  0  0
  -28.5856  -18.6297   18.6303 C   0  0  0  0  0  0  0  0  0  0  0  0
  -23.7978  -23.8488   23.7381 C   0  0  0  0  0  0  0  0  0  0  0  0
  -28.9906  -20.9325   18.8651 C   0  0  0  0  0  0  0  0  0  0  0  0
  -28.4401  -23.3410   20.1606 C   0  0  0  0  0  0  0  0  0  0  0  0
  -30.0082  -21.6136   19.5330 C   0  0  0  0  0  0  0  0  0  0  0  0
  -26.4823  -15.1874   19.9051 C   0  0  0  0  0  0  0  0  0  0  0  0
  -20.4378  -18.3159   25.6784 C   0  0  0  0  0  0  0  0  0  0  0  0
  -25.9336  -13.1537   20.5361 C   0  0  0  0  0  0  0  0  0  0  0  0
  -28.3648  -13.4394   20.0299 C   0  0  0  0  0  0  0  0  0  0  0  0
  -22.4293  -28.6833   21.6841 C   0  0  0  0  0  0  0  0  0  0  0  0
  -25.5678  -29.1788   21.0309 C   0  0  0  0  0  0  0  0  0  0  0  0
  -28.9654  -28.0673   20.5426 C   0  0  0  0  0  0  0  0  0  0  0  0
  -20.6777  -14.5542   23.0391 C   0  0  0  0  0  0  0  0  0  0  0  0
  -18.2143  -31.5243   22.1538 C   0  0  0  0  0  0  0  0  0  0  0  0
  -23.4970  -28.1393   23.9022 C   0  0  0  0  0  0  0  0  0  0  0  0
  -24.9029  -26.8267   21.6560 C   0  0  0  0  0  0  0  0  0  0  0  0
  -19.5433  -31.6565   21.4144 C   0  0  0  0  0  0  0  0  0  0  0  0
  -21.1942  -12.8315   19.9663 C   0  0  0  0  0  0  0  0  0  0  0  0
  -19.8548  -30.3777   20.6434 C   0  0  0  0  0  0  0  0  0  0  0  0
  -22.6560  -13.1243   19.6239 C   0  0  0  0  0  0  0  0  0  0  0  0
  -20.5168  -14.0323   20.6228 C   0  0  0  0  0  0  0  0  0  0  0  0
  -22.6803  -14.8632   21.4609 C   0  0  0  0  0  0  0  0  0  0  0  0
  -19.9932  -29.1812   21.5925 C   0  0  1  0  0  0  0  0  0  0  0  0
  -23.6530  -28.8190   22.5453 C   0  0  1  0  0  0  0  0  0  0  0  0
  -23.4214  -13.6628   20.8476 C   0  0  2  0  0  0  0  0  0  0  0  0
  -17.9814  -17.7757   25.5118 C   0  0  0  0  0  0  0  0  0  0  0  0
  -18.8952  -18.8592   27.5965 C   0  0  0  0  0  0  0  0  0  0  0  0
  -31.0557  -29.3709   20.0647 C   0  0  0  0  0  0  0  0  0  0  0  0
  -24.9248  -28.5827   18.1083 C   0  0  0  0  0  0  0  0  0  0  0  0
  -27.3765  -28.2764   17.7039 C   0  0  0  0  0  0  0  0  0  0  0  0
  -26.5059  -30.4881   18.4610 C   0  0  0  0  0  0  0  0  0  0  0  0
  -21.9786  -19.3494   21.4525 C   0  0  0  0  0  0  0  0  0  0  0  0
  -30.3632  -26.9046   22.8778 C   0  0  0  0  0  0  0  0  0  0  0  0
  -21.6994  -16.2155   26.2171 C   0  0  0  0  0  0  0  0  0  0  0  0
  -20.9981  -15.1064   25.4373 C   0  0  0  0  0  0  0  0  0  0  0  0
  -22.8398  -21.7429   24.2888 C   0  0  0  0  0  0  0  0  0  1  0  0
  -22.7282  -20.3808   23.6003 C   0  0  2  0  0  0  0  0  0  0  0  0
  -19.2249  -17.9127   26.4197 C   0  0  0  0  0  0  0  0  0  0  0  0
  -26.5755  -28.5586   20.0934 C   0  0  1  0  0  0  0  0  0  0  0  0
  -30.2183  -28.6873   21.1343 C   0  0  2  0  0  0  0  0  0  0  0  0
  -26.3322  -28.9610   18.6114 C   0  0  0  0  0  0  0  0  0  0  0  0
  -25.1658  -15.2483   20.1225 N   0  0  0  0  0  0  0  0  0  0  0  0
  -21.5496  -17.5179   25.6059 N   0  0  0  0  0  0  0  0  0  0  0  0
  -24.8616  -13.9963   20.5048 N   0  0  0  0  0  0  0  0  0  0  0  0
  -24.7791  -28.2890   21.7738 N   0  0  0  0  0  0  0  0  0  0  0  0
  -21.2919  -14.4930   21.7773 N   0  0  0  0  0  0  0  0  0  0  0  0
  -25.8052  -11.8597   20.8986 N   0  0  0  0  0  0  0  0  0  0  0  0
  -29.3517  -14.3449   19.6172 N   0  0  0  0  0  0  0  0  0  0  0  0
  -21.2819  -29.2046   22.2507 N   0  0  0  0  0  0  0  0  0  0  0  0
  -27.8907  -28.9289   20.6049 N   0  0  0  0  0  0  0  0  0  0  0  0
  -21.4850  -14.9956   24.0803 N   0  0  0  0  0  0  0  0  0  0  0  0
  -22.0660  -20.5819   22.2714 N   0  3  0  0  0  0  0  0  0  0  0  0
  -31.0544  -27.6415   21.7887 N   0  3  0  0  0  0  0  0  0  0  0  0
  -28.6839  -12.2499   20.2680 O   0  0  0  0  0  0  0  0  0  0  0  0
  -22.5197  -28.1467   20.5861 O   0  0  0  0  0  0  0  0  0  0  0  0
  -25.4884  -30.4074   21.1066 O   0  0  0  0  0  0  0  0  0  0  0  0
  -28.9432  -26.9334   20.0688 O   0  0  0  0  0  0  0  0  0  0  0  0
  -19.4988  -14.2338   23.2249 O   0  0  0  0  0  0  0  0  0  0  0  0
  -29.2624  -19.7372   18.2208 O   0  0  0  0  0  0  0  0  0  0  0  0
  -23.8966  -22.4924   23.6906 O   0  0  0  0  0  0  0  0  0  1  0  0
  -28.1760  -24.4982   20.7814 F   0  0  0  0  0  0  0  0  0  0  0  0
  -31.2525  -21.1164   19.5549 F   0  0  0  0  0  0  0  0  0  0  0  0
  1  2  1  0  0  0  0
  1  5  2  0  0  0  0
  2  6  2  0  0  0  0
  3  8  2  0  0  0  0
  3 17  1  0  0  0  0
  4  9  1  0  0  0  0
  4 17  2  0  0  0  0
  5 19  1  0  0  0  0
  6 21  1  0  0  0  0
  7 10  2  0  0  0  0
  7 20  1  0  0  0  0
  8 24  1  0  0  0  0
  9 24  2  0  0  0  0
 10 25  1  0  0  0  0
 11 12  2  0  0  0  0
 11 26  1  0  0  0  0
 12 27  1  0  0  0  0
 13 22  1  0  0  0  0
 13 25  2  0  0  0  0
 14 23  1  0  0  0  0
 14 30  2  0  0  0  0
 15 27  2  0  0  0  0
 15 28  1  0  0  0  0
 16 23  2  0  0  0  0
 16 66  1  0  0  0  0
 17 29  1  0  0  0  0
 18 29  1  0  0  0  0
 18 31  2  0  0  0  0
 18 32  1  0  0  0  0
 19 21  2  0  0  0  0
 19 37  1  0  0  0  0
 20 22  2  0  0  0  0
 20 38  1  0  0  0  0
 21 46  1  0  0  0  0
 22 39  1  0  0  0  0
 23 60  1  0  0  0  0
 24 82  1  0  0  0  0
 25 83  1  0  0  0  0
 26 28  2  0  0  0  0
 26 82  1  0  0  0  0
 27 84  1  0  0  0  0
 28 85  1  0  0  0  0
 29 65  2  0  0  0  0
 30 61  1  0  0  0  0
 30 66  1  0  0  0  0
 31 67  1  0  0  0  0
 31 70  1  0  0  0  0
 32 71  1  0  0  0  0
 32 77  2  0  0  0  0
 33 47  1  0  0  0  0
 33 72  1  0  0  0  0
 33 78  2  0  0  0  0
 34 62  1  0  0  0  0
 34 68  1  0  0  0  0
 34 79  2  0  0  0  0
 35 63  1  0  0  0  0
 35 73  1  0  0  0  0
 35 80  2  0  0  0  0
 36 69  1  0  0  0  0
 36 74  1  0  0  0  0
 36 81  2  0  0  0  0
 37 40  1  0  0  0  0
 38 47  1  0  0  0  0
 39 68  1  0  0  0  0
 40 42  1  0  0  0  0
 41 43  1  0  0  0  0
 41 44  1  0  0  0  0
 42 46  1  0  0  0  0
 43 48  1  0  0  0  0
 44 69  1  0  0  0  0
 45 48  1  0  0  0  0
 45 69  1  0  0  0  0
 46 72  1  0  0  0  0
 47 68  1  0  0  0  0
 48 67  1  0  0  0  0
 49 61  1  0  0  0  0
 50 61  1  0  0  0  0
 51 63  1  0  0  0  0
 52 64  1  0  0  0  0
 53 64  1  0  0  0  0
 54 64  1  0  0  0  0
 55 75  1  0  0  0  0
 56 76  1  0  0  0  0
 57 58  1  0  0  0  0
 57 66  1  0  0  0  0
 58 74  1  0  0  0  0
 59 60  1  0  0  0  0
 59 83  1  0  0  0  0
 60 75  1  0  0  0  0
 62 64  1  0  0  0  0
 62 73  1  0  0  0  0
 63 76  1  0  0  0  0
 65 67  1  0  0  0  0
M  CHG  2  75   1  76   1
M  ISO  4  36 100  59 101  74 100  83 101
M  END
> <Batch ID>
0105

> <Smiles>
CNC(C)C(=O)NC(C(=O)N1Cc2cc([101O:1][101CH2:1]C(NC)c3cc(C(C)C)n(CC[100NH:0][100C:0](=O)N4CCCC(n5nc(-c6ccc(Oc7ccc(F)cc7F)cc6)c(C(N)=O)c5N)C4)c3)ccc2CC1C(=O)NC1CCCc2ccccc21)C(C)(C)C

> <Shape>
0.218

> <Color>
0.082

> <Negative vol penalty>
0.000

$$$$

  -OEChem-04052319463D

 87 95  0     1  0  0  0  0  0999 V2000
  -22.9937  -19.6649   22.0199 C   0  0  0  0  0  0  0  0  0  0  0  0
  -24.1885  -20.3341   21.7743 C   0  0  0  0  0  0  0  0  0  0  0  0
  -27.6517  -14.2450   21.4250 C   0  0  0  0  0  0  0  0  0  0  0  0
  -27.5410  -13.9702   19.0273 C   0  0  0  0  0  0  0  0  0  0  0  0
  -21.7814  -20.3467   21.9221 C   0  0  0  0  0  0  0  0  0  0  0  0
  -24.1715  -21.6851   21.4297 C   0  0  0  0  0  0  0  0  0  0  0  0
  -27.6632  -24.3711   23.9275 C   0  0  0  0  0  0  0  0  0  0  0  0
  -26.7704  -13.1763   21.5882 C   0  0  0  0  0  0  0  0  0  0  0  0
  -26.6597  -12.9014   19.1905 C   0  0  0  0  0  0  0  0  0  0  0  0
  -28.9793  -24.2800   23.4765 C   0  0  0  0  0  0  0  0  0  0  0  0
  -23.4423  -12.6347   21.3539 C   0  0  0  0  0  0  0  0  0  0  0  0
  -22.3967  -12.7910   22.2638 C   0  0  0  0  0  0  0  0  0  0  0  0
  -28.7227  -26.3822   22.3216 C   0  0  0  0  0  0  0  0  0  0  0  0
  -23.2200  -10.9074   23.5333 C   0  0  0  0  0  0  0  0  0  0  0  0
  -31.0089  -24.5673   17.2706 C   0  0  0  0  0  0  0  0  0  0  0  0
  -28.0370  -14.6421   20.1445 C   0  0  0  0  0  0  0  0  0  0  0  0
  -30.3523  -15.6886   19.9169 C   0  0  0  0  0  0  0  0  0  0  0  0
  -21.7502  -21.7092   21.5855 C   0  0  0  0  0  0  0  0  0  0  0  0
  -26.8622  -25.4649   23.5693 C   0  0  0  0  0  0  0  0  0  0  0  0
  -22.9576  -22.3854   21.3260 C   0  0  0  0  0  0  0  0  0  0  0  0
  -27.3976  -26.4861   22.7714 C   0  0  0  0  0  0  0  0  0  0  0  0
  -29.9709  -25.0020   16.4764 C   0  0  0  0  0  0  0  0  0  0  0  0
  -29.8196  -26.3925   16.7014 C   0  0  0  0  0  0  0  0  0  0  0  0
  -26.2744  -12.5045   20.4710 C   0  0  0  0  0  0  0  0  0  0  0  0
  -29.5084  -25.2842   22.6711 C   0  0  0  0  0  0  0  0  0  0  0  0
  -24.3767  -11.6147   21.5337 C   0  0  0  0  0  0  0  0  0  0  0  0
  -22.2856  -11.9274   23.3536 C   0  0  0  0  0  0  0  0  0  0  0  0
  -24.2655  -10.7511   22.6234 C   0  0  0  0  0  0  0  0  0  0  0  0
  -28.9469  -15.7464   19.9753 C   0  0  0  0  0  0  0  0  0  0  0  0
  -30.7700  -26.7653   17.6262 C   0  0  0  0  0  0  0  0  0  0  0  0
  -30.7429  -16.9946   19.7483 C   0  0  0  0  0  0  0  0  0  0  0  0
  -31.2265  -14.5558   20.0068 C   0  0  0  0  0  0  0  0  0  0  0  0
  -24.1572  -25.8260   21.9395 C   0  0  0  0  0  0  0  0  0  0  0  0
  -24.4411  -28.9086   22.9084 C   0  0  0  0  0  0  0  0  0  0  0  0
  -26.4739  -31.4375   23.9665 C   0  0  0  0  0  0  0  0  0  0  0  0
  -27.9865  -21.6510   17.3872 C   0  0  0  0  0  0  0  0  0  0  0  0
  -20.4127  -22.3919   21.4457 C   0  0  0  0  0  0  0  0  0  0  0  0
  -25.4529  -25.5615   24.0859 C   0  0  0  0  0  0  0  0  0  0  0  0
  -26.5856  -27.6912   22.3753 C   0  0  0  0  0  0  0  0  0  0  0  0
  -20.5041  -23.9157   21.4416 C   0  0  0  0  0  0  0  0  0  0  0  0
  -29.3645  -21.4719   20.7288 C   0  0  0  0  0  0  0  0  0  0  0  0
  -21.6178  -24.3812   20.5090 C   0  0  0  0  0  0  0  0  0  0  0  0
  -29.5460  -19.9629   20.9024 C   0  0  0  0  0  0  0  0  0  0  0  0
  -28.0921  -21.7895   19.9489 C   0  0  0  0  0  0  0  0  0  0  0  0
  -28.1842  -19.6169   18.7892 C   0  0  0  0  0  0  0  0  0  0  0  0
  -22.9818  -23.8570   20.9739 C   0  0  1  0  0  0  0  0  0  0  0  0
  -24.5657  -26.4660   23.2361 C   0  0  1  0  0  0  0  0  0  0  0  0
  -29.4650  -19.2295   19.5505 C   0  0  2  0  0  0  0  0  0  0  0  0
  -31.0583  -28.0893   18.2171 C   0  0  0  0  0  0  0  0  0  0  0  0
  -29.5291  -28.3432   15.1761 C   0  0  0  0  0  0  0  0  0  0  0  0
  -26.4230  -33.8531   24.6444 C   0  0  0  0  0  0  0  0  0  0  0  0
  -27.0636  -26.8974   17.8801 C   0  0  0  0  0  0  0  0  0  0  0  0
  -26.8076  -28.8915   16.4072 C   0  0  0  0  0  0  0  0  0  0  0  0
  -24.1761  -29.7224   19.9797 C   0  0  0  0  0  0  0  0  0  0  0  0
  -25.0685  -31.9784   20.5981 C   0  0  0  0  0  0  0  0  0  0  0  0
  -22.9223  -31.1750   21.5836 C   0  0  0  0  0  0  0  0  0  0  0  0
  -27.4799  -30.8173   26.6798 C   0  0  0  0  0  0  0  0  0  0  0  0
  -29.1697  -24.1632   15.5627 C   0  0  0  0  0  0  0  0  0  0  0  0
  -32.2365  -25.0416   20.3194 C   0  0  0  0  0  0  0  0  0  0  0  0
  -32.6296  -25.5946   18.9477 C   0  0  0  0  0  0  0  0  0  0  0  0
  -27.7874  -23.7729   16.1164 C   0  0  0  0  0  0  0  0  0  0  0  0
  -31.0889  -25.8036   20.9717 C   0  0  0  0  0  0  0  0  0  1  0  0
  -28.8265  -27.2813   16.0634 C   0  0  2  0  0  0  0  0  0  0  0  0
  -25.1006  -30.1476   22.3526 C   0  0  1  0  0  0  0  0  0  0  0  0
  -26.3504  -32.4118   25.1241 C   0  0  2  0  0  0  0  0  0  0  0  0
  -27.8267  -27.9604   17.0758 C   0  0  0  0  0  0  0  0  0  0  0  0
  -24.3318  -30.7323   21.1342 C   0  0  0  0  0  0  0  0  0  0  0  0
  -28.4765  -16.9906   19.8539 N   0  0  0  0  0  0  0  0  0  0  0  0
  -31.4874  -25.6478   17.9648 N   0  0  0  0  0  0  0  0  0  0  0  0
  -29.5926  -17.7267   19.7176 N   0  0  0  0  0  0  0  0  0  0  0  0
  -25.2109  -27.7368   22.9003 N   0  0  0  0  0  0  0  0  0  0  0  0
  -28.0861  -21.0750   18.6645 N   0  0  0  0  0  0  0  0  0  0  0  0
  -31.9547  -17.5766   19.6249 N   0  0  0  0  0  0  0  0  0  0  0  0
  -30.6590  -13.2859   20.1793 N   0  0  0  0  0  0  0  0  0  0  0  0
  -23.4691  -24.6372   22.0911 N   0  0  0  0  0  0  0  0  0  0  0  0
  -25.2395  -31.0731   23.4717 N   0  0  0  0  0  0  0  0  0  0  0  0
  -27.8903  -23.0369   17.3568 N   0  0  0  0  0  0  0  0  0  0  0  0
  -27.4467  -32.1883   26.1085 N   0  3  0  0  0  0  0  0  0  0  0  0
  -32.4747  -14.6682   19.9528 O   0  0  0  0  0  0  0  0  0  0  0  0
  -24.4436  -26.3711   20.8801 O   0  0  0  0  0  0  0  0  0  0  0  0
  -23.2879  -28.9796   23.3407 O   0  0  0  0  0  0  0  0  0  0  0  0
  -27.5571  -31.0423   23.5412 O   0  0  0  0  0  0  0  0  0  0  0  0
  -27.9885  -20.9800   16.3494 O   0  0  0  0  0  0  0  0  0  0  0  0
  -25.4146  -11.4614   20.6298 O   0  0  0  0  0  0  0  0  0  0  0  0
  -30.7925  -25.1974   22.2290 O   0  0  0  0  0  0  0  0  0  1  0  0
  -21.2824  -12.0786   24.2281 F   0  0  0  0  0  0  0  0  0  0  0  0
  -25.1609   -9.7701   22.8019 F   0  0  0  0  0  0  0  0  0  0  0  0
  1  2  1  0  0  0  0
  1  5  2  0  0  0  0
  2  6  2  0  0  0  0
  3  8  2  0  0  0  0
  3 16  1  0  0  0  0
  4  9  1  0  0  0  0
  4 16  2  0  0  0  0
  5 18  1  0  0  0  0
  6 20  1  0  0  0  0
  7 10  2  0  0  0  0
  7 19  1  0  0  0  0
  8 24  1  0  0  0  0
  9 24  2  0  0  0  0
 10 25  1  0  0  0  0
 11 12  2  0  0  0  0
 11 26  1  0  0  0  0
 12 27  1  0  0  0  0
 13 21  1  0  0  0  0
 13 25  2  0  0  0  0
 14 27  2  0  0  0  0
 14 28  1  0  0  0  0
 15 22  2  0  0  0  0
 15 69  1  0  0  0  0
 16 29  1  0  0  0  0
 17 29  1  0  0  0  0
 17 31  2  0  0  0  0
 17 32  1  0  0  0  0
 18 20  2  0  0  0  0
 18 37  1  0  0  0  0
 19 21  2  0  0  0  0
 19 38  1  0  0  0  0
 20 46  1  0  0  0  0
 21 39  1  0  0  0  0
 22 23  1  0  0  0  0
 22 58  1  0  0  0  0
 23 30  2  0  0  0  0
 23 63  1  0  0  0  0
 24 84  1  0  0  0  0
 25 85  1  0  0  0  0
 26 28  2  0  0  0  0
 26 84  1  0  0  0  0
 27 86  1  0  0  0  0
 28 87  1  0  0  0  0
 29 68  2  0  0  0  0
 30 49  1  0  0  0  0
 30 69  1  0  0  0  0
 31 70  1  0  0  0  0
 31 73  1  0  0  0  0
 32 74  1  0  0  0  0
 32 79  2  0  0  0  0
 33 47  1  0  0  0  0
 33 75  1  0  0  0  0
 33 80  2  0  0  0  0
 34 64  1  0  0  0  0
 34 71  1  0  0  0  0
 34 81  2  0  0  0  0
 35 65  1  0  0  0  0
 35 76  1  0  0  0  0
 35 82  2  0  0  0  0
 36 72  1  0  0  0  0
 36 77  1  0  0  0  0
 36 83  2  0  0  0  0
 37 40  1  0  0  0  0
 38 47  1  0  0  0  0
 39 71  1  0  0  0  0
 40 42  1  0  0  0  0
 41 43  1  0  0  0  0
 41 44  1  0  0  0  0
 42 46  1  0  0  0  0
 43 48  1  0  0  0  0
 44 72  1  0  0  0  0
 45 48  1  0  0  0  0
 45 72  1  0  0  0  0
 46 75  1  0  0  0  0
 47 71  1  0  0  0  0
 48 70  1  0  0  0  0
 50 63  1  0  0  0  0
 51 65  1  0  0  0  0
 52 66  1  0  0  0  0
 53 66  1  0  0  0  0
 54 67  1  0  0  0  0
 55 67  1  0  0  0  0
 56 67  1  0  0  0  0
 57 78  1  0  0  0  0
 58 61  1  0  0  0  0
 59 60  1  0  0  0  0
 59 62  1  0  0  0  0
 60 69  1  0  0  0  0
 61 77  1  0  0  0  0
 62 85  1  0  0  0  0
 63 66  1  0  0  0  0
 64 67  1  0  0  0  0
 64 76  1  0  0  0  0
 65 78  1  0  0  0  0
 68 70  1  0  0  0  0
M  CHG  1  78   1
M  ISO  4  36 100  62 101  77 100  85 101
M  END
> <Batch ID>
0105

> <Smiles>
CNC(C)C(=O)NC(C(=O)N1Cc2cc([101O:1][101CH2:1]CCn3cc(CC[100NH:0][100C:0](=O)N4CCCC(n5nc(-c6ccc(Oc7ccc(F)cc7F)cc6)c(C(N)=O)c5N)C4)c(C(C)C(C)C)c3C)ccc2CC1C(=O)NC1CCCc2ccccc21)C(C)(C)C

> <Shape>
0.237

> <Color>
0.045

> <Negative vol penalty>
0.000

$$$$

  -OEChem-04052319463D

 85 94  0     1  0  0  0  0  0999 V2000
  -29.4835  -32.3291   26.2032 C   0  0  0  0  0  0  0  0  0  0  0  0
  -29.9651  -31.2753   25.4333 C   0  0  0  0  0  0  0  0  0  0  0  0
  -23.3801   -9.6322   20.2540 C   0  0  0  0  0  0  0  0  0  0  0  0
  -24.0337  -10.0338   22.5450 C   0  0  0  0  0  0  0  0  0  0  0  0
  -28.1296  -32.3901   26.5304 C   0  0  0  0  0  0  0  0  0  0  0  0
  -29.0932  -30.2811   24.9909 C   0  0  0  0  0  0  0  0  0  0  0  0
  -29.3618  -27.2456   19.6787 C   0  0  0  0  0  0  0  0  0  0  0  0
  -22.7731   -8.4362   20.6368 C   0  0  0  0  0  0  0  0  0  0  0  0
  -23.4266   -8.8378   22.9278 C   0  0  0  0  0  0  0  0  0  0  0  0
  -29.8660  -25.9907   19.3399 C   0  0  0  0  0  0  0  0  0  0  0  0
  -20.2975   -7.7211   23.5462 C   0  0  0  0  0  0  0  0  0  0  0  0
  -19.5013   -7.7378   24.6914 C   0  0  0  0  0  0  0  0  0  0  0  0
  -31.7716  -18.1020   21.4294 C   0  0  0  0  0  0  0  0  0  0  0  0
  -27.6549  -25.0508   19.5564 C   0  0  0  0  0  0  0  0  0  0  0  0
  -20.9378   -6.0863   25.7142 C   0  0  0  0  0  0  0  0  0  0  0  0
  -24.0105  -10.4310   21.2080 C   0  0  0  0  0  0  0  0  0  0  0  0
  -24.0453  -12.9419   20.7589 C   0  0  0  0  0  0  0  0  0  0  0  0
  -27.2389  -31.4013   26.0837 C   0  0  0  0  0  0  0  0  0  0  0  0
  -28.0001  -27.4107   19.9700 C   0  0  0  0  0  0  0  0  0  0  0  0
  -27.7263  -30.3281   25.3135 C   0  0  0  0  0  0  0  0  0  0  0  0
  -31.5641  -19.4001   20.9383 C   0  0  0  0  0  0  0  0  0  0  0  0
  -27.1355  -26.3093   19.8961 C   0  0  0  0  0  0  0  0  0  0  0  0
  -30.3573  -20.0626   21.2265 C   0  0  0  0  0  0  0  0  0  0  0  0
  -30.8061  -17.4778   22.2184 C   0  0  0  0  0  0  0  0  0  0  0  0
  -29.3982  -19.4275   22.0304 C   0  0  0  0  0  0  0  0  0  0  0  0
  -22.7962   -8.0390   21.9737 C   0  0  0  0  0  0  0  0  0  0  0  0
  -29.0130  -24.8925   19.2815 C   0  0  0  0  0  0  0  0  0  0  0  0
  -21.4138   -6.8869   23.4850 C   0  0  0  0  0  0  0  0  0  0  0  0
  -19.8214   -6.9204   25.7754 C   0  0  0  0  0  0  0  0  0  0  0  0
  -21.7339   -6.0696   24.5690 C   0  0  0  0  0  0  0  0  0  0  0  0
  -29.6208  -18.1413   22.5210 C   0  0  0  0  0  0  0  0  0  0  0  0
  -24.6383  -11.6663   20.8131 C   0  0  0  0  0  0  0  0  0  0  0  0
  -25.0520  -13.7706   20.3273 C   0  0  0  0  0  0  0  0  0  0  0  0
  -22.7043  -13.3420   21.0708 C   0  0  0  0  0  0  0  0  0  0  0  0
  -26.3485  -28.3354   22.5236 C   0  0  0  0  0  0  0  0  0  0  0  0
  -23.8350  -28.1512   20.4814 C   0  0  0  0  0  0  0  0  0  0  0  0
  -22.5071  -26.8183   17.6341 C   0  0  0  0  0  0  0  0  0  0  0  0
  -30.7701  -14.5058   20.8541 C   0  0  0  0  0  0  0  0  0  0  0  0
  -25.7923  -31.4845   26.5024 C   0  0  0  0  0  0  0  0  0  0  0  0
  -27.4672  -28.7761   20.3077 C   0  0  0  0  0  0  0  0  0  0  0  0
  -32.6174  -20.0274   20.0612 C   0  0  0  0  0  0  0  0  0  0  0  0
  -30.0922  -21.4673   20.7431 C   0  0  0  0  0  0  0  0  0  0  0  0
  -25.6619  -26.4374   20.1799 C   0  0  0  0  0  0  0  0  0  0  0  0
  -24.8677  -30.5910   25.6798 C   0  0  0  0  0  0  0  0  0  0  0  0
  -32.4573  -21.5395   19.9098 C   0  0  0  0  0  0  0  0  0  0  0  0
  -29.3185  -13.1077   17.9189 C   0  0  0  0  0  0  0  0  0  0  0  0
  -25.4651  -29.1950   25.5340 C   0  0  0  0  0  0  0  0  0  0  0  0
  -27.9086  -12.7121   18.3610 C   0  0  0  0  0  0  0  0  0  0  0  0
  -30.3418  -12.8849   19.0304 C   0  0  0  0  0  0  0  0  0  0  0  0
  -28.6010  -13.1339   20.7571 C   0  0  0  0  0  0  0  0  0  0  0  0
  -26.8073  -29.2438   24.7941 C   0  0  1  0  0  0  0  0  0  0  0  0
  -26.1563  -28.7300   21.0866 C   0  0  1  0  0  0  0  0  0  0  0  0
  -31.0041  -21.8960   19.5837 C   0  0  2  0  0  0  0  0  0  0  0  0
  -27.5253  -13.3933   19.6885 C   0  0  2  0  0  0  0  0  0  0  0  0
  -28.1152  -20.1053   22.3959 C   0  0  0  0  0  0  0  0  0  0  0  0
  -20.4186  -26.8271   16.2429 C   0  0  0  0  0  0  0  0  0  0  0  0
  -22.4715  -26.3374   22.5212 C   0  0  0  0  0  0  0  0  0  0  0  0
  -20.8771  -25.6320   20.7244 C   0  0  0  0  0  0  0  0  0  0  0  0
  -20.9630  -28.0181   21.4469 C   0  0  0  0  0  0  0  0  0  0  0  0
  -23.9393  -27.9033   15.2825 C   0  0  0  0  0  0  0  0  0  0  0  0
  -31.0481  -16.1000   22.7357 C   0  0  0  0  0  0  0  0  0  0  0  0
  -30.8568  -23.3906   19.3071 C   0  0  0  0  0  0  0  0  0  1  0  0
  -22.8637  -27.0688   20.0764 C   0  0  1  0  0  0  0  0  0  0  0  0
  -21.7837  -27.4598   16.4638 C   0  0  2  0  0  0  0  0  0  0  0  0
  -21.8219  -26.7610   21.1887 C   0  0  0  0  0  0  0  0  0  0  0  0
  -25.9223  -11.6786   20.4452 N   0  0  0  0  0  0  0  0  0  0  0  0
  -26.1443  -12.9720   20.1556 N   0  0  0  0  0  0  0  0  0  0  0  0
  -25.1900  -27.7919   20.5118 N   0  0  0  0  0  0  0  0  0  0  0  0
  -29.9197  -13.5580   20.2612 N   0  0  0  0  0  0  0  0  0  0  0  0
  -25.1007  -15.0971   20.0816 N   0  0  0  0  0  0  0  0  0  0  0  0
  -21.7977  -12.3632   21.5002 N   0  0  0  0  0  0  0  0  0  0  0  0
  -26.5946  -29.3988   23.3710 N   0  0  0  0  0  0  0  0  0  0  0  0
  -22.2778  -27.4987   18.8113 N   0  0  0  0  0  0  0  0  0  0  0  0
  -30.2909  -15.1013   22.0145 N   0  0  0  0  0  0  0  0  0  0  0  0
  -22.5811  -27.3052   15.2143 N   0  3  0  0  0  0  0  0  0  0  0  0
  -22.3168  -14.5295   20.9559 O   0  0  0  0  0  0  0  0  0  0  0  0
  -26.2774  -27.1537   22.8404 O   0  0  0  0  0  0  0  0  0  0  0  0
  -23.4080  -29.2760   20.7536 O   0  0  0  0  0  0  0  0  0  0  0  0
  -23.2027  -25.8119   17.5165 O   0  0  0  0  0  0  0  0  0  0  0  0
  -31.8722  -14.8035   20.3811 O   0  0  0  0  0  0  0  0  0  0  0  0
  -22.2037   -6.8721   22.3477 O   0  0  0  0  0  0  0  0  0  0  0  0
  -29.5025  -23.6663   18.9518 O   0  0  0  0  0  0  0  0  0  1  0  0
  -19.0576   -6.9377   26.8756 F   0  0  0  0  0  0  0  0  0  0  0  0
  -22.8058   -5.2670   24.5165 F   0  0  0  0  0  0  0  0  0  0  0  0
  -28.6946  -17.5429   23.2848 F   0  0  0  0  0  0  0  0  0  0  0  0
  1  2  1  0  0  0  0
  1  5  2  0  0  0  0
  2  6  2  0  0  0  0
  3  8  2  0  0  0  0
  3 16  1  0  0  0  0
  4  9  1  0  0  0  0
  4 16  2  0  0  0  0
  5 18  1  0  0  0  0
  6 20  1  0  0  0  0
  7 10  2  0  0  0  0
  7 19  1  0  0  0  0
  8 26  1  0  0  0  0
  9 26  2  0  0  0  0
 10 27  1  0  0  0  0
 11 12  2  0  0  0  0
 11 28  1  0  0  0  0
 12 29  1  0  0  0  0
 13 21  1  0  0  0  0
 13 24  2  0  0  0  0
 14 22  1  0  0  0  0
 14 27  2  0  0  0  0
 15 29  2  0  0  0  0
 15 30  1  0  0  0  0
 16 32  1  0  0  0  0
 17 32  1  0  0  0  0
 17 33  2  0  0  0  0
 17 34  1  0  0  0  0
 18 20  2  0  0  0  0
 18 39  1  0  0  0  0
 19 22  2  0  0  0  0
 19 40  1  0  0  0  0
 20 51  1  0  0  0  0
 21 23  2  0  0  0  0
 21 41  1  0  0  0  0
 22 43  1  0  0  0  0
 23 25  1  0  0  0  0
 23 42  1  0  0  0  0
 24 31  1  0  0  0  0
 24 61  1  0  0  0  0
 25 31  2  0  0  0  0
 25 55  1  0  0  0  0
 26 81  1  0  0  0  0
 27 82  1  0  0  0  0
 28 30  2  0  0  0  0
 28 81  1  0  0  0  0
 29 83  1  0  0  0  0
 30 84  1  0  0  0  0
 31 85  1  0  0  0  0
 32 66  2  0  0  0  0
 33 67  1  0  0  0  0
 33 70  1  0  0  0  0
 34 71  1  0  0  0  0
 34 76  2  0  0  0  0
 35 52  1  0  0  0  0
 35 72  1  0  0  0  0
 35 77  2  0  0  0  0
 36 63  1  0  0  0  0
 36 68  1  0  0  0  0
 36 78  2  0  0  0  0
 37 64  1  0  0  0  0
 37 73  1  0  0  0  0
 37 79  2  0  0  0  0
 38 69  1  0  0  0  0
 38 74  1  0  0  0  0
 38 80  2  0  0  0  0
 39 44  1  0  0  0  0
 40 52  1  0  0  0  0
 41 45  1  0  0  0  0
 42 53  1  0  0  0  0
 43 68  1  0  0  0  0
 44 47  1  0  0  0  0
 45 53  1  0  0  0  0
 46 48  1  0  0  0  0
 46 49  1  0  0  0  0
 47 51  1  0  0  0  0
 48 54  1  0  0  0  0
 49 69  1  0  0  0  0
 50 54  1  0  0  0  0
 50 69  1  0  0  0  0
 51 72  1  0  0  0  0
 52 68  1  0  0  0  0
 53 62  1  0  0  0  0
 54 67  1  0  0  0  0
 56 64  1  0  0  0  0
 57 65  1  0  0  0  0
 58 65  1  0  0  0  0
 59 65  1  0  0  0  0
 60 75  1  0  0  0  0
 61 74  1  0  0  0  0
 62 82  1  0  0  0  0
 63 65  1  0  0  0  0
 63 73  1  0  0  0  0
 64 75  1  0  0  0  0
 66 67  1  0  0  0  0
M  CHG  1  75   1
M  ISO  4  38 100  62 101  74 100  82 101
M  END
> <Batch ID>
0105

> <Smiles>
CNC(C)C(=O)NC(C(=O)N1Cc2cc([101O:1][101CH2:1]C3CCc4cc(C[100NH:0][100C:0](=O)N5CCCC(n6nc(-c7ccc(Oc8ccc(F)cc8F)cc7)c(C(N)=O)c6N)C5)c(F)c(C)c4C3)ccc2CC1C(=O)NC1CCCc2ccccc21)C(C)(C)C

> <Shape>
0.351

> <Color>
0.192

> <Negative vol penalty>
0.000

$$$$

  -OEChem-04052319463D

 83 91  0     1  0  0  0  0  0999 V2000
  -16.8251  -30.0621   23.2459 C   0  0  0  0  0  0  0  0  0  0  0  0
  -18.0150  -30.5668   22.7312 C   0  0  0  0  0  0  0  0  0  0  0  0
  -27.2486  -17.6282   19.9149 C   0  0  0  0  0  0  0  0  0  0  0  0
  -29.0962  -17.3542   21.4473 C   0  0  0  0  0  0  0  0  0  0  0  0
  -16.8043  -28.8031   23.8444 C   0  0  0  0  0  0  0  0  0  0  0  0
  -19.1851  -29.8131   22.8158 C   0  0  0  0  0  0  0  0  0  0  0  0
  -25.2646  -28.5230   19.2533 C   0  0  0  0  0  0  0  0  0  0  0  0
  -27.1082  -16.2426   19.8364 C   0  0  0  0  0  0  0  0  0  0  0  0
  -28.9559  -15.9686   21.3688 C   0  0  0  0  0  0  0  0  0  0  0  0
  -26.6449  -28.5065   19.4490 C   0  0  0  0  0  0  0  0  0  0  0  0
  -25.7733  -13.7640   21.7092 C   0  0  0  0  0  0  0  0  0  0  0  0
  -24.4846  -13.2371   21.7943 C   0  0  0  0  0  0  0  0  0  0  0  0
  -26.4730  -26.3111   20.4337 C   0  0  0  0  0  0  0  0  0  0  0  0
  -31.4205  -28.3688   21.3417 C   0  0  0  0  0  0  0  0  0  0  0  0
  -24.7403  -12.2575   19.6006 C   0  0  0  0  0  0  0  0  0  0  0  0
  -28.2426  -18.1840   20.7204 C   0  0  0  0  0  0  0  0  0  0  0  0
  -27.7602  -20.4833   21.7144 C   0  0  0  0  0  0  0  0  0  0  0  0
  -17.9727  -28.0294   23.9277 C   0  0  0  0  0  0  0  0  0  0  0  0
  -24.4755  -27.4364   19.6569 C   0  0  0  0  0  0  0  0  0  0  0  0
  -19.1802  -28.5430   23.4172 C   0  0  0  0  0  0  0  0  0  0  0  0
  -25.0832  -26.3151   20.2396 C   0  0  0  0  0  0  0  0  0  0  0  0
  -30.7882  -28.3068   20.0754 C   0  0  0  0  0  0  0  0  0  0  0  0
  -27.9618  -15.4129   20.5633 C   0  0  0  0  0  0  0  0  0  0  0  0
  -27.2489  -27.4017   20.0419 C   0  0  0  0  0  0  0  0  0  0  0  0
  -26.5455  -13.5377   20.5698 C   0  0  0  0  0  0  0  0  0  0  0  0
  -23.9681  -12.4838   20.7400 C   0  0  0  0  0  0  0  0  0  0  0  0
  -26.0290  -12.7844   19.5155 C   0  0  0  0  0  0  0  0  0  0  0  0
  -28.3884  -19.6151   20.8015 C   0  0  0  0  0  0  0  0  0  0  0  0
  -32.7581  -28.1043   21.1470 C   0  0  0  0  0  0  0  0  0  0  0  0
  -31.7588  -28.0061   19.1454 C   0  0  0  0  0  0  0  0  0  0  0  0
  -28.2256  -21.7309   21.3777 C   0  0  0  0  0  0  0  0  0  0  0  0
  -26.8385  -20.1883   22.7723 C   0  0  0  0  0  0  0  0  0  0  0  0
  -22.1052  -27.0355   21.7365 C   0  0  0  0  0  0  0  0  0  0  0  0
  -22.0024  -24.0586   20.4522 C   0  0  0  0  0  0  0  0  0  0  0  0
  -23.6332  -21.5603   18.7951 C   0  0  0  0  0  0  0  0  0  0  0  0
  -33.0179  -24.2493   19.6160 C   0  0  0  0  0  0  0  0  0  0  0  0
  -17.9109  -26.6941   24.6260 C   0  0  0  0  0  0  0  0  0  0  0  0
  -22.9912  -27.4584   19.4144 C   0  0  0  0  0  0  0  0  0  0  0  0
  -24.2832  -25.1146   20.6722 C   0  0  0  0  0  0  0  0  0  0  0  0
  -19.1156  -25.8011   24.3405 C   0  0  0  0  0  0  0  0  0  0  0  0
  -30.2612  -23.7169   17.3323 C   0  0  0  0  0  0  0  0  0  0  0  0
  -20.4119  -26.5932   24.4787 C   0  0  0  0  0  0  0  0  0  0  0  0
  -29.4317  -22.6810   18.0931 C   0  0  0  0  0  0  0  0  0  0  0  0
  -31.7559  -23.4733   17.5188 C   0  0  0  0  0  0  0  0  0  0  0  0
  -31.3731  -22.3974   19.7027 C   0  0  0  0  0  0  0  0  0  0  0  0
  -20.4650  -27.7451   23.4678 C   0  0  1  0  0  0  0  0  0  0  0  0
  -22.2217  -26.5136   20.3324 C   0  0  1  0  0  0  0  0  0  0  0  0
  -29.8529  -22.6028   19.5726 C   0  0  2  0  0  0  0  0  0  0  0  0
  -31.6521  -27.8236   17.6820 C   0  0  0  0  0  0  0  0  0  0  0  0
  -33.6718  -26.9317   23.1826 C   0  0  0  0  0  0  0  0  0  0  0  0
  -34.1089  -29.3910   22.8423 C   0  0  0  0  0  0  0  0  0  0  0  0
  -23.3000  -19.2318   17.9207 C   0  0  0  0  0  0  0  0  0  0  0  0
  -22.2375  -22.9620   23.2898 C   0  0  0  0  0  0  0  0  0  0  0  0
  -22.8503  -20.7425   22.3067 C   0  0  0  0  0  0  0  0  0  0  0  0
  -20.6144  -21.7410   21.8307 C   0  0  0  0  0  0  0  0  0  0  0  0
  -24.1523  -22.4082   16.0075 C   0  0  0  0  0  0  0  0  0  0  0  0
  -29.3292  -28.5298   19.8055 C   0  0  0  0  0  0  0  0  0  1  0  0
  -34.2236  -27.5734   19.1895 C   0  0  0  0  0  0  0  0  0  0  0  0
  -34.6355  -26.1153   19.3744 C   0  0  0  0  0  0  0  0  0  0  0  0
  -33.8631  -28.0434   22.1257 C   0  0  0  0  0  0  0  0  0  0  0  0
  -22.6725  -22.7401   20.7546 C   0  0  1  0  0  0  0  0  0  0  0  0
  -23.2326  -20.7165   17.5984 C   0  0  2  0  0  0  0  0  0  0  0  0
  -22.1088  -22.0697   22.0392 C   0  0  0  0  0  0  0  0  0  0  0  0
  -29.1915  -20.2569   19.9487 N   0  0  0  0  0  0  0  0  0  0  0  0
  -32.9522  -27.8851   19.8081 N   0  0  0  0  0  0  0  0  0  0  0  0
  -29.0710  -21.5416   20.3244 N   0  0  0  0  0  0  0  0  0  0  0  0
  -22.8346  -25.1866   20.4196 N   0  0  0  0  0  0  0  0  0  0  0  0
  -32.0936  -23.4285   18.9485 N   0  0  0  0  0  0  0  0  0  0  0  0
  -27.9899  -22.9604   21.8828 N   0  0  0  0  0  0  0  0  0  0  0  0
  -26.4663  -18.8533   22.9813 N   0  0  0  0  0  0  0  0  0  0  0  0
  -20.8044  -27.2474   22.1519 N   0  0  0  0  0  0  0  0  0  0  0  0
  -22.5394  -21.9286   19.5495 N   0  0  0  0  0  0  0  0  0  0  0  0
  -33.6625  -25.1954   18.8285 N   0  0  0  0  0  0  0  0  0  0  0  0
  -24.1376  -20.9889   16.4462 N   0  3  0  0  0  0  0  0  0  0  0  0
  -26.3465  -21.0839   23.4999 O   0  0  0  0  0  0  0  0  0  0  0  0
  -23.1202  -27.2301   22.3949 O   0  0  0  0  0  0  0  0  0  0  0  0
  -20.7867  -24.0856   20.2452 O   0  0  0  0  0  0  0  0  0  0  0  0
  -24.8002  -21.8594   19.0384 O   0  0  0  0  0  0  0  0  0  0  0  0
  -33.2479  -24.1501   20.8261 O   0  0  0  0  0  0  0  0  0  0  0  0
  -27.8250  -14.0608   20.4871 O   0  0  0  0  0  0  0  0  0  0  0  0
  -28.5959  -27.3833   20.2347 O   0  0  0  0  0  0  0  0  0  1  0  0
  -22.7311  -11.9766   20.8225 F   0  0  0  0  0  0  0  0  0  0  0  0
  -26.7666  -12.5626   18.4189 F   0  0  0  0  0  0  0  0  0  0  0  0
  1  2  1  0  0  0  0
  1  5  2  0  0  0  0
  2  6  2  0  0  0  0
  3  8  2  0  0  0  0
  3 16  1  0  0  0  0
  4  9  1  0  0  0  0
  4 16  2  0  0  0  0
  5 18  1  0  0  0  0
  6 20  1  0  0  0  0
  7 10  2  0  0  0  0
  7 19  1  0  0  0  0
  8 23  1  0  0  0  0
  9 23  2  0  0  0  0
 10 24  1  0  0  0  0
 11 12  2  0  0  0  0
 11 25  1  0  0  0  0
 12 26  1  0  0  0  0
 13 21  1  0  0  0  0
 13 24  2  0  0  0  0
 14 22  1  0  0  0  0
 14 29  2  0  0  0  0
 15 26  2  0  0  0  0
 15 27  1  0  0  0  0
 16 28  1  0  0  0  0
 17 28  1  0  0  0  0
 17 31  2  0  0  0  0
 17 32  1  0  0  0  0
 18 20  2  0  0  0  0
 18 37  1  0  0  0  0
 19 21  2  0  0  0  0
 19 38  1  0  0  0  0
 20 46  1  0  0  0  0
 21 39  1  0  0  0  0
 22 30  2  0  0  0  0
 22 57  1  0  0  0  0
 23 80  1  0  0  0  0
 24 81  1  0  0  0  0
 25 27  2  0  0  0  0
 25 80  1  0  0  0  0
 26 82  1  0  0  0  0
 27 83  1  0  0  0  0
 28 64  2  0  0  0  0
 29 60  1  0  0  0  0
 29 65  1  0  0  0  0
 30 49  1  0  0  0  0
 30 65  1  0  0  0  0
 31 66  1  0  0  0  0
 31 69  1  0  0  0  0
 32 70  1  0  0  0  0
 32 75  2  0  0  0  0
 33 47  1  0  0  0  0
 33 71  1  0  0  0  0
 33 76  2  0  0  0  0
 34 61  1  0  0  0  0
 34 67  1  0  0  0  0
 34 77  2  0  0  0  0
 35 62  1  0  0  0  0
 35 72  1  0  0  0  0
 35 78  2  0  0  0  0
 36 68  1  0  0  0  0
 36 73  1  0  0  0  0
 36 79  2  0  0  0  0
 37 40  1  0  0  0  0
 38 47  1  0  0  0  0
 39 67  1  0  0  0  0
 40 42  1  0  0  0  0
 41 43  1  0  0  0  0
 41 44  1  0  0  0  0
 42 46  1  0  0  0  0
 43 48  1  0  0  0  0
 44 68  1  0  0  0  0
 45 48  1  0  0  0  0
 45 68  1  0  0  0  0
 46 71  1  0  0  0  0
 47 67  1  0  0  0  0
 48 66  1  0  0  0  0
 50 60  1  0  0  0  0
 51 60  1  0  0  0  0
 52 62  1  0  0  0  0
 53 63  1  0  0  0  0
 54 63  1  0  0  0  0
 55 63  1  0  0  0  0
 56 74  1  0  0  0  0
 57 81  1  0  0  0  0
 58 59  1  0  0  0  0
 58 65  1  0  0  0  0
 59 73  1  0  0  0  0
 61 63  1  0  0  0  0
 61 72  1  0  0  0  0
 62 74  1  0  0  0  0
 64 66  1  0  0  0  0
M  CHG  1  74   1
M  ISO  4  36 100  57 101  73 100  81 101
M  END
> <Batch ID>
0105

> <Smiles>
CNC(C)C(=O)NC(C(=O)N1Cc2cc([101O:1][101CH2:1]c3cc(C(C)C)n(CC[100NH:0][100C:0](=O)N4CCCC(n5nc(-c6ccc(Oc7ccc(F)cc7F)cc6)c(C(N)=O)c5N)C4)c3C)ccc2CC1C(=O)NC1CCCc2ccccc21)C(C)(C)C

> <Shape>
0.217

> <Color>
0.078

> <Negative vol penalty>
0.000

$$$$

  -OEChem-04052319463D

 86 95  0     1  0  0  0  0  0999 V2000
  -16.5766  -30.0118   23.2371 C   0  0  0  0  0  0  0  0  0  0  0  0
  -17.6454  -30.8236   23.6032 C   0  0  0  0  0  0  0  0  0  0  0  0
  -26.7129  -14.9529   22.3679 C   0  0  0  0  0  0  0  0  0  0  0  0
  -26.6943  -15.4404   20.0017 C   0  0  0  0  0  0  0  0  0  0  0  0
  -16.8005  -28.6794   22.8931 C   0  0  0  0  0  0  0  0  0  0  0  0
  -18.9388  -30.3030   23.6265 C   0  0  0  0  0  0  0  0  0  0  0  0
  -25.7483  -32.2163   22.4925 C   0  0  0  0  0  0  0  0  0  0  0  0
  -26.3699  -13.6281   22.0977 C   0  0  0  0  0  0  0  0  0  0  0  0
  -26.3513  -14.1156   19.7315 C   0  0  0  0  0  0  0  0  0  0  0  0
  -26.9947  -32.1828   23.1163 C   0  0  0  0  0  0  0  0  0  0  0  0
  -23.5818  -11.8894   21.3055 C   0  0  0  0  0  0  0  0  0  0  0  0
  -22.5819  -11.3078   22.0848 C   0  0  0  0  0  0  0  0  0  0  0  0
  -27.2718  -29.8881   22.4258 C   0  0  0  0  0  0  0  0  0  0  0  0
  -29.8468  -24.7392   24.7921 C   0  0  0  0  0  0  0  0  0  0  0  0
  -24.1440   -9.6227   22.8315 C   0  0  0  0  0  0  0  0  0  0  0  0
  -31.6832  -25.5754   23.7928 C   0  0  0  0  0  0  0  0  0  0  0  0
  -26.8750  -15.8590   21.3199 C   0  0  0  0  0  0  0  0  0  0  0  0
  -26.4997  -18.1546   22.3673 C   0  0  0  0  0  0  0  0  0  0  0  0
  -18.0985  -28.1448   22.9028 C   0  0  0  0  0  0  0  0  0  0  0  0
  -25.2487  -31.0807   21.8389 C   0  0  0  0  0  0  0  0  0  0  0  0
  -19.1802  -28.9617   23.2835 C   0  0  0  0  0  0  0  0  0  0  0  0
  -26.0199  -29.9106   21.7923 C   0  0  0  0  0  0  0  0  0  0  0  0
  -31.1910  -24.4634   24.4396 C   0  0  0  0  0  0  0  0  0  0  0  0
  -26.1892  -13.2095   20.7795 C   0  0  0  0  0  0  0  0  0  0  0  0
  -27.7554  -31.0176   23.0855 C   0  0  0  0  0  0  0  0  0  0  0  0
  -24.8629  -11.3377   21.2891 C   0  0  0  0  0  0  0  0  0  0  0  0
  -22.8630  -10.1744   22.8479 C   0  0  0  0  0  0  0  0  0  0  0  0
  -25.1440  -10.2044   22.0521 C   0  0  0  0  0  0  0  0  0  0  0  0
  -27.2288  -17.2278   21.5984 C   0  0  0  0  0  0  0  0  0  0  0  0
  -29.5584  -26.0114   24.3496 C   0  0  0  0  0  0  0  0  0  0  0  0
  -27.2533  -19.3022   22.3272 C   0  0  0  0  0  0  0  0  0  0  0  0
  -25.2529  -17.9927   23.0564 C   0  0  0  0  0  0  0  0  0  0  0  0
  -22.7119  -29.2048   22.2249 C   0  0  0  0  0  0  0  0  0  0  0  0
  -23.7767  -27.8566   19.4733 C   0  0  0  0  0  0  0  0  0  0  0  0
  -26.3929  -27.2491   17.3679 C   0  0  0  0  0  0  0  0  0  0  0  0
  -32.1838  -21.8997   22.6258 C   0  0  0  0  0  0  0  0  0  0  0  0
  -18.2853  -26.6860   22.5687 C   0  0  0  0  0  0  0  0  0  0  0  0
  -23.9141  -31.1414   21.1479 C   0  0  0  0  0  0  0  0  0  0  0  0
  -25.5376  -28.6706   21.0864 C   0  0  0  0  0  0  0  0  0  0  0  0
  -19.7323  -26.3129   22.2571 C   0  0  0  0  0  0  0  0  0  0  0  0
  -25.1149  -26.3845   24.7453 C   0  0  0  0  0  0  0  0  0  0  0  0
  -31.2542  -20.5156   19.4799 C   0  0  0  0  0  0  0  0  0  0  0  0
  -20.6735  -26.9086   23.2993 C   0  0  0  0  0  0  0  0  0  0  0  0
  -30.0686  -19.6090   19.8151 C   0  0  0  0  0  0  0  0  0  0  0  0
  -26.2592  -25.6236   24.0417 C   0  0  0  0  0  0  0  0  0  0  0  0
  -26.1695  -27.4301   25.1666 C   0  0  0  0  0  0  0  0  0  0  0  0
  -32.3071  -20.4998   20.5859 C   0  0  0  0  0  0  0  0  0  0  0  0
  -30.6087  -19.9027   22.2688 C   0  0  0  0  0  0  0  0  0  0  0  0
  -20.6007  -28.4403   23.2970 C   0  0  1  0  0  0  0  0  0  0  0  0
  -23.2793  -29.7680   20.9527 C   0  0  1  0  0  0  0  0  0  0  0  0
  -29.4946  -19.9288   21.2085 C   0  0  2  0  0  0  0  0  0  0  0  0
  -27.2206  -26.3054   25.0400 C   0  0  0  0  0  0  0  0  0  0  0  0
  -26.9624  -26.0873   15.2177 C   0  0  0  0  0  0  0  0  0  0  0  0
  -23.7051  -25.1661   20.9108 C   0  0  0  0  0  0  0  0  0  0  0  0
  -25.1457  -24.2327   19.0884 C   0  0  0  0  0  0  0  0  0  0  0  0
  -22.8734  -25.1115   18.5529 C   0  0  0  0  0  0  0  0  0  0  0  0
  -27.2289  -29.7821   16.0858 C   0  0  0  0  0  0  0  0  0  0  0  0
  -31.9289  -23.2158   24.7144 C   0  0  0  0  0  0  0  0  0  0  0  0
  -31.0020  -28.9681   24.1656 C   0  0  0  0  0  0  0  0  0  0  0  0
  -30.8230  -27.8716   23.1125 C   0  0  0  0  0  0  0  0  0  0  0  0
  -31.1870  -30.3356   23.5098 C   0  0  0  0  0  0  0  0  0  0  0  0
  -24.7251  -26.7332   19.1304 C   0  0  1  0  0  0  0  0  0  0  0  0
  -26.5296  -27.3946   15.8631 C   0  0  2  0  0  0  0  0  0  0  0  0
  -24.1208  -25.3335   19.4357 C   0  0  0  0  0  0  0  0  0  0  0  0
  -28.3586  -17.7421   21.1056 N   0  0  0  0  0  0  0  0  0  0  0  0
  -30.6819  -26.5100   23.7435 N   0  0  0  0  0  0  0  0  0  0  0  0
  -28.3452  -19.0047   21.5660 N   0  0  0  0  0  0  0  0  0  0  0  0
  -24.2236  -28.7778   20.4311 N   0  0  0  0  0  0  0  0  0  0  0  0
  -31.6981  -20.8123   21.8810 N   0  0  0  0  0  0  0  0  0  0  0  0
  -27.0818  -20.5267   22.8690 N   0  0  0  0  0  0  0  0  0  0  0  0
  -24.0665  -18.2792   22.3673 N   0  0  0  0  0  0  0  0  0  0  0  0
  -28.4260  -26.7433   24.4332 N   0  0  0  0  0  0  0  0  0  0  0  0
  -21.3491  -28.9801   22.1821 N   0  0  0  0  0  0  0  0  0  0  0  0
  -25.1028  -26.9295   17.7350 N   0  0  0  0  0  0  0  0  0  0  0  0
  -31.5464  -22.1305   23.8388 N   0  0  0  0  0  0  0  0  0  0  0  0
  -30.0158  -30.6781   22.7157 N   0  0  0  0  0  0  0  0  0  1  0  0
  -27.5406  -28.4387   15.5333 N   0  3  0  0  0  0  0  0  0  0  0  0
  -25.1933  -17.6211   24.2530 O   0  0  0  0  0  0  0  0  0  0  0  0
  -23.4557  -28.9885   23.1744 O   0  0  0  0  0  0  0  0  0  0  0  0
  -22.6826  -27.9185   18.9069 O   0  0  0  0  0  0  0  0  0  0  0  0
  -27.3371  -27.3998   18.1402 O   0  0  0  0  0  0  0  0  0  0  0  0
  -33.1127  -22.6153   22.2361 O   0  0  0  0  0  0  0  0  0  0  0  0
  -25.8547  -11.9168   20.5155 O   0  0  0  0  0  0  0  0  0  0  0  0
  -28.9720  -30.9819   23.6942 O   0  0  0  0  0  0  0  0  0  1  0  0
  -21.9030   -9.6169   23.5974 F   0  0  0  0  0  0  0  0  0  0  0  0
  -26.3731   -9.6706   22.0414 F   0  0  0  0  0  0  0  0  0  0  0  0
  1  2  1  0  0  0  0
  1  5  2  0  0  0  0
  2  6  2  0  0  0  0
  3  8  2  0  0  0  0
  3 17  1  0  0  0  0
  4  9  1  0  0  0  0
  4 17  2  0  0  0  0
  5 19  1  0  0  0  0
  6 21  1  0  0  0  0
  7 10  2  0  0  0  0
  7 20  1  0  0  0  0
  8 24  1  0  0  0  0
  9 24  2  0  0  0  0
 10 25  1  0  0  0  0
 11 12  2  0  0  0  0
 11 26  1  0  0  0  0
 12 27  1  0  0  0  0
 13 22  1  0  0  0  0
 13 25  2  0  0  0  0
 14 23  1  0  0  0  0
 14 30  2  0  0  0  0
 15 27  2  0  0  0  0
 15 28  1  0  0  0  0
 16 23  2  0  0  0  0
 16 66  1  0  0  0  0
 17 29  1  0  0  0  0
 18 29  1  0  0  0  0
 18 31  2  0  0  0  0
 18 32  1  0  0  0  0
 19 21  2  0  0  0  0
 19 37  1  0  0  0  0
 20 22  2  0  0  0  0
 20 38  1  0  0  0  0
 21 49  1  0  0  0  0
 22 39  1  0  0  0  0
 23 58  1  0  0  0  0
 24 83  1  0  0  0  0
 25 84  1  0  0  0  0
 26 28  2  0  0  0  0
 26 83  1  0  0  0  0
 27 85  1  0  0  0  0
 28 86  1  0  0  0  0
 29 65  2  0  0  0  0
 30 66  1  0  0  0  0
 30 72  1  0  0  0  0
 31 67  1  0  0  0  0
 31 70  1  0  0  0  0
 32 71  1  0  0  0  0
 32 78  2  0  0  0  0
 33 50  1  0  0  0  0
 33 73  1  0  0  0  0
 33 79  2  0  0  0  0
 34 62  1  0  0  0  0
 34 68  1  0  0  0  0
 34 80  2  0  0  0  0
 35 63  1  0  0  0  0
 35 74  1  0  0  0  0
 35 81  2  0  0  0  0
 36 69  1  0  0  0  0
 36 75  1  0  0  0  0
 36 82  2  0  0  0  0
 37 40  1  0  0  0  0
 38 50  1  0  0  0  0
 39 68  1  0  0  0  0
 40 43  1  0  0  0  0
 41 45  1  0  0  0  0
 41 46  1  0  0  0  0
 42 44  1  0  0  0  0
 42 47  1  0  0  0  0
 43 49  1  0  0  0  0
 44 51  1  0  0  0  0
 45 52  1  0  0  0  0
 46 52  1  0  0  0  0
 47 69  1  0  0  0  0
 48 51  1  0  0  0  0
 48 69  1  0  0  0  0
 49 73  1  0  0  0  0
 50 68  1  0  0  0  0
 51 67  1  0  0  0  0
 52 72  1  0  0  0  0
 53 63  1  0  0  0  0
 54 64  1  0  0  0  0
 55 64  1  0  0  0  0
 56 64  1  0  0  0  0
 57 77  1  0  0  0  0
 58 75  1  0  0  0  0
 59 60  1  0  0  0  0
 59 61  1  0  0  0  0
 60 66  1  0  0  0  0
 61 76  1  0  0  0  0
 62 64  1  0  0  0  0
 62 74  1  0  0  0  0
 63 77  1  0  0  0  0
 65 67  1  0  0  0  0
 76 84  1  0  0  0  0
M  CHG  1  77   1
M  ISO  4  36 100  75 100  76 101  84 101
M  END
> <Batch ID>
0105

> <Smiles>
CNC(C)C(=O)NC(C(=O)N1Cc2cc([101O:1][101NH:1]CCCn3cc(C[100NH:0][100C:0](=O)N4CCCC(n5nc(-c6ccc(Oc7ccc(F)cc7F)cc6)c(C(N)=O)c5N)C4)cc3NC3CCC3)ccc2CC1C(=O)NC1CCCc2ccccc21)C(C)(C)C

> <Shape>
0.222

> <Color>
0.112

> <Negative vol penalty>
0.000

$$$$

  -OEChem-04052319463D

 83 91  0     1  0  0  0  0  0999 V2000
  -17.8821  -31.0513   21.6746 C   0  0  0  0  0  0  0  0  0  0  0  0
  -19.2621  -31.2164   21.6118 C   0  0  0  0  0  0  0  0  0  0  0  0
  -28.3233  -17.7665   20.8387 C   0  0  0  0  0  0  0  0  0  0  0  0
  -30.5676  -18.0840   21.6749 C   0  0  0  0  0  0  0  0  0  0  0  0
  -17.3448  -29.8242   22.0611 C   0  0  0  0  0  0  0  0  0  0  0  0
  -20.1056  -30.1545   21.9366 C   0  0  0  0  0  0  0  0  0  0  0  0
  -25.5225  -28.8462   19.3967 C   0  0  0  0  0  0  0  0  0  0  0  0
  -28.4533  -16.3887   21.0130 C   0  0  0  0  0  0  0  0  0  0  0  0
  -30.6976  -16.7062   21.8493 C   0  0  0  0  0  0  0  0  0  0  0  0
  -26.8328  -29.1069   19.7953 C   0  0  0  0  0  0  0  0  0  0  0  0
  -28.3254  -12.7562   20.9005 C   0  0  0  0  0  0  0  0  0  0  0  0
  -27.8870  -11.9263   19.8687 C   0  0  0  0  0  0  0  0  0  0  0  0
  -26.9659  -26.9068   20.7756 C   0  0  0  0  0  0  0  0  0  0  0  0
  -29.4635  -12.9665   18.3622 C   0  0  0  0  0  0  0  0  0  0  0  0
  -31.2992  -28.2186   23.2057 C   0  0  0  0  0  0  0  0  0  0  0  0
  -29.3805  -18.6141   21.1696 C   0  0  0  0  0  0  0  0  0  0  0  0
  -28.7661  -20.9716   21.9261 C   0  0  0  0  0  0  0  0  0  0  0  0
  -18.1821  -28.7439   22.3814 C   0  0  0  0  0  0  0  0  0  0  0  0
  -24.9193  -27.6158   19.6946 C   0  0  0  0  0  0  0  0  0  0  0  0
  -19.5790  -28.9122   22.3290 C   0  0  0  0  0  0  0  0  0  0  0  0
  -25.6487  -26.6320   20.3774 C   0  0  0  0  0  0  0  0  0  0  0  0
  -30.8873  -27.8297   21.9502 C   0  0  0  0  0  0  0  0  0  0  0  0
  -31.9970  -27.9652   21.0800 C   0  0  0  0  0  0  0  0  0  0  0  0
  -29.6404  -15.8585   21.5183 C   0  0  0  0  0  0  0  0  0  0  0  0
  -27.5537  -28.1382   20.4874 C   0  0  0  0  0  0  0  0  0  0  0  0
  -29.3328  -13.6914   20.6631 C   0  0  0  0  0  0  0  0  0  0  0  0
  -28.4561  -12.0314   18.5996 C   0  0  0  0  0  0  0  0  0  0  0  0
  -29.9019  -13.7965   19.3940 C   0  0  0  0  0  0  0  0  0  0  0  0
  -29.2471  -20.0374   20.9893 C   0  0  0  0  0  0  0  0  0  0  0  0
  -33.0534  -28.4325   21.8303 C   0  0  0  0  0  0  0  0  0  0  0  0
  -28.8386  -22.1790   21.2753 C   0  0  0  0  0  0  0  0  0  0  0  0
  -28.2958  -20.7664   23.2649 C   0  0  0  0  0  0  0  0  0  0  0  0
  -22.3981  -26.7095   21.4051 C   0  0  0  0  0  0  0  0  0  0  0  0
  -23.0931  -23.7944   20.1633 C   0  0  0  0  0  0  0  0  0  0  0  0
  -25.4242  -21.7056   18.8034 C   0  0  0  0  0  0  0  0  0  0  0  0
  -31.5819  -25.8083   18.0430 C   0  0  0  0  0  0  0  0  0  0  0  0
  -17.5555  -27.4508   22.8395 C   0  0  0  0  0  0  0  0  0  0  0  0
  -23.5141  -27.3403   19.2342 C   0  0  0  0  0  0  0  0  0  0  0  0
  -25.0538  -25.2874   20.7040 C   0  0  0  0  0  0  0  0  0  0  0  0
  -18.5147  -26.2637   22.8058 C   0  0  0  0  0  0  0  0  0  0  0  0
  -29.7206  -23.2493   16.4109 C   0  0  0  0  0  0  0  0  0  0  0  0
  -19.8538  -26.6415   23.4309 C   0  0  0  0  0  0  0  0  0  0  0  0
  -29.3975  -22.2603   17.5322 C   0  0  0  0  0  0  0  0  0  0  0  0
  -31.1078  -23.8641   16.5829 C   0  0  0  0  0  0  0  0  0  0  0  0
  -31.0273  -23.4982   19.0188 C   0  0  0  0  0  0  0  0  0  0  0  0
  -20.5266  -27.7767   22.6498 C   0  0  1  0  0  0  0  0  0  0  0  0
  -22.8250  -26.2445   20.0415 C   0  0  1  0  0  0  0  0  0  0  0  0
  -29.6161  -22.8940   18.9192 C   0  0  2  0  0  0  0  0  0  0  0  0
  -34.3479  -27.9797   24.7660 C   0  0  0  0  0  0  0  0  0  0  0  0
  -34.5227  -29.8893   20.3908 C   0  0  0  0  0  0  0  0  0  0  0  0
  -35.2104  -27.5181   20.9000 C   0  0  0  0  0  0  0  0  0  0  0  0
  -26.3473  -19.6470   17.7045 C   0  0  0  0  0  0  0  0  0  0  0  0
  -23.1223  -22.7232   23.0202 C   0  0  0  0  0  0  0  0  0  0  0  0
  -24.3116  -20.6901   22.1715 C   0  0  0  0  0  0  0  0  0  0  0  0
  -22.0155  -21.2218   21.3543 C   0  0  0  0  0  0  0  0  0  0  0  0
  -24.8781  -22.7657   16.0947 C   0  0  0  0  0  0  0  0  0  0  0  0
  -32.0198  -27.6619   19.6341 C   0  0  0  0  0  0  0  0  0  0  0  0
  -29.5127  -27.3528   21.5836 C   0  0  0  0  0  0  0  0  0  1  0  0
  -33.4120  -29.0519   24.2350 C   0  0  0  0  0  0  0  0  0  0  0  0
  -34.4410  -28.7490   21.4307 C   0  0  0  0  0  0  0  0  0  0  0  0
  -23.9644  -22.6346   20.5811 C   0  0  1  0  0  0  0  0  0  0  0  0
  -25.3850  -20.8173   17.5730 C   0  0  2  0  0  0  0  0  0  0  0  0
  -23.3643  -21.8434   21.7775 C   0  0  0  0  0  0  0  0  0  0  0  0
  -29.5991  -20.6027   19.8314 N   0  0  0  0  0  0  0  0  0  0  0  0
  -32.6178  -28.5826   23.1210 N   0  0  0  0  0  0  0  0  0  0  0  0
  -29.3389  -21.9052   20.0364 N   0  0  0  0  0  0  0  0  0  0  0  0
  -23.6745  -25.0681   20.2381 N   0  0  0  0  0  0  0  0  0  0  0  0
  -31.2496  -24.4492   17.9184 N   0  0  0  0  0  0  0  0  0  0  0  0
  -28.5226  -23.4375   21.6477 N   0  0  0  0  0  0  0  0  0  0  0  0
  -28.2884  -19.4621   23.7779 N   0  0  0  0  0  0  0  0  0  0  0  0
  -21.1340  -27.2665   21.4393 N   0  0  0  0  0  0  0  0  0  0  0  0
  -24.1789  -21.8323   19.3816 N   0  0  0  0  0  0  0  0  0  0  0  0
  -31.6903  -26.2842   19.3440 N   0  0  0  0  0  0  0  0  0  0  0  0
  -25.7569  -21.5974   16.3588 N   0  3  0  0  0  0  0  0  0  0  0  0
  -27.8786  -21.7094   23.9792 O   0  0  0  0  0  0  0  0  0  0  0  0
  -23.1587  -26.5716   22.3560 O   0  0  0  0  0  0  0  0  0  0  0  0
  -21.9416  -23.5777   19.7779 O   0  0  0  0  0  0  0  0  0  0  0  0
  -26.4569  -22.2312   19.2129 O   0  0  0  0  0  0  0  0  0  0  0  0
  -31.7630  -26.5444   17.0671 O   0  0  0  0  0  0  0  0  0  0  0  0
  -29.7675  -14.5141   21.6887 O   0  0  0  0  0  0  0  0  0  0  0  0
  -28.8326  -28.3902   20.8782 O   0  0  0  0  0  0  0  0  0  1  0  0
  -28.0361  -11.2332   17.6092 F   0  0  0  0  0  0  0  0  0  0  0  0
  -30.8708  -14.6922   19.1602 F   0  0  0  0  0  0  0  0  0  0  0  0
  1  2  1  0  0  0  0
  1  5  2  0  0  0  0
  2  6  2  0  0  0  0
  3  8  2  0  0  0  0
  3 16  1  0  0  0  0
  4  9  1  0  0  0  0
  4 16  2  0  0  0  0
  5 18  1  0  0  0  0
  6 20  1  0  0  0  0
  7 10  2  0  0  0  0
  7 19  1  0  0  0  0
  8 24  1  0  0  0  0
  9 24  2  0  0  0  0
 10 25  1  0  0  0  0
 11 12  2  0  0  0  0
 11 26  1  0  0  0  0
 12 27  1  0  0  0  0
 13 21  1  0  0  0  0
 13 25  2  0  0  0  0
 14 27  2  0  0  0  0
 14 28  1  0  0  0  0
 15 22  2  0  0  0  0
 15 65  1  0  0  0  0
 16 29  1  0  0  0  0
 17 29  1  0  0  0  0
 17 31  2  0  0  0  0
 17 32  1  0  0  0  0
 18 20  2  0  0  0  0
 18 37  1  0  0  0  0
 19 21  2  0  0  0  0
 19 38  1  0  0  0  0
 20 46  1  0  0  0  0
 21 39  1  0  0  0  0
 22 23  1  0  0  0  0
 22 58  1  0  0  0  0
 23 30  2  0  0  0  0
 23 57  1  0  0  0  0
 24 80  1  0  0  0  0
 25 81  1  0  0  0  0
 26 28  2  0  0  0  0
 26 80  1  0  0  0  0
 27 82  1  0  0  0  0
 28 83  1  0  0  0  0
 29 64  2  0  0  0  0
 30 60  1  0  0  0  0
 30 65  1  0  0  0  0
 31 66  1  0  0  0  0
 31 69  1  0  0  0  0
 32 70  1  0  0  0  0
 32 75  2  0  0  0  0
 33 47  1  0  0  0  0
 33 71  1  0  0  0  0
 33 76  2  0  0  0  0
 34 61  1  0  0  0  0
 34 67  1  0  0  0  0
 34 77  2  0  0  0  0
 35 62  1  0  0  0  0
 35 72  1  0  0  0  0
 35 78  2  0  0  0  0
 36 68  1  0  0  0  0
 36 73  1  0  0  0  0
 36 79  2  0  0  0  0
 37 40  1  0  0  0  0
 38 47  1  0  0  0  0
 39 67  1  0  0  0  0
 40 42  1  0  0  0  0
 41 43  1  0  0  0  0
 41 44  1  0  0  0  0
 42 46  1  0  0  0  0
 43 48  1  0  0  0  0
 44 68  1  0  0  0  0
 45 48  1  0  0  0  0
 45 68  1  0  0  0  0
 46 71  1  0  0  0  0
 47 67  1  0  0  0  0
 48 66  1  0  0  0  0
 49 59  1  0  0  0  0
 50 60  1  0  0  0  0
 51 60  1  0  0  0  0
 52 62  1  0  0  0  0
 53 63  1  0  0  0  0
 54 63  1  0  0  0  0
 55 63  1  0  0  0  0
 56 74  1  0  0  0  0
 57 73  1  0  0  0  0
 58 81  1  0  0  0  0
 59 65  1  0  0  0  0
 61 63  1  0  0  0  0
 61 72  1  0  0  0  0
 62 74  1  0  0  0  0
 64 66  1  0  0  0  0
M  CHG  1  74   1
M  ISO  4  36 100  58 101  73 100  81 101
M  END
> <Batch ID>
0105

> <Smiles>
CCn1cc([101CH2:1][101O:1]c2ccc3c(c2)CN(C(=O)C(NC(=O)C(C)NC)C(C)(C)C)C(C(=O)NC2CCCc4ccccc42)C3)c(C[100NH:0][100C:0](=O)N2CCCC(n3nc(-c4ccc(Oc5ccc(F)cc5F)cc4)c(C(N)=O)c3N)C2)c1C(C)C

> <Shape>
0.248

> <Color>
0.072

> <Negative vol penalty>
0.000

$$$$

  -OEChem-04052319463D

 86 94  0     1  0  0  0  0  0999 V2000
  -28.7681  -18.4544   21.1746 C   0  0  0  0  0  0  0  0  0  0  0  0
  -29.0997  -17.1069   21.2724 C   0  0  0  0  0  0  0  0  0  0  0  0
  -23.2840   -9.7980   19.9101 C   0  0  0  0  0  0  0  0  0  0  0  0
  -23.7185   -9.9404   22.2824 C   0  0  0  0  0  0  0  0  0  0  0  0
  -29.1881  -19.3477   22.1593 C   0  0  0  0  0  0  0  0  0  0  0  0
  -29.8527  -16.6520   22.3543 C   0  0  0  0  0  0  0  0  0  0  0  0
  -29.3643  -11.2300   25.1595 C   0  0  0  0  0  0  0  0  0  0  0  0
  -22.5509   -8.6291   20.1145 C   0  0  0  0  0  0  0  0  0  0  0  0
  -22.9853   -8.7715   22.4869 C   0  0  0  0  0  0  0  0  0  0  0  0
  -30.0889  -10.0447   25.0424 C   0  0  0  0  0  0  0  0  0  0  0  0
  -20.8665   -5.4095   19.9695 C   0  0  0  0  0  0  0  0  0  0  0  0
  -21.0927   -4.3404   19.1027 C   0  0  0  0  0  0  0  0  0  0  0  0
  -31.4447  -10.6941   26.9290 C   0  0  0  0  0  0  0  0  0  0  0  0
  -23.4107   -4.2807   19.7814 C   0  0  0  0  0  0  0  0  0  0  0  0
  -33.8344  -11.6254   23.8181 C   0  0  0  0  0  0  0  0  0  0  0  0
  -23.8679  -10.4536   20.9941 C   0  0  0  0  0  0  0  0  0  0  0  0
  -24.1401  -12.9821   20.7933 C   0  0  0  0  0  0  0  0  0  0  0  0
  -29.9384  -18.9019   23.2588 C   0  0  0  0  0  0  0  0  0  0  0  0
  -29.6821  -12.1628   26.1572 C   0  0  0  0  0  0  0  0  0  0  0  0
  -30.2843  -17.5404   23.3539 C   0  0  0  0  0  0  0  0  0  0  0  0
  -30.7209  -11.8893   27.0583 C   0  0  0  0  0  0  0  0  0  0  0  0
  -34.0169  -12.2224   22.5903 C   0  0  0  0  0  0  0  0  0  0  0  0
  -34.9799  -11.4577   21.8869 C   0  0  0  0  0  0  0  0  0  0  0  0
  -22.4015   -8.1158   21.4029 C   0  0  0  0  0  0  0  0  0  0  0  0
  -31.1311   -9.7779   25.9254 C   0  0  0  0  0  0  0  0  0  0  0  0
  -21.9124   -5.9144   20.7422 C   0  0  0  0  0  0  0  0  0  0  0  0
  -22.3648   -3.7759   19.0087 C   0  0  0  0  0  0  0  0  0  0  0  0
  -23.1845   -5.3499   20.6481 C   0  0  0  0  0  0  0  0  0  0  0  0
  -24.6258  -11.6608   20.7835 C   0  0  0  0  0  0  0  0  0  0  0  0
  -35.3566  -10.4165   22.7062 C   0  0  0  0  0  0  0  0  0  0  0  0
  -25.2469  -13.7566   20.5449 C   0  0  0  0  0  0  0  0  0  0  0  0
  -22.8077  -13.4661   21.0078 C   0  0  0  0  0  0  0  0  0  0  0  0
  -30.6779  -15.1814   26.1705 C   0  0  0  0  0  0  0  0  0  0  0  0
  -30.2564  -14.8975   29.3742 C   0  0  0  0  0  0  0  0  0  0  0  0
  -30.0730  -12.8556   32.1026 C   0  0  0  0  0  0  0  0  0  0  0  0
  -30.9951  -12.8313   21.5234 C   0  0  0  0  0  0  0  0  0  0  0  0
  -30.4101  -19.9130   24.2736 C   0  0  0  0  0  0  0  0  0  0  0  0
  -28.8735  -13.4245   26.2870 C   0  0  0  0  0  0  0  0  0  0  0  0
  -31.0887  -12.8488   28.1595 C   0  0  0  0  0  0  0  0  0  0  0  0
  -30.8857  -19.2866   25.5819 C   0  0  0  0  0  0  0  0  0  0  0  0
  -29.4881  -13.6268   18.3307 C   0  0  0  0  0  0  0  0  0  0  0  0
  -31.8097  -18.1053   25.3032 C   0  0  0  0  0  0  0  0  0  0  0  0
  -28.0127  -13.3337   18.6093 C   0  0  0  0  0  0  0  0  0  0  0  0
  -30.3941  -12.6218   19.0359 C   0  0  0  0  0  0  0  0  0  0  0  0
  -28.7054  -12.2324   20.7881 C   0  0  0  0  0  0  0  0  0  0  0  0
  -31.0785  -17.0045   24.5253 C   0  0  1  0  0  0  0  0  0  0  0  0
  -29.6170  -14.5381   27.0181 C   0  0  1  0  0  0  0  0  0  0  0  0
  -27.7384  -13.2274   20.1211 C   0  0  2  0  0  0  0  0  0  0  0  0
  -36.3249   -9.3235   22.4758 C   0  0  0  0  0  0  0  0  0  0  0  0
  -29.7580  -12.9170   34.5914 C   0  0  0  0  0  0  0  0  0  0  0  0
  -37.9219  -12.0353   21.2276 C   0  0  0  0  0  0  0  0  0  0  0  0
  -37.1507  -12.9082   19.0124 C   0  0  0  0  0  0  0  0  0  0  0  0
  -31.9701   -7.1371   23.9319 C   0  0  0  0  0  0  0  0  0  0  0  0
  -33.1308  -15.8638   29.7118 C   0  0  0  0  0  0  0  0  0  0  0  0
  -33.0677  -15.0105   32.0647 C   0  0  0  0  0  0  0  0  0  0  0  0
  -31.5079  -16.8233   31.3550 C   0  0  0  0  0  0  0  0  0  0  0  0
  -27.6049  -11.2297   31.9468 C   0  0  0  0  0  0  0  0  0  0  0  0
  -35.4883  -11.7254   20.5257 C   0  0  0  0  0  0  0  0  0  0  0  0
  -33.3295  -13.4368   22.1074 C   0  0  0  0  0  0  0  0  0  0  0  0
  -34.0284   -8.2598   24.8579 C   0  0  0  0  0  0  0  0  0  0  0  0
  -34.7528   -9.5984   25.0602 C   0  0  0  0  0  0  0  0  0  0  0  0
  -31.1226  -14.4639   30.5322 C   0  0  1  0  0  0  0  0  0  0  0  0
  -29.0715  -12.7832   33.2410 C   0  0  2  0  0  0  0  0  0  0  0  0
  -36.7423  -12.6419   20.4634 C   0  0  0  0  0  0  0  0  0  0  0  0
  -32.5261   -8.3979   24.5816 C   0  0  2  0  0  0  0  0  0  1  0  0
  -32.2018  -15.5230   30.8941 C   0  0  0  0  0  0  0  0  0  0  0  0
  -25.9389  -11.5958   20.5474 N   0  0  0  0  0  0  0  0  0  0  0  0
  -34.6537  -10.5283   23.8774 N   0  0  0  0  0  0  0  0  0  0  0  0
  -26.2876  -12.8860   20.4065 N   0  0  0  0  0  0  0  0  0  0  0  0
  -30.2727  -14.0715   28.2414 N   0  0  0  0  0  0  0  0  0  0  0  0
  -30.0946  -12.5828   20.4743 N   0  0  0  0  0  0  0  0  0  0  0  0
  -25.4217  -15.0905   20.4336 N   0  0  0  0  0  0  0  0  0  0  0  0
  -21.7892  -12.5342   21.2495 N   0  0  0  0  0  0  0  0  0  0  0  0
  -30.2240  -16.2425   25.4105 N   0  0  0  0  0  0  0  0  0  0  0  0
  -30.2115  -14.1417   31.6252 N   0  0  0  0  0  0  0  0  0  0  0  0
  -32.2926  -13.1495   21.1413 N   0  0  0  0  0  0  0  0  0  0  0  0
  -28.3451  -11.4823   33.2099 N   0  3  0  0  0  0  0  0  0  0  0  0
  -22.5256  -14.6877   20.9695 O   0  0  0  0  0  0  0  0  0  0  0  0
  -31.8237  -14.7482   26.2047 O   0  0  0  0  0  0  0  0  0  0  0  0
  -29.5845  -15.9272   29.4739 O   0  0  0  0  0  0  0  0  0  0  0  0
  -30.6752  -11.8704   31.6815 O   0  0  0  0  0  0  0  0  0  0  0  0
  -30.6659  -12.7788   22.7133 O   0  0  0  0  0  0  0  0  0  0  0  0
  -21.6860   -6.9754   21.6028 O   0  0  0  0  0  0  0  0  0  0  0  0
  -31.8404   -8.6220   25.8128 O   0  0  0  0  0  0  0  0  0  1  0  0
  -22.5816   -2.7482   18.1775 F   0  0  0  0  0  0  0  0  0  0  0  0
  -24.1929   -5.8298   21.3888 F   0  0  0  0  0  0  0  0  0  0  0  0
  1  2  1  0  0  0  0
  1  5  2  0  0  0  0
  2  6  2  0  0  0  0
  3  8  2  0  0  0  0
  3 16  1  0  0  0  0
  4  9  1  0  0  0  0
  4 16  2  0  0  0  0
  5 18  1  0  0  0  0
  6 20  1  0  0  0  0
  7 10  2  0  0  0  0
  7 19  1  0  0  0  0
  8 24  1  0  0  0  0
  9 24  2  0  0  0  0
 10 25  1  0  0  0  0
 11 12  2  0  0  0  0
 11 26  1  0  0  0  0
 12 27  1  0  0  0  0
 13 21  1  0  0  0  0
 13 25  2  0  0  0  0
 14 27  2  0  0  0  0
 14 28  1  0  0  0  0
 15 22  2  0  0  0  0
 15 68  1  0  0  0  0
 16 29  1  0  0  0  0
 17 29  1  0  0  0  0
 17 31  2  0  0  0  0
 17 32  1  0  0  0  0
 18 20  2  0  0  0  0
 18 37  1  0  0  0  0
 19 21  2  0  0  0  0
 19 38  1  0  0  0  0
 20 46  1  0  0  0  0
 21 39  1  0  0  0  0
 22 23  1  0  0  0  0
 22 59  1  0  0  0  0
 23 30  2  0  0  0  0
 23 58  1  0  0  0  0
 24 83  1  0  0  0  0
 25 84  1  0  0  0  0
 26 28  2  0  0  0  0
 26 83  1  0  0  0  0
 27 85  1  0  0  0  0
 28 86  1  0  0  0  0
 29 67  2  0  0  0  0
 30 49  1  0  0  0  0
 30 68  1  0  0  0  0
 31 69  1  0  0  0  0
 31 72  1  0  0  0  0
 32 73  1  0  0  0  0
 32 78  2  0  0  0  0
 33 47  1  0  0  0  0
 33 74  1  0  0  0  0
 33 79  2  0  0  0  0
 34 62  1  0  0  0  0
 34 70  1  0  0  0  0
 34 80  2  0  0  0  0
 35 63  1  0  0  0  0
 35 75  1  0  0  0  0
 35 81  2  0  0  0  0
 36 71  1  0  0  0  0
 36 76  1  0  0  0  0
 36 82  2  0  0  0  0
 37 40  1  0  0  0  0
 38 47  1  0  0  0  0
 39 70  1  0  0  0  0
 40 42  1  0  0  0  0
 41 43  1  0  0  0  0
 41 44  1  0  0  0  0
 42 46  1  0  0  0  0
 43 48  1  0  0  0  0
 44 71  1  0  0  0  0
 45 48  1  0  0  0  0
 45 71  1  0  0  0  0
 46 74  1  0  0  0  0
 47 70  1  0  0  0  0
 48 69  1  0  0  0  0
 50 63  1  0  0  0  0
 51 64  1  0  0  0  0
 52 64  1  0  0  0  0
 53 65  1  0  0  0  0
 54 66  1  0  0  0  0
 55 66  1  0  0  0  0
 56 66  1  0  0  0  0
 57 77  1  0  0  0  0
 58 64  1  0  0  0  0
 59 76  1  0  0  0  0
 60 61  1  0  0  0  0
 60 65  1  0  0  0  0
 61 68  1  0  0  0  0
 62 66  1  0  0  0  0
 62 75  1  0  0  0  0
 63 77  1  0  0  0  0
 65 84  1  0  0  0  0
 67 69  1  0  0  0  0
M  CHG  1  77   1
M  ISO  4  36 100  65 101  76 100  84 101
M  END
> <Batch ID>
0105

> <Smiles>
CNC(C)C(=O)NC(C(=O)N1Cc2cc([101O:1][101CH:1](C)CCn3cc(C[100NH:0][100C:0](=O)N4CCCC(n5nc(-c6ccc(Oc7ccc(F)cc7F)cc6)c(C(N)=O)c5N)C4)c(CC(C)C)c3C)ccc2CC1C(=O)NC1CCCc2ccccc21)C(C)(C)C

> <Shape>
0.144

> <Color>
0.177

> <Negative vol penalty>
0.000

$$$$

  -OEChem-04052319463D

 88 97  0     1  0  0  0  0  0999 V2000
  -16.7647  -29.5706   23.6600 C   0  0  0  0  0  0  0  0  0  0  0  0
  -17.2711  -28.2754   23.6223 C   0  0  0  0  0  0  0  0  0  0  0  0
  -23.5971  -13.8269   24.9260 C   0  0  0  0  0  0  0  0  0  0  0  0
  -23.2025  -15.5698   23.3000 C   0  0  0  0  0  0  0  0  0  0  0  0
  -17.5481  -30.6373   23.2215 C   0  0  0  0  0  0  0  0  0  0  0  0
  -18.5610  -28.0460   23.1449 C   0  0  0  0  0  0  0  0  0  0  0  0
  -24.1866  -23.7190   24.1179 C   0  0  0  0  0  0  0  0  0  0  0  0
  -22.7655  -14.4843   25.8325 C   0  0  0  0  0  0  0  0  0  0  0  0
  -22.3708  -16.2272   24.2065 C   0  0  0  0  0  0  0  0  0  0  0  0
  -25.0472  -22.8927   23.3967 C   0  0  0  0  0  0  0  0  0  0  0  0
  -22.7203  -18.2162   26.9181 C   0  0  0  0  0  0  0  0  0  0  0  0
  -22.8789  -19.5946   27.0611 C   0  0  0  0  0  0  0  0  0  0  0  0
  -26.3385  -24.8214   22.7394 C   0  0  0  0  0  0  0  0  0  0  0  0
  -20.5902  -19.9303   26.3638 C   0  0  0  0  0  0  0  0  0  0  0  0
  -29.6108  -19.2034   21.2152 C   0  0  0  0  0  0  0  0  0  0  0  0
  -23.8157  -14.3697   23.6597 C   0  0  0  0  0  0  0  0  0  0  0  0
  -24.3004  -12.7214   21.7740 C   0  0  0  0  0  0  0  0  0  0  0  0
  -18.8518  -30.4219   22.7475 C   0  0  0  0  0  0  0  0  0  0  0  0
  -24.3894  -25.1063   24.1464 C   0  0  0  0  0  0  0  0  0  0  0  0
  -19.3622  -29.1106   22.6984 C   0  0  0  0  0  0  0  0  0  0  0  0
  -25.4804  -25.6629   23.4638 C   0  0  0  0  0  0  0  0  0  0  0  0
  -28.7053  -19.9017   19.1298 C   0  0  0  0  0  0  0  0  0  0  0  0
  -29.6770  -19.1967   19.8313 C   0  0  0  0  0  0  0  0  0  0  0  0
  -27.7111  -20.5822   19.8239 C   0  0  0  0  0  0  0  0  0  0  0  0
  -22.1523  -15.6844   25.4728 C   0  0  0  0  0  0  0  0  0  0  0  0
  -26.1217  -23.4441   22.7049 C   0  0  0  0  0  0  0  0  0  0  0  0
  -21.4966  -17.6948   26.4978 C   0  0  0  0  0  0  0  0  0  0  0  0
  -21.8138  -20.4516   26.7841 C   0  0  0  0  0  0  0  0  0  0  0  0
  -20.4316  -18.5519   26.2207 C   0  0  0  0  0  0  0  0  0  0  0  0
  -24.6751  -13.6913   22.7230 C   0  0  0  0  0  0  0  0  0  0  0  0
  -27.7327  -20.5267   21.2082 C   0  0  0  0  0  0  0  0  0  0  0  0
  -25.4723  -12.3936   21.1370 C   0  0  0  0  0  0  0  0  0  0  0  0
  -23.0086  -12.1664   21.4933 C   0  0  0  0  0  0  0  0  0  0  0  0
  -22.7127  -27.6382   23.2074 C   0  0  0  0  0  0  0  0  0  0  0  0
  -25.1048  -29.2751   24.6636 C   0  0  0  0  0  0  0  0  0  0  0  0
  -28.3428  -29.3265   25.7403 C   0  0  0  0  0  0  0  0  0  0  0  0
  -30.6174  -15.3383   20.2956 C   0  0  0  0  0  0  0  0  0  0  0  0
  -19.6437  -31.6009   22.2399 C   0  0  0  0  0  0  0  0  0  0  0  0
  -23.4675  -25.9811   24.9510 C   0  0  0  0  0  0  0  0  0  0  0  0
  -25.7537  -27.1439   23.4793 C   0  0  0  0  0  0  0  0  0  0  0  0
  -21.1369  -31.3165   22.0990 C   0  0  0  0  0  0  0  0  0  0  0  0
  -30.1955  -12.1714   21.8670 C   0  0  0  0  0  0  0  0  0  0  0  0
  -27.5801  -19.9406   15.5425 C   0  0  0  0  0  0  0  0  0  0  0  0
  -21.3621  -29.9804   21.3985 C   0  0  0  0  0  0  0  0  0  0  0  0
  -27.4546  -19.4126   16.9580 C   0  0  0  0  0  0  0  0  0  0  0  0
  -28.6991  -12.1143   22.1789 C   0  0  0  0  0  0  0  0  0  0  0  0
  -30.7541  -13.5823   22.0376 C   0  0  0  0  0  0  0  0  0  0  0  0
  -28.5400  -14.5707   21.5963 C   0  0  0  0  0  0  0  0  0  0  0  0
  -28.0820  -21.3595   15.7296 C   0  0  0  0  0  0  0  0  0  0  0  0
  -20.7658  -28.8243   22.2105 C   0  0  1  0  0  0  0  0  0  0  0  0
  -28.7316  -19.9265   17.6223 C   0  0  1  0  0  0  0  0  0  0  0  0
  -23.4696  -27.4352   24.4894 C   0  0  1  0  0  0  0  0  0  0  0  0
  -27.9196  -13.1792   21.3842 C   0  0  2  0  0  0  0  0  0  0  0  0
  -26.6556  -21.3489   19.1001 C   0  0  0  0  0  0  0  0  0  0  0  0
  -30.3898  -23.1138   16.2297 C   0  0  0  0  0  0  0  0  0  0  0  0
  -30.0232  -30.8169   26.8596 C   0  0  0  0  0  0  0  0  0  0  0  0
  -25.4577  -30.8278   22.0609 C   0  0  0  0  0  0  0  0  0  0  0  0
  -27.6913  -31.5879   22.8986 C   0  0  0  0  0  0  0  0  0  0  0  0
  -25.6177  -32.2170   24.1343 C   0  0  0  0  0  0  0  0  0  0  0  0
  -28.6482  -27.4645   28.0203 C   0  0  0  0  0  0  0  0  0  0  0  0
  -30.7652  -18.4497   19.1407 C   0  0  0  0  0  0  0  0  0  0  0  0
  -26.6855  -21.2402   22.0117 C   0  0  0  0  0  0  0  0  0  1  0  0
  -30.3183  -17.0973   18.5707 C   0  0  0  0  0  0  0  0  0  0  0  0
  -30.3357  -21.7203   16.8167 C   0  0  0  0  0  0  0  0  0  0  0  0
  -26.4405  -29.8283   24.2291 C   0  0  1  0  0  0  0  0  0  0  0  0
  -28.9584  -29.7500   27.0617 C   0  0  2  0  0  0  0  0  0  0  0  0
  -26.2958  -31.0875   23.3286 C   0  0  0  0  0  0  0  0  0  0  0  0
  -28.6603  -19.8526   21.9243 N   0  0  0  0  0  0  0  0  0  0  0  0
  -25.9827  -13.9620   22.6950 N   0  0  0  0  0  0  0  0  0  0  0  0
  -26.4400  -13.1572   21.7208 N   0  0  0  0  0  0  0  0  0  0  0  0
  -24.8204  -27.9582   24.2751 N   0  0  0  0  0  0  0  0  0  0  0  0
  -29.9715  -14.5437   21.2571 N   0  0  0  0  0  0  0  0  0  0  0  0
  -25.7591  -11.5296   20.1402 N   0  0  0  0  0  0  0  0  0  0  0  0
  -21.9117  -12.6151   22.2415 N   0  0  0  0  0  0  0  0  0  0  0  0
  -21.6299  -28.4890   23.3220 N   0  0  0  0  0  0  0  0  0  0  0  0
  -27.2066  -30.0518   25.4504 N   0  0  0  0  0  0  0  0  0  0  0  0
  -29.8012  -16.2186   19.5960 N   0  0  0  0  0  0  0  0  0  0  0  0
  -28.9044  -21.3201   17.0064 N   0  3  1  0  0  0  0  0  0  0  0  0
  -29.5872  -28.5807   27.7386 N   0  3  0  0  0  0  0  0  0  0  0  0
  -22.8349  -11.2864   20.6164 O   0  0  0  0  0  0  0  0  0  0  0  0
  -23.0844  -27.0665   22.1892 O   0  0  0  0  0  0  0  0  0  0  0  0
  -24.3449  -29.9827   25.3295 O   0  0  0  0  0  0  0  0  0  0  0  0
  -28.8241  -28.4434   25.0339 O   0  0  0  0  0  0  0  0  0  0  0  0
  -31.8307  -15.2646   20.0732 O   0  0  0  0  0  0  0  0  0  0  0  0
  -21.3405  -16.3261   26.3570 O   0  0  0  0  0  0  0  0  0  0  0  0
  -26.9629  -22.6399   21.9996 O   0  0  0  0  0  0  0  0  0  1  0  0
  -21.9658  -21.7752   26.9230 F   0  0  0  0  0  0  0  0  0  0  0  0
  -19.2533  -18.0568   25.8178 F   0  0  0  0  0  0  0  0  0  0  0  0
  1  2  1  0  0  0  0
  1  5  2  0  0  0  0
  2  6  2  0  0  0  0
  3  8  2  0  0  0  0
  3 16  1  0  0  0  0
  4  9  1  0  0  0  0
  4 16  2  0  0  0  0
  5 18  1  0  0  0  0
  6 20  1  0  0  0  0
  7 10  2  0  0  0  0
  7 19  1  0  0  0  0
  8 25  1  0  0  0  0
  9 25  2  0  0  0  0
 10 26  1  0  0  0  0
 11 12  2  0  0  0  0
 11 27  1  0  0  0  0
 12 28  1  0  0  0  0
 13 21  1  0  0  0  0
 13 26  2  0  0  0  0
 14 28  2  0  0  0  0
 14 29  1  0  0  0  0
 15 23  2  0  0  0  0
 15 68  1  0  0  0  0
 16 30  1  0  0  0  0
 17 30  1  0  0  0  0
 17 32  2  0  0  0  0
 17 33  1  0  0  0  0
 18 20  2  0  0  0  0
 18 38  1  0  0  0  0
 19 21  2  0  0  0  0
 19 39  1  0  0  0  0
 20 50  1  0  0  0  0
 21 40  1  0  0  0  0
 22 23  1  0  0  0  0
 22 24  2  0  0  0  0
 22 51  1  0  0  0  0
 23 61  1  0  0  0  0
 24 31  1  0  0  0  0
 24 54  1  0  0  0  0
 25 85  1  0  0  0  0
 26 86  1  0  0  0  0
 27 29  2  0  0  0  0
 27 85  1  0  0  0  0
 28 87  1  0  0  0  0
 29 88  1  0  0  0  0
 30 69  2  0  0  0  0
 31 62  1  0  0  0  0
 31 68  2  0  0  0  0
 32 70  1  0  0  0  0
 32 73  1  0  0  0  0
 33 74  1  0  0  0  0
 33 80  2  0  0  0  0
 34 52  1  0  0  0  0
 34 75  1  0  0  0  0
 34 81  2  0  0  0  0
 35 65  1  0  0  0  0
 35 71  1  0  0  0  0
 35 82  2  0  0  0  0
 36 66  1  0  0  0  0
 36 76  1  0  0  0  0
 36 83  2  0  0  0  0
 37 72  1  0  0  0  0
 37 77  1  0  0  0  0
 37 84  2  0  0  0  0
 38 41  1  0  0  0  0
 39 52  1  0  0  0  0
 40 71  1  0  0  0  0
 41 44  1  0  0  0  0
 42 46  1  0  0  0  0
 42 47  1  0  0  0  0
 43 45  1  0  0  0  0
 43 49  1  0  0  0  0
 44 50  1  0  0  0  0
 45 51  1  0  0  0  0
 46 53  1  0  0  0  0
 47 72  1  0  0  0  0
 48 53  1  0  0  0  0
 48 72  1  0  0  0  0
 49 78  1  0  0  0  0
 50 75  1  0  0  0  0
 51 78  1  0  0  0  0
 52 71  1  0  0  0  0
 53 70  1  0  0  0  0
 55 64  1  0  0  0  0
 56 66  1  0  0  0  0
 57 67  1  0  0  0  0
 58 67  1  0  0  0  0
 59 67  1  0  0  0  0
 60 79  1  0  0  0  0
 61 63  1  0  0  0  0
 62 86  1  0  0  0  0
 63 77  1  0  0  0  0
 64 78  1  0  0  0  0
 65 67  1  0  0  0  0
 65 76  1  0  0  0  0
 66 79  1  0  0  0  0
 69 70  1  0  0  0  0
M  CHG  2  78   1  79   1
M  ISO  4  37 100  62 101  77 100  86 101
M  END
> <Batch ID>
0105

> <Smiles>
CCN1CCCC1c1c(CC[100NH:0][100C:0](=O)N2CCCC(n3nc(-c4ccc(Oc5ccc(F)cc5F)cc4)c(C(N)=O)c3N)C2)cnc([101CH2:1][101O:1]c2ccc3c(c2)CN(C(=O)C(NC(=O)C(C)NC)C(C)(C)C)C(C(=O)NC2CCCc4ccccc42)C3)c1C

> <Shape>
0.209

> <Color>
0.066

> <Negative vol penalty>
0.000

$$$$

  -OEChem-04052319463D

 86 94  0     1  0  0  0  0  0999 V2000
  -27.9453  -31.2108   27.4808 C   0  0  0  0  0  0  0  0  0  0  0  0
  -28.4173  -30.1968   26.6535 C   0  0  0  0  0  0  0  0  0  0  0  0
  -26.5039  -12.1356   21.7024 C   0  0  0  0  0  0  0  0  0  0  0  0
  -25.9585  -13.0238   19.5228 C   0  0  0  0  0  0  0  0  0  0  0  0
  -26.6032  -31.5848   27.4272 C   0  0  0  0  0  0  0  0  0  0  0  0
  -27.5471  -29.5554   25.7728 C   0  0  0  0  0  0  0  0  0  0  0  0
  -28.8766  -27.4109   20.1925 C   0  0  0  0  0  0  0  0  0  0  0  0
  -25.3129  -11.4095   21.7045 C   0  0  0  0  0  0  0  0  0  0  0  0
  -24.7675  -12.2978   19.5249 C   0  0  0  0  0  0  0  0  0  0  0  0
  -29.1874  -26.1337   19.7280 C   0  0  0  0  0  0  0  0  0  0  0  0
  -22.0345  -12.0047   22.2725 C   0  0  0  0  0  0  0  0  0  0  0  0
  -21.2688  -12.0206   23.4382 C   0  0  0  0  0  0  0  0  0  0  0  0
  -26.8800  -25.8050   19.1058 C   0  0  0  0  0  0  0  0  0  0  0  0
  -26.7824  -21.2299   19.5682 C   0  0  0  0  0  0  0  0  0  0  0  0
  -21.4778   -9.6197   23.6083 C   0  0  0  0  0  0  0  0  0  0  0  0
  -26.8267  -12.9428   20.6115 C   0  0  0  0  0  0  0  0  0  0  0  0
  -29.3088  -13.2717   20.1234 C   0  0  0  0  0  0  0  0  0  0  0  0
  -25.7182  -30.9541   26.5384 C   0  0  0  0  0  0  0  0  0  0  0  0
  -27.5608  -27.8915   20.1270 C   0  0  0  0  0  0  0  0  0  0  0  0
  -26.1916  -29.9203   25.7081 C   0  0  0  0  0  0  0  0  0  0  0  0
  -26.5556  -27.0897   19.5678 C   0  0  0  0  0  0  0  0  0  0  0  0
  -25.8045  -20.9740   20.5724 C   0  0  0  0  0  0  0  0  0  0  0  0
  -24.4447  -11.4906   20.6158 C   0  0  0  0  0  0  0  0  0  0  0  0
  -28.1885  -25.3294   19.1871 C   0  0  0  0  0  0  0  0  0  0  0  0
  -22.5218  -10.7962   21.7746 C   0  0  0  0  0  0  0  0  0  0  0  0
  -20.9904  -10.8282   24.1062 C   0  0  0  0  0  0  0  0  0  0  0  0
  -22.2435   -9.6037   22.4425 C   0  0  0  0  0  0  0  0  0  0  0  0
  -28.0565  -13.6934   20.6089 C   0  0  0  0  0  0  0  0  0  0  0  0
  -28.0054  -21.5605   20.1091 C   0  0  0  0  0  0  0  0  0  0  0  0
  -26.3176  -21.1185   21.8428 C   0  0  0  0  0  0  0  0  0  0  0  0
  -30.1421  -14.3400   20.3493 C   0  0  0  0  0  0  0  0  0  0  0  0
  -29.6852  -12.0258   19.5220 C   0  0  0  0  0  0  0  0  0  0  0  0
  -25.4049  -28.8259   22.2677 C   0  0  0  0  0  0  0  0  0  0  0  0
  -23.7087  -29.6432   19.6263 C   0  0  0  0  0  0  0  0  0  0  0  0
  -23.1253  -29.1713   16.2970 C   0  0  0  0  0  0  0  0  0  0  0  0
  -26.4090  -17.8406   22.0899 C   0  0  0  0  0  0  0  0  0  0  0  0
  -24.2658  -31.3603   26.5499 C   0  0  0  0  0  0  0  0  0  0  0  0
  -27.2469  -29.2817   20.6079 C   0  0  0  0  0  0  0  0  0  0  0  0
  -25.1313  -27.5664   19.4561 C   0  0  0  0  0  0  0  0  0  0  0  0
  -23.4913  -30.8870   25.3225 C   0  0  0  0  0  0  0  0  0  0  0  0
  -29.3731  -16.7356   23.9061 C   0  0  0  0  0  0  0  0  0  0  0  0
  -23.7960  -29.4209   25.0317 C   0  0  0  0  0  0  0  0  0  0  0  0
  -30.4181  -16.6768   22.7977 C   0  0  0  0  0  0  0  0  0  0  0  0
  -28.3843  -17.8799   23.7003 C   0  0  0  0  0  0  0  0  0  0  0  0
  -28.7322  -17.7768   21.2405 C   0  0  0  0  0  0  0  0  0  0  0  0
  -25.2840  -29.2176   24.7219 C   0  0  1  0  0  0  0  0  0  0  0  0
  -25.7758  -29.4730   20.9634 C   0  0  1  0  0  0  0  0  0  0  0  0
  -29.8058  -16.6842   21.3881 C   0  0  2  0  0  0  0  0  0  0  0  0
  -24.4024  -20.5976   20.2721 C   0  0  0  0  0  0  0  0  0  0  0  0
  -21.6510  -29.9575   14.4246 C   0  0  0  0  0  0  0  0  0  0  0  0
  -24.3774  -15.6913   23.3593 C   0  0  0  0  0  0  0  0  0  0  0  0
  -24.0840  -17.2612   25.2843 C   0  0  0  0  0  0  0  0  0  0  0  0
  -22.1590  -16.7960   23.7604 C   0  0  0  0  0  0  0  0  0  0  0  0
  -21.4091  -27.9755   20.7400 C   0  0  0  0  0  0  0  0  0  0  0  0
  -20.3717  -28.0114   18.4617 C   0  0  0  0  0  0  0  0  0  0  0  0
  -20.7188  -30.1454   19.7059 C   0  0  0  0  0  0  0  0  0  0  0  0
  -25.4360  -30.1755   14.7443 C   0  0  0  0  0  0  0  0  0  0  0  0
  -29.2886  -21.9000   19.3906 C   0  0  0  0  0  0  0  0  0  0  0  0
  -25.6364  -20.9443   23.1455 C   0  0  0  0  0  0  0  0  0  0  0  0
  -25.9454  -19.6067   23.8387 C   0  0  0  0  0  0  0  0  0  0  0  0
  -24.1314  -18.1849   22.9613 C   0  0  0  0  0  0  0  0  0  0  0  0
  -29.5654  -23.3994   19.3754 C   0  0  0  0  0  0  0  0  0  1  0  0
  -22.7163  -28.9391   18.7328 C   0  0  1  0  0  0  0  0  0  0  0  0
  -22.9718  -30.1559   15.1518 C   0  0  2  0  0  0  0  0  0  0  0  0
  -23.6843  -16.9834   23.8235 C   0  0  0  0  0  0  0  0  0  0  0  0
  -21.3303  -28.7578   19.4139 C   0  0  0  0  0  0  0  0  0  0  0  0
  -28.0869  -14.9328   21.1058 N   0  0  0  0  0  0  0  0  0  0  0  0
  -29.3685  -15.2991   20.9339 N   0  0  0  0  0  0  0  0  0  0  0  0
  -24.8732  -28.9307   19.9458 N   0  0  0  0  0  0  0  0  0  0  0  0
  -27.7880  -17.8563   22.3584 N   0  0  0  0  0  0  0  0  0  0  0  0
  -31.4538  -14.5430   20.1030 N   0  0  0  0  0  0  0  0  0  0  0  0
  -28.7049  -11.0366   19.3650 N   0  0  0  0  0  0  0  0  0  0  0  0
  -25.5811  -29.6404   23.3700 N   0  0  0  0  0  0  0  0  0  0  0  0
  -22.6757  -29.6998   17.4886 N   0  0  0  0  0  0  0  0  0  0  0  0
  -25.5597  -18.4622   23.0163 N   0  0  0  0  0  0  0  0  0  0  0  0
  -24.0795  -29.9847   14.1696 N   0  3  0  0  0  0  0  0  0  0  0  0
  -30.8599  -11.7905   19.1502 O   0  0  0  0  0  0  0  0  0  0  0  0
  -24.9883  -27.6735   22.2735 O   0  0  0  0  0  0  0  0  0  0  0  0
  -23.4632  -30.7861   20.0201 O   0  0  0  0  0  0  0  0  0  0  0  0
  -23.5935  -28.0447   16.1486 O   0  0  0  0  0  0  0  0  0  0  0  0
  -25.9538  -17.2946   21.0759 O   0  0  0  0  0  0  0  0  0  0  0  0
  -23.2826  -10.7821   20.6175 O   0  0  0  0  0  0  0  0  0  0  0  0
  -28.4891  -24.0821   18.7336 O   0  0  0  0  0  0  0  0  0  1  0  0
  -20.2564  -10.8438   25.2265 F   0  0  0  0  0  0  0  0  0  0  0  0
  -22.7099   -8.4398   21.9697 F   0  0  0  0  0  0  0  0  0  0  0  0
  -27.9716  -21.5613   21.8212 S   0  0  0  0  0  0  0  0  0  0  0  0
  1  2  1  0  0  0  0
  1  5  2  0  0  0  0
  2  6  2  0  0  0  0
  3  8  2  0  0  0  0
  3 16  1  0  0  0  0
  4  9  1  0  0  0  0
  4 16  2  0  0  0  0
  5 18  1  0  0  0  0
  6 20  1  0  0  0  0
  7 10  2  0  0  0  0
  7 19  1  0  0  0  0
  8 23  1  0  0  0  0
  9 23  2  0  0  0  0
 10 24  1  0  0  0  0
 11 12  2  0  0  0  0
 11 25  1  0  0  0  0
 12 26  1  0  0  0  0
 13 21  1  0  0  0  0
 13 24  2  0  0  0  0
 14 22  1  0  0  0  0
 14 29  2  0  0  0  0
 15 26  2  0  0  0  0
 15 27  1  0  0  0  0
 16 28  1  0  0  0  0
 17 28  1  0  0  0  0
 17 31  2  0  0  0  0
 17 32  1  0  0  0  0
 18 20  2  0  0  0  0
 18 37  1  0  0  0  0
 19 21  2  0  0  0  0
 19 38  1  0  0  0  0
 20 46  1  0  0  0  0
 21 39  1  0  0  0  0
 22 30  2  0  0  0  0
 22 49  1  0  0  0  0
 23 82  1  0  0  0  0
 24 83  1  0  0  0  0
 25 27  2  0  0  0  0
 25 82  1  0  0  0  0
 26 84  1  0  0  0  0
 27 85  1  0  0  0  0
 28 67  2  0  0  0  0
 29 58  1  0  0  0  0
 29 86  1  0  0  0  0
 30 59  1  0  0  0  0
 30 86  1  0  0  0  0
 31 68  1  0  0  0  0
 31 71  1  0  0  0  0
 32 72  1  0  0  0  0
 32 77  2  0  0  0  0
 33 47  1  0  0  0  0
 33 73  1  0  0  0  0
 33 78  2  0  0  0  0
 34 63  1  0  0  0  0
 34 69  1  0  0  0  0
 34 79  2  0  0  0  0
 35 64  1  0  0  0  0
 35 74  1  0  0  0  0
 35 80  2  0  0  0  0
 36 70  1  0  0  0  0
 36 75  1  0  0  0  0
 36 81  2  0  0  0  0
 37 40  1  0  0  0  0
 38 47  1  0  0  0  0
 39 69  1  0  0  0  0
 40 42  1  0  0  0  0
 41 43  1  0  0  0  0
 41 44  1  0  0  0  0
 42 46  1  0  0  0  0
 43 48  1  0  0  0  0
 44 70  1  0  0  0  0
 45 48  1  0  0  0  0
 45 70  1  0  0  0  0
 46 73  1  0  0  0  0
 47 69  1  0  0  0  0
 48 68  1  0  0  0  0
 50 64  1  0  0  0  0
 51 65  1  0  0  0  0
 52 65  1  0  0  0  0
 53 65  1  0  0  0  0
 54 66  1  0  0  0  0
 55 66  1  0  0  0  0
 56 66  1  0  0  0  0
 57 76  1  0  0  0  0
 58 62  1  0  0  0  0
 59 60  1  0  0  0  0
 60 75  1  0  0  0  0
 61 65  1  0  0  0  0
 61 75  1  0  0  0  0
 62 83  1  0  0  0  0
 63 66  1  0  0  0  0
 63 74  1  0  0  0  0
 64 76  1  0  0  0  0
 67 68  1  0  0  0  0
M  CHG  1  76   1
M  ISO  4  36 100  62 101  75 100  83 101
M  END
> <Batch ID>
0105

> <Smiles>
CNC(C)C(=O)NC(C(=O)N1Cc2cc([101O:1][101CH2:1]Cc3cc(C)c(CC[100N:0](CC(C)(C)C)[100C:0](=O)N4CCCC(n5nc(-c6ccc(Oc7ccc(F)cc7F)cc6)c(C(N)=O)c5N)C4)s3)ccc2CC1C(=O)NC1CCCc2ccccc21)C(C)(C)C

> <Shape>
0.264

> <Color>
0.056

> <Negative vol penalty>
0.000

$$$$

  -OEChem-04052319463D

 83 91  0     1  0  0  0  0  0999 V2000
  -23.7606  -30.9219   21.5885 C   0  0  0  0  0  0  0  0  0  0  0  0
  -23.6745  -29.6095   21.1352 C   0  0  0  0  0  0  0  0  0  0  0  0
  -23.3180   -9.8503   19.7673 C   0  0  0  0  0  0  0  0  0  0  0  0
  -23.8230   -9.7410   22.1274 C   0  0  0  0  0  0  0  0  0  0  0  0
  -24.9595  -31.6231   21.4667 C   0  0  0  0  0  0  0  0  0  0  0  0
  -24.7871  -28.9977   20.5589 C   0  0  0  0  0  0  0  0  0  0  0  0
  -26.3730  -23.0972   20.9763 C   0  0  0  0  0  0  0  0  0  0  0  0
  -22.6286   -8.6412   19.8588 C   0  0  0  0  0  0  0  0  0  0  0  0
  -23.1335   -8.5319   22.2189 C   0  0  0  0  0  0  0  0  0  0  0  0
  -26.1933  -22.0145   20.1165 C   0  0  0  0  0  0  0  0  0  0  0  0
  -19.9183   -7.5076   22.4032 C   0  0  0  0  0  0  0  0  0  0  0  0
  -19.0433   -7.3419   23.4767 C   0  0  0  0  0  0  0  0  0  0  0  0
  -28.4096  -22.3593   19.2288 C   0  0  0  0  0  0  0  0  0  0  0  0
  -20.3219   -5.4331   24.2243 C   0  0  0  0  0  0  0  0  0  0  0  0
  -23.9153  -10.4002   20.9016 C   0  0  0  0  0  0  0  0  0  0  0  0
  -24.1019  -12.9431   20.9804 C   0  0  0  0  0  0  0  0  0  0  0  0
  -26.0902  -31.0164   20.8973 C   0  0  0  0  0  0  0  0  0  0  0  0
  -27.5702  -23.8270   20.9612 C   0  0  0  0  0  0  0  0  0  0  0  0
  -26.0020  -29.6918   20.4281 C   0  0  0  0  0  0  0  0  0  0  0  0
  -28.6030  -23.4493   20.0912 C   0  0  0  0  0  0  0  0  0  0  0  0
  -22.5363   -7.9820   21.0846 C   0  0  0  0  0  0  0  0  0  0  0  0
  -27.2106  -21.6472   19.2405 C   0  0  0  0  0  0  0  0  0  0  0  0
  -20.9951   -6.6360   22.2401 C   0  0  0  0  0  0  0  0  0  0  0  0
  -19.2451   -6.3047   24.3872 C   0  0  0  0  0  0  0  0  0  0  0  0
  -21.1969   -5.5988   23.1507 C   0  0  0  0  0  0  0  0  0  0  0  0
  -24.6281  -11.6488   20.8077 C   0  0  0  0  0  0  0  0  0  0  0  0
  -25.1755  -13.7784   20.7902 C   0  0  0  0  0  0  0  0  0  0  0  0
  -22.7625  -13.3536   21.2855 C   0  0  0  0  0  0  0  0  0  0  0  0
  -28.3515  -26.8419   20.3256 C   0  0  0  0  0  0  0  0  0  0  0  0
  -31.2858  -25.8821   21.3212 C   0  0  0  0  0  0  0  0  0  0  0  0
  -33.4880  -23.3192   21.7993 C   0  0  0  0  0  0  0  0  0  0  0  0
  -29.6390  -14.9664   17.4703 C   0  0  0  0  0  0  0  0  0  0  0  0
  -27.3508  -31.8300   20.7440 C   0  0  0  0  0  0  0  0  0  0  0  0
  -27.7586  -24.9758   21.9137 C   0  0  0  0  0  0  0  0  0  0  0  0
  -29.9151  -24.1876   20.0501 C   0  0  0  0  0  0  0  0  0  0  0  0
  -28.5906  -30.9851   20.4625 C   0  0  0  0  0  0  0  0  0  0  0  0
  -30.1140  -12.7958   20.4356 C   0  0  0  0  0  0  0  0  0  0  0  0
  -28.2985  -29.9533   19.3777 C   0  0  0  0  0  0  0  0  0  0  0  0
  -28.6863  -12.3556   20.7549 C   0  0  0  0  0  0  0  0  0  0  0  0
  -30.2927  -13.1049   18.9526 C   0  0  0  0  0  0  0  0  0  0  0  0
  -28.6594  -16.3607   15.6750 C   0  0  0  0  0  0  0  0  0  0  0  0
  -27.8915  -13.6649   18.7454 C   0  0  0  0  0  0  0  0  0  0  0  0
  -27.7621  -16.6005   17.9585 C   0  0  0  0  0  0  0  0  0  0  0  0
  -29.0261  -17.8349   15.6201 C   0  0  0  0  0  0  0  0  0  0  0  0
  -27.1941  -28.9856   19.8197 C   0  0  1  0  0  0  0  0  0  0  0  0
  -28.8230  -25.9664   21.4521 C   0  0  1  0  0  0  0  0  0  0  0  0
  -27.6674  -13.3866   20.2396 C   0  0  1  0  0  0  0  0  0  0  0  0
  -28.1007  -18.0988   17.9764 C   0  0  1  0  0  0  0  0  0  0  0  0
  -35.8223  -22.8498   22.5917 C   0  0  0  0  0  0  0  0  0  0  0  0
  -30.7264  -18.3036   20.8804 C   0  0  0  0  0  0  0  0  0  0  0  0
  -28.2652  -18.7569   20.8875 C   0  0  0  0  0  0  0  0  0  0  0  0
  -25.7942  -20.5390   16.3308 C   0  0  0  0  0  0  0  0  0  0  0  0
  -32.3930  -26.9588   18.6897 C   0  0  0  0  0  0  0  0  0  0  0  0
  -34.4803  -25.6416   19.1095 C   0  0  0  0  0  0  0  0  0  0  0  0
  -33.8070  -27.4468   20.6939 C   0  0  0  0  0  0  0  0  0  0  0  0
  -32.5186  -21.5899   23.9968 C   0  0  0  0  0  0  0  0  0  0  0  0
  -29.4193  -18.3865   18.6939 C   0  0  0  0  0  0  0  0  0  0  0  0
  -28.3118  -20.0946   16.4198 C   0  0  0  0  0  0  0  0  0  0  0  0
  -32.4991  -25.2836   20.6514 C   0  0  1  0  0  0  0  0  0  0  0  0
  -34.3570  -22.9461   22.9868 C   0  0  2  0  0  0  0  0  0  0  0  0
  -29.3982  -18.0076   20.1824 C   0  0  0  0  0  0  0  0  0  0  0  0
  -27.1253  -20.8585   16.9986 C   0  0  2  0  0  0  0  0  0  1  0  0
  -33.2695  -26.3198   19.7853 C   0  0  0  0  0  0  0  0  0  0  0  0
  -25.9343  -11.6562   20.5290 N   0  0  0  0  0  0  0  0  0  0  0  0
  -26.2380  -12.9653   20.5251 N   0  0  0  0  0  0  0  0  0  0  0  0
  -30.0487  -25.3075   20.9964 N   0  0  0  0  0  0  0  0  0  0  0  0
  -29.2847  -14.0518   18.4755 N   0  0  0  0  0  0  0  0  0  0  0  0
  -28.6452  -15.8618   17.0475 N   0  0  0  0  0  0  0  0  0  0  0  0
  -25.3049  -15.1217   20.8255 N   0  0  0  0  0  0  0  0  0  0  0  0
  -21.7817  -12.3658   21.4488 N   0  0  0  0  0  0  0  0  0  0  0  0
  -27.7231  -28.0010   20.7391 N   0  0  0  0  0  0  0  0  0  0  0  0
  -33.2971  -24.6821   21.7143 N   0  0  0  0  0  0  0  0  0  0  0  0
  -28.1096  -18.6087   16.5414 N   0  3  1  0  0  0  0  0  0  0  0  0
  -33.9335  -21.6311   23.5457 N   0  3  0  0  0  0  0  0  0  0  0  0
  -22.4413  -14.5614   21.3935 O   0  0  0  0  0  0  0  0  0  0  0  0
  -28.5449  -26.4924   19.1671 O   0  0  0  0  0  0  0  0  0  0  0  0
  -31.4310  -26.8200   22.1091 O   0  0  0  0  0  0  0  0  0  0  0  0
  -33.0280  -22.4853   21.0225 O   0  0  0  0  0  0  0  0  0  0  0  0
  -30.7775  -14.9855   16.9857 O   0  0  0  0  0  0  0  0  0  0  0  0
  -21.8634   -6.8023   21.1743 O   0  0  0  0  0  0  0  0  0  0  0  0
  -27.0365  -20.5851   18.3949 O   0  0  0  0  0  0  0  0  0  1  0  0
  -18.4056   -6.1467   25.4190 F   0  0  0  0  0  0  0  0  0  0  0  0
  -22.2303   -4.7590   23.0000 F   0  0  0  0  0  0  0  0  0  0  0  0
  1  2  1  0  0  0  0
  1  5  2  0  0  0  0
  2  6  2  0  0  0  0
  3  8  2  0  0  0  0
  3 15  1  0  0  0  0
  4  9  1  0  0  0  0
  4 15  2  0  0  0  0
  5 17  1  0  0  0  0
  6 19  1  0  0  0  0
  7 10  2  0  0  0  0
  7 18  1  0  0  0  0
  8 21  1  0  0  0  0
  9 21  2  0  0  0  0
 10 22  1  0  0  0  0
 11 12  2  0  0  0  0
 11 23  1  0  0  0  0
 12 24  1  0  0  0  0
 13 20  1  0  0  0  0
 13 22  2  0  0  0  0
 14 24  2  0  0  0  0
 14 25  1  0  0  0  0
 15 26  1  0  0  0  0
 16 26  1  0  0  0  0
 16 27  2  0  0  0  0
 16 28  1  0  0  0  0
 17 19  2  0  0  0  0
 17 33  1  0  0  0  0
 18 20  2  0  0  0  0
 18 34  1  0  0  0  0
 19 45  1  0  0  0  0
 20 35  1  0  0  0  0
 21 80  1  0  0  0  0
 22 81  1  0  0  0  0
 23 25  2  0  0  0  0
 23 80  1  0  0  0  0
 24 82  1  0  0  0  0
 25 83  1  0  0  0  0
 26 64  2  0  0  0  0
 27 65  1  0  0  0  0
 27 69  1  0  0  0  0
 28 70  1  0  0  0  0
 28 75  2  0  0  0  0
 29 46  1  0  0  0  0
 29 71  1  0  0  0  0
 29 76  2  0  0  0  0
 30 59  1  0  0  0  0
 30 66  1  0  0  0  0
 30 77  2  0  0  0  0
 31 60  1  0  0  0  0
 31 72  1  0  0  0  0
 31 78  2  0  0  0  0
 32 67  1  0  0  0  0
 32 68  1  0  0  0  0
 32 79  2  0  0  0  0
 33 36  1  0  0  0  0
 34 46  1  0  0  0  0
 35 66  1  0  0  0  0
 36 38  1  0  0  0  0
 37 39  1  0  0  0  0
 37 40  1  0  0  0  0
 38 45  1  0  0  0  0
 39 47  1  0  0  0  0
 40 67  1  0  0  0  0
 41 44  1  0  0  0  0
 41 68  1  0  0  0  0
 42 47  1  0  0  0  0
 42 67  1  0  0  0  0
 43 48  1  0  0  0  0
 43 68  1  0  0  0  0
 44 73  1  0  0  0  0
 45 71  1  0  0  0  0
 46 66  1  0  0  0  0
 47 65  1  0  0  0  0
 48 57  1  0  0  0  0
 48 73  1  0  0  0  0
 49 60  1  0  0  0  0
 50 61  1  0  0  0  0
 51 61  1  0  0  0  0
 52 62  1  0  0  0  0
 53 63  1  0  0  0  0
 54 63  1  0  0  0  0
 55 63  1  0  0  0  0
 56 74  1  0  0  0  0
 57 61  1  0  0  0  0
 58 62  1  0  0  0  0
 58 73  1  0  0  0  0
 59 63  1  0  0  0  0
 59 72  1  0  0  0  0
 60 74  1  0  0  0  0
 62 81  1  0  0  0  0
 64 65  1  0  0  0  0
M  CHG  2  73   1  74   1
M  ISO  4  32 100  62 101  68 100  81 101
M  END
> <Batch ID>
0105

> <Smiles>
CNC(C)C(=O)NC(C(=O)N1Cc2cc([101O:1][101CH:1](C)CN3CC[100N:0]([100C:0](=O)N4CCCC(n5nc(-c6ccc(Oc7ccc(F)cc7F)cc6)c(C(N)=O)c5N)C4)CC3CC(C)C)ccc2CC1C(=O)NC1CCCc2ccccc21)C(C)(C)C

> <Shape>
0.277

> <Color>
0.188

> <Negative vol penalty>
0.000

$$$$

  -OEChem-04052319463D

 89 97  0     1  0  0  0  0  0999 V2000
  -16.8872  -28.5471   24.3647 C   0  0  0  0  0  0  0  0  0  0  0  0
  -17.5557  -27.6979   23.4886 C   0  0  0  0  0  0  0  0  0  0  0  0
  -27.4690  -11.0150   20.6002 C   0  0  0  0  0  0  0  0  0  0  0  0
  -26.9160  -12.5813   18.8458 C   0  0  0  0  0  0  0  0  0  0  0  0
  -17.2428  -29.8933   24.4362 C   0  0  0  0  0  0  0  0  0  0  0  0
  -18.5795  -28.1948   22.6828 C   0  0  0  0  0  0  0  0  0  0  0  0
  -22.6344  -25.1623   22.6031 C   0  0  0  0  0  0  0  0  0  0  0  0
  -26.3203  -10.2804   20.3065 C   0  0  0  0  0  0  0  0  0  0  0  0
  -25.7672  -11.8466   18.5520 C   0  0  0  0  0  0  0  0  0  0  0  0
  -22.5635  -24.0252   21.7995 C   0  0  0  0  0  0  0  0  0  0  0  0
  -23.3436   -8.1923   20.2553 C   0  0  0  0  0  0  0  0  0  0  0  0
  -22.5557   -7.7631   21.3233 C   0  0  0  0  0  0  0  0  0  0  0  0
  -23.8378  -25.1588   20.0935 C   0  0  0  0  0  0  0  0  0  0  0  0
  -27.6544  -22.0396   17.3846 C   0  0  0  0  0  0  0  0  0  0  0  0
  -27.3054  -20.8380   19.4512 C   0  0  0  0  0  0  0  0  0  0  0  0
  -22.2139  -10.0589   21.9938 C   0  0  0  0  0  0  0  0  0  0  0  0
  -27.7669  -12.1655   19.8699 C   0  0  0  0  0  0  0  0  0  0  0  0
  -30.2357  -12.7564   19.6180 C   0  0  0  0  0  0  0  0  0  0  0  0
  -18.2780  -30.4049   23.6378 C   0  0  0  0  0  0  0  0  0  0  0  0
  -23.2994  -26.3118   22.1528 C   0  0  0  0  0  0  0  0  0  0  0  0
  -18.9483  -29.5494   22.7427 C   0  0  0  0  0  0  0  0  0  0  0  0
  -23.9180  -26.3082   20.8944 C   0  0  0  0  0  0  0  0  0  0  0  0
  -26.8567  -21.2255   18.1886 C   0  0  0  0  0  0  0  0  0  0  0  0
  -28.9009  -22.4661   17.8431 C   0  0  0  0  0  0  0  0  0  0  0  0
  -28.5518  -21.2645   19.9098 C   0  0  0  0  0  0  0  0  0  0  0  0
  -29.3496  -22.0785   19.1057 C   0  0  0  0  0  0  0  0  0  0  0  0
  -25.4694  -10.6961   19.2824 C   0  0  0  0  0  0  0  0  0  0  0  0
  -23.1627  -24.0243   20.5433 C   0  0  0  0  0  0  0  0  0  0  0  0
  -23.5667   -9.5548   20.0566 C   0  0  0  0  0  0  0  0  0  0  0  0
  -21.9908   -8.6964   22.1925 C   0  0  0  0  0  0  0  0  0  0  0  0
  -23.0018  -10.4881   20.9258 C   0  0  0  0  0  0  0  0  0  0  0  0
  -28.9531  -12.9252   20.1732 C   0  0  0  0  0  0  0  0  0  0  0  0
  -31.0041  -13.7157   20.2310 C   0  0  0  0  0  0  0  0  0  0  0  0
  -30.6917  -11.8167   18.6358 C   0  0  0  0  0  0  0  0  0  0  0  0
  -22.4352  -29.3095   21.5440 C   0  0  0  0  0  0  0  0  0  0  0  0
  -29.5795  -18.9513   22.8139 C   0  0  0  0  0  0  0  0  0  0  0  0
  -25.6215  -29.7264   21.1011 C   0  0  0  0  0  0  0  0  0  0  0  0
  -28.6474  -28.3404   20.3462 C   0  0  0  0  0  0  0  0  0  0  0  0
  -18.5950  -31.8773   23.7158 C   0  0  0  0  0  0  0  0  0  0  0  0
  -23.3899  -27.5211   23.0427 C   0  0  0  0  0  0  0  0  0  0  0  0
  -24.6614  -27.5098   20.3728 C   0  0  0  0  0  0  0  0  0  0  0  0
  -19.9425  -32.2437   23.0991 C   0  0  0  0  0  0  0  0  0  0  0  0
  -31.3578  -16.2120   24.2883 C   0  0  0  0  0  0  0  0  0  0  0  0
  -20.1071  -31.5731   21.7390 C   0  0  0  0  0  0  0  0  0  0  0  0
  -31.0362  -15.0370   23.3657 C   0  0  0  0  0  0  0  0  0  0  0  0
  -30.1718  -17.1629   24.4156 C   0  0  0  0  0  0  0  0  0  0  0  0
  -29.3360  -16.4988   22.1835 C   0  0  0  0  0  0  0  0  0  0  0  0
  -20.0809  -30.0455   21.8703 C   0  0  1  0  0  0  0  0  0  0  0  0
  -23.6515  -28.8116   22.2723 C   0  0  1  0  0  0  0  0  0  0  0  0
  -30.5180  -15.5300   22.0030 C   0  0  2  0  0  0  0  0  0  0  0  0
  -29.7354  -23.3382   16.9629 C   0  0  0  0  0  0  0  0  0  0  0  0
  -31.6488  -21.3631   19.8507 C   0  0  0  0  0  0  0  0  0  0  0  0
  -30.5768  -23.4096   20.8595 C   0  0  0  0  0  0  0  0  0  0  0  0
  -31.0628  -28.9393   20.0230 C   0  0  0  0  0  0  0  0  0  0  0  0
  -25.1521  -21.2828   16.2591 C   0  0  0  0  0  0  0  0  0  0  0  0
  -24.9598  -30.9099   18.3677 C   0  0  0  0  0  0  0  0  0  0  0  0
  -27.3616  -30.6032   17.7309 C   0  0  0  0  0  0  0  0  0  0  0  0
  -26.7573  -32.1167   19.6196 C   0  0  0  0  0  0  0  0  0  0  0  0
  -29.5012  -26.5798   22.5666 C   0  0  0  0  0  0  0  0  0  0  0  0
  -26.5147  -17.3318   16.5657 C   0  0  0  0  0  0  0  0  0  0  0  0
  -29.0092  -20.8356   21.2658 C   0  0  0  0  0  0  0  0  0  0  0  0
  -29.0854  -19.3141   21.4362 C   0  0  0  0  0  0  0  0  0  0  0  0
  -24.3119  -21.1832   18.6282 C   0  0  0  0  0  0  0  0  0  0  0  0
  -24.1803  -22.6887   18.8591 C   0  0  0  0  0  0  0  0  0  1  0  0
  -25.5051  -19.2010   17.5705 C   0  0  0  0  0  0  0  0  0  0  0  0
  -30.6858  -22.5363   19.5972 C   0  0  0  0  0  0  0  0  0  0  0  0
  -26.5610  -29.6146   19.9247 C   0  0  1  0  0  0  0  0  0  0  0  0
  -30.0068  -28.4666   21.0100 C   0  0  2  0  0  0  0  0  0  0  0  0
  -25.4771  -20.7528   17.6808 C   0  0  2  0  0  0  0  0  0  0  0  0
  -26.3943  -30.7890   18.9194 C   0  0  0  0  0  0  0  0  0  0  0  0
  -28.9054  -13.9137   21.0701 N   0  0  0  0  0  0  0  0  0  0  0  0
  -30.1677  -14.3748   21.0832 N   0  0  0  0  0  0  0  0  0  0  0  0
  -24.7167  -28.6700   21.2775 N   0  0  0  0  0  0  0  0  0  0  0  0
  -29.6950  -17.5907   23.0992 N   0  0  0  0  0  0  0  0  0  0  0  0
  -32.3069  -14.0513   20.1189 N   0  0  0  0  0  0  0  0  0  0  0  0
  -29.7708  -10.9007   18.1094 N   0  0  0  0  0  0  0  0  0  0  0  0
  -21.3513  -29.5589   22.3640 N   0  0  0  0  0  0  0  0  0  0  0  0
  -27.9029  -29.4928   20.4841 N   0  0  0  0  0  0  0  0  0  0  0  0
  -30.4367  -27.1516   21.5642 N   0  3  0  0  0  0  0  0  0  0  0  0
  -31.8844  -11.7793   18.2490 O   0  0  0  0  0  0  0  0  0  0  0  0
  -22.4775  -29.4580   20.3284 O   0  0  0  0  0  0  0  0  0  0  0  0
  -29.8570  -19.8517   23.6104 O   0  0  0  0  0  0  0  0  0  0  0  0
  -25.6928  -30.7112   21.8405 O   0  0  0  0  0  0  0  0  0  0  0  0
  -28.2839  -27.3229   19.7606 O   0  0  0  0  0  0  0  0  0  0  0  0
  -24.3485   -9.9794   18.9954 O   0  0  0  0  0  0  0  0  0  0  0  0
  -23.0944  -22.9160   19.7566 O   0  0  0  0  0  0  0  0  0  1  0  0
  -26.5165  -18.7481   16.6789 O   0  0  0  0  0  0  0  0  0  0  0  0
  -21.2330   -8.2841   23.2172 F   0  0  0  0  0  0  0  0  0  0  0  0
  -23.2116  -11.7984   20.7393 F   0  0  0  0  0  0  0  0  0  0  0  0
  1  2  1  0  0  0  0
  1  5  2  0  0  0  0
  2  6  2  0  0  0  0
  3  8  2  0  0  0  0
  3 17  1  0  0  0  0
  4  9  1  0  0  0  0
  4 17  2  0  0  0  0
  5 19  1  0  0  0  0
  6 21  1  0  0  0  0
  7 10  2  0  0  0  0
  7 20  1  0  0  0  0
  8 27  1  0  0  0  0
  9 27  2  0  0  0  0
 10 28  1  0  0  0  0
 11 12  2  0  0  0  0
 11 29  1  0  0  0  0
 12 30  1  0  0  0  0
 13 22  1  0  0  0  0
 13 28  2  0  0  0  0
 14 23  1  0  0  0  0
 14 24  2  0  0  0  0
 15 23  2  0  0  0  0
 15 25  1  0  0  0  0
 16 30  2  0  0  0  0
 16 31  1  0  0  0  0
 17 32  1  0  0  0  0
 18 32  1  0  0  0  0
 18 33  2  0  0  0  0
 18 34  1  0  0  0  0
 19 21  2  0  0  0  0
 19 39  1  0  0  0  0
 20 22  2  0  0  0  0
 20 40  1  0  0  0  0
 21 48  1  0  0  0  0
 22 41  1  0  0  0  0
 23 69  1  0  0  0  0
 24 26  1  0  0  0  0
 24 51  1  0  0  0  0
 25 26  2  0  0  0  0
 25 61  1  0  0  0  0
 26 66  1  0  0  0  0
 27 85  1  0  0  0  0
 28 86  1  0  0  0  0
 29 31  2  0  0  0  0
 29 85  1  0  0  0  0
 30 88  1  0  0  0  0
 31 89  1  0  0  0  0
 32 71  2  0  0  0  0
 33 72  1  0  0  0  0
 33 75  1  0  0  0  0
 34 76  1  0  0  0  0
 34 80  2  0  0  0  0
 35 49  1  0  0  0  0
 35 77  1  0  0  0  0
 35 81  2  0  0  0  0
 36 62  1  0  0  0  0
 36 74  1  0  0  0  0
 36 82  2  0  0  0  0
 37 67  1  0  0  0  0
 37 73  1  0  0  0  0
 37 83  2  0  0  0  0
 38 68  1  0  0  0  0
 38 78  1  0  0  0  0
 38 84  2  0  0  0  0
 39 42  1  0  0  0  0
 40 49  1  0  0  0  0
 41 73  1  0  0  0  0
 42 44  1  0  0  0  0
 43 45  1  0  0  0  0
 43 46  1  0  0  0  0
 44 48  1  0  0  0  0
 45 50  1  0  0  0  0
 46 74  1  0  0  0  0
 47 50  1  0  0  0  0
 47 74  1  0  0  0  0
 48 77  1  0  0  0  0
 49 73  1  0  0  0  0
 50 72  1  0  0  0  0
 52 66  1  0  0  0  0
 53 66  1  0  0  0  0
 54 68  1  0  0  0  0
 55 69  1  0  0  0  0
 56 70  1  0  0  0  0
 57 70  1  0  0  0  0
 58 70  1  0  0  0  0
 59 79  1  0  0  0  0
 60 87  1  0  0  0  0
 61 62  1  0  0  0  0
 63 64  1  0  0  0  0
 63 69  1  0  0  0  0
 64 86  1  0  0  0  0
 65 69  1  0  0  0  0
 65 87  1  0  0  0  0
 67 70  1  0  0  0  0
 67 78  1  0  0  0  0
 68 79  1  0  0  0  0
 71 72  1  0  0  0  0
M  CHG  1  79   1
M  ISO  4  36 100  62 100  64 101  86 101
M  END
> <Batch ID>
0105

> <Smiles>
CNC(C)C(=O)NC(C(=O)N1Cc2cc([101O:1][101CH2:1]CC(C)(COC)c3cc(C)c(C(C)C)c(C[100CH2:0][100C:0](=O)N4CCCC(n5nc(-c6ccc(Oc7ccc(F)cc7F)cc6)c(C(N)=O)c5N)C4)c3)ccc2CC1C(=O)NC1CCCc2ccccc21)C(C)(C)C

> <Shape>
0.287

> <Color>
0.077

> <Negative vol penalty>
0.000

$$$$

  -OEChem-04052319463D

 77 85  0     1  0  0  0  0  0999 V2000
  -25.5318  -30.7932   28.0607 C   0  0  0  0  0  0  0  0  0  0  0  0
  -25.3487  -29.4204   27.9293 C   0  0  0  0  0  0  0  0  0  0  0  0
  -22.6376  -10.2137   20.2313 C   0  0  0  0  0  0  0  0  0  0  0  0
  -24.2448   -9.5173   21.8953 C   0  0  0  0  0  0  0  0  0  0  0  0
  -25.7423  -31.5788   26.9283 C   0  0  0  0  0  0  0  0  0  0  0  0
  -25.3751  -28.8325   26.6651 C   0  0  0  0  0  0  0  0  0  0  0  0
  -30.1238  -23.6520   25.0829 C   0  0  0  0  0  0  0  0  0  0  0  0
  -21.8911   -9.0598   20.4692 C   0  0  0  0  0  0  0  0  0  0  0  0
  -23.4982   -8.3633   22.1333 C   0  0  0  0  0  0  0  0  0  0  0  0
  -30.8609  -22.5100   24.7688 C   0  0  0  0  0  0  0  0  0  0  0  0
  -23.0345   -5.3504   20.6710 C   0  0  0  0  0  0  0  0  0  0  0  0
  -23.7231   -4.1412   20.7660 C   0  0  0  0  0  0  0  0  0  0  0  0
  -29.9672  -22.5381   22.5220 C   0  0  0  0  0  0  0  0  0  0  0  0
  -22.8965   -3.8472   23.0171 C   0  0  0  0  0  0  0  0  0  0  0  0
  -23.8145  -10.4425   20.9443 C   0  0  0  0  0  0  0  0  0  0  0  0
  -24.1629  -12.9679   20.8515 C   0  0  0  0  0  0  0  0  0  0  0  0
  -25.7809  -30.9989   25.6504 C   0  0  0  0  0  0  0  0  0  0  0  0
  -29.3165  -24.2510   24.1120 C   0  0  0  0  0  0  0  0  0  0  0  0
  -25.5850  -29.6112   25.5144 C   0  0  0  0  0  0  0  0  0  0  0  0
  -29.2362  -23.6893   22.8271 C   0  0  0  0  0  0  0  0  0  0  0  0
  -22.3214   -8.1345   21.4203 C   0  0  0  0  0  0  0  0  0  0  0  0
  -30.7826  -21.9543   23.4916 C   0  0  0  0  0  0  0  0  0  0  0  0
  -22.2768   -5.8081   21.7491 C   0  0  0  0  0  0  0  0  0  0  0  0
  -23.6541   -3.3895   21.9390 C   0  0  0  0  0  0  0  0  0  0  0  0
  -22.2078   -5.0565   22.9221 C   0  0  0  0  0  0  0  0  0  0  0  0
  -24.5864  -11.6341   20.6985 C   0  0  0  0  0  0  0  0  0  0  0  0
  -25.2565  -13.7184   20.4949 C   0  0  0  0  0  0  0  0  0  0  0  0
  -22.8944  -13.4824   21.2780 C   0  0  0  0  0  0  0  0  0  0  0  0
  -26.9542  -27.0346   23.2475 C   0  0  0  0  0  0  0  0  0  0  0  0
  -28.7887  -26.6369   20.8212 C   0  0  0  0  0  0  0  0  0  0  0  0
  -30.6881  -27.0179   18.0133 C   0  0  0  0  0  0  0  0  0  0  0  0
  -30.7432  -14.7207   20.6863 C   0  0  0  0  0  0  0  0  0  0  0  0
  -25.9644  -31.8954   24.4516 C   0  0  0  0  0  0  0  0  0  0  0  0
  -28.4576  -25.4463   24.4239 C   0  0  0  0  0  0  0  0  0  0  0  0
  -28.3279  -24.3476   21.8248 C   0  0  0  0  0  0  0  0  0  0  0  0
  -26.3516  -31.1424   23.1814 C   0  0  0  0  0  0  0  0  0  0  0  0
  -29.5958  -12.3656   18.2752 C   0  0  0  0  0  0  0  0  0  0  0  0
  -25.4643  -29.9155   22.9967 C   0  0  0  0  0  0  0  0  0  0  0  0
  -28.1582  -12.0710   18.7070 C   0  0  0  0  0  0  0  0  0  0  0  0
  -30.3911  -17.2576   23.3611 C   0  0  0  0  0  0  0  0  0  0  0  0
  -30.5468  -17.9767   20.9392 C   0  0  0  0  0  0  0  0  0  0  0  0
  -31.0508  -18.5662   23.7878 C   0  0  0  0  0  0  0  0  0  0  0  0
  -31.2050  -19.2835   21.3735 C   0  0  0  0  0  0  0  0  0  0  0  0
  -30.5153  -12.5708   19.4770 C   0  0  0  0  0  0  0  0  0  0  0  0
  -28.6175  -13.2917   20.8744 C   0  0  0  0  0  0  0  0  0  0  0  0
  -25.6316  -28.9331   24.1623 C   0  0  1  0  0  0  0  0  0  0  0  0
  -28.3222  -26.4181   23.2380 C   0  0  1  0  0  0  0  0  0  0  0  0
  -27.6412  -13.1326   19.6964 C   0  0  2  0  0  0  0  0  0  0  0  0
  -30.8152  -16.8549   21.9458 C   0  0  0  0  0  0  0  0  0  0  0  0
  -30.7828  -19.6863   22.7853 C   0  0  0  0  0  0  0  0  0  1  0  0
  -30.5602  -27.8375   15.6449 C   0  0  0  0  0  0  0  0  0  0  0  0
  -27.2900  -24.1012   20.0286 C   0  0  0  0  0  0  0  0  0  0  0  0
  -28.0199  -24.4933   17.6660 C   0  0  0  0  0  0  0  0  0  0  0  0
  -26.5661  -26.1641   18.8140 C   0  0  0  0  0  0  0  0  0  0  0  0
  -32.7492  -29.0864   18.4952 C   0  0  0  0  0  0  0  0  0  0  0  0
  -28.9946  -25.9635   19.4880 C   0  0  1  0  0  0  0  0  0  0  0  0
  -30.8872  -28.2021   17.0846 C   0  0  2  0  0  0  0  0  0  0  0  0
  -27.7368  -25.1783   19.0200 C   0  0  0  0  0  0  0  0  0  0  0  0
  -25.8504  -11.5395   20.2773 N   0  0  0  0  0  0  0  0  0  0  0  0
  -26.2305  -12.8234   20.1625 N   0  0  0  0  0  0  0  0  0  0  0  0
  -28.4677  -25.8100   21.9046 N   0  0  0  0  0  0  0  0  0  0  0  0
  -29.9687  -13.5910   20.3751 N   0  0  0  0  0  0  0  0  0  0  0  0
  -25.4704  -15.0500   20.4362 N   0  0  0  0  0  0  0  0  0  0  0  0
  -22.6920  -13.7115   22.6457 N   0  0  0  0  0  0  0  0  0  0  0  0
  -26.8581  -28.1791   24.0157 N   0  0  0  0  0  0  0  0  0  0  0  0
  -29.4244  -27.0083   18.5649 N   0  0  0  0  0  0  0  0  0  0  0  0
  -30.1478  -15.6418   21.5394 N   0  0  0  0  0  0  0  0  0  0  0  0
  -32.3001  -28.6727   17.1409 N   0  3  0  0  0  0  0  0  0  0  0  0
  -21.9622  -13.7162   20.4718 O   0  0  0  0  0  0  0  0  0  0  0  0
  -26.0516  -26.5120   22.6041 O   0  0  0  0  0  0  0  0  0  0  0  0
  -28.9031  -27.8632   20.9015 O   0  0  0  0  0  0  0  0  0  0  0  0
  -31.5645  -26.1827   18.2250 O   0  0  0  0  0  0  0  0  0  0  0  0
  -31.8790  -14.8982   20.2329 O   0  0  0  0  0  0  0  0  0  0  0  0
  -21.5931   -7.0085   21.6529 O   0  0  0  0  0  0  0  0  0  0  0  0
  -31.5083  -20.8420   23.1903 O   0  0  0  0  0  0  0  0  0  1  0  0
  -24.3143   -2.2276   22.0296 F   0  0  0  0  0  0  0  0  0  0  0  0
  -21.4806   -5.4905   23.9607 F   0  0  0  0  0  0  0  0  0  0  0  0
  1  2  1  0  0  0  0
  1  5  2  0  0  0  0
  2  6  2  0  0  0  0
  3  8  2  0  0  0  0
  3 15  1  0  0  0  0
  4  9  1  0  0  0  0
  4 15  2  0  0  0  0
  5 17  1  0  0  0  0
  6 19  1  0  0  0  0
  7 10  2  0  0  0  0
  7 18  1  0  0  0  0
  8 21  1  0  0  0  0
  9 21  2  0  0  0  0
 10 22  1  0  0  0  0
 11 12  2  0  0  0  0
 11 23  1  0  0  0  0
 12 24  1  0  0  0  0
 13 20  1  0  0  0  0
 13 22  2  0  0  0  0
 14 24  2  0  0  0  0
 14 25  1  0  0  0  0
 15 26  1  0  0  0  0
 16 26  1  0  0  0  0
 16 27  2  0  0  0  0
 16 28  1  0  0  0  0
 17 19  2  0  0  0  0
 17 33  1  0  0  0  0
 18 20  2  0  0  0  0
 18 34  1  0  0  0  0
 19 46  1  0  0  0  0
 20 35  1  0  0  0  0
 21 74  1  0  0  0  0
 22 75  1  0  0  0  0
 23 25  2  0  0  0  0
 23 74  1  0  0  0  0
 24 76  1  0  0  0  0
 25 77  1  0  0  0  0
 26 59  2  0  0  0  0
 27 60  1  0  0  0  0
 27 63  1  0  0  0  0
 28 64  1  0  0  0  0
 28 69  2  0  0  0  0
 29 47  1  0  0  0  0
 29 65  1  0  0  0  0
 29 70  2  0  0  0  0
 30 56  1  0  0  0  0
 30 61  1  0  0  0  0
 30 71  2  0  0  0  0
 31 57  1  0  0  0  0
 31 66  1  0  0  0  0
 31 72  2  0  0  0  0
 32 62  1  0  0  0  0
 32 67  1  0  0  0  0
 32 73  2  0  0  0  0
 33 36  1  0  0  0  0
 34 47  1  0  0  0  0
 35 61  1  0  0  0  0
 36 38  1  0  0  0  0
 37 39  1  0  0  0  0
 37 44  1  0  0  0  0
 38 46  1  0  0  0  0
 39 48  1  0  0  0  0
 40 42  1  0  0  0  0
 40 49  1  0  0  0  0
 41 43  1  0  0  0  0
 41 49  1  0  0  0  0
 42 50  1  0  0  0  0
 43 50  1  0  0  0  0
 44 62  1  0  0  0  0
 45 48  1  0  0  0  0
 45 62  1  0  0  0  0
 46 65  1  0  0  0  0
 47 61  1  0  0  0  0
 48 60  1  0  0  0  0
 49 67  1  0  0  0  0
 50 75  1  0  0  0  0
 51 57  1  0  0  0  0
 52 58  1  0  0  0  0
 53 58  1  0  0  0  0
 54 58  1  0  0  0  0
 55 68  1  0  0  0  0
 56 58  1  0  0  0  0
 56 66  1  0  0  0  0
 57 68  1  0  0  0  0
 59 60  1  0  0  0  0
M  CHG  1  68   1
M  ISO  4  32 100  50 101  67 100  75 101
M  END
> <Batch ID>
0105

> <Smiles>
CNC(C)C(=O)NC(C(=O)N1Cc2cc([101O:1][101CH:1]3CCC([100NH:0][100C:0](=O)N4CCCC(n5nc(-c6ccc(Oc7ccc(F)cc7F)cc6)c(C(N)=O)c5N)C4)CC3)ccc2CC1C(=O)NC1CCCc2ccccc21)C(C)(C)C

> <Shape>
0.284

> <Color>
0.184

> <Negative vol penalty>
0.000

$$$$

  -OEChem-04052319463D

 85 93  0     1  0  0  0  0  0999 V2000
  -20.2861  -23.9465   22.1086 C   0  0  0  0  0  0  0  0  0  0  0  0
  -21.2548  -24.5148   21.2875 C   0  0  0  0  0  0  0  0  0  0  0  0
  -25.6505  -16.0533   20.8126 C   0  0  0  0  0  0  0  0  0  0  0  0
  -25.5900  -16.3723   18.4185 C   0  0  0  0  0  0  0  0  0  0  0  0
  -19.3698  -24.7620   22.7712 C   0  0  0  0  0  0  0  0  0  0  0  0
  -21.3069  -25.8991   21.1278 C   0  0  0  0  0  0  0  0  0  0  0  0
  -26.0256  -27.7128   21.4273 C   0  0  0  0  0  0  0  0  0  0  0  0
  -24.9816  -14.8380   20.6676 C   0  0  0  0  0  0  0  0  0  0  0  0
  -24.9211  -15.1569   18.2735 C   0  0  0  0  0  0  0  0  0  0  0  0
  -26.8389  -27.5599   20.3052 C   0  0  0  0  0  0  0  0  0  0  0  0
  -23.6098  -11.4793   20.8969 C   0  0  0  0  0  0  0  0  0  0  0  0
  -24.0857  -10.3866   21.6216 C   0  0  0  0  0  0  0  0  0  0  0  0
  -26.3950  -29.8469   19.6793 C   0  0  0  0  0  0  0  0  0  0  0  0
  -26.2184  -10.5726   20.5016 C   0  0  0  0  0  0  0  0  0  0  0  0
  -26.0187  -26.8280   16.3183 C   0  0  0  0  0  0  0  0  0  0  0  0
  -25.9546  -16.8205   19.6881 C   0  0  0  0  0  0  0  0  0  0  0  0
  -28.0369  -18.2874   19.8300 C   0  0  0  0  0  0  0  0  0  0  0  0
  -19.4168  -26.1576   22.6272 C   0  0  0  0  0  0  0  0  0  0  0  0
  -25.3811  -28.9327   21.6783 C   0  0  0  0  0  0  0  0  0  0  0  0
  -20.3895  -26.7340   21.7881 C   0  0  0  0  0  0  0  0  0  0  0  0
  -25.5761  -30.0135   20.8066 C   0  0  0  0  0  0  0  0  0  0  0  0
  -25.7759  -25.4989   16.0503 C   0  0  0  0  0  0  0  0  0  0  0  0
  -26.9100  -24.9903   15.3705 C   0  0  0  0  0  0  0  0  0  0  0  0
  -24.6170  -14.3897   19.3981 C   0  0  0  0  0  0  0  0  0  0  0  0
  -27.0214  -28.6262   19.4295 C   0  0  0  0  0  0  0  0  0  0  0  0
  -24.4382  -12.1185   19.9744 C   0  0  0  0  0  0  0  0  0  0  0  0
  -25.3900   -9.9333   21.4240 C   0  0  0  0  0  0  0  0  0  0  0  0
  -25.7424  -11.6652   19.7768 C   0  0  0  0  0  0  0  0  0  0  0  0
  -26.6451  -18.0764   19.8373 C   0  0  0  0  0  0  0  0  0  0  0  0
  -27.8115  -26.0241   15.2440 C   0  0  0  0  0  0  0  0  0  0  0  0
  -28.1797  -19.6421   20.0060 C   0  0  0  0  0  0  0  0  0  0  0  0
  -29.1052  -17.3433   19.6777 C   0  0  0  0  0  0  0  0  0  0  0  0
  -22.3501  -29.8639   21.9016 C   0  0  0  0  0  0  0  0  0  0  0  0
  -23.6884  -32.6805   22.7946 C   0  0  0  0  0  0  0  0  0  0  0  0
  -26.4011  -34.7503   22.7250 C   0  0  0  0  0  0  0  0  0  0  0  0
  -24.6037  -24.3034   18.8503 C   0  0  0  0  0  0  0  0  0  0  0  0
  -18.3754  -26.9951   23.3263 C   0  0  0  0  0  0  0  0  0  0  0  0
  -24.5284  -29.0896   22.9074 C   0  0  0  0  0  0  0  0  0  0  0  0
  -24.9228  -31.3500   21.0420 C   0  0  0  0  0  0  0  0  0  0  0  0
  -18.7340  -28.4771   23.3991 C   0  0  0  0  0  0  0  0  0  0  0  0
  -26.0048  -23.4089   21.9989 C   0  0  0  0  0  0  0  0  0  0  0  0
  -19.2241  -28.9751   22.0431 C   0  0  0  0  0  0  0  0  0  0  0  0
  -26.4534  -21.9599   21.8013 C   0  0  0  0  0  0  0  0  0  0  0  0
  -24.7062  -23.7046   21.2518 C   0  0  0  0  0  0  0  0  0  0  0  0
  -25.1762  -21.9203   19.6181 C   0  0  0  0  0  0  0  0  0  0  0  0
  -20.4939  -28.2330   21.6090 C   0  0  1  0  0  0  0  0  0  0  0  0
  -23.5101  -30.2193   22.7880 C   0  0  1  0  0  0  0  0  0  0  0  0
  -26.5113  -21.5897   20.3070 C   0  0  2  0  0  0  0  0  0  0  0  0
  -29.1520  -26.0499   14.6213 C   0  0  0  0  0  0  0  0  0  0  0  0
  -27.1821  -37.0013   23.5126 C   0  0  0  0  0  0  0  0  0  0  0  0
  -27.3233  -24.2367   12.4236 C   0  0  0  0  0  0  0  0  0  0  0  0
  -26.7731  -21.8777   13.0528 C   0  0  0  0  0  0  0  0  0  0  0  0
  -27.6035  -29.3439   14.6669 C   0  0  0  0  0  0  0  0  0  0  0  0
  -22.0300  -34.0176   20.6101 C   0  0  0  0  0  0  0  0  0  0  0  0
  -23.5198  -36.0206   20.8020 C   0  0  0  0  0  0  0  0  0  0  0  0
  -22.1510  -35.2945   22.7570 C   0  0  0  0  0  0  0  0  0  0  0  0
  -28.5844  -33.5601   24.3299 C   0  0  0  0  0  0  0  0  0  0  0  0
  -27.0945  -23.6069   14.8856 C   0  0  0  0  0  0  0  0  0  0  0  0
  -24.5538  -24.7524   16.4100 C   0  0  0  0  0  0  0  0  0  0  0  0
  -27.4857  -29.2604   17.1849 C   0  0  0  0  0  0  0  0  0  1  0  0
  -24.1576  -33.9187   22.0695 C   0  0  1  0  0  0  0  0  0  0  0  0
  -27.1132  -35.5148   23.8263 C   0  0  2  0  0  0  0  0  0  0  0  0
  -26.5956  -23.3490   13.4363 C   0  0  0  0  0  0  0  0  0  0  0  0
  -27.9065  -28.5092   15.9144 C   0  0  1  0  0  0  0  0  0  0  0  0
  -22.9755  -34.7872   21.5539 C   0  0  0  0  0  0  0  0  0  0  0  0
  -25.9531  -19.2065   20.0048 N   0  0  0  0  0  0  0  0  0  0  0  0
  -27.2592  -27.1362   15.8239 N   0  0  0  0  0  0  0  0  0  0  0  0
  -26.9141  -20.1406   20.1045 N   0  0  0  0  0  0  0  0  0  0  0  0
  -24.0934  -31.4518   22.2542 N   0  0  0  0  0  0  0  0  0  0  0  0
  -24.8281  -23.3324   19.8402 N   0  0  0  0  0  0  0  0  0  0  0  0
  -29.2632  -20.4435   20.0847 N   0  0  0  0  0  0  0  0  0  0  0  0
  -28.7818  -15.9904   19.5064 N   0  0  0  0  0  0  0  0  0  0  0  0
  -21.6470  -28.7486   22.3154 N   0  0  0  0  0  0  0  0  0  0  0  0
  -25.0542  -34.6139   22.9867 N   0  0  0  0  0  0  0  0  0  0  0  0
  -24.7461  -23.8687   17.5382 N   0  0  0  0  0  0  0  0  0  0  0  0
  -28.5035  -35.0052   23.9950 N   0  3  0  0  0  0  0  0  0  0  0  0
  -30.3111  -17.6870   19.7095 O   0  0  0  0  0  0  0  0  0  0  0  0
  -22.1098  -30.5515   20.9162 O   0  0  0  0  0  0  0  0  0  0  0  0
  -22.9944  -32.7993   23.8074 O   0  0  0  0  0  0  0  0  0  0  0  0
  -26.9809  -34.3205   21.7302 O   0  0  0  0  0  0  0  0  0  0  0  0
  -24.3043  -25.4724   19.1162 O   0  0  0  0  0  0  0  0  0  0  0  0
  -23.9645  -13.2036   19.2562 O   0  0  0  0  0  0  0  0  0  0  0  0
  -27.8142  -28.4795   18.3332 O   0  0  0  0  0  0  0  0  0  1  0  0
  -25.8474   -8.8850   22.1212 F   0  0  0  0  0  0  0  0  0  0  0  0
  -26.5432  -12.2760   18.8928 F   0  0  0  0  0  0  0  0  0  0  0  0
  1  2  1  0  0  0  0
  1  5  2  0  0  0  0
  2  6  2  0  0  0  0
  3  8  2  0  0  0  0
  3 16  1  0  0  0  0
  4  9  1  0  0  0  0
  4 16  2  0  0  0  0
  5 18  1  0  0  0  0
  6 20  1  0  0  0  0
  7 10  2  0  0  0  0
  7 19  1  0  0  0  0
  8 24  1  0  0  0  0
  9 24  2  0  0  0  0
 10 25  1  0  0  0  0
 11 12  2  0  0  0  0
 11 26  1  0  0  0  0
 12 27  1  0  0  0  0
 13 21  1  0  0  0  0
 13 25  2  0  0  0  0
 14 27  2  0  0  0  0
 14 28  1  0  0  0  0
 15 22  2  0  0  0  0
 15 67  1  0  0  0  0
 16 29  1  0  0  0  0
 17 29  1  0  0  0  0
 17 31  2  0  0  0  0
 17 32  1  0  0  0  0
 18 20  2  0  0  0  0
 18 37  1  0  0  0  0
 19 21  2  0  0  0  0
 19 38  1  0  0  0  0
 20 46  1  0  0  0  0
 21 39  1  0  0  0  0
 22 23  1  0  0  0  0
 22 59  1  0  0  0  0
 23 30  2  0  0  0  0
 23 58  1  0  0  0  0
 24 82  1  0  0  0  0
 25 83  1  0  0  0  0
 26 28  2  0  0  0  0
 26 82  1  0  0  0  0
 27 84  1  0  0  0  0
 28 85  1  0  0  0  0
 29 66  2  0  0  0  0
 30 49  1  0  0  0  0
 30 67  1  0  0  0  0
 31 68  1  0  0  0  0
 31 71  1  0  0  0  0
 32 72  1  0  0  0  0
 32 77  2  0  0  0  0
 33 47  1  0  0  0  0
 33 73  1  0  0  0  0
 33 78  2  0  0  0  0
 34 61  1  0  0  0  0
 34 69  1  0  0  0  0
 34 79  2  0  0  0  0
 35 62  1  0  0  0  0
 35 74  1  0  0  0  0
 35 80  2  0  0  0  0
 36 70  1  0  0  0  0
 36 75  1  0  0  0  0
 36 81  2  0  0  0  0
 37 40  1  0  0  0  0
 38 47  1  0  0  0  0
 39 69  1  0  0  0  0
 40 42  1  0  0  0  0
 41 43  1  0  0  0  0
 41 44  1  0  0  0  0
 42 46  1  0  0  0  0
 43 48  1  0  0  0  0
 44 70  1  0  0  0  0
 45 48  1  0  0  0  0
 45 70  1  0  0  0  0
 46 73  1  0  0  0  0
 47 69  1  0  0  0  0
 48 68  1  0  0  0  0
 50 62  1  0  0  0  0
 51 63  1  0  0  0  0
 52 63  1  0  0  0  0
 53 64  1  0  0  0  0
 54 65  1  0  0  0  0
 55 65  1  0  0  0  0
 56 65  1  0  0  0  0
 57 76  1  0  0  0  0
 58 63  1  0  0  0  0
 59 75  1  0  0  0  0
 60 64  1  0  0  0  0
 60 83  1  0  0  0  0
 61 65  1  0  0  0  0
 61 74  1  0  0  0  0
 62 76  1  0  0  0  0
 64 67  1  0  0  0  0
 66 68  1  0  0  0  0
M  CHG  1  76   1
M  ISO  4  36 100  60 101  75 100  83 101
M  END
> <Batch ID>
0105

> <Smiles>
CNC(C)C(=O)NC(C(=O)N1Cc2cc([101O:1][101CH2:1]C(C)n3cc(C[100NH:0][100C:0](=O)N4CCCC(n5nc(-c6ccc(Oc7ccc(F)cc7F)cc6)c(C(N)=O)c5N)C4)c(CC(C)C)c3C)ccc2CC1C(=O)NC1CCCc2ccccc21)C(C)(C)C

> <Shape>
0.227

> <Color>
0.113

> <Negative vol penalty>
0.000

$$$$

  -OEChem-04052319463D

 81 88  0     1  0  0  0  0  0999 V2000
  -21.7063  -11.7834   21.3685 C   0  0  0  0  0  0  0  0  0  0  0  0
  -21.9031  -12.9431   22.1113 C   0  0  0  0  0  0  0  0  0  0  0  0
  -25.1565  -27.7955   19.1926 C   0  0  0  0  0  0  0  0  0  0  0  0
  -25.8316  -28.2943   21.4582 C   0  0  0  0  0  0  0  0  0  0  0  0
  -22.7474  -11.2639   20.6002 C   0  0  0  0  0  0  0  0  0  0  0  0
  -23.1415  -13.5835   22.0870 C   0  0  0  0  0  0  0  0  0  0  0  0
  -22.7228  -18.6037   21.5699 C   0  0  0  0  0  0  0  0  0  0  0  0
  -26.2396  -28.5289   18.7084 C   0  0  0  0  0  0  0  0  0  0  0  0
  -26.9147  -29.0277   20.9739 C   0  0  0  0  0  0  0  0  0  0  0  0
  -22.3755  -19.3340   22.7056 C   0  0  0  0  0  0  0  0  0  0  0  0
  -30.0635  -30.7309   20.3394 C   0  0  0  0  0  0  0  0  0  0  0  0
  -31.3043  -30.5331   20.9451 C   0  0  0  0  0  0  0  0  0  0  0  0
  -24.6911  -19.9314   23.0222 C   0  0  0  0  0  0  0  0  0  0  0  0
  -31.2330  -28.1982   20.3283 C   0  0  0  0  0  0  0  0  0  0  0  0
  -24.9524  -27.6782   20.5676 C   0  0  0  0  0  0  0  0  0  0  0  0
  -23.8065  -25.5483   21.3789 C   0  0  0  0  0  0  0  0  0  0  0  0
  -23.9962  -11.9037   20.5589 C   0  0  0  0  0  0  0  0  0  0  0  0
  -24.0606  -18.5226   21.1573 C   0  0  0  0  0  0  0  0  0  0  0  0
  -24.2007  -13.0714   21.3185 C   0  0  0  0  0  0  0  0  0  0  0  0
  -25.0524  -19.2015   21.8794 C   0  0  0  0  0  0  0  0  0  0  0  0
  -27.1187  -29.1450   19.5990 C   0  0  0  0  0  0  0  0  0  0  0  0
  -23.3601  -19.9956   23.4336 C   0  0  0  0  0  0  0  0  0  0  0  0
  -29.4074  -29.6624   19.7283 C   0  0  0  0  0  0  0  0  0  0  0  0
  -31.8891  -29.2668   20.9395 C   0  0  0  0  0  0  0  0  0  0  0  0
  -29.9922  -28.3961   19.7227 C   0  0  0  0  0  0  0  0  0  0  0  0
  -23.8334  -26.9212   21.0684 C   0  0  0  0  0  0  0  0  0  0  0  0
  -22.5235  -25.3194   21.8125 C   0  0  0  0  0  0  0  0  0  0  0  0
  -24.8482  -24.5677   21.2839 C   0  0  0  0  0  0  0  0  0  0  0  0
  -26.1588  -16.1618   20.8006 C   0  0  0  0  0  0  0  0  0  0  0  0
  -28.0065  -18.5158   19.5489 C   0  0  0  0  0  0  0  0  0  0  0  0
  -28.7161  -21.8484   19.3556 C   0  0  0  0  0  0  0  0  0  0  0  0
  -18.0767  -26.7901   24.8469 C   0  0  0  0  0  0  0  0  0  0  0  0
  -25.1058  -11.2784   19.7510 C   0  0  0  0  0  0  0  0  0  0  0  0
  -24.4153  -17.7528   19.9148 C   0  0  0  0  0  0  0  0  0  0  0  0
  -26.5004  -19.1627   21.4668 C   0  0  0  0  0  0  0  0  0  0  0  0
  -26.2732  -12.2252   19.4846 C   0  0  0  0  0  0  0  0  0  0  0  0
  -18.4099  -28.2566   21.6197 C   0  0  0  0  0  0  0  0  0  0  0  0
  -26.6755  -12.9502   20.7649 C   0  0  0  0  0  0  0  0  0  0  0  0
  -19.8496  -27.9321   21.2174 C   0  0  0  0  0  0  0  0  0  0  0  0
  -18.2935  -28.5473   23.1144 C   0  0  0  0  0  0  0  0  0  0  0  0
  -20.2840  -27.1747   23.5915 C   0  0  0  0  0  0  0  0  0  0  0  0
  -25.5222  -13.8086   21.2985 C   0  0  1  0  0  0  0  0  0  0  0  0
  -25.8763  -17.3150   19.8798 C   0  0  1  0  0  0  0  0  0  0  0  0
  -20.4422  -26.8196   22.1031 C   0  0  2  0  0  0  0  0  0  0  0  0
  -30.3066  -23.4647   18.2808 C   0  0  0  0  0  0  0  0  0  0  0  0
  -23.4762  -19.4468   26.5329 C   0  0  0  0  0  0  0  0  0  0  0  0
  -30.1763  -17.6949   21.5308 C   0  0  0  0  0  0  0  0  0  0  0  0
  -31.3149  -19.8790   21.0821 C   0  0  0  0  0  0  0  0  0  0  0  0
  -31.0096  -18.2310   19.2346 C   0  0  0  0  0  0  0  0  0  0  0  0
  -16.2494  -24.0787   24.9369 C   0  0  0  0  0  0  0  0  0  0  0  0
  -16.6950  -22.9147   27.1214 C   0  0  0  0  0  0  0  0  0  0  0  0
  -26.5248  -23.2368   17.9309 C   0  0  0  0  0  0  0  0  0  0  0  0
  -20.3487  -21.4919   25.4507 C   0  0  0  0  0  0  0  0  0  0  0  0
  -21.4525  -20.9385   26.3581 C   0  0  0  0  0  0  0  0  0  0  0  0
  -18.0112  -24.9818   26.5454 C   0  0  0  0  0  0  0  0  0  0  0  0
  -19.4089  -22.4016   26.2291 C   0  0  0  0  0  0  0  0  0  0  0  0
  -29.0050  -19.5015   20.1060 C   0  0  1  0  0  0  0  0  0  0  0  0
  -28.9649  -22.7579   18.1659 C   0  0  2  0  0  0  0  0  0  0  0  0
  -22.3977  -19.9952   25.6084 C   0  0  1  0  0  0  0  0  0  1  0  0
  -30.3495  -18.8259   20.4975 C   0  0  0  0  0  0  0  0  0  0  0  0
  -17.3110  -23.7349   25.9847 C   0  0  0  0  0  0  0  0  0  0  0  0
  -22.6606  -27.5221   21.2861 N   0  0  0  0  0  0  0  0  0  0  0  0
  -21.8847  -26.5221   21.7379 N   0  0  0  0  0  0  0  0  0  0  0  0
  -26.7979  -18.3915   20.2485 N   0  0  0  0  0  0  0  0  0  0  0  0
  -18.8722  -27.4534   23.8981 N   0  0  0  0  0  0  0  0  0  0  0  0
  -21.8908  -24.2087   22.2464 N   0  0  0  0  0  0  0  0  0  0  0  0
  -26.1068  -24.9728   20.8189 N   0  0  0  0  0  0  0  0  0  0  0  0
  -25.4079  -15.0326   20.5349 N   0  0  0  0  0  0  0  0  0  0  0  0
  -29.1354  -20.5583   19.1087 N   0  0  0  0  0  0  0  0  0  0  0  0
  -18.7009  -25.7614   25.5417 N   0  0  0  0  0  0  0  0  0  0  0  0
  -27.8957  -23.7917   18.0716 N   0  3  0  0  0  0  0  0  0  0  0  0
  -18.3336  -22.8768   25.3256 N   0  3  0  0  0  0  0  0  0  0  0  0
  -24.6636  -23.3644   21.5864 O   0  0  0  0  0  0  0  0  0  0  0  0
  -26.9972  -16.2866   21.6856 O   0  0  0  0  0  0  0  0  0  0  0  0
  -28.2857  -17.8848   18.5264 O   0  0  0  0  0  0  0  0  0  0  0  0
  -28.2044  -22.2437   20.4008 O   0  0  0  0  0  0  0  0  0  0  0  0
  -16.8959  -27.0889   25.0554 O   0  0  0  0  0  0  0  0  0  0  0  0
  -28.1759  -29.8606   19.1268 O   0  0  0  0  0  0  0  0  0  0  0  0
  -23.0239  -20.7086   24.5429 O   0  0  0  0  0  0  0  0  0  1  0  0
  -33.0814  -29.0773   21.5197 F   0  0  0  0  0  0  0  0  0  0  0  0
  -29.3672  -27.3659   19.1362 F   0  0  0  0  0  0  0  0  0  0  0  0
  1  2  1  0  0  0  0
  1  5  2  0  0  0  0
  2  6  2  0  0  0  0
  3  8  2  0  0  0  0
  3 15  1  0  0  0  0
  4  9  1  0  0  0  0
  4 15  2  0  0  0  0
  5 17  1  0  0  0  0
  6 19  1  0  0  0  0
  7 10  2  0  0  0  0
  7 18  1  0  0  0  0
  8 21  1  0  0  0  0
  9 21  2  0  0  0  0
 10 22  1  0  0  0  0
 11 12  2  0  0  0  0
 11 23  1  0  0  0  0
 12 24  1  0  0  0  0
 13 20  1  0  0  0  0
 13 22  2  0  0  0  0
 14 24  2  0  0  0  0
 14 25  1  0  0  0  0
 15 26  1  0  0  0  0
 16 26  1  0  0  0  0
 16 27  2  0  0  0  0
 16 28  1  0  0  0  0
 17 19  2  0  0  0  0
 17 33  1  0  0  0  0
 18 20  2  0  0  0  0
 18 34  1  0  0  0  0
 19 42  1  0  0  0  0
 20 35  1  0  0  0  0
 21 78  1  0  0  0  0
 22 79  1  0  0  0  0
 23 25  2  0  0  0  0
 23 78  1  0  0  0  0
 24 80  1  0  0  0  0
 25 81  1  0  0  0  0
 26 62  2  0  0  0  0
 27 63  1  0  0  0  0
 27 66  1  0  0  0  0
 28 67  1  0  0  0  0
 28 73  2  0  0  0  0
 29 43  1  0  0  0  0
 29 68  1  0  0  0  0
 29 74  2  0  0  0  0
 30 57  1  0  0  0  0
 30 64  1  0  0  0  0
 30 75  2  0  0  0  0
 31 58  1  0  0  0  0
 31 69  1  0  0  0  0
 31 76  2  0  0  0  0
 32 65  1  0  0  0  0
 32 70  1  0  0  0  0
 32 77  2  0  0  0  0
 33 36  1  0  0  0  0
 34 43  1  0  0  0  0
 35 64  1  0  0  0  0
 36 38  1  0  0  0  0
 37 39  1  0  0  0  0
 37 40  1  0  0  0  0
 38 42  1  0  0  0  0
 39 44  1  0  0  0  0
 40 65  1  0  0  0  0
 41 44  1  0  0  0  0
 41 65  1  0  0  0  0
 42 68  1  0  0  0  0
 43 64  1  0  0  0  0
 44 63  1  0  0  0  0
 45 58  1  0  0  0  0
 46 59  1  0  0  0  0
 47 60  1  0  0  0  0
 48 60  1  0  0  0  0
 49 60  1  0  0  0  0
 50 61  1  0  0  0  0
 51 61  1  0  0  0  0
 52 71  1  0  0  0  0
 53 54  1  0  0  0  0
 53 56  1  0  0  0  0
 54 59  1  0  0  0  0
 55 61  1  0  0  0  0
 55 70  1  0  0  0  0
 56 72  1  0  0  0  0
 57 60  1  0  0  0  0
 57 69  1  0  0  0  0
 58 71  1  0  0  0  0
 59 79  1  0  0  0  0
 61 72  1  0  0  0  0
 62 63  1  0  0  0  0
M  CHG  2  71   1  72   1
M  ISO  4  32 100  59 101  70 100  79 101
M  END
> <Batch ID>
0105

> <Smiles>
CNC(C)C(=O)NC(C(=O)N1Cc2cc([101O:1][101CH:1](C)CCCNC(C)(C)C[100NH:0][100C:0](=O)N3CCCC(n4nc(-c5ccc(Oc6ccc(F)cc6F)cc5)c(C(N)=O)c4N)C3)ccc2CC1C(=O)NC1CCCc2ccccc21)C(C)(C)C

> <Shape>
0.203

> <Color>
0.076

> <Negative vol penalty>
0.000

$$$$

  -OEChem-04052319463D

 75 82  0     1  0  0  0  0  0999 V2000
  -20.5593  -18.1061   27.8988 C   0  0  0  0  0  0  0  0  0  0  0  0
  -21.9140  -18.1780   27.5901 C   0  0  0  0  0  0  0  0  0  0  0  0
  -23.1976   -9.8534   19.9553 C   0  0  0  0  0  0  0  0  0  0  0  0
  -23.9054   -9.9359   22.2638 C   0  0  0  0  0  0  0  0  0  0  0  0
  -20.0550  -16.9880   28.5616 C   0  0  0  0  0  0  0  0  0  0  0  0
  -22.7653  -17.1323   27.9452 C   0  0  0  0  0  0  0  0  0  0  0  0
  -25.9355  -15.8539   24.2088 C   0  0  0  0  0  0  0  0  0  0  0  0
  -22.5043   -8.6703   20.2101 C   0  0  0  0  0  0  0  0  0  0  0  0
  -23.2120   -8.7527   22.5186 C   0  0  0  0  0  0  0  0  0  0  0  0
  -27.0426  -16.6761   24.0039 C   0  0  0  0  0  0  0  0  0  0  0  0
  -20.2504   -5.8209   20.3370 C   0  0  0  0  0  0  0  0  0  0  0  0
  -18.9596   -5.7018   19.8220 C   0  0  0  0  0  0  0  0  0  0  0  0
  -28.4225  -15.1087   25.2116 C   0  0  0  0  0  0  0  0  0  0  0  0
  -18.2733   -7.6374   21.0947 C   0  0  0  0  0  0  0  0  0  0  0  0
  -23.8982  -10.4863   20.9821 C   0  0  0  0  0  0  0  0  0  0  0  0
  -24.1217  -13.0225   20.8239 C   0  0  0  0  0  0  0  0  0  0  0  0
  -20.8989  -15.9237   28.9165 C   0  0  0  0  0  0  0  0  0  0  0  0
  -26.0615  -14.6562   24.9272 C   0  0  0  0  0  0  0  0  0  0  0  0
  -22.2720  -15.9995   28.6147 C   0  0  0  0  0  0  0  0  0  0  0  0
  -27.3159  -14.2718   25.4220 C   0  0  0  0  0  0  0  0  0  0  0  0
  -22.5115   -8.1199   21.4917 C   0  0  0  0  0  0  0  0  0  0  0  0
  -28.2858  -16.3050   24.5078 C   0  0  0  0  0  0  0  0  0  0  0  0
  -20.5526   -6.8482   21.2310 C   0  0  0  0  0  0  0  0  0  0  0  0
  -17.9711   -6.6101   20.2008 C   0  0  0  0  0  0  0  0  0  0  0  0
  -19.5641   -7.7564   21.6097 C   0  0  0  0  0  0  0  0  0  0  0  0
  -24.6151  -11.7082   20.7194 C   0  0  0  0  0  0  0  0  0  0  0  0
  -25.1846  -13.8174   20.4705 C   0  0  0  0  0  0  0  0  0  0  0  0
  -22.8191  -13.4837   21.2063 C   0  0  0  0  0  0  0  0  0  0  0  0
  -24.8246  -13.5180   27.6250 C   0  0  0  0  0  0  0  0  0  0  0  0
  -26.3618  -10.8060   26.7281 C   0  0  0  0  0  0  0  0  0  0  0  0
  -28.8800   -9.3613   24.9342 C   0  0  0  0  0  0  0  0  0  0  0  0
  -30.9478  -14.0534   20.9647 C   0  0  0  0  0  0  0  0  0  0  0  0
  -20.3164  -14.7569   29.6741 C   0  0  0  0  0  0  0  0  0  0  0  0
  -24.8630  -13.7674   25.1166 C   0  0  0  0  0  0  0  0  0  0  0  0
  -27.5084  -12.9861   26.1825 C   0  0  0  0  0  0  0  0  0  0  0  0
  -21.2177  -13.5249   29.6822 C   0  0  0  0  0  0  0  0  0  0  0  0
  -29.3605  -13.1190   17.9177 C   0  0  0  0  0  0  0  0  0  0  0  0
  -22.6540  -13.9165   30.0149 C   0  0  0  0  0  0  0  0  0  0  0  0
  -27.9291  -12.7821   18.3393 C   0  0  0  0  0  0  0  0  0  0  0  0
  -30.3757  -12.6921   18.9757 C   0  0  0  0  0  0  0  0  0  0  0  0
  -28.6784  -12.8695   20.7538 C   0  0  0  0  0  0  0  0  0  0  0  0
  -23.2228  -14.8744   28.9613 C   0  0  1  0  0  0  0  0  0  0  0  0
  -25.0023  -12.8216   26.3055 C   0  0  1  0  0  0  0  0  0  0  0  0
  -27.6142  -13.3315   19.7437 C   0  0  2  0  0  0  0  0  0  0  0  0
  -30.2677   -7.5279   23.9290 C   0  0  0  0  0  0  0  0  0  0  0  0
  -29.6157  -18.8646   22.6992 C   0  0  0  0  0  0  0  0  0  0  0  0
  -27.6875  -10.7976   29.4763 C   0  0  0  0  0  0  0  0  0  0  0  0
  -29.3610   -9.1616   28.5869 C   0  0  0  0  0  0  0  0  0  0  0  0
  -26.9441   -8.5501   28.6698 C   0  0  0  0  0  0  0  0  0  0  0  0
  -27.1643   -9.2243   22.5266 C   0  0  0  0  0  0  0  0  0  0  0  0
  -31.1723  -16.8755   22.7016 C   0  0  0  0  0  0  0  0  0  0  0  0
  -31.3687  -15.3927   23.0112 C   0  0  0  0  0  0  0  0  0  0  0  0
  -27.7390  -10.2320   26.9577 C   0  0  1  0  0  0  0  0  0  0  0  0
  -28.8910   -8.1710   23.9920 C   0  0  2  0  0  0  0  0  0  0  0  0
  -29.7427  -17.3690   22.9582 C   0  0  1  0  0  0  0  0  0  1  0  0
  -27.9292   -9.7106   28.4100 C   0  0  0  0  0  0  0  0  0  0  0  0
  -25.8920  -11.6663   20.3299 N   0  0  0  0  0  0  0  0  0  0  0  0
  -26.2100  -12.9641   20.1865 N   0  0  0  0  0  0  0  0  0  0  0  0
  -26.3050  -12.1541   26.3470 N   0  0  0  0  0  0  0  0  0  0  0  0
  -30.0204  -13.2476   20.2838 N   0  0  0  0  0  0  0  0  0  0  0  0
  -25.3328  -15.1560   20.3780 N   0  0  0  0  0  0  0  0  0  0  0  0
  -21.8445  -12.5327   21.5383 N   0  0  0  0  0  0  0  0  0  0  0  0
  -23.6026  -14.1468   27.7693 N   0  0  0  0  0  0  0  0  0  0  0  0
  -27.9351   -9.2172   25.9280 N   0  0  0  0  0  0  0  0  0  0  0  0
  -30.5288  -14.5445   22.1951 N   0  0  0  0  0  0  0  0  0  0  0  0
  -28.5074   -8.5960   22.6161 N   0  3  0  0  0  0  0  0  0  0  0  0
  -22.5232  -14.7023   21.2364 O   0  0  0  0  0  0  0  0  0  0  0  0
  -25.7286  -13.4859   28.4517 O   0  0  0  0  0  0  0  0  0  0  0  0
  -25.3731  -10.0829   26.8744 O   0  0  0  0  0  0  0  0  0  0  0  0
  -29.6366  -10.3210   24.8039 O   0  0  0  0  0  0  0  0  0  0  0  0
  -32.0644  -14.3200   20.5073 O   0  0  0  0  0  0  0  0  0  0  0  0
  -21.8348   -6.9655   21.7408 O   0  0  0  0  0  0  0  0  0  0  0  0
  -29.3680  -17.1059   24.3098 O   0  0  0  0  0  0  0  0  0  1  0  0
  -16.7320   -6.4966   19.7049 F   0  0  0  0  0  0  0  0  0  0  0  0
  -19.8488   -8.7461   22.4672 F   0  0  0  0  0  0  0  0  0  0  0  0
  1  2  1  0  0  0  0
  1  5  2  0  0  0  0
  2  6  2  0  0  0  0
  3  8  2  0  0  0  0
  3 15  1  0  0  0  0
  4  9  1  0  0  0  0
  4 15  2  0  0  0  0
  5 17  1  0  0  0  0
  6 19  1  0  0  0  0
  7 10  2  0  0  0  0
  7 18  1  0  0  0  0
  8 21  1  0  0  0  0
  9 21  2  0  0  0  0
 10 22  1  0  0  0  0
 11 12  2  0  0  0  0
 11 23  1  0  0  0  0
 12 24  1  0  0  0  0
 13 20  1  0  0  0  0
 13 22  2  0  0  0  0
 14 24  2  0  0  0  0
 14 25  1  0  0  0  0
 15 26  1  0  0  0  0
 16 26  1  0  0  0  0
 16 27  2  0  0  0  0
 16 28  1  0  0  0  0
 17 19  2  0  0  0  0
 17 33  1  0  0  0  0
 18 20  2  0  0  0  0
 18 34  1  0  0  0  0
 19 42  1  0  0  0  0
 20 35  1  0  0  0  0
 21 72  1  0  0  0  0
 22 73  1  0  0  0  0
 23 25  2  0  0  0  0
 23 72  1  0  0  0  0
 24 74  1  0  0  0  0
 25 75  1  0  0  0  0
 26 57  2  0  0  0  0
 27 58  1  0  0  0  0
 27 61  1  0  0  0  0
 28 62  1  0  0  0  0
 28 67  2  0  0  0  0
 29 43  1  0  0  0  0
 29 63  1  0  0  0  0
 29 68  2  0  0  0  0
 30 53  1  0  0  0  0
 30 59  1  0  0  0  0
 30 69  2  0  0  0  0
 31 54  1  0  0  0  0
 31 64  1  0  0  0  0
 31 70  2  0  0  0  0
 32 60  1  0  0  0  0
 32 65  1  0  0  0  0
 32 71  2  0  0  0  0
 33 36  1  0  0  0  0
 34 43  1  0  0  0  0
 35 59  1  0  0  0  0
 36 38  1  0  0  0  0
 37 39  1  0  0  0  0
 37 40  1  0  0  0  0
 38 42  1  0  0  0  0
 39 44  1  0  0  0  0
 40 60  1  0  0  0  0
 41 44  1  0  0  0  0
 41 60  1  0  0  0  0
 42 63  1  0  0  0  0
 43 59  1  0  0  0  0
 44 58  1  0  0  0  0
 45 54  1  0  0  0  0
 46 55  1  0  0  0  0
 47 56  1  0  0  0  0
 48 56  1  0  0  0  0
 49 56  1  0  0  0  0
 50 66  1  0  0  0  0
 51 52  1  0  0  0  0
 51 55  1  0  0  0  0
 52 65  1  0  0  0  0
 53 56  1  0  0  0  0
 53 64  1  0  0  0  0
 54 66  1  0  0  0  0
 55 73  1  0  0  0  0
 57 58  1  0  0  0  0
M  CHG  1  66   1
M  ISO  4  32 100  55 101  65 100  73 101
M  END
> <Batch ID>
0105

> <Smiles>
CNC(C)C(=O)NC(C(=O)N1Cc2cc([101O:1][101CH:1](C)CC[100NH:0][100C:0](=O)N3CCCC(n4nc(-c5ccc(Oc6ccc(F)cc6F)cc5)c(C(N)=O)c4N)C3)ccc2CC1C(=O)NC1CCCc2ccccc21)C(C)(C)C

> <Shape>
0.150

> <Color>
0.197

> <Negative vol penalty>
0.000

$$$$

  -OEChem-04052319463D

 85 93  0     1  0  0  0  0  0999 V2000
  -21.3128  -24.6253   21.3434 C   0  0  0  0  0  0  0  0  0  0  0  0
  -22.6223  -24.2302   21.0893 C   0  0  0  0  0  0  0  0  0  0  0  0
  -23.7447  -28.9918   20.9210 C   0  0  0  0  0  0  0  0  0  0  0  0
  -25.8019  -30.2583   20.8905 C   0  0  0  0  0  0  0  0  0  0  0  0
  -20.4761  -23.8119   22.1064 C   0  0  0  0  0  0  0  0  0  0  0  0
  -23.0961  -23.0218   21.5990 C   0  0  0  0  0  0  0  0  0  0  0  0
  -27.1000  -19.2236   18.9441 C   0  0  0  0  0  0  0  0  0  0  0  0
  -23.2673  -29.7923   21.9587 C   0  0  0  0  0  0  0  0  0  0  0  0
  -25.3245  -31.0588   21.9282 C   0  0  0  0  0  0  0  0  0  0  0  0
  -28.4717  -19.0396   19.1123 C   0  0  0  0  0  0  0  0  0  0  0  0
  -24.9813  -30.8440   25.2849 C   0  0  0  0  0  0  0  0  0  0  0  0
  -25.8496  -31.1229   26.3403 C   0  0  0  0  0  0  0  0  0  0  0  0
  -28.0348  -17.2216   20.6365 C   0  0  0  0  0  0  0  0  0  0  0  0
  -25.6627  -33.4853   25.8698 C   0  0  0  0  0  0  0  0  0  0  0  0
  -32.7561  -20.1145   20.7340 C   0  0  0  0  0  0  0  0  0  0  0  0
  -25.0121  -29.2247   20.3869 C   0  0  0  0  0  0  0  0  0  0  0  0
  -25.3518  -28.6155   17.9332 C   0  0  0  0  0  0  0  0  0  0  0  0
  -20.9369  -22.5884   22.6176 C   0  0  0  0  0  0  0  0  0  0  0  0
  -26.1838  -18.4137   19.6304 C   0  0  0  0  0  0  0  0  0  0  0  0
  -22.2651  -22.1919   22.3706 C   0  0  0  0  0  0  0  0  0  0  0  0
  -26.6520  -17.3957   20.4733 C   0  0  0  0  0  0  0  0  0  0  0  0
  -32.6873  -21.4255   21.1506 C   0  0  0  0  0  0  0  0  0  0  0  0
  -32.1110  -21.4284   22.4448 C   0  0  0  0  0  0  0  0  0  0  0  0
  -24.0571  -30.8258   22.4623 C   0  0  0  0  0  0  0  0  0  0  0  0
  -28.9393  -18.0404   19.9608 C   0  0  0  0  0  0  0  0  0  0  0  0
  -24.4539  -31.8858   24.5218 C   0  0  0  0  0  0  0  0  0  0  0  0
  -26.1902  -32.4435   26.6328 C   0  0  0  0  0  0  0  0  0  0  0  0
  -24.7945  -33.2064   24.8142 C   0  0  0  0  0  0  0  0  0  0  0  0
  -25.5061  -28.3978   19.3154 C   0  0  0  0  0  0  0  0  0  0  0  0
  -31.8453  -20.1190   22.7797 C   0  0  0  0  0  0  0  0  0  0  0  0
  -25.9968  -27.5554   17.3445 C   0  0  0  0  0  0  0  0  0  0  0  0
  -24.6852  -29.6809   17.2430 C   0  0  0  0  0  0  0  0  0  0  0  0
  -23.9056  -18.9332   21.7854 C   0  0  0  0  0  0  0  0  0  0  0  0
  -23.2892  -15.7826   21.3206 C   0  0  0  0  0  0  0  0  0  0  0  0
  -24.4333  -12.7205   20.3402 C   0  0  0  0  0  0  0  0  0  0  0  0
  -30.4198  -24.1165   19.2063 C   0  0  0  0  0  0  0  0  0  0  0  0
  -20.0100  -21.7653   23.4767 C   0  0  0  0  0  0  0  0  0  0  0  0
  -24.7074  -18.6075   19.4175 C   0  0  0  0  0  0  0  0  0  0  0  0
  -25.7099  -16.4861   21.2174 C   0  0  0  0  0  0  0  0  0  0  0  0
  -20.4743  -20.3235   23.6655 C   0  0  0  0  0  0  0  0  0  0  0  0
  -27.1594  -22.9784   18.1237 C   0  0  0  0  0  0  0  0  0  0  0  0
  -21.9585  -20.2820   24.0151 C   0  0  0  0  0  0  0  0  0  0  0  0
  -26.3508  -24.2759   18.1781 C   0  0  0  0  0  0  0  0  0  0  0  0
  -28.1589  -22.9013   19.2740 C   0  0  0  0  0  0  0  0  0  0  0  0
  -28.2851  -25.3586   19.4134 C   0  0  0  0  0  0  0  0  0  0  0  0
  -22.8082  -20.8765   22.8854 C   0  0  1  0  0  0  0  0  0  0  0  0
  -23.8616  -18.0603   20.5632 C   0  0  1  0  0  0  0  0  0  0  0  0
  -27.2722  -25.5071   18.2637 C   0  0  2  0  0  0  0  0  0  0  0  0
  -33.1059  -23.1694   23.9501 C   0  0  0  0  0  0  0  0  0  0  0  0
  -32.0304  -19.8843   25.2904 C   0  0  0  0  0  0  0  0  0  0  0  0
  -23.7092  -10.3291   20.1070 C   0  0  0  0  0  0  0  0  0  0  0  0
  -23.5247  -15.4193   24.3410 C   0  0  0  0  0  0  0  0  0  0  0  0
  -23.7443  -12.9550   23.9574 C   0  0  0  0  0  0  0  0  0  0  0  0
  -21.6566  -14.1400   23.2789 C   0  0  0  0  0  0  0  0  0  0  0  0
  -24.9086  -12.7401   17.4192 C   0  0  0  0  0  0  0  0  0  0  0  0
  -33.1348  -22.6033   20.3807 C   0  0  0  0  0  0  0  0  0  0  0  0
  -31.8431  -22.6155   23.2829 C   0  0  0  0  0  0  0  0  0  0  0  0
  -32.1361  -17.8247   21.6690 C   0  0  0  0  0  0  0  0  0  0  0  0
  -32.4731  -22.7391   18.9974 C   0  0  0  0  0  0  0  0  0  0  0  0
  -30.7128  -17.3547   21.3893 C   0  0  0  0  0  0  0  0  0  1  0  0
  -31.2484  -19.5505   24.0068 C   0  0  1  0  0  0  0  0  0  0  0  0
  -23.7735  -14.4953   21.9430 C   0  0  1  0  0  0  0  0  0  0  0  0
  -23.8433  -11.6748   19.4114 C   0  0  2  0  0  0  0  0  0  0  0  0
  -23.1928  -14.2707   23.3677 C   0  0  0  0  0  0  0  0  0  0  0  0
  -26.1949  -27.2865   19.5886 N   0  0  0  0  0  0  0  0  0  0  0  0
  -32.2418  -19.3290   21.7324 N   0  0  0  0  0  0  0  0  0  0  0  0
  -26.4791  -26.7965   18.3699 N   0  0  0  0  0  0  0  0  0  0  0  0
  -24.2756  -16.7194   20.9810 N   0  0  0  0  0  0  0  0  0  0  0  0
  -29.0175  -24.0941   19.2879 N   0  0  0  0  0  0  0  0  0  0  0  0
  -26.1926  -27.2076   16.0549 N   0  0  0  0  0  0  0  0  0  0  0  0
  -24.0747  -30.6893   18.0013 N   0  0  0  0  0  0  0  0  0  0  0  0
  -22.9450  -19.9264   21.8023 N   0  0  0  0  0  0  0  0  0  0  0  0
  -23.4519  -13.4361   20.9927 N   0  0  0  0  0  0  0  0  0  0  0  0
  -31.0370  -22.8765   19.0965 N   0  0  0  0  0  0  0  0  0  0  0  0
  -29.8207  -19.9757   24.2444 N   0  3  0  0  0  0  0  0  0  0  0  0
  -24.7099  -11.4994   18.2117 N   0  3  0  0  0  0  0  0  0  0  0  0
  -24.6182  -29.7283   15.9913 O   0  0  0  0  0  0  0  0  0  0  0  0
  -24.7478  -18.7204   22.6498 O   0  0  0  0  0  0  0  0  0  0  0  0
  -22.0809  -15.9478   21.1358 O   0  0  0  0  0  0  0  0  0  0  0  0
  -25.6439  -12.8835   20.4763 O   0  0  0  0  0  0  0  0  0  0  0  0
  -31.0736  -25.1649   19.2245 O   0  0  0  0  0  0  0  0  0  0  0  0
  -23.5914  -31.6073   23.4747 O   0  0  0  0  0  0  0  0  0  0  0  0
  -30.2777  -17.8591   20.1273 O   0  0  0  0  0  0  0  0  0  1  0  0
  -27.0228  -32.7113   27.6474 F   0  0  0  0  0  0  0  0  0  0  0  0
  -24.2900  -34.2114   24.0855 F   0  0  0  0  0  0  0  0  0  0  0  0
  1  2  1  0  0  0  0
  1  5  2  0  0  0  0
  2  6  2  0  0  0  0
  3  8  2  0  0  0  0
  3 16  1  0  0  0  0
  4  9  1  0  0  0  0
  4 16  2  0  0  0  0
  5 18  1  0  0  0  0
  6 20  1  0  0  0  0
  7 10  2  0  0  0  0
  7 19  1  0  0  0  0
  8 24  1  0  0  0  0
  9 24  2  0  0  0  0
 10 25  1  0  0  0  0
 11 12  2  0  0  0  0
 11 26  1  0  0  0  0
 12 27  1  0  0  0  0
 13 21  1  0  0  0  0
 13 25  2  0  0  0  0
 14 27  2  0  0  0  0
 14 28  1  0  0  0  0
 15 22  2  0  0  0  0
 15 66  1  0  0  0  0
 16 29  1  0  0  0  0
 17 29  1  0  0  0  0
 17 31  2  0  0  0  0
 17 32  1  0  0  0  0
 18 20  2  0  0  0  0
 18 37  1  0  0  0  0
 19 21  2  0  0  0  0
 19 38  1  0  0  0  0
 20 46  1  0  0  0  0
 21 39  1  0  0  0  0
 22 23  1  0  0  0  0
 22 56  1  0  0  0  0
 23 30  2  0  0  0  0
 23 57  1  0  0  0  0
 24 82  1  0  0  0  0
 25 83  1  0  0  0  0
 26 28  2  0  0  0  0
 26 82  1  0  0  0  0
 27 84  1  0  0  0  0
 28 85  1  0  0  0  0
 29 65  2  0  0  0  0
 30 61  1  0  0  0  0
 30 66  1  0  0  0  0
 31 67  1  0  0  0  0
 31 70  1  0  0  0  0
 32 71  1  0  0  0  0
 32 77  2  0  0  0  0
 33 47  1  0  0  0  0
 33 72  1  0  0  0  0
 33 78  2  0  0  0  0
 34 62  1  0  0  0  0
 34 68  1  0  0  0  0
 34 79  2  0  0  0  0
 35 63  1  0  0  0  0
 35 73  1  0  0  0  0
 35 80  2  0  0  0  0
 36 69  1  0  0  0  0
 36 74  1  0  0  0  0
 36 81  2  0  0  0  0
 37 40  1  0  0  0  0
 38 47  1  0  0  0  0
 39 68  1  0  0  0  0
 40 42  1  0  0  0  0
 41 43  1  0  0  0  0
 41 44  1  0  0  0  0
 42 46  1  0  0  0  0
 43 48  1  0  0  0  0
 44 69  1  0  0  0  0
 45 48  1  0  0  0  0
 45 69  1  0  0  0  0
 46 72  1  0  0  0  0
 47 68  1  0  0  0  0
 48 67  1  0  0  0  0
 49 57  1  0  0  0  0
 50 61  1  0  0  0  0
 51 63  1  0  0  0  0
 52 64  1  0  0  0  0
 53 64  1  0  0  0  0
 54 64  1  0  0  0  0
 55 76  1  0  0  0  0
 56 59  1  0  0  0  0
 58 60  1  0  0  0  0
 58 66  1  0  0  0  0
 59 74  1  0  0  0  0
 60 83  1  0  0  0  0
 61 75  1  0  0  0  0
 62 64  1  0  0  0  0
 62 73  1  0  0  0  0
 63 76  1  0  0  0  0
 65 67  1  0  0  0  0
M  CHG  2  75   1  76   1
M  ISO  4  36 100  60 101  74 100  83 101
M  END
> <Batch ID>
0105

> <Smiles>
CCc1c(CC[100NH:0][100C:0](=O)N2CCCC(n3nc(-c4ccc(Oc5ccc(F)cc5F)cc4)c(C(N)=O)c3N)C2)cn(C[101CH2:1][101O:1]c2ccc3c(c2)CN(C(=O)C(NC(=O)C(C)NC)C(C)(C)C)C(C(=O)NC2CCCc4ccccc42)C3)c1C(C)N

> <Shape>
0.199

> <Color>
0.069

> <Negative vol penalty>
0.000

$$$$

  -OEChem-04052319463D

 81 88  0     1  0  0  0  0  0999 V2000
  -31.1013  -22.2813   29.2167 C   0  0  0  0  0  0  0  0  0  0  0  0
  -31.2716  -22.7996   27.9370 C   0  0  0  0  0  0  0  0  0  0  0  0
  -26.6172  -12.4543   21.7639 C   0  0  0  0  0  0  0  0  0  0  0  0
  -26.0800  -13.8503   19.8667 C   0  0  0  0  0  0  0  0  0  0  0  0
  -29.8853  -21.7022   29.5770 C   0  0  0  0  0  0  0  0  0  0  0  0
  -30.2261  -22.7380   27.0163 C   0  0  0  0  0  0  0  0  0  0  0  0
  -28.8606  -26.8773   22.7142 C   0  0  0  0  0  0  0  0  0  0  0  0
  -25.3379  -11.9002   21.7184 C   0  0  0  0  0  0  0  0  0  0  0  0
  -24.8007  -13.2962   19.8212 C   0  0  0  0  0  0  0  0  0  0  0  0
  -29.1419  -26.9401   21.3501 C   0  0  0  0  0  0  0  0  0  0  0  0
  -23.6954   -9.5710   19.8991 C   0  0  0  0  0  0  0  0  0  0  0  0
  -23.5841   -8.1861   20.0217 C   0  0  0  0  0  0  0  0  0  0  0  0
  -26.9775  -25.9912   20.8663 C   0  0  0  0  0  0  0  0  0  0  0  0
  -22.2231   -8.4703   21.9976 C   0  0  0  0  0  0  0  0  0  0  0  0
  -26.9882  -13.4294   20.8380 C   0  0  0  0  0  0  0  0  0  0  0  0
  -29.4604  -13.5408   20.2188 C   0  0  0  0  0  0  0  0  0  0  0  0
  -28.8212  -21.6421   28.6633 C   0  0  0  0  0  0  0  0  0  0  0  0
  -27.6379  -26.3600   23.1657 C   0  0  0  0  0  0  0  0  0  0  0  0
  -28.9951  -22.1563   27.3642 C   0  0  0  0  0  0  0  0  0  0  0  0
  -26.6821  -25.9253   22.2365 C   0  0  0  0  0  0  0  0  0  0  0  0
  -24.4297  -12.3211   20.7471 C   0  0  0  0  0  0  0  0  0  0  0  0
  -28.2014  -26.4944   20.4260 C   0  0  0  0  0  0  0  0  0  0  0  0
  -23.0706  -10.4057   20.8258 C   0  0  0  0  0  0  0  0  0  0  0  0
  -22.8479   -7.6357   21.0709 C   0  0  0  0  0  0  0  0  0  0  0  0
  -22.3344   -9.8553   21.8750 C   0  0  0  0  0  0  0  0  0  0  0  0
  -28.3093  -14.0026   20.8848 C   0  0  0  0  0  0  0  0  0  0  0  0
  -30.4471  -14.4224   20.5871 C   0  0  0  0  0  0  0  0  0  0  0  0
  -29.6232  -12.4155   19.3453 C   0  0  0  0  0  0  0  0  0  0  0  0
  -26.7773  -23.8883   24.9696 C   0  0  0  0  0  0  0  0  0  0  0  0
  -23.8251  -25.1996   24.6735 C   0  0  0  0  0  0  0  0  0  0  0  0
  -21.7034  -27.1861   22.8850 C   0  0  0  0  0  0  0  0  0  0  0  0
  -30.3442  -20.1127   22.4473 C   0  0  0  0  0  0  0  0  0  0  0  0
  -27.5412  -20.9640   29.0833 C   0  0  0  0  0  0  0  0  0  0  0  0
  -27.3391  -26.3238   24.6395 C   0  0  0  0  0  0  0  0  0  0  0  0
  -25.3463  -25.3801   22.6689 C   0  0  0  0  0  0  0  0  0  0  0  0
  -26.3588  -21.2750   28.1692 C   0  0  0  0  0  0  0  0  0  0  0  0
  -31.7313  -17.3222   24.1694 C   0  0  0  0  0  0  0  0  0  0  0  0
  -26.7651  -21.1371   26.7054 C   0  0  0  0  0  0  0  0  0  0  0  0
  -31.1155  -16.1133   23.4628 C   0  0  0  0  0  0  0  0  0  0  0  0
  -30.7427  -18.4818   24.2688 C   0  0  0  0  0  0  0  0  0  0  0  0
  -29.5241  -17.6845   22.2806 C   0  0  0  0  0  0  0  0  0  0  0  0
  -27.8765  -22.1305   26.3454 C   0  0  1  0  0  0  0  0  0  0  0  0
  -26.2680  -25.3015   25.0070 C   0  0  1  0  0  0  0  0  0  0  0  0
  -30.5013  -16.5094   22.1066 C   0  0  2  0  0  0  0  0  0  0  0  0
  -19.3426  -28.0371   22.8718 C   0  0  0  0  0  0  0  0  0  0  0  0
  -31.0703  -24.6677   16.2220 C   0  0  0  0  0  0  0  0  0  0  0  0
  -22.8528  -22.4800   23.6896 C   0  0  0  0  0  0  0  0  0  0  0  0
  -20.7981  -23.6099   22.8121 C   0  0  0  0  0  0  0  0  0  0  0  0
  -21.2891  -23.6421   25.2576 C   0  0  0  0  0  0  0  0  0  0  0  0
  -31.1331  -20.7210   18.5658 C   0  0  0  0  0  0  0  0  0  0  0  0
  -32.4072  -21.5933   20.5234 C   0  0  0  0  0  0  0  0  0  0  0  0
  -22.5942  -30.0014   23.0833 C   0  0  0  0  0  0  0  0  0  0  0  0
  -28.7777  -25.3108   17.0649 C   0  0  0  0  0  0  0  0  0  0  0  0
  -29.8812  -21.6246   20.5344 C   0  0  0  0  0  0  0  0  0  0  0  0
  -31.2407  -23.2140   19.0269 C   0  0  0  0  0  0  0  0  0  0  0  0
  -27.8687  -25.5646   18.2626 C   0  0  0  0  0  0  0  0  0  1  0  0
  -22.6850  -25.0564   23.6945 C   0  0  1  0  0  0  0  0  0  0  0  0
  -20.7731  -28.3072   23.3117 C   0  0  2  0  0  0  0  0  0  0  0  0
  -30.1794  -24.8308   17.4464 C   0  0  1  0  0  0  0  0  0  0  0  0
  -21.9321  -23.7055   23.8550 C   0  0  0  0  0  0  0  0  0  0  0  0
  -31.1452  -21.8072   19.6610 C   0  0  0  0  0  0  0  0  0  0  0  0
  -28.5418  -15.0928   21.6206 N   0  0  0  0  0  0  0  0  0  0  0  0
  -29.8504  -15.3234   21.4192 N   0  0  0  0  0  0  0  0  0  0  0  0
  -25.1037  -25.3593   24.1209 N   0  0  0  0  0  0  0  0  0  0  0  0
  -30.1982  -18.8088   22.9488 N   0  0  0  0  0  0  0  0  0  0  0  0
  -31.7583  -14.5070   20.2772 N   0  0  0  0  0  0  0  0  0  0  0  0
  -28.5061  -11.6141   19.0729 N   0  0  0  0  0  0  0  0  0  0  0  0
  -27.3283  -23.4572   26.1612 N   0  0  0  0  0  0  0  0  0  0  0  0
  -21.8432  -26.2345   23.8730 N   0  0  0  0  0  0  0  0  0  0  0  0
  -29.8050  -20.3362   21.1864 N   0  0  0  0  0  0  0  0  0  0  0  0
  -21.2122  -29.6001   22.7146 N   0  3  0  0  0  0  0  0  0  0  0  0
  -30.0933  -23.5106   18.1306 N   0  3  0  0  0  0  0  0  0  0  0  0
  -30.7302  -12.1196   18.8349 O   0  0  0  0  0  0  0  0  0  0  0  0
  -26.6763  -23.2368   23.9366 O   0  0  0  0  0  0  0  0  0  0  0  0
  -23.5890  -25.1779   25.8841 O   0  0  0  0  0  0  0  0  0  0  0  0
  -22.2483  -27.1554   21.7838 O   0  0  0  0  0  0  0  0  0  0  0  0
  -30.9176  -21.0098   23.0745 O   0  0  0  0  0  0  0  0  0  0  0  0
  -23.1814  -11.7805   20.7023 O   0  0  0  0  0  0  0  0  0  0  0  0
  -28.4737  -26.5540   19.0940 O   0  0  0  0  0  0  0  0  0  1  0  0
  -22.7399   -6.3057   21.1876 F   0  0  0  0  0  0  0  0  0  0  0  0
  -21.7310  -10.6521   22.7676 F   0  0  0  0  0  0  0  0  0  0  0  0
  1  2  1  0  0  0  0
  1  5  2  0  0  0  0
  2  6  2  0  0  0  0
  3  8  2  0  0  0  0
  3 15  1  0  0  0  0
  4  9  1  0  0  0  0
  4 15  2  0  0  0  0
  5 17  1  0  0  0  0
  6 19  1  0  0  0  0
  7 10  2  0  0  0  0
  7 18  1  0  0  0  0
  8 21  1  0  0  0  0
  9 21  2  0  0  0  0
 10 22  1  0  0  0  0
 11 12  2  0  0  0  0
 11 23  1  0  0  0  0
 12 24  1  0  0  0  0
 13 20  1  0  0  0  0
 13 22  2  0  0  0  0
 14 24  2  0  0  0  0
 14 25  1  0  0  0  0
 15 26  1  0  0  0  0
 16 26  1  0  0  0  0
 16 27  2  0  0  0  0
 16 28  1  0  0  0  0
 17 19  2  0  0  0  0
 17 33  1  0  0  0  0
 18 20  2  0  0  0  0
 18 34  1  0  0  0  0
 19 42  1  0  0  0  0
 20 35  1  0  0  0  0
 21 78  1  0  0  0  0
 22 79  1  0  0  0  0
 23 25  2  0  0  0  0
 23 78  1  0  0  0  0
 24 80  1  0  0  0  0
 25 81  1  0  0  0  0
 26 62  2  0  0  0  0
 27 63  1  0  0  0  0
 27 66  1  0  0  0  0
 28 67  1  0  0  0  0
 28 73  2  0  0  0  0
 29 43  1  0  0  0  0
 29 68  1  0  0  0  0
 29 74  2  0  0  0  0
 30 57  1  0  0  0  0
 30 64  1  0  0  0  0
 30 75  2  0  0  0  0
 31 58  1  0  0  0  0
 31 69  1  0  0  0  0
 31 76  2  0  0  0  0
 32 65  1  0  0  0  0
 32 70  1  0  0  0  0
 32 77  2  0  0  0  0
 33 36  1  0  0  0  0
 34 43  1  0  0  0  0
 35 64  1  0  0  0  0
 36 38  1  0  0  0  0
 37 39  1  0  0  0  0
 37 40  1  0  0  0  0
 38 42  1  0  0  0  0
 39 44  1  0  0  0  0
 40 65  1  0  0  0  0
 41 44  1  0  0  0  0
 41 65  1  0  0  0  0
 42 68  1  0  0  0  0
 43 64  1  0  0  0  0
 44 63  1  0  0  0  0
 45 58  1  0  0  0  0
 46 59  1  0  0  0  0
 47 60  1  0  0  0  0
 48 60  1  0  0  0  0
 49 60  1  0  0  0  0
 50 61  1  0  0  0  0
 51 61  1  0  0  0  0
 52 71  1  0  0  0  0
 53 56  1  0  0  0  0
 53 59  1  0  0  0  0
 54 61  1  0  0  0  0
 54 70  1  0  0  0  0
 55 61  1  0  0  0  0
 55 72  1  0  0  0  0
 56 79  1  0  0  0  0
 57 60  1  0  0  0  0
 57 69  1  0  0  0  0
 58 71  1  0  0  0  0
 59 72  1  0  0  0  0
 62 63  1  0  0  0  0
M  CHG  2  71   1  72   1
M  ISO  4  32 100  56 101  70 100  79 101
M  END
> <Batch ID>
0105

> <Smiles>
CNC(C)C(=O)NC(C(=O)N1Cc2cc([101O:1][101CH2:1]CC(C)NCC(C)(C)C[100NH:0][100C:0](=O)N3CCCC(n4nc(-c5ccc(Oc6ccc(F)cc6F)cc5)c(C(N)=O)c4N)C3)ccc2CC1C(=O)NC1CCCc2ccccc21)C(C)(C)C

> <Shape>
0.220

> <Color>
0.072

> <Negative vol penalty>
0.000

$$$$

  -OEChem-04052319463D

 79 86  0     1  0  0  0  0  0999 V2000
  -17.4949  -29.8154   20.2389 C   0  0  0  0  0  0  0  0  0  0  0  0
  -18.8329  -29.8027   19.8582 C   0  0  0  0  0  0  0  0  0  0  0  0
  -26.6799  -12.8357   21.5534 C   0  0  0  0  0  0  0  0  0  0  0  0
  -25.7350  -14.1983   19.7963 C   0  0  0  0  0  0  0  0  0  0  0  0
  -17.0801  -29.0803   21.3487 C   0  0  0  0  0  0  0  0  0  0  0  0
  -19.7572  -29.0558   20.5878 C   0  0  0  0  0  0  0  0  0  0  0  0
  -24.6497  -26.0957   18.3953 C   0  0  0  0  0  0  0  0  0  0  0  0
  -25.4579  -12.1800   21.7021 C   0  0  0  0  0  0  0  0  0  0  0  0
  -24.5129  -13.5426   19.9450 C   0  0  0  0  0  0  0  0  0  0  0  0
  -26.0018  -26.4313   18.3392 C   0  0  0  0  0  0  0  0  0  0  0  0
  -22.6898   -9.8999   22.2973 C   0  0  0  0  0  0  0  0  0  0  0  0
  -22.7094   -8.5099   22.4111 C   0  0  0  0  0  0  0  0  0  0  0  0
  -26.3881  -25.1901   20.3712 C   0  0  0  0  0  0  0  0  0  0  0  0
  -23.7517   -8.3466   20.2376 C   0  0  0  0  0  0  0  0  0  0  0  0
  -26.8185  -13.8450   20.6005 C   0  0  0  0  0  0  0  0  0  0  0  0
  -29.1417  -14.1615   19.5955 C   0  0  0  0  0  0  0  0  0  0  0  0
  -17.9981  -28.3163   22.0865 C   0  0  0  0  0  0  0  0  0  0  0  0
  -24.1539  -25.3125   19.4475 C   0  0  0  0  0  0  0  0  0  0  0  0
  -19.3545  -28.3109   21.7092 C   0  0  0  0  0  0  0  0  0  0  0  0
  -25.0298  -24.8437   20.4370 C   0  0  0  0  0  0  0  0  0  0  0  0
  -24.3744  -12.5334   20.8979 C   0  0  0  0  0  0  0  0  0  0  0  0
  -26.8706  -25.9809   19.3288 C   0  0  0  0  0  0  0  0  0  0  0  0
  -23.2012  -10.5134   21.1536 C   0  0  0  0  0  0  0  0  0  0  0  0
  -23.2403   -7.7332   21.3812 C   0  0  0  0  0  0  0  0  0  0  0  0
  -23.7321   -9.7367   20.1238 C   0  0  0  0  0  0  0  0  0  0  0  0
  -28.0805  -14.5231   20.4468 C   0  0  0  0  0  0  0  0  0  0  0  0
  -30.1023  -15.1174   19.8190 C   0  0  0  0  0  0  0  0  0  0  0  0
  -29.2495  -13.0600   18.6840 C   0  0  0  0  0  0  0  0  0  0  0  0
  -22.0256  -25.7584   21.7660 C   0  0  0  0  0  0  0  0  0  0  0  0
  -22.5756  -22.6141   22.3433 C   0  0  0  0  0  0  0  0  0  0  0  0
  -30.5443  -24.9355   18.8473 C   0  0  0  0  0  0  0  0  0  0  0  0
  -24.6827  -19.9435   22.0696 C   0  0  0  0  0  0  0  0  0  0  0  0
  -29.8527  -20.7659   21.7896 C   0  0  0  0  0  0  0  0  0  0  0  0
  -17.5110  -27.5757   23.3067 C   0  0  0  0  0  0  0  0  0  0  0  0
  -22.6978  -24.9369   19.4792 C   0  0  0  0  0  0  0  0  0  0  0  0
  -24.5513  -23.9832   21.5767 C   0  0  0  0  0  0  0  0  0  0  0  0
  -18.4866  -26.5117   23.8031 C   0  0  0  0  0  0  0  0  0  0  0  0
  -31.7153  -18.0838   23.2086 C   0  0  0  0  0  0  0  0  0  0  0  0
  -19.9050  -27.0704   23.8549 C   0  0  0  0  0  0  0  0  0  0  0  0
  -31.0907  -16.8345   22.5849 C   0  0  0  0  0  0  0  0  0  0  0  0
  -30.6674  -19.1586   23.4893 C   0  0  0  0  0  0  0  0  0  0  0  0
  -29.2105  -18.2805   21.7060 C   0  0  0  0  0  0  0  0  0  0  0  0
  -20.3827  -27.4932   22.4604 C   0  0  1  0  0  0  0  0  0  0  0  0
  -22.2075  -24.5626   20.8745 C   0  0  1  0  0  0  0  0  0  0  0  0
  -30.2364  -17.1900   21.3532 C   0  0  2  0  0  0  0  0  0  0  0  0
  -24.8724  -17.5143   22.6699 C   0  0  0  0  0  0  0  0  0  0  0  0
  -23.1702  -23.3781   25.2369 C   0  0  0  0  0  0  0  0  0  0  0  0
  -24.2489  -21.1383   25.5334 C   0  0  0  0  0  0  0  0  0  0  0  0
  -21.8246  -21.2876   24.9653 C   0  0  0  0  0  0  0  0  0  0  0  0
  -24.8809  -19.1376   19.2288 C   0  0  0  0  0  0  0  0  0  0  0  0
  -30.0551  -22.4976   18.9733 C   0  0  0  0  0  0  0  0  0  0  0  0
  -28.9691  -22.2500   20.0075 C   0  0  0  0  0  0  0  0  0  0  0  0
  -28.7606  -26.5040   17.9833 C   0  0  0  0  0  0  0  0  0  1  0  0
  -23.5477  -21.8384   23.1991 C   0  0  1  0  0  0  0  0  0  0  0  0
  -30.2470  -26.1632   18.0015 C   0  0  1  0  0  0  0  0  0  0  0  0
  -24.4458  -18.5167   21.6087 C   0  0  2  0  0  0  0  0  0  0  0  0
  -23.2068  -21.9284   24.7134 C   0  0  0  0  0  0  0  0  0  0  0  0
  -28.3420  -15.6228   21.1583 N   0  0  0  0  0  0  0  0  0  0  0  0
  -29.5786  -15.9604   20.7545 N   0  0  0  0  0  0  0  0  0  0  0  0
  -23.1177  -23.6482   21.5671 N   0  0  0  0  0  0  0  0  0  0  0  0
  -29.8929  -19.4505   22.2807 N   0  0  0  0  0  0  0  0  0  0  0  0
  -31.3354  -15.3106   19.3047 N   0  0  0  0  0  0  0  0  0  0  0  0
  -28.1699  -12.1727   18.5775 N   0  0  0  0  0  0  0  0  0  0  0  0
  -20.7718  -26.3339   21.6865 N   0  0  0  0  0  0  0  0  0  0  0  0
  -29.9305  -23.7953   18.3504 N   0  0  0  0  0  0  0  0  0  0  0  0
  -23.5627  -20.4790   22.6698 N   0  0  0  0  0  0  0  0  0  0  0  0
  -29.1010  -20.9547   20.6363 N   0  0  0  0  0  0  0  0  0  0  0  0
  -31.0061  -27.3411   18.5108 N   0  3  0  0  0  0  0  0  0  0  0  0
  -25.2168  -18.2397   20.3637 N   0  3  0  0  0  0  0  0  0  0  0  0
  -30.2794  -12.8589   17.9967 O   0  0  0  0  0  0  0  0  0  0  0  0
  -22.9535  -26.1305   22.4746 O   0  0  0  0  0  0  0  0  0  0  0  0
  -21.3805  -22.3090   22.3575 O   0  0  0  0  0  0  0  0  0  0  0  0
  -31.2503  -24.9771   19.8523 O   0  0  0  0  0  0  0  0  0  0  0  0
  -25.7553  -20.5237   21.9161 O   0  0  0  0  0  0  0  0  0  0  0  0
  -30.4472  -21.7017   22.3352 O   0  0  0  0  0  0  0  0  0  0  0  0
  -23.1818  -11.8936   21.0426 O   0  0  0  0  0  0  0  0  0  0  0  0
  -28.1907  -26.3076   19.2767 O   0  0  0  0  0  0  0  0  0  1  0  0
  -23.2604   -6.3984   21.4913 F   0  0  0  0  0  0  0  0  0  0  0  0
  -24.2259  -10.3204   19.0232 F   0  0  0  0  0  0  0  0  0  0  0  0
  1  2  1  0  0  0  0
  1  5  2  0  0  0  0
  2  6  2  0  0  0  0
  3  8  2  0  0  0  0
  3 15  1  0  0  0  0
  4  9  1  0  0  0  0
  4 15  2  0  0  0  0
  5 17  1  0  0  0  0
  6 19  1  0  0  0  0
  7 10  2  0  0  0  0
  7 18  1  0  0  0  0
  8 21  1  0  0  0  0
  9 21  2  0  0  0  0
 10 22  1  0  0  0  0
 11 12  2  0  0  0  0
 11 23  1  0  0  0  0
 12 24  1  0  0  0  0
 13 20  1  0  0  0  0
 13 22  2  0  0  0  0
 14 24  2  0  0  0  0
 14 25  1  0  0  0  0
 15 26  1  0  0  0  0
 16 26  1  0  0  0  0
 16 27  2  0  0  0  0
 16 28  1  0  0  0  0
 17 19  2  0  0  0  0
 17 34  1  0  0  0  0
 18 20  2  0  0  0  0
 18 35  1  0  0  0  0
 19 43  1  0  0  0  0
 20 36  1  0  0  0  0
 21 76  1  0  0  0  0
 22 77  1  0  0  0  0
 23 25  2  0  0  0  0
 23 76  1  0  0  0  0
 24 78  1  0  0  0  0
 25 79  1  0  0  0  0
 26 58  2  0  0  0  0
 27 59  1  0  0  0  0
 27 62  1  0  0  0  0
 28 63  1  0  0  0  0
 28 70  2  0  0  0  0
 29 44  1  0  0  0  0
 29 64  1  0  0  0  0
 29 71  2  0  0  0  0
 30 54  1  0  0  0  0
 30 60  1  0  0  0  0
 30 72  2  0  0  0  0
 31 55  1  0  0  0  0
 31 65  1  0  0  0  0
 31 73  2  0  0  0  0
 32 56  1  0  0  0  0
 32 66  1  0  0  0  0
 32 74  2  0  0  0  0
 33 61  1  0  0  0  0
 33 67  1  0  0  0  0
 33 75  2  0  0  0  0
 34 37  1  0  0  0  0
 35 44  1  0  0  0  0
 36 60  1  0  0  0  0
 37 39  1  0  0  0  0
 38 40  1  0  0  0  0
 38 41  1  0  0  0  0
 39 43  1  0  0  0  0
 40 45  1  0  0  0  0
 41 61  1  0  0  0  0
 42 45  1  0  0  0  0
 42 61  1  0  0  0  0
 43 64  1  0  0  0  0
 44 60  1  0  0  0  0
 45 59  1  0  0  0  0
 46 56  1  0  0  0  0
 47 57  1  0  0  0  0
 48 57  1  0  0  0  0
 49 57  1  0  0  0  0
 50 69  1  0  0  0  0
 51 52  1  0  0  0  0
 51 65  1  0  0  0  0
 52 67  1  0  0  0  0
 53 55  1  0  0  0  0
 53 77  1  0  0  0  0
 54 57  1  0  0  0  0
 54 66  1  0  0  0  0
 55 68  1  0  0  0  0
 56 69  1  0  0  0  0
 58 59  1  0  0  0  0
M  CHG  2  68   1  69   1
M  ISO  4  33 100  53 101  67 100  77 101
M  END
> <Batch ID>
0105

> <Smiles>
CNC(C)C(=O)NC(C(=O)N1Cc2cc([101O:1][101CH2:1]C(N)C(=O)NCC[100NH:0][100C:0](=O)N3CCCC(n4nc(-c5ccc(Oc6ccc(F)cc6F)cc5)c(C(N)=O)c4N)C3)ccc2CC1C(=O)NC1CCCc2ccccc21)C(C)(C)C

> <Shape>
0.243

> <Color>
0.071

> <Negative vol penalty>
0.000

$$$$

  -OEChem-04052319463D

 79 87  0     1  0  0  0  0  0999 V2000
  -21.5032  -29.8361   21.2246 C   0  0  0  0  0  0  0  0  0  0  0  0
  -22.5411  -28.9229   21.3808 C   0  0  0  0  0  0  0  0  0  0  0  0
  -22.6413  -10.2641   20.2372 C   0  0  0  0  0  0  0  0  0  0  0  0
  -24.1916   -9.6539   21.9868 C   0  0  0  0  0  0  0  0  0  0  0  0
  -20.2087  -29.4911   21.6109 C   0  0  0  0  0  0  0  0  0  0  0  0
  -22.2852  -27.6646   21.9244 C   0  0  0  0  0  0  0  0  0  0  0  0
  -25.0140  -22.3875   20.4370 C   0  0  0  0  0  0  0  0  0  0  0  0
  -21.8884   -9.1211   20.5056 C   0  0  0  0  0  0  0  0  0  0  0  0
  -23.4387   -8.5108   22.2552 C   0  0  0  0  0  0  0  0  0  0  0  0
  -26.0533  -21.6700   21.0274 C   0  0  0  0  0  0  0  0  0  0  0  0
  -23.0283   -5.4291   20.9265 C   0  0  0  0  0  0  0  0  0  0  0  0
  -23.7146   -4.2278   21.1036 C   0  0  0  0  0  0  0  0  0  0  0  0
  -24.4411  -20.2996   22.1858 C   0  0  0  0  0  0  0  0  0  0  0  0
  -22.8121   -4.0414   23.3370 C   0  0  0  0  0  0  0  0  0  0  0  0
  -23.7930  -10.5305   20.9777 C   0  0  0  0  0  0  0  0  0  0  0  0
  -24.1416  -13.0494   20.7740 C   0  0  0  0  0  0  0  0  0  0  0  0
  -19.9351  -28.2244   22.1505 C   0  0  0  0  0  0  0  0  0  0  0  0
  -23.6782  -22.0730   20.7254 C   0  0  0  0  0  0  0  0  0  0  0  0
  -20.9861  -27.3028   22.3195 C   0  0  0  0  0  0  0  0  0  0  0  0
  -23.3866  -21.0130   21.5957 C   0  0  0  0  0  0  0  0  0  0  0  0
  -22.2870   -8.2444   21.5146 C   0  0  0  0  0  0  0  0  0  0  0  0
  -25.7670  -20.6277   21.9042 C   0  0  0  0  0  0  0  0  0  0  0  0
  -22.2339   -5.9366   21.9546 C   0  0  0  0  0  0  0  0  0  0  0  0
  -23.6065   -3.5339   22.3088 C   0  0  0  0  0  0  0  0  0  0  0  0
  -22.1258   -5.2428   23.1599 C   0  0  0  0  0  0  0  0  0  0  0  0
  -24.5715  -11.7109   20.7006 C   0  0  0  0  0  0  0  0  0  0  0  0
  -25.2459  -13.7847   20.4185 C   0  0  0  0  0  0  0  0  0  0  0  0
  -22.8587  -13.5806   21.1315 C   0  0  0  0  0  0  0  0  0  0  0  0
  -21.2449  -23.6264   22.0558 C   0  0  0  0  0  0  0  0  0  0  0  0
  -19.5846  -20.9807   21.1806 C   0  0  0  0  0  0  0  0  0  0  0  0
  -19.6295  -17.6592   20.3979 C   0  0  0  0  0  0  0  0  0  0  0  0
  -30.7218  -14.8102   20.7471 C   0  0  0  0  0  0  0  0  0  0  0  0
  -18.5284  -27.9141   22.5974 C   0  0  0  0  0  0  0  0  0  0  0  0
  -22.5683  -22.8393   20.0595 C   0  0  0  0  0  0  0  0  0  0  0  0
  -21.9692  -20.6224   21.9227 C   0  0  0  0  0  0  0  0  0  0  0  0
  -18.2738  -26.4252   22.8179 C   0  0  0  0  0  0  0  0  0  0  0  0
  -29.6597  -12.3375   18.4160 C   0  0  0  0  0  0  0  0  0  0  0  0
  -19.4081  -25.8037   23.6266 C   0  0  0  0  0  0  0  0  0  0  0  0
  -28.2085  -12.0603   18.8125 C   0  0  0  0  0  0  0  0  0  0  0  0
  -30.9250  -17.0804   23.4236 C   0  0  0  0  0  0  0  0  0  0  0  0
  -30.5375  -12.6034   19.6369 C   0  0  0  0  0  0  0  0  0  0  0  0
  -28.5924  -13.3861   20.9323 C   0  0  0  0  0  0  0  0  0  0  0  0
  -29.6117  -17.3250   24.1482 C   0  0  0  0  0  0  0  0  0  0  0  0
  -20.7439  -25.9191   22.8823 C   0  0  1  0  0  0  0  0  0  0  0  0
  -21.2499  -22.7665   20.8237 C   0  0  1  0  0  0  0  0  0  0  0  0
  -30.0051  -18.2517   21.3661 C   0  0  2  0  0  0  0  0  0  0  0  0
  -27.6569  -13.1673   19.7309 C   0  0  2  0  0  0  0  0  0  0  0  0
  -30.7499  -17.0059   21.9036 C   0  0  2  0  0  0  0  0  0  0  0  0
  -28.6789  -18.4968   22.1177 C   0  0  2  0  0  0  0  0  0  0  0  0
  -29.7999  -18.1619   19.8491 C   0  0  0  0  0  0  0  0  0  0  0  0
  -18.1118  -15.7643   19.7630 C   0  0  0  0  0  0  0  0  0  0  0  0
  -18.6512  -20.7610   24.0772 C   0  0  0  0  0  0  0  0  0  0  0  0
  -17.9573  -18.4029   23.6017 C   0  0  0  0  0  0  0  0  0  0  0  0
  -16.8830  -20.2892   22.3727 C   0  0  0  0  0  0  0  0  0  0  0  0
  -20.9961  -17.2820   17.8000 C   0  0  0  0  0  0  0  0  0  0  0  0
  -27.9931  -19.8069   21.7412 C   0  0  0  0  0  0  0  0  0  1  0  0
  -19.2687  -19.6540   21.8279 C   0  0  1  0  0  0  0  0  0  0  0  0
  -19.0026  -16.8858   19.2519 C   0  0  2  0  0  0  0  0  0  0  0  0
  -18.2169  -19.7852   22.9654 C   0  0  0  0  0  0  0  0  0  0  0  0
  -25.8492  -11.5994   20.3277 N   0  0  0  0  0  0  0  0  0  0  0  0
  -26.2316  -12.8772   20.1635 N   0  0  0  0  0  0  0  0  0  0  0  0
  -20.9189  -21.4057   21.2513 N   0  0  0  0  0  0  0  0  0  0  0  0
  -29.9596  -13.6646   20.4652 N   0  0  0  0  0  0  0  0  0  0  0  0
  -25.4601  -15.1125   20.3023 N   0  0  0  0  0  0  0  0  0  0  0  0
  -22.6096  -13.8754   22.4789 N   0  0  0  0  0  0  0  0  0  0  0  0
  -20.8261  -24.9244   21.8343 N   0  0  0  0  0  0  0  0  0  0  0  0
  -18.8721  -18.7570   20.7479 N   0  0  0  0  0  0  0  0  0  0  0  0
  -30.0966  -15.7701   21.5336 N   0  0  0  0  0  0  0  0  0  0  0  0
  -28.9696  -18.5524   23.5946 N   0  3  0  0  0  0  0  0  0  0  0  0
  -20.0613  -16.2891   18.3893 N   0  3  0  0  0  0  0  0  0  0  0  0
  -21.9543  -13.7723   20.2837 O   0  0  0  0  0  0  0  0  0  0  0  0
  -21.5938  -23.1472   23.1284 O   0  0  0  0  0  0  0  0  0  0  0  0
  -18.6823  -21.6132   20.6261 O   0  0  0  0  0  0  0  0  0  0  0  0
  -20.6836  -17.3211   20.9318 O   0  0  0  0  0  0  0  0  0  0  0  0
  -31.8721  -14.9685   20.3245 O   0  0  0  0  0  0  0  0  0  0  0  0
  -21.5524   -7.1290   21.7770 O   0  0  0  0  0  0  0  0  0  0  0  0
  -26.7796  -19.9261   22.4824 O   0  0  0  0  0  0  0  0  0  1  0  0
  -24.2645   -2.3796   22.4782 F   0  0  0  0  0  0  0  0  0  0  0  0
  -21.3632   -5.7248   24.1508 F   0  0  0  0  0  0  0  0  0  0  0  0
  1  2  1  0  0  0  0
  1  5  2  0  0  0  0
  2  6  2  0  0  0  0
  3  8  2  0  0  0  0
  3 15  1  0  0  0  0
  4  9  1  0  0  0  0
  4 15  2  0  0  0  0
  5 17  1  0  0  0  0
  6 19  1  0  0  0  0
  7 10  2  0  0  0  0
  7 18  1  0  0  0  0
  8 21  1  0  0  0  0
  9 21  2  0  0  0  0
 10 22  1  0  0  0  0
 11 12  2  0  0  0  0
 11 23  1  0  0  0  0
 12 24  1  0  0  0  0
 13 20  1  0  0  0  0
 13 22  2  0  0  0  0
 14 24  2  0  0  0  0
 14 25  1  0  0  0  0
 15 26  1  0  0  0  0
 16 26  1  0  0  0  0
 16 27  2  0  0  0  0
 16 28  1  0  0  0  0
 17 19  2  0  0  0  0
 17 33  1  0  0  0  0
 18 20  2  0  0  0  0
 18 34  1  0  0  0  0
 19 44  1  0  0  0  0
 20 35  1  0  0  0  0
 21 76  1  0  0  0  0
 22 77  1  0  0  0  0
 23 25  2  0  0  0  0
 23 76  1  0  0  0  0
 24 78  1  0  0  0  0
 25 79  1  0  0  0  0
 26 60  2  0  0  0  0
 27 61  1  0  0  0  0
 27 64  1  0  0  0  0
 28 65  1  0  0  0  0
 28 71  2  0  0  0  0
 29 45  1  0  0  0  0
 29 66  1  0  0  0  0
 29 72  2  0  0  0  0
 30 57  1  0  0  0  0
 30 62  1  0  0  0  0
 30 73  2  0  0  0  0
 31 58  1  0  0  0  0
 31 67  1  0  0  0  0
 31 74  2  0  0  0  0
 32 63  1  0  0  0  0
 32 68  1  0  0  0  0
 32 75  2  0  0  0  0
 33 36  1  0  0  0  0
 34 45  1  0  0  0  0
 35 62  1  0  0  0  0
 36 38  1  0  0  0  0
 37 39  1  0  0  0  0
 37 41  1  0  0  0  0
 38 44  1  0  0  0  0
 39 47  1  0  0  0  0
 40 43  1  0  0  0  0
 40 48  1  0  0  0  0
 41 63  1  0  0  0  0
 42 47  1  0  0  0  0
 42 63  1  0  0  0  0
 43 69  1  0  0  0  0
 44 66  1  0  0  0  0
 45 62  1  0  0  0  0
 46 48  1  0  0  0  0
 46 49  1  0  0  0  0
 46 50  1  0  0  0  0
 47 61  1  0  0  0  0
 48 68  1  0  0  0  0
 49 56  1  0  0  0  0
 49 69  1  0  0  0  0
 51 58  1  0  0  0  0
 52 59  1  0  0  0  0
 53 59  1  0  0  0  0
 54 59  1  0  0  0  0
 55 70  1  0  0  0  0
 56 77  1  0  0  0  0
 57 59  1  0  0  0  0
 57 67  1  0  0  0  0
 58 70  1  0  0  0  0
 60 61  1  0  0  0  0
M  CHG  2  69   1  70   1
M  ISO  4  32 100  56 101  68 100  77 101
M  END
> <Batch ID>
0105

> <Smiles>
CNC(C)C(=O)NC(C(=O)N1Cc2cc([101O:1][101CH2:1]C3NCCC([100NH:0][100C:0](=O)N4CCCC(n5nc(-c6ccc(Oc7ccc(F)cc7F)cc6)c(C(N)=O)c5N)C4)C3C)ccc2CC1C(=O)NC1CCCc2ccccc21)C(C)(C)C

> <Shape>
0.256

> <Color>
0.182

> <Negative vol penalty>
0.000

$$$$

  -OEChem-04052319463D

 86 94  0     1  0  0  0  0  0999 V2000
  -28.0557  -18.3096   18.8424 C   0  0  0  0  0  0  0  0  0  0  0  0
  -28.5173  -17.1946   19.5345 C   0  0  0  0  0  0  0  0  0  0  0  0
  -23.1469   -9.8477   19.9322 C   0  0  0  0  0  0  0  0  0  0  0  0
  -23.6429   -9.9837   22.2928 C   0  0  0  0  0  0  0  0  0  0  0  0
  -28.2981  -19.5884   19.3421 C   0  0  0  0  0  0  0  0  0  0  0  0
  -29.2225  -17.3578   20.7263 C   0  0  0  0  0  0  0  0  0  0  0  0
  -29.0754  -13.6837   25.6238 C   0  0  0  0  0  0  0  0  0  0  0  0
  -22.3885   -8.6991   20.1577 C   0  0  0  0  0  0  0  0  0  0  0  0
  -22.8844   -8.8350   22.5184 C   0  0  0  0  0  0  0  0  0  0  0  0
  -29.9270  -12.6708   26.0624 C   0  0  0  0  0  0  0  0  0  0  0  0
  -21.3755   -5.7343   23.6666 C   0  0  0  0  0  0  0  0  0  0  0  0
  -21.9120   -4.7574   24.5053 C   0  0  0  0  0  0  0  0  0  0  0  0
  -31.0485  -14.2462   27.5045 C   0  0  0  0  0  0  0  0  0  0  0  0
  -34.8862  -13.1915   22.7432 C   0  0  0  0  0  0  0  0  0  0  0  0
  -23.7987   -4.5148   23.0158 C   0  0  0  0  0  0  0  0  0  0  0  0
  -33.5747  -14.0328   24.3686 C   0  0  0  0  0  0  0  0  0  0  0  0
  -23.7742  -10.4900   20.9998 C   0  0  0  0  0  0  0  0  0  0  0  0
  -24.1080  -13.0100   20.7854 C   0  0  0  0  0  0  0  0  0  0  0  0
  -28.9983  -19.7671   20.5457 C   0  0  0  0  0  0  0  0  0  0  0  0
  -29.2112  -14.9902   26.1150 C   0  0  0  0  0  0  0  0  0  0  0  0
  -29.4757  -18.6403   21.2419 C   0  0  0  0  0  0  0  0  0  0  0  0
  -30.1957  -15.2734   27.0724 C   0  0  0  0  0  0  0  0  0  0  0  0
  -33.7941  -14.0540   23.0089 C   0  0  0  0  0  0  0  0  0  0  0  0
  -22.2572   -8.1927   21.4508 C   0  0  0  0  0  0  0  0  0  0  0  0
  -30.9156  -12.9525   27.0007 C   0  0  0  0  0  0  0  0  0  0  0  0
  -22.0505   -6.1014   22.5024 C   0  0  0  0  0  0  0  0  0  0  0  0
  -23.1236   -4.1477   24.1800 C   0  0  0  0  0  0  0  0  0  0  0  0
  -23.2622   -5.4917   22.1771 C   0  0  0  0  0  0  0  0  0  0  0  0
  -24.5583  -11.6763   20.7674 C   0  0  0  0  0  0  0  0  0  0  0  0
  -35.3008  -12.6694   23.9486 C   0  0  0  0  0  0  0  0  0  0  0  0
  -25.2284  -13.7545   20.5080 C   0  0  0  0  0  0  0  0  0  0  0  0
  -22.7944  -13.5295   21.0311 C   0  0  0  0  0  0  0  0  0  0  0  0
  -29.8817  -17.8148   24.8206 C   0  0  0  0  0  0  0  0  0  0  0  0
  -29.2314  -18.9009   27.8072 C   0  0  0  0  0  0  0  0  0  0  0  0
  -29.0396  -18.2447   31.1508 C   0  0  0  0  0  0  0  0  0  0  0  0
  -30.8060  -13.7983   21.6485 C   0  0  0  0  0  0  0  0  0  0  0  0
  -29.2771  -21.1707   21.0219 C   0  0  0  0  0  0  0  0  0  0  0  0
  -28.2673  -16.0658   25.6517 C   0  0  0  0  0  0  0  0  0  0  0  0
  -30.3698  -16.6551   27.6461 C   0  0  0  0  0  0  0  0  0  0  0  0
  -29.7069  -21.2434   22.4848 C   0  0  0  0  0  0  0  0  0  0  0  0
  -29.5942  -12.8219   18.3811 C   0  0  0  0  0  0  0  0  0  0  0  0
  -30.7690  -20.1897   22.7822 C   0  0  0  0  0  0  0  0  0  0  0  0
  -28.1160  -12.5561   18.6718 C   0  0  0  0  0  0  0  0  0  0  0  0
  -30.4759  -12.3690   19.5411 C   0  0  0  0  0  0  0  0  0  0  0  0
  -28.6396  -12.7022   21.1506 C   0  0  0  0  0  0  0  0  0  0  0  0
  -30.2230  -18.7755   22.5509 C   0  0  1  0  0  0  0  0  0  0  0  0
  -28.8281  -17.4726   25.8357 C   0  0  1  0  0  0  0  0  0  0  0  0
  -27.6939  -13.1588   20.0249 C   0  0  2  0  0  0  0  0  0  0  0  0
  -35.7692   -8.8773   21.6231 C   0  0  0  0  0  0  0  0  0  0  0  0
  -37.7108  -12.4536   24.6073 C   0  0  0  0  0  0  0  0  0  0  0  0
  -28.5172  -19.3412   33.3467 C   0  0  0  0  0  0  0  0  0  0  0  0
  -32.1863   -9.8413   26.4030 C   0  0  0  0  0  0  0  0  0  0  0  0
  -31.9518  -20.2820   27.7619 C   0  0  0  0  0  0  0  0  0  0  0  0
  -31.7858  -20.5371   30.2470 C   0  0  0  0  0  0  0  0  0  0  0  0
  -30.1085  -21.6410   28.7668 C   0  0  0  0  0  0  0  0  0  0  0  0
  -26.7760  -16.4078   31.6617 C   0  0  0  0  0  0  0  0  0  0  0  0
  -33.0319  -14.8321   22.0140 C   0  0  0  0  0  0  0  0  0  0  0  0
  -35.4700   -9.8362   22.7655 C   0  0  0  0  0  0  0  0  0  0  0  0
  -36.6915  -10.6960   23.1073 C   0  0  0  0  0  0  0  0  0  0  0  0
  -34.0332  -11.5118   26.7939 C   0  0  0  0  0  0  0  0  0  0  0  0
  -34.5948  -12.8866   26.4037 C   0  0  0  0  0  0  0  0  0  0  0  0
  -36.3950  -11.7218   24.2451 C   0  0  2  0  0  0  0  0  0  0  0  0
  -30.0404  -19.1308   29.0609 C   0  0  1  0  0  0  0  0  0  0  0  0
  -27.9613  -18.5454   32.1761 C   0  0  2  0  0  0  0  0  0  0  0  0
  -32.5524  -11.3195   26.4438 C   0  0  2  0  0  0  0  0  0  1  0  0
  -30.9698  -20.3720   28.9471 C   0  0  0  0  0  0  0  0  0  0  0  0
  -25.8630  -11.5762   20.4995 N   0  0  0  0  0  0  0  0  0  0  0  0
  -34.4962  -13.1876   24.9295 N   0  0  0  0  0  0  0  0  0  0  0  0
  -26.2421  -12.8564   20.3466 N   0  0  0  0  0  0  0  0  0  0  0  0
  -29.4265  -17.6742   27.1569 N   0  0  0  0  0  0  0  0  0  0  0  0
  -30.0328  -12.9929   20.7959 N   0  0  0  0  0  0  0  0  0  0  0  0
  -25.4355  -15.0831   20.3887 N   0  0  0  0  0  0  0  0  0  0  0  0
  -21.7579  -12.6253   21.3002 N   0  0  0  0  0  0  0  0  0  0  0  0
  -29.3832  -18.3707   23.6578 N   0  0  0  0  0  0  0  0  0  0  0  0
  -29.0816  -19.2009   30.1583 N   0  0  0  0  0  0  0  0  0  0  0  0
  -32.1168  -14.0194   21.2439 N   0  0  0  0  0  0  0  0  0  0  0  0
  -27.3798  -17.2784   32.7030 N   0  3  0  0  0  0  0  0  0  0  0  0
  -22.5438  -14.7581   20.9963 O   0  0  0  0  0  0  0  0  0  0  0  0
  -31.0598  -17.5925   25.0741 O   0  0  0  0  0  0  0  0  0  0  0  0
  -28.4497  -19.7744   27.4232 O   0  0  0  0  0  0  0  0  0  0  0  0
  -29.7739  -17.2619   31.2251 O   0  0  0  0  0  0  0  0  0  0  0  0
  -30.3596  -14.2889   22.6911 O   0  0  0  0  0  0  0  0  0  0  0  0
  -21.5170   -7.0720   21.6712 O   0  0  0  0  0  0  0  0  0  0  0  0
  -31.7486  -11.9658   27.4300 O   0  0  0  0  0  0  0  0  0  1  0  0
  -23.6395   -3.2107   24.9863 F   0  0  0  0  0  0  0  0  0  0  0  0
  -23.9159   -5.8410   21.0607 F   0  0  0  0  0  0  0  0  0  0  0  0
  1  2  1  0  0  0  0
  1  5  2  0  0  0  0
  2  6  2  0  0  0  0
  3  8  2  0  0  0  0
  3 17  1  0  0  0  0
  4  9  1  0  0  0  0
  4 17  2  0  0  0  0
  5 19  1  0  0  0  0
  6 21  1  0  0  0  0
  7 10  2  0  0  0  0
  7 20  1  0  0  0  0
  8 24  1  0  0  0  0
  9 24  2  0  0  0  0
 10 25  1  0  0  0  0
 11 12  2  0  0  0  0
 11 26  1  0  0  0  0
 12 27  1  0  0  0  0
 13 22  1  0  0  0  0
 13 25  2  0  0  0  0
 14 23  1  0  0  0  0
 14 30  2  0  0  0  0
 15 27  2  0  0  0  0
 15 28  1  0  0  0  0
 16 23  2  0  0  0  0
 16 68  1  0  0  0  0
 17 29  1  0  0  0  0
 18 29  1  0  0  0  0
 18 31  2  0  0  0  0
 18 32  1  0  0  0  0
 19 21  2  0  0  0  0
 19 37  1  0  0  0  0
 20 22  2  0  0  0  0
 20 38  1  0  0  0  0
 21 46  1  0  0  0  0
 22 39  1  0  0  0  0
 23 57  1  0  0  0  0
 24 83  1  0  0  0  0
 25 84  1  0  0  0  0
 26 28  2  0  0  0  0
 26 83  1  0  0  0  0
 27 85  1  0  0  0  0
 28 86  1  0  0  0  0
 29 67  2  0  0  0  0
 30 62  1  0  0  0  0
 30 68  1  0  0  0  0
 31 69  1  0  0  0  0
 31 72  1  0  0  0  0
 32 73  1  0  0  0  0
 32 78  2  0  0  0  0
 33 47  1  0  0  0  0
 33 74  1  0  0  0  0
 33 79  2  0  0  0  0
 34 63  1  0  0  0  0
 34 70  1  0  0  0  0
 34 80  2  0  0  0  0
 35 64  1  0  0  0  0
 35 75  1  0  0  0  0
 35 81  2  0  0  0  0
 36 71  1  0  0  0  0
 36 76  1  0  0  0  0
 36 82  2  0  0  0  0
 37 40  1  0  0  0  0
 38 47  1  0  0  0  0
 39 70  1  0  0  0  0
 40 42  1  0  0  0  0
 41 43  1  0  0  0  0
 41 44  1  0  0  0  0
 42 46  1  0  0  0  0
 43 48  1  0  0  0  0
 44 71  1  0  0  0  0
 45 48  1  0  0  0  0
 45 71  1  0  0  0  0
 46 74  1  0  0  0  0
 47 70  1  0  0  0  0
 48 69  1  0  0  0  0
 49 58  1  0  0  0  0
 50 62  1  0  0  0  0
 51 64  1  0  0  0  0
 52 65  1  0  0  0  0
 53 66  1  0  0  0  0
 54 66  1  0  0  0  0
 55 66  1  0  0  0  0
 56 77  1  0  0  0  0
 57 76  1  0  0  0  0
 58 59  1  0  0  0  0
 59 62  1  0  0  0  0
 60 61  1  0  0  0  0
 60 65  1  0  0  0  0
 61 68  1  0  0  0  0
 63 66  1  0  0  0  0
 63 75  1  0  0  0  0
 64 77  1  0  0  0  0
 65 84  1  0  0  0  0
 67 69  1  0  0  0  0
M  CHG  1  77   1
M  ISO  4  36 100  65 101  76 100  84 101
M  END
> <Batch ID>
0105

> <Smiles>
CCCC(C)c1cc(C[100NH:0][100C:0](=O)N2CCCC(n3nc(-c4ccc(Oc5ccc(F)cc5F)cc4)c(C(N)=O)c3N)C2)cn1CC[101CH:1](C)[101O:1]c1ccc2c(c1)CN(C(=O)C(NC(=O)C(C)NC)C(C)(C)C)C(C(=O)NC1CCCc3ccccc31)C2

> <Shape>
0.195

> <Color>
0.180

> <Negative vol penalty>
0.000

$$$$

  -OEChem-04052319463D

 83 90  0     1  0  0  0  0  0999 V2000
  -29.5856  -12.0300   19.8264 C   0  0  0  0  0  0  0  0  0  0  0  0
  -29.6925  -13.3598   20.2208 C   0  0  0  0  0  0  0  0  0  0  0  0
  -29.3036  -26.7545   21.2540 C   0  0  0  0  0  0  0  0  0  0  0  0
  -27.5837  -25.2912   20.3953 C   0  0  0  0  0  0  0  0  0  0  0  0
  -28.4395  -11.5900   19.1656 C   0  0  0  0  0  0  0  0  0  0  0  0
  -28.6536  -14.2507   19.9536 C   0  0  0  0  0  0  0  0  0  0  0  0
  -25.4172  -20.0319   22.6776 C   0  0  0  0  0  0  0  0  0  0  0  0
  -30.0860  -25.6457   21.5766 C   0  0  0  0  0  0  0  0  0  0  0  0
  -28.3660  -24.1824   20.7177 C   0  0  0  0  0  0  0  0  0  0  0  0
  -25.0349  -21.3229   22.3158 C   0  0  0  0  0  0  0  0  0  0  0  0
  -31.0269  -22.5515   19.4213 C   0  0  0  0  0  0  0  0  0  0  0  0
  -31.1375  -21.5391   18.4683 C   0  0  0  0  0  0  0  0  0  0  0  0
  -23.0689  -20.4323   21.2384 C   0  0  0  0  0  0  0  0  0  0  0  0
  -30.1747  -19.9654   20.0284 C   0  0  0  0  0  0  0  0  0  0  0  0
  -28.0524  -26.5773   20.6634 C   0  0  0  0  0  0  0  0  0  0  0  0
  -27.2404  -28.4373   19.1179 C   0  0  0  0  0  0  0  0  0  0  0  0
  -27.3820  -12.4737   18.8987 C   0  0  0  0  0  0  0  0  0  0  0  0
  -24.6325  -18.9285   22.3124 C   0  0  0  0  0  0  0  0  0  0  0  0
  -27.4928  -13.8225   19.2873 C   0  0  0  0  0  0  0  0  0  0  0  0
  -23.4421  -19.1285   21.5989 C   0  0  0  0  0  0  0  0  0  0  0  0
  -29.6172  -24.3596   21.3084 C   0  0  0  0  0  0  0  0  0  0  0  0
  -23.8621  -21.5230   21.5936 C   0  0  0  0  0  0  0  0  0  0  0  0
  -30.4903  -22.2710   20.6779 C   0  0  0  0  0  0  0  0  0  0  0  0
  -30.7114  -20.2460   18.7718 C   0  0  0  0  0  0  0  0  0  0  0  0
  -30.0642  -20.9780   20.9815 C   0  0  0  0  0  0  0  0  0  0  0  0
  -27.2435  -27.7223   20.3306 C   0  0  0  0  0  0  0  0  0  0  0  0
  -26.3051  -29.4257   19.3046 C   0  0  0  0  0  0  0  0  0  0  0  0
  -28.0137  -28.2268   17.9291 C   0  0  0  0  0  0  0  0  0  0  0  0
  -25.0903  -16.3468   20.5155 C   0  0  0  0  0  0  0  0  0  0  0  0
  -22.1586  -15.5258   21.6350 C   0  0  0  0  0  0  0  0  0  0  0  0
  -19.1702  -16.5310   22.9410 C   0  0  0  0  0  0  0  0  0  0  0  0
  -20.2216  -26.4252   23.3948 C   0  0  0  0  0  0  0  0  0  0  0  0
  -21.5242  -29.8929   22.8788 C   0  0  0  0  0  0  0  0  0  0  0  0
  -26.1830  -11.9628   18.1397 C   0  0  0  0  0  0  0  0  0  0  0  0
  -25.0450  -17.5447   22.7334 C   0  0  0  0  0  0  0  0  0  0  0  0
  -22.5540  -17.9793   21.2000 C   0  0  0  0  0  0  0  0  0  0  0  0
  -24.9689  -12.8840   18.2273 C   0  0  0  0  0  0  0  0  0  0  0  0
  -24.3158  -32.0983   22.7383 C   0  0  0  0  0  0  0  0  0  0  0  0
  -25.3783  -14.3321   17.9778 C   0  0  0  0  0  0  0  0  0  0  0  0
  -25.3824  -31.2914   21.9959 C   0  0  0  0  0  0  0  0  0  0  0  0
  -23.4726  -31.2123   23.6528 C   0  0  0  0  0  0  0  0  0  0  0  0
  -23.9265  -29.2383   22.2488 C   0  0  0  0  0  0  0  0  0  0  0  0
  -26.3768  -14.8135   19.0374 C   0  0  1  0  0  0  0  0  0  0  0  0
  -24.4355  -16.4491   21.8640 C   0  0  1  0  0  0  0  0  0  0  0  0
  -24.7657  -30.0794   21.2719 C   0  0  2  0  0  0  0  0  0  0  0  0
  -16.9588  -15.6348   23.7182 C   0  0  0  0  0  0  0  0  0  0  0  0
  -17.2639  -25.8269   23.6828 C   0  0  0  0  0  0  0  0  0  0  0  0
  -16.6930  -27.8279   22.3100 C   0  0  0  0  0  0  0  0  0  0  0  0
  -18.9517  -28.3411   24.4190 C   0  0  0  0  0  0  0  0  0  0  0  0
  -21.2931  -15.1518   18.7331 C   0  0  0  0  0  0  0  0  0  0  0  0
  -18.9134  -15.1992   19.5097 C   0  0  0  0  0  0  0  0  0  0  0  0
  -20.4483  -13.4019   20.3074 C   0  0  0  0  0  0  0  0  0  0  0  0
  -19.5925  -17.5475   25.6883 C   0  0  0  0  0  0  0  0  0  0  0  0
  -22.8541  -24.9703   22.0052 C   0  0  0  0  0  0  0  0  0  0  0  0
  -21.4475  -24.5261   22.3829 C   0  0  0  0  0  0  0  0  0  0  0  0
  -19.6754  -28.4802   22.0152 C   0  0  0  0  0  0  0  0  0  0  0  0
  -23.8777  -23.8457   22.1043 C   0  0  0  0  0  0  0  0  0  1  0  0
  -20.7376  -15.7568   21.1808 C   0  0  1  0  0  0  0  0  0  0  0  0
  -18.3695  -16.0276   24.1285 C   0  0  2  0  0  0  0  0  0  0  0  0
  -17.8125  -26.8371   22.6619 C   0  0  0  0  0  0  0  0  0  0  0  0
  -19.1548  -27.5216   23.1228 C   0  0  1  0  0  0  0  0  0  0  0  0
  -20.3656  -14.8991   19.9384 C   0  0  0  0  0  0  0  0  0  0  0  0
  -26.3790  -28.2146   21.2217 N   0  0  0  0  0  0  0  0  0  0  0  0
  -25.8239  -29.2497   20.5685 N   0  0  0  0  0  0  0  0  0  0  0  0
  -23.0034  -16.6448   21.6295 N   0  0  0  0  0  0  0  0  0  0  0  0
  -22.9157  -30.0828   22.9045 N   0  0  0  0  0  0  0  0  0  0  0  0
  -25.8557  -30.4196   18.5092 N   0  0  0  0  0  0  0  0  0  0  0  0
  -28.9289  -27.1656   17.9065 N   0  0  0  0  0  0  0  0  0  0  0  0
  -25.6910  -15.1263   20.2729 N   0  0  0  0  0  0  0  0  0  0  0  0
  -20.4918  -25.6058   22.3086 N   0  0  0  0  0  0  0  0  0  0  0  0
  -19.8927  -15.5185   22.3461 N   0  0  0  0  0  0  0  0  0  0  0  0
  -21.0794  -28.8024   22.1414 N   0  0  0  0  0  0  0  0  0  0  0  0
  -18.2774  -17.0835   25.1762 N   0  3  0  0  0  0  0  0  0  0  0  0
  -27.9084  -28.9682   16.9227 O   0  0  0  0  0  0  0  0  0  0  0  0
  -25.0520  -17.3039   19.7510 O   0  0  0  0  0  0  0  0  0  0  0  0
  -22.5043  -14.3957   21.9886 O   0  0  0  0  0  0  0  0  0  0  0  0
  -19.1532  -17.7043   22.5754 O   0  0  0  0  0  0  0  0  0  0  0  0
  -20.7673  -26.2985   24.4918 O   0  0  0  0  0  0  0  0  0  0  0  0
  -20.7362  -30.6429   23.4649 O   0  0  0  0  0  0  0  0  0  0  0  0
  -30.3805  -23.2774   21.6227 O   0  0  0  0  0  0  0  0  0  0  0  0
  -23.4842  -22.7910   21.2362 O   0  0  0  0  0  0  0  0  0  1  0  0
  -30.8162  -19.2742   17.8560 F   0  0  0  0  0  0  0  0  0  0  0  0
  -29.5468  -20.7026   22.1866 F   0  0  0  0  0  0  0  0  0  0  0  0
  1  2  1  0  0  0  0
  1  5  2  0  0  0  0
  2  6  2  0  0  0  0
  3  8  2  0  0  0  0
  3 15  1  0  0  0  0
  4  9  1  0  0  0  0
  4 15  2  0  0  0  0
  5 17  1  0  0  0  0
  6 19  1  0  0  0  0
  7 10  2  0  0  0  0
  7 18  1  0  0  0  0
  8 21  1  0  0  0  0
  9 21  2  0  0  0  0
 10 22  1  0  0  0  0
 11 12  2  0  0  0  0
 11 23  1  0  0  0  0
 12 24  1  0  0  0  0
 13 20  1  0  0  0  0
 13 22  2  0  0  0  0
 14 24  2  0  0  0  0
 14 25  1  0  0  0  0
 15 26  1  0  0  0  0
 16 26  1  0  0  0  0
 16 27  2  0  0  0  0
 16 28  1  0  0  0  0
 17 19  2  0  0  0  0
 17 34  1  0  0  0  0
 18 20  2  0  0  0  0
 18 35  1  0  0  0  0
 19 43  1  0  0  0  0
 20 36  1  0  0  0  0
 21 80  1  0  0  0  0
 22 81  1  0  0  0  0
 23 25  2  0  0  0  0
 23 80  1  0  0  0  0
 24 82  1  0  0  0  0
 25 83  1  0  0  0  0
 26 63  2  0  0  0  0
 27 64  1  0  0  0  0
 27 67  1  0  0  0  0
 28 68  1  0  0  0  0
 28 74  2  0  0  0  0
 29 44  1  0  0  0  0
 29 69  1  0  0  0  0
 29 75  2  0  0  0  0
 30 58  1  0  0  0  0
 30 65  1  0  0  0  0
 30 76  2  0  0  0  0
 31 59  1  0  0  0  0
 31 71  1  0  0  0  0
 31 77  2  0  0  0  0
 32 61  1  0  0  0  0
 32 70  1  0  0  0  0
 32 78  2  0  0  0  0
 33 66  1  0  0  0  0
 33 72  1  0  0  0  0
 33 79  2  0  0  0  0
 34 37  1  0  0  0  0
 35 44  1  0  0  0  0
 36 65  1  0  0  0  0
 37 39  1  0  0  0  0
 38 40  1  0  0  0  0
 38 41  1  0  0  0  0
 39 43  1  0  0  0  0
 40 45  1  0  0  0  0
 41 66  1  0  0  0  0
 42 45  1  0  0  0  0
 42 66  1  0  0  0  0
 43 69  1  0  0  0  0
 44 65  1  0  0  0  0
 45 64  1  0  0  0  0
 46 59  1  0  0  0  0
 47 60  1  0  0  0  0
 48 60  1  0  0  0  0
 49 61  1  0  0  0  0
 50 62  1  0  0  0  0
 51 62  1  0  0  0  0
 52 62  1  0  0  0  0
 53 73  1  0  0  0  0
 54 55  1  0  0  0  0
 54 57  1  0  0  0  0
 55 70  1  0  0  0  0
 56 61  1  0  0  0  0
 56 72  1  0  0  0  0
 57 81  1  0  0  0  0
 58 62  1  0  0  0  0
 58 71  1  0  0  0  0
 59 73  1  0  0  0  0
 60 61  1  0  0  0  0
 63 64  1  0  0  0  0
M  CHG  1  73   1
M  ISO  4  33 100  57 101  72 100  81 101
M  END
> <Batch ID>
0105

> <Smiles>
CNC(C)C(=O)NC(C(=O)N1Cc2cc([101O:1][101CH2:1]CCNC(=O)C(C)(C[100NH:0][100C:0](=O)N3CCCC(n4nc(-c5ccc(Oc6ccc(F)cc6F)cc5)c(C(N)=O)c4N)C3)C(C)C)ccc2CC1C(=O)NC1CCCc2ccccc21)C(C)(C)C

> <Shape>
0.216

> <Color>
0.059

> <Negative vol penalty>
0.000

$$$$

  -OEChem-04052319463D

 82 89  0     1  0  0  0  0  0999 V2000
  -29.0298  -23.8899   14.3404 C   0  0  0  0  0  0  0  0  0  0  0  0
  -27.7925  -23.9235   14.9756 C   0  0  0  0  0  0  0  0  0  0  0  0
  -27.0488  -13.8530   20.1795 C   0  0  0  0  0  0  0  0  0  0  0  0
  -24.6917  -14.3554   20.3490 C   0  0  0  0  0  0  0  0  0  0  0  0
  -30.1931  -24.1337   15.0692 C   0  0  0  0  0  0  0  0  0  0  0  0
  -27.7180  -24.1997   16.3404 C   0  0  0  0  0  0  0  0  0  0  0  0
  -23.2920  -27.2878   19.2351 C   0  0  0  0  0  0  0  0  0  0  0  0
  -26.8354  -12.6342   20.8234 C   0  0  0  0  0  0  0  0  0  0  0  0
  -24.4782  -13.1366   20.9928 C   0  0  0  0  0  0  0  0  0  0  0  0
  -22.1772  -26.8701   19.9608 C   0  0  0  0  0  0  0  0  0  0  0  0
  -24.1795   -9.8834   20.1279 C   0  0  0  0  0  0  0  0  0  0  0  0
  -23.0910   -9.1156   19.7142 C   0  0  0  0  0  0  0  0  0  0  0  0
  -23.4300  -27.1049   22.0089 C   0  0  0  0  0  0  0  0  0  0  0  0
  -22.1643   -9.2286   21.9426 C   0  0  0  0  0  0  0  0  0  0  0  0
  -25.9770  -14.7137   19.9424 C   0  0  0  0  0  0  0  0  0  0  0  0
  -26.1505  -16.2232   17.8933 C   0  0  0  0  0  0  0  0  0  0  0  0
  -30.1321  -24.4226   16.4416 C   0  0  0  0  0  0  0  0  0  0  0  0
  -24.4895  -27.6074   19.8912 C   0  0  0  0  0  0  0  0  0  0  0  0
  -28.8818  -24.4463   17.0885 C   0  0  0  0  0  0  0  0  0  0  0  0
  -24.5577  -27.5290   21.2895 C   0  0  0  0  0  0  0  0  0  0  0  0
  -25.5501  -12.2760   21.2300 C   0  0  0  0  0  0  0  0  0  0  0  0
  -22.2470  -26.7758   21.3476 C   0  0  0  0  0  0  0  0  0  0  0  0
  -24.2605  -10.3238   21.4490 C   0  0  0  0  0  0  0  0  0  0  0  0
  -22.0834   -8.7882   20.6215 C   0  0  0  0  0  0  0  0  0  0  0  0
  -23.2529   -9.9964   22.3563 C   0  0  0  0  0  0  0  0  0  0  0  0
  -26.1970  -15.9731   19.2779 C   0  0  0  0  0  0  0  0  0  0  0  0
  -26.4270  -17.5636   17.7770 C   0  0  0  0  0  0  0  0  0  0  0  0
  -25.8814  -15.3243   16.8091 C   0  0  0  0  0  0  0  0  0  0  0  0
  -27.4516  -26.4556   19.8399 C   0  0  0  0  0  0  0  0  0  0  0  0
  -28.0571  -28.9989   21.7601 C   0  0  0  0  0  0  0  0  0  0  0  0
  -26.8638  -31.3102   23.9694 C   0  0  0  0  0  0  0  0  0  0  0  0
  -25.7870  -22.1979   21.5139 C   0  0  0  0  0  0  0  0  0  0  0  0
  -31.4203  -24.6327   17.1971 C   0  0  0  0  0  0  0  0  0  0  0  0
  -25.6748  -28.0821   19.0961 C   0  0  0  0  0  0  0  0  0  0  0  0
  -25.8136  -27.8801   22.0431 C   0  0  0  0  0  0  0  0  0  0  0  0
  -31.2259  -25.2874   18.5624 C   0  0  0  0  0  0  0  0  0  0  0  0
  -28.7965  -21.1011   19.9592 C   0  0  0  0  0  0  0  0  0  0  0  0
  -30.0836  -24.6163   19.3184 C   0  0  0  0  0  0  0  0  0  0  0  0
  -28.4673  -19.6851   19.4834 C   0  0  0  0  0  0  0  0  0  0  0  0
  -28.1278  -21.4172   21.2953 C   0  0  0  0  0  0  0  0  0  0  0  0
  -26.3409  -19.7794   20.8502 C   0  0  0  0  0  0  0  0  0  0  0  0
  -28.7580  -24.7668   18.5623 C   0  0  1  0  0  0  0  0  0  0  0  0
  -27.0002  -27.8887   19.8263 C   0  0  1  0  0  0  0  0  0  0  0  0
  -26.9474  -19.4340   19.4793 C   0  0  2  0  0  0  0  0  0  0  0  0
  -27.6048  -33.2348   25.3991 C   0  0  0  0  0  0  0  0  0  0  0  0
  -29.2833  -27.0422   23.7546 C   0  0  0  0  0  0  0  0  0  0  0  0
  -29.1291  -28.8316   25.4988 C   0  0  0  0  0  0  0  0  0  0  0  0
  -30.5497  -29.1810   23.4783 C   0  0  0  0  0  0  0  0  0  0  0  0
  -17.2396  -25.2187   21.7347 C   0  0  0  0  0  0  0  0  0  0  0  0
  -17.5214  -23.1004   23.0331 C   0  0  0  0  0  0  0  0  0  0  0  0
  -18.2745  -23.2420   20.6518 C   0  0  0  0  0  0  0  0  0  0  0  0
  -25.0876  -33.2019   22.5462 C   0  0  0  0  0  0  0  0  0  0  0  0
  -21.7307  -24.2391   24.7810 C   0  0  0  0  0  0  0  0  0  0  0  0
  -23.3937  -22.8338   21.6781 C   0  0  0  0  0  0  0  0  0  0  0  0
  -22.9709  -22.8412   23.1353 C   0  0  0  0  0  0  0  0  0  0  0  0
  -20.5569  -23.3371   22.7784 C   0  0  0  0  0  0  0  0  0  0  0  0
  -20.2636  -25.4650   21.4125 C   0  0  0  0  0  0  0  0  0  1  0  0
  -28.0326  -29.2437   23.2496 C   0  0  1  0  0  0  0  0  0  0  0  0
  -27.0451  -32.8153   24.0487 C   0  0  2  0  0  0  0  0  0  0  0  0
  -19.6087  -24.5133   22.4421 C   0  0  1  0  0  0  0  0  0  0  0  0
  -29.2255  -28.5661   23.9813 C   0  0  0  0  0  0  0  0  0  0  0  0
  -18.1799  -24.0177   21.9857 C   0  0  0  0  0  0  0  0  0  0  0  0
  -26.4808  -17.0668   19.9902 N   0  0  0  0  0  0  0  0  0  0  0  0
  -26.6152  -18.0171   19.0494 N   0  0  0  0  0  0  0  0  0  0  0  0
  -26.9475  -28.3330   21.2206 N   0  0  0  0  0  0  0  0  0  0  0  0
  -26.6875  -21.1596   21.2238 N   0  0  0  0  0  0  0  0  0  0  0  0
  -26.5251  -18.3867   16.7115 N   0  0  0  0  0  0  0  0  0  0  0  0
  -25.6170  -13.9803   17.1056 N   0  0  0  0  0  0  0  0  0  0  0  0
  -28.2186  -26.0969   18.7478 N   0  0  0  0  0  0  0  0  0  0  0  0
  -27.9686  -30.6907   23.4244 N   0  0  0  0  0  0  0  0  0  0  0  0
  -24.4401  -21.8708   21.4163 N   0  0  0  0  0  0  0  0  0  0  0  0
  -25.7400  -33.5056   23.8459 N   0  3  0  0  0  0  0  0  0  0  0  0
  -21.8442  -23.8246   23.3349 N   0  3  1  0  0  0  0  0  0  0  0  0
  -25.8918  -15.6984   15.6119 O   0  0  0  0  0  0  0  0  0  0  0  0
  -27.1293  -25.7295   20.7729 O   0  0  0  0  0  0  0  0  0  0  0  0
  -29.0219  -29.3906   21.0987 O   0  0  0  0  0  0  0  0  0  0  0  0
  -25.8456  -30.7406   24.3560 O   0  0  0  0  0  0  0  0  0  0  0  0
  -26.1561  -23.3338   21.8309 O   0  0  0  0  0  0  0  0  0  0  0  0
  -25.3414  -11.0866   21.8581 O   0  0  0  0  0  0  0  0  0  0  0  0
  -21.1606  -26.3676   22.0583 O   0  0  0  0  0  0  0  0  0  1  0  0
  -21.0374   -8.0521   20.2236 F   0  0  0  0  0  0  0  0  0  0  0  0
  -23.3245  -10.4176   23.6265 F   0  0  0  0  0  0  0  0  0  0  0  0
  1  2  1  0  0  0  0
  1  5  2  0  0  0  0
  2  6  2  0  0  0  0
  3  8  2  0  0  0  0
  3 15  1  0  0  0  0
  4  9  1  0  0  0  0
  4 15  2  0  0  0  0
  5 17  1  0  0  0  0
  6 19  1  0  0  0  0
  7 10  2  0  0  0  0
  7 18  1  0  0  0  0
  8 21  1  0  0  0  0
  9 21  2  0  0  0  0
 10 22  1  0  0  0  0
 11 12  2  0  0  0  0
 11 23  1  0  0  0  0
 12 24  1  0  0  0  0
 13 20  1  0  0  0  0
 13 22  2  0  0  0  0
 14 24  2  0  0  0  0
 14 25  1  0  0  0  0
 15 26  1  0  0  0  0
 16 26  1  0  0  0  0
 16 27  2  0  0  0  0
 16 28  1  0  0  0  0
 17 19  2  0  0  0  0
 17 33  1  0  0  0  0
 18 20  2  0  0  0  0
 18 34  1  0  0  0  0
 19 42  1  0  0  0  0
 20 35  1  0  0  0  0
 21 79  1  0  0  0  0
 22 80  1  0  0  0  0
 23 25  2  0  0  0  0
 23 79  1  0  0  0  0
 24 81  1  0  0  0  0
 25 82  1  0  0  0  0
 26 63  2  0  0  0  0
 27 64  1  0  0  0  0
 27 67  1  0  0  0  0
 28 68  1  0  0  0  0
 28 74  2  0  0  0  0
 29 43  1  0  0  0  0
 29 69  1  0  0  0  0
 29 75  2  0  0  0  0
 30 58  1  0  0  0  0
 30 65  1  0  0  0  0
 30 76  2  0  0  0  0
 31 59  1  0  0  0  0
 31 70  1  0  0  0  0
 31 77  2  0  0  0  0
 32 66  1  0  0  0  0
 32 71  1  0  0  0  0
 32 78  2  0  0  0  0
 33 36  1  0  0  0  0
 34 43  1  0  0  0  0
 35 65  1  0  0  0  0
 36 38  1  0  0  0  0
 37 39  1  0  0  0  0
 37 40  1  0  0  0  0
 38 42  1  0  0  0  0
 39 44  1  0  0  0  0
 40 66  1  0  0  0  0
 41 44  1  0  0  0  0
 41 66  1  0  0  0  0
 42 69  1  0  0  0  0
 43 65  1  0  0  0  0
 44 64  1  0  0  0  0
 45 59  1  0  0  0  0
 46 61  1  0  0  0  0
 47 61  1  0  0  0  0
 48 61  1  0  0  0  0
 49 62  1  0  0  0  0
 50 62  1  0  0  0  0
 51 62  1  0  0  0  0
 52 72  1  0  0  0  0
 53 73  1  0  0  0  0
 54 55  1  0  0  0  0
 54 71  1  0  0  0  0
 55 73  1  0  0  0  0
 56 60  1  0  0  0  0
 56 73  1  0  0  0  0
 57 60  1  0  0  0  0
 57 80  1  0  0  0  0
 58 61  1  0  0  0  0
 58 70  1  0  0  0  0
 59 72  1  0  0  0  0
 60 62  1  0  0  0  0
 63 64  1  0  0  0  0
M  CHG  2  72   1  73   1
M  ISO  4  32 100  57 101  71 100  80 101
M  END
> <Batch ID>
0105

> <Smiles>
CNC(C)C(=O)NC(C(=O)N1Cc2cc([101O:1][101CH2:1]C(CN(C)CC[100NH:0][100C:0](=O)N3CCCC(n4nc(-c5ccc(Oc6ccc(F)cc6F)cc5)c(C(N)=O)c4N)C3)C(C)(C)C)ccc2CC1C(=O)NC1CCCc2ccccc21)C(C)(C)C

> <Shape>
0.231

> <Color>
0.052

> <Negative vol penalty>
0.000

$$$$

  -OEChem-04052319463D

 91100  0     1  0  0  0  0  0999 V2000
  -23.5430  -24.0133   19.6433 C   0  0  0  0  0  0  0  0  0  0  0  0
  -24.6452  -23.2128   19.9258 C   0  0  0  0  0  0  0  0  0  0  0  0
  -25.9998  -27.2507   18.9458 C   0  0  0  0  0  0  0  0  0  0  0  0
  -26.5426  -28.0081   21.1749 C   0  0  0  0  0  0  0  0  0  0  0  0
  -22.2681  -23.6051   20.0333 C   0  0  0  0  0  0  0  0  0  0  0  0
  -24.4733  -22.0041   20.5996 C   0  0  0  0  0  0  0  0  0  0  0  0
  -27.1214  -18.2242   18.5152 C   0  0  0  0  0  0  0  0  0  0  0  0
  -24.7997  -27.9597   18.9971 C   0  0  0  0  0  0  0  0  0  0  0  0
  -25.3424  -28.7171   21.2262 C   0  0  0  0  0  0  0  0  0  0  0  0
  -28.4871  -18.1756   18.7914 C   0  0  0  0  0  0  0  0  0  0  0  0
  -22.2567  -30.4347   22.0851 C   0  0  0  0  0  0  0  0  0  0  0  0
  -21.4965  -30.3391   23.2507 C   0  0  0  0  0  0  0  0  0  0  0  0
  -28.0834  -16.4797   20.4588 C   0  0  0  0  0  0  0  0  0  0  0  0
  -35.4100  -18.2468   22.6613 C   0  0  0  0  0  0  0  0  0  0  0  0
  -21.3123  -27.9509   22.9346 C   0  0  0  0  0  0  0  0  0  0  0  0
  -33.2504  -17.6884   22.9683 C   0  0  0  0  0  0  0  0  0  0  0  0
  -26.8713  -27.2749   20.0347 C   0  0  0  0  0  0  0  0  0  0  0  0
  -29.3559  -27.0099   19.5207 C   0  0  0  0  0  0  0  0  0  0  0  0
  -22.0794  -22.3863   20.7037 C   0  0  0  0  0  0  0  0  0  0  0  0
  -26.2237  -17.4074   19.2175 C   0  0  0  0  0  0  0  0  0  0  0  0
  -23.1949  -21.5799   21.0002 C   0  0  0  0  0  0  0  0  0  0  0  0
  -26.7071  -16.5180   20.1878 C   0  0  0  0  0  0  0  0  0  0  0  0
  -34.1373  -18.7398   23.0411 C   0  0  0  0  0  0  0  0  0  0  0  0
  -24.4710  -28.6928   20.1373 C   0  0  0  0  0  0  0  0  0  0  0  0
  -28.9680  -17.3054   19.7653 C   0  0  0  0  0  0  0  0  0  0  0  0
  -22.5446  -29.2884   21.3442 C   0  0  0  0  0  0  0  0  0  0  0  0
  -21.0244  -29.0972   23.6755 C   0  0  0  0  0  0  0  0  0  0  0  0
  -22.0725  -28.0466   21.7690 C   0  0  0  0  0  0  0  0  0  0  0  0
  -28.1109  -26.5423   19.9825 C   0  0  0  0  0  0  0  0  0  0  0  0
  -35.2621  -16.9091   22.3678 C   0  0  0  0  0  0  0  0  0  0  0  0
  -30.2040  -25.9411   19.6783 C   0  0  0  0  0  0  0  0  0  0  0  0
  -29.7137  -28.2954   18.9963 C   0  0  0  0  0  0  0  0  0  0  0  0
  -23.7579  -17.9313   21.1538 C   0  0  0  0  0  0  0  0  0  0  0  0
  -23.4288  -14.7095   20.9691 C   0  0  0  0  0  0  0  0  0  0  0  0
  -24.8810  -11.6779   20.3800 C   0  0  0  0  0  0  0  0  0  0  0  0
  -32.1901  -21.8540   22.7275 C   0  0  0  0  0  0  0  0  0  0  0  0
  -20.6879  -22.0096   21.1472 C   0  0  0  0  0  0  0  0  0  0  0  0
  -24.7565  -17.4524   18.8890 C   0  0  0  0  0  0  0  0  0  0  0  0
  -25.7872  -15.6056   20.9558 C   0  0  0  0  0  0  0  0  0  0  0  0
  -20.5468  -20.5375   21.5257 C   0  0  0  0  0  0  0  0  0  0  0  0
  -29.2339  -21.1001   20.7807 C   0  0  0  0  0  0  0  0  0  0  0  0
  -21.6995  -20.1051   22.4265 C   0  0  0  0  0  0  0  0  0  0  0  0
  -28.7814  -22.4997   20.3605 C   0  0  0  0  0  0  0  0  0  0  0  0
  -36.8773  -16.3336   20.5727 C   0  0  0  0  0  0  0  0  0  0  0  0
  -37.3703  -15.7509   22.9819 C   0  0  0  0  0  0  0  0  0  0  0  0
  -29.7920  -21.1027   22.2008 C   0  0  0  0  0  0  0  0  0  0  0  0
  -30.4543  -23.4684   22.0046 C   0  0  0  0  0  0  0  0  0  0  0  0
  -37.9663  -15.3665   20.1261 C   0  0  0  0  0  0  0  0  0  0  0  0
  -38.4553  -14.7880   22.5168 C   0  0  0  0  0  0  0  0  0  0  0  0
  -23.0460  -20.2503   21.7073 C   0  0  1  0  0  0  0  0  0  0  0  0
  -36.2652  -15.9195   21.9233 C   0  0  0  0  0  0  0  0  0  0  0  0
  -23.8739  -16.9458   20.0256 C   0  0  1  0  0  0  0  0  0  0  0  0
  -29.9007  -23.5368   20.5696 C   0  0  2  0  0  0  0  0  0  0  0  0
  -33.9738  -20.3745   24.9548 C   0  0  0  0  0  0  0  0  0  0  0  0
  -24.3675   -9.2219   20.3415 C   0  0  0  0  0  0  0  0  0  0  0  0
  -32.4823  -13.4450   20.7867 C   0  0  0  0  0  0  0  0  0  0  0  0
  -23.4673  -14.6562   24.0196 C   0  0  0  0  0  0  0  0  0  0  0  0
  -23.9089  -12.1946   23.9016 C   0  0  0  0  0  0  0  0  0  0  0  0
  -21.7903  -13.1260   22.9706 C   0  0  0  0  0  0  0  0  0  0  0  0
  -40.1848  -14.4221   20.7591 C   0  0  0  0  0  0  0  0  0  0  0  0
  -25.5688  -11.4609   17.5097 C   0  0  0  0  0  0  0  0  0  0  0  0
  -33.3357  -15.2155   22.3521 C   0  0  0  0  0  0  0  0  0  0  0  0
  -30.8257  -16.0090   20.4893 C   0  0  0  0  0  0  0  0  0  1  0  0
  -33.8191  -20.1237   23.4413 C   0  0  2  0  0  0  0  0  0  0  0  0
  -23.9658  -13.5336   21.7487 C   0  0  1  0  0  0  0  0  0  0  0  0
  -24.4460  -10.5019   19.5242 C   0  0  2  0  0  0  0  0  0  0  0  0
  -33.1100  -14.8439   20.8705 C   0  0  2  0  0  0  0  0  0  0  0  0
  -32.2938  -15.8970   20.0822 C   0  0  1  0  0  0  0  0  0  0  0  0
  -23.3005  -13.3961   23.1472 C   0  0  0  0  0  0  0  0  0  0  0  0
  -28.1593  -25.2751   20.4018 N   0  0  0  0  0  0  0  0  0  0  0  0
  -33.9452  -16.5807   22.5577 N   0  0  0  0  0  0  0  0  0  0  0  0
  -29.4449  -24.9372   20.2040 N   0  0  0  0  0  0  0  0  0  0  0  0
  -24.3605  -15.6912   20.6028 N   0  0  0  0  0  0  0  0  0  0  0  0
  -30.8657  -22.0983   22.3279 N   0  0  0  0  0  0  0  0  0  0  0  0
  -31.5175  -25.7713   19.4169 N   0  0  0  0  0  0  0  0  0  0  0  0
  -28.7199  -29.2793   18.9032 N   0  0  0  0  0  0  0  0  0  0  0  0
  -23.2436  -19.1578   20.7789 N   0  0  0  0  0  0  0  0  0  0  0  0
  -23.8003  -12.3653   20.8907 N   0  0  0  0  0  0  0  0  0  0  0  0
  -32.4965  -20.5311   23.0223 N   0  0  0  0  0  0  0  0  0  0  0  0
  -39.0214  -15.2665   21.2013 N   0  3  0  0  0  0  0  0  0  0  0  0
  -25.4105  -10.2886   18.4083 N   0  3  0  0  0  0  0  0  0  0  0  0
  -30.8765  -28.5585   18.6061 O   0  0  0  0  0  0  0  0  0  0  0  0
  -24.1077  -17.6027   22.2814 O   0  0  0  0  0  0  0  0  0  0  0  0
  -22.2282  -14.7520   20.6891 O   0  0  0  0  0  0  0  0  0  0  0  0
  -26.0614  -11.9565   20.5787 O   0  0  0  0  0  0  0  0  0  0  0  0
  -33.0390  -22.7482   22.8102 O   0  0  0  0  0  0  0  0  0  0  0  0
  -32.3225  -15.5628   18.6893 O   0  0  0  0  0  0  0  0  0  0  0  0
  -23.3001  -29.3849   20.1877 O   0  0  0  0  0  0  0  0  0  0  0  0
  -30.3004  -17.2565   20.0374 O   0  0  0  0  0  0  0  0  0  1  0  0
  -20.2957  -29.0053   24.7957 F   0  0  0  0  0  0  0  0  0  0  0  0
  -22.3468  -26.9417   21.0620 F   0  0  0  0  0  0  0  0  0  0  0  0
  1  2  1  0  0  0  0
  1  5  2  0  0  0  0
  2  6  2  0  0  0  0
  3  8  2  0  0  0  0
  3 17  1  0  0  0  0
  4  9  1  0  0  0  0
  4 17  2  0  0  0  0
  5 19  1  0  0  0  0
  6 21  1  0  0  0  0
  7 10  2  0  0  0  0
  7 20  1  0  0  0  0
  8 24  1  0  0  0  0
  9 24  2  0  0  0  0
 10 25  1  0  0  0  0
 11 12  2  0  0  0  0
 11 26  1  0  0  0  0
 12 27  1  0  0  0  0
 13 22  1  0  0  0  0
 13 25  2  0  0  0  0
 14 23  1  0  0  0  0
 14 30  2  0  0  0  0
 15 27  2  0  0  0  0
 15 28  1  0  0  0  0
 16 23  2  0  0  0  0
 16 71  1  0  0  0  0
 17 29  1  0  0  0  0
 18 29  1  0  0  0  0
 18 31  2  0  0  0  0
 18 32  1  0  0  0  0
 19 21  2  0  0  0  0
 19 37  1  0  0  0  0
 20 22  2  0  0  0  0
 20 38  1  0  0  0  0
 21 50  1  0  0  0  0
 22 39  1  0  0  0  0
 23 64  1  0  0  0  0
 24 88  1  0  0  0  0
 25 89  1  0  0  0  0
 26 28  2  0  0  0  0
 26 88  1  0  0  0  0
 27 90  1  0  0  0  0
 28 91  1  0  0  0  0
 29 70  2  0  0  0  0
 30 51  1  0  0  0  0
 30 71  1  0  0  0  0
 31 72  1  0  0  0  0
 31 75  1  0  0  0  0
 32 76  1  0  0  0  0
 32 82  2  0  0  0  0
 33 52  1  0  0  0  0
 33 77  1  0  0  0  0
 33 83  2  0  0  0  0
 34 65  1  0  0  0  0
 34 73  1  0  0  0  0
 34 84  2  0  0  0  0
 35 66  1  0  0  0  0
 35 78  1  0  0  0  0
 35 85  2  0  0  0  0
 36 74  1  0  0  0  0
 36 79  1  0  0  0  0
 36 86  2  0  0  0  0
 37 40  1  0  0  0  0
 38 52  1  0  0  0  0
 39 73  1  0  0  0  0
 40 42  1  0  0  0  0
 41 43  1  0  0  0  0
 41 46  1  0  0  0  0
 42 50  1  0  0  0  0
 43 53  1  0  0  0  0
 44 48  1  0  0  0  0
 44 51  1  0  0  0  0
 45 49  1  0  0  0  0
 45 51  1  0  0  0  0
 46 74  1  0  0  0  0
 47 53  1  0  0  0  0
 47 74  1  0  0  0  0
 48 80  1  0  0  0  0
 49 80  1  0  0  0  0
 50 77  1  0  0  0  0
 52 73  1  0  0  0  0
 53 72  1  0  0  0  0
 54 64  1  0  0  0  0
 55 66  1  0  0  0  0
 56 67  1  0  0  0  0
 57 69  1  0  0  0  0
 58 69  1  0  0  0  0
 59 69  1  0  0  0  0
 60 80  1  0  0  0  0
 61 81  1  0  0  0  0
 62 67  1  0  0  0  0
 62 71  1  0  0  0  0
 63 68  1  0  0  0  0
 63 89  1  0  0  0  0
 64 79  1  0  0  0  0
 65 69  1  0  0  0  0
 65 78  1  0  0  0  0
 66 81  1  0  0  0  0
 67 68  1  0  0  0  0
 68 87  1  0  0  0  0
 70 72  1  0  0  0  0
M  CHG  2  80   1  81   1
M  ISO  4  36 100  63 101  79 100  89 101
M  END
> <Batch ID>
0105

> <Smiles>
CNC(C)C(=O)NC(C(=O)N1Cc2cc([101O:1][101CH2:1]C(O)C(C)Cn3cc(C(C)[100NH:0][100C:0](=O)N4CCCC(n5nc(-c6ccc(Oc7ccc(F)cc7F)cc6)c(C(N)=O)c5N)C4)cc3C3CCN(C)CC3)ccc2CC1C(=O)NC1CCCc2ccccc21)C(C)(C)C

> <Shape>
0.204

> <Color>
0.074

> <Negative vol penalty>
0.000

$$$$

  -OEChem-04052319463D

 82 89  0     1  0  0  0  0  0999 V2000
  -24.9609   -8.0258   19.9137 C   0  0  0  0  0  0  0  0  0  0  0  0
  -25.9541   -8.9609   19.6406 C   0  0  0  0  0  0  0  0  0  0  0  0
  -22.7621  -28.2185   22.8826 C   0  0  0  0  0  0  0  0  0  0  0  0
  -22.8614  -28.6513   20.5078 C   0  0  0  0  0  0  0  0  0  0  0  0
  -23.6808   -8.4526   20.2648 C   0  0  0  0  0  0  0  0  0  0  0  0
  -25.6676  -10.3234   19.7175 C   0  0  0  0  0  0  0  0  0  0  0  0
  -29.4438  -14.7818   21.5529 C   0  0  0  0  0  0  0  0  0  0  0  0
  -21.6182  -29.0108   22.9792 C   0  0  0  0  0  0  0  0  0  0  0  0
  -21.7174  -29.4436   20.6043 C   0  0  0  0  0  0  0  0  0  0  0  0
  -30.2335  -15.6907   20.8501 C   0  0  0  0  0  0  0  0  0  0  0  0
  -18.3141  -28.7048   22.3294 C   0  0  0  0  0  0  0  0  0  0  0  0
  -17.2473  -28.2140   23.0823 C   0  0  0  0  0  0  0  0  0  0  0  0
  -28.4860  -17.3433   21.0354 C   0  0  0  0  0  0  0  0  0  0  0  0
  -17.3942  -30.1338   24.5418 C   0  0  0  0  0  0  0  0  0  0  0  0
  -23.3838  -28.0389   21.6469 C   0  0  0  0  0  0  0  0  0  0  0  0
  -24.6231  -25.8368   21.2966 C   0  0  0  0  0  0  0  0  0  0  0  0
  -23.3810   -9.8210   20.3554 C   0  0  0  0  0  0  0  0  0  0  0  0
  -28.1627  -15.1439   21.9936 C   0  0  0  0  0  0  0  0  0  0  0  0
  -24.3819  -10.7689   20.0689 C   0  0  0  0  0  0  0  0  0  0  0  0
  -27.6830  -16.4380   21.7459 C   0  0  0  0  0  0  0  0  0  0  0  0
  -21.0958  -29.6233   21.8400 C   0  0  0  0  0  0  0  0  0  0  0  0
  -29.7536  -16.9707   20.5887 C   0  0  0  0  0  0  0  0  0  0  0  0
  -18.9210  -29.9100   22.6828 C   0  0  0  0  0  0  0  0  0  0  0  0
  -16.7874  -28.9285   24.1885 C   0  0  0  0  0  0  0  0  0  0  0  0
  -18.4610  -30.6245   23.7889 C   0  0  0  0  0  0  0  0  0  0  0  0
  -24.5658  -27.2210   21.5466 C   0  0  0  0  0  0  0  0  0  0  0  0
  -25.9648  -25.5429   21.2982 C   0  0  0  0  0  0  0  0  0  0  0  0
  -23.5588  -24.9005   21.0819 C   0  0  0  0  0  0  0  0  0  0  0  0
  -25.2142  -14.1099   21.4098 C   0  0  0  0  0  0  0  0  0  0  0  0
  -24.4304  -16.2192   23.7462 C   0  0  0  0  0  0  0  0  0  0  0  0
  -25.2361  -19.0368   25.4951 C   0  0  0  0  0  0  0  0  0  0  0  0
  -31.2075  -26.7236   19.7931 C   0  0  0  0  0  0  0  0  0  0  0  0
  -21.9703  -10.2343   20.6926 C   0  0  0  0  0  0  0  0  0  0  0  0
  -27.3339  -14.1606   22.7737 C   0  0  0  0  0  0  0  0  0  0  0  0
  -26.3227  -16.8828   22.2151 C   0  0  0  0  0  0  0  0  0  0  0  0
  -21.8486  -11.6956   21.1168 C   0  0  0  0  0  0  0  0  0  0  0  0
  -29.9438  -28.3294   22.7088 C   0  0  0  0  0  0  0  0  0  0  0  0
  -22.6213  -12.5959   20.1580 C   0  0  0  0  0  0  0  0  0  0  0  0
  -28.4368  -28.0754   22.6422 C   0  0  0  0  0  0  0  0  0  0  0  0
  -30.5399  -28.5555   21.3211 C   0  0  0  0  0  0  0  0  0  0  0  0
  -28.7380  -27.2405   20.2735 C   0  0  0  0  0  0  0  0  0  0  0  0
  -24.1165  -12.2556   20.1658 C   0  0  1  0  0  0  0  0  0  0  0  0
  -25.8405  -14.4688   22.7276 C   0  0  1  0  0  0  0  0  0  0  0  0
  -28.1013  -26.9513   21.6436 C   0  0  2  0  0  0  0  0  0  0  0  0
  -24.3818  -20.5361   27.3171 C   0  0  0  0  0  0  0  0  0  0  0  0
  -30.3999  -17.4257   17.5447 C   0  0  0  0  0  0  0  0  0  0  0  0
  -22.4261  -17.4415   21.7972 C   0  0  0  0  0  0  0  0  0  0  0  0
  -22.3107  -19.4517   23.2852 C   0  0  0  0  0  0  0  0  0  0  0  0
  -21.5963  -17.2221   24.1462 C   0  0  0  0  0  0  0  0  0  0  0  0
  -32.1446  -22.9400   16.6892 C   0  0  0  0  0  0  0  0  0  0  0  0
  -30.1892  -24.4327   16.2834 C   0  0  0  0  0  0  0  0  0  0  0  0
  -27.5876  -18.4899   27.2069 C   0  0  0  0  0  0  0  0  0  0  0  0
  -31.0110  -22.9323   20.5175 C   0  0  0  0  0  0  0  0  0  0  0  0
  -30.5339  -19.7783   18.4390 C   0  0  0  0  0  0  0  0  0  0  0  0
  -31.7185  -24.8477   18.2508 C   0  0  0  0  0  0  0  0  0  0  0  0
  -30.2435  -20.7612   19.5698 C   0  0  0  0  0  0  0  0  0  0  0  0
  -30.1076  -22.8355   18.1988 C   0  0  0  0  0  0  0  0  0  0  0  0
  -24.0561  -17.6811   23.7850 C   0  0  1  0  0  0  0  0  0  0  0  0
  -25.2457  -19.3295   26.9847 C   0  0  2  0  0  0  0  0  0  0  0  0
  -29.9945  -18.3628   18.6756 C   0  0  2  0  0  0  0  0  0  1  0  0
  -22.6222  -17.9404   23.2427 C   0  0  0  0  0  0  0  0  0  0  0  0
  -31.0389  -23.7616   17.3833 C   0  0  0  0  0  0  0  0  0  0  0  0
  -25.7749  -27.7685   21.6964 N   0  0  0  0  0  0  0  0  0  0  0  0
  -26.6046  -26.7229   21.5401 N   0  0  0  0  0  0  0  0  0  0  0  0
  -25.5475  -15.8832   22.9683 N   0  0  0  0  0  0  0  0  0  0  0  0
  -30.1861  -27.4536   20.4231 N   0  0  0  0  0  0  0  0  0  0  0  0
  -26.6479  -24.3928   21.1165 N   0  0  0  0  0  0  0  0  0  0  0  0
  -22.2388  -25.3707   21.1131 N   0  0  0  0  0  0  0  0  0  0  0  0
  -24.7546  -12.8085   21.3412 N   0  0  0  0  0  0  0  0  0  0  0  0
  -24.2627  -18.1190   25.1613 N   0  0  0  0  0  0  0  0  0  0  0  0
  -30.7857  -25.6920   18.9633 N   0  0  0  0  0  0  0  0  0  0  0  0
  -26.6348  -19.6036   27.4497 N   0  3  0  0  0  0  0  0  0  0  0  0
  -30.8462  -22.0835   19.2798 N   0  3  1  0  0  0  0  0  0  0  0  0
  -23.7713  -23.6800   20.8849 O   0  0  0  0  0  0  0  0  0  0  0  0
  -25.1513  -14.9517   20.5215 O   0  0  0  0  0  0  0  0  0  0  0  0
  -23.7607  -15.4062   24.3882 O   0  0  0  0  0  0  0  0  0  0  0  0
  -26.0118  -19.5718   24.7061 O   0  0  0  0  0  0  0  0  0  0  0  0
  -32.4067  -26.9694   19.9621 O   0  0  0  0  0  0  0  0  0  0  0  0
  -19.9794  -30.3962   21.9338 O   0  0  0  0  0  0  0  0  0  0  0  0
  -30.5221  -17.8595   19.9023 O   0  0  0  0  0  0  0  0  0  1  0  0
  -15.7620  -28.4579   24.9104 F   0  0  0  0  0  0  0  0  0  0  0  0
  -19.0393  -31.7835   24.1326 F   0  0  0  0  0  0  0  0  0  0  0  0
  1  2  1  0  0  0  0
  1  5  2  0  0  0  0
  2  6  2  0  0  0  0
  3  8  2  0  0  0  0
  3 15  1  0  0  0  0
  4  9  1  0  0  0  0
  4 15  2  0  0  0  0
  5 17  1  0  0  0  0
  6 19  1  0  0  0  0
  7 10  2  0  0  0  0
  7 18  1  0  0  0  0
  8 21  1  0  0  0  0
  9 21  2  0  0  0  0
 10 22  1  0  0  0  0
 11 12  2  0  0  0  0
 11 23  1  0  0  0  0
 12 24  1  0  0  0  0
 13 20  1  0  0  0  0
 13 22  2  0  0  0  0
 14 24  2  0  0  0  0
 14 25  1  0  0  0  0
 15 26  1  0  0  0  0
 16 26  1  0  0  0  0
 16 27  2  0  0  0  0
 16 28  1  0  0  0  0
 17 19  2  0  0  0  0
 17 33  1  0  0  0  0
 18 20  2  0  0  0  0
 18 34  1  0  0  0  0
 19 42  1  0  0  0  0
 20 35  1  0  0  0  0
 21 79  1  0  0  0  0
 22 80  1  0  0  0  0
 23 25  2  0  0  0  0
 23 79  1  0  0  0  0
 24 81  1  0  0  0  0
 25 82  1  0  0  0  0
 26 63  2  0  0  0  0
 27 64  1  0  0  0  0
 27 67  1  0  0  0  0
 28 68  1  0  0  0  0
 28 74  2  0  0  0  0
 29 43  1  0  0  0  0
 29 69  1  0  0  0  0
 29 75  2  0  0  0  0
 30 58  1  0  0  0  0
 30 65  1  0  0  0  0
 30 76  2  0  0  0  0
 31 59  1  0  0  0  0
 31 70  1  0  0  0  0
 31 77  2  0  0  0  0
 32 66  1  0  0  0  0
 32 71  1  0  0  0  0
 32 78  2  0  0  0  0
 33 36  1  0  0  0  0
 34 43  1  0  0  0  0
 35 65  1  0  0  0  0
 36 38  1  0  0  0  0
 37 39  1  0  0  0  0
 37 40  1  0  0  0  0
 38 42  1  0  0  0  0
 39 44  1  0  0  0  0
 40 66  1  0  0  0  0
 41 44  1  0  0  0  0
 41 66  1  0  0  0  0
 42 69  1  0  0  0  0
 43 65  1  0  0  0  0
 44 64  1  0  0  0  0
 45 59  1  0  0  0  0
 46 60  1  0  0  0  0
 47 61  1  0  0  0  0
 48 61  1  0  0  0  0
 49 61  1  0  0  0  0
 50 62  1  0  0  0  0
 51 62  1  0  0  0  0
 52 72  1  0  0  0  0
 53 73  1  0  0  0  0
 54 56  1  0  0  0  0
 54 60  1  0  0  0  0
 55 62  1  0  0  0  0
 55 71  1  0  0  0  0
 56 73  1  0  0  0  0
 57 62  1  0  0  0  0
 57 73  1  0  0  0  0
 58 61  1  0  0  0  0
 58 70  1  0  0  0  0
 59 72  1  0  0  0  0
 60 80  1  0  0  0  0
 63 64  1  0  0  0  0
M  CHG  2  72   1  73   1
M  ISO  4  32 100  60 101  71 100  80 101
M  END
> <Batch ID>
0105

> <Smiles>
CNC(C)C(=O)NC(C(=O)N1Cc2cc([101O:1][101CH:1](C)CCN(C)CC(C)(C)C[100NH:0][100C:0](=O)N3CCCC(n4nc(-c5ccc(Oc6ccc(F)cc6F)cc5)c(C(N)=O)c4N)C3)ccc2CC1C(=O)NC1CCCc2ccccc21)C(C)(C)C

> <Shape>
0.222

> <Color>
0.054

> <Negative vol penalty>
0.000

$$$$

  -OEChem-04052319463D

 84 92  0     1  0  0  0  0  0999 V2000
  -32.7292  -25.9683   21.7500 C   0  0  0  0  0  0  0  0  0  0  0  0
  -31.7163  -25.6023   20.8694 C   0  0  0  0  0  0  0  0  0  0  0  0
  -26.1673  -13.0547   21.7745 C   0  0  0  0  0  0  0  0  0  0  0  0
  -25.5797  -14.1383   19.6966 C   0  0  0  0  0  0  0  0  0  0  0  0
  -32.4222  -26.2769   23.0745 C   0  0  0  0  0  0  0  0  0  0  0  0
  -30.3957  -25.5436   21.3132 C   0  0  0  0  0  0  0  0  0  0  0  0
  -27.1573  -27.6894   18.0646 C   0  0  0  0  0  0  0  0  0  0  0  0
  -24.9985  -12.2963   21.7095 C   0  0  0  0  0  0  0  0  0  0  0  0
  -24.4109  -13.3799   19.6316 C   0  0  0  0  0  0  0  0  0  0  0  0
  -26.8034  -26.9504   16.9366 C   0  0  0  0  0  0  0  0  0  0  0  0
  -23.8975   -9.5524   20.0690 C   0  0  0  0  0  0  0  0  0  0  0  0
  -23.9937   -8.1883   20.3442 C   0  0  0  0  0  0  0  0  0  0  0  0
  -24.7356  -26.3188   18.0065 C   0  0  0  0  0  0  0  0  0  0  0  0
  -22.4444   -8.4493   22.1796 C   0  0  0  0  0  0  0  0  0  0  0  0
  -26.5037  -22.7494   17.7106 C   0  0  0  0  0  0  0  0  0  0  0  0
  -26.4580  -13.9758   20.7680 C   0  0  0  0  0  0  0  0  0  0  0  0
  -28.9256  -14.4267   20.3043 C   0  0  0  0  0  0  0  0  0  0  0  0
  -31.0959  -26.2313   23.5323 C   0  0  0  0  0  0  0  0  0  0  0  0
  -26.3064  -27.7399   19.1782 C   0  0  0  0  0  0  0  0  0  0  0  0
  -30.0707  -25.8505   22.6455 C   0  0  0  0  0  0  0  0  0  0  0  0
  -25.0798  -27.0613   19.1464 C   0  0  0  0  0  0  0  0  0  0  0  0
  -27.6174  -22.2106   18.3162 C   0  0  0  0  0  0  0  0  0  0  0  0
  -28.2584  -21.3820   17.3625 C   0  0  0  0  0  0  0  0  0  0  0  0
  -24.1203  -12.4589   20.6381 C   0  0  0  0  0  0  0  0  0  0  0  0
  -25.5938  -26.2626   16.9086 C   0  0  0  0  0  0  0  0  0  0  0  0
  -23.0748  -10.3649   20.8492 C   0  0  0  0  0  0  0  0  0  0  0  0
  -23.2671   -7.6368   21.3994 C   0  0  0  0  0  0  0  0  0  0  0  0
  -22.3482   -9.8134   21.9045 C   0  0  0  0  0  0  0  0  0  0  0  0
  -27.6649  -14.7599   20.8348 C   0  0  0  0  0  0  0  0  0  0  0  0
  -27.5171  -21.4399   16.2029 C   0  0  0  0  0  0  0  0  0  0  0  0
  -29.7284  -15.4919   20.6318 C   0  0  0  0  0  0  0  0  0  0  0  0
  -29.3344  -13.2587   19.5801 C   0  0  0  0  0  0  0  0  0  0  0  0
  -26.5392  -26.8512   22.2212 C   0  0  0  0  0  0  0  0  0  0  0  0
  -23.6587  -28.3226   22.4657 C   0  0  0  0  0  0  0  0  0  0  0  0
  -20.8071  -29.3841   20.9202 C   0  0  0  0  0  0  0  0  0  0  0  0
  -28.5839  -21.2504   21.8072 C   0  0  0  0  0  0  0  0  0  0  0  0
  -30.8188  -26.5275   24.9849 C   0  0  0  0  0  0  0  0  0  0  0  0
  -26.6905  -28.5634   20.3768 C   0  0  0  0  0  0  0  0  0  0  0  0
  -24.1218  -27.1000   20.3079 C   0  0  0  0  0  0  0  0  0  0  0  0
  -29.3468  -26.8043   25.2800 C   0  0  0  0  0  0  0  0  0  0  0  0
  -30.2402  -18.9203   23.9296 C   0  0  0  0  0  0  0  0  0  0  0  0
  -28.4619  -25.7597   24.6074 C   0  0  0  0  0  0  0  0  0  0  0  0
  -29.8817  -17.5598   23.3292 C   0  0  0  0  0  0  0  0  0  0  0  0
  -29.0780  -19.9057   23.8282 C   0  0  0  0  0  0  0  0  0  0  0  0
  -28.1694  -18.7165   21.8702 C   0  0  0  0  0  0  0  0  0  0  0  0
  -28.6229  -25.7994   23.0829 C   0  0  1  0  0  0  0  0  0  0  0  0
  -25.9809  -28.1259   21.6545 C   0  0  1  0  0  0  0  0  0  0  0  0
  -29.3291  -17.7062   21.8987 C   0  0  2  0  0  0  0  0  0  0  0  0
  -27.7294  -20.7733   14.9007 C   0  0  0  0  0  0  0  0  0  0  0  0
  -30.6496  -21.0390   16.6427 C   0  0  0  0  0  0  0  0  0  0  0  0
  -29.2746  -19.0760   17.4242 C   0  0  0  0  0  0  0  0  0  0  0  0
  -18.6188  -30.5197   21.3880 C   0  0  0  0  0  0  0  0  0  0  0  0
  -22.5864  -25.7443   23.6954 C   0  0  0  0  0  0  0  0  0  0  0  0
  -20.2679  -26.5835   23.2610 C   0  0  0  0  0  0  0  0  0  0  0  0
  -21.7798  -27.8396   24.7969 C   0  0  0  0  0  0  0  0  0  0  0  0
  -21.4529  -31.6314   19.1060 C   0  0  0  0  0  0  0  0  0  0  0  0
  -28.0527  -22.4581   19.7053 C   0  0  0  0  0  0  0  0  0  0  0  0
  -25.8148  -23.6801   14.4040 C   0  0  0  0  0  0  0  0  0  0  0  0
  -25.3811  -22.6269   15.4260 C   0  0  0  0  0  0  0  0  0  0  0  0
  -26.3079  -24.9736   15.0418 C   0  0  0  0  0  0  0  0  0  1  0  0
  -29.4941  -20.5991   17.5705 C   0  0  0  0  0  0  0  0  0  0  0  0
  -22.2208  -27.8908   22.3080 C   0  0  1  0  0  0  0  0  0  0  0  0
  -20.0684  -30.7094   20.9692 C   0  0  2  0  0  0  0  0  0  0  0  0
  -21.7324  -27.0120   23.4940 C   0  0  0  0  0  0  0  0  0  0  0  0
  -27.6621  -15.9441   21.4526 N   0  0  0  0  0  0  0  0  0  0  0  0
  -26.4530  -22.2742   16.4261 N   0  0  0  0  0  0  0  0  0  0  0  0
  -28.9309  -16.3643   21.3124 N   0  0  0  0  0  0  0  0  0  0  0  0
  -24.5453  -27.9137   21.4594 N   0  0  0  0  0  0  0  0  0  0  0  0
  -28.6016  -19.9995   22.4461 N   0  0  0  0  0  0  0  0  0  0  0  0
  -31.0316  -15.7581   20.4012 N   0  0  0  0  0  0  0  0  0  0  0  0
  -28.3828  -12.2607   19.3297 N   0  0  0  0  0  0  0  0  0  0  0  0
  -27.8857  -26.9131   22.5256 N   0  0  0  0  0  0  0  0  0  0  0  0
  -21.4471  -29.1118   22.1108 N   0  0  0  0  0  0  0  0  0  0  0  0
  -28.1239  -21.2497   20.4961 N   0  0  0  0  0  0  0  0  0  0  0  0
  -20.0890  -31.3637   19.6304 N   0  3  0  0  0  0  0  0  0  0  0  0
  -30.5128  -13.0972   19.1817 O   0  0  0  0  0  0  0  0  0  0  0  0
  -25.8026  -25.8836   22.3724 O   0  0  0  0  0  0  0  0  0  0  0  0
  -23.9819  -29.0039   23.4419 O   0  0  0  0  0  0  0  0  0  0  0  0
  -20.8126  -28.6609   19.9265 O   0  0  0  0  0  0  0  0  0  0  0  0
  -28.9559  -22.2898   22.3623 O   0  0  0  0  0  0  0  0  0  0  0  0
  -22.9798  -11.7188   20.5743 O   0  0  0  0  0  0  0  0  0  0  0  0
  -25.2463  -25.5399   15.8091 O   0  0  0  0  0  0  0  0  0  1  0  0
  -23.3584   -6.3266   21.6625 F   0  0  0  0  0  0  0  0  0  0  0  0
  -21.5553  -10.5887   22.6567 F   0  0  0  0  0  0  0  0  0  0  0  0
  1  2  1  0  0  0  0
  1  5  2  0  0  0  0
  2  6  2  0  0  0  0
  3  8  2  0  0  0  0
  3 16  1  0  0  0  0
  4  9  1  0  0  0  0
  4 16  2  0  0  0  0
  5 18  1  0  0  0  0
  6 20  1  0  0  0  0
  7 10  2  0  0  0  0
  7 19  1  0  0  0  0
  8 24  1  0  0  0  0
  9 24  2  0  0  0  0
 10 25  1  0  0  0  0
 11 12  2  0  0  0  0
 11 26  1  0  0  0  0
 12 27  1  0  0  0  0
 13 21  1  0  0  0  0
 13 25  2  0  0  0  0
 14 27  2  0  0  0  0
 14 28  1  0  0  0  0
 15 22  2  0  0  0  0
 15 66  1  0  0  0  0
 16 29  1  0  0  0  0
 17 29  1  0  0  0  0
 17 31  2  0  0  0  0
 17 32  1  0  0  0  0
 18 20  2  0  0  0  0
 18 37  1  0  0  0  0
 19 21  2  0  0  0  0
 19 38  1  0  0  0  0
 20 46  1  0  0  0  0
 21 39  1  0  0  0  0
 22 23  1  0  0  0  0
 22 57  1  0  0  0  0
 23 30  2  0  0  0  0
 23 61  1  0  0  0  0
 24 81  1  0  0  0  0
 25 82  1  0  0  0  0
 26 28  2  0  0  0  0
 26 81  1  0  0  0  0
 27 83  1  0  0  0  0
 28 84  1  0  0  0  0
 29 65  2  0  0  0  0
 30 49  1  0  0  0  0
 30 66  1  0  0  0  0
 31 67  1  0  0  0  0
 31 70  1  0  0  0  0
 32 71  1  0  0  0  0
 32 76  2  0  0  0  0
 33 47  1  0  0  0  0
 33 72  1  0  0  0  0
 33 77  2  0  0  0  0
 34 62  1  0  0  0  0
 34 68  1  0  0  0  0
 34 78  2  0  0  0  0
 35 63  1  0  0  0  0
 35 73  1  0  0  0  0
 35 79  2  0  0  0  0
 36 69  1  0  0  0  0
 36 74  1  0  0  0  0
 36 80  2  0  0  0  0
 37 40  1  0  0  0  0
 38 47  1  0  0  0  0
 39 68  1  0  0  0  0
 40 42  1  0  0  0  0
 41 43  1  0  0  0  0
 41 44  1  0  0  0  0
 42 46  1  0  0  0  0
 43 48  1  0  0  0  0
 44 69  1  0  0  0  0
 45 48  1  0  0  0  0
 45 69  1  0  0  0  0
 46 72  1  0  0  0  0
 47 68  1  0  0  0  0
 48 67  1  0  0  0  0
 50 61  1  0  0  0  0
 51 61  1  0  0  0  0
 52 63  1  0  0  0  0
 53 64  1  0  0  0  0
 54 64  1  0  0  0  0
 55 64  1  0  0  0  0
 56 75  1  0  0  0  0
 57 74  1  0  0  0  0
 58 59  1  0  0  0  0
 58 60  1  0  0  0  0
 59 66  1  0  0  0  0
 60 82  1  0  0  0  0
 62 64  1  0  0  0  0
 62 73  1  0  0  0  0
 63 75  1  0  0  0  0
 65 67  1  0  0  0  0
M  CHG  1  75   1
M  ISO  4  36 100  60 101  74 100  82 101
M  END
> <Batch ID>
0105

> <Smiles>
CNC(C)C(=O)NC(C(=O)N1Cc2cc([101O:1][101CH2:1]CCn3cc(C[100NH:0][100C:0](=O)N4CCCC(n5nc(-c6ccc(Oc7ccc(F)cc7F)cc6)c(C(N)=O)c5N)C4)c(C(C)C)c3C)ccc2CC1C(=O)NC1CCCc2ccccc21)C(C)(C)C

> <Shape>
0.212

> <Color>
0.077

> <Negative vol penalty>
0.000

$$$$

  -OEChem-04052319463D

 78 85  0     1  0  0  0  0  0999 V2000
  -24.5996  -28.4048   20.0248 C   0  0  0  0  0  0  0  0  0  0  0  0
  -24.4949  -27.1711   19.3903 C   0  0  0  0  0  0  0  0  0  0  0  0
  -18.8192  -22.1073   21.5452 C   0  0  0  0  0  0  0  0  0  0  0  0
  -20.8211  -22.9476   22.6051 C   0  0  0  0  0  0  0  0  0  0  0  0
  -25.8508  -28.8865   20.4075 C   0  0  0  0  0  0  0  0  0  0  0  0
  -25.6414  -26.4190   19.1372 C   0  0  0  0  0  0  0  0  0  0  0  0
  -25.0526  -21.5268   20.3055 C   0  0  0  0  0  0  0  0  0  0  0  0
  -18.5102  -23.3952   21.1077 C   0  0  0  0  0  0  0  0  0  0  0  0
  -20.5122  -24.2355   22.1675 C   0  0  0  0  0  0  0  0  0  0  0  0
  -24.3437  -20.7371   19.4013 C   0  0  0  0  0  0  0  0  0  0  0  0
  -18.4374  -26.7451   23.0775 C   0  0  0  0  0  0  0  0  0  0  0  0
  -18.5669  -27.7891   23.9933 C   0  0  0  0  0  0  0  0  0  0  0  0
  -26.4234  -19.8941   18.5162 C   0  0  0  0  0  0  0  0  0  0  0  0
  -20.1932  -28.8491   22.5551 C   0  0  0  0  0  0  0  0  0  0  0  0
  -19.9746  -21.8835   22.2939 C   0  0  0  0  0  0  0  0  0  0  0  0
  -19.5180  -19.7319   23.5861 C   0  0  0  0  0  0  0  0  0  0  0  0
  -27.0123  -28.1355   20.1676 C   0  0  0  0  0  0  0  0  0  0  0  0
  -26.4548  -21.5142   20.3145 C   0  0  0  0  0  0  0  0  0  0  0  0
  -26.9094  -26.8917   19.5159 C   0  0  0  0  0  0  0  0  0  0  0  0
  -27.1477  -20.6826   19.4233 C   0  0  0  0  0  0  0  0  0  0  0  0
  -19.3567  -24.4593   21.4188 C   0  0  0  0  0  0  0  0  0  0  0  0
  -25.0291  -19.9227   18.5045 C   0  0  0  0  0  0  0  0  0  0  0  0
  -19.1859  -26.7530   21.9004 C   0  0  0  0  0  0  0  0  0  0  0  0
  -19.4447  -28.8412   23.7321 C   0  0  0  0  0  0  0  0  0  0  0  0
  -20.0638  -27.8050   21.6392 C   0  0  0  0  0  0  0  0  0  0  0  0
  -20.2940  -20.5534   22.7467 C   0  0  0  0  0  0  0  0  0  0  0  0
  -20.2538  -18.5792   23.7142 C   0  0  0  0  0  0  0  0  0  0  0  0
  -18.2456  -19.9877   24.1955 C   0  0  0  0  0  0  0  0  0  0  0  0
  -28.7208  -23.6841   19.8037 C   0  0  0  0  0  0  0  0  0  0  0  0
  -30.6883  -21.2811   20.7403 C   0  0  0  0  0  0  0  0  0  0  0  0
  -31.1972  -17.9253   21.0958 C   0  0  0  0  0  0  0  0  0  0  0  0
  -24.4013  -15.9848   20.2619 C   0  0  0  0  0  0  0  0  0  0  0  0
  -28.3474  -28.7190   20.5571 C   0  0  0  0  0  0  0  0  0  0  0  0
  -27.2044  -22.3518   21.3141 C   0  0  0  0  0  0  0  0  0  0  0  0
  -28.6524  -20.6175   19.4061 C   0  0  0  0  0  0  0  0  0  0  0  0
  -29.4754  -27.6910   20.5889 C   0  0  0  0  0  0  0  0  0  0  0  0
  -24.7671  -16.9924   23.6571 C   0  0  0  0  0  0  0  0  0  0  0  0
  -29.4409  -26.8217   19.3359 C   0  0  0  0  0  0  0  0  0  0  0  0
  -23.5922  -17.9452   23.8845 C   0  0  0  0  0  0  0  0  0  0  0  0
  -25.3401  -17.1292   22.2482 C   0  0  0  0  0  0  0  0  0  0  0  0
  -23.1777  -17.9415   21.3891 C   0  0  0  0  0  0  0  0  0  0  0  0
  -28.1275  -26.0353   19.2461 C   0  0  1  0  0  0  0  0  0  0  0  0
  -28.6392  -22.6481   20.8890 C   0  0  1  0  0  0  0  0  0  0  0  0
  -22.5306  -17.8005   22.7776 C   0  0  2  0  0  0  0  0  0  0  0  0
  -32.9177  -16.2632   21.8539 C   0  0  0  0  0  0  0  0  0  0  0  0
  -24.9674  -16.7208   14.7962 C   0  0  0  0  0  0  0  0  0  0  0  0
  -32.2432  -21.7133   18.1508 C   0  0  0  0  0  0  0  0  0  0  0  0
  -33.3130  -19.4771   18.5018 C   0  0  0  0  0  0  0  0  0  0  0  0
  -33.6662  -21.3017   20.1658 C   0  0  0  0  0  0  0  0  0  0  0  0
  -29.4225  -16.8840   23.2231 C   0  0  0  0  0  0  0  0  0  0  0  0
  -22.0021  -16.4028   15.8495 C   0  0  0  0  0  0  0  0  0  0  0  0
  -23.3271  -14.9308   18.2885 C   0  0  0  0  0  0  0  0  0  0  0  0
  -23.9810  -15.4471   17.0204 C   0  0  0  0  0  0  0  0  0  0  0  0
  -25.1058  -18.3410   16.7302 C   0  0  0  0  0  0  0  0  0  1  0  0
  -31.4145  -20.1590   20.0385 C   0  0  1  0  0  0  0  0  0  0  0  0
  -31.7172  -17.1033   22.2613 C   0  0  2  0  0  0  0  0  0  0  0  0
  -24.1895  -17.5906   15.7703 C   0  0  2  0  0  0  0  0  0  0  0  0
  -32.6309  -20.6652   19.2130 C   0  0  0  0  0  0  0  0  0  0  0  0
  -21.4355  -19.9721   22.3683 N   0  0  0  0  0  0  0  0  0  0  0  0
  -21.3821  -18.7730   22.9728 N   0  0  0  0  0  0  0  0  0  0  0  0
  -29.3403  -21.4598   20.3985 N   0  0  0  0  0  0  0  0  0  0  0  0
  -24.2824  -16.9803   21.2457 N   0  0  0  0  0  0  0  0  0  0  0  0
  -20.0394  -17.4290   24.3876 N   0  0  0  0  0  0  0  0  0  0  0  0
  -18.2202  -20.5790   25.4660 N   0  0  0  0  0  0  0  0  0  0  0  0
  -28.1565  -24.8992   20.1422 N   0  0  0  0  0  0  0  0  0  0  0  0
  -31.7559  -19.1856   21.0702 N   0  0  0  0  0  0  0  0  0  0  0  0
  -23.3520  -15.9076   19.3543 N   0  0  0  0  0  0  0  0  0  0  0  0
  -30.6536  -16.1895   22.7660 N   0  3  0  0  0  0  0  0  0  0  0  0
  -23.2906  -16.7067   16.5675 N   0  3  1  0  0  0  0  0  0  0  0  0
  -17.1637  -19.6856   23.6372 O   0  0  0  0  0  0  0  0  0  0  0  0
  -29.2574  -23.4023   18.7386 O   0  0  0  0  0  0  0  0  0  0  0  0
  -31.2928  -21.9691   21.5667 O   0  0  0  0  0  0  0  0  0  0  0  0
  -30.3800  -17.4915   20.2868 O   0  0  0  0  0  0  0  0  0  0  0  0
  -25.3683  -15.2179   20.2004 O   0  0  0  0  0  0  0  0  0  0  0  0
  -19.0557  -25.7161   20.9918 O   0  0  0  0  0  0  0  0  0  0  0  0
  -24.3396  -19.1514   17.6205 O   0  0  0  0  0  0  0  0  0  1  0  0
  -19.5678  -29.8445   24.6110 F   0  0  0  0  0  0  0  0  0  0  0  0
  -20.7846  -27.8188   20.5096 F   0  0  0  0  0  0  0  0  0  0  0  0
  1  2  1  0  0  0  0
  1  5  2  0  0  0  0
  2  6  2  0  0  0  0
  3  8  2  0  0  0  0
  3 15  1  0  0  0  0
  4  9  1  0  0  0  0
  4 15  2  0  0  0  0
  5 17  1  0  0  0  0
  6 19  1  0  0  0  0
  7 10  2  0  0  0  0
  7 18  1  0  0  0  0
  8 21  1  0  0  0  0
  9 21  2  0  0  0  0
 10 22  1  0  0  0  0
 11 12  2  0  0  0  0
 11 23  1  0  0  0  0
 12 24  1  0  0  0  0
 13 20  1  0  0  0  0
 13 22  2  0  0  0  0
 14 24  2  0  0  0  0
 14 25  1  0  0  0  0
 15 26  1  0  0  0  0
 16 26  1  0  0  0  0
 16 27  2  0  0  0  0
 16 28  1  0  0  0  0
 17 19  2  0  0  0  0
 17 33  1  0  0  0  0
 18 20  2  0  0  0  0
 18 34  1  0  0  0  0
 19 42  1  0  0  0  0
 20 35  1  0  0  0  0
 21 75  1  0  0  0  0
 22 76  1  0  0  0  0
 23 25  2  0  0  0  0
 23 75  1  0  0  0  0
 24 77  1  0  0  0  0
 25 78  1  0  0  0  0
 26 59  2  0  0  0  0
 27 60  1  0  0  0  0
 27 63  1  0  0  0  0
 28 64  1  0  0  0  0
 28 70  2  0  0  0  0
 29 43  1  0  0  0  0
 29 65  1  0  0  0  0
 29 71  2  0  0  0  0
 30 55  1  0  0  0  0
 30 61  1  0  0  0  0
 30 72  2  0  0  0  0
 31 56  1  0  0  0  0
 31 66  1  0  0  0  0
 31 73  2  0  0  0  0
 32 62  1  0  0  0  0
 32 67  1  0  0  0  0
 32 74  2  0  0  0  0
 33 36  1  0  0  0  0
 34 43  1  0  0  0  0
 35 61  1  0  0  0  0
 36 38  1  0  0  0  0
 37 39  1  0  0  0  0
 37 40  1  0  0  0  0
 38 42  1  0  0  0  0
 39 44  1  0  0  0  0
 40 62  1  0  0  0  0
 41 44  1  0  0  0  0
 41 62  1  0  0  0  0
 42 65  1  0  0  0  0
 43 61  1  0  0  0  0
 44 60  1  0  0  0  0
 45 56  1  0  0  0  0
 46 57  1  0  0  0  0
 47 58  1  0  0  0  0
 48 58  1  0  0  0  0
 49 58  1  0  0  0  0
 50 68  1  0  0  0  0
 51 69  1  0  0  0  0
 52 53  1  0  0  0  0
 52 67  1  0  0  0  0
 53 69  1  0  0  0  0
 54 57  1  0  0  0  0
 54 76  1  0  0  0  0
 55 58  1  0  0  0  0
 55 66  1  0  0  0  0
 56 68  1  0  0  0  0
 57 69  1  0  0  0  0
 59 60  1  0  0  0  0
M  CHG  2  68   1  69   1
M  ISO  4  32 100  54 101  67 100  76 101
M  END
> <Batch ID>
0105

> <Smiles>
CNC(C)C(=O)NC(C(=O)N1Cc2cc([101O:1][101CH2:1]C(C)N(C)CC[100NH:0][100C:0](=O)N3CCCC(n4nc(-c5ccc(Oc6ccc(F)cc6F)cc5)c(C(N)=O)c4N)C3)ccc2CC1C(=O)NC1CCCc2ccccc21)C(C)(C)C

> <Shape>
0.178

> <Color>
0.080

> <Negative vol penalty>
0.000

$$$$

  -OEChem-04052319463D

 85 93  0     1  0  0  0  0  0999 V2000
  -19.2888  -33.7694   20.9152 C   0  0  0  0  0  0  0  0  0  0  0  0
  -20.5604  -33.3605   20.5261 C   0  0  0  0  0  0  0  0  0  0  0  0
  -27.4863  -12.7460   21.9234 C   0  0  0  0  0  0  0  0  0  0  0  0
  -25.6211  -13.4354   20.5512 C   0  0  0  0  0  0  0  0  0  0  0  0
  -18.6948  -33.2129   22.0472 C   0  0  0  0  0  0  0  0  0  0  0  0
  -21.2391  -32.3956   21.2695 C   0  0  0  0  0  0  0  0  0  0  0  0
  -25.0339  -28.0932   19.1259 C   0  0  0  0  0  0  0  0  0  0  0  0
  -26.6886  -11.7670   22.5158 C   0  0  0  0  0  0  0  0  0  0  0  0
  -24.8234  -12.4564   21.1435 C   0  0  0  0  0  0  0  0  0  0  0  0
  -26.4243  -28.0213   19.0517 C   0  0  0  0  0  0  0  0  0  0  0  0
  -22.3967   -9.9010   22.0375 C   0  0  0  0  0  0  0  0  0  0  0  0
  -21.5928   -9.1254   21.2021 C   0  0  0  0  0  0  0  0  0  0  0  0
  -26.4636  -26.7706   21.1141 C   0  0  0  0  0  0  0  0  0  0  0  0
  -28.7992  -22.1391   17.7352 C   0  0  0  0  0  0  0  0  0  0  0  0
  -23.5592   -8.3416   20.0376 C   0  0  0  0  0  0  0  0  0  0  0  0
  -28.0535  -24.2154   18.1853 C   0  0  0  0  0  0  0  0  0  0  0  0
  -26.9525  -13.5802   20.9411 C   0  0  0  0  0  0  0  0  0  0  0  0
  -28.5733  -14.4569   19.1770 C   0  0  0  0  0  0  0  0  0  0  0  0
  -19.3627  -32.2337   22.7993 C   0  0  0  0  0  0  0  0  0  0  0  0
  -24.3476  -27.5128   20.2022 C   0  0  0  0  0  0  0  0  0  0  0  0
  -20.6541  -31.8264   22.4134 C   0  0  0  0  0  0  0  0  0  0  0  0
  -25.0643  -26.8343   21.1982 C   0  0  0  0  0  0  0  0  0  0  0  0
  -27.6382  -22.9265   17.9333 C   0  0  0  0  0  0  0  0  0  0  0  0
  -25.3572  -11.6222   22.1259 C   0  0  0  0  0  0  0  0  0  0  0  0
  -27.1396  -27.3625   20.0474 C   0  0  0  0  0  0  0  0  0  0  0  0
  -23.7819   -9.8969   21.8729 C   0  0  0  0  0  0  0  0  0  0  0  0
  -22.1741   -8.3457   20.2022 C   0  0  0  0  0  0  0  0  0  0  0  0
  -24.3631   -9.1172   20.8729 C   0  0  0  0  0  0  0  0  0  0  0  0
  -27.7758  -14.5920   20.3292 C   0  0  0  0  0  0  0  0  0  0  0  0
  -29.8886  -22.9708   17.8723 C   0  0  0  0  0  0  0  0  0  0  0  0
  -29.1503  -15.6923   19.0119 C   0  0  0  0  0  0  0  0  0  0  0  0
  -28.7745  -13.3166   18.3315 C   0  0  0  0  0  0  0  0  0  0  0  0
  -22.4725  -28.6117   22.5217 C   0  0  0  0  0  0  0  0  0  0  0  0
  -22.0971  -25.4578   23.1805 C   0  0  0  0  0  0  0  0  0  0  0  0
  -23.3370  -22.2855   22.9653 C   0  0  0  0  0  0  0  0  0  0  0  0
  -27.5412  -21.2038   20.7105 C   0  0  0  0  0  0  0  0  0  0  0  0
  -18.6995  -31.6955   24.0424 C   0  0  0  0  0  0  0  0  0  0  0  0
  -22.8457  -27.5760   20.2537 C   0  0  0  0  0  0  0  0  0  0  0  0
  -24.3734  -26.1770   22.3640 C   0  0  0  0  0  0  0  0  0  0  0  0
  -19.3323  -30.4067   24.5610 C   0  0  0  0  0  0  0  0  0  0  0  0
  -30.5777  -19.5211   21.5008 C   0  0  0  0  0  0  0  0  0  0  0  0
  -20.8523  -30.5317   24.5883 C   0  0  0  0  0  0  0  0  0  0  0  0
  -30.2759  -18.0548   21.1861 C   0  0  0  0  0  0  0  0  0  0  0  0
  -29.3606  -20.2351   22.0845 C   0  0  0  0  0  0  0  0  0  0  0  0
  -27.8313  -18.6640   20.9590 C   0  0  0  0  0  0  0  0  0  0  0  0
  -21.4121  -30.7642   23.1797 C   0  0  1  0  0  0  0  0  0  0  0  0
  -22.2879  -27.3935   21.6618 C   0  0  1  0  0  0  0  0  0  0  0  0
  -29.0122  -17.9166   20.3160 C   0  0  2  0  0  0  0  0  0  0  0  0
  -31.3311  -22.6691   17.7651 C   0  0  0  0  0  0  0  0  0  0  0  0
  -23.3883  -19.7859   23.1817 C   0  0  0  0  0  0  0  0  0  0  0  0
  -31.4051  -27.0214   19.9719 C   0  0  0  0  0  0  0  0  0  0  0  0
  -25.9595  -21.2407   16.9152 C   0  0  0  0  0  0  0  0  0  0  0  0
  -25.2855  -23.5864   17.3616 C   0  0  0  0  0  0  0  0  0  0  0  0
  -22.9284  -26.0861   26.0483 C   0  0  0  0  0  0  0  0  0  0  0  0
  -23.3168  -23.6376   26.3983 C   0  0  0  0  0  0  0  0  0  0  0  0
  -21.0316  -24.4692   25.8423 C   0  0  0  0  0  0  0  0  0  0  0  0
  -22.0837  -21.9139   20.3101 C   0  0  0  0  0  0  0  0  0  0  0  0
  -30.2729  -25.4573   18.3717 C   0  0  0  0  0  0  0  0  0  0  0  0
  -25.6792  -22.0224   19.2885 C   0  0  0  0  0  0  0  0  0  0  0  0
  -29.1179  -26.1460   20.5597 C   0  0  0  0  0  0  0  0  0  1  0  0
  -22.8151  -24.4545   24.0505 C   0  0  1  0  0  0  0  0  0  0  0  0
  -22.6908  -20.9778   22.5449 C   0  0  2  0  0  0  0  0  0  0  0  0
  -30.4482  -25.8287   19.8599 C   0  0  2  0  0  0  0  0  0  0  0  0
  -26.2415  -22.4544   17.8796 C   0  0  0  0  0  0  0  0  0  0  0  0
  -22.5364  -24.6758   25.5640 C   0  0  0  0  0  0  0  0  0  0  0  0
  -27.8382  -15.8167   20.8587 N   0  0  0  0  0  0  0  0  0  0  0  0
  -29.4233  -24.2305   18.1460 N   0  0  0  0  0  0  0  0  0  0  0  0
  -28.6819  -16.4623   20.0356 N   0  0  0  0  0  0  0  0  0  0  0  0
  -22.9043  -26.2715   22.3729 N   0  0  0  0  0  0  0  0  0  0  0  0
  -28.1969  -20.0668   21.2108 N   0  0  0  0  0  0  0  0  0  0  0  0
  -30.0076  -16.1843   18.0925 N   0  0  0  0  0  0  0  0  0  0  0  0
  -28.1048  -12.1260   18.6449 N   0  0  0  0  0  0  0  0  0  0  0  0
  -21.4380  -29.5237   22.4349 N   0  0  0  0  0  0  0  0  0  0  0  0
  -22.4285  -23.1367   23.5582 N   0  0  0  0  0  0  0  0  0  0  0  0
  -26.4515  -20.9553   19.8849 N   0  0  0  0  0  0  0  0  0  0  0  0
  -22.7523  -20.8222   21.0640 N   0  3  0  0  0  0  0  0  0  0  0  0
  -29.5386  -13.3477   17.3372 O   0  0  0  0  0  0  0  0  0  0  0  0
  -23.4784  -28.7160   23.2138 O   0  0  0  0  0  0  0  0  0  0  0  0
  -20.8652  -25.5124   23.2108 O   0  0  0  0  0  0  0  0  0  0  0  0
  -24.5293  -22.5262   22.7891 O   0  0  0  0  0  0  0  0  0  0  0  0
  -27.9034  -22.3551   20.9755 O   0  0  0  0  0  0  0  0  0  0  0  0
  -24.5787  -10.6668   22.7035 O   0  0  0  0  0  0  0  0  0  0  0  0
  -28.4968  -27.2914   19.9778 O   0  0  0  0  0  0  0  0  0  1  0  0
  -21.4021   -7.5998   19.4010 F   0  0  0  0  0  0  0  0  0  0  0  0
  -25.6933   -9.1083   20.7108 F   0  0  0  0  0  0  0  0  0  0  0  0
  1  2  1  0  0  0  0
  1  5  2  0  0  0  0
  2  6  2  0  0  0  0
  3  8  2  0  0  0  0
  3 17  1  0  0  0  0
  4  9  1  0  0  0  0
  4 17  2  0  0  0  0
  5 19  1  0  0  0  0
  6 21  1  0  0  0  0
  7 10  2  0  0  0  0
  7 20  1  0  0  0  0
  8 24  1  0  0  0  0
  9 24  2  0  0  0  0
 10 25  1  0  0  0  0
 11 12  2  0  0  0  0
 11 26  1  0  0  0  0
 12 27  1  0  0  0  0
 13 22  1  0  0  0  0
 13 25  2  0  0  0  0
 14 23  1  0  0  0  0
 14 30  2  0  0  0  0
 15 27  2  0  0  0  0
 15 28  1  0  0  0  0
 16 23  2  0  0  0  0
 16 67  1  0  0  0  0
 17 29  1  0  0  0  0
 18 29  1  0  0  0  0
 18 31  2  0  0  0  0
 18 32  1  0  0  0  0
 19 21  2  0  0  0  0
 19 37  1  0  0  0  0
 20 22  2  0  0  0  0
 20 38  1  0  0  0  0
 21 46  1  0  0  0  0
 22 39  1  0  0  0  0
 23 64  1  0  0  0  0
 24 82  1  0  0  0  0
 25 83  1  0  0  0  0
 26 28  2  0  0  0  0
 26 82  1  0  0  0  0
 27 84  1  0  0  0  0
 28 85  1  0  0  0  0
 29 66  2  0  0  0  0
 30 49  1  0  0  0  0
 30 67  1  0  0  0  0
 31 68  1  0  0  0  0
 31 71  1  0  0  0  0
 32 72  1  0  0  0  0
 32 77  2  0  0  0  0
 33 47  1  0  0  0  0
 33 73  1  0  0  0  0
 33 78  2  0  0  0  0
 34 61  1  0  0  0  0
 34 69  1  0  0  0  0
 34 79  2  0  0  0  0
 35 62  1  0  0  0  0
 35 74  1  0  0  0  0
 35 80  2  0  0  0  0
 36 70  1  0  0  0  0
 36 75  1  0  0  0  0
 36 81  2  0  0  0  0
 37 40  1  0  0  0  0
 38 47  1  0  0  0  0
 39 69  1  0  0  0  0
 40 42  1  0  0  0  0
 41 43  1  0  0  0  0
 41 44  1  0  0  0  0
 42 46  1  0  0  0  0
 43 48  1  0  0  0  0
 44 70  1  0  0  0  0
 45 48  1  0  0  0  0
 45 70  1  0  0  0  0
 46 73  1  0  0  0  0
 47 69  1  0  0  0  0
 48 68  1  0  0  0  0
 50 62  1  0  0  0  0
 51 63  1  0  0  0  0
 52 64  1  0  0  0  0
 53 64  1  0  0  0  0
 54 65  1  0  0  0  0
 55 65  1  0  0  0  0
 56 65  1  0  0  0  0
 57 76  1  0  0  0  0
 58 63  1  0  0  0  0
 58 67  1  0  0  0  0
 59 64  1  0  0  0  0
 59 75  1  0  0  0  0
 60 63  1  0  0  0  0
 60 83  1  0  0  0  0
 61 65  1  0  0  0  0
 61 74  1  0  0  0  0
 62 76  1  0  0  0  0
 66 68  1  0  0  0  0
M  CHG  1  76   1
M  ISO  4  36 100  60 101  75 100  83 101
M  END
> <Batch ID>
0105

> <Smiles>
CNC(C)C(=O)NC(C(=O)N1Cc2cc([101O:1][101CH2:1]C(C)Cn3cc(C(C)(C)C[100NH:0][100C:0](=O)N4CCCC(n5nc(-c6ccc(Oc7ccc(F)cc7F)cc6)c(C(N)=O)c5N)C4)cc3C)ccc2CC1C(=O)NC1CCCc2ccccc21)C(C)(C)C

> <Shape>
0.244

> <Color>
0.083

> <Negative vol penalty>
0.000

$$$$

  -OEChem-04052319463D

 87 95  0     1  0  0  0  0  0999 V2000
  -22.0492  -11.0043   20.0605 C   0  0  0  0  0  0  0  0  0  0  0  0
  -21.7783  -12.0279   20.9629 C   0  0  0  0  0  0  0  0  0  0  0  0
  -29.9643  -28.8502   19.1118 C   0  0  0  0  0  0  0  0  0  0  0  0
  -29.4205  -27.0565   20.6363 C   0  0  0  0  0  0  0  0  0  0  0  0
  -23.3470  -10.8210   19.5851 C   0  0  0  0  0  0  0  0  0  0  0  0
  -22.8054  -12.8681   21.3912 C   0  0  0  0  0  0  0  0  0  0  0  0
  -22.3718  -18.8311   22.7182 C   0  0  0  0  0  0  0  0  0  0  0  0
  -31.3155  -28.5157   19.2002 C   0  0  0  0  0  0  0  0  0  0  0  0
  -30.7718  -26.7220   20.7247 C   0  0  0  0  0  0  0  0  0  0  0  0
  -22.2406  -19.5163   23.9253 C   0  0  0  0  0  0  0  0  0  0  0  0
  -34.0402  -25.1675   21.0703 C   0  0  0  0  0  0  0  0  0  0  0  0
  -34.3816  -23.8176   20.9885 C   0  0  0  0  0  0  0  0  0  0  0  0
  -24.6271  -19.8635   23.9807 C   0  0  0  0  0  0  0  0  0  0  0  0
  -33.3933  -23.7011   18.7869 C   0  0  0  0  0  0  0  0  0  0  0  0
  -21.3352  -26.5424   24.5784 C   0  0  0  0  0  0  0  0  0  0  0  0
  -29.0168  -28.1206   19.8299 C   0  0  0  0  0  0  0  0  0  0  0  0
  -26.6799  -27.9681   18.8184 C   0  0  0  0  0  0  0  0  0  0  0  0
  -24.3886  -11.6654   20.0004 C   0  0  0  0  0  0  0  0  0  0  0  0
  -23.6351  -18.6472   22.1378 C   0  0  0  0  0  0  0  0  0  0  0  0
  -24.1186  -12.6951   20.9219 C   0  0  0  0  0  0  0  0  0  0  0  0
  -24.7714  -19.1778   22.7649 C   0  0  0  0  0  0  0  0  0  0  0  0
  -20.2328  -26.8249   23.8025 C   0  0  0  0  0  0  0  0  0  0  0  0
  -19.8990  -25.6434   23.0955 C   0  0  0  0  0  0  0  0  0  0  0  0
  -31.7193  -27.4516   20.0066 C   0  0  0  0  0  0  0  0  0  0  0  0
  -23.3686  -20.0301   24.5582 C   0  0  0  0  0  0  0  0  0  0  0  0
  -33.3753  -25.7843   20.0105 C   0  0  0  0  0  0  0  0  0  0  0  0
  -34.0582  -23.0844   19.8468 C   0  0  0  0  0  0  0  0  0  0  0  0
  -33.0519  -25.0511   18.8688 C   0  0  0  0  0  0  0  0  0  0  0  0
  -27.6208  -28.4660   19.7395 C   0  0  0  0  0  0  0  0  0  0  0  0
  -20.8076  -24.6747   23.4612 C   0  0  0  0  0  0  0  0  0  0  0  0
  -25.5074  -28.6029   19.1483 C   0  0  0  0  0  0  0  0  0  0  0  0
  -26.8504  -27.0169   17.7593 C   0  0  0  0  0  0  0  0  0  0  0  0
  -25.4173  -16.1215   21.3976 C   0  0  0  0  0  0  0  0  0  0  0  0
  -27.3389  -18.3609   20.0503 C   0  0  0  0  0  0  0  0  0  0  0  0
  -28.3650  -21.6140   19.9455 C   0  0  0  0  0  0  0  0  0  0  0  0
  -21.8459  -30.3874   22.9634 C   0  0  0  0  0  0  0  0  0  0  0  0
  -25.7845  -11.3987   19.4953 C   0  0  0  0  0  0  0  0  0  0  0  0
  -23.7568  -17.9290   20.8219 C   0  0  0  0  0  0  0  0  0  0  0  0
  -26.1479  -19.0252   22.1730 C   0  0  0  0  0  0  0  0  0  0  0  0
  -26.7436  -12.5667   19.7104 C   0  0  0  0  0  0  0  0  0  0  0  0
  -24.6320  -32.4908   22.2635 C   0  0  0  0  0  0  0  0  0  0  0  0
  -26.6149  -13.1087   21.1304 C   0  0  0  0  0  0  0  0  0  0  0  0
  -25.5824  -31.5886   21.4743 C   0  0  0  0  0  0  0  0  0  0  0  0
  -23.8980  -31.7179   23.3571 C   0  0  0  0  0  0  0  0  0  0  0  0
  -24.1377  -29.6097   22.1034 C   0  0  0  0  0  0  0  0  0  0  0  0
  -25.2012  -13.6427   21.3910 C   0  0  1  0  0  0  0  0  0  0  0  0
  -25.1493  -17.3542   20.5814 C   0  0  1  0  0  0  0  0  0  0  0  0
  -24.8592  -30.3322   20.9529 C   0  0  2  0  0  0  0  0  0  0  0  0
  -18.7830  -25.4779   22.1414 C   0  0  0  0  0  0  0  0  0  0  0  0
  -21.2011  -23.1197   21.5168 C   0  0  0  0  0  0  0  0  0  0  0  0
  -19.6901  -22.4158   23.4079 C   0  0  0  0  0  0  0  0  0  0  0  0
  -29.9765  -23.1343   18.7668 C   0  0  0  0  0  0  0  0  0  0  0  0
  -23.0819  -22.2739   28.1927 C   0  0  0  0  0  0  0  0  0  0  0  0
  -29.6314  -17.2053   21.6993 C   0  0  0  0  0  0  0  0  0  0  0  0
  -30.9306  -19.2927   21.2273 C   0  0  0  0  0  0  0  0  0  0  0  0
  -30.2367  -17.8060   19.3483 C   0  0  0  0  0  0  0  0  0  0  0  0
  -26.1770  -23.2989   18.8813 C   0  0  0  0  0  0  0  0  0  0  0  0
  -19.5358  -28.1245   23.7288 C   0  0  0  0  0  0  0  0  0  0  0  0
  -22.4191  -23.5703   26.1513 C   0  0  0  0  0  0  0  0  0  0  0  0
  -22.8334  -24.5297   25.0270 C   0  0  0  0  0  0  0  0  0  0  0  0
  -19.8799  -28.9528   22.4777 C   0  0  0  0  0  0  0  0  0  0  0  0
  -24.2019  -21.7203   26.0090 C   0  0  0  0  0  0  0  0  0  1  0  0
  -20.9247  -23.2655   23.0304 C   0  0  0  0  0  0  0  0  0  0  0  0
  -28.4942  -19.2063   20.5293 C   0  0  1  0  0  0  0  0  0  0  0  0
  -28.5642  -22.5705   18.7836 C   0  0  2  0  0  0  0  0  0  0  0  0
  -23.5823  -22.8391   26.8572 C   0  0  2  0  0  0  0  0  0  0  0  0
  -29.7976  -18.3790   20.7134 C   0  0  0  0  0  0  0  0  0  0  0  0
  -27.0919  -29.3491   20.5906 N   0  0  0  0  0  0  0  0  0  0  0  0
  -21.6756  -25.2324   24.3632 N   0  0  0  0  0  0  0  0  0  0  0  0
  -25.8058  -29.4111   20.2056 N   0  0  0  0  0  0  0  0  0  0  0  0
  -26.2158  -18.3096   20.8881 N   0  0  0  0  0  0  0  0  0  0  0  0
  -23.2323  -30.5397   22.7964 N   0  0  0  0  0  0  0  0  0  0  0  0
  -24.2606  -28.5429   18.6342 N   0  0  0  0  0  0  0  0  0  0  0  0
  -28.1214  -26.4616   17.5581 N   0  0  0  0  0  0  0  0  0  0  0  0
  -25.0328  -14.9451   20.7829 N   0  0  0  0  0  0  0  0  0  0  0  0
  -28.6147  -20.3080   19.5805 N   0  0  0  0  0  0  0  0  0  0  0  0
  -21.2935  -29.2458   22.3956 N   0  0  0  0  0  0  0  0  0  0  0  0
  -27.6054  -23.7074   18.8784 N   0  3  0  0  0  0  0  0  0  0  0  0
  -25.9074  -26.6819   17.0029 O   0  0  0  0  0  0  0  0  0  0  0  0
  -25.9360  -16.2294   22.5026 O   0  0  0  0  0  0  0  0  0  0  0  0
  -27.4267  -17.7735   18.9691 O   0  0  0  0  0  0  0  0  0  0  0  0
  -28.0257  -21.9884   21.0659 O   0  0  0  0  0  0  0  0  0  0  0  0
  -21.1511  -31.2106   23.5688 O   0  0  0  0  0  0  0  0  0  0  0  0
  -33.0378  -27.1248   20.0929 O   0  0  0  0  0  0  0  0  0  0  0  0
  -23.2434  -20.6987   25.7368 O   0  0  0  0  0  0  0  0  0  1  0  0
  -34.3874  -21.7884   19.7677 F   0  0  0  0  0  0  0  0  0  0  0  0
  -32.4142  -25.6384   17.8469 F   0  0  0  0  0  0  0  0  0  0  0  0
  1  2  1  0  0  0  0
  1  5  2  0  0  0  0
  2  6  2  0  0  0  0
  3  8  2  0  0  0  0
  3 16  1  0  0  0  0
  4  9  1  0  0  0  0
  4 16  2  0  0  0  0
  5 18  1  0  0  0  0
  6 20  1  0  0  0  0
  7 10  2  0  0  0  0
  7 19  1  0  0  0  0
  8 24  1  0  0  0  0
  9 24  2  0  0  0  0
 10 25  1  0  0  0  0
 11 12  2  0  0  0  0
 11 26  1  0  0  0  0
 12 27  1  0  0  0  0
 13 21  1  0  0  0  0
 13 25  2  0  0  0  0
 14 27  2  0  0  0  0
 14 28  1  0  0  0  0
 15 22  2  0  0  0  0
 15 69  1  0  0  0  0
 16 29  1  0  0  0  0
 17 29  1  0  0  0  0
 17 31  2  0  0  0  0
 17 32  1  0  0  0  0
 18 20  2  0  0  0  0
 18 37  1  0  0  0  0
 19 21  2  0  0  0  0
 19 38  1  0  0  0  0
 20 46  1  0  0  0  0
 21 39  1  0  0  0  0
 22 23  1  0  0  0  0
 22 58  1  0  0  0  0
 23 30  2  0  0  0  0
 23 49  1  0  0  0  0
 24 84  1  0  0  0  0
 25 85  1  0  0  0  0
 26 28  2  0  0  0  0
 26 84  1  0  0  0  0
 27 86  1  0  0  0  0
 28 87  1  0  0  0  0
 29 68  2  0  0  0  0
 30 63  1  0  0  0  0
 30 69  1  0  0  0  0
 31 70  1  0  0  0  0
 31 73  1  0  0  0  0
 32 74  1  0  0  0  0
 32 79  2  0  0  0  0
 33 47  1  0  0  0  0
 33 75  1  0  0  0  0
 33 80  2  0  0  0  0
 34 64  1  0  0  0  0
 34 71  1  0  0  0  0
 34 81  2  0  0  0  0
 35 65  1  0  0  0  0
 35 76  1  0  0  0  0
 35 82  2  0  0  0  0
 36 72  1  0  0  0  0
 36 77  1  0  0  0  0
 36 83  2  0  0  0  0
 37 40  1  0  0  0  0
 38 47  1  0  0  0  0
 39 71  1  0  0  0  0
 40 42  1  0  0  0  0
 41 43  1  0  0  0  0
 41 44  1  0  0  0  0
 42 46  1  0  0  0  0
 43 48  1  0  0  0  0
 44 72  1  0  0  0  0
 45 48  1  0  0  0  0
 45 72  1  0  0  0  0
 46 75  1  0  0  0  0
 47 71  1  0  0  0  0
 48 70  1  0  0  0  0
 50 63  1  0  0  0  0
 51 63  1  0  0  0  0
 52 65  1  0  0  0  0
 53 66  1  0  0  0  0
 54 67  1  0  0  0  0
 55 67  1  0  0  0  0
 56 67  1  0  0  0  0
 57 78  1  0  0  0  0
 58 61  1  0  0  0  0
 59 60  1  0  0  0  0
 59 66  1  0  0  0  0
 60 69  1  0  0  0  0
 61 77  1  0  0  0  0
 62 66  1  0  0  0  0
 62 85  1  0  0  0  0
 64 67  1  0  0  0  0
 64 76  1  0  0  0  0
 65 78  1  0  0  0  0
 68 70  1  0  0  0  0
M  CHG  1  78   1
M  ISO  4  36 100  62 101  77 100  85 101
M  END
> <Batch ID>
0105

> <Smiles>
CNC(C)C(=O)NC(C(=O)N1Cc2cc([101O:1][101CH2:1]C(C)CCn3cc(CC[100NH:0][100C:0](=O)N4CCCC(n5nc(-c6ccc(Oc7ccc(F)cc7F)cc6)c(C(N)=O)c5N)C4)c(C)c3C(C)C)ccc2CC1C(=O)NC1CCCc2ccccc21)C(C)(C)C

> <Shape>
0.253

> <Color>
0.061

> <Negative vol penalty>
0.000

$$$$

  -OEChem-04052319463D

 87 95  0     1  0  0  0  0  0999 V2000
  -28.2376  -12.9035   17.8760 C   0  0  0  0  0  0  0  0  0  0  0  0
  -28.4635  -13.6185   19.0467 C   0  0  0  0  0  0  0  0  0  0  0  0
  -28.9706  -21.8201   20.3326 C   0  0  0  0  0  0  0  0  0  0  0  0
  -27.7612  -22.0763   22.4083 C   0  0  0  0  0  0  0  0  0  0  0  0
  -27.1276  -13.1980   17.0871 C   0  0  0  0  0  0  0  0  0  0  0  0
  -27.5731  -14.6202   19.4351 C   0  0  0  0  0  0  0  0  0  0  0  0
  -24.5812  -20.4722   23.9100 C   0  0  0  0  0  0  0  0  0  0  0  0
  -18.7938  -25.5216   24.4987 C   0  0  0  0  0  0  0  0  0  0  0  0
  -18.9200  -26.6263   23.6565 C   0  0  0  0  0  0  0  0  0  0  0  0
  -29.8418  -20.9232   20.9509 C   0  0  0  0  0  0  0  0  0  0  0  0
  -28.6323  -21.1793   23.0266 C   0  0  0  0  0  0  0  0  0  0  0  0
  -23.7068  -21.5578   23.8827 C   0  0  0  0  0  0  0  0  0  0  0  0
  -29.8291  -17.6683   21.8667 C   0  0  0  0  0  0  0  0  0  0  0  0
  -30.1459  -16.4955   21.1813 C   0  0  0  0  0  0  0  0  0  0  0  0
  -21.9352  -20.1039   23.1298 C   0  0  0  0  0  0  0  0  0  0  0  0
  -32.4814  -17.1136   21.2034 C   0  0  0  0  0  0  0  0  0  0  0  0
  -27.9303  -22.3967   21.0613 C   0  0  0  0  0  0  0  0  0  0  0  0
  -25.8267  -23.0198   19.7597 C   0  0  0  0  0  0  0  0  0  0  0  0
  -26.2305  -14.2123   17.4603 C   0  0  0  0  0  0  0  0  0  0  0  0
  -24.1413  -19.1943   23.5363 C   0  0  0  0  0  0  0  0  0  0  0  0
  -26.4340  -14.9161   18.6647 C   0  0  0  0  0  0  0  0  0  0  0  0
  -22.8053  -19.0034   23.1557 C   0  0  0  0  0  0  0  0  0  0  0  0
  -19.8129  -24.5711   24.5598 C   0  0  0  0  0  0  0  0  0  0  0  0
  -20.0652  -26.7806   22.8753 C   0  0  0  0  0  0  0  0  0  0  0  0
  -21.0843  -25.8301   22.9364 C   0  0  0  0  0  0  0  0  0  0  0  0
  -20.9582  -24.7253   23.7786 C   0  0  0  0  0  0  0  0  0  0  0  0
  -29.6726  -20.6028   22.2978 C   0  0  0  0  0  0  0  0  0  0  0  0
  -22.3843  -21.3743   23.4898 C   0  0  0  0  0  0  0  0  0  0  0  0
  -30.8384  -18.5639   22.2203 C   0  0  0  0  0  0  0  0  0  0  0  0
  -31.4720  -16.2181   20.8497 C   0  0  0  0  0  0  0  0  0  0  0  0
  -32.1645  -18.2865   21.8887 C   0  0  0  0  0  0  0  0  0  0  0  0
  -27.0305  -23.3237   20.4234 C   0  0  0  0  0  0  0  0  0  0  0  0
  -25.3526  -24.2366   19.3342 C   0  0  0  0  0  0  0  0  0  0  0  0
  -25.1937  -21.7511   19.5470 C   0  0  0  0  0  0  0  0  0  0  0  0
  -24.9230  -17.1334   21.2460 C   0  0  0  0  0  0  0  0  0  0  0  0
  -22.8586  -15.1933   22.8259 C   0  0  0  0  0  0  0  0  0  0  0  0
  -20.1852  -14.9054   24.9275 C   0  0  0  0  0  0  0  0  0  0  0  0
  -24.2753  -29.6337   20.2594 C   0  0  0  0  0  0  0  0  0  0  0  0
  -25.0411  -14.4843   16.5733 C   0  0  0  0  0  0  0  0  0  0  0  0
  -25.0901  -18.0287   23.5969 C   0  0  0  0  0  0  0  0  0  0  0  0
  -22.2781  -17.6478   22.7646 C   0  0  0  0  0  0  0  0  0  0  0  0
  -24.4064  -15.8469   16.8311 C   0  0  0  0  0  0  0  0  0  0  0  0
  -27.5734  -28.7800   19.2250 C   0  0  0  0  0  0  0  0  0  0  0  0
  -24.1688  -16.0360   18.3219 C   0  0  0  0  0  0  0  0  0  0  0  0
  -27.6286  -27.2609   19.3958 C   0  0  0  0  0  0  0  0  0  0  0  0
  -26.7442  -29.4417   20.3234 C   0  0  0  0  0  0  0  0  0  0  0  0
  -25.4381  -27.3782   20.6554 C   0  0  0  0  0  0  0  0  0  0  0  0
  -25.4958  -16.0306   19.0914 C   0  0  1  0  0  0  0  0  0  0  0  0
  -24.6675  -16.8672   22.7025 C   0  0  1  0  0  0  0  0  0  0  0  0
  -26.2169  -26.6611   19.5393 C   0  0  2  0  0  0  0  0  0  0  0  0
  -19.6528  -23.3977   25.4703 C   0  0  0  0  0  0  0  0  0  0  0  0
  -22.3113  -25.9963   22.0966 C   0  0  0  0  0  0  0  0  0  0  0  0
  -18.7018  -13.1917   26.0047 C   0  0  0  0  0  0  0  0  0  0  0  0
  -19.6536  -30.5424   23.7471 C   0  0  0  0  0  0  0  0  0  0  0  0
  -21.9900  -30.0236   24.5511 C   0  0  0  0  0  0  0  0  0  0  0  0
  -21.4078  -14.7849   20.1729 C   0  0  0  0  0  0  0  0  0  0  0  0
  -19.4580  -13.8822   21.4580 C   0  0  0  0  0  0  0  0  0  0  0  0
  -21.6604  -12.7148   21.5533 C   0  0  0  0  0  0  0  0  0  0  0  0
  -20.9796  -15.7585   27.6479 C   0  0  0  0  0  0  0  0  0  0  0  0
  -20.1743  -27.9718   21.9804 C   0  0  0  0  0  0  0  0  0  0  0  0
  -22.0534  -23.7021   23.8473 C   0  0  0  0  0  0  0  0  0  1  0  0
  -21.7942  -29.6634   20.2080 C   0  0  0  0  0  0  0  0  0  0  0  0
  -21.2665  -30.1656   21.5390 C   0  0  0  0  0  0  0  0  0  0  0  0
  -21.3752  -14.9231   22.7509 C   0  0  1  0  0  0  0  0  0  0  0  0
  -19.9559  -14.0392   26.1529 C   0  0  2  0  0  0  0  0  0  0  0  0
  -20.7389  -29.4856   23.8756 C   0  0  0  0  0  0  0  0  0  0  0  0
  -20.9855  -14.1023   21.4892 C   0  0  0  0  0  0  0  0  0  0  0  0
  -27.3042  -24.6311   20.4221 N   0  0  0  0  0  0  0  0  0  0  0  0
  -26.2658  -25.1594   19.7523 N   0  0  0  0  0  0  0  0  0  0  0  0
  -23.2461  -16.5407   22.8340 N   0  0  0  0  0  0  0  0  0  0  0  0
  -25.4165  -28.8282   20.4064 N   0  0  0  0  0  0  0  0  0  0  0  0
  -24.2478  -24.5966   18.6469 N   0  0  0  0  0  0  0  0  0  0  0  0
  -25.8163  -20.6009   20.0508 N   0  0  0  0  0  0  0  0  0  0  0  0
  -25.2185  -16.0015   20.5105 N   0  0  0  0  0  0  0  0  0  0  0  0
  -21.0117  -14.2877   24.0129 N   0  0  0  0  0  0  0  0  0  0  0  0
  -23.0566  -28.9718   20.3451 N   0  0  0  0  0  0  0  0  0  0  0  0
  -19.8077  -14.8894   27.3679 N   0  3  0  0  0  0  0  0  0  0  0  0
  -21.1086  -29.0099   22.4938 N   0  3  1  0  0  0  0  0  0  0  0  0
  -24.1165  -21.6388   18.9141 O   0  0  0  0  0  0  0  0  0  0  0  0
  -24.8556  -18.2807   20.8206 O   0  0  0  0  0  0  0  0  0  0  0  0
  -23.6441  -14.2439   22.8828 O   0  0  0  0  0  0  0  0  0  0  0  0
  -19.6785  -16.0171   24.7934 O   0  0  0  0  0  0  0  0  0  0  0  0
  -24.3379  -30.8518   20.0608 O   0  0  0  0  0  0  0  0  0  0  0  0
  -30.5223  -19.7274   22.9014 O   0  0  0  0  0  0  0  0  0  0  0  0
  -21.5288  -22.4322   23.4616 O   0  0  0  0  0  0  0  0  0  1  0  0
  -31.7763  -15.0911   20.1929 F   0  0  0  0  0  0  0  0  0  0  0  0
  -33.1386  -19.1424   22.2268 F   0  0  0  0  0  0  0  0  0  0  0  0
  1  2  1  0  0  0  0
  1  5  2  0  0  0  0
  2  6  2  0  0  0  0
  3 10  2  0  0  0  0
  3 17  1  0  0  0  0
  4 11  1  0  0  0  0
  4 17  2  0  0  0  0
  5 19  1  0  0  0  0
  6 21  1  0  0  0  0
  7 12  2  0  0  0  0
  7 20  1  0  0  0  0
  8  9  1  0  0  0  0
  8 23  2  0  0  0  0
  9 24  2  0  0  0  0
 10 27  1  0  0  0  0
 11 27  2  0  0  0  0
 12 28  1  0  0  0  0
 13 14  2  0  0  0  0
 13 29  1  0  0  0  0
 14 30  1  0  0  0  0
 15 22  1  0  0  0  0
 15 28  2  0  0  0  0
 16 30  2  0  0  0  0
 16 31  1  0  0  0  0
 17 32  1  0  0  0  0
 18 32  1  0  0  0  0
 18 33  2  0  0  0  0
 18 34  1  0  0  0  0
 19 21  2  0  0  0  0
 19 39  1  0  0  0  0
 20 22  2  0  0  0  0
 20 40  1  0  0  0  0
 21 48  1  0  0  0  0
 22 41  1  0  0  0  0
 23 26  1  0  0  0  0
 23 51  1  0  0  0  0
 24 25  1  0  0  0  0
 24 60  1  0  0  0  0
 25 26  2  0  0  0  0
 25 52  1  0  0  0  0
 26 61  1  0  0  0  0
 27 84  1  0  0  0  0
 28 85  1  0  0  0  0
 29 31  2  0  0  0  0
 29 84  1  0  0  0  0
 30 86  1  0  0  0  0
 31 87  1  0  0  0  0
 32 68  2  0  0  0  0
 33 69  1  0  0  0  0
 33 72  1  0  0  0  0
 34 73  1  0  0  0  0
 34 79  2  0  0  0  0
 35 49  1  0  0  0  0
 35 74  1  0  0  0  0
 35 80  2  0  0  0  0
 36 64  1  0  0  0  0
 36 70  1  0  0  0  0
 36 81  2  0  0  0  0
 37 65  1  0  0  0  0
 37 75  1  0  0  0  0
 37 82  2  0  0  0  0
 38 71  1  0  0  0  0
 38 76  1  0  0  0  0
 38 83  2  0  0  0  0
 39 42  1  0  0  0  0
 40 49  1  0  0  0  0
 41 70  1  0  0  0  0
 42 44  1  0  0  0  0
 43 45  1  0  0  0  0
 43 46  1  0  0  0  0
 44 48  1  0  0  0  0
 45 50  1  0  0  0  0
 46 71  1  0  0  0  0
 47 50  1  0  0  0  0
 47 71  1  0  0  0  0
 48 74  1  0  0  0  0
 49 70  1  0  0  0  0
 50 69  1  0  0  0  0
 53 65  1  0  0  0  0
 54 66  1  0  0  0  0
 55 66  1  0  0  0  0
 56 67  1  0  0  0  0
 57 67  1  0  0  0  0
 58 67  1  0  0  0  0
 59 77  1  0  0  0  0
 60 78  1  0  0  0  0
 61 85  1  0  0  0  0
 62 63  1  0  0  0  0
 62 76  1  0  0  0  0
 63 78  1  0  0  0  0
 64 67  1  0  0  0  0
 64 75  1  0  0  0  0
 65 77  1  0  0  0  0
 66 78  1  0  0  0  0
 68 69  1  0  0  0  0
M  CHG  2  77   1  78   1
M  ISO  4  38 100  61 101  76 100  85 101
M  END
> <Batch ID>
0105

> <Smiles>
CNC(C)C(=O)NC(C(=O)N1Cc2cc([101O:1][101CH2:1]c3c(C)ccc(CN(CC[100NH:0][100C:0](=O)N4CCCC(n5nc(-c6ccc(Oc7ccc(F)cc7F)cc6)c(C(N)=O)c5N)C4)C(C)C)c3C)ccc2CC1C(=O)NC1CCCc2ccccc21)C(C)(C)C

> <Shape>
0.184

> <Color>
0.037

> <Negative vol penalty>
0.000

$$$$

  -OEChem-04052319463D

 79 87  0     1  0  0  0  0  0999 V2000
  -29.6971   -3.6489   24.9201 C   0  0  0  0  0  0  0  0  0  0  0  0
  -30.0966   -4.9753   25.0482 C   0  0  0  0  0  0  0  0  0  0  0  0
  -22.8517  -10.1111   20.1202 C   0  0  0  0  0  0  0  0  0  0  0  0
  -24.3443   -9.5508   21.9355 C   0  0  0  0  0  0  0  0  0  0  0  0
  -28.3894   -3.2823   25.2355 C   0  0  0  0  0  0  0  0  0  0  0  0
  -29.1882   -5.9362   25.4907 C   0  0  0  0  0  0  0  0  0  0  0  0
  -31.1793   -9.0389   28.9626 C   0  0  0  0  0  0  0  0  0  0  0  0
  -22.1646   -8.9131   20.3153 C   0  0  0  0  0  0  0  0  0  0  0  0
  -23.6571   -8.3527   22.1306 C   0  0  0  0  0  0  0  0  0  0  0  0
  -32.0179  -10.0536   28.5035 C   0  0  0  0  0  0  0  0  0  0  0  0
  -20.7814   -7.3416   23.5897 C   0  0  0  0  0  0  0  0  0  0  0  0
  -20.4663   -6.9830   24.9003 C   0  0  0  0  0  0  0  0  0  0  0  0
  -30.1984  -11.6279   28.6776 C   0  0  0  0  0  0  0  0  0  0  0  0
  -21.7570   -4.9553   24.6558 C   0  0  0  0  0  0  0  0  0  0  0  0
  -23.9416  -10.4300   20.9303 C   0  0  0  0  0  0  0  0  0  0  0  0
  -24.1294  -12.9715   20.8148 C   0  0  0  0  0  0  0  0  0  0  0  0
  -27.4672   -4.2375   25.6913 C   0  0  0  0  0  0  0  0  0  0  0  0
  -29.8387   -9.3092   29.2728 C   0  0  0  0  0  0  0  0  0  0  0  0
  -27.8665   -5.5823   25.8112 C   0  0  0  0  0  0  0  0  0  0  0  0
  -29.3455  -10.6154   29.1428 C   0  0  0  0  0  0  0  0  0  0  0  0
  -22.5673   -8.0339   21.3205 C   0  0  0  0  0  0  0  0  0  0  0  0
  -31.5268  -11.3477   28.3582 C   0  0  0  0  0  0  0  0  0  0  0  0
  -21.5843   -6.5070   22.8121 C   0  0  0  0  0  0  0  0  0  0  0  0
  -20.9541   -5.7899   25.4334 C   0  0  0  0  0  0  0  0  0  0  0  0
  -22.0721   -5.3139   23.3452 C   0  0  0  0  0  0  0  0  0  0  0  0
  -24.6522  -11.6672   20.7289 C   0  0  0  0  0  0  0  0  0  0  0  0
  -25.1988  -13.7887   20.5412 C   0  0  0  0  0  0  0  0  0  0  0  0
  -22.7963  -13.4054   21.1153 C   0  0  0  0  0  0  0  0  0  0  0  0
  -27.0336   -8.3086   28.1621 C   0  0  0  0  0  0  0  0  0  0  0  0
  -25.8712  -10.0508   30.6392 C   0  0  0  0  0  0  0  0  0  0  0  0
  -26.5629  -13.2466   32.1644 C   0  0  0  0  0  0  0  0  0  0  0  0
  -31.0381  -13.2332   21.0615 C   0  0  0  0  0  0  0  0  0  0  0  0
  -26.0514   -3.8020   25.9749 C   0  0  0  0  0  0  0  0  0  0  0  0
  -28.9541   -8.2092   29.7922 C   0  0  0  0  0  0  0  0  0  0  0  0
  -27.9195  -10.9620   29.4816 C   0  0  0  0  0  0  0  0  0  0  0  0
  -25.2554   -4.8144   26.7946 C   0  0  0  0  0  0  0  0  0  0  0  0
  -29.3172  -13.9002   18.1256 C   0  0  0  0  0  0  0  0  0  0  0  0
  -25.4465   -6.2212   26.2369 C   0  0  0  0  0  0  0  0  0  0  0  0
  -32.1519  -15.1075   25.3445 C   0  0  0  0  0  0  0  0  0  0  0  0
  -33.3239  -12.8695   25.2699 C   0  0  0  0  0  0  0  0  0  0  0  0
  -27.8716  -13.5303   18.4549 C   0  0  0  0  0  0  0  0  0  0  0  0
  -31.1548  -14.6228   24.2916 C   0  0  0  0  0  0  0  0  0  0  0  0
  -32.3293  -12.3812   24.2163 C   0  0  0  0  0  0  0  0  0  0  0  0
  -30.2878  -12.8913   18.7277 C   0  0  0  0  0  0  0  0  0  0  0  0
  -28.7072  -12.3631   20.5563 C   0  0  0  0  0  0  0  0  0  0  0  0
  -26.9171   -6.6492   26.3117 C   0  0  1  0  0  0  0  0  0  0  0  0
  -27.4686   -8.4906   29.5887 C   0  0  1  0  0  0  0  0  0  0  0  0
  -32.7499  -13.9657   26.1790 C   0  0  0  0  0  0  0  0  0  0  0  0
  -27.6796  -13.3536   19.9713 C   0  0  2  0  0  0  0  0  0  0  0  0
  -31.7669  -13.5435   23.3961 C   0  0  0  0  0  0  0  0  0  0  0  0
  -26.1985  -14.0454   34.5152 C   0  0  0  0  0  0  0  0  0  0  0  0
  -23.2207  -11.1096   29.5604 C   0  0  0  0  0  0  0  0  0  0  0  0
  -23.5156  -13.1275   31.0128 C   0  0  0  0  0  0  0  0  0  0  0  0
  -23.3123  -10.8670   32.0478 C   0  0  0  0  0  0  0  0  0  0  0  0
  -29.7557  -12.1790   22.9718 C   0  0  0  0  0  0  0  0  0  0  0  0
  -29.4031  -14.0224   32.4644 C   0  0  0  0  0  0  0  0  0  0  0  0
  -31.7333  -13.4001   27.1745 C   0  0  0  0  0  0  0  0  0  1  0  0
  -25.4387  -11.4849   30.8276 C   0  0  1  0  0  0  0  0  0  0  0  0
  -27.2033  -13.4872   33.5195 C   0  0  2  0  0  0  0  0  0  0  0  0
  -23.8917  -11.6401   30.8431 C   0  0  0  0  0  0  0  0  0  0  0  0
  -25.9525  -11.6519   20.4242 N   0  0  0  0  0  0  0  0  0  0  0  0
  -26.2559  -12.9567   20.3164 N   0  0  0  0  0  0  0  0  0  0  0  0
  -27.0922   -9.8506   29.9797 N   0  0  0  0  0  0  0  0  0  0  0  0
  -30.0737  -12.7447   20.1677 N   0  0  0  0  0  0  0  0  0  0  0  0
  -25.3287  -15.1307   20.4733 N   0  0  0  0  0  0  0  0  0  0  0  0
  -21.8192  -12.4339   21.3717 N   0  0  0  0  0  0  0  0  0  0  0  0
  -27.2615   -7.0409   27.6617 N   0  0  0  0  0  0  0  0  0  0  0  0
  -26.0985  -11.9541   32.0412 N   0  0  0  0  0  0  0  0  0  0  0  0
  -30.7894  -13.0601   22.4314 N   0  0  0  0  0  0  0  0  0  0  0  0
  -28.3296  -14.4553   33.3956 N   0  3  0  0  0  0  0  0  0  0  0  0
  -22.4772  -14.6183   21.1390 O   0  0  0  0  0  0  0  0  0  0  0  0
  -26.5271   -9.2484   27.5603 O   0  0  0  0  0  0  0  0  0  0  0  0
  -25.1557   -9.1421   31.0678 O   0  0  0  0  0  0  0  0  0  0  0  0
  -26.4793  -14.1190   31.3028 O   0  0  0  0  0  0  0  0  0  0  0  0
  -32.0692  -13.7872   20.6588 O   0  0  0  0  0  0  0  0  0  0  0  0
  -21.8969   -6.8648   21.5113 O   0  0  0  0  0  0  0  0  0  0  0  0
  -32.3431  -12.3399   27.9097 O   0  0  0  0  0  0  0  0  0  1  0  0
  -20.6527   -5.4465   26.6925 F   0  0  0  0  0  0  0  0  0  0  0  0
  -22.8448   -4.5086   22.6034 F   0  0  0  0  0  0  0  0  0  0  0  0
  1  2  1  0  0  0  0
  1  5  2  0  0  0  0
  2  6  2  0  0  0  0
  3  8  2  0  0  0  0
  3 15  1  0  0  0  0
  4  9  1  0  0  0  0
  4 15  2  0  0  0  0
  5 17  1  0  0  0  0
  6 19  1  0  0  0  0
  7 10  2  0  0  0  0
  7 18  1  0  0  0  0
  8 21  1  0  0  0  0
  9 21  2  0  0  0  0
 10 22  1  0  0  0  0
 11 12  2  0  0  0  0
 11 23  1  0  0  0  0
 12 24  1  0  0  0  0
 13 20  1  0  0  0  0
 13 22  2  0  0  0  0
 14 24  2  0  0  0  0
 14 25  1  0  0  0  0
 15 26  1  0  0  0  0
 16 26  1  0  0  0  0
 16 27  2  0  0  0  0
 16 28  1  0  0  0  0
 17 19  2  0  0  0  0
 17 33  1  0  0  0  0
 18 20  2  0  0  0  0
 18 34  1  0  0  0  0
 19 46  1  0  0  0  0
 20 35  1  0  0  0  0
 21 76  1  0  0  0  0
 22 77  1  0  0  0  0
 23 25  2  0  0  0  0
 23 76  1  0  0  0  0
 24 78  1  0  0  0  0
 25 79  1  0  0  0  0
 26 61  2  0  0  0  0
 27 62  1  0  0  0  0
 27 65  1  0  0  0  0
 28 66  1  0  0  0  0
 28 71  2  0  0  0  0
 29 47  1  0  0  0  0
 29 67  1  0  0  0  0
 29 72  2  0  0  0  0
 30 58  1  0  0  0  0
 30 63  1  0  0  0  0
 30 73  2  0  0  0  0
 31 59  1  0  0  0  0
 31 68  1  0  0  0  0
 31 74  2  0  0  0  0
 32 64  1  0  0  0  0
 32 69  1  0  0  0  0
 32 75  2  0  0  0  0
 33 36  1  0  0  0  0
 34 47  1  0  0  0  0
 35 63  1  0  0  0  0
 36 38  1  0  0  0  0
 37 41  1  0  0  0  0
 37 44  1  0  0  0  0
 38 46  1  0  0  0  0
 39 42  1  0  0  0  0
 39 48  1  0  0  0  0
 40 43  1  0  0  0  0
 40 48  1  0  0  0  0
 41 49  1  0  0  0  0
 42 50  1  0  0  0  0
 43 50  1  0  0  0  0
 44 64  1  0  0  0  0
 45 49  1  0  0  0  0
 45 64  1  0  0  0  0
 46 67  1  0  0  0  0
 47 63  1  0  0  0  0
 48 57  1  0  0  0  0
 49 62  1  0  0  0  0
 50 69  1  0  0  0  0
 51 59  1  0  0  0  0
 52 60  1  0  0  0  0
 53 60  1  0  0  0  0
 54 60  1  0  0  0  0
 55 69  1  0  0  0  0
 56 70  1  0  0  0  0
 57 77  1  0  0  0  0
 58 60  1  0  0  0  0
 58 68  1  0  0  0  0
 59 70  1  0  0  0  0
 61 62  1  0  0  0  0
M  CHG  1  70   1
M  ISO  4  32 100  57 101  69 100  77 101
M  END
> <Batch ID>
0105

> <Smiles>
CNC(C)C(=O)NC(C(=O)N1Cc2cc([101O:1][101CH2:1]C3CCC([100N:0](C)[100C:0](=O)N4CCCC(n5nc(-c6ccc(Oc7ccc(F)cc7F)cc6)c(C(N)=O)c5N)C4)CC3)ccc2CC1C(=O)NC1CCCc2ccccc21)C(C)(C)C

> <Shape>
0.160

> <Color>
0.193

> <Negative vol penalty>
0.000

$$$$

  -OEChem-04052319463D

 85 93  0     1  0  0  0  0  0999 V2000
  -37.3815  -16.1683   23.5329 C   0  0  0  0  0  0  0  0  0  0  0  0
  -36.3969  -16.9352   22.9182 C   0  0  0  0  0  0  0  0  0  0  0  0
  -25.5750  -31.2065   21.6258 C   0  0  0  0  0  0  0  0  0  0  0  0
  -24.0387  -29.5065   22.3918 C   0  0  0  0  0  0  0  0  0  0  0  0
  -37.4059  -14.7869   23.3455 C   0  0  0  0  0  0  0  0  0  0  0  0
  -35.4368  -16.3213   22.1148 C   0  0  0  0  0  0  0  0  0  0  0  0
  -30.7582  -18.0303   23.0283 C   0  0  0  0  0  0  0  0  0  0  0  0
  -24.9234  -32.1521   22.4174 C   0  0  0  0  0  0  0  0  0  0  0  0
  -23.3870  -30.4521   23.1835 C   0  0  0  0  0  0  0  0  0  0  0  0
  -30.4139  -19.2663   22.4828 C   0  0  0  0  0  0  0  0  0  0  0  0
  -23.4400  -35.0912   23.9618 C   0  0  0  0  0  0  0  0  0  0  0  0
  -23.1561  -36.3320   23.3914 C   0  0  0  0  0  0  0  0  0  0  0  0
  -29.2552  -18.1449   20.6887 C   0  0  0  0  0  0  0  0  0  0  0  0
  -25.9428  -21.4982   21.8178 C   0  0  0  0  0  0  0  0  0  0  0  0
  -21.8149  -35.2474   21.6997 C   0  0  0  0  0  0  0  0  0  0  0  0
  -25.1326  -29.8837   21.6129 C   0  0  0  0  0  0  0  0  0  0  0  0
  -27.1558  -28.5177   20.8722 C   0  0  0  0  0  0  0  0  0  0  0  0
  -36.4398  -14.1546   22.5471 C   0  0  0  0  0  0  0  0  0  0  0  0
  -30.3621  -16.8403   22.4012 C   0  0  0  0  0  0  0  0  0  0  0  0
  -35.4491  -14.9303   21.9154 C   0  0  0  0  0  0  0  0  0  0  0  0
  -29.5935  -16.8951   21.2297 C   0  0  0  0  0  0  0  0  0  0  0  0
  -26.8094  -22.0345   20.8336 C   0  0  0  0  0  0  0  0  0  0  0  0
  -23.8294  -31.7750   23.1963 C   0  0  0  0  0  0  0  0  0  0  0  0
  -29.6648  -19.3237   21.3112 C   0  0  0  0  0  0  0  0  0  0  0  0
  -22.9114  -33.9284   23.4012 C   0  0  0  0  0  0  0  0  0  0  0  0
  -22.3435  -36.4101   22.2604 C   0  0  0  0  0  0  0  0  0  0  0  0
  -22.0988  -34.0066   22.2701 C   0  0  0  0  0  0  0  0  0  0  0  0
  -25.8050  -28.9065   20.7949 C   0  0  0  0  0  0  0  0  0  0  0  0
  -24.8090  -21.0578   21.1715 C   0  0  0  0  0  0  0  0  0  0  0  0
  -26.1786  -21.9056   19.6159 C   0  0  0  0  0  0  0  0  0  0  0  0
  -27.2970  -27.5695   19.8886 C   0  0  0  0  0  0  0  0  0  0  0  0
  -28.1903  -28.9728   21.7544 C   0  0  0  0  0  0  0  0  0  0  0  0
  -31.8889  -14.3769   21.0957 C   0  0  0  0  0  0  0  0  0  0  0  0
  -28.8947  -13.1544   20.8460 C   0  0  0  0  0  0  0  0  0  0  0  0
  -25.5359  -13.7307   20.6638 C   0  0  0  0  0  0  0  0  0  0  0  0
  -23.4314  -23.8584   17.2173 C   0  0  0  0  0  0  0  0  0  0  0  0
  -36.5351  -12.6643   22.3358 C   0  0  0  0  0  0  0  0  0  0  0  0
  -30.7187  -15.5151   23.0169 C   0  0  0  0  0  0  0  0  0  0  0  0
  -29.1262  -15.6466   20.5287 C   0  0  0  0  0  0  0  0  0  0  0  0
  -35.2583  -12.0463   21.7717 C   0  0  0  0  0  0  0  0  0  0  0  0
  -25.5071  -26.2844   15.6418 C   0  0  0  0  0  0  0  0  0  0  0  0
  -34.7334  -12.8769   20.6050 C   0  0  0  0  0  0  0  0  0  0  0  0
  -25.9407  -27.1965   16.7908 C   0  0  0  0  0  0  0  0  0  0  0  0
  -24.0696  -25.7999   15.8175 C   0  0  0  0  0  0  0  0  0  0  0  0
  -24.2210  -26.0675   18.2627 C   0  0  0  0  0  0  0  0  0  0  0  0
  -34.3755  -14.2980   21.0565 C   0  0  1  0  0  0  0  0  0  0  0  0
  -30.6996  -14.3658   22.0140 C   0  0  1  0  0  0  0  0  0  0  0  0
  -25.6823  -26.5365   18.1586 C   0  0  2  0  0  0  0  0  0  0  0  0
  -26.6290  -22.2981   18.2634 C   0  0  0  0  0  0  0  0  0  0  0  0
  -28.0832  -23.8801   21.9751 C   0  0  0  0  0  0  0  0  0  0  0  0
  -22.8276  -21.3274   22.7062 C   0  0  0  0  0  0  0  0  0  0  0  0
  -23.8839  -19.0593   22.3981 C   0  0  0  0  0  0  0  0  0  0  0  0
  -23.3421  -12.5354   20.4264 C   0  0  0  0  0  0  0  0  0  0  0  0
  -29.4524  -12.7256   17.8770 C   0  0  0  0  0  0  0  0  0  0  0  0
  -26.9895  -12.4433   17.5265 C   0  0  0  0  0  0  0  0  0  0  0  0
  -28.2300  -10.8493   18.9905 C   0  0  0  0  0  0  0  0  0  0  0  0
  -24.5709  -14.7407   23.2730 C   0  0  0  0  0  0  0  0  0  0  0  0
  -23.9908  -20.9974   18.8076 C   0  0  0  0  0  0  0  0  0  0  0  0
  -22.8400  -21.9986   18.7506 C   0  0  0  0  0  0  0  0  0  0  0  0
  -29.1588  -21.6175   21.6830 C   0  0  0  0  0  0  0  0  0  1  0  0
  -28.1822  -22.6388   21.0840 C   0  0  1  0  0  0  0  0  0  0  0  0
  -23.5953  -20.4180   21.7197 C   0  0  0  0  0  0  0  0  0  0  0  0
  -27.8029  -13.2045   19.8046 C   0  0  1  0  0  0  0  0  0  0  0  0
  -24.3649  -13.1031   21.3982 C   0  0  2  0  0  0  0  0  0  0  0  0
  -28.1290  -12.3293   18.5615 C   0  0  0  0  0  0  0  0  0  0  0  0
  -25.1359  -28.2584   19.8376 N   0  0  0  0  0  0  0  0  0  0  0  0
  -24.9632  -21.3108   19.8335 N   0  0  0  0  0  0  0  0  0  0  0  0
  -26.0701  -27.4529   19.3044 N   0  0  0  0  0  0  0  0  0  0  0  0
  -29.5056  -14.3750   21.1664 N   0  0  0  0  0  0  0  0  0  0  0  0
  -23.8916  -25.1829   17.1341 N   0  0  0  0  0  0  0  0  0  0  0  0
  -28.3498  -26.8326   19.4750 N   0  0  0  0  0  0  0  0  0  0  0  0
  -28.3724  -28.3033   22.9722 N   0  0  0  0  0  0  0  0  0  0  0  0
  -33.1045  -14.3033   21.7486 N   0  0  0  0  0  0  0  0  0  0  0  0
  -26.5688  -12.8341   20.4889 N   0  0  0  0  0  0  0  0  0  0  0  0
  -23.2967  -23.3480   18.5027 N   0  0  0  0  0  0  0  0  0  0  0  0
  -23.6871  -14.1171   22.2547 N   0  3  0  0  0  0  0  0  0  0  0  0
  -28.9205  -29.9547   21.4785 O   0  0  0  0  0  0  0  0  0  0  0  0
  -31.7163  -14.4456   19.8844 O   0  0  0  0  0  0  0  0  0  0  0  0
  -29.1895  -12.0732   21.3616 O   0  0  0  0  0  0  0  0  0  0  0  0
  -25.5330  -14.8983   20.2801 O   0  0  0  0  0  0  0  0  0  0  0  0
  -23.1657  -23.1791   16.2199 O   0  0  0  0  0  0  0  0  0  0  0  0
  -23.1935  -32.6974   23.9691 O   0  0  0  0  0  0  0  0  0  0  0  0
  -29.3280  -20.5288   20.7762 O   0  0  0  0  0  0  0  0  0  1  0  0
  -22.0698  -37.6019   21.7136 F   0  0  0  0  0  0  0  0  0  0  0  0
  -21.5871  -32.8931   21.7277 F   0  0  0  0  0  0  0  0  0  0  0  0
  1  2  1  0  0  0  0
  1  5  2  0  0  0  0
  2  6  2  0  0  0  0
  3  8  2  0  0  0  0
  3 16  1  0  0  0  0
  4  9  1  0  0  0  0
  4 16  2  0  0  0  0
  5 18  1  0  0  0  0
  6 20  1  0  0  0  0
  7 10  2  0  0  0  0
  7 19  1  0  0  0  0
  8 23  1  0  0  0  0
  9 23  2  0  0  0  0
 10 24  1  0  0  0  0
 11 12  2  0  0  0  0
 11 25  1  0  0  0  0
 12 26  1  0  0  0  0
 13 21  1  0  0  0  0
 13 24  2  0  0  0  0
 14 22  1  0  0  0  0
 14 29  2  0  0  0  0
 15 26  2  0  0  0  0
 15 27  1  0  0  0  0
 16 28  1  0  0  0  0
 17 28  1  0  0  0  0
 17 31  2  0  0  0  0
 17 32  1  0  0  0  0
 18 20  2  0  0  0  0
 18 37  1  0  0  0  0
 19 21  2  0  0  0  0
 19 38  1  0  0  0  0
 20 46  1  0  0  0  0
 21 39  1  0  0  0  0
 22 30  2  0  0  0  0
 22 61  1  0  0  0  0
 23 82  1  0  0  0  0
 24 83  1  0  0  0  0
 25 27  2  0  0  0  0
 25 82  1  0  0  0  0
 26 84  1  0  0  0  0
 27 85  1  0  0  0  0
 28 66  2  0  0  0  0
 29 62  1  0  0  0  0
 29 67  1  0  0  0  0
 30 49  1  0  0  0  0
 30 67  1  0  0  0  0
 31 68  1  0  0  0  0
 31 71  1  0  0  0  0
 32 72  1  0  0  0  0
 32 77  2  0  0  0  0
 33 47  1  0  0  0  0
 33 73  1  0  0  0  0
 33 78  2  0  0  0  0
 34 63  1  0  0  0  0
 34 69  1  0  0  0  0
 34 79  2  0  0  0  0
 35 64  1  0  0  0  0
 35 74  1  0  0  0  0
 35 80  2  0  0  0  0
 36 70  1  0  0  0  0
 36 75  1  0  0  0  0
 36 81  2  0  0  0  0
 37 40  1  0  0  0  0
 38 47  1  0  0  0  0
 39 69  1  0  0  0  0
 40 42  1  0  0  0  0
 41 43  1  0  0  0  0
 41 44  1  0  0  0  0
 42 46  1  0  0  0  0
 43 48  1  0  0  0  0
 44 70  1  0  0  0  0
 45 48  1  0  0  0  0
 45 70  1  0  0  0  0
 46 73  1  0  0  0  0
 47 69  1  0  0  0  0
 48 68  1  0  0  0  0
 50 61  1  0  0  0  0
 51 62  1  0  0  0  0
 52 62  1  0  0  0  0
 53 64  1  0  0  0  0
 54 65  1  0  0  0  0
 55 65  1  0  0  0  0
 56 65  1  0  0  0  0
 57 76  1  0  0  0  0
 58 59  1  0  0  0  0
 58 67  1  0  0  0  0
 59 75  1  0  0  0  0
 60 61  1  0  0  0  0
 60 83  1  0  0  0  0
 63 65  1  0  0  0  0
 63 74  1  0  0  0  0
 64 76  1  0  0  0  0
 66 68  1  0  0  0  0
M  CHG  1  76   1
M  ISO  4  36 100  60 101  75 100  83 101
M  END
> <Batch ID>
0105

> <Smiles>
CNC(C)C(=O)NC(C(=O)N1Cc2cc([101O:1][101CH2:1]C(C)c3cc(C(C)C)n(CC[100NH:0][100C:0](=O)N4CCCC(n5nc(-c6ccc(Oc7ccc(F)cc7F)cc6)c(C(N)=O)c5N)C4)c3C)ccc2CC1C(=O)NC1CCCc2ccccc21)C(C)(C)C

> <Shape>
0.230

> <Color>
0.092

> <Negative vol penalty>
0.000

$$$$

  -OEChem-04052319463D

 85 92  0     1  0  0  0  0  0999 V2000
  -29.7457  -24.9578   17.9041 C   0  0  0  0  0  0  0  0  0  0  0  0
  -28.3682  -25.0230   18.0875 C   0  0  0  0  0  0  0  0  0  0  0  0
  -24.6582  -13.0138   19.6697 C   0  0  0  0  0  0  0  0  0  0  0  0
  -25.2296  -13.1983   22.0099 C   0  0  0  0  0  0  0  0  0  0  0  0
  -30.6012  -25.5184   18.8515 C   0  0  0  0  0  0  0  0  0  0  0  0
  -27.8454  -25.6479   19.2192 C   0  0  0  0  0  0  0  0  0  0  0  0
  -22.6601  -28.8874   19.5713 C   0  0  0  0  0  0  0  0  0  0  0  0
  -25.4808  -11.8930   19.5572 C   0  0  0  0  0  0  0  0  0  0  0  0
  -26.0522  -12.0775   21.8974 C   0  0  0  0  0  0  0  0  0  0  0  0
  -21.3768  -28.5592   20.0063 C   0  0  0  0  0  0  0  0  0  0  0  0
  -28.7858  -11.2490   19.2621 C   0  0  0  0  0  0  0  0  0  0  0  0
  -29.6362  -11.1783   18.1588 C   0  0  0  0  0  0  0  0  0  0  0  0
  -21.8845  -29.4782   22.1782 C   0  0  0  0  0  0  0  0  0  0  0  0
  -28.5642   -9.1278   17.4638 C   0  0  0  0  0  0  0  0  0  0  0  0
  -24.5326  -13.6665   20.8961 C   0  0  0  0  0  0  0  0  0  0  0  0
  -22.3157  -14.8460   21.3453 C   0  0  0  0  0  0  0  0  0  0  0  0
  -30.0885  -26.1590   19.9905 C   0  0  0  0  0  0  0  0  0  0  0  0
  -23.5704  -29.5046   20.4413 C   0  0  0  0  0  0  0  0  0  0  0  0
  -28.6950  -26.2165   20.1834 C   0  0  0  0  0  0  0  0  0  0  0  0
  -23.1779  -29.8155   21.7510 C   0  0  0  0  0  0  0  0  0  0  0  0
  -26.1778  -11.4248   20.6711 C   0  0  0  0  0  0  0  0  0  0  0  0
  -20.9898  -28.8519   21.3108 C   0  0  0  0  0  0  0  0  0  0  0  0
  -27.8245  -10.2590   19.4663 C   0  0  0  0  0  0  0  0  0  0  0  0
  -29.5255  -10.1177   17.2597 C   0  0  0  0  0  0  0  0  0  0  0  0
  -27.7138   -9.1984   18.5671 C   0  0  0  0  0  0  0  0  0  0  0  0
  -23.6835  -14.8247   21.0128 C   0  0  0  0  0  0  0  0  0  0  0  0
  -21.9777  -16.1771   21.3237 C   0  0  0  0  0  0  0  0  0  0  0  0
  -21.4299  -13.7596   21.6467 C   0  0  0  0  0  0  0  0  0  0  0  0
  -26.4059  -28.7215   21.6455 C   0  0  0  0  0  0  0  0  0  0  0  0
  -26.3026  -31.7407   22.8273 C   0  0  0  0  0  0  0  0  0  0  0  0
  -21.5398  -23.6805   24.0255 C   0  0  0  0  0  0  0  0  0  0  0  0
  -24.4095  -34.4144   23.7834 C   0  0  0  0  0  0  0  0  0  0  0  0
  -25.1493  -21.2015   22.0633 C   0  0  0  0  0  0  0  0  0  0  0  0
  -31.0539  -26.7088   21.0105 C   0  0  0  0  0  0  0  0  0  0  0  0
  -24.9421  -29.8763   19.9486 C   0  0  0  0  0  0  0  0  0  0  0  0
  -24.1108  -30.4959   22.7181 C   0  0  0  0  0  0  0  0  0  0  0  0
  -30.4109  -27.6822   21.9951 C   0  0  0  0  0  0  0  0  0  0  0  0
  -23.1771  -20.3114   19.2357 C   0  0  0  0  0  0  0  0  0  0  0  0
  -29.0961  -27.1169   22.5230 C   0  0  0  0  0  0  0  0  0  0  0  0
  -22.9598  -18.8062   19.4006 C   0  0  0  0  0  0  0  0  0  0  0  0
  -24.5686  -20.7350   19.7007 C   0  0  0  0  0  0  0  0  0  0  0  0
  -24.7002  -18.8118   21.2362 C   0  0  0  0  0  0  0  0  0  0  0  0
  -28.0892  -26.9077   21.3856 C   0  0  1  0  0  0  0  0  0  0  0  0
  -25.9582  -30.0375   21.0751 C   0  0  1  0  0  0  0  0  0  0  0  0
  -23.2910  -18.3454   20.8328 C   0  0  2  0  0  0  0  0  0  0  0  0
  -24.6060  -36.7245   24.7437 C   0  0  0  0  0  0  0  0  0  0  0  0
  -26.8423  -30.5466   25.5828 C   0  0  0  0  0  0  0  0  0  0  0  0
  -26.0926  -32.7121   26.5911 C   0  0  0  0  0  0  0  0  0  0  0  0
  -28.0905  -32.6590   25.0985 C   0  0  0  0  0  0  0  0  0  0  0  0
  -25.8757  -20.6305   25.7079 C   0  0  0  0  0  0  0  0  0  0  0  0
  -27.0412  -22.2089   24.1605 C   0  0  0  0  0  0  0  0  0  0  0  0
  -22.0633  -23.5810   26.4705 C   0  0  0  0  0  0  0  0  0  0  0  0
  -23.1641  -35.6391   21.3943 C   0  0  0  0  0  0  0  0  0  0  0  0
  -20.5751  -24.7930   24.3724 C   0  0  0  0  0  0  0  0  0  0  0  0
  -24.6162  -22.5898   24.6730 C   0  0  0  0  0  0  0  0  0  0  0  0
  -18.1635  -26.7703   22.1507 C   0  0  0  0  0  0  0  0  0  0  0  0
  -23.2103  -22.0431   24.9229 C   0  0  0  0  0  0  0  0  0  0  0  0
  -18.8393  -26.3279   23.4399 C   0  0  0  0  0  0  0  0  0  0  0  0
  -19.1187  -27.3938   21.1405 C   0  0  0  0  0  0  0  0  0  1  0  0
  -25.7868  -32.3749   24.0964 C   0  0  1  0  0  0  0  0  0  0  0  0
  -24.5275  -35.8953   23.4713 C   0  0  2  0  0  0  0  0  0  0  0  0
  -26.6859  -32.0586   25.3248 C   0  0  0  0  0  0  0  0  0  0  0  0
  -25.7058  -21.5106   24.4620 C   0  0  0  0  0  0  0  0  0  0  0  0
  -24.1804  -16.0454   20.7957 N   0  0  0  0  0  0  0  0  0  0  0  0
  -23.1191  -16.8461   20.9922 N   0  0  0  0  0  0  0  0  0  0  0  0
  -25.4433  -30.8336   22.1910 N   0  0  0  0  0  0  0  0  0  0  0  0
  -24.8192  -20.2685   21.0665 N   0  0  0  0  0  0  0  0  0  0  0  0
  -20.8186  -16.8288   21.5561 N   0  0  0  0  0  0  0  0  0  0  0  0
  -21.9409  -12.4548   21.6241 N   0  0  0  0  0  0  0  0  0  0  0  0
  -27.4948  -28.1692   20.9984 N   0  0  0  0  0  0  0  0  0  0  0  0
  -25.6428  -33.7985   23.8120 N   0  0  0  0  0  0  0  0  0  0  0  0
  -25.3646  -20.6762   23.3315 N   0  0  0  0  0  0  0  0  0  0  0  0
  -22.2432  -23.1238   25.0983 N   0  0  0  0  0  0  0  0  0  0  0  0
  -23.3488  -36.3542   22.6833 N   0  3  0  0  0  0  0  0  0  0  0  0
  -19.8496  -25.2791   23.1663 N   0  3  0  0  0  0  0  0  0  0  0  0
  -20.2171  -13.9394   21.9118 O   0  0  0  0  0  0  0  0  0  0  0  0
  -25.8087  -28.2435   22.6028 O   0  0  0  0  0  0  0  0  0  0  0  0
  -27.4236  -32.0444   22.4117 O   0  0  0  0  0  0  0  0  0  0  0  0
  -21.6746  -23.3111   22.8561 O   0  0  0  0  0  0  0  0  0  0  0  0
  -23.3313  -33.8601   23.9856 O   0  0  0  0  0  0  0  0  0  0  0  0
  -25.2397  -22.4137   21.8407 O   0  0  0  0  0  0  0  0  0  0  0  0
  -26.9804  -10.3310   20.5617 O   0  0  0  0  0  0  0  0  0  0  0  0
  -19.7380  -28.5321   21.7381 O   0  0  0  0  0  0  0  0  0  1  0  0
  -30.3412  -10.0508   16.1994 F   0  0  0  0  0  0  0  0  0  0  0  0
  -26.7915   -8.2450   18.7574 F   0  0  0  0  0  0  0  0  0  0  0  0
  1  2  1  0  0  0  0
  1  5  2  0  0  0  0
  2  6  2  0  0  0  0
  3  8  2  0  0  0  0
  3 15  1  0  0  0  0
  4  9  1  0  0  0  0
  4 15  2  0  0  0  0
  5 17  1  0  0  0  0
  6 19  1  0  0  0  0
  7 10  2  0  0  0  0
  7 18  1  0  0  0  0
  8 21  1  0  0  0  0
  9 21  2  0  0  0  0
 10 22  1  0  0  0  0
 11 12  2  0  0  0  0
 11 23  1  0  0  0  0
 12 24  1  0  0  0  0
 13 20  1  0  0  0  0
 13 22  2  0  0  0  0
 14 24  2  0  0  0  0
 14 25  1  0  0  0  0
 15 26  1  0  0  0  0
 16 26  1  0  0  0  0
 16 27  2  0  0  0  0
 16 28  1  0  0  0  0
 17 19  2  0  0  0  0
 17 34  1  0  0  0  0
 18 20  2  0  0  0  0
 18 35  1  0  0  0  0
 19 43  1  0  0  0  0
 20 36  1  0  0  0  0
 21 82  1  0  0  0  0
 22 83  1  0  0  0  0
 23 25  2  0  0  0  0
 23 82  1  0  0  0  0
 24 84  1  0  0  0  0
 25 85  1  0  0  0  0
 26 64  2  0  0  0  0
 27 65  1  0  0  0  0
 27 68  1  0  0  0  0
 28 69  1  0  0  0  0
 28 76  2  0  0  0  0
 29 44  1  0  0  0  0
 29 70  1  0  0  0  0
 29 77  2  0  0  0  0
 30 60  1  0  0  0  0
 30 66  1  0  0  0  0
 30 78  2  0  0  0  0
 31 54  1  0  0  0  0
 31 73  1  0  0  0  0
 31 79  2  0  0  0  0
 32 61  1  0  0  0  0
 32 71  1  0  0  0  0
 32 80  2  0  0  0  0
 33 67  1  0  0  0  0
 33 72  1  0  0  0  0
 33 81  2  0  0  0  0
 34 37  1  0  0  0  0
 35 44  1  0  0  0  0
 36 66  1  0  0  0  0
 37 39  1  0  0  0  0
 38 40  1  0  0  0  0
 38 41  1  0  0  0  0
 39 43  1  0  0  0  0
 40 45  1  0  0  0  0
 41 67  1  0  0  0  0
 42 45  1  0  0  0  0
 42 67  1  0  0  0  0
 43 70  1  0  0  0  0
 44 66  1  0  0  0  0
 45 65  1  0  0  0  0
 46 61  1  0  0  0  0
 47 62  1  0  0  0  0
 48 62  1  0  0  0  0
 49 62  1  0  0  0  0
 50 63  1  0  0  0  0
 51 63  1  0  0  0  0
 52 73  1  0  0  0  0
 53 74  1  0  0  0  0
 54 75  1  0  0  0  0
 55 57  1  0  0  0  0
 55 63  1  0  0  0  0
 56 58  1  0  0  0  0
 56 59  1  0  0  0  0
 57 73  1  0  0  0  0
 58 75  1  0  0  0  0
 59 83  1  0  0  0  0
 60 62  1  0  0  0  0
 60 71  1  0  0  0  0
 61 74  1  0  0  0  0
 63 72  1  0  0  0  0
 64 65  1  0  0  0  0
M  CHG  2  74   1  75   1
M  ISO  4  33 100  59 101  72 100  83 101
M  END
> <Batch ID>
0105

> <Smiles>
CNC(C)C(=O)NC(C(=O)N1Cc2cc([101O:1][101CH2:1]CCNCC(=O)N(C)CCC(C)(C)[100NH:0][100C:0](=O)N3CCCC(n4nc(-c5ccc(Oc6ccc(F)cc6F)cc5)c(C(N)=O)c4N)C3)ccc2CC1C(=O)NC1CCCc2ccccc21)C(C)(C)C

> <Shape>
0.268

> <Color>
0.080

> <Negative vol penalty>
0.000

$$$$

  -OEChem-04052319463D

 83 91  0     1  0  0  0  0  0999 V2000
  -27.5589  -17.7293   18.6043 C   0  0  0  0  0  0  0  0  0  0  0  0
  -26.8822  -18.9017   18.2874 C   0  0  0  0  0  0  0  0  0  0  0  0
  -23.3558  -17.4673   20.0500 C   0  0  0  0  0  0  0  0  0  0  0  0
  -21.4836  -17.3352   21.5714 C   0  0  0  0  0  0  0  0  0  0  0  0
  -28.5053  -17.7299   19.6269 C   0  0  0  0  0  0  0  0  0  0  0  0
  -27.1601  -20.0778   18.9849 C   0  0  0  0  0  0  0  0  0  0  0  0
  -24.5875  -25.5905   18.6388 C   0  0  0  0  0  0  0  0  0  0  0  0
  -23.3790  -16.0757   19.9577 C   0  0  0  0  0  0  0  0  0  0  0  0
  -21.5068  -15.9436   21.4791 C   0  0  0  0  0  0  0  0  0  0  0  0
  -23.5506  -26.2832   19.2622 C   0  0  0  0  0  0  0  0  0  0  0  0
  -24.1598  -12.5418   19.6033 C   0  0  0  0  0  0  0  0  0  0  0  0
  -25.3983  -11.9054   19.6851 C   0  0  0  0  0  0  0  0  0  0  0  0
  -25.1438  -27.3188   20.7482 C   0  0  0  0  0  0  0  0  0  0  0  0
  -25.7308  -12.8361   21.8897 C   0  0  0  0  0  0  0  0  0  0  0  0
  -19.5577  -28.4259   21.7066 C   0  0  0  0  0  0  0  0  0  0  0  0
  -22.4082  -18.0971   20.8569 C   0  0  0  0  0  0  0  0  0  0  0  0
  -21.6610  -20.4289   20.1412 C   0  0  0  0  0  0  0  0  0  0  0  0
  -28.7854  -18.9042   20.3450 C   0  0  0  0  0  0  0  0  0  0  0  0
  -25.9114  -25.7488   19.0732 C   0  0  0  0  0  0  0  0  0  0  0  0
  -28.1291  -20.1044   20.0042 C   0  0  0  0  0  0  0  0  0  0  0  0
  -26.1961  -26.6290   20.1269 C   0  0  0  0  0  0  0  0  0  0  0  0
  -18.5133  -27.5522   21.9148 C   0  0  0  0  0  0  0  0  0  0  0  0
  -18.8352  -26.7716   23.0524 C   0  0  0  0  0  0  0  0  0  0  0  0
  -22.4545  -15.3139   20.6722 C   0  0  0  0  0  0  0  0  0  0  0  0
  -23.8283  -27.1453   20.3190 C   0  0  0  0  0  0  0  0  0  0  0  0
  -23.7068  -13.3254   20.6647 C   0  0  0  0  0  0  0  0  0  0  0  0
  -26.1838  -12.0526   20.8283 C   0  0  0  0  0  0  0  0  0  0  0  0
  -24.4923  -13.4726   21.8079 C   0  0  0  0  0  0  0  0  0  0  0  0
  -22.3841  -19.5345   20.9531 C   0  0  0  0  0  0  0  0  0  0  0  0
  -20.0664  -27.1921   23.5049 C   0  0  0  0  0  0  0  0  0  0  0  0
  -21.9741  -21.6714   20.6357 C   0  0  0  0  0  0  0  0  0  0  0  0
  -20.7846  -20.1604   19.0387 C   0  0  0  0  0  0  0  0  0  0  0  0
  -28.1152  -23.8157   20.3022 C   0  0  0  0  0  0  0  0  0  0  0  0
  -30.0136  -26.4291   20.0044 C   0  0  0  0  0  0  0  0  0  0  0  0
  -30.2529  -29.8263   19.7844 C   0  0  0  0  0  0  0  0  0  0  0  0
  -22.7627  -25.1413   24.9349 C   0  0  0  0  0  0  0  0  0  0  0  0
  -29.8247  -18.8501   21.4368 C   0  0  0  0  0  0  0  0  0  0  0  0
  -27.0218  -25.0148   18.3728 C   0  0  0  0  0  0  0  0  0  0  0  0
  -27.6028  -26.8495   20.6180 C   0  0  0  0  0  0  0  0  0  0  0  0
  -29.7301  -20.0238   22.4062 C   0  0  0  0  0  0  0  0  0  0  0  0
  -25.5097  -23.0964   23.9607 C   0  0  0  0  0  0  0  0  0  0  0  0
  -29.6594  -21.3322   21.6331 C   0  0  0  0  0  0  0  0  0  0  0  0
  -24.8807  -22.0581   23.0300 C   0  0  0  0  0  0  0  0  0  0  0  0
  -24.5752  -23.4620   25.1118 C   0  0  0  0  0  0  0  0  0  0  0  0
  -22.5981  -22.8582   23.7701 C   0  0  0  0  0  0  0  0  0  0  0  0
  -28.3928  -21.3885   20.7696 C   0  0  1  0  0  0  0  0  0  0  0  0
  -28.2719  -24.8601   19.2334 C   0  0  1  0  0  0  0  0  0  0  0  0
  -23.4807  -22.4991   22.5625 C   0  0  2  0  0  0  0  0  0  0  0  0
  -18.0052  -25.7030   23.6461 C   0  0  0  0  0  0  0  0  0  0  0  0
  -17.5728  -27.0537   19.6300 C   0  0  0  0  0  0  0  0  0  0  0  0
  -16.4468  -28.7527   21.1134 C   0  0  0  0  0  0  0  0  0  0  0  0
  -31.9399  -31.6736   19.5875 C   0  0  0  0  0  0  0  0  0  0  0  0
  -30.7080  -26.1065   22.9580 C   0  0  0  0  0  0  0  0  0  0  0  0
  -31.5926  -28.4485   22.9341 C   0  0  0  0  0  0  0  0  0  0  0  0
  -32.6427  -26.7058   21.4909 C   0  0  0  0  0  0  0  0  0  0  0  0
  -29.1413  -30.7221   17.1920 C   0  0  0  0  0  0  0  0  0  0  0  0
  -20.8718  -26.7237   24.6526 C   0  0  0  0  0  0  0  0  0  0  0  0
  -21.7981  -28.9510   22.8051 C   0  0  0  0  0  0  0  0  0  0  0  0
  -22.9887  -28.1365   22.3111 C   0  0  0  0  0  0  0  0  0  1  0  0
  -17.2886  -27.4559   21.0956 C   0  0  0  0  0  0  0  0  0  0  0  0
  -30.3589  -27.6055   20.8851 C   0  0  1  0  0  0  0  0  0  0  0  0
  -31.0248  -30.7222   18.8325 C   0  0  2  0  0  0  0  0  0  0  0  0
  -31.2987  -27.2111   22.0593 C   0  0  0  0  0  0  0  0  0  0  0  0
  -23.1026  -20.1561   21.8920 N   0  0  0  0  0  0  0  0  0  0  0  0
  -20.4959  -28.1982   22.6794 N   0  0  0  0  0  0  0  0  0  0  0  0
  -22.8326  -21.4543   21.6731 N   0  0  0  0  0  0  0  0  0  0  0  0
  -28.6533  -26.1043   19.9049 N   0  0  0  0  0  0  0  0  0  0  0  0
  -23.2652  -23.8729   24.6008 N   0  0  0  0  0  0  0  0  0  0  0  0
  -21.5962  -22.9176   20.2800 N   0  0  0  0  0  0  0  0  0  0  0  0
  -20.5736  -18.8270   18.6622 N   0  0  0  0  0  0  0  0  0  0  0  0
  -28.4658  -22.5413   19.8992 N   0  0  0  0  0  0  0  0  0  0  0  0
  -30.9043  -28.6305   20.0017 N   0  0  0  0  0  0  0  0  0  0  0  0
  -21.5174  -25.4540   24.4038 N   0  0  0  0  0  0  0  0  0  0  0  0
  -30.0850  -31.5310   18.0057 N   0  3  0  0  0  0  0  0  0  0  0  0
  -20.2186  -21.0768   18.3958 O   0  0  0  0  0  0  0  0  0  0  0  0
  -27.7078  -24.1421   21.4109 O   0  0  0  0  0  0  0  0  0  0  0  0
  -30.9168  -25.8251   19.4205 O   0  0  0  0  0  0  0  0  0  0  0  0
  -29.1813  -30.1559   20.2880 O   0  0  0  0  0  0  0  0  0  0  0  0
  -23.3807  -25.9384   25.6489 O   0  0  0  0  0  0  0  0  0  0  0  0
  -22.4766  -13.9559   20.5822 O   0  0  0  0  0  0  0  0  0  0  0  0
  -22.8179  -27.8221   20.9297 O   0  0  0  0  0  0  0  0  0  1  0  0
  -27.3724  -11.4402   20.9074 F   0  0  0  0  0  0  0  0  0  0  0  0
  -24.0619  -14.2231   22.8312 F   0  0  0  0  0  0  0  0  0  0  0  0
  1  2  1  0  0  0  0
  1  5  2  0  0  0  0
  2  6  2  0  0  0  0
  3  8  2  0  0  0  0
  3 16  1  0  0  0  0
  4  9  1  0  0  0  0
  4 16  2  0  0  0  0
  5 18  1  0  0  0  0
  6 20  1  0  0  0  0
  7 10  2  0  0  0  0
  7 19  1  0  0  0  0
  8 24  1  0  0  0  0
  9 24  2  0  0  0  0
 10 25  1  0  0  0  0
 11 12  2  0  0  0  0
 11 26  1  0  0  0  0
 12 27  1  0  0  0  0
 13 21  1  0  0  0  0
 13 25  2  0  0  0  0
 14 27  2  0  0  0  0
 14 28  1  0  0  0  0
 15 22  2  0  0  0  0
 15 65  1  0  0  0  0
 16 29  1  0  0  0  0
 17 29  1  0  0  0  0
 17 31  2  0  0  0  0
 17 32  1  0  0  0  0
 18 20  2  0  0  0  0
 18 37  1  0  0  0  0
 19 21  2  0  0  0  0
 19 38  1  0  0  0  0
 20 46  1  0  0  0  0
 21 39  1  0  0  0  0
 22 23  1  0  0  0  0
 22 60  1  0  0  0  0
 23 30  2  0  0  0  0
 23 49  1  0  0  0  0
 24 80  1  0  0  0  0
 25 81  1  0  0  0  0
 26 28  2  0  0  0  0
 26 80  1  0  0  0  0
 27 82  1  0  0  0  0
 28 83  1  0  0  0  0
 29 64  2  0  0  0  0
 30 57  1  0  0  0  0
 30 65  1  0  0  0  0
 31 66  1  0  0  0  0
 31 69  1  0  0  0  0
 32 70  1  0  0  0  0
 32 75  2  0  0  0  0
 33 47  1  0  0  0  0
 33 71  1  0  0  0  0
 33 76  2  0  0  0  0
 34 61  1  0  0  0  0
 34 67  1  0  0  0  0
 34 77  2  0  0  0  0
 35 62  1  0  0  0  0
 35 72  1  0  0  0  0
 35 78  2  0  0  0  0
 36 68  1  0  0  0  0
 36 73  1  0  0  0  0
 36 79  2  0  0  0  0
 37 40  1  0  0  0  0
 38 47  1  0  0  0  0
 39 67  1  0  0  0  0
 40 42  1  0  0  0  0
 41 43  1  0  0  0  0
 41 44  1  0  0  0  0
 42 46  1  0  0  0  0
 43 48  1  0  0  0  0
 44 68  1  0  0  0  0
 45 48  1  0  0  0  0
 45 68  1  0  0  0  0
 46 71  1  0  0  0  0
 47 67  1  0  0  0  0
 48 66  1  0  0  0  0
 50 60  1  0  0  0  0
 51 60  1  0  0  0  0
 52 62  1  0  0  0  0
 53 63  1  0  0  0  0
 54 63  1  0  0  0  0
 55 63  1  0  0  0  0
 56 74  1  0  0  0  0
 57 73  1  0  0  0  0
 58 59  1  0  0  0  0
 58 65  1  0  0  0  0
 59 81  1  0  0  0  0
 61 63  1  0  0  0  0
 61 72  1  0  0  0  0
 62 74  1  0  0  0  0
 64 66  1  0  0  0  0
M  CHG  1  74   1
M  ISO  4  36 100  59 101  73 100  81 101
M  END
> <Batch ID>
0105

> <Smiles>
CNC(C)C(=O)NC(C(=O)N1Cc2cc([101O:1][101CH2:1]Cn3cc(C(C)C)c(C)c3C[100NH:0][100C:0](=O)N3CCCC(n4nc(-c5ccc(Oc6ccc(F)cc6F)cc5)c(C(N)=O)c4N)C3)ccc2CC1C(=O)NC1CCCc2ccccc21)C(C)(C)C

> <Shape>
0.196

> <Color>
0.065

> <Negative vol penalty>
0.000

$$$$

  -OEChem-04052319463D

 90 98  0     1  0  0  0  0  0999 V2000
  -29.8940  -21.5196   13.2687 C   0  0  0  0  0  0  0  0  0  0  0  0
  -29.1928  -20.8821   14.2871 C   0  0  0  0  0  0  0  0  0  0  0  0
  -22.9847   -9.8989   20.0261 C   0  0  0  0  0  0  0  0  0  0  0  0
  -23.6668  -10.0488   22.3390 C   0  0  0  0  0  0  0  0  0  0  0  0
  -30.5381  -22.7305   13.5194 C   0  0  0  0  0  0  0  0  0  0  0  0
  -29.1362  -21.4545   15.5574 C   0  0  0  0  0  0  0  0  0  0  0  0
  -24.4377  -21.2528   19.4802 C   0  0  0  0  0  0  0  0  0  0  0  0
  -22.2088   -8.7797   20.3275 C   0  0  0  0  0  0  0  0  0  0  0  0
  -22.8908   -8.9296   22.6404 C   0  0  0  0  0  0  0  0  0  0  0  0
  -24.1731  -20.4461   20.5862 C   0  0  0  0  0  0  0  0  0  0  0  0
  -23.1305   -5.5724   22.3202 C   0  0  0  0  0  0  0  0  0  0  0  0
  -23.6997   -4.5874   23.1272 C   0  0  0  0  0  0  0  0  0  0  0  0
  -25.0750  -22.1495   22.0368 C   0  0  0  0  0  0  0  0  0  0  0  0
  -21.9457   -4.9093   24.7573 C   0  0  0  0  0  0  0  0  0  0  0  0
  -27.5084  -18.0440   22.4756 C   0  0  0  0  0  0  0  0  0  0  0  0
  -27.5897  -20.0874   23.3879 C   0  0  0  0  0  0  0  0  0  0  0  0
  -23.7138  -10.5335   21.0319 C   0  0  0  0  0  0  0  0  0  0  0  0
  -24.1125  -13.0377   20.7529 C   0  0  0  0  0  0  0  0  0  0  0  0
  -30.4812  -23.3229   14.7908 C   0  0  0  0  0  0  0  0  0  0  0  0
  -25.0339  -22.5114   19.6437 C   0  0  0  0  0  0  0  0  0  0  0  0
  -29.7812  -22.6738   15.8257 C   0  0  0  0  0  0  0  0  0  0  0  0
  -25.3438  -22.9712   20.9316 C   0  0  0  0  0  0  0  0  0  0  0  0
  -28.3609  -18.8044   21.7060 C   0  0  0  0  0  0  0  0  0  0  0  0
  -28.4123  -20.0972   22.2831 C   0  0  0  0  0  0  0  0  0  0  0  0
  -22.1618   -8.2951   21.6346 C   0  0  0  0  0  0  0  0  0  0  0  0
  -24.4944  -20.8932   21.8644 C   0  0  0  0  0  0  0  0  0  0  0  0
  -21.9689   -6.2260   22.7318 C   0  0  0  0  0  0  0  0  0  0  0  0
  -23.1073   -4.2558   24.3458 C   0  0  0  0  0  0  0  0  0  0  0  0
  -21.3765   -5.8944   23.9503 C   0  0  0  0  0  0  0  0  0  0  0  0
  -24.5160  -11.6893   20.7211 C   0  0  0  0  0  0  0  0  0  0  0  0
  -25.2318  -13.7399   20.3781 C   0  0  0  0  0  0  0  0  0  0  0  0
  -22.8398  -13.6046   21.0911 C   0  0  0  0  0  0  0  0  0  0  0  0
  -27.7543  -23.8464   18.6840 C   0  0  0  0  0  0  0  0  0  0  0  0
  -26.4597  -26.5106   20.0063 C   0  0  0  0  0  0  0  0  0  0  0  0
  -24.2676  -27.8612   22.2463 C   0  0  0  0  0  0  0  0  0  0  0  0
  -30.7263  -14.6669   20.6891 C   0  0  0  0  0  0  0  0  0  0  0  0
  -31.2328  -24.6091   15.0267 C   0  0  0  0  0  0  0  0  0  0  0  0
  -25.2884  -23.3807   18.4428 C   0  0  0  0  0  0  0  0  0  0  0  0
  -25.9665  -24.3230   21.1625 C   0  0  0  0  0  0  0  0  0  0  0  0
  -30.8107  -25.3364   16.3007 C   0  0  0  0  0  0  0  0  0  0  0  0
  -29.6199  -12.1461   18.4312 C   0  0  0  0  0  0  0  0  0  0  0  0
  -30.7283  -24.3605   17.4701 C   0  0  0  0  0  0  0  0  0  0  0  0
  -28.1628  -11.9096   18.8324 C   0  0  0  0  0  0  0  0  0  0  0  0
  -30.5005  -12.4315   19.6458 C   0  0  0  0  0  0  0  0  0  0  0  0
  -28.5689  -13.2913   20.9120 C   0  0  0  0  0  0  0  0  0  0  0  0
  -29.6761  -23.2757   17.2102 C   0  0  1  0  0  0  0  0  0  0  0  0
  -26.3696  -24.4298   18.6829 C   0  0  1  0  0  0  0  0  0  0  0  0
  -27.6315  -13.0546   19.7155 C   0  0  2  0  0  0  0  0  0  0  0  0
  -23.4603  -30.0680   23.1269 C   0  0  0  0  0  0  0  0  0  0  0  0
  -32.5635  -22.8180   23.0680 C   0  0  0  0  0  0  0  0  0  0  0  0
  -31.7956  -22.4964   20.7085 C   0  0  0  0  0  0  0  0  0  0  0  0
  -26.7486  -17.3514   25.5074 C   0  0  0  0  0  0  0  0  0  0  0  0
  -29.0223  -26.7941   21.6381 C   0  0  0  0  0  0  0  0  0  0  0  0
  -27.8089  -28.3911   23.1366 C   0  0  0  0  0  0  0  0  0  0  0  0
  -28.1245  -28.9419   20.7242 C   0  0  0  0  0  0  0  0  0  0  0  0
  -23.5802  -18.3211   25.1214 C   0  0  0  0  0  0  0  0  0  0  0  0
  -24.5319  -16.4409   23.7908 C   0  0  0  0  0  0  0  0  0  0  0  0
  -21.4975  -27.3391   21.3447 C   0  0  0  0  0  0  0  0  0  0  0  0
  -29.0840  -18.3450   20.5035 C   0  0  0  0  0  0  0  0  0  0  0  0
  -29.1977  -21.2497   21.7993 C   0  0  0  0  0  0  0  0  0  0  0  0
  -30.5720  -17.9862   20.7335 C   0  0  0  0  0  0  0  0  0  0  0  0
  -30.4680  -21.4978   22.6447 C   0  0  0  0  0  0  0  0  0  0  0  0
  -30.7956  -16.8955   21.7788 C   0  0  0  0  0  0  0  0  0  0  0  0
  -24.2783  -18.6951   22.7463 C   0  0  0  0  0  0  0  0  0  1  0  0
  -26.4769  -27.1395   21.3786 C   0  0  1  0  0  0  0  0  0  0  0  0
  -23.2348  -28.9647   22.1049 C   0  0  2  0  0  0  0  0  0  0  0  0
  -31.3412  -22.6694   22.1585 C   0  0  0  0  0  0  0  0  0  0  0  0
  -26.0746  -18.3860   24.5857 C   0  0  2  0  0  0  0  0  0  0  0  0
  -27.8482  -27.7903   21.7152 C   0  0  0  0  0  0  0  0  0  0  0  0
  -24.6472  -17.9549   24.0600 C   0  0  0  0  0  0  0  0  0  0  0  0
  -25.7920  -11.5414   20.3549 N   0  0  0  0  0  0  0  0  0  0  0  0
  -27.0458  -18.8341   23.4953 N   0  0  0  0  0  0  0  0  0  0  0  0
  -26.1999  -12.8059   20.1531 N   0  0  0  0  0  0  0  0  0  0  0  0
  -26.2017  -25.1334   19.9560 N   0  0  0  0  0  0  0  0  0  0  0  0
  -29.9421  -13.5284   20.4401 N   0  0  0  0  0  0  0  0  0  0  0  0
  -25.4725  -15.0591   20.2224 N   0  0  0  0  0  0  0  0  0  0  0  0
  -21.7981  -12.7397   21.4535 N   0  0  0  0  0  0  0  0  0  0  0  0
  -28.3454  -23.7979   17.4359 N   0  0  0  0  0  0  0  0  0  0  0  0
  -25.3503  -28.0656   21.4173 N   0  0  0  0  0  0  0  0  0  0  0  0
  -30.1188  -15.6623   21.4447 N   0  0  0  0  0  0  0  0  0  0  0  0
  -21.8623  -28.4176   22.2991 N   0  3  0  0  0  0  0  0  0  0  0  0
  -22.6276  -14.8404   21.0565 O   0  0  0  0  0  0  0  0  0  0  0  0
  -28.2504  -23.4697   19.7393 O   0  0  0  0  0  0  0  0  0  0  0  0
  -26.6606  -27.2167   19.0150 O   0  0  0  0  0  0  0  0  0  0  0  0
  -24.1296  -26.9145   23.0179 O   0  0  0  0  0  0  0  0  0  0  0  0
  -31.8803  -14.7896   20.2648 O   0  0  0  0  0  0  0  0  0  0  0  0
  -21.4045   -7.2031   21.9291 O   0  0  0  0  0  0  0  0  0  0  0  0
  -24.2378  -20.1076   22.9456 O   0  0  0  0  0  0  0  0  0  1  0  0
  -23.6532   -3.3088   25.1199 F   0  0  0  0  0  0  0  0  0  0  0  0
  -20.2599   -6.5179   24.3505 F   0  0  0  0  0  0  0  0  0  0  0  0
  1  2  1  0  0  0  0
  1  5  2  0  0  0  0
  2  6  2  0  0  0  0
  3  8  2  0  0  0  0
  3 17  1  0  0  0  0
  4  9  1  0  0  0  0
  4 17  2  0  0  0  0
  5 19  1  0  0  0  0
  6 21  1  0  0  0  0
  7 10  2  0  0  0  0
  7 20  1  0  0  0  0
  8 25  1  0  0  0  0
  9 25  2  0  0  0  0
 10 26  1  0  0  0  0
 11 12  2  0  0  0  0
 11 27  1  0  0  0  0
 12 28  1  0  0  0  0
 13 22  1  0  0  0  0
 13 26  2  0  0  0  0
 14 28  2  0  0  0  0
 14 29  1  0  0  0  0
 15 23  2  0  0  0  0
 15 72  1  0  0  0  0
 16 24  2  0  0  0  0
 16 72  1  0  0  0  0
 17 30  1  0  0  0  0
 18 30  1  0  0  0  0
 18 31  2  0  0  0  0
 18 32  1  0  0  0  0
 19 21  2  0  0  0  0
 19 37  1  0  0  0  0
 20 22  2  0  0  0  0
 20 38  1  0  0  0  0
 21 46  1  0  0  0  0
 22 39  1  0  0  0  0
 23 24  1  0  0  0  0
 23 59  1  0  0  0  0
 24 60  1  0  0  0  0
 25 87  1  0  0  0  0
 26 88  1  0  0  0  0
 27 29  2  0  0  0  0
 27 87  1  0  0  0  0
 28 89  1  0  0  0  0
 29 90  1  0  0  0  0
 30 71  2  0  0  0  0
 31 73  1  0  0  0  0
 31 76  1  0  0  0  0
 32 77  1  0  0  0  0
 32 82  2  0  0  0  0
 33 47  1  0  0  0  0
 33 78  1  0  0  0  0
 33 83  2  0  0  0  0
 34 65  1  0  0  0  0
 34 74  1  0  0  0  0
 34 84  2  0  0  0  0
 35 66  1  0  0  0  0
 35 79  1  0  0  0  0
 35 85  2  0  0  0  0
 36 75  1  0  0  0  0
 36 80  1  0  0  0  0
 36 86  2  0  0  0  0
 37 40  1  0  0  0  0
 38 47  1  0  0  0  0
 39 74  1  0  0  0  0
 40 42  1  0  0  0  0
 41 43  1  0  0  0  0
 41 44  1  0  0  0  0
 42 46  1  0  0  0  0
 43 48  1  0  0  0  0
 44 75  1  0  0  0  0
 45 48  1  0  0  0  0
 45 75  1  0  0  0  0
 46 78  1  0  0  0  0
 47 74  1  0  0  0  0
 48 73  1  0  0  0  0
 49 66  1  0  0  0  0
 50 67  1  0  0  0  0
 51 67  1  0  0  0  0
 52 68  1  0  0  0  0
 53 69  1  0  0  0  0
 54 69  1  0  0  0  0
 55 69  1  0  0  0  0
 56 70  1  0  0  0  0
 57 70  1  0  0  0  0
 58 81  1  0  0  0  0
 59 61  1  0  0  0  0
 60 62  1  0  0  0  0
 61 63  1  0  0  0  0
 62 67  1  0  0  0  0
 63 80  1  0  0  0  0
 64 70  1  0  0  0  0
 64 88  1  0  0  0  0
 65 69  1  0  0  0  0
 65 79  1  0  0  0  0
 66 81  1  0  0  0  0
 68 70  1  0  0  0  0
 68 72  1  0  0  0  0
 71 73  1  0  0  0  0
M  CHG  1  81   1
M  ISO  4  36 100  64 101  80 100  88 101
M  END
> <Batch ID>
0105

> <Smiles>
CNC(C)C(=O)NC(C(=O)N1Cc2cc([101O:1][101CH2:1]C(C)(C)C(C)n3cc(CCC[100NH:0][100C:0](=O)N4CCCC(n5nc(-c6ccc(Oc7ccc(F)cc7F)cc6)c(C(N)=O)c5N)C4)c(CCC(C)C)c3)ccc2CC1C(=O)NC1CCCc2ccccc21)C(C)(C)C

> <Shape>
0.278

> <Color>
0.210

> <Negative vol penalty>
0.000

$$$$

  -OEChem-04052319463D

 85 93  0     1  0  0  0  0  0999 V2000
  -19.1987  -32.0333   17.2842 C   0  0  0  0  0  0  0  0  0  0  0  0
  -19.5283  -30.7145   16.9886 C   0  0  0  0  0  0  0  0  0  0  0  0
  -22.9545   -9.9573   19.9646 C   0  0  0  0  0  0  0  0  0  0  0  0
  -23.7737   -9.8657   22.2356 C   0  0  0  0  0  0  0  0  0  0  0  0
  -20.0973  -32.8344   17.9874 C   0  0  0  0  0  0  0  0  0  0  0  0
  -20.7574  -30.1963   17.3950 C   0  0  0  0  0  0  0  0  0  0  0  0
  -23.7941  -24.0851   19.5742 C   0  0  0  0  0  0  0  0  0  0  0  0
  -29.2123  -21.3214   17.6506 C   0  0  0  0  0  0  0  0  0  0  0  0
  -30.3999  -20.6076   17.4900 C   0  0  0  0  0  0  0  0  0  0  0  0
  -22.1746   -8.8251   20.2002 C   0  0  0  0  0  0  0  0  0  0  0  0
  -22.9937   -8.7335   22.4713 C   0  0  0  0  0  0  0  0  0  0  0  0
  -24.8788  -23.2584   19.2849 C   0  0  0  0  0  0  0  0  0  0  0  0
  -23.1450   -5.4219   21.8075 C   0  0  0  0  0  0  0  0  0  0  0  0
  -23.7401   -4.3530   22.4776 C   0  0  0  0  0  0  0  0  0  0  0  0
  -26.3192  -24.7115   20.5629 C   0  0  0  0  0  0  0  0  0  0  0  0
  -28.4292  -19.6644   19.2248 C   0  0  0  0  0  0  0  0  0  0  0  0
  -22.0915   -4.5364   24.2342 C   0  0  0  0  0  0  0  0  0  0  0  0
  -23.7541  -10.4776   20.9823 C   0  0  0  0  0  0  0  0  0  0  0  0
  -24.1873  -12.9910   20.9283 C   0  0  0  0  0  0  0  0  0  0  0  0
  -21.3341  -32.3229   18.4111 C   0  0  0  0  0  0  0  0  0  0  0  0
  -23.9661  -25.2390   20.3522 C   0  0  0  0  0  0  0  0  0  0  0  0
  -21.6740  -30.9917   18.1034 C   0  0  0  0  0  0  0  0  0  0  0  0
  -25.2345  -25.5497   20.8627 C   0  0  0  0  0  0  0  0  0  0  0  0
  -28.2270  -20.8499   18.5181 C   0  0  0  0  0  0  0  0  0  0  0  0
  -30.6021  -19.4221   18.1967 C   0  0  0  0  0  0  0  0  0  0  0  0
  -29.6167  -18.9505   19.0642 C   0  0  0  0  0  0  0  0  0  0  0  0
  -22.1942   -8.2133   21.4536 C   0  0  0  0  0  0  0  0  0  0  0  0
  -26.1422  -23.5731   19.7769 C   0  0  0  0  0  0  0  0  0  0  0  0
  -22.0232   -6.0481   22.3508 C   0  0  0  0  0  0  0  0  0  0  0  0
  -23.2134   -3.9102   23.6909 C   0  0  0  0  0  0  0  0  0  0  0  0
  -21.4965   -5.6053   23.5641 C   0  0  0  0  0  0  0  0  0  0  0  0
  -24.5603  -11.6468   20.7393 C   0  0  0  0  0  0  0  0  0  0  0  0
  -25.2969  -13.7106   20.5579 C   0  0  0  0  0  0  0  0  0  0  0  0
  -22.9484  -13.5400   21.3968 C   0  0  0  0  0  0  0  0  0  0  0  0
  -23.5747  -28.3549   19.8605 C   0  0  0  0  0  0  0  0  0  0  0  0
  -30.7492  -17.8255   21.0254 C   0  0  0  0  0  0  0  0  0  0  0  0
  -24.2457  -28.5430   23.0286 C   0  0  0  0  0  0  0  0  0  0  0  0
  -25.7169  -27.1348   25.7671 C   0  0  0  0  0  0  0  0  0  0  0  0
  -30.8181  -14.5212   20.6273 C   0  0  0  0  0  0  0  0  0  0  0  0
  -22.2924  -33.2412   19.1274 C   0  0  0  0  0  0  0  0  0  0  0  0
  -22.7807  -26.1059   20.6775 C   0  0  0  0  0  0  0  0  0  0  0  0
  -25.4683  -26.7661   21.7197 C   0  0  0  0  0  0  0  0  0  0  0  0
  -23.4181  -32.5042   19.8485 C   0  0  0  0  0  0  0  0  0  0  0  0
  -29.5299  -12.2547   18.2024 C   0  0  0  0  0  0  0  0  0  0  0  0
  -24.0285  -31.4417   18.9399 C   0  0  0  0  0  0  0  0  0  0  0  0
  -28.0942  -12.0008   18.6653 C   0  0  0  0  0  0  0  0  0  0  0  0
  -30.4857  -12.4046   19.3839 C   0  0  0  0  0  0  0  0  0  0  0  0
  -28.6496  -13.1620   20.8429 C   0  0  0  0  0  0  0  0  0  0  0  0
  -22.9874  -30.3860   18.5489 C   0  0  1  0  0  0  0  0  0  0  0  0
  -23.1689  -27.5331   21.0512 C   0  0  1  0  0  0  0  0  0  0  0  0
  -27.6391  -13.0597   19.6875 C   0  0  2  0  0  0  0  0  0  0  0  0
  -33.1092  -19.4920   18.4479 C   0  0  0  0  0  0  0  0  0  0  0  0
  -32.0675  -18.1877   16.5588 C   0  0  0  0  0  0  0  0  0  0  0  0
  -26.1316  -27.5417   28.2084 C   0  0  0  0  0  0  0  0  0  0  0  0
  -26.4221  -30.5608   22.3202 C   0  0  0  0  0  0  0  0  0  0  0  0
  -27.3956  -30.2060   24.5993 C   0  0  0  0  0  0  0  0  0  0  0  0
  -25.0924  -31.1335   24.3594 C   0  0  0  0  0  0  0  0  0  0  0  0
  -24.2175  -24.7049   26.5455 C   0  0  0  0  0  0  0  0  0  0  0  0
  -29.8109  -17.6837   19.8310 C   0  0  0  0  0  0  0  0  0  0  0  0
  -26.9495  -21.6177   18.6904 C   0  0  0  0  0  0  0  0  0  1  0  0
  -30.9969  -16.6288   21.9254 C   0  0  0  0  0  0  0  0  0  0  0  0
  -31.8811  -18.6745   18.0075 C   0  0  0  0  0  0  0  0  0  0  0  0
  -25.5050  -28.6922   23.8476 C   0  0  1  0  0  0  0  0  0  0  0  0
  -25.2081  -26.9085   27.1793 C   0  0  2  0  0  0  0  0  0  0  0  0
  -26.1001  -30.1262   23.7639 C   0  0  0  0  0  0  0  0  0  0  0  0
  -25.8094  -11.5174   20.2841 N   0  0  0  0  0  0  0  0  0  0  0  0
  -26.2307  -12.7896   20.1839 N   0  0  0  0  0  0  0  0  0  0  0  0
  -24.2790  -27.5858   22.0047 N   0  0  0  0  0  0  0  0  0  0  0  0
  -29.9974  -13.4249   20.3148 N   0  0  0  0  0  0  0  0  0  0  0  0
  -25.5552  -15.0351   20.5189 N   0  0  0  0  0  0  0  0  0  0  0  0
  -21.9122  -12.6587   21.7343 N   0  0  0  0  0  0  0  0  0  0  0  0
  -22.7736  -29.4588   19.6393 N   0  0  0  0  0  0  0  0  0  0  0  0
  -25.1652  -28.2643   25.2004 N   0  0  0  0  0  0  0  0  0  0  0  0
  -30.2764  -15.4450   21.5126 N   0  0  0  0  0  0  0  0  0  0  0  0
  -25.1129  -25.4495   27.4679 N   0  3  0  0  0  0  0  0  0  0  0  0
  -22.7601  -14.7761   21.4972 O   0  0  0  0  0  0  0  0  0  0  0  0
  -24.5439  -28.0135   19.1928 O   0  0  0  0  0  0  0  0  0  0  0  0
  -31.3127  -18.8935   21.2790 O   0  0  0  0  0  0  0  0  0  0  0  0
  -23.2661  -29.2448   23.2923 O   0  0  0  0  0  0  0  0  0  0  0  0
  -26.5259  -26.3868   25.2226 O   0  0  0  0  0  0  0  0  0  0  0  0
  -31.9476  -14.6687   20.1483 O   0  0  0  0  0  0  0  0  0  0  0  0
  -21.4331   -7.1086   21.6840 O   0  0  0  0  0  0  0  0  0  0  0  0
  -27.2028  -22.7683   19.4955 O   0  0  0  0  0  0  0  0  0  1  0  0
  -23.7840   -2.8828   24.3335 F   0  0  0  0  0  0  0  0  0  0  0  0
  -20.4182   -6.2022   24.0904 F   0  0  0  0  0  0  0  0  0  0  0  0
  1  2  1  0  0  0  0
  1  5  2  0  0  0  0
  2  6  2  0  0  0  0
  3 10  2  0  0  0  0
  3 18  1  0  0  0  0
  4 11  1  0  0  0  0
  4 18  2  0  0  0  0
  5 20  1  0  0  0  0
  6 22  1  0  0  0  0
  7 12  2  0  0  0  0
  7 21  1  0  0  0  0
  8  9  2  0  0  0  0
  8 24  1  0  0  0  0
  9 25  1  0  0  0  0
 10 27  1  0  0  0  0
 11 27  2  0  0  0  0
 12 28  1  0  0  0  0
 13 14  2  0  0  0  0
 13 29  1  0  0  0  0
 14 30  1  0  0  0  0
 15 23  1  0  0  0  0
 15 28  2  0  0  0  0
 16 24  2  0  0  0  0
 16 26  1  0  0  0  0
 17 30  2  0  0  0  0
 17 31  1  0  0  0  0
 18 32  1  0  0  0  0
 19 32  1  0  0  0  0
 19 33  2  0  0  0  0
 19 34  1  0  0  0  0
 20 22  2  0  0  0  0
 20 40  1  0  0  0  0
 21 23  2  0  0  0  0
 21 41  1  0  0  0  0
 22 49  1  0  0  0  0
 23 42  1  0  0  0  0
 24 60  1  0  0  0  0
 25 26  2  0  0  0  0
 25 62  1  0  0  0  0
 26 59  1  0  0  0  0
 27 82  1  0  0  0  0
 28 83  1  0  0  0  0
 29 31  2  0  0  0  0
 29 82  1  0  0  0  0
 30 84  1  0  0  0  0
 31 85  1  0  0  0  0
 32 66  2  0  0  0  0
 33 67  1  0  0  0  0
 33 70  1  0  0  0  0
 34 71  1  0  0  0  0
 34 76  2  0  0  0  0
 35 50  1  0  0  0  0
 35 72  1  0  0  0  0
 35 77  2  0  0  0  0
 36 59  1  0  0  0  0
 36 61  1  0  0  0  0
 36 78  2  0  0  0  0
 37 63  1  0  0  0  0
 37 68  1  0  0  0  0
 37 79  2  0  0  0  0
 38 64  1  0  0  0  0
 38 73  1  0  0  0  0
 38 80  2  0  0  0  0
 39 69  1  0  0  0  0
 39 74  1  0  0  0  0
 39 81  2  0  0  0  0
 40 43  1  0  0  0  0
 41 50  1  0  0  0  0
 42 68  1  0  0  0  0
 43 45  1  0  0  0  0
 44 46  1  0  0  0  0
 44 47  1  0  0  0  0
 45 49  1  0  0  0  0
 46 51  1  0  0  0  0
 47 69  1  0  0  0  0
 48 51  1  0  0  0  0
 48 69  1  0  0  0  0
 49 72  1  0  0  0  0
 50 68  1  0  0  0  0
 51 67  1  0  0  0  0
 52 62  1  0  0  0  0
 53 62  1  0  0  0  0
 54 64  1  0  0  0  0
 55 65  1  0  0  0  0
 56 65  1  0  0  0  0
 57 65  1  0  0  0  0
 58 75  1  0  0  0  0
 60 83  1  0  0  0  0
 61 74  1  0  0  0  0
 63 65  1  0  0  0  0
 63 73  1  0  0  0  0
 64 75  1  0  0  0  0
 66 67  1  0  0  0  0
M  CHG  1  75   1
M  ISO  4  39 100  60 101  74 100  83 101
M  END
> <Batch ID>
0105

> <Smiles>
CNC(C)C(=O)NC(C(=O)N1Cc2cc([101O:1][101CH2:1]c3ccc(C(C)C)c(CC(=O)C[100NH:0][100C:0](=O)N4CCCC(n5nc(-c6ccc(Oc7ccc(F)cc7F)cc6)c(C(N)=O)c5N)C4)c3)ccc2CC1C(=O)NC1CCCc2ccccc21)C(C)(C)C

> <Shape>
0.281

> <Color>
0.216

> <Negative vol penalty>
0.000

$$$$

  -OEChem-04052319463D

 85 92  0     1  0  0  0  0  0999 V2000
  -25.0533  -38.1518   22.3380 C   0  0  0  0  0  0  0  0  0  0  0  0
  -25.9121  -37.1175   21.9801 C   0  0  0  0  0  0  0  0  0  0  0  0
  -25.8675  -15.9738   21.5925 C   0  0  0  0  0  0  0  0  0  0  0  0
  -25.8368  -15.5529   19.2137 C   0  0  0  0  0  0  0  0  0  0  0  0
  -23.9664  -37.8965   23.1730 C   0  0  0  0  0  0  0  0  0  0  0  0
  -25.6850  -35.8273   22.4580 C   0  0  0  0  0  0  0  0  0  0  0  0
  -26.7606  -30.5676   19.5111 C   0  0  0  0  0  0  0  0  0  0  0  0
  -25.2675  -14.7352   21.8195 C   0  0  0  0  0  0  0  0  0  0  0  0
  -25.2369  -14.3143   19.4406 C   0  0  0  0  0  0  0  0  0  0  0  0
  -27.8174  -29.6599   19.5675 C   0  0  0  0  0  0  0  0  0  0  0  0
  -24.0260  -10.8862   19.4163 C   0  0  0  0  0  0  0  0  0  0  0  0
  -24.5229   -9.7863   18.7171 C   0  0  0  0  0  0  0  0  0  0  0  0
  -26.5712  -28.3156   21.1357 C   0  0  0  0  0  0  0  0  0  0  0  0
  -26.6918  -10.1245   19.7264 C   0  0  0  0  0  0  0  0  0  0  0  0
  -26.1521  -16.3827   20.2896 C   0  0  0  0  0  0  0  0  0  0  0  0
  -28.1498  -17.9402   19.9874 C   0  0  0  0  0  0  0  0  0  0  0  0
  -23.7203  -36.6006   23.6535 C   0  0  0  0  0  0  0  0  0  0  0  0
  -25.6037  -30.3614   20.2762 C   0  0  0  0  0  0  0  0  0  0  0  0
  -24.5945  -35.5547   23.3013 C   0  0  0  0  0  0  0  0  0  0  0  0
  -25.5001  -29.2208   21.0853 C   0  0  0  0  0  0  0  0  0  0  0  0
  -24.9522  -13.9054   20.7435 C   0  0  0  0  0  0  0  0  0  0  0  0
  -27.7240  -28.5353   20.3821 C   0  0  0  0  0  0  0  0  0  0  0  0
  -24.8620  -11.6054   20.2705 C   0  0  0  0  0  0  0  0  0  0  0  0
  -25.8558   -9.4054   18.8722 C   0  0  0  0  0  0  0  0  0  0  0  0
  -26.1949  -11.2244   20.4256 C   0  0  0  0  0  0  0  0  0  0  0  0
  -26.7713  -17.6623   20.0545 C   0  0  0  0  0  0  0  0  0  0  0  0
  -28.2165  -19.2907   19.7467 C   0  0  0  0  0  0  0  0  0  0  0  0
  -29.2697  -17.0564   20.1298 C   0  0  0  0  0  0  0  0  0  0  0  0
  -24.1424  -31.9537   22.6071 C   0  0  0  0  0  0  0  0  0  0  0  0
  -21.8743  -29.6677   22.2174 C   0  0  0  0  0  0  0  0  0  0  0  0
  -21.0864  -26.5171   21.1687 C   0  0  0  0  0  0  0  0  0  0  0  0
  -24.4196  -23.1762   17.2291 C   0  0  0  0  0  0  0  0  0  0  0  0
  -22.5598  -36.3825   24.5917 C   0  0  0  0  0  0  0  0  0  0  0  0
  -24.4617  -31.3359   20.1838 C   0  0  0  0  0  0  0  0  0  0  0  0
  -24.2714  -28.9430   21.9107 C   0  0  0  0  0  0  0  0  0  0  0  0
  -22.1740  -34.9143   24.7523 C   0  0  0  0  0  0  0  0  0  0  0  0
  -25.8047  -23.3528   20.5043 C   0  0  0  0  0  0  0  0  0  0  0  0
  -23.4157  -34.0578   24.9792 C   0  0  0  0  0  0  0  0  0  0  0  0
  -26.3339  -21.9395   20.7544 C   0  0  0  0  0  0  0  0  0  0  0  0
  -24.5069  -23.3353   19.6996 C   0  0  0  0  0  0  0  0  0  0  0  0
  -25.1036  -21.1716   18.6818 C   0  0  0  0  0  0  0  0  0  0  0  0
  -24.3672  -34.1369   23.7793 C   0  0  1  0  0  0  0  0  0  0  0  0
  -23.5403  -31.2937   21.3990 C   0  0  1  0  0  0  0  0  0  0  0  0
  -26.4407  -21.1404   19.4417 C   0  0  2  0  0  0  0  0  0  0  0  0
  -19.1596  -24.9170   21.0132 C   0  0  0  0  0  0  0  0  0  0  0  0
  -31.9368  -24.0201   15.9020 C   0  0  0  0  0  0  0  0  0  0  0  0
  -22.0921  -29.1182   25.2108 C   0  0  0  0  0  0  0  0  0  0  0  0
  -20.9023  -26.9488   24.8284 C   0  0  0  0  0  0  0  0  0  0  0  0
  -19.7573  -29.1047   24.3149 C   0  0  0  0  0  0  0  0  0  0  0  0
  -21.2814  -26.3878   18.2184 C   0  0  0  0  0  0  0  0  0  0  0  0
  -25.3358  -20.7083   12.8728 C   0  0  0  0  0  0  0  0  0  0  0  0
  -29.5241  -25.5081   18.5522 C   0  0  0  0  0  0  0  0  0  0  0  0
  -28.1083  -23.4877   13.7778 C   0  0  0  0  0  0  0  0  0  0  0  0
  -29.4463  -25.3448   20.0739 C   0  0  0  0  0  0  0  0  0  0  0  0
  -30.5348  -24.5302   17.9423 C   0  0  0  0  0  0  0  0  0  0  0  0
  -26.7965  -23.6010   14.5662 C   0  0  0  0  0  0  0  0  0  0  0  0
  -24.3934  -22.8657   14.7670 C   0  0  0  0  0  0  0  0  0  0  0  0
  -29.2444  -24.3123   14.3716 C   0  0  0  0  0  0  0  0  0  0  0  0
  -28.4238  -26.2851   20.7029 C   0  0  0  0  0  0  0  0  0  1  0  0
  -21.6211  -28.3014   22.8073 C   0  0  1  0  0  0  0  0  0  0  0  0
  -19.9555  -25.9983   20.2991 C   0  0  2  0  0  0  0  0  0  0  0  0
  -30.6416  -24.6342   16.4169 C   0  0  2  0  0  0  0  0  0  0  0  0
  -25.6674  -22.7815   13.9286 C   0  0  2  0  0  0  0  0  0  0  0  0
  -21.1173  -28.3742   24.2764 C   0  0  0  0  0  0  0  0  0  0  0  0
  -26.0167  -18.7491   19.8715 N   0  0  0  0  0  0  0  0  0  0  0  0
  -26.9243  -19.7230   19.6870 N   0  0  0  0  0  0  0  0  0  0  0  0
  -23.1843  -29.9286   21.7912 N   0  0  0  0  0  0  0  0  0  0  0  0
  -24.6762  -22.5629   18.4665 N   0  0  0  0  0  0  0  0  0  0  0  0
  -29.2538  -20.1389   19.5826 N   0  0  0  0  0  0  0  0  0  0  0  0
  -29.0226  -15.6986   20.3740 N   0  0  0  0  0  0  0  0  0  0  0  0
  -23.8840  -33.3083   22.6956 N   0  0  0  0  0  0  0  0  0  0  0  0
  -20.7053  -27.6259   21.8944 N   0  0  0  0  0  0  0  0  0  0  0  0
  -24.6106  -22.3753   16.1098 N   0  0  0  0  0  0  0  0  0  0  0  0
  -20.4959  -25.4259   19.0337 N   0  3  0  0  0  0  0  0  0  0  0  0
  -29.5067  -23.9113   15.7782 N   0  3  0  0  0  0  0  0  0  0  0  0
  -30.4548  -17.4618   20.0594 O   0  0  0  0  0  0  0  0  0  0  0  0
  -24.7921  -31.2834   23.4010 O   0  0  0  0  0  0  0  0  0  0  0  0
  -20.9424  -30.4714   22.1312 O   0  0  0  0  0  0  0  0  0  0  0  0
  -22.1957  -25.9892   21.2038 O   0  0  0  0  0  0  0  0  0  0  0  0
  -24.0530  -24.3520   17.1290 O   0  0  0  0  0  0  0  0  0  0  0  0
  -24.3670  -12.6966   20.9646 O   0  0  0  0  0  0  0  0  0  0  0  0
  -28.7543  -27.6481   20.4395 O   0  0  0  0  0  0  0  0  0  1  0  0
  -26.0817  -21.4185   13.8492 O   0  0  0  0  0  0  0  0  0  0  0  0
  -26.3324   -8.3482   18.2018 F   0  0  0  0  0  0  0  0  0  0  0  0
  -27.0025  -11.9107   21.2458 F   0  0  0  0  0  0  0  0  0  0  0  0
  1  2  1  0  0  0  0
  1  5  2  0  0  0  0
  2  6  2  0  0  0  0
  3  8  2  0  0  0  0
  3 15  1  0  0  0  0
  4  9  1  0  0  0  0
  4 15  2  0  0  0  0
  5 17  1  0  0  0  0
  6 19  1  0  0  0  0
  7 10  2  0  0  0  0
  7 18  1  0  0  0  0
  8 21  1  0  0  0  0
  9 21  2  0  0  0  0
 10 22  1  0  0  0  0
 11 12  2  0  0  0  0
 11 23  1  0  0  0  0
 12 24  1  0  0  0  0
 13 20  1  0  0  0  0
 13 22  2  0  0  0  0
 14 24  2  0  0  0  0
 14 25  1  0  0  0  0
 15 26  1  0  0  0  0
 16 26  1  0  0  0  0
 16 27  2  0  0  0  0
 16 28  1  0  0  0  0
 17 19  2  0  0  0  0
 17 33  1  0  0  0  0
 18 20  2  0  0  0  0
 18 34  1  0  0  0  0
 19 42  1  0  0  0  0
 20 35  1  0  0  0  0
 21 81  1  0  0  0  0
 22 82  1  0  0  0  0
 23 25  2  0  0  0  0
 23 81  1  0  0  0  0
 24 84  1  0  0  0  0
 25 85  1  0  0  0  0
 26 65  2  0  0  0  0
 27 66  1  0  0  0  0
 27 69  1  0  0  0  0
 28 70  1  0  0  0  0
 28 76  2  0  0  0  0
 29 43  1  0  0  0  0
 29 71  1  0  0  0  0
 29 77  2  0  0  0  0
 30 60  1  0  0  0  0
 30 67  1  0  0  0  0
 30 78  2  0  0  0  0
 31 61  1  0  0  0  0
 31 72  1  0  0  0  0
 31 79  2  0  0  0  0
 32 68  1  0  0  0  0
 32 73  1  0  0  0  0
 32 80  2  0  0  0  0
 33 36  1  0  0  0  0
 34 43  1  0  0  0  0
 35 67  1  0  0  0  0
 36 38  1  0  0  0  0
 37 39  1  0  0  0  0
 37 40  1  0  0  0  0
 38 42  1  0  0  0  0
 39 44  1  0  0  0  0
 40 68  1  0  0  0  0
 41 44  1  0  0  0  0
 41 68  1  0  0  0  0
 42 71  1  0  0  0  0
 43 67  1  0  0  0  0
 44 66  1  0  0  0  0
 45 61  1  0  0  0  0
 46 62  1  0  0  0  0
 47 64  1  0  0  0  0
 48 64  1  0  0  0  0
 49 64  1  0  0  0  0
 50 74  1  0  0  0  0
 51 83  1  0  0  0  0
 52 54  1  0  0  0  0
 52 55  1  0  0  0  0
 53 56  1  0  0  0  0
 53 58  1  0  0  0  0
 54 59  1  0  0  0  0
 55 62  1  0  0  0  0
 56 63  1  0  0  0  0
 57 63  1  0  0  0  0
 57 73  1  0  0  0  0
 58 75  1  0  0  0  0
 59 82  1  0  0  0  0
 60 64  1  0  0  0  0
 60 72  1  0  0  0  0
 61 74  1  0  0  0  0
 62 75  1  0  0  0  0
 63 83  1  0  0  0  0
 65 66  1  0  0  0  0
M  CHG  2  74   1  75   1
M  ISO  4  32 100  59 101  73 100  82 101
M  END
> <Batch ID>
0105

> <Smiles>
CNC(C)C(=O)NC(C(=O)N1Cc2cc([101O:1][101CH2:1]CCCC(C)NCCCC(C[100NH:0][100C:0](=O)N3CCCC(n4nc(-c5ccc(Oc6ccc(F)cc6F)cc5)c(C(N)=O)c4N)C3)OC)ccc2CC1C(=O)NC1CCCc2ccccc21)C(C)(C)C

> <Shape>
0.260

> <Color>
0.062

> <Negative vol penalty>
0.000

$$$$

  -OEChem-04052319463D

 85 93  0     1  0  0  0  0  0999 V2000
  -27.1173  -14.8364   12.3729 C   0  0  0  0  0  0  0  0  0  0  0  0
  -27.6646  -15.2625   13.5789 C   0  0  0  0  0  0  0  0  0  0  0  0
  -23.0721   -9.8685   19.9427 C   0  0  0  0  0  0  0  0  0  0  0  0
  -23.8341   -9.8769   22.2354 C   0  0  0  0  0  0  0  0  0  0  0  0
  -27.7106  -13.7877   11.6714 C   0  0  0  0  0  0  0  0  0  0  0  0
  -28.8049  -14.6393   14.0846 C   0  0  0  0  0  0  0  0  0  0  0  0
  -32.2294  -17.9516   15.8011 C   0  0  0  0  0  0  0  0  0  0  0  0
  -31.9605  -21.8189   22.5277 C   0  0  0  0  0  0  0  0  0  0  0  0
  -32.0338  -21.3447   21.2181 C   0  0  0  0  0  0  0  0  0  0  0  0
  -22.3291   -8.7151   20.1938 C   0  0  0  0  0  0  0  0  0  0  0  0
  -23.0910   -8.7235   22.4866 C   0  0  0  0  0  0  0  0  0  0  0  0
  -31.9940  -18.5200   17.0522 C   0  0  0  0  0  0  0  0  0  0  0  0
  -19.3826   -7.9175   21.6481 C   0  0  0  0  0  0  0  0  0  0  0  0
  -18.0753   -7.8703   21.1640 C   0  0  0  0  0  0  0  0  0  0  0  0
  -33.5468  -16.9635   18.0449 C   0  0  0  0  0  0  0  0  0  0  0  0
  -18.6349   -5.9270   19.8421 C   0  0  0  0  0  0  0  0  0  0  0  0
  -23.8247  -10.4494   20.9635 C   0  0  0  0  0  0  0  0  0  0  0  0
  -24.1650  -12.9747   20.8421 C   0  0  0  0  0  0  0  0  0  0  0  0
  -28.8643  -13.1577   12.1639 C   0  0  0  0  0  0  0  0  0  0  0  0
  -33.1185  -16.8759   15.6640 C   0  0  0  0  0  0  0  0  0  0  0  0
  -29.4134  -13.5803   13.3896 C   0  0  0  0  0  0  0  0  0  0  0  0
  -33.7937  -16.3848   16.7905 C   0  0  0  0  0  0  0  0  0  0  0  0
  -31.2581  -21.0970   23.4927 C   0  0  0  0  0  0  0  0  0  0  0  0
  -31.4046  -20.1485   20.8733 C   0  0  0  0  0  0  0  0  0  0  0  0
  -30.7022  -19.4265   21.8382 C   0  0  0  0  0  0  0  0  0  0  0  0
  -30.6290  -19.9007   23.1479 C   0  0  0  0  0  0  0  0  0  0  0  0
  -22.3385   -8.1426   21.4657 C   0  0  0  0  0  0  0  0  0  0  0  0
  -32.6506  -18.0241   18.1748 C   0  0  0  0  0  0  0  0  0  0  0  0
  -20.3161   -6.9695   21.2291 C   0  0  0  0  0  0  0  0  0  0  0  0
  -17.7015   -6.8751   20.2610 C   0  0  0  0  0  0  0  0  0  0  0  0
  -19.9423   -5.9742   20.3261 C   0  0  0  0  0  0  0  0  0  0  0  0
  -24.5929  -11.6406   20.7046 C   0  0  0  0  0  0  0  0  0  0  0  0
  -25.2564  -13.7247   20.4776 C   0  0  0  0  0  0  0  0  0  0  0  0
  -22.8946  -13.4900   21.2619 C   0  0  0  0  0  0  0  0  0  0  0  0
  -32.8565  -13.8578   14.7015 C   0  0  0  0  0  0  0  0  0  0  0  0
  -36.0844  -13.8844   15.0216 C   0  0  0  0  0  0  0  0  0  0  0  0
  -38.8395  -15.2698   16.4834 C   0  0  0  0  0  0  0  0  0  0  0  0
  -30.7398  -14.7468   20.6606 C   0  0  0  0  0  0  0  0  0  0  0  0
  -29.4427  -11.9972   11.3937 C   0  0  0  0  0  0  0  0  0  0  0  0
  -33.3817  -16.2913   14.3033 C   0  0  0  0  0  0  0  0  0  0  0  0
  -34.7732  -15.2449   16.6936 C   0  0  0  0  0  0  0  0  0  0  0  0
  -30.8663  -11.6378   11.8114 C   0  0  0  0  0  0  0  0  0  0  0  0
  -29.6014  -12.3607   18.2759 C   0  0  0  0  0  0  0  0  0  0  0  0
  -30.9785  -11.5821   13.3317 C   0  0  0  0  0  0  0  0  0  0  0  0
  -28.1645  -12.0663   18.7102 C   0  0  0  0  0  0  0  0  0  0  0  0
  -30.5194  -12.5825   19.4758 C   0  0  0  0  0  0  0  0  0  0  0  0
  -28.6185  -13.3131   20.8638 C   0  0  0  0  0  0  0  0  0  0  0  0
  -30.6640  -12.9458   13.9584 C   0  0  1  0  0  0  0  0  0  0  0  0
  -33.9185  -14.8644   14.3597 C   0  0  1  0  0  0  0  0  0  0  0  0
  -27.6434  -13.1375   19.6871 C   0  0  2  0  0  0  0  0  0  0  0  0
  -30.5871  -23.0246   24.9489 C   0  0  0  0  0  0  0  0  0  0  0  0
  -28.6871  -19.9191   24.7549 C   0  0  0  0  0  0  0  0  0  0  0  0
  -30.7871  -18.6484   25.3298 C   0  0  0  0  0  0  0  0  0  0  0  0
  -41.3379  -15.0544   16.5776 C   0  0  0  0  0  0  0  0  0  0  0  0
  -35.8026  -11.4241   16.8041 C   0  0  0  0  0  0  0  0  0  0  0  0
  -38.1378  -11.8277   17.6116 C   0  0  0  0  0  0  0  0  0  0  0  0
  -37.7206  -11.3372   15.2016 C   0  0  0  0  0  0  0  0  0  0  0  0
  -39.2314  -18.0105   15.4374 C   0  0  0  0  0  0  0  0  0  0  0  0
  -31.1956  -21.6269   24.8880 C   0  0  0  0  0  0  0  0  0  0  0  0
  -30.0267  -18.1445   21.4662 C   0  0  0  0  0  0  0  0  0  0  0  0
  -31.4974  -19.6618   19.4570 C   0  0  0  0  0  0  0  0  0  1  0  0
  -30.8055  -16.8979   21.8966 C   0  0  0  0  0  0  0  0  0  0  0  0
  -29.8775  -19.1279   24.1851 C   0  0  0  0  0  0  0  0  0  0  0  0
  -37.0500  -13.5857   16.1430 C   0  0  1  0  0  0  0  0  0  0  0  0
  -40.1605  -15.7388   15.9008 C   0  0  2  0  0  0  0  0  0  0  0  0
  -37.1579  -12.0639   16.4425 C   0  0  0  0  0  0  0  0  0  0  0  0
  -25.8574  -11.5453   20.2852 N   0  0  0  0  0  0  0  0  0  0  0  0
  -26.2335  -12.8290   20.1560 N   0  0  0  0  0  0  0  0  0  0  0  0
  -34.9920  -14.7028   15.3424 N   0  0  0  0  0  0  0  0  0  0  0  0
  -29.9691  -13.6111   20.3619 N   0  0  0  0  0  0  0  0  0  0  0  0
  -25.4660  -15.0562   20.4038 N   0  0  0  0  0  0  0  0  0  0  0  0
  -21.8835  -12.5804   21.6005 N   0  0  0  0  0  0  0  0  0  0  0  0
  -31.7940  -13.8392   13.8182 N   0  0  0  0  0  0  0  0  0  0  0  0
  -38.3138  -14.2126   15.7712 N   0  0  0  0  0  0  0  0  0  0  0  0
  -30.1409  -15.6756   21.5028 N   0  0  0  0  0  0  0  0  0  0  0  0
  -40.3096  -17.2114   16.0745 N   0  3  0  0  0  0  0  0  0  0  0  0
  -22.6577  -14.7205   21.3190 O   0  0  0  0  0  0  0  0  0  0  0  0
  -32.9918  -13.1495   15.6923 O   0  0  0  0  0  0  0  0  0  0  0  0
  -36.2955  -13.4150   13.9006 O   0  0  0  0  0  0  0  0  0  0  0  0
  -38.3272  -15.7870   17.4736 O   0  0  0  0  0  0  0  0  0  0  0  0
  -31.8752  -14.9227   20.2059 O   0  0  0  0  0  0  0  0  0  0  0  0
  -21.6134   -7.0172   21.7112 O   0  0  0  0  0  0  0  0  0  0  0  0
  -32.4221  -18.5767   19.3972 O   0  0  0  0  0  0  0  0  0  1  0  0
  -16.4456   -6.8290   19.7974 F   0  0  0  0  0  0  0  0  0  0  0  0
  -20.8343   -5.0600   19.9209 F   0  0  0  0  0  0  0  0  0  0  0  0
  1  2  1  0  0  0  0
  1  5  2  0  0  0  0
  2  6  2  0  0  0  0
  3 10  2  0  0  0  0
  3 17  1  0  0  0  0
  4 11  1  0  0  0  0
  4 17  2  0  0  0  0
  5 19  1  0  0  0  0
  6 21  1  0  0  0  0
  7 12  2  0  0  0  0
  7 20  1  0  0  0  0
  8  9  2  0  0  0  0
  8 23  1  0  0  0  0
  9 24  1  0  0  0  0
 10 27  1  0  0  0  0
 11 27  2  0  0  0  0
 12 28  1  0  0  0  0
 13 14  2  0  0  0  0
 13 29  1  0  0  0  0
 14 30  1  0  0  0  0
 15 22  1  0  0  0  0
 15 28  2  0  0  0  0
 16 30  2  0  0  0  0
 16 31  1  0  0  0  0
 17 32  1  0  0  0  0
 18 32  1  0  0  0  0
 18 33  2  0  0  0  0
 18 34  1  0  0  0  0
 19 21  2  0  0  0  0
 19 39  1  0  0  0  0
 20 22  2  0  0  0  0
 20 40  1  0  0  0  0
 21 48  1  0  0  0  0
 22 41  1  0  0  0  0
 23 26  2  0  0  0  0
 23 59  1  0  0  0  0
 24 25  2  0  0  0  0
 24 61  1  0  0  0  0
 25 26  1  0  0  0  0
 25 60  1  0  0  0  0
 26 63  1  0  0  0  0
 27 82  1  0  0  0  0
 28 83  1  0  0  0  0
 29 31  2  0  0  0  0
 29 82  1  0  0  0  0
 30 84  1  0  0  0  0
 31 85  1  0  0  0  0
 32 67  2  0  0  0  0
 33 68  1  0  0  0  0
 33 71  1  0  0  0  0
 34 72  1  0  0  0  0
 34 77  2  0  0  0  0
 35 49  1  0  0  0  0
 35 73  1  0  0  0  0
 35 78  2  0  0  0  0
 36 64  1  0  0  0  0
 36 69  1  0  0  0  0
 36 79  2  0  0  0  0
 37 65  1  0  0  0  0
 37 74  1  0  0  0  0
 37 80  2  0  0  0  0
 38 70  1  0  0  0  0
 38 75  1  0  0  0  0
 38 81  2  0  0  0  0
 39 42  1  0  0  0  0
 40 49  1  0  0  0  0
 41 69  1  0  0  0  0
 42 44  1  0  0  0  0
 43 45  1  0  0  0  0
 43 46  1  0  0  0  0
 44 48  1  0  0  0  0
 45 50  1  0  0  0  0
 46 70  1  0  0  0  0
 47 50  1  0  0  0  0
 47 70  1  0  0  0  0
 48 73  1  0  0  0  0
 49 69  1  0  0  0  0
 50 68  1  0  0  0  0
 51 59  1  0  0  0  0
 52 63  1  0  0  0  0
 53 63  1  0  0  0  0
 54 65  1  0  0  0  0
 55 66  1  0  0  0  0
 56 66  1  0  0  0  0
 57 66  1  0  0  0  0
 58 76  1  0  0  0  0
 60 62  1  0  0  0  0
 61 83  1  0  0  0  0
 62 75  1  0  0  0  0
 64 66  1  0  0  0  0
 64 74  1  0  0  0  0
 65 76  1  0  0  0  0
 67 68  1  0  0  0  0
M  CHG  1  76   1
M  ISO  4  38 100  61 101  75 100  83 101
M  END
> <Batch ID>
0105

> <Smiles>
CCc1ccc([101CH2:1][101O:1]c2ccc3c(c2)CN(C(=O)C(NC(=O)C(C)NC)C(C)(C)C)C(C(=O)NC2CCCc4ccccc42)C3)c(CC[100NH:0][100C:0](=O)N2CCCC(n3nc(-c4ccc(Oc5ccc(F)cc5F)cc4)c(C(N)=O)c3N)C2)c1C(C)C

> <Shape>
0.151

> <Color>
0.191

> <Negative vol penalty>
0.000

$$$$

  -OEChem-04052319463D

 84 92  0     1  0  0  0  0  0999 V2000
  -36.1518  -28.6167   24.3241 C   0  0  0  0  0  0  0  0  0  0  0  0
  -35.1691  -27.7191   24.7293 C   0  0  0  0  0  0  0  0  0  0  0  0
  -22.9944   -9.8948   19.9860 C   0  0  0  0  0  0  0  0  0  0  0  0
  -23.7233   -9.9485   22.2888 C   0  0  0  0  0  0  0  0  0  0  0  0
  -35.7905  -29.8055   23.6916 C   0  0  0  0  0  0  0  0  0  0  0  0
  -33.8243  -28.0105   24.5031 C   0  0  0  0  0  0  0  0  0  0  0  0
  -31.2541  -24.0404   22.6928 C   0  0  0  0  0  0  0  0  0  0  0  0
  -22.2268   -8.7618   20.2553 C   0  0  0  0  0  0  0  0  0  0  0  0
  -22.9555   -8.8154   22.5582 C   0  0  0  0  0  0  0  0  0  0  0  0
  -30.8797  -23.0547   23.6049 C   0  0  0  0  0  0  0  0  0  0  0  0
  -23.1946   -5.4754   22.0912 C   0  0  0  0  0  0  0  0  0  0  0  0
  -23.7819   -4.4586   22.8441 C   0  0  0  0  0  0  0  0  0  0  0  0
  -28.6560  -23.9859   23.6892 C   0  0  0  0  0  0  0  0  0  0  0  0
  -28.7652  -18.1875   22.3098 C   0  0  0  0  0  0  0  0  0  0  0  0
  -22.0609   -4.7066   24.5215 C   0  0  0  0  0  0  0  0  0  0  0  0
  -30.4205  -18.0644   24.0131 C   0  0  0  0  0  0  0  0  0  0  0  0
  -23.7427  -10.4881   21.0028 C   0  0  0  0  0  0  0  0  0  0  0  0
  -24.1312  -13.0029   20.8221 C   0  0  0  0  0  0  0  0  0  0  0  0
  -34.4411  -30.1071   23.4490 C   0  0  0  0  0  0  0  0  0  0  0  0
  -30.3338  -25.0144   22.2797 C   0  0  0  0  0  0  0  0  0  0  0  0
  -33.4445  -29.2051   23.8680 C   0  0  0  0  0  0  0  0  0  0  0  0
  -29.0205  -24.9813   22.7698 C   0  0  0  0  0  0  0  0  0  0  0  0
  -29.9949  -17.7055   22.7443 C   0  0  0  0  0  0  0  0  0  0  0  0
  -28.0094  -19.0021   23.1456 C   0  0  0  0  0  0  0  0  0  0  0  0
  -22.2073   -8.2221   21.5414 C   0  0  0  0  0  0  0  0  0  0  0  0
  -29.5813  -23.0290   24.1055 C   0  0  0  0  0  0  0  0  0  0  0  0
  -22.0405   -6.1079   22.5536 C   0  0  0  0  0  0  0  0  0  0  0  0
  -23.2151   -4.0742   24.0592 C   0  0  0  0  0  0  0  0  0  0  0  0
  -21.4736   -5.7234   23.7687 C   0  0  0  0  0  0  0  0  0  0  0  0
  -24.5364  -11.6582   20.7250 C   0  0  0  0  0  0  0  0  0  0  0  0
  -28.5238  -19.3027   24.3965 C   0  0  0  0  0  0  0  0  0  0  0  0
  -25.2414  -13.7234   20.4549 C   0  0  0  0  0  0  0  0  0  0  0  0
  -22.8646  -13.5517   21.2097 C   0  0  0  0  0  0  0  0  0  0  0  0
  -30.1683  -28.1811   22.5004 C   0  0  0  0  0  0  0  0  0  0  0  0
  -27.5532  -27.7856   20.6223 C   0  0  0  0  0  0  0  0  0  0  0  0
  -25.0478  -25.7375   19.5381 C   0  0  0  0  0  0  0  0  0  0  0  0
  -30.7394  -14.6508   20.6934 C   0  0  0  0  0  0  0  0  0  0  0  0
  -34.0967  -31.4264   22.8044 C   0  0  0  0  0  0  0  0  0  0  0  0
  -30.7458  -26.0550   21.2747 C   0  0  0  0  0  0  0  0  0  0  0  0
  -27.9888  -25.9921   22.3425 C   0  0  0  0  0  0  0  0  0  0  0  0
  -32.6696  -31.4871   22.2659 C   0  0  0  0  0  0  0  0  0  0  0  0
  -29.5918  -12.2250   18.3536 C   0  0  0  0  0  0  0  0  0  0  0  0
  -31.6860  -30.9455   23.2983 C   0  0  0  0  0  0  0  0  0  0  0  0
  -28.1436  -11.9679   18.7738 C   0  0  0  0  0  0  0  0  0  0  0  0
  -30.4964  -12.4611   19.5611 C   0  0  0  0  0  0  0  0  0  0  0  0
  -28.5894  -13.2613   20.9015 C   0  0  0  0  0  0  0  0  0  0  0  0
  -31.9764  -29.4741   23.6182 C   0  0  1  0  0  0  0  0  0  0  0  0
  -29.8720  -27.3048   21.3163 C   0  0  1  0  0  0  0  0  0  0  0  0
  -27.6283  -13.0731   19.7153 C   0  0  2  0  0  0  0  0  0  0  0  0
  -23.0407  -25.7076   18.0321 C   0  0  0  0  0  0  0  0  0  0  0  0
  -25.3449  -17.5340   23.5401 C   0  0  0  0  0  0  0  0  0  0  0  0
  -24.3596  -19.0625   21.8206 C   0  0  0  0  0  0  0  0  0  0  0  0
  -25.9806  -29.3857   22.6903 C   0  0  0  0  0  0  0  0  0  0  0  0
  -23.8720  -28.5246   21.6508 C   0  0  0  0  0  0  0  0  0  0  0  0
  -25.4353  -29.9342   20.3121 C   0  0  0  0  0  0  0  0  0  0  0  0
  -26.1956  -23.5880   17.8585 C   0  0  0  0  0  0  0  0  0  0  0  0
  -26.6918  -19.5234   22.6856 C   0  0  0  0  0  0  0  0  0  0  0  0
  -30.8270  -16.8315   21.8750 C   0  0  0  0  0  0  0  0  0  0  0  0
  -27.7474  -20.1816   25.3468 C   0  0  0  0  0  0  0  0  0  0  0  0
  -27.8465  -21.6589   24.9825 C   0  0  0  0  0  0  0  0  0  1  0  0
  -26.0823  -27.5552   20.8724 C   0  0  1  0  0  0  0  0  0  0  0  0
  -24.5314  -25.4285   18.1444 C   0  0  2  0  0  0  0  0  0  0  0  0
  -25.6536  -18.4278   22.3363 C   0  0  0  0  0  0  0  0  0  0  0  0
  -25.3623  -28.8319   21.3911 C   0  0  0  0  0  0  0  0  0  0  0  0
  -29.7142  -18.8534   24.8534 N   0  0  0  0  0  0  0  0  0  0  0  0
  -25.8049  -11.5293   20.3271 N   0  0  0  0  0  0  0  0  0  0  0  0
  -26.2064  -12.8023   20.1708 N   0  0  0  0  0  0  0  0  0  0  0  0
  -28.4419  -26.9934   21.3628 N   0  0  0  0  0  0  0  0  0  0  0  0
  -29.9524  -13.5219   20.4123 N   0  0  0  0  0  0  0  0  0  0  0  0
  -25.4765  -15.0486   20.3503 N   0  0  0  0  0  0  0  0  0  0  0  0
  -21.8321  -12.6695   21.5563 N   0  0  0  0  0  0  0  0  0  0  0  0
  -31.4773  -28.6193   22.5624 N   0  0  0  0  0  0  0  0  0  0  0  0
  -25.5351  -27.0243   19.6286 N   0  0  0  0  0  0  0  0  0  0  0  0
  -30.1456  -15.6117   21.5027 N   0  0  0  0  0  0  0  0  0  0  0  0
  -24.7678  -23.9956   17.8104 N   0  3  0  0  0  0  0  0  0  0  0  0
  -22.6496  -14.7873   21.2319 O   0  0  0  0  0  0  0  0  0  0  0  0
  -29.2750  -28.4415   23.2979 O   0  0  0  0  0  0  0  0  0  0  0  0
  -27.9006  -28.6321   19.7951 O   0  0  0  0  0  0  0  0  0  0  0  0
  -25.0182  -24.9205   20.4558 O   0  0  0  0  0  0  0  0  0  0  0  0
  -31.8844  -14.7945   20.2514 O   0  0  0  0  0  0  0  0  0  0  0  0
  -21.4581   -7.1167   21.8046 O   0  0  0  0  0  0  0  0  0  0  0  0
  -29.2134  -22.0684   24.9964 O   0  0  0  0  0  0  0  0  0  1  0  0
  -23.7783   -3.0967   24.7813 F   0  0  0  0  0  0  0  0  0  0  0  0
  -20.3643   -6.3265   24.2175 F   0  0  0  0  0  0  0  0  0  0  0  0
  1  2  1  0  0  0  0
  1  5  2  0  0  0  0
  2  6  2  0  0  0  0
  3  8  2  0  0  0  0
  3 17  1  0  0  0  0
  4  9  1  0  0  0  0
  4 17  2  0  0  0  0
  5 19  1  0  0  0  0
  6 21  1  0  0  0  0
  7 10  2  0  0  0  0
  7 20  1  0  0  0  0
  8 25  1  0  0  0  0
  9 25  2  0  0  0  0
 10 26  1  0  0  0  0
 11 12  2  0  0  0  0
 11 27  1  0  0  0  0
 12 28  1  0  0  0  0
 13 22  1  0  0  0  0
 13 26  2  0  0  0  0
 14 23  2  0  0  0  0
 14 24  1  0  0  0  0
 15 28  2  0  0  0  0
 15 29  1  0  0  0  0
 16 23  1  0  0  0  0
 16 65  2  0  0  0  0
 17 30  1  0  0  0  0
 18 30  1  0  0  0  0
 18 32  2  0  0  0  0
 18 33  1  0  0  0  0
 19 21  2  0  0  0  0
 19 38  1  0  0  0  0
 20 22  2  0  0  0  0
 20 39  1  0  0  0  0
 21 47  1  0  0  0  0
 22 40  1  0  0  0  0
 23 58  1  0  0  0  0
 24 31  2  0  0  0  0
 24 57  1  0  0  0  0
 25 81  1  0  0  0  0
 26 82  1  0  0  0  0
 27 29  2  0  0  0  0
 27 81  1  0  0  0  0
 28 83  1  0  0  0  0
 29 84  1  0  0  0  0
 30 66  2  0  0  0  0
 31 59  1  0  0  0  0
 31 65  1  0  0  0  0
 32 67  1  0  0  0  0
 32 70  1  0  0  0  0
 33 71  1  0  0  0  0
 33 76  2  0  0  0  0
 34 48  1  0  0  0  0
 34 72  1  0  0  0  0
 34 77  2  0  0  0  0
 35 61  1  0  0  0  0
 35 68  1  0  0  0  0
 35 78  2  0  0  0  0
 36 62  1  0  0  0  0
 36 73  1  0  0  0  0
 36 79  2  0  0  0  0
 37 69  1  0  0  0  0
 37 74  1  0  0  0  0
 37 80  2  0  0  0  0
 38 41  1  0  0  0  0
 39 48  1  0  0  0  0
 40 68  1  0  0  0  0
 41 43  1  0  0  0  0
 42 44  1  0  0  0  0
 42 45  1  0  0  0  0
 43 47  1  0  0  0  0
 44 49  1  0  0  0  0
 45 69  1  0  0  0  0
 46 49  1  0  0  0  0
 46 69  1  0  0  0  0
 47 72  1  0  0  0  0
 48 68  1  0  0  0  0
 49 67  1  0  0  0  0
 50 62  1  0  0  0  0
 51 63  1  0  0  0  0
 52 63  1  0  0  0  0
 53 64  1  0  0  0  0
 54 64  1  0  0  0  0
 55 64  1  0  0  0  0
 56 75  1  0  0  0  0
 57 63  1  0  0  0  0
 58 74  1  0  0  0  0
 59 60  1  0  0  0  0
 60 82  1  0  0  0  0
 61 64  1  0  0  0  0
 61 73  1  0  0  0  0
 62 75  1  0  0  0  0
 66 67  1  0  0  0  0
M  CHG  1  75   1
M  ISO  4  37 100  60 101  74 100  82 101
M  END
> <Batch ID>
0105

> <Smiles>
CNC(C)C(=O)NC(C(=O)N1Cc2cc([101O:1][101CH2:1]Cc3ncc(C[100NH:0][100C:0](=O)N4CCCC(n5nc(-c6ccc(Oc7ccc(F)cc7F)cc6)c(C(N)=O)c5N)C4)cc3CC(C)C)ccc2CC1C(=O)NC1CCCc2ccccc21)C(C)(C)C

> <Shape>
0.244

> <Color>
0.198

> <Negative vol penalty>
0.000

$$$$

  -OEChem-04052319463D

 83 91  0     1  0  0  0  0  0999 V2000
  -15.6655  -27.9143   19.0633 C   0  0  0  0  0  0  0  0  0  0  0  0
  -16.8155  -27.1968   18.7499 C   0  0  0  0  0  0  0  0  0  0  0  0
  -23.3319   -9.6496   21.0990 C   0  0  0  0  0  0  0  0  0  0  0  0
  -23.9701  -10.4703   23.2799 C   0  0  0  0  0  0  0  0  0  0  0  0
  -15.5993  -28.6377   20.2534 C   0  0  0  0  0  0  0  0  0  0  0  0
  -17.9003  -27.2031   19.6260 C   0  0  0  0  0  0  0  0  0  0  0  0
  -21.7707  -22.5863   20.7265 C   0  0  0  0  0  0  0  0  0  0  0  0
  -22.6668   -8.5790   21.6966 C   0  0  0  0  0  0  0  0  0  0  0  0
  -23.3049   -9.3998   23.8775 C   0  0  0  0  0  0  0  0  0  0  0  0
  -23.0458  -22.2958   20.2432 C   0  0  0  0  0  0  0  0  0  0  0  0
  -20.1208   -8.5567   24.6328 C   0  0  0  0  0  0  0  0  0  0  0  0
  -19.3099   -8.8325   25.7337 C   0  0  0  0  0  0  0  0  0  0  0  0
  -24.0148  -23.3329   22.1937 C   0  0  0  0  0  0  0  0  0  0  0  0
  -29.2361  -18.5335   21.3031 C   0  0  0  0  0  0  0  0  0  0  0  0
  -20.6567   -7.3593   27.0949 C   0  0  0  0  0  0  0  0  0  0  0  0
  -31.6832  -19.2785   20.3534 C   0  0  0  0  0  0  0  0  0  0  0  0
  -23.9837  -10.5952   21.8907 C   0  0  0  0  0  0  0  0  0  0  0  0
  -24.1366  -12.9637   20.9555 C   0  0  0  0  0  0  0  0  0  0  0  0
  -16.6802  -28.6451   21.1490 C   0  0  0  0  0  0  0  0  0  0  0  0
  -21.6081  -23.2631   21.9438 C   0  0  0  0  0  0  0  0  0  0  0  0
  -17.8490  -27.9284   20.8285 C   0  0  0  0  0  0  0  0  0  0  0  0
  -22.7366  -23.6285   22.6915 C   0  0  0  0  0  0  0  0  0  0  0  0
  -29.5922  -19.8775   21.3153 C   0  0  0  0  0  0  0  0  0  0  0  0
  -30.8373  -20.2654   20.8332 C   0  0  0  0  0  0  0  0  0  0  0  0
  -22.6533   -8.4541   23.0858 C   0  0  0  0  0  0  0  0  0  0  0  0
  -24.1681  -22.6716   20.9754 C   0  0  0  0  0  0  0  0  0  0  0  0
  -21.1996   -7.6820   24.7629 C   0  0  0  0  0  0  0  0  0  0  0  0
  -19.5779   -8.2339   26.9648 C   0  0  0  0  0  0  0  0  0  0  0  0
  -21.4675   -7.0833   25.9940 C   0  0  0  0  0  0  0  0  0  0  0  0
  -24.6714  -11.7010   21.2740 C   0  0  0  0  0  0  0  0  0  0  0  0
  -30.1536  -17.6241   20.8021 C   0  0  0  0  0  0  0  0  0  0  0  0
  -25.1853  -13.6485   20.3918 C   0  0  0  0  0  0  0  0  0  0  0  0
  -22.8105  -13.4722   21.1517 C   0  0  0  0  0  0  0  0  0  0  0  0
  -20.3288  -26.0401   22.8129 C   0  0  0  0  0  0  0  0  0  0  0  0
  -20.9423  -24.9425   25.8031 C   0  0  0  0  0  0  0  0  0  0  0  0
  -22.7798  -22.8872   27.8146 C   0  0  0  0  0  0  0  0  0  0  0  0
  -30.5390  -15.1776   20.3413 C   0  0  0  0  0  0  0  0  0  0  0  0
  -16.5799  -29.4802   22.4009 C   0  0  0  0  0  0  0  0  0  0  0  0
  -20.2254  -23.5454   22.4644 C   0  0  0  0  0  0  0  0  0  0  0  0
  -22.6157  -24.3390   24.0140 C   0  0  0  0  0  0  0  0  0  0  0  0
  -17.6312  -29.1316   23.4515 C   0  0  0  0  0  0  0  0  0  0  0  0
  -29.7362  -12.0352   18.8724 C   0  0  0  0  0  0  0  0  0  0  0  0
  -19.0095  -29.0136   22.8087 C   0  0  0  0  0  0  0  0  0  0  0  0
  -28.3030  -11.7720   19.3401 C   0  0  0  0  0  0  0  0  0  0  0  0
  -30.5681  -12.7233   19.9532 C   0  0  0  0  0  0  0  0  0  0  0  0
  -28.5427  -13.6846   20.9746 C   0  0  0  0  0  0  0  0  0  0  0  0
  -19.0372  -27.8906   21.7649 C   0  0  1  0  0  0  0  0  0  0  0  0
  -20.1874  -24.6947   23.4668 C   0  0  1  0  0  0  0  0  0  0  0  0
  -27.6479  -13.0513   19.8966 C   0  0  2  0  0  0  0  0  0  0  0  0
  -23.0789  -22.2379   30.2201 C   0  0  0  0  0  0  0  0  0  0  0  0
  -22.4367  -27.5522   26.3192 C   0  0  0  0  0  0  0  0  0  0  0  0
  -23.4896  -26.4728   28.3179 C   0  0  0  0  0  0  0  0  0  0  0  0
  -21.0147  -26.7704   28.2222 C   0  0  0  0  0  0  0  0  0  0  0  0
  -30.9699  -22.4596   19.6806 C   0  0  0  0  0  0  0  0  0  0  0  0
  -31.9267  -22.1821   21.9732 C   0  0  0  0  0  0  0  0  0  0  0  0
  -22.0531  -20.0713   27.2655 C   0  0  0  0  0  0  0  0  0  0  0  0
  -28.6131  -20.8905   21.8528 C   0  0  0  0  0  0  0  0  0  0  0  0
  -27.4695  -21.2135   20.8888 C   0  0  0  0  0  0  0  0  0  0  0  0
  -26.4394  -22.1726   21.4738 C   0  0  0  0  0  0  0  0  0  1  0  0
  -22.1113  -25.0282   26.7545 C   0  0  1  0  0  0  0  0  0  0  0  0
  -22.3696  -21.9223   28.9124 C   0  0  2  0  0  0  0  0  0  0  0  0
  -22.2657  -26.4442   27.3776 C   0  0  0  0  0  0  0  0  0  0  0  0
  -31.3724  -17.9632   20.3253 N   0  0  0  0  0  0  0  0  0  0  0  0
  -25.9597  -11.5876   20.9402 N   0  0  0  0  0  0  0  0  0  0  0  0
  -26.2432  -12.7878   20.4061 N   0  0  0  0  0  0  0  0  0  0  0  0
  -21.2426  -24.5982   24.4776 N   0  0  0  0  0  0  0  0  0  0  0  0
  -29.8873  -13.9293   20.4297 N   0  0  0  0  0  0  0  0  0  0  0  0
  -25.2965  -14.8969   19.8902 N   0  0  0  0  0  0  0  0  0  0  0  0
  -21.8552  -12.6357   21.7452 N   0  0  0  0  0  0  0  0  0  0  0  0
  -29.7814  -16.2570   20.7948 N   0  0  0  0  0  0  0  0  0  0  0  0
  -19.1304  -26.6001   22.4133 N   0  0  0  0  0  0  0  0  0  0  0  0
  -21.9206  -23.9625   27.7325 N   0  0  0  0  0  0  0  0  0  0  0  0
  -31.2420  -21.6121   20.8272 N   0  0  0  0  0  0  0  0  0  0  0  0
  -22.7025  -20.5229   28.5230 N   0  3  0  0  0  0  0  0  0  0  0  0
  -22.4779  -14.6281   20.7959 O   0  0  0  0  0  0  0  0  0  0  0  0
  -21.4425  -26.5343   22.6821 O   0  0  0  0  0  0  0  0  0  0  0  0
  -19.8038  -25.1657   26.2224 O   0  0  0  0  0  0  0  0  0  0  0  0
  -23.7661  -22.7071   27.1038 O   0  0  0  0  0  0  0  0  0  0  0  0
  -31.6744  -15.2851   19.8708 O   0  0  0  0  0  0  0  0  0  0  0  0
  -22.0041   -7.4097   23.6692 O   0  0  0  0  0  0  0  0  0  0  0  0
  -25.4138  -22.3898   20.5056 O   0  0  0  0  0  0  0  0  0  1  0  0
  -18.8000   -8.5001   28.0222 F   0  0  0  0  0  0  0  0  0  0  0  0
  -22.5032   -6.2431   26.1254 F   0  0  0  0  0  0  0  0  0  0  0  0
  1  2  1  0  0  0  0
  1  5  2  0  0  0  0
  2  6  2  0  0  0  0
  3  8  2  0  0  0  0
  3 17  1  0  0  0  0
  4  9  1  0  0  0  0
  4 17  2  0  0  0  0
  5 19  1  0  0  0  0
  6 21  1  0  0  0  0
  7 10  2  0  0  0  0
  7 20  1  0  0  0  0
  8 25  1  0  0  0  0
  9 25  2  0  0  0  0
 10 26  1  0  0  0  0
 11 12  2  0  0  0  0
 11 27  1  0  0  0  0
 12 28  1  0  0  0  0
 13 22  1  0  0  0  0
 13 26  2  0  0  0  0
 14 23  1  0  0  0  0
 14 31  2  0  0  0  0
 15 28  2  0  0  0  0
 15 29  1  0  0  0  0
 16 24  1  0  0  0  0
 16 63  2  0  0  0  0
 17 30  1  0  0  0  0
 18 30  1  0  0  0  0
 18 32  2  0  0  0  0
 18 33  1  0  0  0  0
 19 21  2  0  0  0  0
 19 38  1  0  0  0  0
 20 22  2  0  0  0  0
 20 39  1  0  0  0  0
 21 47  1  0  0  0  0
 22 40  1  0  0  0  0
 23 24  2  0  0  0  0
 23 57  1  0  0  0  0
 24 73  1  0  0  0  0
 25 80  1  0  0  0  0
 26 81  1  0  0  0  0
 27 29  2  0  0  0  0
 27 80  1  0  0  0  0
 28 82  1  0  0  0  0
 29 83  1  0  0  0  0
 30 64  2  0  0  0  0
 31 63  1  0  0  0  0
 31 70  1  0  0  0  0
 32 65  1  0  0  0  0
 32 68  1  0  0  0  0
 33 69  1  0  0  0  0
 33 75  2  0  0  0  0
 34 48  1  0  0  0  0
 34 71  1  0  0  0  0
 34 76  2  0  0  0  0
 35 60  1  0  0  0  0
 35 66  1  0  0  0  0
 35 77  2  0  0  0  0
 36 61  1  0  0  0  0
 36 72  1  0  0  0  0
 36 78  2  0  0  0  0
 37 67  1  0  0  0  0
 37 70  1  0  0  0  0
 37 79  2  0  0  0  0
 38 41  1  0  0  0  0
 39 48  1  0  0  0  0
 40 66  1  0  0  0  0
 41 43  1  0  0  0  0
 42 44  1  0  0  0  0
 42 45  1  0  0  0  0
 43 47  1  0  0  0  0
 44 49  1  0  0  0  0
 45 67  1  0  0  0  0
 46 49  1  0  0  0  0
 46 67  1  0  0  0  0
 47 71  1  0  0  0  0
 48 66  1  0  0  0  0
 49 65  1  0  0  0  0
 50 61  1  0  0  0  0
 51 62  1  0  0  0  0
 52 62  1  0  0  0  0
 53 62  1  0  0  0  0
 54 73  1  0  0  0  0
 55 73  1  0  0  0  0
 56 74  1  0  0  0  0
 57 58  1  0  0  0  0
 58 59  1  0  0  0  0
 59 81  1  0  0  0  0
 60 62  1  0  0  0  0
 60 72  1  0  0  0  0
 61 74  1  0  0  0  0
 64 65  1  0  0  0  0
M  CHG  1  74   1
M  ISO  4  37 100  59 101  70 100  81 101
M  END
> <Batch ID>
0105

> <Smiles>
CNC(C)C(=O)NC(C(=O)N1Cc2cc([101O:1][101CH2:1]CCc3cc([100NH:0][100C:0](=O)N4CCCC(n5nc(-c6ccc(Oc7ccc(F)cc7F)cc6)c(C(N)=O)c5N)C4)ncc3N(C)C)ccc2CC1C(=O)NC1CCCc2ccccc21)C(C)(C)C

> <Shape>
0.214

> <Color>
0.150

> <Negative vol penalty>
0.000

$$$$

  -OEChem-04052319463D

 83 91  0     1  0  0  0  0  0999 V2000
  -25.4997  -35.5672   22.7719 C   0  0  0  0  0  0  0  0  0  0  0  0
  -26.1421  -34.3465   22.5917 C   0  0  0  0  0  0  0  0  0  0  0  0
  -23.5960  -12.1009   19.7320 C   0  0  0  0  0  0  0  0  0  0  0  0
  -22.2906  -13.8467   20.7735 C   0  0  0  0  0  0  0  0  0  0  0  0
  -24.2144  -35.6043   23.3111 C   0  0  0  0  0  0  0  0  0  0  0  0
  -25.5000  -33.1621   22.9516 C   0  0  0  0  0  0  0  0  0  0  0  0
  -25.9807  -29.5466   19.4385 C   0  0  0  0  0  0  0  0  0  0  0  0
  -22.6789  -11.1491   20.1779 C   0  0  0  0  0  0  0  0  0  0  0  0
  -21.3735  -12.8950   21.2194 C   0  0  0  0  0  0  0  0  0  0  0  0
  -27.1956  -28.8645   19.3889 C   0  0  0  0  0  0  0  0  0  0  0  0
  -21.9773   -9.5245   23.0576 C   0  0  0  0  0  0  0  0  0  0  0  0
  -22.4826   -8.3552   23.6259 C   0  0  0  0  0  0  0  0  0  0  0  0
  -26.2095  -27.0319   20.6089 C   0  0  0  0  0  0  0  0  0  0  0  0
  -21.3788   -7.0488   21.9194 C   0  0  0  0  0  0  0  0  0  0  0  0
  -28.1165  -23.4738   18.6395 C   0  0  0  0  0  0  0  0  0  0  0  0
  -29.3624  -22.2729   20.0608 C   0  0  0  0  0  0  0  0  0  0  0  0
  -23.4018  -13.4497   20.0299 C   0  0  0  0  0  0  0  0  0  0  0  0
  -24.3191  -15.1379   18.3517 C   0  0  0  0  0  0  0  0  0  0  0  0
  -23.5525  -34.4192   23.6688 C   0  0  0  0  0  0  0  0  0  0  0  0
  -24.8722  -28.9803   20.0842 C   0  0  0  0  0  0  0  0  0  0  0  0
  -24.2053  -33.1835   23.4973 C   0  0  0  0  0  0  0  0  0  0  0  0
  -24.9809  -27.7078   20.6630 C   0  0  0  0  0  0  0  0  0  0  0  0
  -27.4797  -22.2667   18.8258 C   0  0  0  0  0  0  0  0  0  0  0  0
  -28.2680  -21.5069   19.7249 C   0  0  0  0  0  0  0  0  0  0  0  0
  -21.5677  -11.5462   20.9216 C   0  0  0  0  0  0  0  0  0  0  0  0
  -27.3110  -27.6082   19.9767 C   0  0  0  0  0  0  0  0  0  0  0  0
  -21.1727   -9.4560   21.9202 C   0  0  0  0  0  0  0  0  0  0  0  0
  -22.1833   -7.1174   23.0569 C   0  0  0  0  0  0  0  0  0  0  0  0
  -20.8735   -8.2181   21.3511 C   0  0  0  0  0  0  0  0  0  0  0  0
  -24.3491  -14.4332   19.5700 C   0  0  0  0  0  0  0  0  0  0  0  0
  -25.4300  -15.9444   18.3941 C   0  0  0  0  0  0  0  0  0  0  0  0
  -23.3716  -15.0696   17.2777 C   0  0  0  0  0  0  0  0  0  0  0  0
  -23.0749  -29.7878   22.5784 C   0  0  0  0  0  0  0  0  0  0  0  0
  -21.3158  -27.2272   21.6450 C   0  0  0  0  0  0  0  0  0  0  0  0
  -21.1930  -24.2437   19.9926 C   0  0  0  0  0  0  0  0  0  0  0  0
  -28.7958  -19.4612   21.0971 C   0  0  0  0  0  0  0  0  0  0  0  0
  -22.1822  -34.5127   24.2919 C   0  0  0  0  0  0  0  0  0  0  0  0
  -23.5613  -29.7174   20.1056 C   0  0  0  0  0  0  0  0  0  0  0  0
  -23.8151  -27.0472   21.3507 C   0  0  0  0  0  0  0  0  0  0  0  0
  -21.4246  -33.1875   24.2991 C   0  0  0  0  0  0  0  0  0  0  0  0
  -29.3549  -15.9796   21.5903 C   0  0  0  0  0  0  0  0  0  0  0  0
  -22.3284  -32.0586   24.7848 C   0  0  0  0  0  0  0  0  0  0  0  0
  -28.0999  -15.3249   21.0084 C   0  0  0  0  0  0  0  0  0  0  0  0
  -29.0330  -17.2966   22.2943 C   0  0  0  0  0  0  0  0  0  0  0  0
  -27.0220  -17.6085   20.9059 C   0  0  0  0  0  0  0  0  0  0  0  0
  -23.5320  -31.8756   23.8524 C   0  0  1  0  0  0  0  0  0  0  0  0
  -22.6416  -29.2681   21.2368 C   0  0  1  0  0  0  0  0  0  0  0  0
  -27.3051  -16.3114   20.1305 C   0  0  2  0  0  0  0  0  0  0  0  0
  -26.2971  -21.7781   16.6541 C   0  0  0  0  0  0  0  0  0  0  0  0
  -25.0171  -22.7526   18.5950 C   0  0  0  0  0  0  0  0  0  0  0  0
  -19.6269  -22.3639   19.4346 C   0  0  0  0  0  0  0  0  0  0  0  0
  -28.7710  -26.8540   22.3129 C   0  0  0  0  0  0  0  0  0  0  0  0
  -21.5761  -26.1677   24.4945 C   0  0  0  0  0  0  0  0  0  0  0  0
  -20.8502  -23.9244   23.6524 C   0  0  0  0  0  0  0  0  0  0  0  0
  -19.3099  -25.8787   23.4771 C   0  0  0  0  0  0  0  0  0  0  0  0
  -21.4714  -24.7206   17.0850 C   0  0  0  0  0  0  0  0  0  0  0  0
  -30.1569  -25.4086   20.7816 C   0  0  0  0  0  0  0  0  0  0  0  0
  -30.2524  -24.5983   19.4809 C   0  0  0  0  0  0  0  0  0  0  0  0
  -26.2096  -21.8532   18.1959 C   0  0  0  0  0  0  0  0  0  0  0  0
  -21.3274  -25.7506   21.9588 C   0  0  1  0  0  0  0  0  0  0  0  0
  -20.2064  -23.6939   18.9783 C   0  0  2  0  0  0  0  0  0  0  0  0
  -28.7872  -26.0585   21.0137 C   0  0  2  0  0  0  0  0  0  1  0  0
  -20.7886  -25.4433   23.3845 C   0  0  0  0  0  0  0  0  0  0  0  0
  -25.3962  -14.7630   20.3308 N   0  0  0  0  0  0  0  0  0  0  0  0
  -29.2597  -23.4665   19.3953 N   0  0  0  0  0  0  0  0  0  0  0  0
  -26.0345  -15.6837   19.5885 N   0  0  0  0  0  0  0  0  0  0  0  0
  -22.5563  -27.8107   21.3508 N   0  0  0  0  0  0  0  0  0  0  0  0
  -28.2832  -18.1822   21.4008 N   0  0  0  0  0  0  0  0  0  0  0  0
  -25.9390  -16.8440   17.5257 N   0  0  0  0  0  0  0  0  0  0  0  0
  -22.2888  -14.1878   17.3971 N   0  0  0  0  0  0  0  0  0  0  0  0
  -28.0127  -20.2008   20.2115 N   0  0  0  0  0  0  0  0  0  0  0  0
  -23.1394  -31.1661   22.6537 N   0  0  0  0  0  0  0  0  0  0  0  0
  -20.5837  -25.0994   20.8858 N   0  0  0  0  0  0  0  0  0  0  0  0
  -20.8763  -23.4882   17.6630 N   0  3  0  0  0  0  0  0  0  0  0  0
  -23.4909  -15.7578   16.2358 O   0  0  0  0  0  0  0  0  0  0  0  0
  -23.3303  -28.9970   23.4790 O   0  0  0  0  0  0  0  0  0  0  0  0
  -20.2446  -27.8388   21.6535 O   0  0  0  0  0  0  0  0  0  0  0  0
  -22.3842  -23.9412   19.9948 O   0  0  0  0  0  0  0  0  0  0  0  0
  -29.8655  -19.8596   21.5652 O   0  0  0  0  0  0  0  0  0  0  0  0
  -20.6725  -10.6178   21.3566 O   0  0  0  0  0  0  0  0  0  0  0  0
  -28.4958  -26.9404   19.9303 O   0  0  0  0  0  0  0  0  0  1  0  0
  -22.6699   -5.9947   23.6019 F   0  0  0  0  0  0  0  0  0  0  0  0
  -20.1020   -8.1460   20.2577 F   0  0  0  0  0  0  0  0  0  0  0  0
  1  2  1  0  0  0  0
  1  5  2  0  0  0  0
  2  6  2  0  0  0  0
  3  8  2  0  0  0  0
  3 17  1  0  0  0  0
  4  9  1  0  0  0  0
  4 17  2  0  0  0  0
  5 19  1  0  0  0  0
  6 21  1  0  0  0  0
  7 10  2  0  0  0  0
  7 20  1  0  0  0  0
  8 25  1  0  0  0  0
  9 25  2  0  0  0  0
 10 26  1  0  0  0  0
 11 12  2  0  0  0  0
 11 27  1  0  0  0  0
 12 28  1  0  0  0  0
 13 22  1  0  0  0  0
 13 26  2  0  0  0  0
 14 28  2  0  0  0  0
 14 29  1  0  0  0  0
 15 23  2  0  0  0  0
 15 65  1  0  0  0  0
 16 24  2  0  0  0  0
 16 65  1  0  0  0  0
 17 30  1  0  0  0  0
 18 30  1  0  0  0  0
 18 31  2  0  0  0  0
 18 32  1  0  0  0  0
 19 21  2  0  0  0  0
 19 37  1  0  0  0  0
 20 22  2  0  0  0  0
 20 38  1  0  0  0  0
 21 46  1  0  0  0  0
 22 39  1  0  0  0  0
 23 24  1  0  0  0  0
 23 59  1  0  0  0  0
 24 71  1  0  0  0  0
 25 80  1  0  0  0  0
 26 81  1  0  0  0  0
 27 29  2  0  0  0  0
 27 80  1  0  0  0  0
 28 82  1  0  0  0  0
 29 83  1  0  0  0  0
 30 64  2  0  0  0  0
 31 66  1  0  0  0  0
 31 69  1  0  0  0  0
 32 70  1  0  0  0  0
 32 75  2  0  0  0  0
 33 47  1  0  0  0  0
 33 72  1  0  0  0  0
 33 76  2  0  0  0  0
 34 60  1  0  0  0  0
 34 67  1  0  0  0  0
 34 77  2  0  0  0  0
 35 61  1  0  0  0  0
 35 73  1  0  0  0  0
 35 78  2  0  0  0  0
 36 68  1  0  0  0  0
 36 71  1  0  0  0  0
 36 79  2  0  0  0  0
 37 40  1  0  0  0  0
 38 47  1  0  0  0  0
 39 67  1  0  0  0  0
 40 42  1  0  0  0  0
 41 43  1  0  0  0  0
 41 44  1  0  0  0  0
 42 46  1  0  0  0  0
 43 48  1  0  0  0  0
 44 68  1  0  0  0  0
 45 48  1  0  0  0  0
 45 68  1  0  0  0  0
 46 72  1  0  0  0  0
 47 67  1  0  0  0  0
 48 66  1  0  0  0  0
 49 59  1  0  0  0  0
 50 59  1  0  0  0  0
 51 61  1  0  0  0  0
 52 62  1  0  0  0  0
 53 63  1  0  0  0  0
 54 63  1  0  0  0  0
 55 63  1  0  0  0  0
 56 74  1  0  0  0  0
 57 58  1  0  0  0  0
 57 62  1  0  0  0  0
 58 65  1  0  0  0  0
 60 63  1  0  0  0  0
 60 73  1  0  0  0  0
 61 74  1  0  0  0  0
 62 81  1  0  0  0  0
 64 66  1  0  0  0  0
M  CHG  1  74   1
M  ISO  4  36 100  62 101  71 100  81 101
M  END
> <Batch ID>
0105

> <Smiles>
CNC(C)C(=O)NC(C(=O)N1Cc2cc([101O:1][101CH:1](C)CCn3cc([100NH:0][100C:0](=O)N4CCCC(n5nc(-c6ccc(Oc7ccc(F)cc7F)cc6)c(C(N)=O)c5N)C4)c(C(C)C)c3)ccc2CC1C(=O)NC1CCCc2ccccc21)C(C)(C)C

> <Shape>
0.260

> <Color>
0.074

> <Negative vol penalty>
0.000

$$$$

  -OEChem-04052319463D

 89 97  0     1  0  0  0  0  0999 V2000
  -17.4335  -11.5353   22.8497 C   0  0  0  0  0  0  0  0  0  0  0  0
  -17.7951  -12.7890   22.3671 C   0  0  0  0  0  0  0  0  0  0  0  0
  -26.3261  -29.6512   22.9698 C   0  0  0  0  0  0  0  0  0  0  0  0
  -26.9214  -30.9662   21.0324 C   0  0  0  0  0  0  0  0  0  0  0  0
  -18.3808  -10.7351   23.4870 C   0  0  0  0  0  0  0  0  0  0  0  0
  -19.1041  -13.2437   22.5225 C   0  0  0  0  0  0  0  0  0  0  0  0
  -22.2720  -16.7466   18.6238 C   0  0  0  0  0  0  0  0  0  0  0  0
  -26.6035  -30.7412   23.7948 C   0  0  0  0  0  0  0  0  0  0  0  0
  -27.1988  -32.0562   21.8574 C   0  0  0  0  0  0  0  0  0  0  0  0
  -22.5319  -18.1160   18.5919 C   0  0  0  0  0  0  0  0  0  0  0  0
  -25.0825  -33.6159   24.7199 C   0  0  0  0  0  0  0  0  0  0  0  0
  -24.1668  -33.9149   25.7286 C   0  0  0  0  0  0  0  0  0  0  0  0
  -24.6487  -17.7335   19.6837 C   0  0  0  0  0  0  0  0  0  0  0  0
  -25.8906  -33.5893   27.3899 C   0  0  0  0  0  0  0  0  0  0  0  0
  -27.3822  -22.1096   21.5215 C   0  0  0  0  0  0  0  0  0  0  0  0
  -26.4851  -29.7637   21.5886 C   0  0  0  0  0  0  0  0  0  0  0  0
  -28.6563  -22.6132   21.3790 C   0  0  0  0  0  0  0  0  0  0  0  0
  -24.9661  -28.3158   20.1381 C   0  0  0  0  0  0  0  0  0  0  0  0
  -19.7045  -11.1763   23.6418 C   0  0  0  0  0  0  0  0  0  0  0  0
  -23.1952  -15.8600   19.1967 C   0  0  0  0  0  0  0  0  0  0  0  0
  -20.0697  -12.4492   23.1637 C   0  0  0  0  0  0  0  0  0  0  0  0
  -24.3993  -16.3530   19.7193 C   0  0  0  0  0  0  0  0  0  0  0  0
  -29.1697  -22.8399   22.6799 C   0  0  0  0  0  0  0  0  0  0  0  0
  -27.0398  -31.9436   23.2386 C   0  0  0  0  0  0  0  0  0  0  0  0
  -23.7191  -18.6099   19.1245 C   0  0  0  0  0  0  0  0  0  0  0  0
  -26.4023  -33.3034   25.0461 C   0  0  0  0  0  0  0  0  0  0  0  0
  -24.5708  -33.9017   27.0636 C   0  0  0  0  0  0  0  0  0  0  0  0
  -26.8063  -33.2901   26.3811 C   0  0  0  0  0  0  0  0  0  0  0  0
  -26.1992  -28.6380   20.7359 C   0  0  0  0  0  0  0  0  0  0  0  0
  -28.1936  -22.4678   23.5778 C   0  0  0  0  0  0  0  0  0  0  0  0
  -25.2169  -27.1644   19.4326 C   0  0  0  0  0  0  0  0  0  0  0  0
  -29.3117  -22.8509   20.0863 C   0  0  0  0  0  0  0  0  0  0  0  0
  -23.7065  -28.9967   20.2137 C   0  0  0  0  0  0  0  0  0  0  0  0
  -23.1402  -13.8405   21.6506 C   0  0  0  0  0  0  0  0  0  0  0  0
  -26.0672  -13.0075   20.5278 C   0  0  0  0  0  0  0  0  0  0  0  0
  -28.8373  -13.8770   18.7341 C   0  0  0  0  0  0  0  0  0  0  0  0
  -20.6816  -10.2956   24.3795 C   0  0  0  0  0  0  0  0  0  0  0  0
  -22.9118  -14.3828   19.1992 C   0  0  0  0  0  0  0  0  0  0  0  0
  -25.4322  -15.4410   20.3273 C   0  0  0  0  0  0  0  0  0  0  0  0
  -22.1399  -10.6960   24.1712 C   0  0  0  0  0  0  0  0  0  0  0  0
  -28.7370  -24.8358   17.1757 C   0  0  0  0  0  0  0  0  0  0  0  0
  -22.3084  -12.2031   24.3356 C   0  0  0  0  0  0  0  0  0  0  0  0
  -27.9215  -26.0172   17.7043 C   0  0  0  0  0  0  0  0  0  0  0  0
  -29.7764  -24.3689   18.1918 C   0  0  0  0  0  0  0  0  0  0  0  0
  -28.4113  -25.2353   20.0601 C   0  0  0  0  0  0  0  0  0  0  0  0
  -21.4858  -12.9674   23.2912 C   0  0  1  0  0  0  0  0  0  0  0  0
  -23.6924  -13.6265   20.2697 C   0  0  1  0  0  0  0  0  0  0  0  0
  -27.3177  -25.7043   19.0863 C   0  0  1  0  0  0  0  0  0  0  0  0
  -28.1972  -22.4944   25.0560 C   0  0  0  0  0  0  0  0  0  0  0  0
  -32.8082  -20.2425   22.5318 C   0  0  0  0  0  0  0  0  0  0  0  0
  -30.6927  -24.8238   22.4982 C   0  0  0  0  0  0  0  0  0  0  0  0
  -31.0800  -13.0020   18.0255 C   0  0  0  0  0  0  0  0  0  0  0  0
  -27.1518  -13.5226   23.3329 C   0  0  0  0  0  0  0  0  0  0  0  0
  -29.4574  -13.5662   22.3579 C   0  0  0  0  0  0  0  0  0  0  0  0
  -28.0823  -11.4900   22.2116 C   0  0  0  0  0  0  0  0  0  0  0  0
  -24.9945  -23.8108   24.2216 C   0  0  0  0  0  0  0  0  0  0  0  0
  -23.4676  -21.8485   24.2706 C   0  0  0  0  0  0  0  0  0  0  0  0
  -28.1313  -14.0589   15.8657 C   0  0  0  0  0  0  0  0  0  0  0  0
  -31.6625  -21.0832   23.0744 C   0  0  0  0  0  0  0  0  0  0  0  0
  -31.6989  -22.5074   22.5100 C   0  0  0  0  0  0  0  0  0  0  0  0
  -25.8107  -21.5199   23.4439 C   0  0  0  0  0  0  0  0  0  0  0  0
  -23.2332  -22.0949   19.8796 C   0  0  0  0  0  0  0  0  0  0  0  0
  -24.1122  -22.9221   22.0664 C   0  0  0  0  0  0  0  0  0  0  0  0
  -22.8511  -20.8240   19.1470 C   0  0  0  0  0  0  0  0  0  1  0  0
  -30.5052  -23.3761   23.0151 C   0  0  2  0  0  0  0  0  0  0  0  0
  -27.4802  -13.4795   20.7723 C   0  0  1  0  0  0  0  0  0  0  0  0
  -29.6113  -13.1403   17.6558 C   0  0  2  0  0  0  0  0  0  0  0  0
  -28.0228  -13.0322   22.1590 C   0  0  0  0  0  0  0  0  0  0  0  0
  -24.6112  -22.5163   23.4724 C   0  0  0  0  0  0  0  0  0  0  0  0
  -27.1619  -27.7618   20.4364 N   0  0  0  0  0  0  0  0  0  0  0  0
  -27.1116  -22.0255   22.8624 N   0  0  0  0  0  0  0  0  0  0  0  0
  -26.5336  -26.8778   19.6428 N   0  0  0  0  0  0  0  0  0  0  0  0
  -29.1509  -24.1022   19.4865 N   0  0  0  0  0  0  0  0  0  0  0  0
  -25.1063  -14.0054   20.3119 N   0  0  0  0  0  0  0  0  0  0  0  0
  -24.4373  -26.3792   18.6592 N   0  0  0  0  0  0  0  0  0  0  0  0
  -23.6239  -30.1656   20.9826 N   0  0  0  0  0  0  0  0  0  0  0  0
  -22.1518  -12.9428   22.0066 N   0  0  0  0  0  0  0  0  0  0  0  0
  -28.2702  -13.0066   19.6407 N   0  0  0  0  0  0  0  0  0  0  0  0
  -29.5195  -13.8719   16.3607 N   0  3  0  0  0  0  0  0  0  0  0  0
  -23.6806  -21.7530   21.2534 N   0  3  0  0  0  0  0  0  0  0  0  0
  -29.9515  -21.9093   19.6202 O   0  0  0  0  0  0  0  0  0  0  0  0
  -22.6805  -28.5717   19.6304 O   0  0  0  0  0  0  0  0  0  0  0  0
  -23.5794  -14.7516   22.3425 O   0  0  0  0  0  0  0  0  0  0  0  0
  -25.8264  -11.7977   20.5212 O   0  0  0  0  0  0  0  0  0  0  0  0
  -28.7481  -15.1022   18.7706 O   0  0  0  0  0  0  0  0  0  0  0  0
  -27.3104  -33.0075   24.0434 O   0  0  0  0  0  0  0  0  0  0  0  0
  -23.9750  -19.9462   19.0953 O   0  0  0  0  0  0  0  0  0  1  0  0
  -23.6917  -34.1904   28.0321 F   0  0  0  0  0  0  0  0  0  0  0  0
  -28.0731  -32.9919   26.7006 F   0  0  0  0  0  0  0  0  0  0  0  0
  1  2  1  0  0  0  0
  1  5  2  0  0  0  0
  2  6  2  0  0  0  0
  3  8  2  0  0  0  0
  3 16  1  0  0  0  0
  4  9  1  0  0  0  0
  4 16  2  0  0  0  0
  5 19  1  0  0  0  0
  6 21  1  0  0  0  0
  7 10  2  0  0  0  0
  7 20  1  0  0  0  0
  8 24  1  0  0  0  0
  9 24  2  0  0  0  0
 10 25  1  0  0  0  0
 11 12  2  0  0  0  0
 11 26  1  0  0  0  0
 12 27  1  0  0  0  0
 13 22  1  0  0  0  0
 13 25  2  0  0  0  0
 14 27  2  0  0  0  0
 14 28  1  0  0  0  0
 15 17  2  0  0  0  0
 15 71  1  0  0  0  0
 16 29  1  0  0  0  0
 17 23  1  0  0  0  0
 17 32  1  0  0  0  0
 18 29  1  0  0  0  0
 18 31  2  0  0  0  0
 18 33  1  0  0  0  0
 19 21  2  0  0  0  0
 19 37  1  0  0  0  0
 20 22  2  0  0  0  0
 20 38  1  0  0  0  0
 21 46  1  0  0  0  0
 22 39  1  0  0  0  0
 23 30  2  0  0  0  0
 23 65  1  0  0  0  0
 24 86  1  0  0  0  0
 25 87  1  0  0  0  0
 26 28  2  0  0  0  0
 26 86  1  0  0  0  0
 27 88  1  0  0  0  0
 28 89  1  0  0  0  0
 29 70  2  0  0  0  0
 30 49  1  0  0  0  0
 30 71  1  0  0  0  0
 31 72  1  0  0  0  0
 31 75  1  0  0  0  0
 32 73  1  0  0  0  0
 32 81  2  0  0  0  0
 33 76  1  0  0  0  0
 33 82  2  0  0  0  0
 34 47  1  0  0  0  0
 34 77  1  0  0  0  0
 34 83  2  0  0  0  0
 35 66  1  0  0  0  0
 35 74  1  0  0  0  0
 35 84  2  0  0  0  0
 36 67  1  0  0  0  0
 36 78  1  0  0  0  0
 36 85  2  0  0  0  0
 37 40  1  0  0  0  0
 38 47  1  0  0  0  0
 39 74  1  0  0  0  0
 40 42  1  0  0  0  0
 41 43  1  0  0  0  0
 41 44  1  0  0  0  0
 42 46  1  0  0  0  0
 43 48  1  0  0  0  0
 44 73  1  0  0  0  0
 45 48  1  0  0  0  0
 45 73  1  0  0  0  0
 46 77  1  0  0  0  0
 47 74  1  0  0  0  0
 48 72  1  0  0  0  0
 50 59  1  0  0  0  0
 51 65  1  0  0  0  0
 52 67  1  0  0  0  0
 53 68  1  0  0  0  0
 54 68  1  0  0  0  0
 55 68  1  0  0  0  0
 56 69  1  0  0  0  0
 57 69  1  0  0  0  0
 58 79  1  0  0  0  0
 59 60  1  0  0  0  0
 60 65  1  0  0  0  0
 61 69  1  0  0  0  0
 61 71  1  0  0  0  0
 62 64  1  0  0  0  0
 62 80  1  0  0  0  0
 63 69  1  0  0  0  0
 63 80  1  0  0  0  0
 64 87  1  0  0  0  0
 66 68  1  0  0  0  0
 66 78  1  0  0  0  0
 67 79  1  0  0  0  0
 70 72  1  0  0  0  0
M  CHG  2  79   1  80   1
M  ISO  4  17 100  32 100  64 101  87 101
M  END
> <Batch ID>
0105

> <Smiles>
CCCC(C)c1c(C)n(CC(C)(C)CNC[101CH2:1][101O:1]c2ccc3c(c2)CN(C(=O)C(NC(=O)C(C)NC)C(C)(C)C)C(C(=O)NC2CCCc4ccccc42)C3)c[100c:0]1[100C:0](=O)N1CCCC(n2nc(-c3ccc(Oc4ccc(F)cc4F)cc3)c(C(N)=O)c2N)C1

> <Shape>
0.241

> <Color>
0.054

> <Negative vol penalty>
0.000

$$$$

  -OEChem-04052319463D

 81 89  0     1  0  0  0  0  0999 V2000
  -17.5180  -25.8777   21.8727 C   0  0  0  0  0  0  0  0  0  0  0  0
  -18.8122  -25.3680   21.8473 C   0  0  0  0  0  0  0  0  0  0  0  0
  -23.4759   -9.5891   20.3143 C   0  0  0  0  0  0  0  0  0  0  0  0
  -23.8394  -10.1950   22.6247 C   0  0  0  0  0  0  0  0  0  0  0  0
  -17.3065  -27.2258   22.1587 C   0  0  0  0  0  0  0  0  0  0  0  0
  -19.8958  -26.2064   22.1067 C   0  0  0  0  0  0  0  0  0  0  0  0
  -23.2687  -24.1066   25.2467 C   0  0  0  0  0  0  0  0  0  0  0  0
  -22.8345   -8.4195   20.7219 C   0  0  0  0  0  0  0  0  0  0  0  0
  -23.1979   -9.0254   23.0323 C   0  0  0  0  0  0  0  0  0  0  0  0
  -24.1390  -23.1609   24.7064 C   0  0  0  0  0  0  0  0  0  0  0  0
  -23.9466   -5.7400   23.3085 C   0  0  0  0  0  0  0  0  0  0  0  0
  -24.5452   -4.9922   24.3225 C   0  0  0  0  0  0  0  0  0  0  0  0
  -25.8664  -24.8390   24.5673 C   0  0  0  0  0  0  0  0  0  0  0  0
  -27.2193  -20.5400   21.7613 C   0  0  0  0  0  0  0  0  0  0  0  0
  -22.5758   -5.2744   25.6932 C   0  0  0  0  0  0  0  0  0  0  0  0
  -23.9784  -10.4769   21.2657 C   0  0  0  0  0  0  0  0  0  0  0  0
  -24.0510  -12.9409   20.6090 C   0  0  0  0  0  0  0  0  0  0  0  0
  -18.3874  -28.0790   22.4313 C   0  0  0  0  0  0  0  0  0  0  0  0
  -23.6879  -25.4304   25.4417 C   0  0  0  0  0  0  0  0  0  0  0  0
  -19.6987  -27.5675   22.3953 C   0  0  0  0  0  0  0  0  0  0  0  0
  -25.0002  -25.7989   25.1127 C   0  0  0  0  0  0  0  0  0  0  0  0
  -28.2311  -19.7212   21.2723 C   0  0  0  0  0  0  0  0  0  0  0  0
  -28.8578  -18.8168   22.1225 C   0  0  0  0  0  0  0  0  0  0  0  0
  -22.6954   -8.1377   22.0809 C   0  0  0  0  0  0  0  0  0  0  0  0
  -25.4371  -23.5277   24.3639 C   0  0  0  0  0  0  0  0  0  0  0  0
  -22.6626   -6.2551   23.4869 C   0  0  0  0  0  0  0  0  0  0  0  0
  -23.8598   -4.7594   25.5148 C   0  0  0  0  0  0  0  0  0  0  0  0
  -21.9772   -6.0222   24.6793 C   0  0  0  0  0  0  0  0  0  0  0  0
  -24.6416  -11.6850   20.8452 C   0  0  0  0  0  0  0  0  0  0  0  0
  -26.8739  -20.4167   23.0974 C   0  0  0  0  0  0  0  0  0  0  0  0
  -28.4392  -18.7708   23.4425 C   0  0  0  0  0  0  0  0  0  0  0  0
  -25.0976  -13.7473   20.2337 C   0  0  0  0  0  0  0  0  0  0  0  0
  -22.6791  -13.3426   20.7190 C   0  0  0  0  0  0  0  0  0  0  0  0
  -22.7791  -28.2602   24.3147 C   0  0  0  0  0  0  0  0  0  0  0  0
  -24.9322  -29.3740   26.4701 C   0  0  0  0  0  0  0  0  0  0  0  0
  -27.7214  -28.7875   28.3471 C   0  0  0  0  0  0  0  0  0  0  0  0
  -30.3255  -15.5736   20.9259 C   0  0  0  0  0  0  0  0  0  0  0  0
  -18.1125  -29.5395   22.6887 C   0  0  0  0  0  0  0  0  0  0  0  0
  -22.7454  -26.4321   26.0505 C   0  0  0  0  0  0  0  0  0  0  0  0
  -25.5057  -27.2023   25.3211 C   0  0  0  0  0  0  0  0  0  0  0  0
  -19.2890  -30.2785   23.3210 C   0  0  0  0  0  0  0  0  0  0  0  0
  -29.8731  -12.5957   19.0275 C   0  0  0  0  0  0  0  0  0  0  0  0
  -20.5862  -29.9378   22.5944 C   0  0  0  0  0  0  0  0  0  0  0  0
  -28.4257  -12.1939   19.3166 C   0  0  0  0  0  0  0  0  0  0  0  0
  -30.5479  -13.1987   20.2575 C   0  0  0  0  0  0  0  0  0  0  0  0
  -28.3730  -13.9220   21.1631 C   0  0  0  0  0  0  0  0  0  0  0  0
  -20.8982  -28.4398   22.6958 C   0  0  1  0  0  0  0  0  0  0  0  0
  -23.1175  -27.8759   25.7273 C   0  0  1  0  0  0  0  0  0  0  0  0
  -27.6333  -13.3603   19.9369 C   0  0  2  0  0  0  0  0  0  0  0  0
  -28.6263  -19.8341   19.8370 C   0  0  0  0  0  0  0  0  0  0  0  0
  -29.0735  -17.8187   24.4031 C   0  0  0  0  0  0  0  0  0  0  0  0
  -29.2655  -29.9010   29.9822 C   0  0  0  0  0  0  0  0  0  0  0  0
  -26.2298  -30.9246   24.1850 C   0  0  0  0  0  0  0  0  0  0  0  0
  -28.2507  -31.2284   25.6313 C   0  0  0  0  0  0  0  0  0  0  0  0
  -26.0585  -32.1869   26.3372 C   0  0  0  0  0  0  0  0  0  0  0  0
  -27.0824  -26.8226   30.4661 C   0  0  0  0  0  0  0  0  0  0  0  0
  -29.9446  -17.9241   21.6253 C   0  0  0  0  0  0  0  0  0  0  0  0
  -25.7855  -21.2831   23.6595 C   0  0  0  0  0  0  0  0  0  1  0  0
  -26.4091  -29.6853   26.4428 C   0  0  1  0  0  0  0  0  0  0  0  0
  -28.0211  -29.0433   29.8132 C   0  0  2  0  0  0  0  0  0  0  0  0
  -26.7272  -30.9802   25.6432 C   0  0  0  0  0  0  0  0  0  0  0  0
  -25.9610  -11.6883   20.6373 N   0  0  0  0  0  0  0  0  0  0  0  0
  -27.4599  -19.5500   23.9537 N   0  0  0  0  0  0  0  0  0  0  0  0
  -26.2081  -12.9561   20.2663 N   0  0  0  0  0  0  0  0  0  0  0  0
  -24.5444  -28.1470   25.9134 N   0  0  0  0  0  0  0  0  0  0  0  0
  -29.7466  -14.3004   20.7961 N   0  0  0  0  0  0  0  0  0  0  0  0
  -25.1671  -15.0488   19.8822 N   0  0  0  0  0  0  0  0  0  0  0  0
  -21.7333  -12.3881   21.1173 N   0  0  0  0  0  0  0  0  0  0  0  0
  -21.4406  -28.1236   23.9997 N   0  0  0  0  0  0  0  0  0  0  0  0
  -26.8447  -29.7203   27.8347 N   0  0  0  0  0  0  0  0  0  0  0  0
  -29.4951  -16.5625   21.4388 N   0  0  0  0  0  0  0  0  0  0  0  0
  -28.2374  -27.7548   30.5301 N   0  3  0  0  0  0  0  0  0  0  0  0
  -22.3006  -14.5091   20.4555 O   0  0  0  0  0  0  0  0  0  0  0  0
  -23.6664  -28.6531   23.5664 O   0  0  0  0  0  0  0  0  0  0  0  0
  -24.1522  -30.1864   26.9734 O   0  0  0  0  0  0  0  0  0  0  0  0
  -28.2184  -27.8558   27.7184 O   0  0  0  0  0  0  0  0  0  0  0  0
  -31.4941  -15.8126   20.6032 O   0  0  0  0  0  0  0  0  0  0  0  0
  -22.0694   -6.9966   22.4790 O   0  0  0  0  0  0  0  0  0  0  0  0
  -26.2885  -22.6068   23.8356 O   0  0  0  0  0  0  0  0  0  1  0  0
  -24.4342   -4.0400   26.4878 F   0  0  0  0  0  0  0  0  0  0  0  0
  -20.7430   -6.5134   24.8560 F   0  0  0  0  0  0  0  0  0  0  0  0
  1  2  1  0  0  0  0
  1  5  2  0  0  0  0
  2  6  2  0  0  0  0
  3  8  2  0  0  0  0
  3 16  1  0  0  0  0
  4  9  1  0  0  0  0
  4 16  2  0  0  0  0
  5 18  1  0  0  0  0
  6 20  1  0  0  0  0
  7 10  2  0  0  0  0
  7 19  1  0  0  0  0
  8 24  1  0  0  0  0
  9 24  2  0  0  0  0
 10 25  1  0  0  0  0
 11 12  2  0  0  0  0
 11 26  1  0  0  0  0
 12 27  1  0  0  0  0
 13 21  1  0  0  0  0
 13 25  2  0  0  0  0
 14 22  2  0  0  0  0
 14 30  1  0  0  0  0
 15 27  2  0  0  0  0
 15 28  1  0  0  0  0
 16 29  1  0  0  0  0
 17 29  1  0  0  0  0
 17 32  2  0  0  0  0
 17 33  1  0  0  0  0
 18 20  2  0  0  0  0
 18 38  1  0  0  0  0
 19 21  2  0  0  0  0
 19 39  1  0  0  0  0
 20 47  1  0  0  0  0
 21 40  1  0  0  0  0
 22 23  1  0  0  0  0
 22 50  1  0  0  0  0
 23 31  2  0  0  0  0
 23 57  1  0  0  0  0
 24 78  1  0  0  0  0
 25 79  1  0  0  0  0
 26 28  2  0  0  0  0
 26 78  1  0  0  0  0
 27 80  1  0  0  0  0
 28 81  1  0  0  0  0
 29 62  2  0  0  0  0
 30 58  1  0  0  0  0
 30 63  2  0  0  0  0
 31 51  1  0  0  0  0
 31 63  1  0  0  0  0
 32 64  1  0  0  0  0
 32 67  1  0  0  0  0
 33 68  1  0  0  0  0
 33 73  2  0  0  0  0
 34 48  1  0  0  0  0
 34 69  1  0  0  0  0
 34 74  2  0  0  0  0
 35 59  1  0  0  0  0
 35 65  1  0  0  0  0
 35 75  2  0  0  0  0
 36 60  1  0  0  0  0
 36 70  1  0  0  0  0
 36 76  2  0  0  0  0
 37 66  1  0  0  0  0
 37 71  1  0  0  0  0
 37 77  2  0  0  0  0
 38 41  1  0  0  0  0
 39 48  1  0  0  0  0
 40 65  1  0  0  0  0
 41 43  1  0  0  0  0
 42 44  1  0  0  0  0
 42 45  1  0  0  0  0
 43 47  1  0  0  0  0
 44 49  1  0  0  0  0
 45 66  1  0  0  0  0
 46 49  1  0  0  0  0
 46 66  1  0  0  0  0
 47 69  1  0  0  0  0
 48 65  1  0  0  0  0
 49 64  1  0  0  0  0
 52 60  1  0  0  0  0
 53 61  1  0  0  0  0
 54 61  1  0  0  0  0
 55 61  1  0  0  0  0
 56 72  1  0  0  0  0
 57 71  1  0  0  0  0
 58 79  1  0  0  0  0
 59 61  1  0  0  0  0
 59 70  1  0  0  0  0
 60 72  1  0  0  0  0
 62 64  1  0  0  0  0
M  CHG  1  72   1
M  ISO  4  37 100  58 101  71 100  79 101
M  END
> <Batch ID>
0105

> <Smiles>
CNC(C)C(=O)NC(C(=O)N1Cc2cc([101O:1][101CH2:1]c3cc(C)c(C[100NH:0][100C:0](=O)N4CCCC(n5nc(-c6ccc(Oc7ccc(F)cc7F)cc6)c(C(N)=O)c5N)C4)c(C)n3)ccc2CC1C(=O)NC1CCCc2ccccc21)C(C)(C)C

> <Shape>
0.285

> <Color>
0.190

> <Negative vol penalty>
0.000

$$$$

  -OEChem-04052319463D

 77 84  0     1  0  0  0  0  0999 V2000
  -27.8763  -18.4899   14.9946 C   0  0  0  0  0  0  0  0  0  0  0  0
  -28.4992  -17.8119   16.0375 C   0  0  0  0  0  0  0  0  0  0  0  0
  -27.7460  -24.0291   21.4787 C   0  0  0  0  0  0  0  0  0  0  0  0
  -28.4159  -23.4860   19.2218 C   0  0  0  0  0  0  0  0  0  0  0  0
  -26.4890  -18.6281   14.9846 C   0  0  0  0  0  0  0  0  0  0  0  0
  -27.7350  -17.2726   17.0718 C   0  0  0  0  0  0  0  0  0  0  0  0
  -29.1654  -12.5717   18.2967 C   0  0  0  0  0  0  0  0  0  0  0  0
  -27.8202  -25.3882   21.1736 C   0  0  0  0  0  0  0  0  0  0  0  0
  -28.4900  -24.8451   18.9168 C   0  0  0  0  0  0  0  0  0  0  0  0
  -30.3095  -12.4387   19.0823 C   0  0  0  0  0  0  0  0  0  0  0  0
  -27.4835  -28.9964   20.8864 C   0  0  0  0  0  0  0  0  0  0  0  0
  -26.4390  -29.8153   21.3153 C   0  0  0  0  0  0  0  0  0  0  0  0
  -28.9260  -12.1294   21.0341 C   0  0  0  0  0  0  0  0  0  0  0  0
  -24.8802  -28.5108   20.0092 C   0  0  0  0  0  0  0  0  0  0  0  0
  -28.0439  -23.0780   20.5028 C   0  0  0  0  0  0  0  0  0  0  0  0
  -26.8467  -20.8329   20.6868 C   0  0  0  0  0  0  0  0  0  0  0  0
  -25.7066  -18.0818   16.0143 C   0  0  0  0  0  0  0  0  0  0  0  0
  -27.8910  -12.4954   18.8767 C   0  0  0  0  0  0  0  0  0  0  0  0
  -26.3360  -17.4048   17.0763 C   0  0  0  0  0  0  0  0  0  0  0  0
  -27.7673  -12.2592   20.2533 C   0  0  0  0  0  0  0  0  0  0  0  0
  -28.1922  -25.7962   19.8927 C   0  0  0  0  0  0  0  0  0  0  0  0
  -30.1900  -12.2203   20.4517 C   0  0  0  0  0  0  0  0  0  0  0  0
  -27.2264  -27.9348   20.0189 C   0  0  0  0  0  0  0  0  0  0  0  0
  -25.1373  -29.5725   20.8767 C   0  0  0  0  0  0  0  0  0  0  0  0
  -25.9248  -27.6920   19.5803 C   0  0  0  0  0  0  0  0  0  0  0  0
  -27.9681  -21.6740   20.8175 C   0  0  0  0  0  0  0  0  0  0  0  0
  -27.2879  -19.6039   21.1127 C   0  0  0  0  0  0  0  0  0  0  0  0
  -25.5246  -21.1355   20.2221 C   0  0  0  0  0  0  0  0  0  0  0  0
  -25.4315  -14.4892   19.1582 C   0  0  0  0  0  0  0  0  0  0  0  0
  -23.9646  -11.8833   20.4150 C   0  0  0  0  0  0  0  0  0  0  0  0
  -24.2608   -8.8635   21.9770 C   0  0  0  0  0  0  0  0  0  0  0  0
  -32.6684  -17.1759   21.2173 C   0  0  0  0  0  0  0  0  0  0  0  0
  -24.2143  -18.2977   15.9846 C   0  0  0  0  0  0  0  0  0  0  0  0
  -26.6665  -12.6143   18.0112 C   0  0  0  0  0  0  0  0  0  0  0  0
  -26.4219  -12.1490   20.9213 C   0  0  0  0  0  0  0  0  0  0  0  0
  -23.4462  -17.3727   16.9252 C   0  0  0  0  0  0  0  0  0  0  0  0
  -30.4693  -17.5831   24.0627 C   0  0  0  0  0  0  0  0  0  0  0  0
  -24.1112  -17.3350   18.2975 C   0  0  0  0  0  0  0  0  0  0  0  0
  -29.4669  -18.6076   23.5282 C   0  0  0  0  0  0  0  0  0  0  0  0
  -31.8797  -17.8747   23.5588 C   0  0  0  0  0  0  0  0  0  0  0  0
  -30.9988  -18.9790   21.5394 C   0  0  0  0  0  0  0  0  0  0  0  0
  -25.5394  -16.7844   18.2035 C   0  0  1  0  0  0  0  0  0  0  0  0
  -25.4230  -13.0326   18.7897 C   0  0  1  0  0  0  0  0  0  0  0  0
  -29.5501  -18.7258   21.9948 C   0  0  2  0  0  0  0  0  0  0  0  0
  -22.8834   -6.9849   22.9103 C   0  0  0  0  0  0  0  0  0  0  0  0
  -23.2797  -13.5962   22.8455 C   0  0  0  0  0  0  0  0  0  0  0  0
  -22.7757  -11.4896   24.1010 C   0  0  0  0  0  0  0  0  0  0  0  0
  -21.4386  -12.0860   22.0813 C   0  0  0  0  0  0  0  0  0  0  0  0
  -35.5117  -13.1561   20.8036 C   0  0  0  0  0  0  0  0  0  0  0  0
  -35.3418  -14.1959   23.0633 C   0  0  0  0  0  0  0  0  0  0  0  0
  -25.4544   -6.9047   20.1068 C   0  0  0  0  0  0  0  0  0  0  0  0
  -33.2850  -13.2139   22.0201 C   0  0  0  0  0  0  0  0  0  0  0  0
  -34.3459  -15.3550   21.0520 C   0  0  0  0  0  0  0  0  0  0  0  0
  -32.4717  -12.7950   20.7974 C   0  0  0  0  0  0  0  0  0  1  0  0
  -23.8248  -11.2993   21.8001 C   0  0  1  0  0  0  0  0  0  0  0  0
  -23.6236   -7.5154   21.6923 C   0  0  2  0  0  0  0  0  0  0  0  0
  -22.8552  -12.1217   22.6950 C   0  0  0  0  0  0  0  0  0  0  0  0
  -34.5983  -13.9869   21.7265 C   0  0  0  0  0  0  0  0  0  0  0  0
  -29.0409  -21.0334   21.2895 N   0  0  0  0  0  0  0  0  0  0  0  0
  -28.5956  -19.7768   21.4593 N   0  0  0  0  0  0  0  0  0  0  0  0
  -25.2546  -12.2785   20.0335 N   0  0  0  0  0  0  0  0  0  0  0  0
  -31.8933  -17.9561   22.0914 N   0  0  0  0  0  0  0  0  0  0  0  0
  -26.6809  -18.4029   21.2208 N   0  0  0  0  0  0  0  0  0  0  0  0
  -25.2410  -22.4487   19.8227 N   0  0  0  0  0  0  0  0  0  0  0  0
  -25.5179  -15.3430   18.0751 N   0  0  0  0  0  0  0  0  0  0  0  0
  -23.4328   -9.9059   21.6178 N   0  0  0  0  0  0  0  0  0  0  0  0
  -33.4940  -16.2351   21.8206 N   0  0  0  0  0  0  0  0  0  0  0  0
  -24.6646   -6.5217   21.3053 N   0  3  0  0  0  0  0  0  0  0  0  0
  -24.6168  -20.2709   20.1782 O   0  0  0  0  0  0  0  0  0  0  0  0
  -25.3631  -14.8145   20.3377 O   0  0  0  0  0  0  0  0  0  0  0  0
  -22.9672  -11.9786   19.6954 O   0  0  0  0  0  0  0  0  0  0  0  0
  -25.3797   -8.9801   22.4721 O   0  0  0  0  0  0  0  0  0  0  0  0
  -32.6239  -17.3043   19.9891 O   0  0  0  0  0  0  0  0  0  0  0  0
  -28.2644  -27.1222   19.5946 O   0  0  0  0  0  0  0  0  0  0  0  0
  -31.3050  -12.0907   21.2209 O   0  0  0  0  0  0  0  0  0  1  0  0
  -24.1341  -30.3580   21.2899 F   0  0  0  0  0  0  0  0  0  0  0  0
  -25.6714  -26.6729   18.7478 F   0  0  0  0  0  0  0  0  0  0  0  0
  1  2  1  0  0  0  0
  1  5  2  0  0  0  0
  2  6  2  0  0  0  0
  3  8  2  0  0  0  0
  3 15  1  0  0  0  0
  4  9  1  0  0  0  0
  4 15  2  0  0  0  0
  5 17  1  0  0  0  0
  6 19  1  0  0  0  0
  7 10  2  0  0  0  0
  7 18  1  0  0  0  0
  8 21  1  0  0  0  0
  9 21  2  0  0  0  0
 10 22  1  0  0  0  0
 11 12  2  0  0  0  0
 11 23  1  0  0  0  0
 12 24  1  0  0  0  0
 13 20  1  0  0  0  0
 13 22  2  0  0  0  0
 14 24  2  0  0  0  0
 14 25  1  0  0  0  0
 15 26  1  0  0  0  0
 16 26  1  0  0  0  0
 16 27  2  0  0  0  0
 16 28  1  0  0  0  0
 17 19  2  0  0  0  0
 17 33  1  0  0  0  0
 18 20  2  0  0  0  0
 18 34  1  0  0  0  0
 19 42  1  0  0  0  0
 20 35  1  0  0  0  0
 21 74  1  0  0  0  0
 22 75  1  0  0  0  0
 23 25  2  0  0  0  0
 23 74  1  0  0  0  0
 24 76  1  0  0  0  0
 25 77  1  0  0  0  0
 26 59  2  0  0  0  0
 27 60  1  0  0  0  0
 27 63  1  0  0  0  0
 28 64  1  0  0  0  0
 28 69  2  0  0  0  0
 29 43  1  0  0  0  0
 29 65  1  0  0  0  0
 29 70  2  0  0  0  0
 30 55  1  0  0  0  0
 30 61  1  0  0  0  0
 30 71  2  0  0  0  0
 31 56  1  0  0  0  0
 31 66  1  0  0  0  0
 31 72  2  0  0  0  0
 32 62  1  0  0  0  0
 32 67  1  0  0  0  0
 32 73  2  0  0  0  0
 33 36  1  0  0  0  0
 34 43  1  0  0  0  0
 35 61  1  0  0  0  0
 36 38  1  0  0  0  0
 37 39  1  0  0  0  0
 37 40  1  0  0  0  0
 38 42  1  0  0  0  0
 39 44  1  0  0  0  0
 40 62  1  0  0  0  0
 41 44  1  0  0  0  0
 41 62  1  0  0  0  0
 42 65  1  0  0  0  0
 43 61  1  0  0  0  0
 44 60  1  0  0  0  0
 45 56  1  0  0  0  0
 46 57  1  0  0  0  0
 47 57  1  0  0  0  0
 48 57  1  0  0  0  0
 49 58  1  0  0  0  0
 50 58  1  0  0  0  0
 51 68  1  0  0  0  0
 52 54  1  0  0  0  0
 52 58  1  0  0  0  0
 53 58  1  0  0  0  0
 53 67  1  0  0  0  0
 54 75  1  0  0  0  0
 55 57  1  0  0  0  0
 55 66  1  0  0  0  0
 56 68  1  0  0  0  0
 59 60  1  0  0  0  0
M  CHG  1  68   1
M  ISO  4  32 100  54 101  67 100  75 101
M  END
> <Batch ID>
0105

> <Smiles>
CNC(C)C(=O)NC(C(=O)N1Cc2cc([101O:1][101CH2:1]CC(C)(C)C[100NH:0][100C:0](=O)N3CCCC(n4nc(-c5ccc(Oc6ccc(F)cc6F)cc5)c(C(N)=O)c4N)C3)ccc2CC1C(=O)NC1CCCc2ccccc21)C(C)(C)C

> <Shape>
0.229

> <Color>
0.065

> <Negative vol penalty>
0.000

$$$$

  -OEChem-04052319463D

 85 93  0     1  0  0  0  0  0999 V2000
  -28.6069  -33.8005   24.9864 C   0  0  0  0  0  0  0  0  0  0  0  0
  -28.5062  -32.4141   24.9312 C   0  0  0  0  0  0  0  0  0  0  0  0
  -26.4553  -11.7227   21.2499 C   0  0  0  0  0  0  0  0  0  0  0  0
  -25.6295  -12.8774   19.2950 C   0  0  0  0  0  0  0  0  0  0  0  0
  -27.6027  -34.5938   24.4331 C   0  0  0  0  0  0  0  0  0  0  0  0
  -27.4006  -31.8201   24.3235 C   0  0  0  0  0  0  0  0  0  0  0  0
  -28.6859  -27.9854   21.2759 C   0  0  0  0  0  0  0  0  0  0  0  0
  -25.1679  -11.2585   21.5196 C   0  0  0  0  0  0  0  0  0  0  0  0
  -24.3421  -12.4132   19.5646 C   0  0  0  0  0  0  0  0  0  0  0  0
  -28.9981  -26.7686   21.8806 C   0  0  0  0  0  0  0  0  0  0  0  0
  -22.1635   -9.4733   22.5204 C   0  0  0  0  0  0  0  0  0  0  0  0
  -22.0180   -8.1307   22.8694 C   0  0  0  0  0  0  0  0  0  0  0  0
  -26.7879  -25.9517   21.3642 C   0  0  0  0  0  0  0  0  0  0  0  0
  -22.9667   -7.4761   20.7460 C   0  0  0  0  0  0  0  0  0  0  0  0
  -28.1172  -21.4490   16.7420 C   0  0  0  0  0  0  0  0  0  0  0  0
  -26.6861  -12.5322   20.1376 C   0  0  0  0  0  0  0  0  0  0  0  0
  -28.9991  -12.3837   19.0719 C   0  0  0  0  0  0  0  0  0  0  0  0
  -26.4890  -34.0093   23.8097 C   0  0  0  0  0  0  0  0  0  0  0  0
  -27.4165  -28.1986   20.7195 C   0  0  0  0  0  0  0  0  0  0  0  0
  -26.3800  -32.6063   23.7624 C   0  0  0  0  0  0  0  0  0  0  0  0
  -26.4629  -27.1711   20.7507 C   0  0  0  0  0  0  0  0  0  0  0  0
  -28.5692  -22.3449   17.6856 C   0  0  0  0  0  0  0  0  0  0  0  0
  -29.2957  -21.6089   18.6539 C   0  0  0  0  0  0  0  0  0  0  0  0
  -24.1113  -11.6037   20.6769 C   0  0  0  0  0  0  0  0  0  0  0  0
  -28.0481  -25.7525   21.9274 C   0  0  0  0  0  0  0  0  0  0  0  0
  -22.7105   -9.8174   21.2842 C   0  0  0  0  0  0  0  0  0  0  0  0
  -22.4196   -7.1321   21.9822 C   0  0  0  0  0  0  0  0  0  0  0  0
  -23.1121   -8.8187   20.3971 C   0  0  0  0  0  0  0  0  0  0  0  0
  -28.0157  -13.0125   19.8589 C   0  0  0  0  0  0  0  0  0  0  0  0
  -30.0746  -13.2365   19.1202 C   0  0  0  0  0  0  0  0  0  0  0  0
  -29.2658  -20.2857   18.2724 C   0  0  0  0  0  0  0  0  0  0  0  0
  -28.9451  -11.1399   18.3606 C   0  0  0  0  0  0  0  0  0  0  0  0
  -25.0282  -30.2175   21.2887 C   0  0  0  0  0  0  0  0  0  0  0  0
  -23.7598  -28.8547   18.6324 C   0  0  0  0  0  0  0  0  0  0  0  0
  -23.0357  -26.0390   16.4957 C   0  0  0  0  0  0  0  0  0  0  0  0
  -30.5845  -19.1138   20.0707 C   0  0  0  0  0  0  0  0  0  0  0  0
  -25.4058  -34.9078   23.2675 C   0  0  0  0  0  0  0  0  0  0  0  0
  -27.1043  -29.5074   20.0471 C   0  0  0  0  0  0  0  0  0  0  0  0
  -25.0925  -27.3425   20.1499 C   0  0  0  0  0  0  0  0  0  0  0  0
  -24.4501  -34.2005   22.3102 C   0  0  0  0  0  0  0  0  0  0  0  0
  -32.1329  -16.5115   21.9437 C   0  0  0  0  0  0  0  0  0  0  0  0
  -24.0095  -32.8599   22.8893 C   0  0  0  0  0  0  0  0  0  0  0  0
  -31.3462  -15.2607   21.5454 C   0  0  0  0  0  0  0  0  0  0  0  0
  -31.2321  -17.7417   22.0387 C   0  0  0  0  0  0  0  0  0  0  0  0
  -29.6289  -16.7560   20.4490 C   0  0  0  0  0  0  0  0  0  0  0  0
  -25.2082  -31.9248   23.0897 C   0  0  1  0  0  0  0  0  0  0  0  0
  -25.6085  -29.7967   19.9681 C   0  0  1  0  0  0  0  0  0  0  0  0
  -30.5048  -15.5042   20.2771 C   0  0  2  0  0  0  0  0  0  0  0  0
  -21.8895  -25.9354   14.2657 C   0  0  0  0  0  0  0  0  0  0  0  0
  -29.1589  -22.0087   23.6814 C   0  0  0  0  0  0  0  0  0  0  0  0
  -21.2505  -28.2884   20.2733 C   0  0  0  0  0  0  0  0  0  0  0  0
  -20.5458  -26.6618   18.5053 C   0  0  0  0  0  0  0  0  0  0  0  0
  -20.8154  -29.0764   17.9400 C   0  0  0  0  0  0  0  0  0  0  0  0
  -28.2711  -18.9902   16.3651 C   0  0  0  0  0  0  0  0  0  0  0  0
  -28.9643  -26.0153   16.7072 C   0  0  0  0  0  0  0  0  0  0  0  0
  -25.3344  -24.6537   15.2484 C   0  0  0  0  0  0  0  0  0  0  0  0
  -29.9766  -22.1713   19.8766 C   0  0  0  0  0  0  0  0  0  0  0  0
  -28.3329  -23.8022   17.6779 C   0  0  0  0  0  0  0  0  0  0  0  0
  -29.1759  -21.9931   21.1740 C   0  0  0  0  0  0  0  0  0  0  0  0
  -29.7139  -24.1464   22.4763 C   0  0  0  0  0  0  0  0  0  1  0  0
  -22.8703  -27.6653   18.3618 C   0  0  1  0  0  0  0  0  0  0  0  0
  -23.2256  -25.9673   14.9913 C   0  0  2  0  0  0  0  0  0  0  0  0
  -29.8156  -22.6156   22.4349 C   0  0  1  0  0  0  0  0  0  0  0  0
  -21.3956  -27.9201   18.7832 C   0  0  0  0  0  0  0  0  0  0  0  0
  -28.4298  -14.1749   20.3699 N   0  0  0  0  0  0  0  0  0  0  0  0
  -28.5469  -20.2004   17.1087 N   0  0  0  0  0  0  0  0  0  0  0  0
  -29.6853  -14.2833   19.9031 N   0  0  0  0  0  0  0  0  0  0  0  0
  -24.8330  -28.6425   19.5093 N   0  0  0  0  0  0  0  0  0  0  0  0
  -30.4691  -17.9116   20.8002 N   0  0  0  0  0  0  0  0  0  0  0  0
  -31.3059  -13.1856   18.5692 N   0  0  0  0  0  0  0  0  0  0  0  0
  -27.7632  -10.3887   18.4170 N   0  0  0  0  0  0  0  0  0  0  0  0
  -29.8378  -19.1478   18.8935 N   0  0  0  0  0  0  0  0  0  0  0  0
  -25.6151  -31.3469   21.8268 N   0  0  0  0  0  0  0  0  0  0  0  0
  -23.0407  -27.3410   16.9496 N   0  0  0  0  0  0  0  0  0  0  0  0
  -29.1587  -24.5448   16.6770 N   0  3  0  0  0  0  0  0  0  0  0  0
  -23.9896  -24.7418   14.6234 N   0  3  0  0  0  0  0  0  0  0  0  0
  -29.9218  -10.6997   17.7082 O   0  0  0  0  0  0  0  0  0  0  0  0
  -24.1147  -29.5666   21.7821 O   0  0  0  0  0  0  0  0  0  0  0  0
  -23.5157  -29.9304   18.0802 O   0  0  0  0  0  0  0  0  0  0  0  0
  -22.8932  -25.0402   17.1974 O   0  0  0  0  0  0  0  0  0  0  0  0
  -31.3148  -20.0339   20.4474 O   0  0  0  0  0  0  0  0  0  0  0  0
  -22.8549  -11.1508   20.9396 O   0  0  0  0  0  0  0  0  0  0  0  0
  -28.3501  -24.5641   22.5176 O   0  0  0  0  0  0  0  0  0  1  0  0
  -22.2813   -5.8428   22.3181 F   0  0  0  0  0  0  0  0  0  0  0  0
  -23.6393   -9.1431   19.2085 F   0  0  0  0  0  0  0  0  0  0  0  0
  1  2  1  0  0  0  0
  1  5  2  0  0  0  0
  2  6  2  0  0  0  0
  3  8  2  0  0  0  0
  3 16  1  0  0  0  0
  4  9  1  0  0  0  0
  4 16  2  0  0  0  0
  5 18  1  0  0  0  0
  6 20  1  0  0  0  0
  7 10  2  0  0  0  0
  7 19  1  0  0  0  0
  8 24  1  0  0  0  0
  9 24  2  0  0  0  0
 10 25  1  0  0  0  0
 11 12  2  0  0  0  0
 11 26  1  0  0  0  0
 12 27  1  0  0  0  0
 13 21  1  0  0  0  0
 13 25  2  0  0  0  0
 14 27  2  0  0  0  0
 14 28  1  0  0  0  0
 15 22  2  0  0  0  0
 15 66  1  0  0  0  0
 16 29  1  0  0  0  0
 17 29  1  0  0  0  0
 17 30  2  0  0  0  0
 17 32  1  0  0  0  0
 18 20  2  0  0  0  0
 18 37  1  0  0  0  0
 19 21  2  0  0  0  0
 19 38  1  0  0  0  0
 20 46  1  0  0  0  0
 21 39  1  0  0  0  0
 22 23  1  0  0  0  0
 22 58  1  0  0  0  0
 23 31  2  0  0  0  0
 23 57  1  0  0  0  0
 24 82  1  0  0  0  0
 25 83  1  0  0  0  0
 26 28  2  0  0  0  0
 26 82  1  0  0  0  0
 27 84  1  0  0  0  0
 28 85  1  0  0  0  0
 29 65  2  0  0  0  0
 30 67  1  0  0  0  0
 30 70  1  0  0  0  0
 31 66  1  0  0  0  0
 31 72  1  0  0  0  0
 32 71  1  0  0  0  0
 32 77  2  0  0  0  0
 33 47  1  0  0  0  0
 33 73  1  0  0  0  0
 33 78  2  0  0  0  0
 34 61  1  0  0  0  0
 34 68  1  0  0  0  0
 34 79  2  0  0  0  0
 35 62  1  0  0  0  0
 35 74  1  0  0  0  0
 35 80  2  0  0  0  0
 36 69  1  0  0  0  0
 36 72  1  0  0  0  0
 36 81  2  0  0  0  0
 37 40  1  0  0  0  0
 38 47  1  0  0  0  0
 39 68  1  0  0  0  0
 40 42  1  0  0  0  0
 41 43  1  0  0  0  0
 41 44  1  0  0  0  0
 42 46  1  0  0  0  0
 43 48  1  0  0  0  0
 44 69  1  0  0  0  0
 45 48  1  0  0  0  0
 45 69  1  0  0  0  0
 46 73  1  0  0  0  0
 47 68  1  0  0  0  0
 48 67  1  0  0  0  0
 49 62  1  0  0  0  0
 50 63  1  0  0  0  0
 51 64  1  0  0  0  0
 52 64  1  0  0  0  0
 53 64  1  0  0  0  0
 54 66  1  0  0  0  0
 55 75  1  0  0  0  0
 56 76  1  0  0  0  0
 57 59  1  0  0  0  0
 58 75  1  0  0  0  0
 59 63  1  0  0  0  0
 60 63  1  0  0  0  0
 60 83  1  0  0  0  0
 61 64  1  0  0  0  0
 61 74  1  0  0  0  0
 62 76  1  0  0  0  0
 65 67  1  0  0  0  0
M  CHG  2  75   1  76   1
M  ISO  4  36 100  60 101  72 100  83 101
M  END
> <Batch ID>
0105

> <Smiles>
CNCc1cn(C)c([100NH:0][100C:0](=O)N2CCCC(n3nc(-c4ccc(Oc5ccc(F)cc5F)cc4)c(C(N)=O)c3N)C2)c1CCC(C)[101CH2:1][101O:1]c1ccc2c(c1)CN(C(=O)C(NC(=O)C(C)NC)C(C)(C)C)C(C(=O)NC1CCCc3ccccc31)C2

> <Shape>
0.308

> <Color>
0.049

> <Negative vol penalty>
0.000

$$$$

  -OEChem-04052319463D

 83 91  0     1  0  0  0  0  0999 V2000
  -19.6231  -30.6099   24.0732 C   0  0  0  0  0  0  0  0  0  0  0  0
  -20.9664  -30.2528   24.0145 C   0  0  0  0  0  0  0  0  0  0  0  0
  -34.2242  -26.2490   24.9627 C   0  0  0  0  0  0  0  0  0  0  0  0
  -34.8553  -25.2527   24.2179 C   0  0  0  0  0  0  0  0  0  0  0  0
  -27.3939  -18.3229   19.7893 C   0  0  0  0  0  0  0  0  0  0  0  0
  -29.7135  -17.6754   19.5965 C   0  0  0  0  0  0  0  0  0  0  0  0
  -18.6519  -29.7528   23.5574 C   0  0  0  0  0  0  0  0  0  0  0  0
  -21.3391  -29.0376   23.4410 C   0  0  0  0  0  0  0  0  0  0  0  0
  -25.3116  -29.4936   20.3335 C   0  0  0  0  0  0  0  0  0  0  0  0
  -33.5889  -27.3079   24.3140 C   0  0  0  0  0  0  0  0  0  0  0  0
  -34.8512  -25.3153   22.8244 C   0  0  0  0  0  0  0  0  0  0  0  0
  -27.0038  -17.0463   19.3848 C   0  0  0  0  0  0  0  0  0  0  0  0
  -29.3235  -16.3987   19.1921 C   0  0  0  0  0  0  0  0  0  0  0  0
  -26.5717  -29.5944   20.9215 C   0  0  0  0  0  0  0  0  0  0  0  0
  -28.1891  -13.5657   20.6438 C   0  0  0  0  0  0  0  0  0  0  0  0
  -28.8426  -12.4769   21.2208 C   0  0  0  0  0  0  0  0  0  0  0  0
  -26.9605  -27.2559   20.4749 C   0  0  0  0  0  0  0  0  0  0  0  0
  -29.5924  -11.7692   19.0358 C   0  0  0  0  0  0  0  0  0  0  0  0
  -28.7487  -18.6375   19.8951 C   0  0  0  0  0  0  0  0  0  0  0  0
  -29.3850  -20.3974   21.6289 C   0  0  0  0  0  0  0  0  0  0  0  0
  -19.0137  -28.5309   22.9686 C   0  0  0  0  0  0  0  0  0  0  0  0
  -24.8614  -28.2686   19.8207 C   0  0  0  0  0  0  0  0  0  0  0  0
  -20.3718  -28.1627   22.9181 C   0  0  0  0  0  0  0  0  0  0  0  0
  -25.6953  -27.1428   19.8786 C   0  0  0  0  0  0  0  0  0  0  0  0
  -33.5848  -27.3706   22.9206 C   0  0  0  0  0  0  0  0  0  0  0  0
  -34.2159  -26.3743   22.1757 C   0  0  0  0  0  0  0  0  0  0  0  0
  -27.9686  -16.0842   19.0862 C   0  0  0  0  0  0  0  0  0  0  0  0
  -27.3952  -28.4748   20.9949 C   0  0  0  0  0  0  0  0  0  0  0  0
  -28.2371  -13.7563   19.2629 C   0  0  0  0  0  0  0  0  0  0  0  0
  -29.5443  -11.5786   20.4168 C   0  0  0  0  0  0  0  0  0  0  0  0
  -28.9388  -12.8581   18.4589 C   0  0  0  0  0  0  0  0  0  0  0  0
  -29.1522  -19.9563   20.3124 C   0  0  0  0  0  0  0  0  0  0  0  0
  -29.7426  -21.7163   21.4909 C   0  0  0  0  0  0  0  0  0  0  0  0
  -29.2868  -19.6790   22.8658 C   0  0  0  0  0  0  0  0  0  0  0  0
  -22.4424  -26.3144   20.4790 C   0  0  0  0  0  0  0  0  0  0  0  0
  -23.5182  -24.7319   17.8597 C   0  0  0  0  0  0  0  0  0  0  0  0
  -25.8108  -24.5587   15.7093 C   0  0  0  0  0  0  0  0  0  0  0  0
  -32.6341  -25.7302   18.9078 C   0  0  0  0  0  0  0  0  0  0  0  0
  -17.9246  -27.6160   22.4672 C   0  0  0  0  0  0  0  0  0  0  0  0
  -23.5102  -28.1827   19.1655 C   0  0  0  0  0  0  0  0  0  0  0  0
  -25.2671  -25.8094   19.3246 C   0  0  0  0  0  0  0  0  0  0  0  0
  -18.4326  -26.5159   21.5387 C   0  0  0  0  0  0  0  0  0  0  0  0
  -29.5125  -24.7875   17.4783 C   0  0  0  0  0  0  0  0  0  0  0  0
  -19.6750  -25.8535   22.1256 C   0  0  0  0  0  0  0  0  0  0  0  0
  -29.1632  -23.4804   18.1920 C   0  0  0  0  0  0  0  0  0  0  0  0
  -31.0135  -24.9081   17.2243 C   0  0  0  0  0  0  0  0  0  0  0  0
  -31.5103  -23.4319   19.1342 C   0  0  0  0  0  0  0  0  0  0  0  0
  -20.8177  -26.8643   22.2814 C   0  0  1  0  0  0  0  0  0  0  0  0
  -22.9486  -26.7645   19.1378 C   0  0  1  0  0  0  0  0  0  0  0  0
  -30.0140  -23.2904   19.4622 C   0  0  2  0  0  0  0  0  0  0  0  0
  -27.0836  -23.4460   13.8547 C   0  0  0  0  0  0  0  0  0  0  0  0
  -28.1728  -26.9763   23.3050 C   0  0  0  0  0  0  0  0  0  0  0  0
  -23.6291  -22.2146   19.5805 C   0  0  0  0  0  0  0  0  0  0  0  0
  -25.0780  -21.1653   17.8290 C   0  0  0  0  0  0  0  0  0  0  0  0
  -22.7486  -21.8588   17.2669 C   0  0  0  0  0  0  0  0  0  0  0  0
  -25.2987  -26.8061   13.8531 C   0  0  0  0  0  0  0  0  0  0  0  0
  -32.8907  -28.5241   22.2411 C   0  0  0  0  0  0  0  0  0  0  0  0
  -34.2253  -26.4204   20.6829 C   0  0  0  0  0  0  0  0  0  0  0  0
  -31.5044  -28.1731   21.6880 C   0  0  0  0  0  0  0  0  0  0  0  0
  -30.5267  -27.7058   22.7750 C   0  0  0  0  0  0  0  0  0  0  0  0
  -24.5197  -23.6296   17.6130 C   0  0  1  0  0  0  0  0  0  0  0  0
  -25.9770  -24.4283   14.2060 C   0  0  2  0  0  0  0  0  0  0  0  0
  -29.1376  -27.4004   22.2056 C   0  0  2  0  0  0  0  0  0  1  0  0
  -24.0014  -22.2416   18.0846 C   0  0  0  0  0  0  0  0  0  0  0  0
  -29.3456  -20.9171   19.4049 N   0  0  0  0  0  0  0  0  0  0  0  0
  -29.7035  -21.9751   20.1524 N   0  0  0  0  0  0  0  0  0  0  0  0
  -23.9346  -25.7747   18.6994 N   0  0  0  0  0  0  0  0  0  0  0  0
  -31.7630  -24.7196   18.4687 N   0  0  0  0  0  0  0  0  0  0  0  0
  -30.0834  -22.6684   22.3853 N   0  0  0  0  0  0  0  0  0  0  0  0
  -28.9064  -18.3307   22.8270 N   0  0  0  0  0  0  0  0  0  0  0  0
  -21.4468  -27.1169   21.0028 N   0  0  0  0  0  0  0  0  0  0  0  0
  -24.8543  -23.6920   16.1944 N   0  0  0  0  0  0  0  0  0  0  0  0
  -33.3007  -25.4739   20.0997 N   0  0  0  0  0  0  0  0  0  0  0  0
  -26.3138  -25.7501   13.6056 N   0  3  0  0  0  0  0  0  0  0  0  0
  -29.5133  -20.2214   23.9740 O   0  0  0  0  0  0  0  0  0  0  0  0
  -22.9187  -25.3124   20.9993 O   0  0  0  0  0  0  0  0  0  0  0  0
  -22.4099  -24.6736   17.3213 O   0  0  0  0  0  0  0  0  0  0  0  0
  -26.4666  -25.3475   16.3860 O   0  0  0  0  0  0  0  0  0  0  0  0
  -32.8012  -26.7852   18.2865 O   0  0  0  0  0  0  0  0  0  0  0  0
  -27.5884  -14.8382   18.6917 O   0  0  0  0  0  0  0  0  0  0  0  0
  -28.6254  -28.5703   21.5689 O   0  0  0  0  0  0  0  0  0  1  0  0
  -30.1732  -10.5339   20.9711 F   0  0  0  0  0  0  0  0  0  0  0  0
  -28.9896  -13.0366   17.1317 F   0  0  0  0  0  0  0  0  0  0  0  0
  1  2  1  0  0  0  0
  1  7  2  0  0  0  0
  2  8  2  0  0  0  0
  3  4  1  0  0  0  0
  3 10  2  0  0  0  0
  4 11  2  0  0  0  0
  5 12  2  0  0  0  0
  5 19  1  0  0  0  0
  6 13  1  0  0  0  0
  6 19  2  0  0  0  0
  7 21  1  0  0  0  0
  8 23  1  0  0  0  0
  9 14  2  0  0  0  0
  9 22  1  0  0  0  0
 10 25  1  0  0  0  0
 11 26  1  0  0  0  0
 12 27  1  0  0  0  0
 13 27  2  0  0  0  0
 14 28  1  0  0  0  0
 15 16  2  0  0  0  0
 15 29  1  0  0  0  0
 16 30  1  0  0  0  0
 17 24  1  0  0  0  0
 17 28  2  0  0  0  0
 18 30  2  0  0  0  0
 18 31  1  0  0  0  0
 19 32  1  0  0  0  0
 20 32  1  0  0  0  0
 20 33  2  0  0  0  0
 20 34  1  0  0  0  0
 21 23  2  0  0  0  0
 21 39  1  0  0  0  0
 22 24  2  0  0  0  0
 22 40  1  0  0  0  0
 23 48  1  0  0  0  0
 24 41  1  0  0  0  0
 25 26  2  0  0  0  0
 25 57  1  0  0  0  0
 26 58  1  0  0  0  0
 27 80  1  0  0  0  0
 28 81  1  0  0  0  0
 29 31  2  0  0  0  0
 29 80  1  0  0  0  0
 30 82  1  0  0  0  0
 31 83  1  0  0  0  0
 32 65  2  0  0  0  0
 33 66  1  0  0  0  0
 33 69  1  0  0  0  0
 34 70  1  0  0  0  0
 34 75  2  0  0  0  0
 35 49  1  0  0  0  0
 35 71  1  0  0  0  0
 35 76  2  0  0  0  0
 36 61  1  0  0  0  0
 36 67  1  0  0  0  0
 36 77  2  0  0  0  0
 37 62  1  0  0  0  0
 37 72  1  0  0  0  0
 37 78  2  0  0  0  0
 38 68  1  0  0  0  0
 38 73  1  0  0  0  0
 38 79  2  0  0  0  0
 39 42  1  0  0  0  0
 40 49  1  0  0  0  0
 41 67  1  0  0  0  0
 42 44  1  0  0  0  0
 43 45  1  0  0  0  0
 43 46  1  0  0  0  0
 44 48  1  0  0  0  0
 45 50  1  0  0  0  0
 46 68  1  0  0  0  0
 47 50  1  0  0  0  0
 47 68  1  0  0  0  0
 48 71  1  0  0  0  0
 49 67  1  0  0  0  0
 50 66  1  0  0  0  0
 51 62  1  0  0  0  0
 52 63  1  0  0  0  0
 53 64  1  0  0  0  0
 54 64  1  0  0  0  0
 55 64  1  0  0  0  0
 56 74  1  0  0  0  0
 57 59  1  0  0  0  0
 58 73  1  0  0  0  0
 59 60  1  0  0  0  0
 60 63  1  0  0  0  0
 61 64  1  0  0  0  0
 61 72  1  0  0  0  0
 62 74  1  0  0  0  0
 63 81  1  0  0  0  0
 65 66  1  0  0  0  0
M  CHG  1  74   1
M  ISO  4  38 100  63 101  73 100  81 101
M  END
> <Batch ID>
0105

> <Smiles>
CNC(C)C(=O)NC(C(=O)N1Cc2cc([101O:1][101CH:1](C)CCCc3ccccc3C[100NH:0][100C:0](=O)N3CCCC(n4nc(-c5ccc(Oc6ccc(F)cc6F)cc5)c(C(N)=O)c4N)C3)ccc2CC1C(=O)NC1CCCc2ccccc21)C(C)(C)C

> <Shape>
0.249

> <Color>
0.065

> <Negative vol penalty>
0.000

$$$$

  -OEChem-04052319463D

 84 91  0     1  0  0  0  0  0999 V2000
  -24.8584  -33.6167   14.2318 C   0  0  0  0  0  0  0  0  0  0  0  0
  -25.5464  -32.6275   14.9272 C   0  0  0  0  0  0  0  0  0  0  0  0
  -26.9364  -11.5707   21.7243 C   0  0  0  0  0  0  0  0  0  0  0  0
  -26.1991  -13.4543   20.4031 C   0  0  0  0  0  0  0  0  0  0  0  0
  -24.4871  -34.7935   14.8808 C   0  0  0  0  0  0  0  0  0  0  0  0
  -25.8645  -32.8151   16.2718 C   0  0  0  0  0  0  0  0  0  0  0  0
  -24.9093  -28.7138   19.0846 C   0  0  0  0  0  0  0  0  0  0  0  0
  -25.6305  -11.0817   21.7559 C   0  0  0  0  0  0  0  0  0  0  0  0
  -24.8932  -12.9652   20.4346 C   0  0  0  0  0  0  0  0  0  0  0  0
  -25.8300  -27.6688   19.0200 C   0  0  0  0  0  0  0  0  0  0  0  0
  -23.5519   -9.3941   19.6909 C   0  0  0  0  0  0  0  0  0  0  0  0
  -23.3634   -8.0332   19.4502 C   0  0  0  0  0  0  0  0  0  0  0  0
  -26.8082  -28.4103   21.0967 C   0  0  0  0  0  0  0  0  0  0  0  0
  -22.3655   -7.7848   21.6364 C   0  0  0  0  0  0  0  0  0  0  0  0
  -27.2207  -12.7571   21.0479 C   0  0  0  0  0  0  0  0  0  0  0  0
  -29.5610  -12.9793   20.0572 C   0  0  0  0  0  0  0  0  0  0  0  0
  -24.7923  -34.9915   16.2366 C   0  0  0  0  0  0  0  0  0  0  0  0
  -24.9381  -29.6228   20.1519 C   0  0  0  0  0  0  0  0  0  0  0  0
  -25.4982  -33.9962   16.9392 C   0  0  0  0  0  0  0  0  0  0  0  0
  -25.8851  -29.4644   21.1738 C   0  0  0  0  0  0  0  0  0  0  0  0
  -24.6089  -11.7789   21.1111 C   0  0  0  0  0  0  0  0  0  0  0  0
  -26.7815  -27.5187   20.0246 C   0  0  0  0  0  0  0  0  0  0  0  0
  -23.1473   -9.9504   20.9044 C   0  0  0  0  0  0  0  0  0  0  0  0
  -22.7701   -7.2286   20.4229 C   0  0  0  0  0  0  0  0  0  0  0  0
  -22.5541   -9.1458   21.8771 C   0  0  0  0  0  0  0  0  0  0  0  0
  -28.5694  -13.2631   21.0154 C   0  0  0  0  0  0  0  0  0  0  0  0
  -30.6549  -13.6992   20.4715 C   0  0  0  0  0  0  0  0  0  0  0  0
  -29.4988  -12.1401   18.8964 C   0  0  0  0  0  0  0  0  0  0  0  0
  -25.4077  -32.7553   20.4184 C   0  0  0  0  0  0  0  0  0  0  0  0
  -24.6362  -32.2129   23.5221 C   0  0  0  0  0  0  0  0  0  0  0  0
  -31.8899  -18.7919   22.9787 C   0  0  0  0  0  0  0  0  0  0  0  0
  -24.4505  -30.0055   26.1182 C   0  0  0  0  0  0  0  0  0  0  0  0
  -24.4118  -36.3000   16.8828 C   0  0  0  0  0  0  0  0  0  0  0  0
  -23.9210  -30.7288   20.2207 C   0  0  0  0  0  0  0  0  0  0  0  0
  -25.9452  -30.4014   22.3515 C   0  0  0  0  0  0  0  0  0  0  0  0
  -24.4578  -36.2622   18.4081 C   0  0  0  0  0  0  0  0  0  0  0  0
  -32.1157  -15.6839   24.7478 C   0  0  0  0  0  0  0  0  0  0  0  0
  -25.7484  -35.6051   18.8872 C   0  0  0  0  0  0  0  0  0  0  0  0
  -31.2944  -14.7222   23.8901 C   0  0  0  0  0  0  0  0  0  0  0  0
  -31.5230  -17.0895   24.7341 C   0  0  0  0  0  0  0  0  0  0  0  0
  -30.5225  -16.6998   22.5051 C   0  0  0  0  0  0  0  0  0  0  0  0
  -25.8396  -34.1522   18.4052 C   0  0  1  0  0  0  0  0  0  0  0  0
  -24.3699  -31.9002   21.0889 C   0  0  1  0  0  0  0  0  0  0  0  0
  -31.1044  -15.2756   22.4667 C   0  0  2  0  0  0  0  0  0  0  0  0
  -23.8163  -29.8640   28.5421 C   0  0  0  0  0  0  0  0  0  0  0  0
  -27.8096  -19.7670   22.1429 C   0  0  0  0  0  0  0  0  0  0  0  0
  -32.3695  -20.5759   21.4007 C   0  0  0  0  0  0  0  0  0  0  0  0
  -32.3101  -18.2068   20.6029 C   0  0  0  0  0  0  0  0  0  0  0  0
  -27.2433  -33.6038   24.2829 C   0  0  0  0  0  0  0  0  0  0  0  0
  -27.0250  -32.6096   26.5703 C   0  0  0  0  0  0  0  0  0  0  0  0
  -25.2881  -34.1896   25.7280 C   0  0  0  0  0  0  0  0  0  0  0  0
  -30.1120  -26.2901   18.3636 C   0  0  0  0  0  0  0  0  0  0  0  0
  -31.4121  -26.2161   20.4957 C   0  0  0  0  0  0  0  0  0  0  0  0
  -22.3274  -28.0187   25.5665 C   0  0  0  0  0  0  0  0  0  0  0  0
  -29.7587  -24.3666   19.9235 C   0  0  0  0  0  0  0  0  0  0  0  0
  -30.1457  -19.4133   21.2796 C   0  0  0  0  0  0  0  0  0  0  0  0
  -29.7274  -23.7780   21.3306 C   0  0  0  0  0  0  0  0  0  0  0  0
  -29.5013  -21.6045   22.5404 C   0  0  0  0  0  0  0  0  0  0  0  0
  -28.9595  -26.7261   20.5575 C   0  0  0  0  0  0  0  0  0  1  0  0
  -25.4084  -31.8536   24.7686 C   0  0  1  0  0  0  0  0  0  0  0  0
  -23.3386  -29.7048   27.1071 C   0  0  2  0  0  0  0  0  0  0  0  0
  -29.2924  -20.0934   22.3797 C   0  0  1  0  0  0  0  0  0  0  0  0
  -31.6594  -19.2185   21.5508 C   0  0  0  0  0  0  0  0  0  0  0  0
  -26.2415  -33.0475   25.3144 C   0  0  0  0  0  0  0  0  0  0  0  0
  -30.0514  -25.8916   19.8538 C   0  0  0  0  0  0  0  0  0  0  0  0
  -28.9957  -14.0980   21.9668 N   0  0  0  0  0  0  0  0  0  0  0  0
  -30.2672  -14.3450   21.6086 N   0  0  0  0  0  0  0  0  0  0  0  0
  -24.9334  -31.4707   22.3703 N   0  0  0  0  0  0  0  0  0  0  0  0
  -31.3372  -17.5704   23.3639 N   0  0  0  0  0  0  0  0  0  0  0  0
  -31.9009  -13.8364   19.9705 N   0  0  0  0  0  0  0  0  0  0  0  0
  -28.2979  -11.4734   18.6175 N   0  0  0  0  0  0  0  0  0  0  0  0
  -24.9983  -33.2973   19.2150 N   0  0  0  0  0  0  0  0  0  0  0  0
  -24.4324  -31.3239   25.7148 N   0  0  0  0  0  0  0  0  0  0  0  0
  -22.8488  -28.3089   26.9270 N   0  3  0  0  0  0  0  0  0  0  0  0
  -29.4973  -22.3136   21.2327 N   0  3  0  0  0  0  0  0  0  0  0  0
  -30.4841  -11.9730   18.1382 O   0  0  0  0  0  0  0  0  0  0  0  0
  -26.4986  -32.9129   20.9540 O   0  0  0  0  0  0  0  0  0  0  0  0
  -23.7952  -33.1140   23.5705 O   0  0  0  0  0  0  0  0  0  0  0  0
  -32.5445  -19.5224   23.7271 O   0  0  0  0  0  0  0  0  0  0  0  0
  -25.2568  -29.1567   25.7441 O   0  0  0  0  0  0  0  0  0  0  0  0
  -23.3345  -11.3018   21.1415 O   0  0  0  0  0  0  0  0  0  0  0  0
  -27.6817  -26.5000   19.9637 O   0  0  0  0  0  0  0  0  0  1  0  0
  -22.5877   -5.9220   20.1910 F   0  0  0  0  0  0  0  0  0  0  0  0
  -22.1622   -9.6747   23.0444 F   0  0  0  0  0  0  0  0  0  0  0  0
  1  2  1  0  0  0  0
  1  5  2  0  0  0  0
  2  6  2  0  0  0  0
  3  8  2  0  0  0  0
  3 15  1  0  0  0  0
  4  9  1  0  0  0  0
  4 15  2  0  0  0  0
  5 17  1  0  0  0  0
  6 19  1  0  0  0  0
  7 10  2  0  0  0  0
  7 18  1  0  0  0  0
  8 21  1  0  0  0  0
  9 21  2  0  0  0  0
 10 22  1  0  0  0  0
 11 12  2  0  0  0  0
 11 23  1  0  0  0  0
 12 24  1  0  0  0  0
 13 20  1  0  0  0  0
 13 22  2  0  0  0  0
 14 24  2  0  0  0  0
 14 25  1  0  0  0  0
 15 26  1  0  0  0  0
 16 26  1  0  0  0  0
 16 27  2  0  0  0  0
 16 28  1  0  0  0  0
 17 19  2  0  0  0  0
 17 33  1  0  0  0  0
 18 20  2  0  0  0  0
 18 34  1  0  0  0  0
 19 42  1  0  0  0  0
 20 35  1  0  0  0  0
 21 81  1  0  0  0  0
 22 82  1  0  0  0  0
 23 25  2  0  0  0  0
 23 81  1  0  0  0  0
 24 83  1  0  0  0  0
 25 84  1  0  0  0  0
 26 66  2  0  0  0  0
 27 67  1  0  0  0  0
 27 70  1  0  0  0  0
 28 71  1  0  0  0  0
 28 76  2  0  0  0  0
 29 43  1  0  0  0  0
 29 72  1  0  0  0  0
 29 77  2  0  0  0  0
 30 60  1  0  0  0  0
 30 68  1  0  0  0  0
 30 78  2  0  0  0  0
 31 63  1  0  0  0  0
 31 69  1  0  0  0  0
 31 79  2  0  0  0  0
 32 61  1  0  0  0  0
 32 73  1  0  0  0  0
 32 80  2  0  0  0  0
 33 36  1  0  0  0  0
 34 43  1  0  0  0  0
 35 68  1  0  0  0  0
 36 38  1  0  0  0  0
 37 39  1  0  0  0  0
 37 40  1  0  0  0  0
 38 42  1  0  0  0  0
 39 44  1  0  0  0  0
 40 69  1  0  0  0  0
 41 44  1  0  0  0  0
 41 69  1  0  0  0  0
 42 72  1  0  0  0  0
 43 68  1  0  0  0  0
 44 67  1  0  0  0  0
 45 61  1  0  0  0  0
 46 62  1  0  0  0  0
 47 63  1  0  0  0  0
 48 63  1  0  0  0  0
 49 64  1  0  0  0  0
 50 64  1  0  0  0  0
 51 64  1  0  0  0  0
 52 65  1  0  0  0  0
 53 65  1  0  0  0  0
 54 74  1  0  0  0  0
 55 57  1  0  0  0  0
 55 65  1  0  0  0  0
 56 62  1  0  0  0  0
 56 63  1  0  0  0  0
 57 75  1  0  0  0  0
 58 62  1  0  0  0  0
 58 75  1  0  0  0  0
 59 65  1  0  0  0  0
 59 82  1  0  0  0  0
 60 64  1  0  0  0  0
 60 73  1  0  0  0  0
 61 74  1  0  0  0  0
 66 67  1  0  0  0  0
M  CHG  2  74   1  75   1
M  ISO  4  31 100  59 101  63 100  82 101
M  END
> <Batch ID>
0105

> <Smiles>
CNC(C)C(=O)NC(C(=O)N1Cc2cc([101O:1][101CH2:1]C(C)(C)CCNCC(C)C[100C:0](C)(C)[100C:0](=O)N3CCCC(n4nc(-c5ccc(Oc6ccc(F)cc6F)cc5)c(C(N)=O)c4N)C3)ccc2CC1C(=O)NC1CCCc2ccccc21)C(C)(C)C

> <Shape>
0.296

> <Color>
0.075

> <Negative vol penalty>
0.000

$$$$

  -OEChem-04052319463D

 83 91  0     1  0  0  0  0  0999 V2000
  -32.4917  -12.3805   21.6224 C   0  0  0  0  0  0  0  0  0  0  0  0
  -32.0546  -13.6886   21.8048 C   0  0  0  0  0  0  0  0  0  0  0  0
  -28.4675  -26.3746   19.6734 C   0  0  0  0  0  0  0  0  0  0  0  0
  -26.3793  -25.2326   19.2580 C   0  0  0  0  0  0  0  0  0  0  0  0
  -31.7182  -11.4847   20.8855 C   0  0  0  0  0  0  0  0  0  0  0  0
  -30.8441  -14.1019   21.2495 C   0  0  0  0  0  0  0  0  0  0  0  0
  -25.3503  -18.5260   22.4988 C   0  0  0  0  0  0  0  0  0  0  0  0
  -29.1691  -25.2437   19.2559 C   0  0  0  0  0  0  0  0  0  0  0  0
  -27.0810  -24.1016   18.8405 C   0  0  0  0  0  0  0  0  0  0  0  0
  -24.6228  -19.5416   21.8796 C   0  0  0  0  0  0  0  0  0  0  0  0
  -28.7253  -21.5193   20.2754 C   0  0  0  0  0  0  0  0  0  0  0  0
  -28.2993  -20.2797   20.7523 C   0  0  0  0  0  0  0  0  0  0  0  0
  -23.3322  -17.8850   20.6926 C   0  0  0  0  0  0  0  0  0  0  0  0
  -27.8954  -19.5465   18.4859 C   0  0  0  0  0  0  0  0  0  0  0  0
  -27.0726  -26.3691   19.6745 C   0  0  0  0  0  0  0  0  0  0  0  0
  -26.4020  -28.8270   19.5456 C   0  0  0  0  0  0  0  0  0  0  0  0
  -30.4930  -11.8845   20.3289 C   0  0  0  0  0  0  0  0  0  0  0  0
  -25.0809  -17.1803   22.2108 C   0  0  0  0  0  0  0  0  0  0  0  0
  -30.0541  -13.2109   20.5033 C   0  0  0  0  0  0  0  0  0  0  0  0
  -24.0559  -16.8542   21.3113 C   0  0  0  0  0  0  0  0  0  0  0  0
  -28.4759  -24.1072   18.8394 C   0  0  0  0  0  0  0  0  0  0  0  0
  -23.6156  -19.2212   20.9742 C   0  0  0  0  0  0  0  0  0  0  0  0
  -28.7363  -21.7726   18.9037 C   0  0  0  0  0  0  0  0  0  0  0  0
  -27.8844  -19.2933   19.8576 C   0  0  0  0  0  0  0  0  0  0  0  0
  -28.3214  -20.7862   18.0090 C   0  0  0  0  0  0  0  0  0  0  0  0
  -26.3472  -27.5368   20.1062 C   0  0  0  0  0  0  0  0  0  0  0  0
  -25.5361  -29.5704   20.3098 C   0  0  0  0  0  0  0  0  0  0  0  0
  -27.1671  -29.3102   18.4334 C   0  0  0  0  0  0  0  0  0  0  0  0
  -26.7391  -14.7820   20.9450 C   0  0  0  0  0  0  0  0  0  0  0  0
  -24.1143  -13.0556   21.7529 C   0  0  0  0  0  0  0  0  0  0  0  0
  -20.5350  -13.4931   21.6324 C   0  0  0  0  0  0  0  0  0  0  0  0
  -20.7744  -28.1317   23.6426 C   0  0  0  0  0  0  0  0  0  0  0  0
  -29.7143  -10.8937   19.5003 C   0  0  0  0  0  0  0  0  0  0  0  0
  -25.8567  -16.0961   22.9073 C   0  0  0  0  0  0  0  0  0  0  0  0
  -23.7139  -15.4246   20.9831 C   0  0  0  0  0  0  0  0  0  0  0  0
  -28.2641  -11.3062   19.2613 C   0  0  0  0  0  0  0  0  0  0  0  0
  -23.7130  -29.8252   24.7259 C   0  0  0  0  0  0  0  0  0  0  0  0
  -28.1881  -12.7700   18.8392 C   0  0  0  0  0  0  0  0  0  0  0  0
  -21.2646  -23.4464   21.3465 C   0  0  0  0  0  0  0  0  0  0  0  0
  -19.9063  -21.5107   22.2432 C   0  0  0  0  0  0  0  0  0  0  0  0
  -24.7263  -29.5472   23.6142 C   0  0  0  0  0  0  0  0  0  0  0  0
  -22.1253  -22.4693   20.5513 C   0  0  0  0  0  0  0  0  0  0  0  0
  -20.7712  -20.5388   21.4460 C   0  0  0  0  0  0  0  0  0  0  0  0
  -22.8042  -28.6234   24.9747 C   0  0  0  0  0  0  0  0  0  0  0  0
  -23.1299  -27.8302   22.6642 C   0  0  0  0  0  0  0  0  0  0  0  0
  -28.7349  -13.6900   19.9375 C   0  0  1  0  0  0  0  0  0  0  0  0
  -25.8427  -14.7713   22.1509 C   0  0  1  0  0  0  0  0  0  0  0  0
  -19.8516  -22.8940   21.5801 C   0  0  0  0  0  0  0  0  0  0  0  0
  -24.0322  -29.0328   22.3387 C   0  0  2  0  0  0  0  0  0  0  0  0
  -22.1745  -21.0942   21.2119 C   0  0  0  0  0  0  0  0  0  1  0  0
  -18.7201  -12.4888   23.0447 C   0  0  0  0  0  0  0  0  0  0  0  0
  -17.5937  -23.3923   22.5941 C   0  0  0  0  0  0  0  0  0  0  0  0
  -23.9584  -10.9547   19.5456 C   0  0  0  0  0  0  0  0  0  0  0  0
  -21.4704  -10.9464   19.8253 C   0  0  0  0  0  0  0  0  0  0  0  0
  -22.9391  -10.2598   21.7211 C   0  0  0  0  0  0  0  0  0  0  0  0
  -19.4668  -16.1559   22.3586 C   0  0  0  0  0  0  0  0  0  0  0  0
  -18.4882  -25.0983   20.3283 C   0  0  0  0  0  0  0  0  0  0  0  0
  -18.8383  -27.6115   22.1797 C   0  0  0  0  0  0  0  0  0  0  0  0
  -18.2916  -26.2407   22.5321 C   0  0  0  0  0  0  0  0  0  0  0  0
  -22.8168  -12.6993   21.0685 C   0  0  1  0  0  0  0  0  0  0  0  0
  -19.6050  -13.7038   22.8135 C   0  0  2  0  0  0  0  0  0  0  0  0
  -19.0259  -23.8639   22.4233 C   0  0  2  0  0  0  0  0  0  0  0  0
  -22.8100  -11.2392   20.5342 C   0  0  0  0  0  0  0  0  0  0  0  0
  -25.5127  -27.4616   21.1463 N   0  0  0  0  0  0  0  0  0  0  0  0
  -25.0352  -28.7138   21.2455 N   0  0  0  0  0  0  0  0  0  0  0  0
  -24.5049  -14.4004   21.6852 N   0  0  0  0  0  0  0  0  0  0  0  0
  -22.1755  -28.1861   23.7259 N   0  0  0  0  0  0  0  0  0  0  0  0
  -25.1621  -30.8668   20.2661 N   0  0  0  0  0  0  0  0  0  0  0  0
  -28.0067  -28.4127   17.7598 N   0  0  0  0  0  0  0  0  0  0  0  0
  -27.7591  -13.8510   20.9940 N   0  0  0  0  0  0  0  0  0  0  0  0
  -21.7564  -12.9896   22.0275 N   0  0  0  0  0  0  0  0  0  0  0  0
  -20.2603  -27.7129   22.4215 N   0  0  0  0  0  0  0  0  0  0  0  0
  -18.7282  -14.8857   22.5780 N   0  3  0  0  0  0  0  0  0  0  0  0
  -19.0164  -25.1828   21.7384 N   0  3  1  0  0  0  0  0  0  0  0  0
  -27.1203  -30.5064   18.0587 O   0  0  0  0  0  0  0  0  0  0  0  0
  -26.5205  -15.5750   20.0367 O   0  0  0  0  0  0  0  0  0  0  0  0
  -24.7541  -12.1744   22.3325 O   0  0  0  0  0  0  0  0  0  0  0  0
  -20.2093  -13.7462   20.4746 O   0  0  0  0  0  0  0  0  0  0  0  0
  -20.0362  -28.4391   24.5847 O   0  0  0  0  0  0  0  0  0  0  0  0
  -29.1602  -23.0035   18.4318 O   0  0  0  0  0  0  0  0  0  0  0  0
  -22.9045  -20.2105   20.3679 O   0  0  0  0  0  0  0  0  0  1  0  0
  -27.4768  -18.1024   20.3157 F   0  0  0  0  0  0  0  0  0  0  0  0
  -28.3309  -21.0233   16.6901 F   0  0  0  0  0  0  0  0  0  0  0  0
  1  2  1  0  0  0  0
  1  5  2  0  0  0  0
  2  6  2  0  0  0  0
  3  8  2  0  0  0  0
  3 15  1  0  0  0  0
  4  9  1  0  0  0  0
  4 15  2  0  0  0  0
  5 17  1  0  0  0  0
  6 19  1  0  0  0  0
  7 10  2  0  0  0  0
  7 18  1  0  0  0  0
  8 21  1  0  0  0  0
  9 21  2  0  0  0  0
 10 22  1  0  0  0  0
 11 12  2  0  0  0  0
 11 23  1  0  0  0  0
 12 24  1  0  0  0  0
 13 20  1  0  0  0  0
 13 22  2  0  0  0  0
 14 24  2  0  0  0  0
 14 25  1  0  0  0  0
 15 26  1  0  0  0  0
 16 26  1  0  0  0  0
 16 27  2  0  0  0  0
 16 28  1  0  0  0  0
 17 19  2  0  0  0  0
 17 33  1  0  0  0  0
 18 20  2  0  0  0  0
 18 34  1  0  0  0  0
 19 46  1  0  0  0  0
 20 35  1  0  0  0  0
 21 80  1  0  0  0  0
 22 81  1  0  0  0  0
 23 25  2  0  0  0  0
 23 80  1  0  0  0  0
 24 82  1  0  0  0  0
 25 83  1  0  0  0  0
 26 64  2  0  0  0  0
 27 65  1  0  0  0  0
 27 68  1  0  0  0  0
 28 69  1  0  0  0  0
 28 75  2  0  0  0  0
 29 47  1  0  0  0  0
 29 70  1  0  0  0  0
 29 76  2  0  0  0  0
 30 60  1  0  0  0  0
 30 66  1  0  0  0  0
 30 77  2  0  0  0  0
 31 61  1  0  0  0  0
 31 71  1  0  0  0  0
 31 78  2  0  0  0  0
 32 67  1  0  0  0  0
 32 72  1  0  0  0  0
 32 79  2  0  0  0  0
 33 36  1  0  0  0  0
 34 47  1  0  0  0  0
 35 66  1  0  0  0  0
 36 38  1  0  0  0  0
 37 41  1  0  0  0  0
 37 44  1  0  0  0  0
 38 46  1  0  0  0  0
 39 42  1  0  0  0  0
 39 48  1  0  0  0  0
 40 43  1  0  0  0  0
 40 48  1  0  0  0  0
 41 49  1  0  0  0  0
 42 50  1  0  0  0  0
 43 50  1  0  0  0  0
 44 67  1  0  0  0  0
 45 49  1  0  0  0  0
 45 67  1  0  0  0  0
 46 70  1  0  0  0  0
 47 66  1  0  0  0  0
 48 62  1  0  0  0  0
 49 65  1  0  0  0  0
 50 81  1  0  0  0  0
 51 61  1  0  0  0  0
 52 62  1  0  0  0  0
 53 63  1  0  0  0  0
 54 63  1  0  0  0  0
 55 63  1  0  0  0  0
 56 73  1  0  0  0  0
 57 74  1  0  0  0  0
 58 59  1  0  0  0  0
 58 72  1  0  0  0  0
 59 74  1  0  0  0  0
 60 63  1  0  0  0  0
 60 71  1  0  0  0  0
 61 73  1  0  0  0  0
 62 74  1  0  0  0  0
 64 65  1  0  0  0  0
M  CHG  2  73   1  74   1
M  ISO  4  32 100  50 101  72 100  81 101
M  END
> <Batch ID>
0105

> <Smiles>
CNC(C)C(=O)NC(C(=O)N1Cc2cc([101O:1][101CH:1]3CCC(C(C)N(C)CC[100NH:0][100C:0](=O)N4CCCC(n5nc(-c6ccc(Oc7ccc(F)cc7F)cc6)c(C(N)=O)c5N)C4)CC3)ccc2CC1C(=O)NC1CCCc2ccccc21)C(C)(C)C

> <Shape>
0.247

> <Color>
0.067

> <Negative vol penalty>
0.000

$$$$

  -OEChem-04052319463D

 84 92  0     1  0  0  0  0  0999 V2000
  -31.9525  -31.7120   14.6798 C   0  0  0  0  0  0  0  0  0  0  0  0
  -31.7139  -30.3542   14.4930 C   0  0  0  0  0  0  0  0  0  0  0  0
  -23.2851   -9.6948   19.9527 C   0  0  0  0  0  0  0  0  0  0  0  0
  -23.7230   -9.9063   22.3192 C   0  0  0  0  0  0  0  0  0  0  0  0
  -32.2676  -32.1950   15.9492 C   0  0  0  0  0  0  0  0  0  0  0  0
  -31.7914  -29.4784   15.5754 C   0  0  0  0  0  0  0  0  0  0  0  0
  -28.8620  -23.4474   18.0977 C   0  0  0  0  0  0  0  0  0  0  0  0
  -22.5796   -8.5149   20.1886 C   0  0  0  0  0  0  0  0  0  0  0  0
  -23.0175   -8.7263   22.5552 C   0  0  0  0  0  0  0  0  0  0  0  0
  -29.2283  -22.1885   18.5719 C   0  0  0  0  0  0  0  0  0  0  0  0
  -19.7869   -7.7612   22.7842 C   0  0  0  0  0  0  0  0  0  0  0  0
  -18.8805   -7.7509   23.8443 C   0  0  0  0  0  0  0  0  0  0  0  0
  -29.7029  -23.1476   20.7338 C   0  0  0  0  0  0  0  0  0  0  0  0
  -30.2337  -17.0539   22.4967 C   0  0  0  0  0  0  0  0  0  0  0  0
  -20.1158   -5.9531   24.8830 C   0  0  0  0  0  0  0  0  0  0  0  0
  -32.4929  -17.7894   22.3897 C   0  0  0  0  0  0  0  0  0  0  0  0
  -23.8569  -10.3905   21.0180 C   0  0  0  0  0  0  0  0  0  0  0  0
  -24.0704  -12.9187   20.7534 C   0  0  0  0  0  0  0  0  0  0  0  0
  -32.3395  -31.3262   17.0495 C   0  0  0  0  0  0  0  0  0  0  0  0
  -28.9240  -24.5696   18.9363 C   0  0  0  0  0  0  0  0  0  0  0  0
  -32.1091  -29.9501   16.8604 C   0  0  0  0  0  0  0  0  0  0  0  0
  -29.3344  -24.4192   20.2686 C   0  0  0  0  0  0  0  0  0  0  0  0
  -29.8291  -18.3528   22.2096 C   0  0  0  0  0  0  0  0  0  0  0  0
  -22.4458   -8.0307   21.4899 C   0  0  0  0  0  0  0  0  0  0  0  0
  -29.6515  -22.0389   19.8893 C   0  0  0  0  0  0  0  0  0  0  0  0
  -20.8577   -6.8674   22.7734 C   0  0  0  0  0  0  0  0  0  0  0  0
  -31.5892  -16.7585   22.5902 C   0  0  0  0  0  0  0  0  0  0  0  0
  -19.0450   -6.8469   24.8937 C   0  0  0  0  0  0  0  0  0  0  0  0
  -21.0222   -5.9634   23.8228 C   0  0  0  0  0  0  0  0  0  0  0  0
  -24.5863  -11.6090   20.7748 C   0  0  0  0  0  0  0  0  0  0  0  0
  -30.8117  -19.3124   22.0263 C   0  0  0  0  0  0  0  0  0  0  0  0
  -25.1584  -13.7119   20.4821 C   0  0  0  0  0  0  0  0  0  0  0  0
  -22.7278  -13.3773   20.9604 C   0  0  0  0  0  0  0  0  0  0  0  0
  -30.5472  -27.3024   18.9105 C   0  0  0  0  0  0  0  0  0  0  0  0
  -28.6685  -27.9908   21.4637 C   0  0  0  0  0  0  0  0  0  0  0  0
  -26.7542  -26.8432   24.0455 C   0  0  0  0  0  0  0  0  0  0  0  0
  -30.9291  -12.9432   21.4635 C   0  0  0  0  0  0  0  0  0  0  0  0
  -32.7300  -31.8878   18.3936 C   0  0  0  0  0  0  0  0  0  0  0  0
  -28.5000  -25.9162   18.4173 C   0  0  0  0  0  0  0  0  0  0  0  0
  -29.3992  -25.5888   21.2153 C   0  0  0  0  0  0  0  0  0  0  0  0
  -32.4242  -30.9492   19.5580 C   0  0  0  0  0  0  0  0  0  0  0  0
  -29.3950  -13.6241   18.2572 C   0  0  0  0  0  0  0  0  0  0  0  0
  -32.8922  -29.5328   19.2391 C   0  0  0  0  0  0  0  0  0  0  0  0
  -27.9276  -13.3043   18.5480 C   0  0  0  0  0  0  0  0  0  0  0  0
  -30.3259  -12.6580   18.9841 C   0  0  0  0  0  0  0  0  0  0  0  0
  -28.6516  -12.2738   20.7512 C   0  0  0  0  0  0  0  0  0  0  0  0
  -32.1593  -28.9723   18.0143 C   0  0  1  0  0  0  0  0  0  0  0  0
  -29.0925  -27.0762   19.2113 C   0  0  1  0  0  0  0  0  0  0  0  0
  -27.6601  -13.2295   20.0630 C   0  0  2  0  0  0  0  0  0  0  0  0
  -26.2830  -18.5025   20.6905 C   0  0  0  0  0  0  0  0  0  0  0  0
  -25.3781  -27.6441   25.9851 C   0  0  0  0  0  0  0  0  0  0  0  0
  -31.2212  -28.6057   23.0179 C   0  0  0  0  0  0  0  0  0  0  0  0
  -29.8857  -28.4648   25.1309 C   0  0  0  0  0  0  0  0  0  0  0  0
  -29.3407  -30.2029   23.4266 C   0  0  0  0  0  0  0  0  0  0  0  0
  -24.2966  -25.5969   22.9659 C   0  0  0  0  0  0  0  0  0  0  0  0
  -28.3785  -18.6756   22.1082 C   0  0  0  0  0  0  0  0  0  0  0  0
  -30.4341  -20.7307   21.7147 C   0  0  0  0  0  0  0  0  0  1  0  0
  -27.7712  -18.2032   20.7777 C   0  0  0  0  0  0  0  0  0  0  0  0
  -33.2506  -13.6163   22.0242 C   0  0  0  0  0  0  0  0  0  0  0  0
  -33.2769  -15.1034   22.3289 C   0  0  0  0  0  0  0  0  0  0  0  0
  -28.7742  -27.7844   22.9554 C   0  0  1  0  0  0  0  0  0  0  0  0
  -25.3662  -27.2328   24.5210 C   0  0  2  0  0  0  0  0  0  0  0  0
  -29.8062  -28.7426   23.6146 C   0  0  0  0  0  0  0  0  0  0  0  0
  -32.1378  -19.0633   22.1091 N   0  0  0  0  0  0  0  0  0  0  0  0
  -25.8998  -11.5683   20.5359 N   0  0  0  0  0  0  0  0  0  0  0  0
  -26.2184  -12.8622   20.3618 N   0  0  0  0  0  0  0  0  0  0  0  0
  -28.9804  -26.8859   20.6589 N   0  0  0  0  0  0  0  0  0  0  0  0
  -30.0315  -12.6480   20.4240 N   0  0  0  0  0  0  0  0  0  0  0  0
  -25.3021  -15.0463   20.3370 N   0  0  0  0  0  0  0  0  0  0  0  0
  -21.7316  -12.4286   21.2287 N   0  0  0  0  0  0  0  0  0  0  0  0
  -30.8243  -28.5459   18.3755 N   0  0  0  0  0  0  0  0  0  0  0  0
  -27.4196  -27.9114   23.4821 N   0  0  0  0  0  0  0  0  0  0  0  0
  -32.2178  -13.2814   21.0692 N   0  0  0  0  0  0  0  0  0  0  0  0
  -24.4242  -26.0891   24.3618 N   0  3  0  0  0  0  0  0  0  0  0  0
  -22.4176  -14.5908   20.8927 O   0  0  0  0  0  0  0  0  0  0  0  0
  -31.3583  -26.4149   19.1477 O   0  0  0  0  0  0  0  0  0  0  0  0
  -28.3150  -29.0897   21.0288 O   0  0  0  0  0  0  0  0  0  0  0  0
  -27.2047  -25.7060   24.1654 O   0  0  0  0  0  0  0  0  0  0  0  0
  -30.6046  -12.9129   22.6555 O   0  0  0  0  0  0  0  0  0  0  0  0
  -21.7572   -6.8795   21.7205 O   0  0  0  0  0  0  0  0  0  0  0  0
  -30.0102  -20.8114   20.3545 O   0  0  0  0  0  0  0  0  0  1  0  0
  -32.0131  -15.5004   22.8655 O   0  0  0  0  0  0  0  0  0  0  0  0
  -18.1754   -6.8381   25.9125 F   0  0  0  0  0  0  0  0  0  0  0  0
  -22.0497   -5.1031   23.8185 F   0  0  0  0  0  0  0  0  0  0  0  0
  1  2  1  0  0  0  0
  1  5  2  0  0  0  0
  2  6  2  0  0  0  0
  3  8  2  0  0  0  0
  3 17  1  0  0  0  0
  4  9  1  0  0  0  0
  4 17  2  0  0  0  0
  5 19  1  0  0  0  0
  6 21  1  0  0  0  0
  7 10  2  0  0  0  0
  7 20  1  0  0  0  0
  8 24  1  0  0  0  0
  9 24  2  0  0  0  0
 10 25  1  0  0  0  0
 11 12  2  0  0  0  0
 11 26  1  0  0  0  0
 12 28  1  0  0  0  0
 13 22  1  0  0  0  0
 13 25  2  0  0  0  0
 14 23  1  0  0  0  0
 14 27  2  0  0  0  0
 15 28  2  0  0  0  0
 15 29  1  0  0  0  0
 16 27  1  0  0  0  0
 16 64  2  0  0  0  0
 17 30  1  0  0  0  0
 18 30  1  0  0  0  0
 18 32  2  0  0  0  0
 18 33  1  0  0  0  0
 19 21  2  0  0  0  0
 19 38  1  0  0  0  0
 20 22  2  0  0  0  0
 20 39  1  0  0  0  0
 21 47  1  0  0  0  0
 22 40  1  0  0  0  0
 23 31  2  0  0  0  0
 23 56  1  0  0  0  0
 24 80  1  0  0  0  0
 25 81  1  0  0  0  0
 26 29  2  0  0  0  0
 26 80  1  0  0  0  0
 27 82  1  0  0  0  0
 28 83  1  0  0  0  0
 29 84  1  0  0  0  0
 30 65  2  0  0  0  0
 31 57  1  0  0  0  0
 31 64  1  0  0  0  0
 32 66  1  0  0  0  0
 32 69  1  0  0  0  0
 33 70  1  0  0  0  0
 33 75  2  0  0  0  0
 34 48  1  0  0  0  0
 34 71  1  0  0  0  0
 34 76  2  0  0  0  0
 35 61  1  0  0  0  0
 35 67  1  0  0  0  0
 35 77  2  0  0  0  0
 36 62  1  0  0  0  0
 36 72  1  0  0  0  0
 36 78  2  0  0  0  0
 37 68  1  0  0  0  0
 37 73  1  0  0  0  0
 37 79  2  0  0  0  0
 38 41  1  0  0  0  0
 39 48  1  0  0  0  0
 40 67  1  0  0  0  0
 41 43  1  0  0  0  0
 42 44  1  0  0  0  0
 42 45  1  0  0  0  0
 43 47  1  0  0  0  0
 44 49  1  0  0  0  0
 45 68  1  0  0  0  0
 46 49  1  0  0  0  0
 46 68  1  0  0  0  0
 47 71  1  0  0  0  0
 48 67  1  0  0  0  0
 49 66  1  0  0  0  0
 50 58  1  0  0  0  0
 51 62  1  0  0  0  0
 52 63  1  0  0  0  0
 53 63  1  0  0  0  0
 54 63  1  0  0  0  0
 55 74  1  0  0  0  0
 56 58  1  0  0  0  0
 57 81  1  0  0  0  0
 59 60  1  0  0  0  0
 59 73  1  0  0  0  0
 60 82  1  0  0  0  0
 61 63  1  0  0  0  0
 61 72  1  0  0  0  0
 62 74  1  0  0  0  0
 65 66  1  0  0  0  0
M  CHG  1  74   1
M  ISO  4  37 100  57 101  73 100  81 101
M  END
> <Batch ID>
0105

> <Smiles>
CCCc1cc(OCC[100NH:0][100C:0](=O)N2CCCC(n3nc(-c4ccc(Oc5ccc(F)cc5F)cc4)c(C(N)=O)c3N)C2)cnc1[101CH2:1][101O:1]c1ccc2c(c1)CN(C(=O)C(NC(=O)C(C)NC)C(C)(C)C)C(C(=O)NC1CCCc3ccccc31)C2

> <Shape>
0.257

> <Color>
0.183

> <Negative vol penalty>
0.000

$$$$

  -OEChem-04052319463D

 86 94  0     1  0  0  0  0  0999 V2000
  -16.1186  -28.3977   21.6676 C   0  0  0  0  0  0  0  0  0  0  0  0
  -16.4086  -27.5243   20.6242 C   0  0  0  0  0  0  0  0  0  0  0  0
  -28.1598  -26.2918   19.2022 C   0  0  0  0  0  0  0  0  0  0  0  0
  -29.4518  -25.4379   21.0567 C   0  0  0  0  0  0  0  0  0  0  0  0
  -17.0906  -28.6856   22.6247 C   0  0  0  0  0  0  0  0  0  0  0  0
  -17.6714  -26.9392   20.5368 C   0  0  0  0  0  0  0  0  0  0  0  0
  -18.4501  -19.7779   20.5650 C   0  0  0  0  0  0  0  0  0  0  0  0
  -27.7740  -27.3869   19.9752 C   0  0  0  0  0  0  0  0  0  0  0  0
  -29.0660  -26.5330   21.8297 C   0  0  0  0  0  0  0  0  0  0  0  0
  -18.6660  -18.4163   20.3519 C   0  0  0  0  0  0  0  0  0  0  0  0
  -26.7401  -30.5925   21.3427 C   0  0  0  0  0  0  0  0  0  0  0  0
  -26.7895  -31.8542   20.7501 C   0  0  0  0  0  0  0  0  0  0  0  0
  -21.0542  -18.7924   20.2982 C   0  0  0  0  0  0  0  0  0  0  0  0
  -24.4228  -12.7941   20.1210 C   0  0  0  0  0  0  0  0  0  0  0  0
  -29.1627  -31.5888   20.3830 C   0  0  0  0  0  0  0  0  0  0  0  0
  -28.9987  -25.3172   19.7430 C   0  0  0  0  0  0  0  0  0  0  0  0
  -30.5281  -24.0882   18.1127 C   0  0  0  0  0  0  0  0  0  0  0  0
  -18.3628  -28.0962   22.5545 C   0  0  0  0  0  0  0  0  0  0  0  0
  -19.5375  -20.6507   20.6610 C   0  0  0  0  0  0  0  0  0  0  0  0
  -18.6618  -27.2206   21.4932 C   0  0  0  0  0  0  0  0  0  0  0  0
  -20.8447  -20.1554   20.5240 C   0  0  0  0  0  0  0  0  0  0  0  0
  -25.5960  -12.3484   19.5225 C   0  0  0  0  0  0  0  0  0  0  0  0
  -26.6978  -13.1936   19.4506 C   0  0  0  0  0  0  0  0  0  0  0  0
  -28.2271  -27.5075   21.2889 C   0  0  0  0  0  0  0  0  0  0  0  0
  -19.9648  -17.9248   20.2186 C   0  0  0  0  0  0  0  0  0  0  0  0
  -27.9019  -29.8289   21.4555 C   0  0  0  0  0  0  0  0  0  0  0  0
  -28.0008  -32.3524   20.2703 C   0  0  0  0  0  0  0  0  0  0  0  0
  -29.1132  -30.3270   20.9757 C   0  0  0  0  0  0  0  0  0  0  0  0
  -29.3971  -24.1855   18.9452 C   0  0  0  0  0  0  0  0  0  0  0  0
  -24.4027  -14.0833   20.6283 C   0  0  0  0  0  0  0  0  0  0  0  0
  -26.5758  -14.4650   19.9877 C   0  0  0  0  0  0  0  0  0  0  0  0
  -30.4559  -22.8236   17.5817 C   0  0  0  0  0  0  0  0  0  0  0  0
  -31.5525  -25.0546   17.8434 C   0  0  0  0  0  0  0  0  0  0  0  0
  -20.7250  -24.1710   21.1837 C   0  0  0  0  0  0  0  0  0  0  0  0
  -22.6390  -22.3451   22.7372 C   0  0  0  0  0  0  0  0  0  0  0  0
  -24.9889  -19.8723   22.7161 C   0  0  0  0  0  0  0  0  0  0  0  0
  -27.9511  -17.8605   19.5688 C   0  0  0  0  0  0  0  0  0  0  0  0
  -19.3961  -28.4747   23.5858 C   0  0  0  0  0  0  0  0  0  0  0  0
  -19.3497  -22.1341   20.8285 C   0  0  0  0  0  0  0  0  0  0  0  0
  -21.9825  -21.1365   20.5996 C   0  0  0  0  0  0  0  0  0  0  0  0
  -20.5883  -27.5224   23.6315 C   0  0  0  0  0  0  0  0  0  0  0  0
  -27.2895  -19.4413   16.3812 C   0  0  0  0  0  0  0  0  0  0  0  0
  -21.0938  -27.2318   22.2219 C   0  0  0  0  0  0  0  0  0  0  0  0
  -27.8702  -20.8382   16.6081 C   0  0  0  0  0  0  0  0  0  0  0  0
  -26.6160  -18.9108   17.6435 C   0  0  0  0  0  0  0  0  0  0  0  0
  -28.0746  -20.2864   19.0767 C   0  0  0  0  0  0  0  0  0  0  0  0
  -20.0119  -26.5468   21.3781 C   0  0  1  0  0  0  0  0  0  0  0  0
  -20.4440  -22.7873   21.6915 C   0  0  1  0  0  0  0  0  0  0  0  0
  -28.7891  -20.8691   17.8438 C   0  0  2  0  0  0  0  0  0  0  0  0
  -25.6458  -10.9645   18.9646 C   0  0  0  0  0  0  0  0  0  0  0  0
  -29.1479  -12.7225   19.8092 C   0  0  0  0  0  0  0  0  0  0  0  0
  -28.3426  -13.5821   17.5804 C   0  0  0  0  0  0  0  0  0  0  0  0
  -26.8545  -18.4257   23.5673 C   0  0  0  0  0  0  0  0  0  0  0  0
  -20.0824  -14.8169   21.6263 C   0  0  0  0  0  0  0  0  0  0  0  0
  -24.3825  -24.6521   21.7669 C   0  0  0  0  0  0  0  0  0  0  0  0
  -26.3950  -23.2564   22.2865 C   0  0  0  0  0  0  0  0  0  0  0  0
  -24.8332  -23.9194   24.1151 C   0  0  0  0  0  0  0  0  0  0  0  0
  -23.0992  -17.9847   23.9909 C   0  0  0  0  0  0  0  0  0  0  0  0
  -23.1480  -14.6002   21.2856 C   0  0  0  0  0  0  0  0  0  0  0  0
  -27.7255  -15.4177   19.9418 C   0  0  0  0  0  0  0  0  0  0  0  0
  -22.1816  -15.2948   20.3151 C   0  0  0  0  0  0  0  0  0  0  0  0
  -27.9702  -12.7419   18.8165 C   0  0  0  0  0  0  0  0  0  0  0  0
  -24.1065  -22.1740   22.4366 C   0  0  1  0  0  0  0  0  0  0  0  0
  -25.4205  -18.8834   23.7839 C   0  0  2  0  0  0  0  0  0  0  0  0
  -20.9451  -15.8999   20.9910 C   0  0  1  0  0  0  0  0  0  1  0  0
  -24.9093  -23.4909   22.6335 C   0  0  0  0  0  0  0  0  0  0  0  0
  -28.6602  -23.0714   18.9462 N   0  0  0  0  0  0  0  0  0  0  0  0
  -25.4527  -14.9333   20.5769 N   0  0  0  0  0  0  0  0  0  0  0  0
  -29.3297  -22.2622   18.1077 N   0  0  0  0  0  0  0  0  0  0  0  0
  -21.7454  -22.0978   21.6879 N   0  0  0  0  0  0  0  0  0  0  0  0
  -27.5498  -18.9498   18.7778 N   0  0  0  0  0  0  0  0  0  0  0  0
  -31.2466  -22.1481   16.7208 N   0  0  0  0  0  0  0  0  0  0  0  0
  -31.4739  -26.3045   18.4727 N   0  0  0  0  0  0  0  0  0  0  0  0
  -19.9103  -25.1460   21.7270 N   0  0  0  0  0  0  0  0  0  0  0  0
  -24.5662  -21.0645   23.2650 N   0  0  0  0  0  0  0  0  0  0  0  0
  -27.4030  -16.6310   19.2242 N   0  0  0  0  0  0  0  0  0  0  0  0
  -24.5365  -17.6837   23.7665 N   0  3  0  0  0  0  0  0  0  0  0  0
  -32.5002  -24.8227   17.0551 O   0  0  0  0  0  0  0  0  0  0  0  0
  -21.6164  -24.3431   20.3605 O   0  0  0  0  0  0  0  0  0  0  0  0
  -22.2918  -22.6939   23.8690 O   0  0  0  0  0  0  0  0  0  0  0  0
  -25.0267  -19.6144   21.5150 O   0  0  0  0  0  0  0  0  0  0  0  0
  -28.7439  -17.9741   20.5099 O   0  0  0  0  0  0  0  0  0  0  0  0
  -27.8511  -28.5761   22.0434 O   0  0  0  0  0  0  0  0  0  0  0  0
  -20.1686  -16.5937   20.0152 O   0  0  0  0  0  0  0  0  0  1  0  0
  -28.0479  -33.5634   19.6998 F   0  0  0  0  0  0  0  0  0  0  0  0
  -30.2325  -29.5976   21.0802 F   0  0  0  0  0  0  0  0  0  0  0  0
  1  2  1  0  0  0  0
  1  5  2  0  0  0  0
  2  6  2  0  0  0  0
  3  8  2  0  0  0  0
  3 16  1  0  0  0  0
  4  9  1  0  0  0  0
  4 16  2  0  0  0  0
  5 18  1  0  0  0  0
  6 20  1  0  0  0  0
  7 10  2  0  0  0  0
  7 19  1  0  0  0  0
  8 24  1  0  0  0  0
  9 24  2  0  0  0  0
 10 25  1  0  0  0  0
 11 12  2  0  0  0  0
 11 26  1  0  0  0  0
 12 27  1  0  0  0  0
 13 21  1  0  0  0  0
 13 25  2  0  0  0  0
 14 22  2  0  0  0  0
 14 30  1  0  0  0  0
 15 27  2  0  0  0  0
 15 28  1  0  0  0  0
 16 29  1  0  0  0  0
 17 29  1  0  0  0  0
 17 32  2  0  0  0  0
 17 33  1  0  0  0  0
 18 20  2  0  0  0  0
 18 38  1  0  0  0  0
 19 21  2  0  0  0  0
 19 39  1  0  0  0  0
 20 47  1  0  0  0  0
 21 40  1  0  0  0  0
 22 23  1  0  0  0  0
 22 50  1  0  0  0  0
 23 31  2  0  0  0  0
 23 62  1  0  0  0  0
 24 83  1  0  0  0  0
 25 84  1  0  0  0  0
 26 28  2  0  0  0  0
 26 83  1  0  0  0  0
 27 85  1  0  0  0  0
 28 86  1  0  0  0  0
 29 67  2  0  0  0  0
 30 59  1  0  0  0  0
 30 68  2  0  0  0  0
 31 60  1  0  0  0  0
 31 68  1  0  0  0  0
 32 69  1  0  0  0  0
 32 72  1  0  0  0  0
 33 73  1  0  0  0  0
 33 78  2  0  0  0  0
 34 48  1  0  0  0  0
 34 74  1  0  0  0  0
 34 79  2  0  0  0  0
 35 63  1  0  0  0  0
 35 70  1  0  0  0  0
 35 80  2  0  0  0  0
 36 64  1  0  0  0  0
 36 75  1  0  0  0  0
 36 81  2  0  0  0  0
 37 71  1  0  0  0  0
 37 76  1  0  0  0  0
 37 82  2  0  0  0  0
 38 41  1  0  0  0  0
 39 48  1  0  0  0  0
 40 70  1  0  0  0  0
 41 43  1  0  0  0  0
 42 44  1  0  0  0  0
 42 45  1  0  0  0  0
 43 47  1  0  0  0  0
 44 49  1  0  0  0  0
 45 71  1  0  0  0  0
 46 49  1  0  0  0  0
 46 71  1  0  0  0  0
 47 74  1  0  0  0  0
 48 70  1  0  0  0  0
 49 69  1  0  0  0  0
 51 62  1  0  0  0  0
 52 62  1  0  0  0  0
 53 64  1  0  0  0  0
 54 65  1  0  0  0  0
 55 66  1  0  0  0  0
 56 66  1  0  0  0  0
 57 66  1  0  0  0  0
 58 77  1  0  0  0  0
 59 61  1  0  0  0  0
 60 76  1  0  0  0  0
 61 65  1  0  0  0  0
 63 66  1  0  0  0  0
 63 75  1  0  0  0  0
 64 77  1  0  0  0  0
 65 84  1  0  0  0  0
 67 69  1  0  0  0  0
M  CHG  1  77   1
M  ISO  4  37 100  65 101  76 100  84 101
M  END
> <Batch ID>
0105

> <Smiles>
CNC(C)C(=O)NC(C(=O)N1Cc2cc([101O:1][101CH:1](C)CCc3cc(C)c(C(C)C)c(C[100NH:0][100C:0](=O)N4CCCC(n5nc(-c6ccc(Oc7ccc(F)cc7F)cc6)c(C(N)=O)c5N)C4)n3)ccc2CC1C(=O)NC1CCCc2ccccc21)C(C)(C)C

> <Shape>
0.215

> <Color>
0.056

> <Negative vol penalty>
0.000

$$$$

  -OEChem-04052319463D

 81 88  0     1  0  0  0  0  0999 V2000
  -20.6629   -9.7078   19.8250 C   0  0  0  0  0  0  0  0  0  0  0  0
  -20.8812  -10.8426   19.0505 C   0  0  0  0  0  0  0  0  0  0  0  0
  -22.5793  -29.2890   22.4922 C   0  0  0  0  0  0  0  0  0  0  0  0
  -22.9522  -27.1663   23.5841 C   0  0  0  0  0  0  0  0  0  0  0  0
  -21.3806   -9.5226   21.0060 C   0  0  0  0  0  0  0  0  0  0  0  0
  -21.8166  -11.7935   19.4571 C   0  0  0  0  0  0  0  0  0  0  0  0
  -26.5292  -16.4843   16.7917 C   0  0  0  0  0  0  0  0  0  0  0  0
  -21.2126  -29.0172   22.4306 C   0  0  0  0  0  0  0  0  0  0  0  0
  -21.5855  -26.8945   23.5225 C   0  0  0  0  0  0  0  0  0  0  0  0
  -26.8778  -17.8310   16.8835 C   0  0  0  0  0  0  0  0  0  0  0  0
  -17.5794  -29.0412   22.3105 C   0  0  0  0  0  0  0  0  0  0  0  0
  -16.6983  -30.0632   22.6637 C   0  0  0  0  0  0  0  0  0  0  0  0
  -28.1159  -17.3668   18.9011 C   0  0  0  0  0  0  0  0  0  0  0  0
  -17.6736  -30.1404   24.8728 C   0  0  0  0  0  0  0  0  0  0  0  0
  -23.4491  -28.3635   23.0689 C   0  0  0  0  0  0  0  0  0  0  0  0
  -25.5522  -29.2981   24.1695 C   0  0  0  0  0  0  0  0  0  0  0  0
  -22.3321  -10.4669   21.4223 C   0  0  0  0  0  0  0  0  0  0  0  0
  -26.9630  -15.5690   17.7615 C   0  0  0  0  0  0  0  0  0  0  0  0
  -22.5467  -11.6214   20.6454 C   0  0  0  0  0  0  0  0  0  0  0  0
  -27.7735  -16.0085   18.8179 C   0  0  0  0  0  0  0  0  0  0  0  0
  -20.7157  -27.8199   22.9458 C   0  0  0  0  0  0  0  0  0  0  0  0
  -27.6688  -18.2730   17.9399 C   0  0  0  0  0  0  0  0  0  0  0  0
  -18.5075  -28.5687   23.2385 C   0  0  0  0  0  0  0  0  0  0  0  0
  -16.7454  -30.6129   23.9449 C   0  0  0  0  0  0  0  0  0  0  0  0
  -18.5546  -29.1183   24.5196 C   0  0  0  0  0  0  0  0  0  0  0  0
  -24.8611  -28.6435   23.1324 C   0  0  0  0  0  0  0  0  0  0  0  0
  -26.8612  -29.3133   23.7537 C   0  0  0  0  0  0  0  0  0  0  0  0
  -25.0554  -29.8437   25.3988 C   0  0  0  0  0  0  0  0  0  0  0  0
  -25.5163  -13.6778   19.8672 C   0  0  0  0  0  0  0  0  0  0  0  0
  -28.5327  -12.6058   20.3908 C   0  0  0  0  0  0  0  0  0  0  0  0
  -31.8885  -13.2085   20.2410 C   0  0  0  0  0  0  0  0  0  0  0  0
  -29.9935  -25.8366   20.0185 C   0  0  0  0  0  0  0  0  0  0  0  0
  -23.0494  -10.2466   22.7306 C   0  0  0  0  0  0  0  0  0  0  0  0
  -26.6005  -14.1149   17.6335 C   0  0  0  0  0  0  0  0  0  0  0  0
  -28.2819  -15.0625   19.8739 C   0  0  0  0  0  0  0  0  0  0  0  0
  -24.2917  -11.1177   22.8984 C   0  0  0  0  0  0  0  0  0  0  0  0
  -29.5281  -29.3585   19.7818 C   0  0  0  0  0  0  0  0  0  0  0  0
  -23.9871  -12.5618   22.5126 C   0  0  0  0  0  0  0  0  0  0  0  0
  -28.3416  -29.6337   20.7072 C   0  0  0  0  0  0  0  0  0  0  0  0
  -29.3737  -28.0291   19.0464 C   0  0  0  0  0  0  0  0  0  0  0  0
  -27.9396  -27.1399   20.8426 C   0  0  0  0  0  0  0  0  0  0  0  0
  -23.5706  -12.6634   21.0403 C   0  0  1  0  0  0  0  0  0  0  0  0
  -26.6709  -13.3626   18.9588 C   0  0  1  0  0  0  0  0  0  0  0  0
  -28.0765  -28.4431   21.6483 C   0  0  2  0  0  0  0  0  0  0  0  0
  -34.1042  -12.1585   20.7751 C   0  0  0  0  0  0  0  0  0  0  0  0
  -28.0903  -13.1850   23.3536 C   0  0  0  0  0  0  0  0  0  0  0  0
  -30.5677  -13.0337   23.6817 C   0  0  0  0  0  0  0  0  0  0  0  0
  -29.2942  -11.0453   22.8774 C   0  0  0  0  0  0  0  0  0  0  0  0
  -25.7895  -22.1505   17.9630 C   0  0  0  0  0  0  0  0  0  0  0  0
  -26.0344  -23.2052   20.2179 C   0  0  0  0  0  0  0  0  0  0  0  0
  -25.5697  -20.7588   20.0125 C   0  0  0  0  0  0  0  0  0  0  0  0
  -32.7438  -13.2968   17.4091 C   0  0  0  0  0  0  0  0  0  0  0  0
  -28.4441  -21.3689   21.7571 C   0  0  0  0  0  0  0  0  0  0  0  0
  -30.4936  -23.6599   21.1007 C   0  0  0  0  0  0  0  0  0  0  0  0
  -30.0126  -22.5296   20.2100 C   0  0  0  0  0  0  0  0  0  0  0  0
  -28.2137  -20.1148   19.3424 C   0  0  0  0  0  0  0  0  0  1  0  0
  -29.6615  -12.9976   21.3135 C   0  0  1  0  0  0  0  0  0  0  0  0
  -33.0393  -12.3726   19.7107 C   0  0  2  0  0  0  0  0  0  0  0  0
  -27.8670  -21.6072   19.3463 C   0  0  1  0  0  0  0  0  0  0  0  0
  -29.3924  -12.5838   22.7879 C   0  0  0  0  0  0  0  0  0  0  0  0
  -26.3421  -21.9426   19.3904 C   0  0  0  0  0  0  0  0  0  0  0  0
  -25.6646  -28.2699   22.1329 N   0  0  0  0  0  0  0  0  0  0  0  0
  -26.8740  -28.6914   22.5400 N   0  0  0  0  0  0  0  0  0  0  0  0
  -27.8951  -13.6516   19.7084 N   0  0  0  0  0  0  0  0  0  0  0  0
  -29.1263  -26.9413   19.9957 N   0  0  0  0  0  0  0  0  0  0  0  0
  -27.9909  -29.7980   24.3116 N   0  0  0  0  0  0  0  0  0  0  0  0
  -23.6838  -29.7424   25.6687 N   0  0  0  0  0  0  0  0  0  0  0  0
  -24.7317  -12.5842   20.1800 N   0  0  0  0  0  0  0  0  0  0  0  0
  -30.8740  -12.4210   20.7429 N   0  0  0  0  0  0  0  0  0  0  0  0
  -29.6909  -24.8534   20.9526 N   0  0  0  0  0  0  0  0  0  0  0  0
  -33.6723  -13.0453   18.5412 N   0  3  0  0  0  0  0  0  0  0  0  0
  -28.5767  -22.2131   20.5208 N   0  3  1  0  0  0  0  0  0  0  0  0
  -25.8029  -30.4190   26.2257 O   0  0  0  0  0  0  0  0  0  0  0  0
  -25.3504  -14.8278   20.2567 O   0  0  0  0  0  0  0  0  0  0  0  0
  -28.2326  -11.4150   20.2740 O   0  0  0  0  0  0  0  0  0  0  0  0
  -31.8909  -14.4373   20.2161 O   0  0  0  0  0  0  0  0  0  0  0  0
  -30.9686  -25.7365   19.2661 O   0  0  0  0  0  0  0  0  0  0  0  0
  -19.3820  -27.5545   22.8860 O   0  0  0  0  0  0  0  0  0  0  0  0
  -28.0100  -19.5871   18.0323 O   0  0  0  0  0  0  0  0  0  1  0  0
  -15.9003  -31.5954   24.2834 F   0  0  0  0  0  0  0  0  0  0  0  0
  -19.4449  -28.6694   25.4150 F   0  0  0  0  0  0  0  0  0  0  0  0
  1  2  1  0  0  0  0
  1  5  2  0  0  0  0
  2  6  2  0  0  0  0
  3  8  2  0  0  0  0
  3 15  1  0  0  0  0
  4  9  1  0  0  0  0
  4 15  2  0  0  0  0
  5 17  1  0  0  0  0
  6 19  1  0  0  0  0
  7 10  2  0  0  0  0
  7 18  1  0  0  0  0
  8 21  1  0  0  0  0
  9 21  2  0  0  0  0
 10 22  1  0  0  0  0
 11 12  2  0  0  0  0
 11 23  1  0  0  0  0
 12 24  1  0  0  0  0
 13 20  1  0  0  0  0
 13 22  2  0  0  0  0
 14 24  2  0  0  0  0
 14 25  1  0  0  0  0
 15 26  1  0  0  0  0
 16 26  1  0  0  0  0
 16 27  2  0  0  0  0
 16 28  1  0  0  0  0
 17 19  2  0  0  0  0
 17 33  1  0  0  0  0
 18 20  2  0  0  0  0
 18 34  1  0  0  0  0
 19 42  1  0  0  0  0
 20 35  1  0  0  0  0
 21 78  1  0  0  0  0
 22 79  1  0  0  0  0
 23 25  2  0  0  0  0
 23 78  1  0  0  0  0
 24 80  1  0  0  0  0
 25 81  1  0  0  0  0
 26 62  2  0  0  0  0
 27 63  1  0  0  0  0
 27 66  1  0  0  0  0
 28 67  1  0  0  0  0
 28 73  2  0  0  0  0
 29 43  1  0  0  0  0
 29 68  1  0  0  0  0
 29 74  2  0  0  0  0
 30 57  1  0  0  0  0
 30 64  1  0  0  0  0
 30 75  2  0  0  0  0
 31 58  1  0  0  0  0
 31 69  1  0  0  0  0
 31 76  2  0  0  0  0
 32 65  1  0  0  0  0
 32 70  1  0  0  0  0
 32 77  2  0  0  0  0
 33 36  1  0  0  0  0
 34 43  1  0  0  0  0
 35 64  1  0  0  0  0
 36 38  1  0  0  0  0
 37 39  1  0  0  0  0
 37 40  1  0  0  0  0
 38 42  1  0  0  0  0
 39 44  1  0  0  0  0
 40 65  1  0  0  0  0
 41 44  1  0  0  0  0
 41 65  1  0  0  0  0
 42 68  1  0  0  0  0
 43 64  1  0  0  0  0
 44 63  1  0  0  0  0
 45 58  1  0  0  0  0
 46 60  1  0  0  0  0
 47 60  1  0  0  0  0
 48 60  1  0  0  0  0
 49 61  1  0  0  0  0
 50 61  1  0  0  0  0
 51 61  1  0  0  0  0
 52 71  1  0  0  0  0
 53 72  1  0  0  0  0
 54 55  1  0  0  0  0
 54 70  1  0  0  0  0
 55 72  1  0  0  0  0
 56 59  1  0  0  0  0
 56 79  1  0  0  0  0
 57 60  1  0  0  0  0
 57 69  1  0  0  0  0
 58 71  1  0  0  0  0
 59 61  1  0  0  0  0
 59 72  1  0  0  0  0
 62 63  1  0  0  0  0
M  CHG  2  71   1  72   1
M  ISO  4  32 100  56 101  70 100  79 101
M  END
> <Batch ID>
0105

> <Smiles>
CNC(C)C(=O)NC(C(=O)N1Cc2cc([101O:1][101CH2:1]C(N(C)CC[100NH:0][100C:0](=O)N3CCCC(n4nc(-c5ccc(Oc6ccc(F)cc6F)cc5)c(C(N)=O)c4N)C3)C(C)(C)C)ccc2CC1C(=O)NC1CCCc2ccccc21)C(C)(C)C

> <Shape>
0.288

> <Color>
0.066

> <Negative vol penalty>
0.000

$$$$

  -OEChem-04052319463D

 90 98  0     1  0  0  0  0  0999 V2000
  -29.5378  -34.9386   17.8418 C   0  0  0  0  0  0  0  0  0  0  0  0
  -29.8560  -33.5879   17.7434 C   0  0  0  0  0  0  0  0  0  0  0  0
  -24.5735   -9.1638   21.9811 C   0  0  0  0  0  0  0  0  0  0  0  0
  -23.3629   -9.5460   19.9255 C   0  0  0  0  0  0  0  0  0  0  0  0
  -28.7985  -35.4021   18.9292 C   0  0  0  0  0  0  0  0  0  0  0  0
  -29.4358  -32.6999   18.7330 C   0  0  0  0  0  0  0  0  0  0  0  0
  -27.3313  -25.9092   19.6126 C   0  0  0  0  0  0  0  0  0  0  0  0
  -23.4677   -8.4970   22.5084 C   0  0  0  0  0  0  0  0  0  0  0  0
  -22.2570   -8.8791   20.4528 C   0  0  0  0  0  0  0  0  0  0  0  0
  -27.6164  -24.7848   20.3861 C   0  0  0  0  0  0  0  0  0  0  0  0
  -22.0463   -5.4399   22.2506 C   0  0  0  0  0  0  0  0  0  0  0  0
  -22.2727   -4.2363   22.9181 C   0  0  0  0  0  0  0  0  0  0  0  0
  -26.2767  -25.6856   22.1786 C   0  0  0  0  0  0  0  0  0  0  0  0
  -24.0778  -19.0252   20.5194 C   0  0  0  0  0  0  0  0  0  0  0  0
  -21.3169   -5.1722   24.9300 C   0  0  0  0  0  0  0  0  0  0  0  0
  -24.5211   -9.6884   20.6897 C   0  0  0  0  0  0  0  0  0  0  0  0
  -26.7263   -9.8153   19.4135 C   0  0  0  0  0  0  0  0  0  0  0  0
  -28.3607  -34.5177   19.9277 C   0  0  0  0  0  0  0  0  0  0  0  0
  -26.5243  -26.9370   20.1213 C   0  0  0  0  0  0  0  0  0  0  0  0
  -28.6910  -33.1521   19.8355 C   0  0  0  0  0  0  0  0  0  0  0  0
  -25.9807  -26.8208   21.4086 C   0  0  0  0  0  0  0  0  0  0  0  0
  -23.9253  -18.2944   19.3464 C   0  0  0  0  0  0  0  0  0  0  0  0
  -24.3001  -18.8554   18.1307 C   0  0  0  0  0  0  0  0  0  0  0  0
  -22.3095   -8.3546   21.7443 C   0  0  0  0  0  0  0  0  0  0  0  0
  -27.0915  -24.6742   21.6704 C   0  0  0  0  0  0  0  0  0  0  0  0
  -21.4552   -6.5097   22.9228 C   0  0  0  0  0  0  0  0  0  0  0  0
  -21.9080   -4.1024   24.2578 C   0  0  0  0  0  0  0  0  0  0  0  0
  -21.0904   -6.3758   24.2624 C   0  0  0  0  0  0  0  0  0  0  0  0
  -25.6629  -10.3778   20.1446 C   0  0  0  0  0  0  0  0  0  0  0  0
  -24.6058  -20.3026   20.4237 C   0  0  0  0  0  0  0  0  0  0  0  0
  -24.8180  -20.1405   18.1418 C   0  0  0  0  0  0  0  0  0  0  0  0
  -27.5466  -10.8790   19.1271 C   0  0  0  0  0  0  0  0  0  0  0  0
  -26.9523   -8.4531   19.0277 C   0  0  0  0  0  0  0  0  0  0  0  0
  -26.9542  -30.0224   20.7528 C   0  0  0  0  0  0  0  0  0  0  0  0
  -23.7695  -29.9412   21.3639 C   0  0  0  0  0  0  0  0  0  0  0  0
  -21.0333  -28.0985   22.2380 C   0  0  0  0  0  0  0  0  0  0  0  0
  -26.5663  -16.7644   18.6240 C   0  0  0  0  0  0  0  0  0  0  0  0
  -27.6045  -35.0730   21.1085 C   0  0  0  0  0  0  0  0  0  0  0  0
  -26.2043  -28.1310   19.2643 C   0  0  0  0  0  0  0  0  0  0  0  0
  -25.0922  -27.8870   21.9934 C   0  0  0  0  0  0  0  0  0  0  0  0
  -26.8768  -34.0059   21.9223 C   0  0  0  0  0  0  0  0  0  0  0  0
  -28.8608  -15.1563   20.8209 C   0  0  0  0  0  0  0  0  0  0  0  0
  -27.7960  -32.8179   22.1877 C   0  0  0  0  0  0  0  0  0  0  0  0
  -28.3974  -13.6985   20.8307 C   0  0  0  0  0  0  0  0  0  0  0  0
  -27.6814  -16.1230   20.7411 C   0  0  0  0  0  0  0  0  0  0  0  0
  -26.2894  -14.4183   19.6319 C   0  0  0  0  0  0  0  0  0  0  0  0
  -28.2321  -32.1538   20.8761 C   0  0  1  0  0  0  0  0  0  0  0  0
  -25.7909  -29.3551   20.0754 C   0  0  1  0  0  0  0  0  0  0  0  0
  -27.4462  -13.4046   19.6550 C   0  0  2  0  0  0  0  0  0  0  0  0
  -23.3563  -16.9160   19.4189 C   0  0  0  0  0  0  0  0  0  0  0  0
  -25.2398  -20.7958   16.8673 C   0  0  0  0  0  0  0  0  0  0  0  0
  -18.5754  -28.3167   22.6949 C   0  0  0  0  0  0  0  0  0  0  0  0
  -26.4862  -15.6706   14.8174 C   0  0  0  0  0  0  0  0  0  0  0  0
  -24.0002  -15.5716   15.1210 C   0  0  0  0  0  0  0  0  0  0  0  0
  -24.3875  -31.1723   24.0865 C   0  0  0  0  0  0  0  0  0  0  0  0
  -22.0971  -30.4931   24.8356 C   0  0  0  0  0  0  0  0  0  0  0  0
  -22.3640  -32.1083   22.9534 C   0  0  0  0  0  0  0  0  0  0  0  0
  -27.8352  -21.2874   24.1845 C   0  0  0  0  0  0  0  0  0  0  0  0
  -25.3794  -21.3041   24.6908 C   0  0  0  0  0  0  0  0  0  0  0  0
  -20.3405  -26.2604   20.0243 C   0  0  0  0  0  0  0  0  0  0  0  0
  -24.1503  -18.0942   16.8565 C   0  0  0  0  0  0  0  0  0  0  0  0
  -24.7871  -21.1250   21.6767 C   0  0  0  0  0  0  0  0  0  0  0  0
  -26.1711  -20.8960   22.3002 C   0  0  0  0  0  0  0  0  0  0  0  0
  -26.3789  -23.1746   23.3731 C   0  0  0  0  0  0  0  0  0  1  0  0
  -22.9214  -29.6702   22.5830 C   0  0  1  0  0  0  0  0  0  0  0  0
  -19.6373  -28.0251   21.6461 C   0  0  2  0  0  0  0  0  0  0  0  0
  -25.2306  -16.4832   15.1542 C   0  0  0  0  0  0  0  0  0  0  0  0
  -25.3976  -17.2525   16.4898 C   0  0  2  0  0  0  0  0  0  0  0  0
  -22.9608  -30.8416   23.6046 C   0  0  0  0  0  0  0  0  0  0  0  0
  -26.4433  -21.6494   23.6336 C   0  0  0  0  0  0  0  0  0  0  0  0
  -25.7932  -11.6965   20.3124 N   0  0  0  0  0  0  0  0  0  0  0  0
  -24.9812  -20.8812   19.2610 N   0  0  0  0  0  0  0  0  0  0  0  0
  -26.9482  -11.9714   19.6828 N   0  0  0  0  0  0  0  0  0  0  0  0
  -24.8137  -29.0381   21.1188 N   0  0  0  0  0  0  0  0  0  0  0  0
  -26.8193  -15.7906   19.6042 N   0  0  0  0  0  0  0  0  0  0  0  0
  -28.7143  -10.9772   18.4568 N   0  0  0  0  0  0  0  0  0  0  0  0
  -26.0095   -7.4868   19.4041 N   0  0  0  0  0  0  0  0  0  0  0  0
  -27.1673  -31.3269   20.3499 N   0  0  0  0  0  0  0  0  0  0  0  0
  -21.5859  -29.3529   22.0888 N   0  0  0  0  0  0  0  0  0  0  0  0
  -25.7444  -16.3649   17.5773 N   0  0  0  0  0  0  0  0  0  0  0  0
  -19.3834  -26.6680   21.0848 N   0  3  0  0  0  0  0  0  0  0  0  0
  -27.9688   -8.1005   18.3827 O   0  0  0  0  0  0  0  0  0  0  0  0
  -27.6092  -29.4004   21.5810 O   0  0  0  0  0  0  0  0  0  0  0  0
  -23.5106  -30.9141   20.6511 O   0  0  0  0  0  0  0  0  0  0  0  0
  -21.5775  -27.1400   22.7818 O   0  0  0  0  0  0  0  0  0  0  0  0
  -27.0423  -17.9036   18.6750 O   0  0  0  0  0  0  0  0  0  0  0  0
  -21.2303   -7.7037   22.2584 O   0  0  0  0  0  0  0  0  0  0  0  0
  -27.3687  -23.5781   22.4277 O   0  0  0  0  0  0  0  0  0  1  0  0
  -22.1241   -2.9460   24.8983 F   0  0  0  0  0  0  0  0  0  0  0  0
  -20.5211   -7.3997   24.9131 F   0  0  0  0  0  0  0  0  0  0  0  0
  1  2  1  0  0  0  0
  1  5  2  0  0  0  0
  2  6  2  0  0  0  0
  3  8  2  0  0  0  0
  3 16  1  0  0  0  0
  4  9  1  0  0  0  0
  4 16  2  0  0  0  0
  5 18  1  0  0  0  0
  6 20  1  0  0  0  0
  7 10  2  0  0  0  0
  7 19  1  0  0  0  0
  8 24  1  0  0  0  0
  9 24  2  0  0  0  0
 10 25  1  0  0  0  0
 11 12  2  0  0  0  0
 11 26  1  0  0  0  0
 12 27  1  0  0  0  0
 13 21  1  0  0  0  0
 13 25  2  0  0  0  0
 14 22  2  0  0  0  0
 14 30  1  0  0  0  0
 15 27  2  0  0  0  0
 15 28  1  0  0  0  0
 16 29  1  0  0  0  0
 17 29  1  0  0  0  0
 17 32  2  0  0  0  0
 17 33  1  0  0  0  0
 18 20  2  0  0  0  0
 18 38  1  0  0  0  0
 19 21  2  0  0  0  0
 19 39  1  0  0  0  0
 20 47  1  0  0  0  0
 21 40  1  0  0  0  0
 22 23  1  0  0  0  0
 22 50  1  0  0  0  0
 23 31  2  0  0  0  0
 23 61  1  0  0  0  0
 24 87  1  0  0  0  0
 25 88  1  0  0  0  0
 26 28  2  0  0  0  0
 26 87  1  0  0  0  0
 27 89  1  0  0  0  0
 28 90  1  0  0  0  0
 29 71  2  0  0  0  0
 30 62  1  0  0  0  0
 30 72  2  0  0  0  0
 31 51  1  0  0  0  0
 31 72  1  0  0  0  0
 32 73  1  0  0  0  0
 32 76  1  0  0  0  0
 33 77  1  0  0  0  0
 33 82  2  0  0  0  0
 34 48  1  0  0  0  0
 34 78  1  0  0  0  0
 34 83  2  0  0  0  0
 35 65  1  0  0  0  0
 35 74  1  0  0  0  0
 35 84  2  0  0  0  0
 36 66  1  0  0  0  0
 36 79  1  0  0  0  0
 36 85  2  0  0  0  0
 37 75  1  0  0  0  0
 37 80  1  0  0  0  0
 37 86  2  0  0  0  0
 38 41  1  0  0  0  0
 39 48  1  0  0  0  0
 40 74  1  0  0  0  0
 41 43  1  0  0  0  0
 42 44  1  0  0  0  0
 42 45  1  0  0  0  0
 43 47  1  0  0  0  0
 44 49  1  0  0  0  0
 45 75  1  0  0  0  0
 46 49  1  0  0  0  0
 46 75  1  0  0  0  0
 47 78  1  0  0  0  0
 48 74  1  0  0  0  0
 49 73  1  0  0  0  0
 52 66  1  0  0  0  0
 53 67  1  0  0  0  0
 54 67  1  0  0  0  0
 55 69  1  0  0  0  0
 56 69  1  0  0  0  0
 57 69  1  0  0  0  0
 58 70  1  0  0  0  0
 59 70  1  0  0  0  0
 60 81  1  0  0  0  0
 61 68  1  0  0  0  0
 62 63  1  0  0  0  0
 63 70  1  0  0  0  0
 64 70  1  0  0  0  0
 64 88  1  0  0  0  0
 65 69  1  0  0  0  0
 65 79  1  0  0  0  0
 66 81  1  0  0  0  0
 67 68  1  0  0  0  0
 68 80  1  0  0  0  0
 71 73  1  0  0  0  0
M  CHG  1  81   1
M  ISO  4  37 100  64 101  80 100  88 101
M  END
> <Batch ID>
0105

> <Smiles>
CNC(C)C(=O)NC(C(=O)N1Cc2cc([101O:1][101CH2:1]C(C)(C)CCc3cc(C)c(CC([100NH:0][100C:0](=O)N4CCCC(n5nc(-c6ccc(Oc7ccc(F)cc7F)cc6)c(C(N)=O)c5N)C4)C(C)C)c(C)n3)ccc2CC1C(=O)NC1CCCc2ccccc21)C(C)(C)C

> <Shape>
0.233

> <Color>
0.087

> <Negative vol penalty>
0.000

$$$$

  -OEChem-04052319463D

 81 89  0     1  0  0  0  0  0999 V2000
  -23.4615  -16.3369   33.5153 C   0  0  0  0  0  0  0  0  0  0  0  0
  -24.1301  -16.1631   32.3078 C   0  0  0  0  0  0  0  0  0  0  0  0
  -23.2855   -9.8003   19.9140 C   0  0  0  0  0  0  0  0  0  0  0  0
  -23.7363   -9.9417   22.2833 C   0  0  0  0  0  0  0  0  0  0  0  0
  -22.0727  -16.2241   33.5643 C   0  0  0  0  0  0  0  0  0  0  0  0
  -23.4104  -15.8752   31.1487 C   0  0  0  0  0  0  0  0  0  0  0  0
  -24.9536  -18.6084   27.1746 C   0  0  0  0  0  0  0  0  0  0  0  0
  -22.5581   -8.6285   20.1223 C   0  0  0  0  0  0  0  0  0  0  0  0
  -23.0089   -8.7699   22.4917 C   0  0  0  0  0  0  0  0  0  0  0  0
  -26.1260  -18.2018   26.5389 C   0  0  0  0  0  0  0  0  0  0  0  0
  -19.4759   -7.7712   21.2168 C   0  0  0  0  0  0  0  0  0  0  0  0
  -18.2468   -7.6474   20.5691 C   0  0  0  0  0  0  0  0  0  0  0  0
  -24.8153  -17.1279   24.8219 C   0  0  0  0  0  0  0  0  0  0  0  0
  -31.0091  -16.6390   22.8272 C   0  0  0  0  0  0  0  0  0  0  0  0
  -19.0467   -5.6734   19.4286 C   0  0  0  0  0  0  0  0  0  0  0  0
  -30.3240  -15.8073   24.8043 C   0  0  0  0  0  0  0  0  0  0  0  0
  -23.8746  -10.4569   20.9945 C   0  0  0  0  0  0  0  0  0  0  0  0
  -24.1361  -12.9866   20.7947 C   0  0  0  0  0  0  0  0  0  0  0  0
  -21.3347  -15.9443   32.4034 C   0  0  0  0  0  0  0  0  0  0  0  0
  -23.7012  -18.2678   26.6437 C   0  0  0  0  0  0  0  0  0  0  0  0
  -22.0105  -15.7573   31.1824 C   0  0  0  0  0  0  0  0  0  0  0  0
  -23.6286  -17.5335   25.4514 C   0  0  0  0  0  0  0  0  0  0  0  0
  -31.2354  -15.6229   23.7881 C   0  0  0  0  0  0  0  0  0  0  0  0
  -22.4198   -8.1133   21.4111 C   0  0  0  0  0  0  0  0  0  0  0  0
  -26.0570  -17.4590   25.3639 C   0  0  0  0  0  0  0  0  0  0  0  0
  -20.4905   -6.8462   20.9704 C   0  0  0  0  0  0  0  0  0  0  0  0
  -18.0322   -6.5984   19.6751 C   0  0  0  0  0  0  0  0  0  0  0  0
  -20.2758   -5.7972   20.0763 C   0  0  0  0  0  0  0  0  0  0  0  0
  -24.6266  -11.6671   20.7799 C   0  0  0  0  0  0  0  0  0  0  0  0
  -29.9663  -17.4136   23.2855 C   0  0  0  0  0  0  0  0  0  0  0  0
  -25.2383  -13.7654   20.5393 C   0  0  0  0  0  0  0  0  0  0  0  0
  -22.8035  -13.4654   21.0192 C   0  0  0  0  0  0  0  0  0  0  0  0
  -21.2227  -16.5580   27.6623 C   0  0  0  0  0  0  0  0  0  0  0  0
  -19.8399  -17.6655   24.9451 C   0  0  0  0  0  0  0  0  0  0  0  0
  -20.2357  -18.9018   21.7889 C   0  0  0  0  0  0  0  0  0  0  0  0
  -31.1085  -12.9179   21.3594 C   0  0  0  0  0  0  0  0  0  0  0  0
  -19.8390  -15.7851   32.5147 C   0  0  0  0  0  0  0  0  0  0  0  0
  -22.4460  -18.7368   27.3270 C   0  0  0  0  0  0  0  0  0  0  0  0
  -22.3089  -17.1594   24.8295 C   0  0  0  0  0  0  0  0  0  0  0  0
  -19.1180  -15.8485   31.1707 C   0  0  0  0  0  0  0  0  0  0  0  0
  -29.4603  -13.6572   18.2913 C   0  0  0  0  0  0  0  0  0  0  0  0
  -19.8304  -14.9771   30.1411 C   0  0  0  0  0  0  0  0  0  0  0  0
  -27.9903  -13.3501   18.5825 C   0  0  0  0  0  0  0  0  0  0  0  0
  -30.3928  -12.6774   19.0002 C   0  0  0  0  0  0  0  0  0  0  0  0
  -28.7057  -12.2503   20.7452 C   0  0  0  0  0  0  0  0  0  0  0  0
  -21.2627  -15.4685   29.8989 C   0  0  1  0  0  0  0  0  0  0  0  0
  -21.2237  -17.8943   26.9753 C   0  0  1  0  0  0  0  0  0  0  0  0
  -27.7286  -13.2460   20.0971 C   0  0  2  0  0  0  0  0  0  0  0  0
  -29.3272  -18.5989   22.6773 C   0  0  0  0  0  0  0  0  0  0  0  0
  -18.9201  -19.6785   19.7981 C   0  0  0  0  0  0  0  0  0  0  0  0
  -19.2131  -14.7659   24.2311 C   0  0  0  0  0  0  0  0  0  0  0  0
  -18.7848  -15.5106   21.8795 C   0  0  0  0  0  0  0  0  0  0  0  0
  -17.3700  -16.3832   23.7394 C   0  0  0  0  0  0  0  0  0  0  0  0
  -21.3939  -21.6212   21.9387 C   0  0  0  0  0  0  0  0  0  0  0  0
  -31.6706  -13.1323   23.7672 C   0  0  0  0  0  0  0  0  0  0  0  0
  -28.4417  -17.4357   25.3441 C   0  0  0  0  0  0  0  0  0  1  0  0
  -32.2580  -14.5620   23.7150 C   0  0  2  0  0  0  0  0  0  0  0  0
  -19.7568  -17.1864   23.5159 C   0  0  1  0  0  0  0  0  0  0  0  0
  -19.6097  -20.0941   21.0882 C   0  0  2  0  0  0  0  0  0  0  0  0
  -18.8062  -15.9668   23.3540 C   0  0  0  0  0  0  0  0  0  0  0  0
  -25.9381  -11.6072   20.5344 N   0  0  0  0  0  0  0  0  0  0  0  0
  -29.5579  -16.8989   24.4882 N   0  0  0  0  0  0  0  0  0  0  0  0
  -26.2812  -12.8989   20.3925 N   0  0  0  0  0  0  0  0  0  0  0  0
  -21.1098  -17.6359   25.5385 N   0  0  0  0  0  0  0  0  0  0  0  0
  -30.0934  -12.6269   20.4333 N   0  0  0  0  0  0  0  0  0  0  0  0
  -25.4073  -15.1002   20.4282 N   0  0  0  0  0  0  0  0  0  0  0  0
  -21.7901  -12.5295   21.2671 N   0  0  0  0  0  0  0  0  0  0  0  0
  -21.2588  -16.6345   29.0416 N   0  0  0  0  0  0  0  0  0  0  0  0
  -19.3800  -18.3478   22.7173 N   0  0  0  0  0  0  0  0  0  0  0  0
  -30.7388  -12.8533   22.6973 N   0  0  0  0  0  0  0  0  0  0  0  0
  -33.3032  -14.6548   24.8038 N   0  3  0  0  0  0  0  0  0  0  0  0
  -20.6518  -21.1072   20.7588 N   0  3  0  0  0  0  0  0  0  0  0  0
  -22.5166  -14.6861   20.9843 O   0  0  0  0  0  0  0  0  0  0  0  0
  -21.1901  -15.5335   26.9908 O   0  0  0  0  0  0  0  0  0  0  0  0
  -18.8170  -18.0584   25.5116 O   0  0  0  0  0  0  0  0  0  0  0  0
  -21.3690  -18.4996   21.5350 O   0  0  0  0  0  0  0  0  0  0  0  0
  -32.2578  -13.2186   21.0192 O   0  0  0  0  0  0  0  0  0  0  0  0
  -21.7099   -6.9700   21.6148 O   0  0  0  0  0  0  0  0  0  0  0  0
  -27.1997  -17.0603   24.7418 O   0  0  0  0  0  0  0  0  0  1  0  0
  -16.8512   -6.4788   19.0543 F   0  0  0  0  0  0  0  0  0  0  0  0
  -21.2463   -4.9048   19.8364 F   0  0  0  0  0  0  0  0  0  0  0  0
  1  2  1  0  0  0  0
  1  5  2  0  0  0  0
  2  6  2  0  0  0  0
  3  8  2  0  0  0  0
  3 17  1  0  0  0  0
  4  9  1  0  0  0  0
  4 17  2  0  0  0  0
  5 19  1  0  0  0  0
  6 21  1  0  0  0  0
  7 10  2  0  0  0  0
  7 20  1  0  0  0  0
  8 24  1  0  0  0  0
  9 24  2  0  0  0  0
 10 25  1  0  0  0  0
 11 12  2  0  0  0  0
 11 26  1  0  0  0  0
 12 27  1  0  0  0  0
 13 22  1  0  0  0  0
 13 25  2  0  0  0  0
 14 23  1  0  0  0  0
 14 30  2  0  0  0  0
 15 27  2  0  0  0  0
 15 28  1  0  0  0  0
 16 23  2  0  0  0  0
 16 62  1  0  0  0  0
 17 29  1  0  0  0  0
 18 29  1  0  0  0  0
 18 31  2  0  0  0  0
 18 32  1  0  0  0  0
 19 21  2  0  0  0  0
 19 37  1  0  0  0  0
 20 22  2  0  0  0  0
 20 38  1  0  0  0  0
 21 46  1  0  0  0  0
 22 39  1  0  0  0  0
 23 57  1  0  0  0  0
 24 78  1  0  0  0  0
 25 79  1  0  0  0  0
 26 28  2  0  0  0  0
 26 78  1  0  0  0  0
 27 80  1  0  0  0  0
 28 81  1  0  0  0  0
 29 61  2  0  0  0  0
 30 49  1  0  0  0  0
 30 62  1  0  0  0  0
 31 63  1  0  0  0  0
 31 66  1  0  0  0  0
 32 67  1  0  0  0  0
 32 73  2  0  0  0  0
 33 47  1  0  0  0  0
 33 68  1  0  0  0  0
 33 74  2  0  0  0  0
 34 58  1  0  0  0  0
 34 64  1  0  0  0  0
 34 75  2  0  0  0  0
 35 59  1  0  0  0  0
 35 69  1  0  0  0  0
 35 76  2  0  0  0  0
 36 65  1  0  0  0  0
 36 70  1  0  0  0  0
 36 77  2  0  0  0  0
 37 40  1  0  0  0  0
 38 47  1  0  0  0  0
 39 64  1  0  0  0  0
 40 42  1  0  0  0  0
 41 43  1  0  0  0  0
 41 44  1  0  0  0  0
 42 46  1  0  0  0  0
 43 48  1  0  0  0  0
 44 65  1  0  0  0  0
 45 48  1  0  0  0  0
 45 65  1  0  0  0  0
 46 68  1  0  0  0  0
 47 64  1  0  0  0  0
 48 63  1  0  0  0  0
 50 59  1  0  0  0  0
 51 60  1  0  0  0  0
 52 60  1  0  0  0  0
 53 60  1  0  0  0  0
 54 72  1  0  0  0  0
 55 57  1  0  0  0  0
 55 70  1  0  0  0  0
 56 62  1  0  0  0  0
 56 79  1  0  0  0  0
 57 71  1  0  0  0  0
 58 60  1  0  0  0  0
 58 69  1  0  0  0  0
 59 72  1  0  0  0  0
 61 63  1  0  0  0  0
M  CHG  2  71   1  72   1
M  ISO  4  36 100  56 101  70 100  79 101
M  END
> <Batch ID>
0105

> <Smiles>
CNC(C)C(=O)NC(C(=O)N1Cc2cc([101O:1][101CH2:1]n3cc(C(N)C[100NH:0][100C:0](=O)N4CCCC(n5nc(-c6ccc(Oc7ccc(F)cc7F)cc6)c(C(N)=O)c5N)C4)cc3C)ccc2CC1C(=O)NC1CCCc2ccccc21)C(C)(C)C

> <Shape>
0.133

> <Color>
0.174

> <Negative vol penalty>
0.000

$$$$

  -OEChem-04052319463D

 82 89  0     1  0  0  0  0  0999 V2000
  -22.4571  -19.5103   10.4844 C   0  0  0  0  0  0  0  0  0  0  0  0
  -22.9714  -18.6035   11.4056 C   0  0  0  0  0  0  0  0  0  0  0  0
  -26.3589  -28.3285   18.9208 C   0  0  0  0  0  0  0  0  0  0  0  0
  -26.3279  -27.6581   21.2417 C   0  0  0  0  0  0  0  0  0  0  0  0
  -22.3056  -20.8506   10.8374 C   0  0  0  0  0  0  0  0  0  0  0  0
  -23.3356  -19.0368   12.6800 C   0  0  0  0  0  0  0  0  0  0  0  0
  -22.8468  -15.8969   17.9153 C   0  0  0  0  0  0  0  0  0  0  0  0
  -25.2756  -29.1763   19.1512 C   0  0  0  0  0  0  0  0  0  0  0  0
  -25.2446  -28.5060   21.4721 C   0  0  0  0  0  0  0  0  0  0  0  0
  -23.7685  -15.1573   18.6550 C   0  0  0  0  0  0  0  0  0  0  0  0
  -21.9037  -28.4767   20.9536 C   0  0  0  0  0  0  0  0  0  0  0  0
  -20.8384  -27.9779   21.7032 C   0  0  0  0  0  0  0  0  0  0  0  0
  -24.1755  -17.0779   20.0568 C   0  0  0  0  0  0  0  0  0  0  0  0
  -21.1744  -29.7218   23.3411 C   0  0  0  0  0  0  0  0  0  0  0  0
  -26.8851  -27.5693   19.9660 C   0  0  0  0  0  0  0  0  0  0  0  0
  -29.3709  -27.0105   19.8387 C   0  0  0  0  0  0  0  0  0  0  0  0
  -22.6590  -21.2987   12.1199 C   0  0  0  0  0  0  0  0  0  0  0  0
  -22.5901  -17.2380   18.2345 C   0  0  0  0  0  0  0  0  0  0  0  0
  -23.1899  -20.3846   13.0500 C   0  0  0  0  0  0  0  0  0  0  0  0
  -23.2482  -17.8316   19.3212 C   0  0  0  0  0  0  0  0  0  0  0  0
  -24.7184  -29.2651   20.4268 C   0  0  0  0  0  0  0  0  0  0  0  0
  -24.4352  -15.7486   19.7242 C   0  0  0  0  0  0  0  0  0  0  0  0
  -22.6045  -29.5980   21.3978 C   0  0  0  0  0  0  0  0  0  0  0  0
  -20.4737  -28.6004   22.8969 C   0  0  0  0  0  0  0  0  0  0  0  0
  -22.2398  -30.2206   22.5916 C   0  0  0  0  0  0  0  0  0  0  0  0
  -28.0038  -26.6929   19.7285 C   0  0  0  0  0  0  0  0  0  0  0  0
  -30.0214  -25.8458   19.5118 C   0  0  0  0  0  0  0  0  0  0  0  0
  -29.9968  -28.2476   20.2039 C   0  0  0  0  0  0  0  0  0  0  0  0
  -22.9315  -20.0100   16.7169 C   0  0  0  0  0  0  0  0  0  0  0  0
  -21.4038  -21.1822   19.3273 C   0  0  0  0  0  0  0  0  0  0  0  0
  -20.5953  -20.8091   22.6218 C   0  0  0  0  0  0  0  0  0  0  0  0
  -28.4264  -20.0795   19.7508 C   0  0  0  0  0  0  0  0  0  0  0  0
  -22.5214  -22.7661   12.4398 C   0  0  0  0  0  0  0  0  0  0  0  0
  -21.5732  -18.0143   17.4434 C   0  0  0  0  0  0  0  0  0  0  0  0
  -22.9933  -19.2621   19.7174 C   0  0  0  0  0  0  0  0  0  0  0  0
  -22.5807  -23.0719   13.9342 C   0  0  0  0  0  0  0  0  0  0  0  0
  -29.5105  -21.8836   16.8791 C   0  0  0  0  0  0  0  0  0  0  0  0
  -23.7433  -22.3294   14.5853 C   0  0  0  0  0  0  0  0  0  0  0  0
  -29.3706  -23.3494   17.2937 C   0  0  0  0  0  0  0  0  0  0  0  0
  -28.3908  -21.0233   17.4607 C   0  0  0  0  0  0  0  0  0  0  0  0
  -28.0871  -22.5916   19.3375 C   0  0  0  0  0  0  0  0  0  0  0  0
  -23.5732  -20.8114   14.4504 C   0  0  1  0  0  0  0  0  0  0  0  0
  -21.7697  -19.5243   17.5365 C   0  0  1  0  0  0  0  0  0  0  0  0
  -29.2250  -23.4887   18.8210 C   0  0  2  0  0  0  0  0  0  0  0  0
  -19.3675  -21.9489   24.4902 C   0  0  0  0  0  0  0  0  0  0  0  0
  -30.4787  -20.3170   23.2038 C   0  0  0  0  0  0  0  0  0  0  0  0
  -23.7113  -23.1542   19.6374 C   0  0  0  0  0  0  0  0  0  0  0  0
  -22.9326  -23.5902   21.9766 C   0  0  0  0  0  0  0  0  0  0  0  0
  -21.4446  -24.1279   20.0479 C   0  0  0  0  0  0  0  0  0  0  0  0
  -18.7112  -18.5463   22.9194 C   0  0  0  0  0  0  0  0  0  0  0  0
  -30.5507  -14.1171   20.2232 C   0  0  0  0  0  0  0  0  0  0  0  0
  -29.3963  -16.5532   22.9028 C   0  0  0  0  0  0  0  0  0  0  0  0
  -29.9454  -17.8458   23.5190 C   0  0  0  0  0  0  0  0  0  0  0  0
  -27.4082  -13.8219   20.4139 C   0  0  0  0  0  0  0  0  0  0  0  0
  -28.4524  -19.2867   22.1024 C   0  0  0  0  0  0  0  0  0  0  0  0
  -30.1451  -16.1190   21.6475 C   0  0  0  0  0  0  0  0  0  0  0  0
  -28.2609  -15.0816   20.3927 C   0  0  0  0  0  0  0  0  0  0  0  0
  -26.0418  -13.9955   19.7622 C   0  0  0  0  0  0  0  0  0  1  0  0
  -21.8385  -21.7100   20.6732 C   0  0  1  0  0  0  0  0  0  0  0  0
  -19.2730  -20.9406   23.3557 C   0  0  2  0  0  0  0  0  0  0  0  0
  -29.9020  -19.0524   22.5578 C   0  0  1  0  0  0  0  0  0  0  0  0
  -22.4882  -23.1192   20.5753 C   0  0  0  0  0  0  0  0  0  0  0  0
  -27.7969  -25.4258   19.3602 N   0  0  0  0  0  0  0  0  0  0  0  0
  -29.0425  -24.9369   19.2361 N   0  0  0  0  0  0  0  0  0  0  0  0
  -21.9948  -19.9814   18.9093 N   0  0  0  0  0  0  0  0  0  0  0  0
  -28.3069  -21.2002   18.9125 N   0  0  0  0  0  0  0  0  0  0  0  0
  -31.3294  -25.5207   19.4361 N   0  0  0  0  0  0  0  0  0  0  0  0
  -29.1801  -29.3450   20.5092 N   0  0  0  0  0  0  0  0  0  0  0  0
  -22.6067  -20.3238   15.4109 N   0  0  0  0  0  0  0  0  0  0  0  0
  -20.6616  -21.6531   21.5335 N   0  0  0  0  0  0  0  0  0  0  0  0
  -28.3417  -20.3361   21.1138 N   0  0  0  0  0  0  0  0  0  0  0  0
  -18.8651  -19.6264   23.9278 N   0  3  0  0  0  0  0  0  0  0  0  0
  -29.5507  -14.8503   21.0845 N   0  3  1  0  0  0  0  0  0  0  0  0
  -31.2435  -28.3808   20.2420 O   0  0  0  0  0  0  0  0  0  0  0  0
  -24.0404  -20.0953   17.2316 O   0  0  0  0  0  0  0  0  0  0  0  0
  -20.5653  -21.8083   18.6742 O   0  0  0  0  0  0  0  0  0  0  0  0
  -21.4824  -20.0378   22.9806 O   0  0  0  0  0  0  0  0  0  0  0  0
  -28.6012  -18.9358   19.3170 O   0  0  0  0  0  0  0  0  0  0  0  0
  -23.6614  -30.0925   20.6521 O   0  0  0  0  0  0  0  0  0  0  0  0
  -25.3358  -15.0292   20.4474 O   0  0  0  0  0  0  0  0  0  1  0  0
  -19.4497  -28.1222   23.6158 F   0  0  0  0  0  0  0  0  0  0  0  0
  -22.9084  -31.2989   23.0228 F   0  0  0  0  0  0  0  0  0  0  0  0
  1  2  1  0  0  0  0
  1  5  2  0  0  0  0
  2  6  2  0  0  0  0
  3  8  2  0  0  0  0
  3 15  1  0  0  0  0
  4  9  1  0  0  0  0
  4 15  2  0  0  0  0
  5 17  1  0  0  0  0
  6 19  1  0  0  0  0
  7 10  2  0  0  0  0
  7 18  1  0  0  0  0
  8 21  1  0  0  0  0
  9 21  2  0  0  0  0
 10 22  1  0  0  0  0
 11 12  2  0  0  0  0
 11 23  1  0  0  0  0
 12 24  1  0  0  0  0
 13 20  1  0  0  0  0
 13 22  2  0  0  0  0
 14 24  2  0  0  0  0
 14 25  1  0  0  0  0
 15 26  1  0  0  0  0
 16 26  1  0  0  0  0
 16 27  2  0  0  0  0
 16 28  1  0  0  0  0
 17 19  2  0  0  0  0
 17 33  1  0  0  0  0
 18 20  2  0  0  0  0
 18 34  1  0  0  0  0
 19 42  1  0  0  0  0
 20 35  1  0  0  0  0
 21 79  1  0  0  0  0
 22 80  1  0  0  0  0
 23 25  2  0  0  0  0
 23 79  1  0  0  0  0
 24 81  1  0  0  0  0
 25 82  1  0  0  0  0
 26 63  2  0  0  0  0
 27 64  1  0  0  0  0
 27 67  1  0  0  0  0
 28 68  1  0  0  0  0
 28 74  2  0  0  0  0
 29 43  1  0  0  0  0
 29 69  1  0  0  0  0
 29 75  2  0  0  0  0
 30 59  1  0  0  0  0
 30 65  1  0  0  0  0
 30 76  2  0  0  0  0
 31 60  1  0  0  0  0
 31 70  1  0  0  0  0
 31 77  2  0  0  0  0
 32 66  1  0  0  0  0
 32 71  1  0  0  0  0
 32 78  2  0  0  0  0
 33 36  1  0  0  0  0
 34 43  1  0  0  0  0
 35 65  1  0  0  0  0
 36 38  1  0  0  0  0
 37 39  1  0  0  0  0
 37 40  1  0  0  0  0
 38 42  1  0  0  0  0
 39 44  1  0  0  0  0
 40 66  1  0  0  0  0
 41 44  1  0  0  0  0
 41 66  1  0  0  0  0
 42 69  1  0  0  0  0
 43 65  1  0  0  0  0
 44 64  1  0  0  0  0
 45 60  1  0  0  0  0
 46 61  1  0  0  0  0
 47 62  1  0  0  0  0
 48 62  1  0  0  0  0
 49 62  1  0  0  0  0
 50 72  1  0  0  0  0
 51 73  1  0  0  0  0
 52 53  1  0  0  0  0
 52 56  1  0  0  0  0
 53 61  1  0  0  0  0
 54 57  1  0  0  0  0
 54 58  1  0  0  0  0
 55 61  1  0  0  0  0
 55 71  1  0  0  0  0
 56 73  1  0  0  0  0
 57 73  1  0  0  0  0
 58 80  1  0  0  0  0
 59 62  1  0  0  0  0
 59 70  1  0  0  0  0
 60 72  1  0  0  0  0
 63 64  1  0  0  0  0
M  CHG  2  72   1  73   1
M  ISO  4  32 100  58 101  71 100  80 101
M  END
> <Batch ID>
0105

> <Smiles>
CNC(C)C(=O)NC(C(=O)N1Cc2cc([101O:1][101CH2:1]CCN(C)CCCC(C)C[100NH:0][100C:0](=O)N3CCCC(n4nc(-c5ccc(Oc6ccc(F)cc6F)cc5)c(C(N)=O)c4N)C3)ccc2CC1C(=O)NC1CCCc2ccccc21)C(C)(C)C

> <Shape>
0.202

> <Color>
0.051

> <Negative vol penalty>
0.000

$$$$
