
  -OEChem-04052319483D

 84 92  0     1  0  0  0  0  0999 V2000
  -25.2913  -32.8519   23.1696 C   0  0  0  0  0  0  0  0  0  0  0  0
  -25.0472  -31.4886   23.3014 C   0  0  0  0  0  0  0  0  0  0  0  0
  -22.9881   -9.9171   19.9730 C   0  0  0  0  0  0  0  0  0  0  0  0
  -23.7350   -9.9298   22.2707 C   0  0  0  0  0  0  0  0  0  0  0  0
  -25.8399  -33.3496   21.9884 C   0  0  0  0  0  0  0  0  0  0  0  0
  -25.3507  -30.6224   22.2516 C   0  0  0  0  0  0  0  0  0  0  0  0
  -27.3784  -24.8612   22.7015 C   0  0  0  0  0  0  0  0  0  0  0  0
  -22.2182   -8.7827   20.2295 C   0  0  0  0  0  0  0  0  0  0  0  0
  -22.9650   -8.7954   22.5272 C   0  0  0  0  0  0  0  0  0  0  0  0
  -26.7304  -23.6295   22.6179 C   0  0  0  0  0  0  0  0  0  0  0  0
  -23.1874   -5.4627   22.0030 C   0  0  0  0  0  0  0  0  0  0  0  0
  -23.7766   -4.4313   22.7343 C   0  0  0  0  0  0  0  0  0  0  0  0
  -27.3443  -23.4713   20.2904 C   0  0  0  0  0  0  0  0  0  0  0  0
  -22.0697   -4.6578   24.4290 C   0  0  0  0  0  0  0  0  0  0  0  0
  -28.3644  -18.7265   21.8467 C   0  0  0  0  0  0  0  0  0  0  0  0
  -23.7466  -10.4907   20.9936 C   0  0  0  0  0  0  0  0  0  0  0  0
  -24.1434  -13.0066   20.8517 C   0  0  0  0  0  0  0  0  0  0  0  0
  -26.1592  -32.4878   20.9272 C   0  0  0  0  0  0  0  0  0  0  0  0
  -28.0058  -25.4131   21.5754 C   0  0  0  0  0  0  0  0  0  0  0  0
  -25.9028  -31.1093   21.0546 C   0  0  0  0  0  0  0  0  0  0  0  0
  -28.0017  -24.7089   20.3629 C   0  0  0  0  0  0  0  0  0  0  0  0
  -29.1808  -18.3288   20.8110 C   0  0  0  0  0  0  0  0  0  0  0  0
  -28.4056  -18.3592   19.6256 C   0  0  0  0  0  0  0  0  0  0  0  0
  -22.2066   -8.2218   21.5066 C   0  0  0  0  0  0  0  0  0  0  0  0
  -26.7108  -22.9357   21.4116 C   0  0  0  0  0  0  0  0  0  0  0  0
  -22.0394   -6.0917   22.4848 C   0  0  0  0  0  0  0  0  0  0  0  0
  -23.2177   -4.0289   23.9473 C   0  0  0  0  0  0  0  0  0  0  0  0
  -21.4805   -5.6892   23.6978 C   0  0  0  0  0  0  0  0  0  0  0  0
  -24.5426  -11.6622   20.7291 C   0  0  0  0  0  0  0  0  0  0  0  0
  -27.1391  -18.7748   19.9729 C   0  0  0  0  0  0  0  0  0  0  0  0
  -25.2535  -13.7290   20.4878 C   0  0  0  0  0  0  0  0  0  0  0  0
  -22.8820  -13.5536   21.2582 C   0  0  0  0  0  0  0  0  0  0  0  0
  -27.6098  -28.0585   19.8581 C   0  0  0  0  0  0  0  0  0  0  0  0
  -30.2978  -27.0250   18.3650 C   0  0  0  0  0  0  0  0  0  0  0  0
  -32.3337  -24.4119   17.5447 C   0  0  0  0  0  0  0  0  0  0  0  0
  -30.7568  -14.6317   20.6987 C   0  0  0  0  0  0  0  0  0  0  0  0
  -26.7067  -33.0784   19.6520 C   0  0  0  0  0  0  0  0  0  0  0  0
  -28.7234  -26.7302   21.6888 C   0  0  0  0  0  0  0  0  0  0  0  0
  -28.6778  -25.2485   19.1301 C   0  0  0  0  0  0  0  0  0  0  0  0
  -27.3475  -32.0456   18.7285 C   0  0  0  0  0  0  0  0  0  0  0  0
  -29.5817  -12.2494   18.3280 C   0  0  0  0  0  0  0  0  0  0  0  0
  -26.4486  -30.8208   18.5920 C   0  0  0  0  0  0  0  0  0  0  0  0
  -28.1358  -11.9908   18.7552 C   0  0  0  0  0  0  0  0  0  0  0  0
  -30.4965  -12.4620   19.5321 C   0  0  0  0  0  0  0  0  0  0  0  0
  -28.6031  -13.2470   20.9005 C   0  0  0  0  0  0  0  0  0  0  0  0
  -26.2415  -30.1346   19.9476 C   0  0  1  0  0  0  0  0  0  0  0  0
  -28.8879  -27.4384   20.3477 C   0  0  1  0  0  0  0  0  0  0  0  0
  -27.6321  -13.0821   19.7189 C   0  0  2  0  0  0  0  0  0  0  0  0
  -25.9395  -18.9817   19.1342 C   0  0  0  0  0  0  0  0  0  0  0  0
  -28.7945  -19.1987   17.2809 C   0  0  0  0  0  0  0  0  0  0  0  0
  -28.1135  -16.8021   17.6649 C   0  0  0  0  0  0  0  0  0  0  0  0
  -34.4359  -23.8726   16.2847 C   0  0  0  0  0  0  0  0  0  0  0  0
  -28.7793  -27.2736   15.7302 C   0  0  0  0  0  0  0  0  0  0  0  0
  -30.5446  -25.8573   14.6596 C   0  0  0  0  0  0  0  0  0  0  0  0
  -31.1497  -28.0667   15.6471 C   0  0  0  0  0  0  0  0  0  0  0  0
  -33.6777  -23.4119   19.9845 C   0  0  0  0  0  0  0  0  0  0  0  0
  -30.6014  -17.9433   20.9273 C   0  0  0  0  0  0  0  0  0  0  0  0
  -25.9399  -19.4619   22.1344 C   0  0  0  0  0  0  0  0  0  0  0  0
  -30.8619  -16.7921   21.9156 C   0  0  0  0  0  0  0  0  0  0  0  0
  -26.0382  -20.9365   22.5100 C   0  0  0  0  0  0  0  0  0  1  0  0
  -28.8677  -18.0100   18.2663 C   0  0  0  0  0  0  0  0  0  0  0  0
  -30.5879  -26.1362   17.1798 C   0  0  1  0  0  0  0  0  0  0  0  0
  -33.8395  -24.2415   17.6341 C   0  0  2  0  0  0  0  0  0  0  0  0
  -30.2509  -26.8239   15.8267 C   0  0  0  0  0  0  0  0  0  0  0  0
  -25.8075  -11.5352   20.3192 N   0  0  0  0  0  0  0  0  0  0  0  0
  -27.1257  -18.9954   21.3254 N   0  0  0  0  0  0  0  0  0  0  0  0
  -26.2127  -12.8091   20.1810 N   0  0  0  0  0  0  0  0  0  0  0  0
  -29.3607  -26.5430   19.2899 N   0  0  0  0  0  0  0  0  0  0  0  0
  -29.9632  -13.5105   20.4051 N   0  0  0  0  0  0  0  0  0  0  0  0
  -25.4930  -15.0548   20.4034 N   0  0  0  0  0  0  0  0  0  0  0  0
  -21.8488  -12.6697   21.5981 N   0  0  0  0  0  0  0  0  0  0  0  0
  -27.4061  -29.3515   20.3009 N   0  0  0  0  0  0  0  0  0  0  0  0
  -31.9813  -25.7241   17.3100 N   0  0  0  0  0  0  0  0  0  0  0  0
  -30.1730  -15.5812   21.5284 N   0  0  0  0  0  0  0  0  0  0  0  0
  -34.1823  -23.1675   18.6088 N   0  3  0  0  0  0  0  0  0  0  0  0
  -22.6720  -14.7895   21.3025 O   0  0  0  0  0  0  0  0  0  0  0  0
  -26.8644  -27.4122   19.1312 O   0  0  0  0  0  0  0  0  0  0  0  0
  -30.8864  -28.1040   18.4702 O   0  0  0  0  0  0  0  0  0  0  0  0
  -31.5488  -23.4740   17.6668 O   0  0  0  0  0  0  0  0  0  0  0  0
  -31.8988  -14.7783   20.2502 O   0  0  0  0  0  0  0  0  0  0  0  0
  -21.4552   -7.1150   21.7573 O   0  0  0  0  0  0  0  0  0  0  0  0
  -26.0785  -21.7337   21.3271 O   0  0  0  0  0  0  0  0  0  1  0  0
  -23.7827   -3.0374   24.6486 F   0  0  0  0  0  0  0  0  0  0  0  0
  -20.3770   -6.2890   24.1652 F   0  0  0  0  0  0  0  0  0  0  0  0
  1  2  1  0  0  0  0
  1  5  2  0  0  0  0
  2  6  2  0  0  0  0
  3  8  2  0  0  0  0
  3 16  1  0  0  0  0
  4  9  1  0  0  0  0
  4 16  2  0  0  0  0
  5 18  1  0  0  0  0
  6 20  1  0  0  0  0
  7 10  2  0  0  0  0
  7 19  1  0  0  0  0
  8 24  1  0  0  0  0
  9 24  2  0  0  0  0
 10 25  1  0  0  0  0
 11 12  2  0  0  0  0
 11 26  1  0  0  0  0
 12 27  1  0  0  0  0
 13 21  1  0  0  0  0
 13 25  2  0  0  0  0
 14 27  2  0  0  0  0
 14 28  1  0  0  0  0
 15 22  2  0  0  0  0
 15 66  1  0  0  0  0
 16 29  1  0  0  0  0
 17 29  1  0  0  0  0
 17 31  2  0  0  0  0
 17 32  1  0  0  0  0
 18 20  2  0  0  0  0
 18 37  1  0  0  0  0
 19 21  2  0  0  0  0
 19 38  1  0  0  0  0
 20 46  1  0  0  0  0
 21 39  1  0  0  0  0
 22 23  1  0  0  0  0
 22 57  1  0  0  0  0
 23 30  2  0  0  0  0
 23 61  1  0  0  0  0
 24 81  1  0  0  0  0
 25 82  1  0  0  0  0
 26 28  2  0  0  0  0
 26 81  1  0  0  0  0
 27 83  1  0  0  0  0
 28 84  1  0  0  0  0
 29 65  2  0  0  0  0
 30 49  1  0  0  0  0
 30 66  1  0  0  0  0
 31 67  1  0  0  0  0
 31 70  1  0  0  0  0
 32 71  1  0  0  0  0
 32 76  2  0  0  0  0
 33 47  1  0  0  0  0
 33 72  1  0  0  0  0
 33 77  2  0  0  0  0
 34 62  1  0  0  0  0
 34 68  1  0  0  0  0
 34 78  2  0  0  0  0
 35 63  1  0  0  0  0
 35 73  1  0  0  0  0
 35 79  2  0  0  0  0
 36 69  1  0  0  0  0
 36 74  1  0  0  0  0
 36 80  2  0  0  0  0
 37 40  1  0  0  0  0
 38 47  1  0  0  0  0
 39 68  1  0  0  0  0
 40 42  1  0  0  0  0
 41 43  1  0  0  0  0
 41 44  1  0  0  0  0
 42 46  1  0  0  0  0
 43 48  1  0  0  0  0
 44 69  1  0  0  0  0
 45 48  1  0  0  0  0
 45 69  1  0  0  0  0
 46 72  1  0  0  0  0
 47 68  1  0  0  0  0
 48 67  1  0  0  0  0
 50 61  1  0  0  0  0
 51 61  1  0  0  0  0
 52 63  1  0  0  0  0
 53 64  1  0  0  0  0
 54 64  1  0  0  0  0
 55 64  1  0  0  0  0
 56 75  1  0  0  0  0
 57 59  1  0  0  0  0
 58 60  1  0  0  0  0
 58 66  1  0  0  0  0
 59 74  1  0  0  0  0
 60 82  1  0  0  0  0
 62 64  1  0  0  0  0
 62 73  1  0  0  0  0
 63 75  1  0  0  0  0
 65 67  1  0  0  0  0
M  CHG  1  75   1
M  ISO  4  36 100  60 101  74 100  82 101
M  END
> <Batch ID>
0106

> <Smiles>
CNC(C)C(=O)NC(C(=O)N1Cc2cc([101O:1][101CH2:1]Cn3cc(CC[100NH:0][100C:0](=O)N4CCCC(n5nc(-c6ccc(Oc7ccc(F)cc7F)cc6)c(C(N)=O)c5N)C4)c(C(C)C)c3C)ccc2CC1C(=O)NC1CCCc2ccccc21)C(C)(C)C

> <Shape>
0.325

> <Color>
0.202

> <Negative vol penalty>
0.000

$$$$

  -OEChem-04052319483D

 88 96  0     1  0  0  0  0  0999 V2000
  -26.7844  -33.5049   22.3953 C   0  0  0  0  0  0  0  0  0  0  0  0
  -27.5114  -32.4097   22.8507 C   0  0  0  0  0  0  0  0  0  0  0  0
  -23.6339   -9.5963   22.3864 C   0  0  0  0  0  0  0  0  0  0  0  0
  -24.1432   -9.0165   20.0969 C   0  0  0  0  0  0  0  0  0  0  0  0
  -25.6237  -33.3079   21.6485 C   0  0  0  0  0  0  0  0  0  0  0  0
  -27.0774  -31.1167   22.5605 C   0  0  0  0  0  0  0  0  0  0  0  0
  -29.6040  -24.5499   21.2155 C   0  0  0  0  0  0  0  0  0  0  0  0
  -29.3698  -17.8880   20.4879 C   0  0  0  0  0  0  0  0  0  0  0  0
  -22.6921   -8.5686   22.4371 C   0  0  0  0  0  0  0  0  0  0  0  0
  -23.2015   -7.9889   20.1476 C   0  0  0  0  0  0  0  0  0  0  0  0
  -29.4582  -23.2311   21.6438 C   0  0  0  0  0  0  0  0  0  0  0  0
  -20.4116   -5.8677   23.2851 C   0  0  0  0  0  0  0  0  0  0  0  0
  -20.4059   -5.0484   24.4139 C   0  0  0  0  0  0  0  0  0  0  0  0
  -28.7393  -18.8644   21.2512 C   0  0  0  0  0  0  0  0  0  0  0  0
  -27.4817  -23.0124   20.2782 C   0  0  0  0  0  0  0  0  0  0  0  0
  -22.6826   -4.3887   23.9466 C   0  0  0  0  0  0  0  0  0  0  0  0
  -24.3595   -9.8203   21.2163 C   0  0  0  0  0  0  0  0  0  0  0  0
  -26.6993  -10.7995   21.4880 C   0  0  0  0  0  0  0  0  0  0  0  0
  -25.1805  -32.0119   21.3407 C   0  0  0  0  0  0  0  0  0  0  0  0
  -28.6820  -25.1142   20.3223 C   0  0  0  0  0  0  0  0  0  0  0  0
  -25.9089  -30.9022   21.8100 C   0  0  0  0  0  0  0  0  0  0  0  0
  -27.6195  -24.3377   19.8381 C   0  0  0  0  0  0  0  0  0  0  0  0
  -30.1017  -18.2567   19.3646 C   0  0  0  0  0  0  0  0  0  0  0  0
  -22.4759   -7.7649   21.3178 C   0  0  0  0  0  0  0  0  0  0  0  0
  -28.3953  -22.4631   21.1774 C   0  0  0  0  0  0  0  0  0  0  0  0
  -21.5528   -5.9474   22.4869 C   0  0  0  0  0  0  0  0  0  0  0  0
  -21.5414   -4.3089   24.7447 C   0  0  0  0  0  0  0  0  0  0  0  0
  -22.6883   -5.2080   22.8177 C   0  0  0  0  0  0  0  0  0  0  0  0
  -25.3320  -10.8820   21.1631 C   0  0  0  0  0  0  0  0  0  0  0  0
  -30.1717  -19.6042   19.0497 C   0  0  0  0  0  0  0  0  0  0  0  0
  -28.8702  -20.1847   20.8518 C   0  0  0  0  0  0  0  0  0  1  0  0
  -27.1805  -12.0678   21.2730 C   0  0  0  0  0  0  0  0  0  0  0  0
  -27.4659   -9.6766   21.9433 C   0  0  0  0  0  0  0  0  0  0  0  0
  -26.6402  -27.5472   20.4454 C   0  0  0  0  0  0  0  0  0  0  0  0
  -26.2096  -26.8372   17.3097 C   0  0  0  0  0  0  0  0  0  0  0  0
  -26.3829  -24.5155   14.8144 C   0  0  0  0  0  0  0  0  0  0  0  0
  -27.4987  -16.6898   18.1615 C   0  0  0  0  0  0  0  0  0  0  0  0
  -23.8941  -31.8484   20.5707 C   0  0  0  0  0  0  0  0  0  0  0  0
  -28.8685  -26.5297   19.8491 C   0  0  0  0  0  0  0  0  0  0  0  0
  -26.6139  -24.8902   18.8623 C   0  0  0  0  0  0  0  0  0  0  0  0
  -23.7067  -30.4500   19.9878 C   0  0  0  0  0  0  0  0  0  0  0  0
  -24.7395  -16.4101   20.3942 C   0  0  0  0  0  0  0  0  0  0  0  0
  -24.0239  -29.3880   21.0357 C   0  0  0  0  0  0  0  0  0  0  0  0
  -24.7569  -14.9395   20.8148 C   0  0  0  0  0  0  0  0  0  0  0  0
  -25.1471  -16.5840   18.9328 C   0  0  0  0  0  0  0  0  0  0  0  0
  -26.4541  -14.4955   18.9924 C   0  0  0  0  0  0  0  0  0  0  0  0
  -25.4839  -29.4844   21.4946 C   0  0  1  0  0  0  0  0  0  0  0  0
  -27.5787  -27.1632   19.3366 C   0  0  1  0  0  0  0  0  0  0  0  0
  -26.1042  -14.2747   20.4740 C   0  0  2  0  0  0  0  0  0  0  0  0
  -32.1209  -20.9756   18.2291 C   0  0  0  0  0  0  0  0  0  0  0  0
  -30.0508  -20.7509   16.8081 C   0  0  0  0  0  0  0  0  0  0  0  0
  -25.9288  -24.2193   12.3642 C   0  0  0  0  0  0  0  0  0  0  0  0
  -34.0461  -13.3885   18.8599 C   0  0  0  0  0  0  0  0  0  0  0  0
  -33.5169  -14.7949   20.8563 C   0  0  0  0  0  0  0  0  0  0  0  0
  -31.8145  -13.1860   19.9860 C   0  0  0  0  0  0  0  0  0  0  0  0
  -23.2177  -26.6745   17.8863 C   0  0  0  0  0  0  0  0  0  0  0  0
  -22.9338  -25.4748   15.7072 C   0  0  0  0  0  0  0  0  0  0  0  0
  -23.8057  -27.8118   15.7380 C   0  0  0  0  0  0  0  0  0  0  0  0
  -29.2206  -23.8976   14.2448 C   0  0  0  0  0  0  0  0  0  0  0  0
  -29.8711  -16.6398   17.4345 C   0  0  0  0  0  0  0  0  0  0  0  0
  -32.3810  -15.3072   18.6978 C   0  0  0  0  0  0  0  0  0  0  0  0
  -30.7764  -17.2149   18.5408 C   0  0  2  0  0  0  0  0  0  0  0  0
  -30.9432  -20.0577   17.8538 C   0  0  0  0  0  0  0  0  0  0  0  0
  -25.2875  -25.9254   16.5368 C   0  0  1  0  0  0  0  0  0  0  0  0
  -26.9666  -24.5827   13.4147 C   0  0  2  0  0  0  0  0  0  0  0  0
  -32.9294  -14.1649   19.5788 C   0  0  0  0  0  0  0  0  0  0  0  0
  -23.8289  -26.4615   16.4870 C   0  0  0  0  0  0  0  0  0  0  0  0
  -24.9681  -12.1061   20.7716 N   0  0  0  0  0  0  0  0  0  0  0  0
  -29.5727  -20.5811   19.7669 N   0  0  0  0  0  0  0  0  0  0  0  0
  -26.1137  -12.8044   20.8492 N   0  0  0  0  0  0  0  0  0  0  0  0
  -26.8355  -26.2813   18.4343 N   0  0  0  0  0  0  0  0  0  0  0  0
  -26.4337  -15.9323   18.6762 N   0  0  0  0  0  0  0  0  0  0  0  0
  -28.4079  -12.6138   21.4070 N   0  0  0  0  0  0  0  0  0  0  0  0
  -26.8148   -8.4468   22.1106 N   0  0  0  0  0  0  0  0  0  0  0  0
  -26.3641  -28.8998   20.5057 N   0  0  0  0  0  0  0  0  0  0  0  0
  -25.9010  -25.7400   15.2262 N   0  0  0  0  0  0  0  0  0  0  0  0
  -28.6847  -15.9964   17.9535 N   0  0  0  0  0  0  0  0  0  0  0  0
  -28.1147  -23.6412   13.2865 N   0  3  0  0  0  0  0  0  0  0  0  0
  -31.2924  -16.0596   19.3584 N   0  3  0  0  0  0  0  0  0  0  0  0
  -28.6884   -9.7654   22.2100 O   0  0  0  0  0  0  0  0  0  0  0  0
  -26.1980  -26.6802   21.1901 O   0  0  0  0  0  0  0  0  0  0  0  0
  -26.3741  -27.9978   16.9254 O   0  0  0  0  0  0  0  0  0  0  0  0
  -26.3536  -23.4794   15.4749 O   0  0  0  0  0  0  0  0  0  0  0  0
  -27.4016  -17.8960   17.9113 O   0  0  0  0  0  0  0  0  0  0  0  0
  -21.5571   -6.7619   21.3670 O   0  0  0  0  0  0  0  0  0  0  0  0
  -28.2503  -21.1759   21.5944 O   0  0  0  0  0  0  0  0  0  1  0  0
  -21.5363   -3.5234   25.8297 F   0  0  0  0  0  0  0  0  0  0  0  0
  -23.7880   -5.2814   22.0555 F   0  0  0  0  0  0  0  0  0  0  0  0
  1  2  1  0  0  0  0
  1  5  2  0  0  0  0
  2  6  2  0  0  0  0
  3  9  2  0  0  0  0
  3 17  1  0  0  0  0
  4 10  1  0  0  0  0
  4 17  2  0  0  0  0
  5 19  1  0  0  0  0
  6 21  1  0  0  0  0
  7 11  2  0  0  0  0
  7 20  1  0  0  0  0
  8 14  2  0  0  0  0
  8 23  1  0  0  0  0
  9 24  1  0  0  0  0
 10 24  2  0  0  0  0
 11 25  1  0  0  0  0
 12 13  2  0  0  0  0
 12 26  1  0  0  0  0
 13 27  1  0  0  0  0
 14 31  1  0  0  0  0
 15 22  1  0  0  0  0
 15 25  2  0  0  0  0
 16 27  2  0  0  0  0
 16 28  1  0  0  0  0
 17 29  1  0  0  0  0
 18 29  1  0  0  0  0
 18 32  2  0  0  0  0
 18 33  1  0  0  0  0
 19 21  2  0  0  0  0
 19 38  1  0  0  0  0
 20 22  2  0  0  0  0
 20 39  1  0  0  0  0
 21 47  1  0  0  0  0
 22 40  1  0  0  0  0
 23 30  2  0  0  0  0
 23 62  1  0  0  0  0
 24 85  1  0  0  0  0
 25 86  1  0  0  0  0
 26 28  2  0  0  0  0
 26 85  1  0  0  0  0
 27 87  1  0  0  0  0
 28 88  1  0  0  0  0
 29 68  2  0  0  0  0
 30 63  1  0  0  0  0
 30 69  1  0  0  0  0
 31 69  2  0  0  0  0
 31 86  1  0  0  0  0
 32 70  1  0  0  0  0
 32 73  1  0  0  0  0
 33 74  1  0  0  0  0
 33 80  2  0  0  0  0
 34 48  1  0  0  0  0
 34 75  1  0  0  0  0
 34 81  2  0  0  0  0
 35 64  1  0  0  0  0
 35 71  1  0  0  0  0
 35 82  2  0  0  0  0
 36 65  1  0  0  0  0
 36 76  1  0  0  0  0
 36 83  2  0  0  0  0
 37 72  1  0  0  0  0
 37 77  1  0  0  0  0
 37 84  2  0  0  0  0
 38 41  1  0  0  0  0
 39 48  1  0  0  0  0
 40 71  1  0  0  0  0
 41 43  1  0  0  0  0
 42 44  1  0  0  0  0
 42 45  1  0  0  0  0
 43 47  1  0  0  0  0
 44 49  1  0  0  0  0
 45 72  1  0  0  0  0
 46 49  1  0  0  0  0
 46 72  1  0  0  0  0
 47 75  1  0  0  0  0
 48 71  1  0  0  0  0
 49 70  1  0  0  0  0
 50 63  1  0  0  0  0
 51 63  1  0  0  0  0
 52 65  1  0  0  0  0
 53 66  1  0  0  0  0
 54 66  1  0  0  0  0
 55 66  1  0  0  0  0
 56 67  1  0  0  0  0
 57 67  1  0  0  0  0
 58 67  1  0  0  0  0
 59 78  1  0  0  0  0
 60 62  1  0  0  0  0
 60 77  1  0  0  0  0
 61 66  1  0  0  0  0
 61 79  1  0  0  0  0
 62 79  1  0  0  0  0
 64 67  1  0  0  0  0
 64 76  1  0  0  0  0
 65 78  1  0  0  0  0
 68 70  1  0  0  0  0
M  CHG  2  78   1  79   1
M  ISO  4  31 101  37 100  77 100  86 101
M  END
> <Batch ID>
0106

> <Smiles>
CNC(C)C(=O)NC(C(=O)N1Cc2cc([101O:1][101c:1]3ccc(C(C[100NH:0][100C:0](=O)N4CCCC(n5nc(-c6ccc(Oc7ccc(F)cc7F)cc6)c(C(N)=O)c5N)C4)NCC(C)(C)C)c(C(C)C)n3)ccc2CC1C(=O)NC1CCCc2ccccc21)C(C)(C)C

> <Shape>
0.259

> <Color>
0.090

> <Negative vol penalty>
0.000

$$$$

  -OEChem-04052319483D

 81 89  0     1  0  0  0  0  0999 V2000
  -28.5850  -30.7239   13.3445 C   0  0  0  0  0  0  0  0  0  0  0  0
  -28.8192  -29.6536   14.2018 C   0  0  0  0  0  0  0  0  0  0  0  0
  -23.0348  -10.0362   19.8915 C   0  0  0  0  0  0  0  0  0  0  0  0
  -24.1063   -9.7882   22.0427 C   0  0  0  0  0  0  0  0  0  0  0  0
  -28.3064  -31.9861   13.8672 C   0  0  0  0  0  0  0  0  0  0  0  0
  -28.7760  -29.8451   15.5824 C   0  0  0  0  0  0  0  0  0  0  0  0
  -26.2073  -26.1925   17.9709 C   0  0  0  0  0  0  0  0  0  0  0  0
  -22.3560   -8.8342   20.0910 C   0  0  0  0  0  0  0  0  0  0  0  0
  -23.4274   -8.5861   22.2422 C   0  0  0  0  0  0  0  0  0  0  0  0
  -26.8622  -24.9775   18.1672 C   0  0  0  0  0  0  0  0  0  0  0  0
  -21.7026   -5.6329   23.4758 C   0  0  0  0  0  0  0  0  0  0  0  0
  -21.1177   -5.4169   24.7235 C   0  0  0  0  0  0  0  0  0  0  0  0
  -27.3475  -25.6136   20.4430 C   0  0  0  0  0  0  0  0  0  0  0  0
  -19.7453   -7.3820   24.4204 C   0  0  0  0  0  0  0  0  0  0  0  0
  -23.9100  -10.5132   20.8674 C   0  0  0  0  0  0  0  0  0  0  0  0
  -24.1817  -13.0448   21.0249 C   0  0  0  0  0  0  0  0  0  0  0  0
  -28.2503  -32.1911   15.2548 C   0  0  0  0  0  0  0  0  0  0  0  0
  -26.1268  -27.1334   19.0076 C   0  0  0  0  0  0  0  0  0  0  0  0
  -28.4978  -31.1115   16.1241 C   0  0  0  0  0  0  0  0  0  0  0  0
  -26.6887  -26.8388   20.2581 C   0  0  0  0  0  0  0  0  0  0  0  0
  -22.5523   -8.1091   21.2663 C   0  0  0  0  0  0  0  0  0  0  0  0
  -27.4349  -24.6891   19.4025 C   0  0  0  0  0  0  0  0  0  0  0  0
  -21.3088   -6.7235   22.7003 C   0  0  0  0  0  0  0  0  0  0  0  0
  -20.1391   -6.2914   25.1958 C   0  0  0  0  0  0  0  0  0  0  0  0
  -20.3302   -7.5981   23.1727 C   0  0  0  0  0  0  0  0  0  0  0  0
  -24.6120  -11.7546   20.6616 C   0  0  0  0  0  0  0  0  0  0  0  0
  -25.1976  -13.8736   20.6154 C   0  0  0  0  0  0  0  0  0  0  0  0
  -22.9720  -13.4573   21.6746 C   0  0  0  0  0  0  0  0  0  0  0  0
  -27.1619  -30.1103   19.4204 C   0  0  0  0  0  0  0  0  0  0  0  0
  -25.4455  -29.9118   22.1658 C   0  0  0  0  0  0  0  0  0  0  0  0
  -24.0634  -27.9376   24.5822 C   0  0  0  0  0  0  0  0  0  0  0  0
  -30.8269  -14.6912   20.5674 C   0  0  0  0  0  0  0  0  0  0  0  0
  -27.9921  -33.5837   15.7730 C   0  0  0  0  0  0  0  0  0  0  0  0
  -25.3937  -28.4282   18.7880 C   0  0  0  0  0  0  0  0  0  0  0  0
  -26.6123  -27.8065   21.4096 C   0  0  0  0  0  0  0  0  0  0  0  0
  -27.5950  -33.6214   17.2465 C   0  0  0  0  0  0  0  0  0  0  0  0
  -29.2179  -12.9898   17.6939 C   0  0  0  0  0  0  0  0  0  0  0  0
  -28.5249  -32.7386   18.0728 C   0  0  0  0  0  0  0  0  0  0  0  0
  -27.8723  -12.5606   18.2757 C   0  0  0  0  0  0  0  0  0  0  0  0
  -31.6349  -18.0260   21.0801 C   0  0  0  0  0  0  0  0  0  0  0  0
  -29.3457  -17.8419   20.0275 C   0  0  0  0  0  0  0  0  0  0  0  0
  -30.2954  -13.0863   18.7693 C   0  0  0  0  0  0  0  0  0  0  0  0
  -31.3459  -16.7429   21.8545 C   0  0  0  0  0  0  0  0  0  0  0  0
  -29.1118  -16.5435   20.8053 C   0  0  0  0  0  0  0  0  0  0  0  0
  -28.5804  -13.5399   20.4942 C   0  0  0  0  0  0  0  0  0  0  0  0
  -28.4352  -31.2740   17.6273 C   0  0  1  0  0  0  0  0  0  0  0  0
  -25.8186  -29.5273   19.7569 C   0  0  1  0  0  0  0  0  0  0  0  0
  -27.4630  -13.4765   19.4420 C   0  0  2  0  0  0  0  0  0  0  0  0
  -30.3301  -18.7520   20.7589 C   0  0  0  0  0  0  0  0  0  0  0  0
  -22.7538  -28.0647   26.7191 C   0  0  0  0  0  0  0  0  0  0  0  0
  -27.9653  -30.7719   23.6560 C   0  0  0  0  0  0  0  0  0  0  0  0
  -26.9003  -29.9724   25.7761 C   0  0  0  0  0  0  0  0  0  0  0  0
  -25.8539  -31.8292   24.4799 C   0  0  0  0  0  0  0  0  0  0  0  0
  -21.8091  -26.4067   23.4275 C   0  0  0  0  0  0  0  0  0  0  0  0
  -29.5392  -20.9429   19.8572 C   0  0  0  0  0  0  0  0  0  0  0  0
  -28.7028  -22.9126   18.4578 C   0  0  0  0  0  0  0  0  0  1  0  0
  -25.7373  -29.4696   23.5794 C   0  0  1  0  0  0  0  0  0  0  0  0
  -22.6796  -27.9289   25.2062 C   0  0  2  0  0  0  0  0  0  0  0  0
  -29.9024  -22.0918   18.9204 C   0  0  1  0  0  0  0  0  0  0  0  0
  -26.6175  -30.4931   24.3508 C   0  0  0  0  0  0  0  0  0  0  0  0
  -25.8079  -11.7583   20.0669 N   0  0  0  0  0  0  0  0  0  0  0  0
  -26.1378  -13.0610   20.0533 N   0  0  0  0  0  0  0  0  0  0  0  0
  -25.8904  -29.0617   21.1434 N   0  0  0  0  0  0  0  0  0  0  0  0
  -29.8653  -13.9235   19.8894 N   0  0  0  0  0  0  0  0  0  0  0  0
  -30.3902  -15.8969   21.1369 N   0  0  0  0  0  0  0  0  0  0  0  0
  -25.3694  -15.2107   20.6849 N   0  0  0  0  0  0  0  0  0  0  0  0
  -22.0351  -12.4764   22.0273 N   0  0  0  0  0  0  0  0  0  0  0  0
  -27.2362  -30.6581   18.1540 N   0  0  0  0  0  0  0  0  0  0  0  0
  -24.4434  -29.2068   24.2001 N   0  0  0  0  0  0  0  0  0  0  0  0
  -30.6282  -19.9308   19.9050 N   0  3  0  0  0  0  0  0  0  0  0  0
  -21.9734  -26.6571   24.8826 N   0  3  0  0  0  0  0  0  0  0  0  0
  -22.7217  -14.6618   21.9198 O   0  0  0  0  0  0  0  0  0  0  0  0
  -28.0638  -30.0676   20.2490 O   0  0  0  0  0  0  0  0  0  0  0  0
  -24.8388  -30.9689   21.9758 O   0  0  0  0  0  0  0  0  0  0  0  0
  -24.7411  -26.9208   24.4505 O   0  0  0  0  0  0  0  0  0  0  0  0
  -32.0044  -14.3214   20.6558 O   0  0  0  0  0  0  0  0  0  0  0  0
  -30.8240  -22.9667   19.5730 O   0  0  0  0  0  0  0  0  0  0  0  0
  -21.8898   -6.9362   21.4614 O   0  0  0  0  0  0  0  0  0  0  0  0
  -28.0793  -23.4969   19.5978 O   0  0  0  0  0  0  0  0  0  1  0  0
  -19.5764   -6.0830   26.3934 F   0  0  0  0  0  0  0  0  0  0  0  0
  -19.9470   -8.6469   22.4318 F   0  0  0  0  0  0  0  0  0  0  0  0
  1  2  1  0  0  0  0
  1  5  2  0  0  0  0
  2  6  2  0  0  0  0
  3  8  2  0  0  0  0
  3 15  1  0  0  0  0
  4  9  1  0  0  0  0
  4 15  2  0  0  0  0
  5 17  1  0  0  0  0
  6 19  1  0  0  0  0
  7 10  2  0  0  0  0
  7 18  1  0  0  0  0
  8 21  1  0  0  0  0
  9 21  2  0  0  0  0
 10 22  1  0  0  0  0
 11 12  2  0  0  0  0
 11 23  1  0  0  0  0
 12 24  1  0  0  0  0
 13 20  1  0  0  0  0
 13 22  2  0  0  0  0
 14 24  2  0  0  0  0
 14 25  1  0  0  0  0
 15 26  1  0  0  0  0
 16 26  1  0  0  0  0
 16 27  2  0  0  0  0
 16 28  1  0  0  0  0
 17 19  2  0  0  0  0
 17 33  1  0  0  0  0
 18 20  2  0  0  0  0
 18 34  1  0  0  0  0
 19 46  1  0  0  0  0
 20 35  1  0  0  0  0
 21 78  1  0  0  0  0
 22 79  1  0  0  0  0
 23 25  2  0  0  0  0
 23 78  1  0  0  0  0
 24 80  1  0  0  0  0
 25 81  1  0  0  0  0
 26 61  2  0  0  0  0
 27 62  1  0  0  0  0
 27 66  1  0  0  0  0
 28 67  1  0  0  0  0
 28 72  2  0  0  0  0
 29 47  1  0  0  0  0
 29 68  1  0  0  0  0
 29 73  2  0  0  0  0
 30 57  1  0  0  0  0
 30 63  1  0  0  0  0
 30 74  2  0  0  0  0
 31 58  1  0  0  0  0
 31 69  1  0  0  0  0
 31 75  2  0  0  0  0
 32 64  1  0  0  0  0
 32 65  1  0  0  0  0
 32 76  2  0  0  0  0
 33 36  1  0  0  0  0
 34 47  1  0  0  0  0
 35 63  1  0  0  0  0
 36 38  1  0  0  0  0
 37 39  1  0  0  0  0
 37 42  1  0  0  0  0
 38 46  1  0  0  0  0
 39 48  1  0  0  0  0
 40 43  1  0  0  0  0
 40 49  1  0  0  0  0
 41 44  1  0  0  0  0
 41 49  1  0  0  0  0
 42 64  1  0  0  0  0
 43 65  1  0  0  0  0
 44 65  1  0  0  0  0
 45 48  1  0  0  0  0
 45 64  1  0  0  0  0
 46 68  1  0  0  0  0
 47 63  1  0  0  0  0
 48 62  1  0  0  0  0
 49 70  1  0  0  0  0
 50 58  1  0  0  0  0
 51 60  1  0  0  0  0
 52 60  1  0  0  0  0
 53 60  1  0  0  0  0
 54 71  1  0  0  0  0
 55 59  1  0  0  0  0
 55 70  1  0  0  0  0
 56 59  1  0  0  0  0
 56 79  1  0  0  0  0
 57 60  1  0  0  0  0
 57 69  1  0  0  0  0
 58 71  1  0  0  0  0
 59 77  1  0  0  0  0
 61 62  1  0  0  0  0
M  CHG  2  70   1  71   1
M  ISO  4  32 100  56 101  65 100  79 101
M  END
> <Batch ID>
0106

> <Smiles>
CNC(C)C(=O)NC(C(=O)N1Cc2cc([101O:1][101CH2:1]C(O)CNC3CC[100N:0]([100C:0](=O)N4CCCC(n5nc(-c6ccc(Oc7ccc(F)cc7F)cc6)c(C(N)=O)c5N)C4)CC3)ccc2CC1C(=O)NC1CCCc2ccccc21)C(C)(C)C

> <Shape>
0.318

> <Color>
0.196

> <Negative vol penalty>
0.000

$$$$

  -OEChem-04052319483D

 85 92  0     1  0  0  0  0  0999 V2000
  -19.9608  -14.3612   19.7792 C   0  0  0  0  0  0  0  0  0  0  0  0
  -20.5679  -15.5333   19.3397 C   0  0  0  0  0  0  0  0  0  0  0  0
  -24.8346  -31.0791   20.4469 C   0  0  0  0  0  0  0  0  0  0  0  0
  -24.3611  -29.8221   22.4551 C   0  0  0  0  0  0  0  0  0  0  0  0
  -20.5813  -13.5787   20.7522 C   0  0  0  0  0  0  0  0  0  0  0  0
  -21.7953  -15.9241   19.8737 C   0  0  0  0  0  0  0  0  0  0  0  0
  -27.8554  -19.2868   18.0616 C   0  0  0  0  0  0  0  0  0  0  0  0
  -24.1425  -32.1723   20.9680 C   0  0  0  0  0  0  0  0  0  0  0  0
  -23.6690  -30.9153   22.9762 C   0  0  0  0  0  0  0  0  0  0  0  0
  -28.6777  -20.3290   18.4876 C   0  0  0  0  0  0  0  0  0  0  0  0
  -22.8088  -35.4175   21.9194 C   0  0  0  0  0  0  0  0  0  0  0  0
  -23.3961  -36.6764   21.7939 C   0  0  0  0  0  0  0  0  0  0  0  0
  -29.6943  -18.8571   20.1060 C   0  0  0  0  0  0  0  0  0  0  0  0
  -25.3028  -35.9138   23.0668 C   0  0  0  0  0  0  0  0  0  0  0  0
  -24.9438  -29.9039   21.1905 C   0  0  0  0  0  0  0  0  0  0  0  0
  -27.0289  -28.4879   20.7968 C   0  0  0  0  0  0  0  0  0  0  0  0
  -21.8215  -13.9551   21.2914 C   0  0  0  0  0  0  0  0  0  0  0  0
  -27.9390  -18.0228   18.6630 C   0  0  0  0  0  0  0  0  0  0  0  0
  -22.4323  -15.1466   20.8557 C   0  0  0  0  0  0  0  0  0  0  0  0
  -28.8738  -17.7999   19.6841 C   0  0  0  0  0  0  0  0  0  0  0  0
  -23.5597  -32.0904   22.2326 C   0  0  0  0  0  0  0  0  0  0  0  0
  -29.5953  -20.1150   19.5120 C   0  0  0  0  0  0  0  0  0  0  0  0
  -23.4685  -34.4067   22.6185 C   0  0  0  0  0  0  0  0  0  0  0  0
  -24.6430  -36.9246   22.3676 C   0  0  0  0  0  0  0  0  0  0  0  0
  -24.7155  -34.6549   23.1922 C   0  0  0  0  0  0  0  0  0  0  0  0
  -25.6581  -28.7741   20.6525 C   0  0  0  0  0  0  0  0  0  0  0  0
  -27.2092  -27.3146   20.1060 C   0  0  0  0  0  0  0  0  0  0  0  0
  -28.0480  -29.2174   21.4932 C   0  0  0  0  0  0  0  0  0  0  0  0
  -25.9360  -16.1866   20.3122 C   0  0  0  0  0  0  0  0  0  0  0  0
  -28.3537  -14.0340   20.1037 C   0  0  0  0  0  0  0  0  0  0  0  0
  -31.6919  -13.4575   19.6900 C   0  0  0  0  0  0  0  0  0  0  0  0
  -24.3943  -21.8881   22.7693 C   0  0  0  0  0  0  0  0  0  0  0  0
  -23.5183  -22.8291   18.6540 C   0  0  0  0  0  0  0  0  0  0  0  0
  -22.4310  -13.1016   22.3752 C   0  0  0  0  0  0  0  0  0  0  0  0
  -27.0635  -16.9018   18.1738 C   0  0  0  0  0  0  0  0  0  0  0  0
  -29.0170  -16.4559   20.3486 C   0  0  0  0  0  0  0  0  0  0  0  0
  -23.9098  -13.3911   22.6192 C   0  0  0  0  0  0  0  0  0  0  0  0
  -25.4392  -24.8291   16.4208 C   0  0  0  0  0  0  0  0  0  0  0  0
  -24.1522  -14.8946   22.7062 C   0  0  0  0  0  0  0  0  0  0  0  0
  -25.8368  -26.0411   17.2652 C   0  0  0  0  0  0  0  0  0  0  0  0
  -24.0325  -24.3415   16.7607 C   0  0  0  0  0  0  0  0  0  0  0  0
  -24.1995  -25.2760   19.0350 C   0  0  0  0  0  0  0  0  0  0  0  0
  -23.7754  -15.5910   21.3930 C   0  0  1  0  0  0  0  0  0  0  0  0
  -26.8760  -15.7954   19.2073 C   0  0  1  0  0  0  0  0  0  0  0  0
  -25.6317  -25.7694   18.7676 C   0  0  2  0  0  0  0  0  0  0  0  0
  -33.3738  -11.5971   19.6036 C   0  0  0  0  0  0  0  0  0  0  0  0
  -29.1455  -22.9921   23.6242 C   0  0  0  0  0  0  0  0  0  0  0  0
  -30.7737  -23.2535   18.8738 C   0  0  0  0  0  0  0  0  0  0  0  0
  -21.9729  -22.5525   22.6297 C   0  0  0  0  0  0  0  0  0  0  0  0
  -22.5800  -20.1397   22.7700 C   0  0  0  0  0  0  0  0  0  0  0  0
  -28.2107  -13.7671   23.1398 C   0  0  0  0  0  0  0  0  0  0  0  0
  -30.4634  -12.6762   23.0803 C   0  0  0  0  0  0  0  0  0  0  0  0
  -28.5318  -11.6094   21.9169 C   0  0  0  0  0  0  0  0  0  0  0  0
  -32.4671  -14.1312   16.9143 C   0  0  0  0  0  0  0  0  0  0  0  0
  -27.5626  -22.0455   21.8827 C   0  0  0  0  0  0  0  0  0  0  0  0
  -29.8356  -23.1000   21.2083 C   0  0  0  0  0  0  0  0  0  0  0  0
  -26.7728  -21.2090   22.8851 C   0  0  0  0  0  0  0  0  0  0  0  0
  -23.0480  -21.4341   20.6520 C   0  0  0  0  0  0  0  0  0  0  0  0
  -29.5642  -13.7013   20.9422 C   0  0  1  0  0  0  0  0  0  0  0  0
  -32.4434  -12.4882   18.7955 C   0  0  2  0  0  0  0  0  0  0  0  0
  -29.0355  -22.3008   22.2603 C   0  0  1  0  0  0  0  0  0  0  0  0
  -29.8818  -22.4561   19.8175 C   0  0  2  0  0  0  0  0  0  1  0  0
  -23.0124  -21.5032   22.1941 C   0  0  0  0  0  0  0  0  0  0  0  0
  -29.1887  -12.9645   22.2588 C   0  0  0  0  0  0  0  0  0  0  0  0
  -25.0134  -27.8566   19.9268 N   0  0  0  0  0  0  0  0  0  0  0  0
  -25.9834  -26.9825   19.6089 N   0  0  0  0  0  0  0  0  0  0  0  0
  -28.1342  -15.3934   19.8394 N   0  0  0  0  0  0  0  0  0  0  0  0
  -23.9047  -24.1010   18.2000 N   0  0  0  0  0  0  0  0  0  0  0  0
  -28.2953  -26.5450   19.8811 N   0  0  0  0  0  0  0  0  0  0  0  0
  -27.6907  -30.4028   22.1500 N   0  0  0  0  0  0  0  0  0  0  0  0
  -24.8093  -15.3913   20.4002 N   0  0  0  0  0  0  0  0  0  0  0  0
  -25.4197  -21.0099   22.4394 N   0  0  0  0  0  0  0  0  0  0  0  0
  -30.4679  -12.9528   20.0754 N   0  0  0  0  0  0  0  0  0  0  0  0
  -23.4275  -22.6845   20.0330 N   0  0  0  0  0  0  0  0  0  0  0  0
  -33.2582  -13.2328   17.7941 N   0  3  0  0  0  0  0  0  0  0  0  0
  -29.2435  -28.8381   21.5180 O   0  0  0  0  0  0  0  0  0  0  0  0
  -26.2130  -17.1384   21.0326 O   0  0  0  0  0  0  0  0  0  0  0  0
  -27.6336  -13.1209   19.6922 O   0  0  0  0  0  0  0  0  0  0  0  0
  -32.1468  -14.5513   20.0173 O   0  0  0  0  0  0  0  0  0  0  0  0
  -24.5607  -22.8936   23.4606 O   0  0  0  0  0  0  0  0  0  0  0  0
  -23.2776  -21.8903   17.8873 O   0  0  0  0  0  0  0  0  0  0  0  0
  -22.8845  -33.1571   22.7415 O   0  0  0  0  0  0  0  0  0  0  0  0
  -30.3987  -21.1307   19.9302 O   0  0  0  0  0  0  0  0  0  1  0  0
  -25.2076  -38.1332   22.2458 F   0  0  0  0  0  0  0  0  0  0  0  0
  -25.3546  -33.6874   23.8641 F   0  0  0  0  0  0  0  0  0  0  0  0
  1  2  1  0  0  0  0
  1  5  2  0  0  0  0
  2  6  2  0  0  0  0
  3  8  2  0  0  0  0
  3 15  1  0  0  0  0
  4  9  1  0  0  0  0
  4 15  2  0  0  0  0
  5 17  1  0  0  0  0
  6 19  1  0  0  0  0
  7 10  2  0  0  0  0
  7 18  1  0  0  0  0
  8 21  1  0  0  0  0
  9 21  2  0  0  0  0
 10 22  1  0  0  0  0
 11 12  2  0  0  0  0
 11 23  1  0  0  0  0
 12 24  1  0  0  0  0
 13 20  1  0  0  0  0
 13 22  2  0  0  0  0
 14 24  2  0  0  0  0
 14 25  1  0  0  0  0
 15 26  1  0  0  0  0
 16 26  1  0  0  0  0
 16 27  2  0  0  0  0
 16 28  1  0  0  0  0
 17 19  2  0  0  0  0
 17 34  1  0  0  0  0
 18 20  2  0  0  0  0
 18 35  1  0  0  0  0
 19 43  1  0  0  0  0
 20 36  1  0  0  0  0
 21 82  1  0  0  0  0
 22 83  1  0  0  0  0
 23 25  2  0  0  0  0
 23 82  1  0  0  0  0
 24 84  1  0  0  0  0
 25 85  1  0  0  0  0
 26 65  2  0  0  0  0
 27 66  1  0  0  0  0
 27 69  1  0  0  0  0
 28 70  1  0  0  0  0
 28 76  2  0  0  0  0
 29 44  1  0  0  0  0
 29 71  1  0  0  0  0
 29 77  2  0  0  0  0
 30 59  1  0  0  0  0
 30 67  1  0  0  0  0
 30 78  2  0  0  0  0
 31 60  1  0  0  0  0
 31 73  1  0  0  0  0
 31 79  2  0  0  0  0
 32 63  1  0  0  0  0
 32 72  1  0  0  0  0
 32 80  2  0  0  0  0
 33 68  1  0  0  0  0
 33 74  1  0  0  0  0
 33 81  2  0  0  0  0
 34 37  1  0  0  0  0
 35 44  1  0  0  0  0
 36 67  1  0  0  0  0
 37 39  1  0  0  0  0
 38 40  1  0  0  0  0
 38 41  1  0  0  0  0
 39 43  1  0  0  0  0
 40 45  1  0  0  0  0
 41 68  1  0  0  0  0
 42 45  1  0  0  0  0
 42 68  1  0  0  0  0
 43 71  1  0  0  0  0
 44 67  1  0  0  0  0
 45 66  1  0  0  0  0
 46 60  1  0  0  0  0
 47 61  1  0  0  0  0
 48 62  1  0  0  0  0
 49 63  1  0  0  0  0
 50 63  1  0  0  0  0
 51 64  1  0  0  0  0
 52 64  1  0  0  0  0
 53 64  1  0  0  0  0
 54 75  1  0  0  0  0
 55 57  1  0  0  0  0
 55 61  1  0  0  0  0
 56 61  1  0  0  0  0
 56 62  1  0  0  0  0
 57 72  1  0  0  0  0
 58 63  1  0  0  0  0
 58 74  1  0  0  0  0
 59 64  1  0  0  0  0
 59 73  1  0  0  0  0
 60 75  1  0  0  0  0
 62 83  1  0  0  0  0
 65 66  1  0  0  0  0
M  CHG  1  75   1
M  ISO  4  33 100  62 101  74 100  83 101
M  END
> <Batch ID>
0106

> <Smiles>
CNC(C)C(=O)NC(C(=O)N1Cc2cc([101O:1][101CH:1](C)CC(C)CCNC(=O)C(C)(C)C[100NH:0][100C:0](=O)N3CCCC(n4nc(-c5ccc(Oc6ccc(F)cc6F)cc5)c(C(N)=O)c4N)C3)ccc2CC1C(=O)NC1CCCc2ccccc21)C(C)(C)C

> <Shape>
0.246

> <Color>
0.072

> <Negative vol penalty>
0.000

$$$$

  -OEChem-04052319483D

 82 90  0     1  0  0  0  0  0999 V2000
  -17.7095  -25.6265   20.9813 C   0  0  0  0  0  0  0  0  0  0  0  0
  -18.9625  -25.7504   20.3895 C   0  0  0  0  0  0  0  0  0  0  0  0
  -28.9170  -21.4320   17.2169 C   0  0  0  0  0  0  0  0  0  0  0  0
  -25.0451  -13.3124   22.5776 C   0  0  0  0  0  0  0  0  0  0  0  0
  -26.8542  -13.4232   20.9800 C   0  0  0  0  0  0  0  0  0  0  0  0
  -17.3918  -26.3892   22.1044 C   0  0  0  0  0  0  0  0  0  0  0  0
  -19.8981  -26.6380   20.9198 C   0  0  0  0  0  0  0  0  0  0  0  0
  -24.5281  -24.6132   21.2485 C   0  0  0  0  0  0  0  0  0  0  0  0
  -29.3911  -20.9682   18.4440 C   0  0  0  0  0  0  0  0  0  0  0  0
  -28.8596  -22.8026   16.9642 C   0  0  0  0  0  0  0  0  0  0  0  0
  -24.3630  -12.4265   21.7437 C   0  0  0  0  0  0  0  0  0  0  0  0
  -26.1720  -12.5372   20.1462 C   0  0  0  0  0  0  0  0  0  0  0  0
  -25.2753  -24.5387   20.0739 C   0  0  0  0  0  0  0  0  0  0  0  0
  -24.4834   -9.1361   20.9743 C   0  0  0  0  0  0  0  0  0  0  0  0
  -23.9050   -8.0099   21.5597 C   0  0  0  0  0  0  0  0  0  0  0  0
  -26.4951  -26.5132   20.7317 C   0  0  0  0  0  0  0  0  0  0  0  0
  -29.7504  -23.2458   19.1658 C   0  0  0  0  0  0  0  0  0  0  0  0
  -21.7304   -8.7252   20.7873 C   0  0  0  0  0  0  0  0  0  0  0  0
  -26.2907  -13.8108   22.1957 C   0  0  0  0  0  0  0  0  0  0  0  0
  -27.9136  -14.4018   24.0731 C   0  0  0  0  0  0  0  0  0  0  0  0
  -18.3274  -27.2795   22.6545 C   0  0  0  0  0  0  0  0  0  0  0  0
  -24.7517  -25.6463   22.1700 C   0  0  0  0  0  0  0  0  0  0  0  0
  -19.5921  -27.4144   22.0505 C   0  0  0  0  0  0  0  0  0  0  0  0
  -25.7511  -26.5971   21.9185 C   0  0  0  0  0  0  0  0  0  0  0  0
  -29.8078  -21.8751   19.4184 C   0  0  0  0  0  0  0  0  0  0  0  0
  -29.2763  -23.7095   17.9387 C   0  0  0  0  0  0  0  0  0  0  0  0
  -24.9264  -12.0388   20.5280 C   0  0  0  0  0  0  0  0  0  0  0  0
  -26.2570  -25.4905   19.8139 C   0  0  0  0  0  0  0  0  0  0  0  0
  -23.6853  -10.0569   20.2955 C   0  0  0  0  0  0  0  0  0  0  0  0
  -22.5285   -7.8044   21.4662 C   0  0  0  0  0  0  0  0  0  0  0  0
  -22.3088   -9.8515   20.2020 C   0  0  0  0  0  0  0  0  0  0  0  0
  -26.9956  -14.7264   23.0564 C   0  0  0  0  0  0  0  0  0  0  0  0
  -28.2969  -15.6152   24.5900 C   0  0  0  0  0  0  0  0  0  0  0  0
  -28.3784  -13.1181   24.5111 C   0  0  0  0  0  0  0  0  0  0  0  0
  -23.0006  -28.0281   23.3381 C   0  0  0  0  0  0  0  0  0  0  0  0
  -25.5852  -28.4740   25.2469 C   0  0  0  0  0  0  0  0  0  0  0  0
  -28.9370  -28.0517   25.7306 C   0  0  0  0  0  0  0  0  0  0  0  0
  -28.4262  -21.1554   22.3227 C   0  0  0  0  0  0  0  0  0  0  0  0
  -17.9216  -28.1175   23.8410 C   0  0  0  0  0  0  0  0  0  0  0  0
  -23.9554  -25.6973   23.4451 C   0  0  0  0  0  0  0  0  0  0  0  0
  -26.0441  -27.7143   22.8852 C   0  0  0  0  0  0  0  0  0  0  0  0
  -19.1018  -28.7599   24.5652 C   0  0  0  0  0  0  0  0  0  0  0  0
  -26.7019  -20.0781   25.2455 C   0  0  0  0  0  0  0  0  0  0  0  0
  -20.0590  -29.3986   23.5639 C   0  0  0  0  0  0  0  0  0  0  0  0
  -26.6645  -18.5551   25.1076 C   0  0  0  0  0  0  0  0  0  0  0  0
  -26.5495  -20.7711   23.8933 C   0  0  0  0  0  0  0  0  0  0  0  0
  -27.4673  -18.8064   22.7221 C   0  0  0  0  0  0  0  0  0  0  0  0
  -20.6426  -28.3481   22.6113 C   0  0  1  0  0  0  0  0  0  0  0  0
  -23.9165  -27.0884   24.0701 C   0  0  1  0  0  0  0  0  0  0  0  0
  -27.6733  -18.0626   24.0527 C   0  0  2  0  0  0  0  0  0  0  0  0
  -30.7698  -28.5557   27.3690 C   0  0  0  0  0  0  0  0  0  0  0  0
  -28.6633  -25.5724   16.2556 C   0  0  0  0  0  0  0  0  0  0  0  0
  -30.6385  -25.8133   17.7448 C   0  0  0  0  0  0  0  0  0  0  0  0
  -25.6144  -31.3799   24.3168 C   0  0  0  0  0  0  0  0  0  0  0  0
  -27.9487  -31.5671   25.2023 C   0  0  0  0  0  0  0  0  0  0  0  0
  -26.0640  -31.0608   26.7561 C   0  0  0  0  0  0  0  0  0  0  0  0
  -29.5139  -25.1788   26.1461 C   0  0  0  0  0  0  0  0  0  0  0  0
  -30.3161  -21.3784   20.7297 C   0  0  0  0  0  0  0  0  0  0  0  0
  -28.3207  -25.9266   18.7154 C   0  0  0  0  0  0  0  0  0  1  0  0
  -26.8597  -29.2774   25.1504 C   0  0  1  0  0  0  0  0  0  0  0  0
  -29.7264  -27.5430   26.9233 C   0  0  2  0  0  0  0  0  0  0  0  0
  -29.2122  -25.2229   17.6598 C   0  0  0  0  0  0  0  0  0  0  0  0
  -26.6151  -30.8015   25.3371 C   0  0  0  0  0  0  0  0  0  0  0  0
  -26.8069  -16.0430   22.9333 N   0  0  0  0  0  0  0  0  0  0  0  0
  -27.6116  -16.5563   23.8794 N   0  0  0  0  0  0  0  0  0  0  0  0
  -25.2345  -27.7250   24.1148 N   0  0  0  0  0  0  0  0  0  0  0  0
  -27.5364  -20.2601   22.9388 N   0  0  0  0  0  0  0  0  0  0  0  0
  -29.1498  -15.9583   25.5785 N   0  0  0  0  0  0  0  0  0  0  0  0
  -27.8825  -11.9740   23.8713 N   0  0  0  0  0  0  0  0  0  0  0  0
  -21.6899  -27.5961   23.2686 N   0  0  0  0  0  0  0  0  0  0  0  0
  -27.7825  -28.6971   26.1200 N   0  0  0  0  0  0  0  0  0  0  0  0
  -29.3333  -20.5876   21.4364 N   0  0  0  0  0  0  0  0  0  0  0  0
  -30.4228  -26.2711   26.5792 N   0  3  0  0  0  0  0  0  0  0  0  0
  -29.1965  -12.9887   25.4532 O   0  0  0  0  0  0  0  0  0  0  0  0
  -23.4495  -29.0689   22.8723 O   0  0  0  0  0  0  0  0  0  0  0  0
  -24.9290  -28.5042   26.2910 O   0  0  0  0  0  0  0  0  0  0  0  0
  -29.3094  -27.8956   24.5698 O   0  0  0  0  0  0  0  0  0  0  0  0
  -28.4168  -22.3700   22.5499 O   0  0  0  0  0  0  0  0  0  0  0  0
  -24.2611  -11.1742   19.7142 O   0  0  0  0  0  0  0  0  0  0  0  0
  -26.9874  -25.4204   18.6678 O   0  0  0  0  0  0  0  0  0  1  0  0
  -21.9734   -6.7221   22.0271 F   0  0  0  0  0  0  0  0  0  0  0  0
  -21.5371  -10.7320   19.5501 F   0  0  0  0  0  0  0  0  0  0  0  0
  1  2  1  0  0  0  0
  1  6  2  0  0  0  0
  2  7  2  0  0  0  0
  3  9  1  0  0  0  0
  3 10  2  0  0  0  0
  4 11  2  0  0  0  0
  4 19  1  0  0  0  0
  5 12  1  0  0  0  0
  5 19  2  0  0  0  0
  6 21  1  0  0  0  0
  7 23  1  0  0  0  0
  8 13  2  0  0  0  0
  8 22  1  0  0  0  0
  9 25  2  0  0  0  0
 10 26  1  0  0  0  0
 11 27  1  0  0  0  0
 12 27  2  0  0  0  0
 13 28  1  0  0  0  0
 14 15  2  0  0  0  0
 14 29  1  0  0  0  0
 15 30  1  0  0  0  0
 16 24  1  0  0  0  0
 16 28  2  0  0  0  0
 17 25  1  0  0  0  0
 17 26  2  0  0  0  0
 18 30  2  0  0  0  0
 18 31  1  0  0  0  0
 19 32  1  0  0  0  0
 20 32  1  0  0  0  0
 20 33  2  0  0  0  0
 20 34  1  0  0  0  0
 21 23  2  0  0  0  0
 21 39  1  0  0  0  0
 22 24  2  0  0  0  0
 22 40  1  0  0  0  0
 23 48  1  0  0  0  0
 24 41  1  0  0  0  0
 25 58  1  0  0  0  0
 26 62  1  0  0  0  0
 27 79  1  0  0  0  0
 28 80  1  0  0  0  0
 29 31  2  0  0  0  0
 29 79  1  0  0  0  0
 30 81  1  0  0  0  0
 31 82  1  0  0  0  0
 32 64  2  0  0  0  0
 33 65  1  0  0  0  0
 33 68  1  0  0  0  0
 34 69  1  0  0  0  0
 34 74  2  0  0  0  0
 35 49  1  0  0  0  0
 35 70  1  0  0  0  0
 35 75  2  0  0  0  0
 36 60  1  0  0  0  0
 36 66  1  0  0  0  0
 36 76  2  0  0  0  0
 37 61  1  0  0  0  0
 37 71  1  0  0  0  0
 37 77  2  0  0  0  0
 38 67  1  0  0  0  0
 38 72  1  0  0  0  0
 38 78  2  0  0  0  0
 39 42  1  0  0  0  0
 40 49  1  0  0  0  0
 41 66  1  0  0  0  0
 42 44  1  0  0  0  0
 43 45  1  0  0  0  0
 43 46  1  0  0  0  0
 44 48  1  0  0  0  0
 45 50  1  0  0  0  0
 46 67  1  0  0  0  0
 47 50  1  0  0  0  0
 47 67  1  0  0  0  0
 48 70  1  0  0  0  0
 49 66  1  0  0  0  0
 50 65  1  0  0  0  0
 51 61  1  0  0  0  0
 52 62  1  0  0  0  0
 53 62  1  0  0  0  0
 54 63  1  0  0  0  0
 55 63  1  0  0  0  0
 56 63  1  0  0  0  0
 57 73  1  0  0  0  0
 58 72  1  0  0  0  0
 59 62  1  0  0  0  0
 59 80  1  0  0  0  0
 60 63  1  0  0  0  0
 60 71  1  0  0  0  0
 61 73  1  0  0  0  0
 64 65  1  0  0  0  0
M  CHG  1  73   1
M  ISO  4  38 100  59 101  72 100  80 101
M  END
> <Batch ID>
0106

> <Smiles>
CNC(C)C(=O)NC(C(=O)N1Cc2cc([101O:1][101CH2:1]C(C)(C)c3cccc(C[100NH:0][100C:0](=O)N4CCCC(n5nc(-c6ccc(Oc7ccc(F)cc7F)cc6)c(C(N)=O)c5N)C4)c3)ccc2CC1C(=O)NC1CCCc2ccccc21)C(C)(C)C

> <Shape>
0.229

> <Color>
0.071

> <Negative vol penalty>
0.000

$$$$

  -OEChem-04052319483D

 83 90  0     1  0  0  0  0  0999 V2000
  -16.5501  -29.8489   23.4279 C   0  0  0  0  0  0  0  0  0  0  0  0
  -17.6190  -30.6946   23.7021 C   0  0  0  0  0  0  0  0  0  0  0  0
  -16.6936  -28.1339   14.8749 C   0  0  0  0  0  0  0  0  0  0  0  0
  -17.0190  -26.2100   13.4502 C   0  0  0  0  0  0  0  0  0  0  0  0
  -16.7900  -28.5440   23.0025 C   0  0  0  0  0  0  0  0  0  0  0  0
  -18.9280  -30.2395   23.5396 C   0  0  0  0  0  0  0  0  0  0  0  0
  -27.0800  -29.3269   22.0855 C   0  0  0  0  0  0  0  0  0  0  0  0
  -16.0317  -28.7904   13.8373 C   0  0  0  0  0  0  0  0  0  0  0  0
  -16.3571  -26.8664   12.4126 C   0  0  0  0  0  0  0  0  0  0  0  0
  -27.8674  -28.3340   21.5042 C   0  0  0  0  0  0  0  0  0  0  0  0
  -15.0700  -28.1720    9.2743 C   0  0  0  0  0  0  0  0  0  0  0  0
  -15.6386  -28.1119    8.0020 C   0  0  0  0  0  0  0  0  0  0  0  0
  -26.1789  -27.9922   19.8156 C   0  0  0  0  0  0  0  0  0  0  0  0
  -17.6333  -29.1849    8.8428 C   0  0  0  0  0  0  0  0  0  0  0  0
  -17.1873  -26.8437   14.6814 C   0  0  0  0  0  0  0  0  0  0  0  0
  -17.2993  -25.3386   16.7380 C   0  0  0  0  0  0  0  0  0  0  0  0
  -18.1029  -28.0697   22.8469 C   0  0  0  0  0  0  0  0  0  0  0  0
  -25.8292  -29.6529   21.5417 C   0  0  0  0  0  0  0  0  0  0  0  0
  -19.1906  -28.9334   23.0882 C   0  0  0  0  0  0  0  0  0  0  0  0
  -25.3787  -28.9914   20.3904 C   0  0  0  0  0  0  0  0  0  0  0  0
  -15.8634  -28.1566   12.6062 C   0  0  0  0  0  0  0  0  0  0  0  0
  -27.4156  -27.6645   20.3707 C   0  0  0  0  0  0  0  0  0  0  0  0
  -15.7830  -28.7386   10.3309 C   0  0  0  0  0  0  0  0  0  0  0  0
  -16.9203  -28.6184    7.7863 C   0  0  0  0  0  0  0  0  0  0  0  0
  -17.0647  -29.2451   10.1151 C   0  0  0  0  0  0  0  0  0  0  0  0
  -17.8715  -26.1653   15.7526 C   0  0  0  0  0  0  0  0  0  0  0  0
  -18.3616  -24.9429   17.5135 C   0  0  0  0  0  0  0  0  0  0  0  0
  -15.9300  -24.9619   16.9346 C   0  0  0  0  0  0  0  0  0  0  0  0
  -22.8299  -29.5402   22.5883 C   0  0  0  0  0  0  0  0  0  0  0  0
  -22.2048  -31.0360   19.7787 C   0  0  0  0  0  0  0  0  0  0  0  0
  -23.2966  -30.7640   16.3507 C   0  0  0  0  0  0  0  0  0  0  0  0
  -23.4512  -22.9838   17.9665 C   0  0  0  0  0  0  0  0  0  0  0  0
  -18.3052  -26.6509   22.3763 C   0  0  0  0  0  0  0  0  0  0  0  0
  -25.0037  -30.7449   22.1650 C   0  0  0  0  0  0  0  0  0  0  0  0
  -24.0524  -29.3181   19.7559 C   0  0  0  0  0  0  0  0  0  0  0  0
  -19.7085  -26.1249   22.6597 C   0  0  0  0  0  0  0  0  0  0  0  0
  -23.1491  -26.5738   17.6225 C   0  0  0  0  0  0  0  0  0  0  0  0
  -20.7464  -27.1285   22.1803 C   0  0  0  0  0  0  0  0  0  0  0  0
  -21.6905  -26.7156   17.1838 C   0  0  0  0  0  0  0  0  0  0  0  0
  -23.7953  -25.3385   17.0023 C   0  0  0  0  0  0  0  0  0  0  0  0
  -21.6143  -24.2032   16.8345 C   0  0  0  0  0  0  0  0  0  0  0  0
  -20.6230  -28.4507   22.9480 C   0  0  1  0  0  0  0  0  0  0  0  0
  -23.5195  -30.6379   21.8287 C   0  0  1  0  0  0  0  0  0  0  0  0
  -20.8981  -25.4211   17.4459 C   0  0  2  0  0  0  0  0  0  0  0  0
  -23.3919  -32.4855   14.5273 C   0  0  0  0  0  0  0  0  0  0  0  0
  -27.8568  -25.4826   17.1770 C   0  0  0  0  0  0  0  0  0  0  0  0
  -29.6575  -24.4285   18.5545 C   0  0  0  0  0  0  0  0  0  0  0  0
  -25.1400  -22.5695   23.2808 C   0  0  0  0  0  0  0  0  0  0  0  0
  -23.8877  -24.3748   22.0371 C   0  0  0  0  0  0  0  0  0  0  0  0
  -19.4537  -29.9592   19.0156 C   0  0  0  0  0  0  0  0  0  0  0  0
  -20.0908  -30.2331   16.6099 C   0  0  0  0  0  0  0  0  0  0  0  0
  -19.9758  -32.2283   18.1028 C   0  0  0  0  0  0  0  0  0  0  0  0
  -26.1762  -30.2716   15.8772 C   0  0  0  0  0  0  0  0  0  0  0  0
  -27.9533  -24.6255   21.0205 C   0  0  0  0  0  0  0  0  0  0  0  0
  -25.3836  -21.8871   19.0711 C   0  0  0  0  0  0  0  0  0  0  0  0
  -27.3436  -23.2284   21.1143 C   0  0  0  0  0  0  0  0  0  0  0  0
  -25.2409  -22.0076   20.5769 C   0  0  0  0  0  0  0  0  0  0  0  0
  -21.8761  -30.5833   18.3765 C   0  0  1  0  0  0  0  0  0  0  0  0
  -24.1779  -31.7437   15.5972 C   0  0  2  0  0  0  0  0  0  0  0  0
  -28.1483  -24.6849   18.4494 C   0  0  0  0  0  0  0  0  0  0  0  0
  -25.2447  -23.7621   22.3439 C   0  0  0  0  0  0  0  0  0  0  0  0
  -27.6202  -25.3849   19.7245 C   0  0  2  0  0  0  0  0  0  1  0  0
  -20.3650  -30.7351   18.0437 C   0  0  0  0  0  0  0  0  0  0  0  0
  -19.1946  -26.2885   15.8876 N   0  0  0  0  0  0  0  0  0  0  0  0
  -19.4626  -25.5339   16.9670 N   0  0  0  0  0  0  0  0  0  0  0  0
  -23.2789  -30.3890   20.4059 N   0  0  0  0  0  0  0  0  0  0  0  0
  -23.0022  -24.1386   17.3045 N   0  0  0  0  0  0  0  0  0  0  0  0
  -18.4520  -24.1506   18.6027 N   0  0  0  0  0  0  0  0  0  0  0  0
  -14.9663  -25.4579   16.0460 N   0  0  0  0  0  0  0  0  0  0  0  0
  -21.4769  -29.4389   22.3266 N   0  0  0  0  0  0  0  0  0  0  0  0
  -22.7614  -31.3293   17.4887 N   0  0  0  0  0  0  0  0  0  0  0  0
  -24.7798  -23.0002   18.3729 N   0  0  0  0  0  0  0  0  0  0  0  0
  -25.3056  -31.0255   14.9388 N   0  3  0  0  0  0  0  0  0  0  0  0
  -25.8652  -23.2993   21.0475 N   0  3  1  0  0  0  0  0  0  0  0  0
  -15.5693  -24.2210   17.8804 O   0  0  0  0  0  0  0  0  0  0  0  0
  -23.4778  -28.8361   23.3541 O   0  0  0  0  0  0  0  0  0  0  0  0
  -21.5377  -31.9356   20.2957 O   0  0  0  0  0  0  0  0  0  0  0  0
  -23.0995  -29.6134   15.9661 O   0  0  0  0  0  0  0  0  0  0  0  0
  -22.7203  -22.0115   18.1844 O   0  0  0  0  0  0  0  0  0  0  0  0
  -15.2174  -28.7968   11.5936 O   0  0  0  0  0  0  0  0  0  0  0  0
  -28.1818  -26.6945   19.8017 O   0  0  0  0  0  0  0  0  0  1  0  0
  -17.4668  -28.5592    6.5648 F   0  0  0  0  0  0  0  0  0  0  0  0
  -17.7550  -29.7895   11.1265 F   0  0  0  0  0  0  0  0  0  0  0  0
  1  2  1  0  0  0  0
  1  5  2  0  0  0  0
  2  6  2  0  0  0  0
  3  8  2  0  0  0  0
  3 15  1  0  0  0  0
  4  9  1  0  0  0  0
  4 15  2  0  0  0  0
  5 17  1  0  0  0  0
  6 19  1  0  0  0  0
  7 10  2  0  0  0  0
  7 18  1  0  0  0  0
  8 21  1  0  0  0  0
  9 21  2  0  0  0  0
 10 22  1  0  0  0  0
 11 12  2  0  0  0  0
 11 23  1  0  0  0  0
 12 24  1  0  0  0  0
 13 20  1  0  0  0  0
 13 22  2  0  0  0  0
 14 24  2  0  0  0  0
 14 25  1  0  0  0  0
 15 26  1  0  0  0  0
 16 26  1  0  0  0  0
 16 27  2  0  0  0  0
 16 28  1  0  0  0  0
 17 19  2  0  0  0  0
 17 33  1  0  0  0  0
 18 20  2  0  0  0  0
 18 34  1  0  0  0  0
 19 42  1  0  0  0  0
 20 35  1  0  0  0  0
 21 80  1  0  0  0  0
 22 81  1  0  0  0  0
 23 25  2  0  0  0  0
 23 80  1  0  0  0  0
 24 82  1  0  0  0  0
 25 83  1  0  0  0  0
 26 64  2  0  0  0  0
 27 65  1  0  0  0  0
 27 68  1  0  0  0  0
 28 69  1  0  0  0  0
 28 75  2  0  0  0  0
 29 43  1  0  0  0  0
 29 70  1  0  0  0  0
 29 76  2  0  0  0  0
 30 58  1  0  0  0  0
 30 66  1  0  0  0  0
 30 77  2  0  0  0  0
 31 59  1  0  0  0  0
 31 71  1  0  0  0  0
 31 78  2  0  0  0  0
 32 67  1  0  0  0  0
 32 72  1  0  0  0  0
 32 79  2  0  0  0  0
 33 36  1  0  0  0  0
 34 43  1  0  0  0  0
 35 66  1  0  0  0  0
 36 38  1  0  0  0  0
 37 39  1  0  0  0  0
 37 40  1  0  0  0  0
 38 42  1  0  0  0  0
 39 44  1  0  0  0  0
 40 67  1  0  0  0  0
 41 44  1  0  0  0  0
 41 67  1  0  0  0  0
 42 70  1  0  0  0  0
 43 66  1  0  0  0  0
 44 65  1  0  0  0  0
 45 59  1  0  0  0  0
 46 60  1  0  0  0  0
 47 60  1  0  0  0  0
 48 61  1  0  0  0  0
 49 61  1  0  0  0  0
 50 63  1  0  0  0  0
 51 63  1  0  0  0  0
 52 63  1  0  0  0  0
 53 73  1  0  0  0  0
 54 56  1  0  0  0  0
 54 62  1  0  0  0  0
 55 57  1  0  0  0  0
 55 72  1  0  0  0  0
 56 74  1  0  0  0  0
 57 74  1  0  0  0  0
 58 63  1  0  0  0  0
 58 71  1  0  0  0  0
 59 73  1  0  0  0  0
 60 62  1  0  0  0  0
 61 74  1  0  0  0  0
 62 81  1  0  0  0  0
 64 65  1  0  0  0  0
M  CHG  2  73   1  74   1
M  ISO  4  32 100  62 101  72 100  81 101
M  END
> <Batch ID>
0106

> <Smiles>
CNC(C)C(=O)NC(C(=O)N1Cc2cc([101O:1][101CH:1](CCN(CC[100NH:0][100C:0](=O)N3CCCC(n4nc(-c5ccc(Oc6ccc(F)cc6F)cc5)c(C(N)=O)c4N)C3)C(C)C)C(C)C)ccc2CC1C(=O)NC1CCCc2ccccc21)C(C)(C)C

> <Shape>
0.150

> <Color>
0.119

> <Negative vol penalty>
0.000

$$$$

  -OEChem-04052319483D

 84 91  0     1  0  0  0  0  0999 V2000
  -17.3477  -25.5231   25.4111 C   0  0  0  0  0  0  0  0  0  0  0  0
  -18.1798  -24.4912   24.9887 C   0  0  0  0  0  0  0  0  0  0  0  0
  -25.8640  -12.2452   21.2040 C   0  0  0  0  0  0  0  0  0  0  0  0
  -25.6546  -13.7968   19.3639 C   0  0  0  0  0  0  0  0  0  0  0  0
  -17.4509  -26.7842   24.8256 C   0  0  0  0  0  0  0  0  0  0  0  0
  -19.1148  -24.7197   23.9797 C   0  0  0  0  0  0  0  0  0  0  0  0
  -26.8556  -23.6679   24.0024 C   0  0  0  0  0  0  0  0  0  0  0  0
  -24.4779  -12.2426   21.3595 C   0  0  0  0  0  0  0  0  0  0  0  0
  -24.2685  -13.7941   19.5194 C   0  0  0  0  0  0  0  0  0  0  0  0
  -28.2491  -23.6730   23.9375 C   0  0  0  0  0  0  0  0  0  0  0  0
  -21.8063  -10.8069   19.8647 C   0  0  0  0  0  0  0  0  0  0  0  0
  -21.1763   -9.5752   20.0424 C   0  0  0  0  0  0  0  0  0  0  0  0
  -28.1754  -25.4152   22.2621 C   0  0  0  0  0  0  0  0  0  0  0  0
  -20.3376  -10.3134   22.1846 C   0  0  0  0  0  0  0  0  0  0  0  0
  -26.4524  -13.0224   20.2062 C   0  0  0  0  0  0  0  0  0  0  0  0
  -28.6508  -12.1679   19.2344 C   0  0  0  0  0  0  0  0  0  0  0  0
  -18.3942  -27.0308   23.8157 C   0  0  0  0  0  0  0  0  0  0  0  0
  -26.1163  -24.5482   23.2075 C   0  0  0  0  0  0  0  0  0  0  0  0
  -19.2297  -25.9850   23.3793 C   0  0  0  0  0  0  0  0  0  0  0  0
  -26.7797  -25.4233   22.3318 C   0  0  0  0  0  0  0  0  0  0  0  0
  -23.6801  -13.0170   20.5172 C   0  0  0  0  0  0  0  0  0  0  0  0
  -28.9073  -24.5444   23.0694 C   0  0  0  0  0  0  0  0  0  0  0  0
  -21.7020  -11.7919   20.8469 C   0  0  0  0  0  0  0  0  0  0  0  0
  -20.4420   -9.3285   21.2024 C   0  0  0  0  0  0  0  0  0  0  0  0
  -20.9677  -11.5451   22.0068 C   0  0  0  0  0  0  0  0  0  0  0  0
  -27.8843  -13.0260   20.0454 C   0  0  0  0  0  0  0  0  0  0  0  0
  -29.9472  -12.5770   19.4307 C   0  0  0  0  0  0  0  0  0  0  0  0
  -28.2287  -11.0967   18.3798 C   0  0  0  0  0  0  0  0  0  0  0  0
  -22.7292  -25.8132   22.2058 C   0  0  0  0  0  0  0  0  0  0  0  0
  -24.5723  -28.2579   22.3983 C   0  0  0  0  0  0  0  0  0  0  0  0
  -26.8150  -30.7218   23.1307 C   0  0  0  0  0  0  0  0  0  0  0  0
  -32.3672  -17.7869   21.1191 C   0  0  0  0  0  0  0  0  0  0  0  0
  -18.4363  -28.3978   23.1798 C   0  0  0  0  0  0  0  0  0  0  0  0
  -24.6117  -24.5345   23.1996 C   0  0  0  0  0  0  0  0  0  0  0  0
  -25.9423  -26.3286   21.4703 C   0  0  0  0  0  0  0  0  0  0  0  0
  -19.7087  -28.6574   22.3775 C   0  0  0  0  0  0  0  0  0  0  0  0
  -32.7723  -14.6247   22.7043 C   0  0  0  0  0  0  0  0  0  0  0  0
  -20.0244  -27.4671   21.4773 C   0  0  0  0  0  0  0  0  0  0  0  0
  -31.6347  -13.7790   22.1294 C   0  0  0  0  0  0  0  0  0  0  0  0
  -32.3472  -16.0767   22.9111 C   0  0  0  0  0  0  0  0  0  0  0  0
  -30.6406  -15.8857   21.1434 C   0  0  0  0  0  0  0  0  0  0  0  0
  -20.2733  -26.2003   22.3047 C   0  0  1  0  0  0  0  0  0  0  0  0
  -23.9966  -25.9313   23.0003 C   0  0  1  0  0  0  0  0  0  0  0  0
  -31.0386  -14.4261   20.8649 C   0  0  2  0  0  0  0  0  0  0  0  0
  -27.0613  -33.2191   23.1502 C   0  0  0  0  0  0  0  0  0  0  0  0
  -33.2131  -24.3186   22.9258 C   0  0  0  0  0  0  0  0  0  0  0  0
  -32.1122  -23.2317   24.8902 C   0  0  0  0  0  0  0  0  0  0  0  0
  -29.8579  -23.3654   18.8864 C   0  0  0  0  0  0  0  0  0  0  0  0
  -27.8419  -21.1448   20.2526 C   0  0  0  0  0  0  0  0  0  0  0  0
  -24.8656  -28.2490   19.3623 C   0  0  0  0  0  0  0  0  0  0  0  0
  -26.0151  -30.4662   19.5378 C   0  0  0  0  0  0  0  0  0  0  0  0
  -23.6478  -30.2278   20.2872 C   0  0  0  0  0  0  0  0  0  0  0  0
  -27.3064  -30.7667   26.0488 C   0  0  0  0  0  0  0  0  0  0  0  0
  -29.7022  -20.8114   18.0936 C   0  0  0  0  0  0  0  0  0  0  0  0
  -31.0254  -23.2756   21.1036 C   0  0  0  0  0  0  0  0  0  0  0  0
  -32.2687  -19.4160   19.2495 C   0  0  0  0  0  0  0  0  0  0  0  0
  -31.5836  -20.6855   19.7200 C   0  0  0  0  0  0  0  0  0  0  0  0
  -25.4965  -29.2053   21.6760 C   0  0  1  0  0  0  0  0  0  0  0  0
  -26.6868  -31.9871   23.9594 C   0  0  2  0  0  0  0  0  0  0  0  0
  -32.2590  -23.2010   23.3676 C   0  0  0  0  0  0  0  0  0  0  0  0
  -29.7248  -22.9008   20.3452 C   0  0  2  0  0  0  0  0  0  0  0  0
  -29.3265  -21.4111   20.4813 C   0  0  2  0  0  0  0  0  0  0  0  0
  -30.8997  -23.3193   22.6367 C   0  0  1  0  0  0  0  0  0  1  0  0
  -25.0162  -29.5145   20.2300 C   0  0  0  0  0  0  0  0  0  0  0  0
  -28.6314  -13.9132   20.7078 N   0  0  0  0  0  0  0  0  0  0  0  0
  -29.8809  -13.6147   20.3133 N   0  0  0  0  0  0  0  0  0  0  0  0
  -24.8345  -26.8895   22.2594 N   0  0  0  0  0  0  0  0  0  0  0  0
  -31.7922  -16.6319   21.6743 N   0  0  0  0  0  0  0  0  0  0  0  0
  -31.1259  -12.1467   18.9328 N   0  0  0  0  0  0  0  0  0  0  0  0
  -26.8595  -10.8098   18.2947 N   0  0  0  0  0  0  0  0  0  0  0  0
  -21.5991  -26.2277   22.8844 N   0  0  0  0  0  0  0  0  0  0  0  0
  -25.6219  -30.3825   22.5286 N   0  0  0  0  0  0  0  0  0  0  0  0
  -31.7847  -18.2431   19.9430 N   0  0  0  0  0  0  0  0  0  0  0  0
  -27.5791  -31.9185   25.1511 N   0  3  0  0  0  0  0  0  0  0  0  0
  -30.0945  -20.5627   19.5268 N   0  3  1  0  0  0  0  0  0  0  0  0
  -29.0432  -10.4037   17.7242 O   0  0  0  0  0  0  0  0  0  0  0  0
  -22.7722  -25.3795   21.0605 O   0  0  0  0  0  0  0  0  0  0  0  0
  -23.6390  -28.7157   23.0637 O   0  0  0  0  0  0  0  0  0  0  0  0
  -27.8692  -30.0989   23.0247 O   0  0  0  0  0  0  0  0  0  0  0  0
  -33.3319  -18.3655   21.6307 O   0  0  0  0  0  0  0  0  0  0  0  0
  -22.3274  -13.0145   20.6685 O   0  0  0  0  0  0  0  0  0  0  0  0
  -30.2746  -24.5474   23.0141 O   0  0  0  0  0  0  0  0  0  1  0  0
  -19.8357   -8.1462   21.3723 F   0  0  0  0  0  0  0  0  0  0  0  0
  -20.8629  -12.4879   22.9533 F   0  0  0  0  0  0  0  0  0  0  0  0
  1  2  1  0  0  0  0
  1  5  2  0  0  0  0
  2  6  2  0  0  0  0
  3  8  2  0  0  0  0
  3 15  1  0  0  0  0
  4  9  1  0  0  0  0
  4 15  2  0  0  0  0
  5 17  1  0  0  0  0
  6 19  1  0  0  0  0
  7 10  2  0  0  0  0
  7 18  1  0  0  0  0
  8 21  1  0  0  0  0
  9 21  2  0  0  0  0
 10 22  1  0  0  0  0
 11 12  2  0  0  0  0
 11 23  1  0  0  0  0
 12 24  1  0  0  0  0
 13 20  1  0  0  0  0
 13 22  2  0  0  0  0
 14 24  2  0  0  0  0
 14 25  1  0  0  0  0
 15 26  1  0  0  0  0
 16 26  1  0  0  0  0
 16 27  2  0  0  0  0
 16 28  1  0  0  0  0
 17 19  2  0  0  0  0
 17 33  1  0  0  0  0
 18 20  2  0  0  0  0
 18 34  1  0  0  0  0
 19 42  1  0  0  0  0
 20 35  1  0  0  0  0
 21 81  1  0  0  0  0
 22 82  1  0  0  0  0
 23 25  2  0  0  0  0
 23 81  1  0  0  0  0
 24 83  1  0  0  0  0
 25 84  1  0  0  0  0
 26 65  2  0  0  0  0
 27 66  1  0  0  0  0
 27 69  1  0  0  0  0
 28 70  1  0  0  0  0
 28 76  2  0  0  0  0
 29 43  1  0  0  0  0
 29 71  1  0  0  0  0
 29 77  2  0  0  0  0
 30 58  1  0  0  0  0
 30 67  1  0  0  0  0
 30 78  2  0  0  0  0
 31 59  1  0  0  0  0
 31 72  1  0  0  0  0
 31 79  2  0  0  0  0
 32 68  1  0  0  0  0
 32 73  1  0  0  0  0
 32 80  2  0  0  0  0
 33 36  1  0  0  0  0
 34 43  1  0  0  0  0
 35 67  1  0  0  0  0
 36 38  1  0  0  0  0
 37 39  1  0  0  0  0
 37 40  1  0  0  0  0
 38 42  1  0  0  0  0
 39 44  1  0  0  0  0
 40 68  1  0  0  0  0
 41 44  1  0  0  0  0
 41 68  1  0  0  0  0
 42 71  1  0  0  0  0
 43 67  1  0  0  0  0
 44 66  1  0  0  0  0
 45 59  1  0  0  0  0
 46 60  1  0  0  0  0
 47 60  1  0  0  0  0
 48 61  1  0  0  0  0
 49 62  1  0  0  0  0
 50 64  1  0  0  0  0
 51 64  1  0  0  0  0
 52 64  1  0  0  0  0
 53 74  1  0  0  0  0
 54 75  1  0  0  0  0
 55 61  1  0  0  0  0
 55 63  1  0  0  0  0
 56 57  1  0  0  0  0
 56 73  1  0  0  0  0
 57 75  1  0  0  0  0
 58 64  1  0  0  0  0
 58 72  1  0  0  0  0
 59 74  1  0  0  0  0
 60 63  1  0  0  0  0
 61 62  1  0  0  0  0
 62 75  1  0  0  0  0
 63 82  1  0  0  0  0
 65 66  1  0  0  0  0
M  CHG  2  74   1  75   1
M  ISO  4  32 100  63 101  73 100  82 101
M  END
> <Batch ID>
0106

> <Smiles>
CNC(C)C(=O)NC(C(=O)N1Cc2cc([101O:1][101CH:1](CC(C)C(C)N(C)CC[100NH:0][100C:0](=O)N3CCCC(n4nc(-c5ccc(Oc6ccc(F)cc6F)cc5)c(C(N)=O)c4N)C3)C(C)C)ccc2CC1C(=O)NC1CCCc2ccccc21)C(C)(C)C

> <Shape>
0.279

> <Color>
0.064

> <Negative vol penalty>
0.000

$$$$

  -OEChem-04052319483D

 82 90  0     1  0  0  0  0  0999 V2000
  -25.5671   -8.5838   23.8115 C   0  0  0  0  0  0  0  0  0  0  0  0
  -26.5603   -9.4934   23.4628 C   0  0  0  0  0  0  0  0  0  0  0  0
  -21.3708  -27.9909   19.5565 C   0  0  0  0  0  0  0  0  0  0  0  0
  -21.7043  -26.4880   21.4185 C   0  0  0  0  0  0  0  0  0  0  0  0
  -24.2900   -8.7046   23.2654 C   0  0  0  0  0  0  0  0  0  0  0  0
  -26.2772  -10.5237   22.5669 C   0  0  0  0  0  0  0  0  0  0  0  0
  -28.5731  -16.2008   22.6405 C   0  0  0  0  0  0  0  0  0  0  0  0
  -20.0916  -27.4691   19.3644 C   0  0  0  0  0  0  0  0  0  0  0  0
  -20.4251  -25.9662   21.2264 C   0  0  0  0  0  0  0  0  0  0  0  0
  -29.6136  -16.8010   21.9328 C   0  0  0  0  0  0  0  0  0  0  0  0
  -17.2423  -26.8542   21.9349 C   0  0  0  0  0  0  0  0  0  0  0  0
  -16.4428  -26.6706   23.0630 C   0  0  0  0  0  0  0  0  0  0  0  0
  -28.0233  -17.6603   20.3354 C   0  0  0  0  0  0  0  0  0  0  0  0
  -30.2421  -21.0208   22.7044 C   0  0  0  0  0  0  0  0  0  0  0  0
  -28.9262  -23.0399   22.8736 C   0  0  0  0  0  0  0  0  0  0  0  0
  -30.3782  -22.7000   20.9727 C   0  0  0  0  0  0  0  0  0  0  0  0
  -16.3106  -24.3061   22.5846 C   0  0  0  0  0  0  0  0  0  0  0  0
  -22.1772  -27.5003   20.5836 C   0  0  0  0  0  0  0  0  0  0  0  0
  -23.8594  -29.1282   21.5973 C   0  0  0  0  0  0  0  0  0  0  0  0
  -23.9884   -9.7426   22.3698 C   0  0  0  0  0  0  0  0  0  0  0  0
  -27.2488  -16.3169   22.1942 C   0  0  0  0  0  0  0  0  0  0  0  0
  -24.9952  -10.6577   22.0073 C   0  0  0  0  0  0  0  0  0  0  0  0
  -26.9675  -17.0627   21.0407 C   0  0  0  0  0  0  0  0  0  0  0  0
  -29.3195  -21.8071   23.3945 C   0  0  0  0  0  0  0  0  0  0  0  0
  -30.7715  -21.4672   21.4936 C   0  0  0  0  0  0  0  0  0  0  0  0
  -29.4556  -23.4863   21.6627 C   0  0  0  0  0  0  0  0  0  0  0  0
  -19.6187  -26.4567   20.1994 C   0  0  0  0  0  0  0  0  0  0  0  0
  -29.3391  -17.5285   20.7784 C   0  0  0  0  0  0  0  0  0  0  0  0
  -17.5759  -25.7637   21.1316 C   0  0  0  0  0  0  0  0  0  0  0  0
  -15.9770  -25.3966   23.3879 C   0  0  0  0  0  0  0  0  0  0  0  0
  -17.1101  -24.4897   21.4565 C   0  0  0  0  0  0  0  0  0  0  0  0
  -23.4989  -28.0386   20.7821 C   0  0  0  0  0  0  0  0  0  0  0  0
  -25.2198  -29.2373   21.4428 C   0  0  0  0  0  0  0  0  0  0  0  0
  -23.0381  -29.9667   22.4207 C   0  0  0  0  0  0  0  0  0  0  0  0
  -25.0220  -14.2680   21.2211 C   0  0  0  0  0  0  0  0  0  0  0  0
  -23.1489  -16.9163   21.1996 C   0  0  0  0  0  0  0  0  0  0  0  0
  -22.5317  -20.4135   20.5628 C   0  0  0  0  0  0  0  0  0  0  0  0
  -29.4846  -25.3291   19.9452 C   0  0  0  0  0  0  0  0  0  0  0  0
  -22.6064   -9.8045   21.7690 C   0  0  0  0  0  0  0  0  0  0  0  0
  -26.1349  -15.6858   22.9838 C   0  0  0  0  0  0  0  0  0  0  0  0
  -25.5607  -17.2344   20.5308 C   0  0  0  0  0  0  0  0  0  0  0  0
  -22.2857  -11.1466   21.1160 C   0  0  0  0  0  0  0  0  0  0  0  0
  -28.7101  -28.3784   18.2782 C   0  0  0  0  0  0  0  0  0  0  0  0
  -23.4435  -11.6008   20.2329 C   0  0  0  0  0  0  0  0  0  0  0  0
  -27.3212  -28.7396   18.8099 C   0  0  0  0  0  0  0  0  0  0  0  0
  -28.8726  -26.8705   18.0947 C   0  0  0  0  0  0  0  0  0  0  0  0
  -27.1612  -26.4240   19.8096 C   0  0  0  0  0  0  0  0  0  0  0  0
  -24.7201  -11.8036   21.0579 C   0  0  1  0  0  0  0  0  0  0  0  0
  -24.8796  -15.4380   22.1530 C   0  0  1  0  0  0  0  0  0  0  0  0
  -26.9721  -27.9270   20.0722 C   0  0  2  0  0  0  0  0  0  0  0  0
  -28.7537  -21.3297   24.6892 C   0  0  0  0  0  0  0  0  0  0  0  0
  -33.1275  -21.3288   20.6450 C   0  0  0  0  0  0  0  0  0  0  0  0
  -20.4928  -21.8139   20.9861 C   0  0  0  0  0  0  0  0  0  0  0  0
  -22.4384  -16.2377   18.3109 C   0  0  0  0  0  0  0  0  0  0  0  0
  -21.5754  -18.5731   18.0479 C   0  0  0  0  0  0  0  0  0  0  0  0
  -20.5159  -17.0324   19.6990 C   0  0  0  0  0  0  0  0  0  0  0  0
  -24.0688  -22.3766   22.1573 C   0  0  0  0  0  0  0  0  0  0  0  0
  -31.2881  -20.1962   19.3406 C   0  0  0  0  0  0  0  0  0  0  0  0
  -30.0449  -19.3121   19.3726 C   0  0  0  0  0  0  0  0  0  1  0  0
  -31.7760  -20.6108   20.7422 C   0  0  2  0  0  0  0  0  0  0  0  0
  -22.8104  -17.9781   20.1814 C   0  0  1  0  0  0  0  0  0  0  0  0
  -21.8642  -21.4039   21.4998 C   0  0  2  0  0  0  0  0  0  0  0  0
  -21.8618  -17.4507   19.0681 C   0  0  0  0  0  0  0  0  0  0  0  0
  -24.5458  -27.4944   20.1561 N   0  0  0  0  0  0  0  0  0  0  0  0
  -25.5775  -28.2452   20.5779 N   0  0  0  0  0  0  0  0  0  0  0  0
  -24.5066  -16.5932   21.3341 N   0  0  0  0  0  0  0  0  0  0  0  0
  -28.5288  -26.1665   19.3320 N   0  0  0  0  0  0  0  0  0  0  0  0
  -26.1330  -30.0841   21.9637 N   0  0  0  0  0  0  0  0  0  0  0  0
  -21.6598  -29.7162   22.4643 N   0  0  0  0  0  0  0  0  0  0  0  0
  -29.0560  -24.7386   21.1336 N   0  0  0  0  0  0  0  0  0  0  0  0
  -24.6616  -13.0566   21.7798 N   0  0  0  0  0  0  0  0  0  0  0  0
  -22.2785  -19.1097   20.9330 N   0  0  0  0  0  0  0  0  0  0  0  0
  -22.7000  -22.6300   21.6385 N   0  3  0  0  0  0  0  0  0  0  0  0
  -23.5100  -30.9205   23.0848 O   0  0  0  0  0  0  0  0  0  0  0  0
  -25.4274  -14.4509   20.0792 O   0  0  0  0  0  0  0  0  0  0  0  0
  -22.2428  -16.3979   21.8568 O   0  0  0  0  0  0  0  0  0  0  0  0
  -23.2070  -20.7617   19.5967 O   0  0  0  0  0  0  0  0  0  0  0  0
  -30.6106  -25.1704   19.4667 O   0  0  0  0  0  0  0  0  0  0  0  0
  -18.3704  -25.9475   20.0124 O   0  0  0  0  0  0  0  0  0  0  0  0
  -30.3528  -18.1149   20.0854 O   0  0  0  0  0  0  0  0  0  1  0  0
  -15.2105  -25.2202   24.4722 F   0  0  0  0  0  0  0  0  0  0  0  0
  -17.4283  -23.4381   20.6892 F   0  0  0  0  0  0  0  0  0  0  0  0
  1  2  1  0  0  0  0
  1  5  2  0  0  0  0
  2  6  2  0  0  0  0
  3  8  2  0  0  0  0
  3 18  1  0  0  0  0
  4  9  1  0  0  0  0
  4 18  2  0  0  0  0
  5 20  1  0  0  0  0
  6 22  1  0  0  0  0
  7 10  2  0  0  0  0
  7 21  1  0  0  0  0
  8 27  1  0  0  0  0
  9 27  2  0  0  0  0
 10 28  1  0  0  0  0
 11 12  2  0  0  0  0
 11 29  1  0  0  0  0
 12 30  1  0  0  0  0
 13 23  1  0  0  0  0
 13 28  2  0  0  0  0
 14 24  2  0  0  0  0
 14 25  1  0  0  0  0
 15 24  1  0  0  0  0
 15 26  2  0  0  0  0
 16 25  2  0  0  0  0
 16 26  1  0  0  0  0
 17 30  2  0  0  0  0
 17 31  1  0  0  0  0
 18 32  1  0  0  0  0
 19 32  1  0  0  0  0
 19 33  2  0  0  0  0
 19 34  1  0  0  0  0
 20 22  2  0  0  0  0
 20 39  1  0  0  0  0
 21 23  2  0  0  0  0
 21 40  1  0  0  0  0
 22 48  1  0  0  0  0
 23 41  1  0  0  0  0
 24 51  1  0  0  0  0
 25 60  1  0  0  0  0
 26 70  1  0  0  0  0
 27 79  1  0  0  0  0
 28 80  1  0  0  0  0
 29 31  2  0  0  0  0
 29 79  1  0  0  0  0
 30 81  1  0  0  0  0
 31 82  1  0  0  0  0
 32 64  2  0  0  0  0
 33 65  1  0  0  0  0
 33 68  1  0  0  0  0
 34 69  1  0  0  0  0
 34 74  2  0  0  0  0
 35 49  1  0  0  0  0
 35 71  1  0  0  0  0
 35 75  2  0  0  0  0
 36 61  1  0  0  0  0
 36 66  1  0  0  0  0
 36 76  2  0  0  0  0
 37 62  1  0  0  0  0
 37 72  1  0  0  0  0
 37 77  2  0  0  0  0
 38 67  1  0  0  0  0
 38 70  1  0  0  0  0
 38 78  2  0  0  0  0
 39 42  1  0  0  0  0
 40 49  1  0  0  0  0
 41 66  1  0  0  0  0
 42 44  1  0  0  0  0
 43 45  1  0  0  0  0
 43 46  1  0  0  0  0
 44 48  1  0  0  0  0
 45 50  1  0  0  0  0
 46 67  1  0  0  0  0
 47 50  1  0  0  0  0
 47 67  1  0  0  0  0
 48 71  1  0  0  0  0
 49 66  1  0  0  0  0
 50 65  1  0  0  0  0
 52 60  1  0  0  0  0
 53 62  1  0  0  0  0
 54 63  1  0  0  0  0
 55 63  1  0  0  0  0
 56 63  1  0  0  0  0
 57 73  1  0  0  0  0
 58 59  1  0  0  0  0
 58 60  1  0  0  0  0
 59 80  1  0  0  0  0
 61 63  1  0  0  0  0
 61 72  1  0  0  0  0
 62 73  1  0  0  0  0
 64 65  1  0  0  0  0
M  CHG  1  73   1
M  ISO  4  38 100  59 101  70 100  80 101
M  END
> <Batch ID>
0106

> <Smiles>
CNC(C)C(=O)NC(C(=O)N1Cc2cc([101O:1][101CH2:1]CC(C)c3cc(C)cc([100NH:0][100C:0](=O)N4CCCC(n5nc(-c6ccc(Oc7ccc(F)cc7F)cc6)c(C(N)=O)c5N)C4)c3)ccc2CC1C(=O)NC1CCCc2ccccc21)C(C)(C)C

> <Shape>
0.204

> <Color>
0.067

> <Negative vol penalty>
0.000

$$$$

  -OEChem-04052319483D

 89 97  0     1  0  0  0  0  0999 V2000
  -29.3602  -33.9606   20.5737 C   0  0  0  0  0  0  0  0  0  0  0  0
  -28.8629  -32.9735   21.4185 C   0  0  0  0  0  0  0  0  0  0  0  0
  -22.9402  -10.0288   19.9170 C   0  0  0  0  0  0  0  0  0  0  0  0
  -23.7974   -9.7999   22.1642 C   0  0  0  0  0  0  0  0  0  0  0  0
  -29.5842  -33.6763   19.2272 C   0  0  0  0  0  0  0  0  0  0  0  0
  -28.5882  -31.7017   20.9170 C   0  0  0  0  0  0  0  0  0  0  0  0
  -28.6431  -24.8051   22.8536 C   0  0  0  0  0  0  0  0  0  0  0  0
  -22.1535   -8.8918   20.1012 C   0  0  0  0  0  0  0  0  0  0  0  0
  -23.0106   -8.6629   22.3484 C   0  0  0  0  0  0  0  0  0  0  0  0
  -27.8136  -23.6847   22.8712 C   0  0  0  0  0  0  0  0  0  0  0  0
  -21.5002   -5.4931   23.2872 C   0  0  0  0  0  0  0  0  0  0  0  0
  -22.0949   -4.3835   23.8876 C   0  0  0  0  0  0  0  0  0  0  0  0
  -28.3142  -23.2852   20.5455 C   0  0  0  0  0  0  0  0  0  0  0  0
  -23.7137   -4.2823   22.0970 C   0  0  0  0  0  0  0  0  0  0  0  0
  -28.7695  -18.7866   22.2551 C   0  0  0  0  0  0  0  0  0  0  0  0
  -23.7622  -10.4828   20.9485 C   0  0  0  0  0  0  0  0  0  0  0  0
  -24.2188  -12.9913   21.0308 C   0  0  0  0  0  0  0  0  0  0  0  0
  -29.3212  -32.3976   18.7111 C   0  0  0  0  0  0  0  0  0  0  0  0
  -29.3069  -25.1809   21.6770 C   0  0  0  0  0  0  0  0  0  0  0  0
  -28.8075  -31.4004   19.5621 C   0  0  0  0  0  0  0  0  0  0  0  0
  -29.1536  -24.4093   20.5163 C   0  0  0  0  0  0  0  0  0  0  0  0
  -27.4589  -18.9676   21.8719 C   0  0  0  0  0  0  0  0  0  0  0  0
  -27.3116  -18.3949   20.5845 C   0  0  0  0  0  0  0  0  0  0  0  0
  -22.1887   -8.2089   21.3169 C   0  0  0  0  0  0  0  0  0  0  0  0
  -27.6467  -22.9262   21.7162 C   0  0  0  0  0  0  0  0  0  0  0  0
  -22.0121   -5.9973   22.0916 C   0  0  0  0  0  0  0  0  0  0  0  0
  -23.2017   -3.7781   23.2926 C   0  0  0  0  0  0  0  0  0  0  0  0
  -23.1189   -5.3919   21.4965 C   0  0  0  0  0  0  0  0  0  0  0  0
  -24.5755  -11.6569   20.7586 C   0  0  0  0  0  0  0  0  0  0  0  0
  -28.5367  -17.8811   20.2203 C   0  0  0  0  0  0  0  0  0  0  0  0
  -25.3289  -13.7213   20.6827 C   0  0  0  0  0  0  0  0  0  0  0  0
  -22.9936  -13.5233   21.5519 C   0  0  0  0  0  0  0  0  0  0  0  0
  -29.2560  -27.7400   19.7922 C   0  0  0  0  0  0  0  0  0  0  0  0
  -31.7023  -26.2127   18.3072 C   0  0  0  0  0  0  0  0  0  0  0  0
  -33.2890  -23.2709   17.6180 C   0  0  0  0  0  0  0  0  0  0  0  0
  -30.8581  -14.4783   20.7005 C   0  0  0  0  0  0  0  0  0  0  0  0
  -29.5344  -32.1512   17.2385 C   0  0  0  0  0  0  0  0  0  0  0  0
  -30.2192  -26.3768   21.6817 C   0  0  0  0  0  0  0  0  0  0  0  0
  -29.8600  -24.7586   19.2328 C   0  0  0  0  0  0  0  0  0  0  0  0
  -29.5711  -30.6708   16.8677 C   0  0  0  0  0  0  0  0  0  0  0  0
  -29.5064  -12.3661   18.1730 C   0  0  0  0  0  0  0  0  0  0  0  0
  -28.4184  -29.9252   17.5327 C   0  0  0  0  0  0  0  0  0  0  0  0
  -28.0765  -12.0986   18.6460 C   0  0  0  0  0  0  0  0  0  0  0  0
  -30.4838  -12.4396   19.3440 C   0  0  0  0  0  0  0  0  0  0  0  0
  -28.6805  -13.1280   20.8763 C   0  0  0  0  0  0  0  0  0  0  0  0
  -28.5206  -30.0016   19.0609 C   0  0  1  0  0  0  0  0  0  0  0  0
  -30.4419  -26.9639   20.2913 C   0  0  1  0  0  0  0  0  0  0  0  0
  -27.6494  -13.1010   19.7351 C   0  0  2  0  0  0  0  0  0  0  0  0
  -26.0737  -18.3547   19.7789 C   0  0  0  0  0  0  0  0  0  0  0  0
  -26.1141  -18.9077   23.9978 C   0  0  0  0  0  0  0  0  0  0  0  0
  -35.2397  -22.3358   16.3461 C   0  0  0  0  0  0  0  0  0  0  0  0
  -31.5028  -17.4324   14.6457 C   0  0  0  0  0  0  0  0  0  0  0  0
  -30.0789  -19.3351   15.4178 C   0  0  0  0  0  0  0  0  0  0  0  0
  -32.2327  -18.8440   16.5857 C   0  0  0  0  0  0  0  0  0  0  0  0
  -30.1475  -26.5218   15.7002 C   0  0  0  0  0  0  0  0  0  0  0  0
  -31.6392  -24.7856   14.6859 C   0  0  0  0  0  0  0  0  0  0  0  0
  -32.6062  -26.9348   15.5037 C   0  0  0  0  0  0  0  0  0  0  0  0
  -34.5509  -22.2352   20.0866 C   0  0  0  0  0  0  0  0  0  0  0  0
  -28.9477  -17.1784   18.9864 C   0  0  0  0  0  0  0  0  0  0  0  0
  -30.8118  -17.7495   21.2697 C   0  0  0  0  0  0  0  0  0  0  0  0
  -31.0797  -16.5062   22.1138 C   0  0  0  0  0  0  0  0  0  0  0  0
  -30.2277  -17.2972   16.8448 C   0  0  0  0  0  0  0  0  0  0  0  0
  -26.7181  -21.1285   22.9660 C   0  0  0  0  0  0  0  0  0  1  0  0
  -26.3780  -19.6577   22.6891 C   0  0  1  0  0  0  0  0  0  0  0  0
  -31.8127  -25.2157   17.1791 C   0  0  1  0  0  0  0  0  0  0  0  0
  -34.7539  -22.8776   17.6814 C   0  0  2  0  0  0  0  0  0  0  0  0
  -31.0205  -18.2079   15.8836 C   0  0  0  0  0  0  0  0  0  0  0  0
  -31.5364  -25.8587   15.7907 C   0  0  0  0  0  0  0  0  0  0  0  0
  -25.8152  -11.5431   20.2747 N   0  0  0  0  0  0  0  0  0  0  0  0
  -29.4151  -18.1247   21.2436 N   0  0  0  0  0  0  0  0  0  0  0  0
  -26.2472  -12.8152   20.2400 N   0  0  0  0  0  0  0  0  0  0  0  0
  -30.7362  -25.9405   19.2861 N   0  0  0  0  0  0  0  0  0  0  0  0
  -30.0216  -13.4090   20.3403 N   0  0  0  0  0  0  0  0  0  0  0  0
  -25.5994  -15.0435   20.7150 N   0  0  0  0  0  0  0  0  0  0  0  0
  -21.9548  -12.6331   21.8566 N   0  0  0  0  0  0  0  0  0  0  0  0
  -29.5193  -29.0743   19.5477 N   0  0  0  0  0  0  0  0  0  0  0  0
  -33.1313  -24.6039   17.3025 N   0  0  0  0  0  0  0  0  0  0  0  0
  -30.3408  -15.3545   21.6467 N   0  0  0  0  0  0  0  0  0  0  0  0
  -34.9641  -21.8285   18.7188 N   0  3  0  0  0  0  0  0  0  0  0  0
  -29.7654  -18.0163   18.0578 N   0  3  0  0  0  0  0  0  0  0  0  0
  -22.8191  -14.7532   21.7262 O   0  0  0  0  0  0  0  0  0  0  0  0
  -28.1820  -27.1701   19.6389 O   0  0  0  0  0  0  0  0  0  0  0  0
  -32.4509  -27.1930   18.3232 O   0  0  0  0  0  0  0  0  0  0  0  0
  -32.3760  -22.4744   17.8239 O   0  0  0  0  0  0  0  0  0  0  0  0
  -31.9806  -14.6432   20.2108 O   0  0  0  0  0  0  0  0  0  0  0  0
  -21.4210   -7.0995   21.4971 O   0  0  0  0  0  0  0  0  0  0  0  0
  -26.8372  -21.8325   21.7304 O   0  0  0  0  0  0  0  0  0  1  0  0
  -23.7738   -2.7135   23.8701 F   0  0  0  0  0  0  0  0  0  0  0  0
  -23.6159   -5.8725   20.3485 F   0  0  0  0  0  0  0  0  0  0  0  0
  1  2  1  0  0  0  0
  1  5  2  0  0  0  0
  2  6  2  0  0  0  0
  3  8  2  0  0  0  0
  3 16  1  0  0  0  0
  4  9  1  0  0  0  0
  4 16  2  0  0  0  0
  5 18  1  0  0  0  0
  6 20  1  0  0  0  0
  7 10  2  0  0  0  0
  7 19  1  0  0  0  0
  8 24  1  0  0  0  0
  9 24  2  0  0  0  0
 10 25  1  0  0  0  0
 11 12  2  0  0  0  0
 11 26  1  0  0  0  0
 12 27  1  0  0  0  0
 13 21  1  0  0  0  0
 13 25  2  0  0  0  0
 14 27  2  0  0  0  0
 14 28  1  0  0  0  0
 15 22  2  0  0  0  0
 15 70  1  0  0  0  0
 16 29  1  0  0  0  0
 17 29  1  0  0  0  0
 17 31  2  0  0  0  0
 17 32  1  0  0  0  0
 18 20  2  0  0  0  0
 18 37  1  0  0  0  0
 19 21  2  0  0  0  0
 19 38  1  0  0  0  0
 20 46  1  0  0  0  0
 21 39  1  0  0  0  0
 22 23  1  0  0  0  0
 22 64  1  0  0  0  0
 23 30  2  0  0  0  0
 23 49  1  0  0  0  0
 24 86  1  0  0  0  0
 25 87  1  0  0  0  0
 26 28  2  0  0  0  0
 26 86  1  0  0  0  0
 27 88  1  0  0  0  0
 28 89  1  0  0  0  0
 29 69  2  0  0  0  0
 30 59  1  0  0  0  0
 30 70  1  0  0  0  0
 31 71  1  0  0  0  0
 31 74  1  0  0  0  0
 32 75  1  0  0  0  0
 32 81  2  0  0  0  0
 33 47  1  0  0  0  0
 33 76  1  0  0  0  0
 33 82  2  0  0  0  0
 34 65  1  0  0  0  0
 34 72  1  0  0  0  0
 34 83  2  0  0  0  0
 35 66  1  0  0  0  0
 35 77  1  0  0  0  0
 35 84  2  0  0  0  0
 36 73  1  0  0  0  0
 36 78  1  0  0  0  0
 36 85  2  0  0  0  0
 37 40  1  0  0  0  0
 38 47  1  0  0  0  0
 39 72  1  0  0  0  0
 40 42  1  0  0  0  0
 41 43  1  0  0  0  0
 41 44  1  0  0  0  0
 42 46  1  0  0  0  0
 43 48  1  0  0  0  0
 44 73  1  0  0  0  0
 45 48  1  0  0  0  0
 45 73  1  0  0  0  0
 46 76  1  0  0  0  0
 47 72  1  0  0  0  0
 48 71  1  0  0  0  0
 50 64  1  0  0  0  0
 51 66  1  0  0  0  0
 52 67  1  0  0  0  0
 53 67  1  0  0  0  0
 54 67  1  0  0  0  0
 55 68  1  0  0  0  0
 56 68  1  0  0  0  0
 57 68  1  0  0  0  0
 58 79  1  0  0  0  0
 59 80  1  0  0  0  0
 60 61  1  0  0  0  0
 60 70  1  0  0  0  0
 61 78  1  0  0  0  0
 62 67  1  0  0  0  0
 62 80  1  0  0  0  0
 63 64  1  0  0  0  0
 63 87  1  0  0  0  0
 65 68  1  0  0  0  0
 65 77  1  0  0  0  0
 66 79  1  0  0  0  0
 69 71  1  0  0  0  0
M  CHG  2  79   1  80   1
M  ISO  4  36 100  63 101  78 100  87 101
M  END
> <Batch ID>
0106

> <Smiles>
CNC(C)C(=O)NC(C(=O)N1Cc2cc([101O:1][101CH2:1]C(C)c3cn(CC[100NH:0][100C:0](=O)N4CCCC(n5nc(-c6ccc(Oc7ccc(F)cc7F)cc6)c(C(N)=O)c5N)C4)c(CNCC(C)(C)C)c3C)ccc2CC1C(=O)NC1CCCc2ccccc21)C(C)(C)C

> <Shape>
0.271

> <Color>
0.194

> <Negative vol penalty>
0.000

$$$$

  -OEChem-04052319483D

 83 91  0     1  0  0  0  0  0999 V2000
  -17.8672  -27.2377   22.7338 C   0  0  0  0  0  0  0  0  0  0  0  0
  -18.7426  -26.2008   23.0403 C   0  0  0  0  0  0  0  0  0  0  0  0
  -22.5835  -10.3245   20.2713 C   0  0  0  0  0  0  0  0  0  0  0  0
  -24.3596   -9.4446   21.6527 C   0  0  0  0  0  0  0  0  0  0  0  0
  -18.3557  -28.4201   22.1796 C   0  0  0  0  0  0  0  0  0  0  0  0
  -20.1070  -26.3454   22.7918 C   0  0  0  0  0  0  0  0  0  0  0  0
  -24.7166  -24.0655   26.1176 C   0  0  0  0  0  0  0  0  0  0  0  0
  -21.8518   -9.1531   20.4658 C   0  0  0  0  0  0  0  0  0  0  0  0
  -23.6278   -8.2732   21.8473 C   0  0  0  0  0  0  0  0  0  0  0  0
  -25.5112  -22.9302   25.9651 C   0  0  0  0  0  0  0  0  0  0  0  0
  -21.0317   -7.2474   23.7521 C   0  0  0  0  0  0  0  0  0  0  0  0
  -20.9589   -6.7384   25.0487 C   0  0  0  0  0  0  0  0  0  0  0  0
  -27.1988  -24.2651   24.8747 C   0  0  0  0  0  0  0  0  0  0  0  0
  -21.9985   -4.6890   24.3026 C   0  0  0  0  0  0  0  0  0  0  0  0
  -23.8374  -10.4703   20.8647 C   0  0  0  0  0  0  0  0  0  0  0  0
  -24.2110  -12.9897   21.0095 C   0  0  0  0  0  0  0  0  0  0  0  0
  -19.7281  -28.5829   21.9332 C   0  0  0  0  0  0  0  0  0  0  0  0
  -25.1531  -25.3093   25.6391 C   0  0  0  0  0  0  0  0  0  0  0  0
  -20.6143  -27.5306   22.2326 C   0  0  0  0  0  0  0  0  0  0  0  0
  -26.4090  -25.4152   25.0246 C   0  0  0  0  0  0  0  0  0  0  0  0
  -22.3739   -8.1274   21.2538 C   0  0  0  0  0  0  0  0  0  0  0  0
  -26.7513  -23.0293   25.3411 C   0  0  0  0  0  0  0  0  0  0  0  0
  -21.5878   -6.4772   22.7307 C   0  0  0  0  0  0  0  0  0  0  0  0
  -21.4423   -5.4592   25.3240 C   0  0  0  0  0  0  0  0  0  0  0  0
  -22.0712   -5.1981   23.0059 C   0  0  0  0  0  0  0  0  0  0  0  0
  -24.5941  -11.6799   20.6636 C   0  0  0  0  0  0  0  0  0  0  0  0
  -25.2679  -13.7724   20.6137 C   0  0  0  0  0  0  0  0  0  0  0  0
  -23.0074  -13.4569   21.6330 C   0  0  0  0  0  0  0  0  0  0  0  0
  -24.0928  -27.3758   23.4691 C   0  0  0  0  0  0  0  0  0  0  0  0
  -30.9925  -14.2417   20.7483 C   0  0  0  0  0  0  0  0  0  0  0  0
  -26.5081  -29.2161   24.6101 C   0  0  0  0  0  0  0  0  0  0  0  0
  -29.5233  -29.3796   26.2004 C   0  0  0  0  0  0  0  0  0  0  0  0
  -20.2033  -29.8612   21.2891 C   0  0  0  0  0  0  0  0  0  0  0  0
  -24.2957  -26.5295   25.8352 C   0  0  0  0  0  0  0  0  0  0  0  0
  -26.9324  -26.7310   24.5117 C   0  0  0  0  0  0  0  0  0  0  0  0
  -21.7100  -30.0777   21.4042 C   0  0  0  0  0  0  0  0  0  0  0  0
  -29.4069  -12.3128   18.0245 C   0  0  0  0  0  0  0  0  0  0  0  0
  -22.4620  -28.8009   21.0418 C   0  0  0  0  0  0  0  0  0  0  0  0
  -28.2584  -19.4300   23.9072 C   0  0  0  0  0  0  0  0  0  0  0  0
  -27.5432  -18.2527   26.0306 C   0  0  0  0  0  0  0  0  0  0  0  0
  -27.9057  -12.3454   18.3149 C   0  0  0  0  0  0  0  0  0  0  0  0
  -29.2235  -18.2854   23.5982 C   0  0  0  0  0  0  0  0  0  0  0  0
  -28.5085  -17.1086   25.7209 C   0  0  0  0  0  0  0  0  0  0  0  0
  -30.1312  -13.5478   18.5412 C   0  0  0  0  0  0  0  0  0  0  0  0
  -28.6479  -13.3177   20.5467 C   0  0  0  0  0  0  0  0  0  0  0  0
  -22.1042  -27.6590   22.0007 C   0  0  1  0  0  0  0  0  0  0  0  0
  -24.6165  -27.6497   24.8505 C   0  0  1  0  0  0  0  0  0  0  0  0
  -28.0183  -19.5776   25.4167 C   0  0  0  0  0  0  0  0  0  0  0  0
  -27.5370  -13.2730   19.4863 C   0  0  2  0  0  0  0  0  0  0  0  0
  -28.7339  -16.9790   24.2170 C   0  0  0  0  0  0  0  0  0  0  0  0
  -28.0920  -14.0987   24.0208 C   0  0  0  0  0  0  0  0  0  0  0  0
  -32.0138  -14.1743   23.0113 C   0  0  0  0  0  0  0  0  0  0  0  0
  -31.2660  -31.0200   26.9548 C   0  0  0  0  0  0  0  0  0  0  0  0
  -27.4863  -29.4961   21.7335 C   0  0  0  0  0  0  0  0  0  0  0  0
  -29.6797  -30.3028   22.6315 C   0  0  0  0  0  0  0  0  0  0  0  0
  -27.5966  -31.5992   23.0823 C   0  0  0  0  0  0  0  0  0  0  0  0
  -29.1775  -28.6182   29.0393 C   0  0  0  0  0  0  0  0  0  0  0  0
  -27.0115  -20.6920   25.6953 C   0  0  0  0  0  0  0  0  0  1  0  0
  -29.3835  -14.6094   24.6212 C   0  0  0  0  0  0  0  0  0  0  0  0
  -30.0527  -15.7401   22.5060 C   0  0  0  0  0  0  0  0  0  0  0  0
  -30.7273  -14.3982   22.2258 C   0  0  1  0  0  0  0  0  0  0  0  0
  -27.9673  -29.3973   24.2682 C   0  0  1  0  0  0  0  0  0  0  0  0
  -30.0133  -30.2503   27.3433 C   0  0  2  0  0  0  0  0  0  0  0  0
  -28.1721  -30.1735   22.9367 C   0  0  0  0  0  0  0  0  0  0  0  0
  -25.8001  -11.6295   20.0918 N   0  0  0  0  0  0  0  0  0  0  0  0
  -26.1839  -12.9173   20.0753 N   0  0  0  0  0  0  0  0  0  0  0  0
  -26.0545  -27.8941   24.7213 N   0  0  0  0  0  0  0  0  0  0  0  0
  -29.9455  -13.7211   19.9841 N   0  0  0  0  0  0  0  0  0  0  0  0
  -25.4936  -15.1019   20.6769 N   0  0  0  0  0  0  0  0  0  0  0  0
  -22.0241  -12.5184   21.9747 N   0  0  0  0  0  0  0  0  0  0  0  0
  -22.8008  -27.8187   23.2592 N   0  0  0  0  0  0  0  0  0  0  0  0
  -28.5831  -30.0302   25.4296 N   0  0  0  0  0  0  0  0  0  0  0  0
  -30.3273  -29.4123   28.5350 N   0  3  0  0  0  0  0  0  0  0  0  0
  -29.7488  -15.9203   23.9718 N   0  3  1  0  0  0  0  0  0  0  0  0
  -22.8027  -14.6726   21.8649 O   0  0  0  0  0  0  0  0  0  0  0  0
  -24.8084  -26.8061   22.6536 O   0  0  0  0  0  0  0  0  0  0  0  0
  -32.0874  -14.5741   20.2881 O   0  0  0  0  0  0  0  0  0  0  0  0
  -25.7986  -30.2108   24.7794 O   0  0  0  0  0  0  0  0  0  0  0  0
  -29.9361  -28.2381   26.0082 O   0  0  0  0  0  0  0  0  0  0  0  0
  -21.6600   -6.9843   21.4441 O   0  0  0  0  0  0  0  0  0  0  0  0
  -27.5286  -21.9225   25.1904 O   0  0  0  0  0  0  0  0  0  1  0  0
  -21.3737   -4.9711   26.5695 F   0  0  0  0  0  0  0  0  0  0  0  0
  -22.6076   -4.4539   22.0290 F   0  0  0  0  0  0  0  0  0  0  0  0
  1  2  1  0  0  0  0
  1  5  2  0  0  0  0
  2  6  2  0  0  0  0
  3  8  2  0  0  0  0
  3 15  1  0  0  0  0
  4  9  1  0  0  0  0
  4 15  2  0  0  0  0
  5 17  1  0  0  0  0
  6 19  1  0  0  0  0
  7 10  2  0  0  0  0
  7 18  1  0  0  0  0
  8 21  1  0  0  0  0
  9 21  2  0  0  0  0
 10 22  1  0  0  0  0
 11 12  2  0  0  0  0
 11 23  1  0  0  0  0
 12 24  1  0  0  0  0
 13 20  1  0  0  0  0
 13 22  2  0  0  0  0
 14 24  2  0  0  0  0
 14 25  1  0  0  0  0
 15 26  1  0  0  0  0
 16 26  1  0  0  0  0
 16 27  2  0  0  0  0
 16 28  1  0  0  0  0
 17 19  2  0  0  0  0
 17 33  1  0  0  0  0
 18 20  2  0  0  0  0
 18 34  1  0  0  0  0
 19 46  1  0  0  0  0
 20 35  1  0  0  0  0
 21 80  1  0  0  0  0
 22 81  1  0  0  0  0
 23 25  2  0  0  0  0
 23 80  1  0  0  0  0
 24 82  1  0  0  0  0
 25 83  1  0  0  0  0
 26 65  2  0  0  0  0
 27 66  1  0  0  0  0
 27 69  1  0  0  0  0
 28 70  1  0  0  0  0
 28 75  2  0  0  0  0
 29 47  1  0  0  0  0
 29 71  1  0  0  0  0
 29 76  2  0  0  0  0
 30 61  1  0  0  0  0
 30 68  1  0  0  0  0
 30 77  2  0  0  0  0
 31 62  1  0  0  0  0
 31 67  1  0  0  0  0
 31 78  2  0  0  0  0
 32 63  1  0  0  0  0
 32 72  1  0  0  0  0
 32 79  2  0  0  0  0
 33 36  1  0  0  0  0
 34 47  1  0  0  0  0
 35 67  1  0  0  0  0
 36 38  1  0  0  0  0
 37 41  1  0  0  0  0
 37 44  1  0  0  0  0
 38 46  1  0  0  0  0
 39 42  1  0  0  0  0
 39 48  1  0  0  0  0
 40 43  1  0  0  0  0
 40 48  1  0  0  0  0
 41 49  1  0  0  0  0
 42 50  1  0  0  0  0
 43 50  1  0  0  0  0
 44 68  1  0  0  0  0
 45 49  1  0  0  0  0
 45 68  1  0  0  0  0
 46 71  1  0  0  0  0
 47 67  1  0  0  0  0
 48 58  1  0  0  0  0
 49 66  1  0  0  0  0
 50 74  1  0  0  0  0
 51 59  1  0  0  0  0
 52 61  1  0  0  0  0
 53 63  1  0  0  0  0
 54 64  1  0  0  0  0
 55 64  1  0  0  0  0
 56 64  1  0  0  0  0
 57 73  1  0  0  0  0
 58 81  1  0  0  0  0
 59 74  1  0  0  0  0
 60 61  1  0  0  0  0
 60 74  1  0  0  0  0
 62 64  1  0  0  0  0
 62 72  1  0  0  0  0
 63 73  1  0  0  0  0
 65 66  1  0  0  0  0
M  CHG  2  73   1  74   1
M  ISO  4  30 100  58 101  61 100  81 101
M  END
> <Batch ID>
0106

> <Smiles>
CCN(C[100CH:0](C)[100C:0](=O)N1CCCC(n2nc(-c3ccc(Oc4ccc(F)cc4F)cc3)c(C(N)=O)c2N)C1)C1CCC([101CH2:1][101O:1]c2ccc3c(c2)CN(C(=O)C(NC(=O)C(C)NC)C(C)(C)C)C(C(=O)NC2CCCc4ccccc42)C3)CC1

> <Shape>
0.278

> <Color>
0.208

> <Negative vol penalty>
0.000

$$$$

  -OEChem-04052319483D

 86 94  0     1  0  0  0  0  0999 V2000
  -15.1962  -16.2638   25.4648 C   0  0  0  0  0  0  0  0  0  0  0  0
  -16.2812  -15.6324   24.8652 C   0  0  0  0  0  0  0  0  0  0  0  0
  -26.3475  -28.8410   19.0314 C   0  0  0  0  0  0  0  0  0  0  0  0
  -26.0772  -27.9240   21.2502 C   0  0  0  0  0  0  0  0  0  0  0  0
  -14.9497  -17.6127   25.2130 C   0  0  0  0  0  0  0  0  0  0  0  0
  -17.1197  -16.3494   24.0124 C   0  0  0  0  0  0  0  0  0  0  0  0
  -23.1635  -15.6318   23.3320 C   0  0  0  0  0  0  0  0  0  0  0  0
  -25.4104  -29.8312   19.3265 C   0  0  0  0  0  0  0  0  0  0  0  0
  -25.1402  -28.9142   21.5453 C   0  0  0  0  0  0  0  0  0  0  0  0
  -23.9264  -14.9497   22.3852 C   0  0  0  0  0  0  0  0  0  0  0  0
  -21.8752  -29.5226   20.9122 C   0  0  0  0  0  0  0  0  0  0  0  0
  -20.7019  -29.1328   21.5578 C   0  0  0  0  0  0  0  0  0  0  0  0
  -24.2142  -17.0006   21.1483 C   0  0  0  0  0  0  0  0  0  0  0  0
  -28.4715  -15.8021   19.0484 C   0  0  0  0  0  0  0  0  0  0  0  0
  -21.2348  -30.5925   23.4078 C   0  0  0  0  0  0  0  0  0  0  0  0
  -28.7242  -15.3587   21.2414 C   0  0  0  0  0  0  0  0  0  0  0  0
  -26.6809  -27.8874   19.9932 C   0  0  0  0  0  0  0  0  0  0  0  0
  -29.0411  -26.9256   19.8842 C   0  0  0  0  0  0  0  0  0  0  0  0
  -15.7912  -18.3491   24.3643 C   0  0  0  0  0  0  0  0  0  0  0  0
  -22.9107  -17.0036   23.1881 C   0  0  0  0  0  0  0  0  0  0  0  0
  -16.8834  -17.7091   23.7479 C   0  0  0  0  0  0  0  0  0  0  0  0
  -23.4500  -17.6984   22.0961 C   0  0  0  0  0  0  0  0  0  0  0  0
  -28.1119  -14.9129   20.0910 C   0  0  0  0  0  0  0  0  0  0  0  0
  -24.8068  -29.8678   20.5834 C   0  0  0  0  0  0  0  0  0  0  0  0
  -24.4495  -15.6334   21.2916 C   0  0  0  0  0  0  0  0  0  0  0  0
  -22.7284  -30.4474   21.5144 C   0  0  0  0  0  0  0  0  0  0  0  0
  -20.3816  -29.6677   22.8055 C   0  0  0  0  0  0  0  0  0  0  0  0
  -22.4082  -30.9823   22.7621 C   0  0  0  0  0  0  0  0  0  0  0  0
  -27.6483  -26.8639   19.6888 C   0  0  0  0  0  0  0  0  0  0  0  0
  -29.2929  -16.7642   19.5935 C   0  0  0  0  0  0  0  0  0  0  0  0
  -29.5043  -25.7114   19.4396 C   0  0  0  0  0  0  0  0  0  0  0  0
  -29.8443  -27.9856   20.4196 C   0  0  0  0  0  0  0  0  0  0  0  0
  -20.2980  -18.7769   22.8239 C   0  0  0  0  0  0  0  0  0  0  0  0
  -22.3975  -21.2330   23.1094 C   0  0  0  0  0  0  0  0  0  0  0  0
  -25.6098  -22.3475   22.8164 C   0  0  0  0  0  0  0  0  0  0  0  0
  -29.1586  -20.2518   19.2952 C   0  0  0  0  0  0  0  0  0  0  0  0
  -15.4570  -19.7931   24.0851 C   0  0  0  0  0  0  0  0  0  0  0  0
  -22.1083  -17.7303   24.2323 C   0  0  0  0  0  0  0  0  0  0  0  0
  -23.2246  -19.1754   21.9063 C   0  0  0  0  0  0  0  0  0  0  0  0
  -16.6109  -20.5762   23.4641 C   0  0  0  0  0  0  0  0  0  0  0  0
  -27.1714  -22.0405   16.8562 C   0  0  0  0  0  0  0  0  0  0  0  0
  -17.2442  -19.7816   22.3265 C   0  0  0  0  0  0  0  0  0  0  0  0
  -27.2366  -23.4691   17.3994 C   0  0  0  0  0  0  0  0  0  0  0  0
  -27.0865  -21.0217   17.9889 C   0  0  0  0  0  0  0  0  0  0  0  0
  -28.2536  -22.5467   19.5337 C   0  0  0  0  0  0  0  0  0  0  0  0
  -17.8302  -18.4594   22.8364 C   0  0  1  0  0  0  0  0  0  0  0  0
  -21.4835  -19.0220   23.7139 C   0  0  1  0  0  0  0  0  0  0  0  0
  -28.3635  -23.6227   18.4381 C   0  0  2  0  0  0  0  0  0  0  0  0
  -29.1669  -12.1132   19.4590 C   0  0  0  0  0  0  0  0  0  0  0  0
  -27.0105  -24.4125   23.0831 C   0  0  0  0  0  0  0  0  0  0  0  0
  -31.3915  -15.2975   22.9110 C   0  0  0  0  0  0  0  0  0  0  0  0
  -32.4967  -16.4638   21.0007 C   0  0  0  0  0  0  0  0  0  0  0  0
  -32.3586  -17.5748   23.2422 C   0  0  0  0  0  0  0  0  0  0  0  0
  -21.2886  -22.3215   20.4835 C   0  0  0  0  0  0  0  0  0  0  0  0
  -23.3078  -23.7929   20.3214 C   0  0  0  0  0  0  0  0  0  0  0  0
  -21.7244  -24.0568   22.2309 C   0  0  0  0  0  0  0  0  0  0  0  0
  -27.2809  -21.0843   24.9070 C   0  0  0  0  0  0  0  0  0  0  0  0
  -29.9481  -17.9242   18.9544 C   0  0  0  0  0  0  0  0  0  0  0  0
  -27.9431  -12.3793   20.3276 C   0  0  0  0  0  0  0  0  0  0  0  0
  -30.2242  -17.2487   21.8720 C   0  0  0  0  0  0  0  0  0  0  0  0
  -25.9461  -13.8461   20.8212 C   0  0  0  0  0  0  0  0  0  1  0  0
  -27.2139  -13.6899   19.9646 C   0  0  1  0  0  0  0  0  0  0  0  0
  -23.2410  -22.0356   22.1485 C   0  0  1  0  0  0  0  0  0  0  0  0
  -26.4858  -23.1544   23.7576 C   0  0  2  0  0  0  0  0  0  0  0  0
  -31.6165  -16.6698   22.2447 C   0  0  0  0  0  0  0  0  0  0  0  0
  -22.3933  -23.0235   21.2983 C   0  0  0  0  0  0  0  0  0  0  0  0
  -27.2526  -25.7025   19.1611 N   0  0  0  0  0  0  0  0  0  0  0  0
  -29.4397  -16.4845   20.9270 N   0  0  0  0  0  0  0  0  0  0  0  0
  -28.4037  -25.0232   19.0210 N   0  0  0  0  0  0  0  0  0  0  0  0
  -22.4282  -19.8403   22.9509 N   0  0  0  0  0  0  0  0  0  0  0  0
  -28.1977  -21.2101   18.9322 N   0  0  0  0  0  0  0  0  0  0  0  0
  -30.7415  -25.1759   19.3698 N   0  0  0  0  0  0  0  0  0  0  0  0
  -29.2075  -29.1652   20.8288 N   0  0  0  0  0  0  0  0  0  0  0  0
  -19.0957  -18.6899   23.4996 N   0  0  0  0  0  0  0  0  0  0  0  0
  -24.2774  -22.6756   22.9515 N   0  0  0  0  0  0  0  0  0  0  0  0
  -29.0310  -19.0096   18.6859 N   0  0  0  0  0  0  0  0  0  0  0  0
  -27.6511  -22.3408   24.2061 N   0  3  0  0  0  0  0  0  0  0  0  0
  -31.0918  -27.8960   20.5168 O   0  0  0  0  0  0  0  0  0  0  0  0
  -20.4616  -18.6757   21.6137 O   0  0  0  0  0  0  0  0  0  0  0  0
  -21.7413  -21.8198   23.9735 O   0  0  0  0  0  0  0  0  0  0  0  0
  -26.0626  -21.5125   22.0365 O   0  0  0  0  0  0  0  0  0  0  0  0
  -30.0670  -20.4874   20.0993 O   0  0  0  0  0  0  0  0  0  0  0  0
  -23.8926  -30.8340   20.8718 O   0  0  0  0  0  0  0  0  0  0  0  0
  -25.1939  -14.9699   20.3657 O   0  0  0  0  0  0  0  0  0  1  0  0
  -19.2540  -29.2944   23.4247 F   0  0  0  0  0  0  0  0  0  0  0  0
  -23.2233  -31.8720   23.3451 F   0  0  0  0  0  0  0  0  0  0  0  0
  1  2  1  0  0  0  0
  1  5  2  0  0  0  0
  2  6  2  0  0  0  0
  3  8  2  0  0  0  0
  3 17  1  0  0  0  0
  4  9  1  0  0  0  0
  4 17  2  0  0  0  0
  5 19  1  0  0  0  0
  6 21  1  0  0  0  0
  7 10  2  0  0  0  0
  7 20  1  0  0  0  0
  8 24  1  0  0  0  0
  9 24  2  0  0  0  0
 10 25  1  0  0  0  0
 11 12  2  0  0  0  0
 11 26  1  0  0  0  0
 12 27  1  0  0  0  0
 13 22  1  0  0  0  0
 13 25  2  0  0  0  0
 14 23  1  0  0  0  0
 14 30  2  0  0  0  0
 15 27  2  0  0  0  0
 15 28  1  0  0  0  0
 16 23  2  0  0  0  0
 16 68  1  0  0  0  0
 17 29  1  0  0  0  0
 18 29  1  0  0  0  0
 18 31  2  0  0  0  0
 18 32  1  0  0  0  0
 19 21  2  0  0  0  0
 19 37  1  0  0  0  0
 20 22  2  0  0  0  0
 20 38  1  0  0  0  0
 21 46  1  0  0  0  0
 22 39  1  0  0  0  0
 23 62  1  0  0  0  0
 24 83  1  0  0  0  0
 25 84  1  0  0  0  0
 26 28  2  0  0  0  0
 26 83  1  0  0  0  0
 27 85  1  0  0  0  0
 28 86  1  0  0  0  0
 29 67  2  0  0  0  0
 30 58  1  0  0  0  0
 30 68  1  0  0  0  0
 31 69  1  0  0  0  0
 31 72  1  0  0  0  0
 32 73  1  0  0  0  0
 32 78  2  0  0  0  0
 33 47  1  0  0  0  0
 33 74  1  0  0  0  0
 33 79  2  0  0  0  0
 34 63  1  0  0  0  0
 34 70  1  0  0  0  0
 34 80  2  0  0  0  0
 35 64  1  0  0  0  0
 35 75  1  0  0  0  0
 35 81  2  0  0  0  0
 36 71  1  0  0  0  0
 36 76  1  0  0  0  0
 36 82  2  0  0  0  0
 37 40  1  0  0  0  0
 38 47  1  0  0  0  0
 39 70  1  0  0  0  0
 40 42  1  0  0  0  0
 41 43  1  0  0  0  0
 41 44  1  0  0  0  0
 42 46  1  0  0  0  0
 43 48  1  0  0  0  0
 44 71  1  0  0  0  0
 45 48  1  0  0  0  0
 45 71  1  0  0  0  0
 46 74  1  0  0  0  0
 47 70  1  0  0  0  0
 48 69  1  0  0  0  0
 49 59  1  0  0  0  0
 50 64  1  0  0  0  0
 51 65  1  0  0  0  0
 52 65  1  0  0  0  0
 53 65  1  0  0  0  0
 54 66  1  0  0  0  0
 55 66  1  0  0  0  0
 56 66  1  0  0  0  0
 57 77  1  0  0  0  0
 58 76  1  0  0  0  0
 59 62  1  0  0  0  0
 60 65  1  0  0  0  0
 60 68  1  0  0  0  0
 61 62  1  0  0  0  0
 61 84  1  0  0  0  0
 63 66  1  0  0  0  0
 63 75  1  0  0  0  0
 64 77  1  0  0  0  0
 67 69  1  0  0  0  0
M  CHG  1  77   1
M  ISO  4  36 100  61 101  76 100  84 101
M  END
> <Batch ID>
0106

> <Smiles>
CCC(c1cc(C[100NH:0][100C:0](=O)N2CCCC(n3nc(-c4ccc(Oc5ccc(F)cc5F)cc4)c(C(N)=O)c3N)C2)n(CC(C)(C)C)c1)[101CH2:1][101O:1]c1ccc2c(c1)CN(C(=O)C(NC(=O)C(C)NC)C(C)(C)C)C(C(=O)NC1CCCc3ccccc31)C2

> <Shape>
0.213

> <Color>
0.060

> <Negative vol penalty>
0.000

$$$$

  -OEChem-04052319483D

 83 90  0     1  0  0  0  0  0999 V2000
  -17.2091  -30.4225   23.9009 C   0  0  0  0  0  0  0  0  0  0  0  0
  -18.5660  -30.7292   23.8912 C   0  0  0  0  0  0  0  0  0  0  0  0
  -22.4652  -16.0003   20.9385 C   0  0  0  0  0  0  0  0  0  0  0  0
  -24.6440  -15.0160   21.2862 C   0  0  0  0  0  0  0  0  0  0  0  0
  -16.7786  -29.1576   23.5024 C   0  0  0  0  0  0  0  0  0  0  0  0
  -19.4934  -29.7708   23.4839 C   0  0  0  0  0  0  0  0  0  0  0  0
  -25.8072  -29.1730   20.1531 C   0  0  0  0  0  0  0  0  0  0  0  0
  -22.0007  -14.7902   20.4233 C   0  0  0  0  0  0  0  0  0  0  0  0
  -24.1796  -13.8059   20.7710 C   0  0  0  0  0  0  0  0  0  0  0  0
  -27.0674  -28.6027   20.3278 C   0  0  0  0  0  0  0  0  0  0  0  0
  -23.4677  -10.3533   19.8816 C   0  0  0  0  0  0  0  0  0  0  0  0
  -23.7994   -9.1853   20.5681 C   0  0  0  0  0  0  0  0  0  0  0  0
  -26.2018  -26.4771   19.5851 C   0  0  0  0  0  0  0  0  0  0  0  0
  -22.6639  -10.0171   22.5318 C   0  0  0  0  0  0  0  0  0  0  0  0
  -23.7868  -16.1132   21.3700 C   0  0  0  0  0  0  0  0  0  0  0  0
  -24.2419  -17.7810   23.2459 C   0  0  0  0  0  0  0  0  0  0  0  0
  -17.7004  -28.1864   23.0808 C   0  0  0  0  0  0  0  0  0  0  0  0
  -24.7305  -28.3957   19.7027 C   0  0  0  0  0  0  0  0  0  0  0  0
  -19.0750  -28.4913   23.0807 C   0  0  0  0  0  0  0  0  0  0  0  0
  -24.9296  -27.0404   19.4031 C   0  0  0  0  0  0  0  0  0  0  0  0
  -22.8579  -13.6929   20.3395 C   0  0  0  0  0  0  0  0  0  0  0  0
  -27.2642  -27.2539   20.0465 C   0  0  0  0  0  0  0  0  0  0  0  0
  -22.7342  -11.3532   20.5202 C   0  0  0  0  0  0  0  0  0  0  0  0
  -23.3975   -9.0171   21.8932 C   0  0  0  0  0  0  0  0  0  0  0  0
  -22.3323  -11.1851   21.8453 C   0  0  0  0  0  0  0  0  0  0  0  0
  -24.2674  -17.3632   21.9018 C   0  0  0  0  0  0  0  0  0  0  0  0
  -24.8105  -19.0312   23.2276 C   0  0  0  0  0  0  0  0  0  0  0  0
  -23.7485  -17.1000   24.4071 C   0  0  0  0  0  0  0  0  0  0  0  0
  -21.9134  -27.5521   20.9095 C   0  0  0  0  0  0  0  0  0  0  0  0
  -21.4710  -26.2745   17.9609 C   0  0  0  0  0  0  0  0  0  0  0  0
  -22.8625  -25.0243   15.1065 C   0  0  0  0  0  0  0  0  0  0  0  0
  -28.6819  -21.5380   19.5422 C   0  0  0  0  0  0  0  0  0  0  0  0
  -17.1914  -26.8176   22.7041 C   0  0  0  0  0  0  0  0  0  0  0  0
  -23.3837  -29.0321   19.4939 C   0  0  0  0  0  0  0  0  0  0  0  0
  -23.8112  -26.1674   18.8976 C   0  0  0  0  0  0  0  0  0  0  0  0
  -18.2074  -25.9818   21.9299 C   0  0  0  0  0  0  0  0  0  0  0  0
  -25.4079  -22.8321   20.3810 C   0  0  0  0  0  0  0  0  0  0  0  0
  -19.5759  -26.0492   22.6004 C   0  0  0  0  0  0  0  0  0  0  0  0
  -24.7431  -21.6005   20.9984 C   0  0  0  0  0  0  0  0  0  0  0  0
  -26.3040  -22.4469   19.2076 C   0  0  0  0  0  0  0  0  0  0  0  0
  -26.6851  -20.2029   20.1526 C   0  0  0  0  0  0  0  0  0  0  0  0
  -20.1095  -27.4866   22.6219 C   0  0  1  0  0  0  0  0  0  0  0  0
  -22.2369  -28.0264   19.5210 C   0  0  1  0  0  0  0  0  0  0  0  0
  -25.7835  -20.5234   21.3586 C   0  0  2  0  0  0  0  0  0  0  0  0
  -22.2464  -24.0230   12.8895 C   0  0  0  0  0  0  0  0  0  0  0  0
  -34.4470  -26.0712   19.1128 C   0  0  0  0  0  0  0  0  0  0  0  0
  -33.4021  -24.5111   20.7460 C   0  0  0  0  0  0  0  0  0  0  0  0
  -30.5704  -25.8659   16.1185 C   0  0  0  0  0  0  0  0  0  0  0  0
  -30.7997  -23.4195   15.8129 C   0  0  0  0  0  0  0  0  0  0  0  0
  -33.3812  -23.3409   17.9388 C   0  0  0  0  0  0  0  0  0  0  0  0
  -20.7988  -23.6377   19.3414 C   0  0  0  0  0  0  0  0  0  0  0  0
  -21.1287  -22.4836   17.1443 C   0  0  0  0  0  0  0  0  0  0  0  0
  -19.3342  -24.1983   17.3933 C   0  0  0  0  0  0  0  0  0  0  0  0
  -24.1846  -27.2148   13.6189 C   0  0  0  0  0  0  0  0  0  0  0  0
  -30.3511  -25.5299   19.1946 C   0  0  0  0  0  0  0  0  0  0  0  0
  -30.5836  -22.9893   18.8830 C   0  0  0  0  0  0  0  0  0  0  0  0
  -28.8325  -25.6032   19.3598 C   0  0  0  0  0  0  0  0  0  1  0  0
  -21.7516  -24.9354   17.3229 C   0  0  1  0  0  0  0  0  0  0  0  0
  -22.5778  -25.3025   13.6416 C   0  0  2  0  0  0  0  0  0  0  0  0
  -33.1366  -25.3662   19.5001 C   0  0  0  0  0  0  0  0  0  0  0  0
  -30.3420  -24.5087   16.8031 C   0  0  0  0  0  0  0  0  0  0  0  0
  -32.5478  -24.5981   18.2538 C   0  0  2  0  0  0  0  0  0  0  0  0
  -20.7741  -23.8295   17.8118 C   0  0  0  0  0  0  0  0  0  0  0  0
  -30.9485  -24.3830   18.2791 C   0  0  1  0  0  0  0  0  0  0  0  0
  -24.8091  -18.2740   21.0888 N   0  0  0  0  0  0  0  0  0  0  0  0
  -25.1292  -19.2767   21.9245 N   0  0  0  0  0  0  0  0  0  0  0  0
  -22.5114  -26.8345   18.7158 N   0  0  0  0  0  0  0  0  0  0  0  0
  -27.2834  -21.4324   19.6219 N   0  0  0  0  0  0  0  0  0  0  0  0
  -25.0638  -19.9334   24.1993 N   0  0  0  0  0  0  0  0  0  0  0  0
  -23.1957  -15.8219   24.2476 N   0  0  0  0  0  0  0  0  0  0  0  0
  -20.6291  -27.8523   21.3217 N   0  0  0  0  0  0  0  0  0  0  0  0
  -21.7296  -25.1575   15.8812 N   0  0  0  0  0  0  0  0  0  0  0  0
  -29.1676  -22.7313   19.0216 N   0  0  0  0  0  0  0  0  0  0  0  0
  -23.7623  -25.9345   12.9947 N   0  3  0  0  0  0  0  0  0  0  0  0
  -23.7813  -17.6164   25.5498 O   0  0  0  0  0  0  0  0  0  0  0  0
  -22.7655  -26.9565   21.5584 O   0  0  0  0  0  0  0  0  0  0  0  0
  -20.3717  -26.8074   17.7898 O   0  0  0  0  0  0  0  0  0  0  0  0
  -23.9774  -24.7158   15.5215 O   0  0  0  0  0  0  0  0  0  0  0  0
  -29.4424  -20.6372   19.9127 O   0  0  0  0  0  0  0  0  0  0  0  0
  -22.4049  -12.5119   19.8370 O   0  0  0  0  0  0  0  0  0  0  0  0
  -28.5005  -26.6912   20.2178 O   0  0  0  0  0  0  0  0  0  1  0  0
  -23.7148   -7.8948   22.5519 F   0  0  0  0  0  0  0  0  0  0  0  0
  -21.6264  -12.1417   22.4636 F   0  0  0  0  0  0  0  0  0  0  0  0
  1  2  1  0  0  0  0
  1  5  2  0  0  0  0
  2  6  2  0  0  0  0
  3  8  2  0  0  0  0
  3 15  1  0  0  0  0
  4  9  1  0  0  0  0
  4 15  2  0  0  0  0
  5 17  1  0  0  0  0
  6 19  1  0  0  0  0
  7 10  2  0  0  0  0
  7 18  1  0  0  0  0
  8 21  1  0  0  0  0
  9 21  2  0  0  0  0
 10 22  1  0  0  0  0
 11 12  2  0  0  0  0
 11 23  1  0  0  0  0
 12 24  1  0  0  0  0
 13 20  1  0  0  0  0
 13 22  2  0  0  0  0
 14 24  2  0  0  0  0
 14 25  1  0  0  0  0
 15 26  1  0  0  0  0
 16 26  1  0  0  0  0
 16 27  2  0  0  0  0
 16 28  1  0  0  0  0
 17 19  2  0  0  0  0
 17 33  1  0  0  0  0
 18 20  2  0  0  0  0
 18 34  1  0  0  0  0
 19 42  1  0  0  0  0
 20 35  1  0  0  0  0
 21 80  1  0  0  0  0
 22 81  1  0  0  0  0
 23 25  2  0  0  0  0
 23 80  1  0  0  0  0
 24 82  1  0  0  0  0
 25 83  1  0  0  0  0
 26 65  2  0  0  0  0
 27 66  1  0  0  0  0
 27 69  1  0  0  0  0
 28 70  1  0  0  0  0
 28 75  2  0  0  0  0
 29 43  1  0  0  0  0
 29 71  1  0  0  0  0
 29 76  2  0  0  0  0
 30 58  1  0  0  0  0
 30 67  1  0  0  0  0
 30 77  2  0  0  0  0
 31 59  1  0  0  0  0
 31 72  1  0  0  0  0
 31 78  2  0  0  0  0
 32 68  1  0  0  0  0
 32 73  1  0  0  0  0
 32 79  2  0  0  0  0
 33 36  1  0  0  0  0
 34 43  1  0  0  0  0
 35 67  1  0  0  0  0
 36 38  1  0  0  0  0
 37 39  1  0  0  0  0
 37 40  1  0  0  0  0
 38 42  1  0  0  0  0
 39 44  1  0  0  0  0
 40 68  1  0  0  0  0
 41 44  1  0  0  0  0
 41 68  1  0  0  0  0
 42 71  1  0  0  0  0
 43 67  1  0  0  0  0
 44 66  1  0  0  0  0
 45 59  1  0  0  0  0
 46 60  1  0  0  0  0
 47 60  1  0  0  0  0
 48 61  1  0  0  0  0
 49 61  1  0  0  0  0
 50 62  1  0  0  0  0
 51 63  1  0  0  0  0
 52 63  1  0  0  0  0
 53 63  1  0  0  0  0
 54 74  1  0  0  0  0
 55 57  1  0  0  0  0
 55 64  1  0  0  0  0
 56 64  1  0  0  0  0
 56 73  1  0  0  0  0
 57 81  1  0  0  0  0
 58 63  1  0  0  0  0
 58 72  1  0  0  0  0
 59 74  1  0  0  0  0
 60 62  1  0  0  0  0
 61 64  1  0  0  0  0
 62 64  1  0  0  0  0
 65 66  1  0  0  0  0
M  CHG  1  74   1
M  ISO  4  32 100  57 101  73 100  81 101
M  END
> <Batch ID>
0106

> <Smiles>
CNC(C)C(=O)NC(C(=O)N1Cc2cc([101O:1][101CH2:1]CC(C[100NH:0][100C:0](=O)N3CCCC(n4nc(-c5ccc(Oc6ccc(F)cc6F)cc5)c(C(N)=O)c4N)C3)(C(C)C)C(C)C(C)C)ccc2CC1C(=O)NC1CCCc2ccccc21)C(C)(C)C

> <Shape>
0.228

> <Color>
0.079

> <Negative vol penalty>
0.000

$$$$

  -OEChem-04052319483D

 83 91  0     1  0  0  0  0  0999 V2000
  -21.6580  -11.7435   21.1988 C   0  0  0  0  0  0  0  0  0  0  0  0
  -21.8795  -12.8523   22.0093 C   0  0  0  0  0  0  0  0  0  0  0  0
  -24.9444  -28.1808   19.4942 C   0  0  0  0  0  0  0  0  0  0  0  0
  -25.0111  -26.0336   20.5997 C   0  0  0  0  0  0  0  0  0  0  0  0
  -22.6939  -11.2355   20.4160 C   0  0  0  0  0  0  0  0  0  0  0  0
  -23.1375  -13.4531   22.0383 C   0  0  0  0  0  0  0  0  0  0  0  0
  -22.8833  -18.5054   21.8039 C   0  0  0  0  0  0  0  0  0  0  0  0
  -26.3387  -28.2210   19.4879 C   0  0  0  0  0  0  0  0  0  0  0  0
  -26.4054  -26.0737   20.5934 C   0  0  0  0  0  0  0  0  0  0  0  0
  -22.5417  -19.1807   22.9748 C   0  0  0  0  0  0  0  0  0  0  0  0
  -29.8783  -29.0541   19.5044 C   0  0  0  0  0  0  0  0  0  0  0  0
  -30.4959  -30.2479   19.8771 C   0  0  0  0  0  0  0  0  0  0  0  0
  -22.3990  -24.4459   24.5476 C   0  0  0  0  0  0  0  0  0  0  0  0
  -24.8697  -19.6848   23.3561 C   0  0  0  0  0  0  0  0  0  0  0  0
  -29.4401  -30.1170   22.0462 C   0  0  0  0  0  0  0  0  0  0  0  0
  -22.7486  -23.6457   23.4719 C   0  0  0  0  0  0  0  0  0  0  0  0
  -24.2806  -27.0872   20.0501 C   0  0  0  0  0  0  0  0  0  0  0  0
  -22.3195  -23.8515   25.8021 C   0  0  0  0  0  0  0  0  0  0  0  0
  -22.0005  -26.5075   19.0638 C   0  0  0  0  0  0  0  0  0  0  0  0
  -23.9626  -11.8363   20.4282 C   0  0  0  0  0  0  0  0  0  0  0  0
  -24.2240  -18.4052   21.4054 C   0  0  0  0  0  0  0  0  0  0  0  0
  -24.1917  -12.9519   21.2560 C   0  0  0  0  0  0  0  0  0  0  0  0
  -25.2255  -19.0099   22.1784 C   0  0  0  0  0  0  0  0  0  0  0  0
  -22.5881  -22.4943   25.9405 C   0  0  0  0  0  0  0  0  0  0  0  0
  -27.0692  -27.1674   20.0375 C   0  0  0  0  0  0  0  0  0  0  0  0
  -23.5352  -19.7681   23.7526 C   0  0  0  0  0  0  0  0  0  0  0  0
  -29.0415  -28.3917   20.4026 C   0  0  0  0  0  0  0  0  0  0  0  0
  -30.2768  -30.7794   21.1480 C   0  0  0  0  0  0  0  0  0  0  0  0
  -28.8224  -28.9232   21.6735 C   0  0  0  0  0  0  0  0  0  0  0  0
  -22.8404  -27.0454   20.0573 C   0  0  0  0  0  0  0  0  0  0  0  0
  -22.9292  -21.7813   24.8025 C   0  0  0  0  0  0  0  0  0  1  0  0
  -20.7291  -26.7127   19.5410 C   0  0  0  0  0  0  0  0  0  0  0  0
  -21.9531  -24.6750   26.9467 C   0  0  0  0  0  0  0  0  0  0  0  0
  -22.3394  -25.8785   17.8207 C   0  0  0  0  0  0  0  0  0  0  0  0
  -20.7010  -24.9019   27.4085 C   0  0  0  0  0  0  0  0  0  0  0  0
  -26.2529  -16.0025   20.9422 C   0  0  0  0  0  0  0  0  0  0  0  0
  -28.1919  -18.3635   19.8522 C   0  0  0  0  0  0  0  0  0  0  0  0
  -29.0077  -21.6773   19.8595 C   0  0  0  0  0  0  0  0  0  0  0  0
  -18.5063  -27.4023   25.0577 C   0  0  0  0  0  0  0  0  0  0  0  0
  -25.0643  -11.2228   19.6008 C   0  0  0  0  0  0  0  0  0  0  0  0
  -24.5734  -17.6962   20.1256 C   0  0  0  0  0  0  0  0  0  0  0  0
  -26.6777  -18.9483   21.7837 C   0  0  0  0  0  0  0  0  0  0  0  0
  -26.2646  -12.1453   19.4046 C   0  0  0  0  0  0  0  0  0  0  0  0
  -18.2088  -29.6719   22.3307 C   0  0  0  0  0  0  0  0  0  0  0  0
  -26.6697  -12.7833   20.7297 C   0  0  0  0  0  0  0  0  0  0  0  0
  -19.2863  -29.2076   21.3492 C   0  0  0  0  0  0  0  0  0  0  0  0
  -18.6627  -29.5192   23.7807 C   0  0  0  0  0  0  0  0  0  0  0  0
  -20.2119  -27.7053   23.1616 C   0  0  0  0  0  0  0  0  0  0  0  0
  -25.5357  -13.6464   21.2960 C   0  0  1  0  0  0  0  0  0  0  0  0
  -26.0204  -17.2146   20.0852 C   0  0  1  0  0  0  0  0  0  0  0  0
  -19.7790  -27.7878   21.6878 C   0  0  2  0  0  0  0  0  0  0  0  0
  -22.5144  -21.8135   27.2672 C   0  0  0  0  0  0  0  0  0  0  0  0
  -20.3785  -25.7648   28.6001 C   0  0  0  0  0  0  0  0  0  0  0  0
  -30.1964  -23.7841   19.1918 C   0  0  0  0  0  0  0  0  0  0  0  0
  -30.3046  -17.3624   21.8128 C   0  0  0  0  0  0  0  0  0  0  0  0
  -31.5174  -19.5310   21.5053 C   0  0  0  0  0  0  0  0  0  0  0  0
  -31.1890  -18.0011   19.5625 C   0  0  0  0  0  0  0  0  0  0  0  0
  -27.0730  -22.2178   17.6862 C   0  0  0  0  0  0  0  0  0  0  0  0
  -19.5099  -24.2330   26.7472 C   0  0  0  0  0  0  0  0  0  0  0  0
  -18.4608  -25.2182   26.2354 C   0  0  0  0  0  0  0  0  0  0  0  0
  -29.2120  -19.2836   20.4782 C   0  0  1  0  0  0  0  0  0  0  0  0
  -29.3029  -22.6445   18.7274 C   0  0  2  0  0  0  0  0  0  0  0  0
  -30.5287  -18.5442   20.8484 C   0  0  0  0  0  0  0  0  0  0  0  0
  -23.0167  -22.3240   23.5673 N   0  0  0  0  0  0  0  0  0  0  0  0
  -22.1598  -27.5542   21.0878 N   0  0  0  0  0  0  0  0  0  0  0  0
  -20.8788  -27.3370   20.7443 N   0  0  0  0  0  0  0  0  0  0  0  0
  -26.9694  -18.2384   20.5273 N   0  0  0  0  0  0  0  0  0  0  0  0
  -19.1160  -28.1499   24.0368 N   0  0  0  0  0  0  0  0  0  0  0  0
  -19.5087  -26.4183   19.0444 N   0  0  0  0  0  0  0  0  0  0  0  0
  -23.6940  -25.7486   17.4851 N   0  0  0  0  0  0  0  0  0  0  0  0
  -25.4713  -14.9148   20.6022 N   0  0  0  0  0  0  0  0  0  0  0  0
  -29.3904  -20.3906   19.5448 N   0  0  0  0  0  0  0  0  0  0  0  0
  -18.9913  -26.1116   25.2298 N   0  0  0  0  0  0  0  0  0  0  0  0
  -28.0363  -23.2257   18.1991 N   0  3  0  0  0  0  0  0  0  0  0  0
  -21.4665  -25.4593   17.0234 O   0  0  0  0  0  0  0  0  0  0  0  0
  -27.0812  -16.0500   21.8441 O   0  0  0  0  0  0  0  0  0  0  0  0
  -28.4668  -17.7830   18.7991 O   0  0  0  0  0  0  0  0  0  0  0  0
  -28.4929  -22.0288   20.9187 O   0  0  0  0  0  0  0  0  0  0  0  0
  -17.5934  -27.8499   25.7601 O   0  0  0  0  0  0  0  0  0  0  0  0
  -28.4297  -27.2062   20.0314 O   0  0  0  0  0  0  0  0  0  0  0  0
  -23.2046  -20.4273   24.8963 O   0  0  0  0  0  0  0  0  0  1  0  0
  -30.8712  -31.9250   21.5062 F   0  0  0  0  0  0  0  0  0  0  0  0
  -28.0205  -28.2908   22.5411 F   0  0  0  0  0  0  0  0  0  0  0  0
  1  2  1  0  0  0  0
  1  5  2  0  0  0  0
  2  6  2  0  0  0  0
  3  8  2  0  0  0  0
  3 17  1  0  0  0  0
  4  9  1  0  0  0  0
  4 17  2  0  0  0  0
  5 20  1  0  0  0  0
  6 22  1  0  0  0  0
  7 10  2  0  0  0  0
  7 21  1  0  0  0  0
  8 25  1  0  0  0  0
  9 25  2  0  0  0  0
 10 26  1  0  0  0  0
 11 12  2  0  0  0  0
 11 27  1  0  0  0  0
 12 28  1  0  0  0  0
 13 16  1  0  0  0  0
 13 18  2  0  0  0  0
 14 23  1  0  0  0  0
 14 26  2  0  0  0  0
 15 28  2  0  0  0  0
 15 29  1  0  0  0  0
 16 64  2  0  0  0  0
 17 30  1  0  0  0  0
 18 24  1  0  0  0  0
 18 33  1  0  0  0  0
 19 30  1  0  0  0  0
 19 32  2  0  0  0  0
 19 34  1  0  0  0  0
 20 22  2  0  0  0  0
 20 40  1  0  0  0  0
 21 23  2  0  0  0  0
 21 41  1  0  0  0  0
 22 49  1  0  0  0  0
 23 42  1  0  0  0  0
 24 31  2  0  0  0  0
 24 52  1  0  0  0  0
 25 80  1  0  0  0  0
 26 81  1  0  0  0  0
 27 29  2  0  0  0  0
 27 80  1  0  0  0  0
 28 82  1  0  0  0  0
 29 83  1  0  0  0  0
 30 65  2  0  0  0  0
 31 64  1  0  0  0  0
 31 81  1  0  0  0  0
 32 66  1  0  0  0  0
 32 69  1  0  0  0  0
 33 35  2  0  0  0  0
 34 70  1  0  0  0  0
 34 75  2  0  0  0  0
 35 53  1  0  0  0  0
 35 59  1  0  0  0  0
 36 50  1  0  0  0  0
 36 71  1  0  0  0  0
 36 76  2  0  0  0  0
 37 61  1  0  0  0  0
 37 67  1  0  0  0  0
 37 77  2  0  0  0  0
 38 62  1  0  0  0  0
 38 72  1  0  0  0  0
 38 78  2  0  0  0  0
 39 68  1  0  0  0  0
 39 73  1  0  0  0  0
 39 79  2  0  0  0  0
 40 43  1  0  0  0  0
 41 50  1  0  0  0  0
 42 67  1  0  0  0  0
 43 45  1  0  0  0  0
 44 46  1  0  0  0  0
 44 47  1  0  0  0  0
 45 49  1  0  0  0  0
 46 51  1  0  0  0  0
 47 68  1  0  0  0  0
 48 51  1  0  0  0  0
 48 68  1  0  0  0  0
 49 71  1  0  0  0  0
 50 67  1  0  0  0  0
 51 66  1  0  0  0  0
 54 62  1  0  0  0  0
 55 63  1  0  0  0  0
 56 63  1  0  0  0  0
 57 63  1  0  0  0  0
 58 74  1  0  0  0  0
 59 60  1  0  0  0  0
 60 73  1  0  0  0  0
 61 63  1  0  0  0  0
 61 72  1  0  0  0  0
 62 74  1  0  0  0  0
 65 66  1  0  0  0  0
M  CHG  1  74   1
M  ISO  4  31 101  39 100  73 100  81 101
M  END
> <Batch ID>
0106

> <Smiles>
CNC(C)C(=O)NC(C(=O)N1Cc2cc([101O:1][101c:1]3nccc(C=C(C)CC[100NH:0][100C:0](=O)N4CCCC(n5nc(-c6ccc(Oc7ccc(F)cc7F)cc6)c(C(N)=O)c5N)C4)c3C)ccc2CC1C(=O)NC1CCCc2ccccc21)C(C)(C)C

> <Shape>
0.208

> <Color>
0.062

> <Negative vol penalty>
0.000

$$$$

  -OEChem-04052319483D

 87 95  0     1  0  0  0  0  0999 V2000
  -29.4133  -36.7170   19.0682 C   0  0  0  0  0  0  0  0  0  0  0  0
  -29.5955  -35.3385   19.0236 C   0  0  0  0  0  0  0  0  0  0  0  0
  -24.1910   -9.3496   21.7003 C   0  0  0  0  0  0  0  0  0  0  0  0
  -22.5331  -10.0507   20.0888 C   0  0  0  0  0  0  0  0  0  0  0  0
  -28.6360  -37.2839   20.0773 C   0  0  0  0  0  0  0  0  0  0  0  0
  -29.0013  -34.5262   19.9887 C   0  0  0  0  0  0  0  0  0  0  0  0
  -26.7783  -28.8767   19.1840 C   0  0  0  0  0  0  0  0  0  0  0  0
  -25.6171  -20.2980   17.0162 C   0  0  0  0  0  0  0  0  0  0  0  0
  -23.5552   -8.1136   21.8167 C   0  0  0  0  0  0  0  0  0  0  0  0
  -21.8973   -8.8146   20.2051 C   0  0  0  0  0  0  0  0  0  0  0  0
  -27.3102  -27.6139   19.4412 C   0  0  0  0  0  0  0  0  0  0  0  0
  -20.8431   -6.8460   23.3858 C   0  0  0  0  0  0  0  0  0  0  0  0
  -20.6514   -6.3350   24.6694 C   0  0  0  0  0  0  0  0  0  0  0  0
  -25.2113  -19.2315   17.8107 C   0  0  0  0  0  0  0  0  0  0  0  0
  -26.1603  -27.5681   21.5613 C   0  0  0  0  0  0  0  0  0  0  0  0
  -21.9692   -4.3937   24.0934 C   0  0  0  0  0  0  0  0  0  0  0  0
  -23.6799  -10.3182   20.8364 C   0  0  0  0  0  0  0  0  0  0  0  0
  -25.3594  -11.9440   19.8146 C   0  0  0  0  0  0  0  0  0  0  0  0
  -28.0240  -36.4772   21.0496 C   0  0  0  0  0  0  0  0  0  0  0  0
  -25.9407  -29.5004   20.1199 C   0  0  0  0  0  0  0  0  0  0  0  0
  -28.2161  -35.0829   21.0125 C   0  0  0  0  0  0  0  0  0  0  0  0
  -25.6170  -28.8377   21.3125 C   0  0  0  0  0  0  0  0  0  0  0  0
  -25.6176  -21.5864   17.5390 C   0  0  0  0  0  0  0  0  0  0  0  0
  -22.4084   -7.8461   21.0691 C   0  0  0  0  0  0  0  0  0  0  0  0
  -27.0036  -26.9607   20.6313 C   0  0  0  0  0  0  0  0  0  0  0  0
  -21.5978   -6.1309   22.4559 C   0  0  0  0  0  0  0  0  0  0  0  0
  -21.2145   -5.1088   25.0232 C   0  0  0  0  0  0  0  0  0  0  0  0
  -22.1609   -4.9047   22.8097 C   0  0  0  0  0  0  0  0  0  0  0  0
  -24.3359  -11.5955   20.7162 C   0  0  0  0  0  0  0  0  0  0  0  0
  -25.2065  -21.7539   18.8515 C   0  0  0  0  0  0  0  0  0  0  0  0
  -24.8186  -19.5044   19.1111 C   0  0  0  0  0  0  0  0  0  0  0  0
  -25.6360  -13.2586   20.1007 C   0  0  0  0  0  0  0  0  0  0  0  0
  -26.0025  -11.1504   18.8085 C   0  0  0  0  0  0  0  0  0  0  0  0
  -26.0889  -32.1748   21.8314 C   0  0  0  0  0  0  0  0  0  0  0  0
  -23.0670  -31.3449   22.6689 C   0  0  0  0  0  0  0  0  0  0  0  0
  -20.7360  -28.8794   23.0365 C   0  0  0  0  0  0  0  0  0  0  0  0
  -23.9747  -18.4499   21.2376 C   0  0  0  0  0  0  0  0  0  0  0  0
  -27.2315  -37.1398   22.1486 C   0  0  0  0  0  0  0  0  0  0  0  0
  -25.3535  -30.8513   19.8156 C   0  0  0  0  0  0  0  0  0  0  0  0
  -24.7064  -29.4554   22.3409 C   0  0  0  0  0  0  0  0  0  0  0  0
  -26.3290  -36.1761   22.9147 C   0  0  0  0  0  0  0  0  0  0  0  0
  -24.1548  -16.1705   23.9670 C   0  0  0  0  0  0  0  0  0  0  0  0
  -27.0926  -34.9078   23.2824 C   0  0  0  0  0  0  0  0  0  0  0  0
  -24.3022  -14.8057   23.2904 C   0  0  0  0  0  0  0  0  0  0  0  0
  -23.2263  -17.0954   23.1819 C   0  0  0  0  0  0  0  0  0  0  0  0
  -23.7157  -15.8954   21.0868 C   0  0  0  0  0  0  0  0  0  0  0  0
  -27.5676  -34.1663   22.0270 C   0  0  1  0  0  0  0  0  0  0  0  0
  -24.9245  -31.6119   21.0665 C   0  0  1  0  0  0  0  0  0  0  0  0
  -24.6928  -14.9516   21.8066 C   0  0  2  0  0  0  0  0  0  0  0  0
  -26.0496  -22.7336   16.6930 C   0  0  0  0  0  0  0  0  0  0  0  0
  -18.3680  -28.5018   23.7761 C   0  0  0  0  0  0  0  0  0  0  0  0
  -23.0029  -24.6907   17.8909 C   0  0  0  0  0  0  0  0  0  0  0  0
  -21.3704  -24.0354   19.6694 C   0  0  0  0  0  0  0  0  0  0  0  0
  -28.4986  -22.9769   21.2489 C   0  0  0  0  0  0  0  0  0  0  0  0
  -23.9395  -31.5949   25.5820 C   0  0  0  0  0  0  0  0  0  0  0  0
  -21.8877  -30.3168   26.2336 C   0  0  0  0  0  0  0  0  0  0  0  0
  -21.6700  -32.5228   25.0895 C   0  0  0  0  0  0  0  0  0  0  0  0
  -19.9402  -27.8763   20.3683 C   0  0  0  0  0  0  0  0  0  0  0  0
  -23.8119  -23.5556   20.0304 C   0  0  0  0  0  0  0  0  0  0  0  0
  -27.7879  -24.8912   19.7605 C   0  0  0  0  0  0  0  0  0  1  0  0
  -25.1855  -23.1334   19.4724 C   0  0  1  0  0  0  0  0  0  0  0  0
  -22.4526  -30.5137   23.7692 C   0  0  1  0  0  0  0  0  0  0  0  0
  -19.2853  -28.7914   22.5982 C   0  0  2  0  0  0  0  0  0  0  0  0
  -22.6862  -23.6641   18.9793 C   0  0  0  0  0  0  0  0  0  0  0  0
  -27.5786  -23.4259   20.1253 C   0  0  2  0  0  0  0  0  0  0  0  0
  -22.5062  -31.2259   25.1503 C   0  0  0  0  0  0  0  0  0  0  0  0
  -23.9862  -12.6070   21.5153 N   0  0  0  0  0  0  0  0  0  0  0  0
  -24.8056  -20.7425   19.6539 N   0  0  0  0  0  0  0  0  0  0  0  0
  -24.7945  -13.6040   21.1169 N   0  0  0  0  0  0  0  0  0  0  0  0
  -24.1623  -30.7803   22.0001 N   0  0  0  0  0  0  0  0  0  0  0  0
  -23.6604  -17.1886   21.7863 N   0  0  0  0  0  0  0  0  0  0  0  0
  -26.5147  -14.1411   19.5796 N   0  0  0  0  0  0  0  0  0  0  0  0
  -25.5967   -9.8185   18.6475 N   0  0  0  0  0  0  0  0  0  0  0  0
  -24.4069  -18.4107   19.9124 N   0  0  0  0  0  0  0  0  0  0  0  0
  -26.4712  -33.4388   21.4245 N   0  0  0  0  0  0  0  0  0  0  0  0
  -21.1053  -30.1768   23.3225 N   0  0  0  0  0  0  0  0  0  0  0  0
  -19.1134  -27.7066   21.5909 N   0  3  0  0  0  0  0  0  0  0  0  0
  -26.1689  -23.2478   20.5792 N   0  3  0  0  0  0  0  0  0  0  0  0
  -26.9213  -11.6039   18.0849 O   0  0  0  0  0  0  0  0  0  0  0  0
  -26.6016  -31.5120   22.7255 O   0  0  0  0  0  0  0  0  0  0  0  0
  -22.5881  -32.4512   22.4076 O   0  0  0  0  0  0  0  0  0  0  0  0
  -21.4674  -27.8953   23.1206 O   0  0  0  0  0  0  0  0  0  0  0  0
  -23.8941  -19.4855   21.9033 O   0  0  0  0  0  0  0  0  0  0  0  0
  -21.7879   -6.6399   21.1822 O   0  0  0  0  0  0  0  0  0  0  0  0
  -27.5220  -25.7283   20.8852 O   0  0  0  0  0  0  0  0  0  1  0  0
  -21.0316   -4.6189   26.2564 F   0  0  0  0  0  0  0  0  0  0  0  0
  -22.8879   -4.2137   21.9210 F   0  0  0  0  0  0  0  0  0  0  0  0
  1  2  1  0  0  0  0
  1  5  2  0  0  0  0
  2  6  2  0  0  0  0
  3  9  2  0  0  0  0
  3 17  1  0  0  0  0
  4 10  1  0  0  0  0
  4 17  2  0  0  0  0
  5 19  1  0  0  0  0
  6 21  1  0  0  0  0
  7 11  2  0  0  0  0
  7 20  1  0  0  0  0
  8 14  2  0  0  0  0
  8 23  1  0  0  0  0
  9 24  1  0  0  0  0
 10 24  2  0  0  0  0
 11 25  1  0  0  0  0
 12 13  2  0  0  0  0
 12 26  1  0  0  0  0
 13 27  1  0  0  0  0
 14 31  1  0  0  0  0
 15 22  1  0  0  0  0
 15 25  2  0  0  0  0
 16 27  2  0  0  0  0
 16 28  1  0  0  0  0
 17 29  1  0  0  0  0
 18 29  1  0  0  0  0
 18 32  2  0  0  0  0
 18 33  1  0  0  0  0
 19 21  2  0  0  0  0
 19 38  1  0  0  0  0
 20 22  2  0  0  0  0
 20 39  1  0  0  0  0
 21 47  1  0  0  0  0
 22 40  1  0  0  0  0
 23 30  2  0  0  0  0
 23 50  1  0  0  0  0
 24 84  1  0  0  0  0
 25 85  1  0  0  0  0
 26 28  2  0  0  0  0
 26 84  1  0  0  0  0
 27 86  1  0  0  0  0
 28 87  1  0  0  0  0
 29 67  2  0  0  0  0
 30 61  1  0  0  0  0
 30 68  1  0  0  0  0
 31 68  2  0  0  0  0
 31 74  1  0  0  0  0
 32 69  1  0  0  0  0
 32 72  1  0  0  0  0
 33 73  1  0  0  0  0
 33 79  2  0  0  0  0
 34 48  1  0  0  0  0
 34 75  1  0  0  0  0
 34 80  2  0  0  0  0
 35 62  1  0  0  0  0
 35 70  1  0  0  0  0
 35 81  2  0  0  0  0
 36 63  1  0  0  0  0
 36 76  1  0  0  0  0
 36 82  2  0  0  0  0
 37 71  1  0  0  0  0
 37 74  1  0  0  0  0
 37 83  2  0  0  0  0
 38 41  1  0  0  0  0
 39 48  1  0  0  0  0
 40 70  1  0  0  0  0
 41 43  1  0  0  0  0
 42 44  1  0  0  0  0
 42 45  1  0  0  0  0
 43 47  1  0  0  0  0
 44 49  1  0  0  0  0
 45 71  1  0  0  0  0
 46 49  1  0  0  0  0
 46 71  1  0  0  0  0
 47 75  1  0  0  0  0
 48 70  1  0  0  0  0
 49 69  1  0  0  0  0
 51 63  1  0  0  0  0
 52 64  1  0  0  0  0
 53 64  1  0  0  0  0
 54 65  1  0  0  0  0
 55 66  1  0  0  0  0
 56 66  1  0  0  0  0
 57 66  1  0  0  0  0
 58 77  1  0  0  0  0
 59 61  1  0  0  0  0
 59 64  1  0  0  0  0
 60 65  1  0  0  0  0
 60 85  1  0  0  0  0
 61 78  1  0  0  0  0
 62 66  1  0  0  0  0
 62 76  1  0  0  0  0
 63 77  1  0  0  0  0
 65 78  1  0  0  0  0
 67 69  1  0  0  0  0
M  CHG  2  77   1  78   1
M  ISO  4  37 100  60 101  74 100  85 101
M  END
> <Batch ID>
0106

> <Smiles>
CNC(C)C(=O)NC(C(=O)N1Cc2cc([101O:1][101CH2:1]C(C)NC(CC(C)C)c3nc([100NH:0][100C:0](=O)N4CCCC(n5nc(-c6ccc(Oc7ccc(F)cc7F)cc6)c(C(N)=O)c5N)C4)ccc3C)ccc2CC1C(=O)NC1CCCc2ccccc21)C(C)(C)C

> <Shape>
0.250

> <Color>
0.104

> <Negative vol penalty>
0.000

$$$$

  -OEChem-04052319483D

 91 99  0     1  0  0  0  0  0999 V2000
  -27.4432  -37.7090   24.3735 C   0  0  0  0  0  0  0  0  0  0  0  0
  -28.0272  -36.8512   23.4470 C   0  0  0  0  0  0  0  0  0  0  0  0
  -22.9586   -9.1535   22.5578 C   0  0  0  0  0  0  0  0  0  0  0  0
  -24.4573   -9.5761   20.7106 C   0  0  0  0  0  0  0  0  0  0  0  0
  -26.6169  -37.1960   25.3726 C   0  0  0  0  0  0  0  0  0  0  0  0
  -27.7862  -35.4797   23.5196 C   0  0  0  0  0  0  0  0  0  0  0  0
  -27.0832  -29.7057   19.3383 C   0  0  0  0  0  0  0  0  0  0  0  0
  -28.8757  -22.3335   17.7245 C   0  0  0  0  0  0  0  0  0  0  0  0
  -28.5314  -23.6840   17.7790 C   0  0  0  0  0  0  0  0  0  0  0  0
  -22.0735   -8.5103   21.6926 C   0  0  0  0  0  0  0  0  0  0  0  0
  -23.5723   -8.9328   19.8454 C   0  0  0  0  0  0  0  0  0  0  0  0
  -27.5823  -28.4117   19.1960 C   0  0  0  0  0  0  0  0  0  0  0  0
  -21.8048   -5.4894   20.1976 C   0  0  0  0  0  0  0  0  0  0  0  0
  -21.2561   -4.2770   20.6152 C   0  0  0  0  0  0  0  0  0  0  0  0
  -26.0744  -27.6473   20.9168 C   0  0  0  0  0  0  0  0  0  0  0  0
  -30.0965  -22.5611   19.7970 C   0  0  0  0  0  0  0  0  0  0  0  0
  -19.0394   -5.2241   20.4521 C   0  0  0  0  0  0  0  0  0  0  0  0
  -24.1505   -9.6865   22.0668 C   0  0  0  0  0  0  0  0  0  0  0  0
  -26.1218   -9.7680   23.6838 C   0  0  0  0  0  0  0  0  0  0  0  0
  -26.3580  -35.8186   25.4517 C   0  0  0  0  0  0  0  0  0  0  0  0
  -26.0819  -29.9828   20.2802 C   0  0  0  0  0  0  0  0  0  0  0  0
  -26.9568  -34.9476   24.5215 C   0  0  0  0  0  0  0  0  0  0  0  0
  -25.5625  -28.9451   21.0673 C   0  0  0  0  0  0  0  0  0  0  0  0
  -29.6583  -21.7719   18.7335 C   0  0  0  0  0  0  0  0  0  0  0  0
  -28.9697  -24.4732   18.8424 C   0  0  0  0  0  0  0  0  0  0  0  0
  -29.7523  -23.9117   19.8514 C   0  0  0  0  0  0  0  0  0  0  0  0
  -22.3804   -8.3999   20.3364 C   0  0  0  0  0  0  0  0  0  0  0  0
  -27.0800  -27.3828   19.9873 C   0  0  0  0  0  0  0  0  0  0  0  0
  -20.9709   -6.5693   19.9072 C   0  0  0  0  0  0  0  0  0  0  0  0
  -19.8734   -4.1443   20.7425 C   0  0  0  0  0  0  0  0  0  0  0  0
  -19.5882   -6.4365   20.0344 C   0  0  0  0  0  0  0  0  0  0  0  0
  -25.0648  -10.3516   22.9599 C   0  0  0  0  0  0  0  0  0  0  0  0
  -26.6820  -10.8135   24.3764 C   0  0  0  0  0  0  0  0  0  0  0  0
  -26.5583   -8.4030   23.7263 C   0  0  0  0  0  0  0  0  0  0  0  0
  -25.8775  -31.8290   22.8596 C   0  0  0  0  0  0  0  0  0  0  0  0
  -22.7694  -30.9027   22.7979 C   0  0  0  0  0  0  0  0  0  0  0  0
  -20.4526  -28.5959   21.8191 C   0  0  0  0  0  0  0  0  0  0  0  0
  -26.8259  -16.7233   23.4251 C   0  0  0  0  0  0  0  0  0  0  0  0
  -25.4960  -35.3055   26.5779 C   0  0  0  0  0  0  0  0  0  0  0  0
  -25.5353  -31.3787   20.4028 C   0  0  0  0  0  0  0  0  0  0  0  0
  -24.4730  -29.1862   22.0789 C   0  0  0  0  0  0  0  0  0  0  0  0
  -24.9912  -33.8816   26.3586 C   0  0  0  0  0  0  0  0  0  0  0  0
  -25.5729  -15.0485   26.3064 C   0  0  0  0  0  0  0  0  0  0  0  0
  -26.1284  -32.9780   25.8926 C   0  0  0  0  0  0  0  0  0  0  0  0
  -25.3960  -13.6022   25.8408 C   0  0  0  0  0  0  0  0  0  0  0  0
  -25.2352  -16.0435   25.1983 C   0  0  0  0  0  0  0  0  0  0  0  0
  -25.7779  -14.3788   23.4639 C   0  0  0  0  0  0  0  0  0  0  0  0
  -26.6996  -33.4567   24.5524 C   0  0  1  0  0  0  0  0  0  0  0  0
  -24.8776  -31.6464   21.7530 C   0  0  1  0  0  0  0  0  0  0  0  0
  -26.1604  -13.3377   24.5297 C   0  0  2  0  0  0  0  0  0  0  0  0
  -32.4263  -25.4576   19.8897 C   0  0  0  0  0  0  0  0  0  0  0  0
  -29.6499  -24.2351   22.3365 C   0  0  0  0  0  0  0  0  0  0  0  0
  -17.9975  -28.0926   21.9479 C   0  0  0  0  0  0  0  0  0  0  0  0
  -27.0086  -17.1101   19.4320 C   0  0  0  0  0  0  0  0  0  0  0  0
  -23.1051  -30.0193   25.6991 C   0  0  0  0  0  0  0  0  0  0  0  0
  -20.9922  -28.6963   25.4678 C   0  0  0  0  0  0  0  0  0  0  0  0
  -20.9440  -31.1764   25.2044 C   0  0  0  0  0  0  0  0  0  0  0  0
  -20.1616  -28.6860   18.8753 C   0  0  0  0  0  0  0  0  0  0  0  0
  -30.0306  -20.3125   18.6742 C   0  0  0  0  0  0  0  0  0  0  0  0
  -28.5894  -25.9170   18.8786 C   0  0  0  0  0  0  0  0  0  1  0  0
  -31.7793  -24.8208   21.1137 C   0  0  0  0  0  0  0  0  0  0  0  0
  -28.9936  -19.4353   19.3816 C   0  0  0  0  0  0  0  0  0  0  0  0
  -29.3653  -17.9525   19.2831 C   0  0  0  0  0  0  0  0  0  0  0  0
  -29.8274  -17.1691   22.2013 C   0  0  0  0  0  0  0  0  0  0  0  0
  -30.5204  -15.8173   22.0345 C   0  0  0  0  0  0  0  0  0  0  0  0
  -30.2332  -24.7371   20.9995 C   0  0  1  0  0  0  0  0  0  0  0  0
  -21.9833  -29.7572   23.3885 C   0  0  1  0  0  0  0  0  0  0  0  0
  -19.1048  -28.7485   21.1376 C   0  0  2  0  0  0  0  0  0  0  0  0
  -28.4089  -17.0120   20.0555 C   0  0  1  0  0  0  0  0  0  0  0  0
  -28.4134  -17.2512   21.5920 C   0  0  1  0  0  0  0  0  0  0  0  0
  -21.7780  -29.9078   24.9223 C   0  0  0  0  0  0  0  0  0  0  0  0
  -24.9577  -11.6658   23.1730 N   0  0  0  0  0  0  0  0  0  0  0  0
  -25.9546  -11.9167   24.0387 N   0  0  0  0  0  0  0  0  0  0  0  0
  -23.9757  -30.5692   22.1659 N   0  0  0  0  0  0  0  0  0  0  0  0
  -25.9946  -15.7382   23.9833 N   0  0  0  0  0  0  0  0  0  0  0  0
  -27.7209  -10.8875   25.2352 N   0  0  0  0  0  0  0  0  0  0  0  0
  -25.8710   -7.4573   22.9532 N   0  0  0  0  0  0  0  0  0  0  0  0
  -25.8271  -33.0704   23.4643 N   0  0  0  0  0  0  0  0  0  0  0  0
  -20.7429  -29.6766   22.6247 N   0  0  0  0  0  0  0  0  0  0  0  0
  -27.5149  -16.3494   22.2778 N   0  0  0  0  0  0  0  0  0  0  0  0
  -31.8697  -15.8373   22.6466 N   0  3  0  0  0  0  0  0  0  0  0  0
  -19.1335  -28.1205   19.7864 N   0  3  0  0  0  0  0  0  0  0  0  0
  -27.5189   -8.0299   24.4416 O   0  0  0  0  0  0  0  0  0  0  0  0
  -26.6375  -30.9109   23.1448 O   0  0  0  0  0  0  0  0  0  0  0  0
  -22.3258  -32.0502   22.8875 O   0  0  0  0  0  0  0  0  0  0  0  0
  -21.1740  -27.6142   21.6563 O   0  0  0  0  0  0  0  0  0  0  0  0
  -26.9494  -17.8505   23.9161 O   0  0  0  0  0  0  0  0  0  0  0  0
  -21.5172   -7.7721   19.4919 O   0  0  0  0  0  0  0  0  0  0  0  0
  -27.5694  -26.1101   19.8499 O   0  0  0  0  0  0  0  0  0  1  0  0
  -19.3465   -2.9795   21.1421 F   0  0  0  0  0  0  0  0  0  0  0  0
  -18.7819   -7.4700   19.7558 F   0  0  0  0  0  0  0  0  0  0  0  0
  1  2  1  0  0  0  0
  1  5  2  0  0  0  0
  2  6  2  0  0  0  0
  3 10  2  0  0  0  0
  3 18  1  0  0  0  0
  4 11  1  0  0  0  0
  4 18  2  0  0  0  0
  5 20  1  0  0  0  0
  6 22  1  0  0  0  0
  7 12  2  0  0  0  0
  7 21  1  0  0  0  0
  8  9  2  0  0  0  0
  8 24  1  0  0  0  0
  9 25  1  0  0  0  0
 10 27  1  0  0  0  0
 11 27  2  0  0  0  0
 12 28  1  0  0  0  0
 13 14  2  0  0  0  0
 13 29  1  0  0  0  0
 14 30  1  0  0  0  0
 15 23  1  0  0  0  0
 15 28  2  0  0  0  0
 16 24  2  0  0  0  0
 16 26  1  0  0  0  0
 17 30  2  0  0  0  0
 17 31  1  0  0  0  0
 18 32  1  0  0  0  0
 19 32  1  0  0  0  0
 19 33  2  0  0  0  0
 19 34  1  0  0  0  0
 20 22  2  0  0  0  0
 20 39  1  0  0  0  0
 21 23  2  0  0  0  0
 21 40  1  0  0  0  0
 22 48  1  0  0  0  0
 23 41  1  0  0  0  0
 24 59  1  0  0  0  0
 25 26  2  0  0  0  0
 25 60  1  0  0  0  0
 26 66  1  0  0  0  0
 27 88  1  0  0  0  0
 28 89  1  0  0  0  0
 29 31  2  0  0  0  0
 29 88  1  0  0  0  0
 30 90  1  0  0  0  0
 31 91  1  0  0  0  0
 32 72  2  0  0  0  0
 33 73  1  0  0  0  0
 33 76  1  0  0  0  0
 34 77  1  0  0  0  0
 34 83  2  0  0  0  0
 35 49  1  0  0  0  0
 35 78  1  0  0  0  0
 35 84  2  0  0  0  0
 36 67  1  0  0  0  0
 36 74  1  0  0  0  0
 36 85  2  0  0  0  0
 37 68  1  0  0  0  0
 37 79  1  0  0  0  0
 37 86  2  0  0  0  0
 38 75  1  0  0  0  0
 38 80  1  0  0  0  0
 38 87  2  0  0  0  0
 39 42  1  0  0  0  0
 40 49  1  0  0  0  0
 41 74  1  0  0  0  0
 42 44  1  0  0  0  0
 43 45  1  0  0  0  0
 43 46  1  0  0  0  0
 44 48  1  0  0  0  0
 45 50  1  0  0  0  0
 46 75  1  0  0  0  0
 47 50  1  0  0  0  0
 47 75  1  0  0  0  0
 48 78  1  0  0  0  0
 49 74  1  0  0  0  0
 50 73  1  0  0  0  0
 51 61  1  0  0  0  0
 52 66  1  0  0  0  0
 53 68  1  0  0  0  0
 54 69  1  0  0  0  0
 55 71  1  0  0  0  0
 56 71  1  0  0  0  0
 57 71  1  0  0  0  0
 58 82  1  0  0  0  0
 59 62  1  0  0  0  0
 60 89  1  0  0  0  0
 61 66  1  0  0  0  0
 62 63  1  0  0  0  0
 63 69  1  0  0  0  0
 64 65  1  0  0  0  0
 64 70  1  0  0  0  0
 65 81  1  0  0  0  0
 67 71  1  0  0  0  0
 67 79  1  0  0  0  0
 68 82  1  0  0  0  0
 69 70  1  0  0  0  0
 70 80  1  0  0  0  0
 72 73  1  0  0  0  0
M  CHG  2  81   1  82   1
M  ISO  4  38 100  60 101  80 100  89 101
M  END
> <Batch ID>
0106

> <Smiles>
CCC(C)c1cc(CCCC(C)C(CCN)[100NH:0][100C:0](=O)N2CCCC(n3nc(-c4ccc(Oc5ccc(F)cc5F)cc4)c(C(N)=O)c3N)C2)ccc1[101CH2:1][101O:1]c1ccc2c(c1)CN(C(=O)C(NC(=O)C(C)NC)C(C)(C)C)C(C(=O)NC1CCCc3ccccc31)C2

> <Shape>
0.271

> <Color>
0.064

> <Negative vol penalty>
0.000

$$$$

  -OEChem-04052319483D

 83 91  0     1  0  0  0  0  0999 V2000
  -19.9209  -27.9656   26.1405 C   0  0  0  0  0  0  0  0  0  0  0  0
  -20.3557  -26.6471   26.0517 C   0  0  0  0  0  0  0  0  0  0  0  0
  -30.0600  -23.5687   20.1425 C   0  0  0  0  0  0  0  0  0  0  0  0
  -27.6885  -23.1604   20.3578 C   0  0  0  0  0  0  0  0  0  0  0  0
  -19.4427  -28.6187   25.0053 C   0  0  0  0  0  0  0  0  0  0  0  0
  -20.3114  -25.9805   24.8277 C   0  0  0  0  0  0  0  0  0  0  0  0
  -24.2870  -21.8040   22.7644 C   0  0  0  0  0  0  0  0  0  0  0  0
  -29.7965  -24.8634   19.6957 C   0  0  0  0  0  0  0  0  0  0  0  0
  -27.4250  -24.4552   19.9109 C   0  0  0  0  0  0  0  0  0  0  0  0
  -24.2561  -20.4103   22.7419 C   0  0  0  0  0  0  0  0  0  0  0  0
  -26.1380  -27.7739   19.1705 C   0  0  0  0  0  0  0  0  0  0  0  0
  -25.1826  -28.5178   19.8628 C   0  0  0  0  0  0  0  0  0  0  0  0
  -23.4244  -20.4714   20.4783 C   0  0  0  0  0  0  0  0  0  0  0  0
  -26.4985  -28.3303   21.8803 C   0  0  0  0  0  0  0  0  0  0  0  0
  -25.9471  -12.6978   19.3410 C   0  0  0  0  0  0  0  0  0  0  0  0
  -29.0059  -22.7171   20.4735 C   0  0  0  0  0  0  0  0  0  0  0  0
  -29.4699  -20.9613   22.2651 C   0  0  0  0  0  0  0  0  0  0  0  0
  -19.4016  -27.9629   23.7648 C   0  0  0  0  0  0  0  0  0  0  0  0
  -23.8758  -22.5432   21.6460 C   0  0  0  0  0  0  0  0  0  0  0  0
  -19.8309  -26.6250   23.6751 C   0  0  0  0  0  0  0  0  0  0  0  0
  -23.4535  -21.8743   20.4882 C   0  0  0  0  0  0  0  0  0  0  0  0
  -25.5652  -14.0253   19.4736 C   0  0  0  0  0  0  0  0  0  0  0  0
  -24.8944  -13.5505   21.7381 C   0  0  0  0  0  0  0  0  0  0  0  0
  -25.0336  -14.4517   20.6869 C   0  0  0  0  0  0  0  0  0  0  0  0
  -28.4791  -25.3067   19.5799 C   0  0  0  0  0  0  0  0  0  0  0  0
  -23.8220  -19.7438   21.5997 C   0  0  0  0  0  0  0  0  0  0  0  0
  -27.2736  -27.3080   19.8331 C   0  0  0  0  0  0  0  0  0  0  0  0
  -25.3628  -28.7960   21.2177 C   0  0  0  0  0  0  0  0  0  0  0  0
  -27.4539  -27.5863   21.1879 C   0  0  0  0  0  0  0  0  0  0  0  0
  -29.2774  -21.3793   20.9347 C   0  0  0  0  0  0  0  0  0  0  0  0
  -25.2931  -12.2350   21.5481 C   0  0  0  0  0  0  0  0  0  0  0  0
  -29.6933  -19.6094   22.1714 C   0  0  0  0  0  0  0  0  0  0  0  0
  -29.4486  -21.7267   23.4773 C   0  0  0  0  0  0  0  0  0  0  0  0
  -21.5685  -24.6543   21.0771 C   0  0  0  0  0  0  0  0  0  0  0  0
  -23.0504  -24.9148   18.2033 C   0  0  0  0  0  0  0  0  0  0  0  0
  -25.0687  -23.4962   15.8452 C   0  0  0  0  0  0  0  0  0  0  0  0
  -28.1481  -15.4935   18.1065 C   0  0  0  0  0  0  0  0  0  0  0  0
  -18.8322  -28.6948   22.5753 C   0  0  0  0  0  0  0  0  0  0  0  0
  -23.9404  -24.0456   21.6769 C   0  0  0  0  0  0  0  0  0  0  0  0
  -23.0209  -22.6212   19.2540 C   0  0  0  0  0  0  0  0  0  0  0  0
  -19.1684  -28.0388   21.2385 C   0  0  0  0  0  0  0  0  0  0  0  0
  -31.4421  -16.3009   19.1903 C   0  0  0  0  0  0  0  0  0  0  0  0
  -18.9239  -26.5346   21.3055 C   0  0  0  0  0  0  0  0  0  0  0  0
  -31.2782  -17.6563   19.8803 C   0  0  0  0  0  0  0  0  0  0  0  0
  -30.5269  -16.1722   17.9746 C   0  0  0  0  0  0  0  0  0  0  0  0
  -28.9372  -17.7940   18.9319 C   0  0  0  0  0  0  0  0  0  0  0  0
  -19.8216  -25.8762   22.3601 C   0  0  1  0  0  0  0  0  0  0  0  0
  -23.0117  -24.7046   20.6617 C   0  0  1  0  0  0  0  0  0  0  0  0
  -29.7992  -17.9493   20.1964 C   0  0  2  0  0  0  0  0  0  0  0  0
  -24.3280  -13.9832   23.0509 C   0  0  0  0  0  0  0  0  0  0  0  0
  -25.1887  -11.1981   22.6086 C   0  0  0  0  0  0  0  0  0  0  0  0
  -26.0691  -23.9358   13.5861 C   0  0  0  0  0  0  0  0  0  0  0  0
  -20.3495  -24.3515   16.9003 C   0  0  0  0  0  0  0  0  0  0  0  0
  -21.5603  -23.8641   14.7638 C   0  0  0  0  0  0  0  0  0  0  0  0
  -21.6954  -26.1377   15.7811 C   0  0  0  0  0  0  0  0  0  0  0  0
  -27.8269  -23.3054   16.9011 C   0  0  0  0  0  0  0  0  0  0  0  0
  -25.7352  -14.9531   18.3182 C   0  0  0  0  0  0  0  0  0  0  0  0
  -23.3169  -16.2574   20.5528 C   0  0  0  0  0  0  0  0  0  0  0  0
  -23.3345  -17.7661   20.3722 C   0  0  0  0  0  0  0  0  0  1  0  0
  -22.9277  -24.2174   16.8701 C   0  0  1  0  0  0  0  0  0  0  0  0
  -26.2697  -24.0367   15.0902 C   0  0  2  0  0  0  0  0  0  0  0  0
  -21.6395  -24.6283   16.1026 C   0  0  0  0  0  0  0  0  0  0  0  0
  -29.3705  -20.3742   20.0599 N   0  0  0  0  0  0  0  0  0  0  0  0
  -29.6241  -19.3114   20.8422 N   0  0  0  0  0  0  0  0  0  0  0  0
  -25.8020  -11.8511   20.3694 N   0  3  0  0  0  0  0  0  0  0  0  0
  -23.0960  -24.0893   19.3356 N   0  0  0  0  0  0  0  0  0  0  0  0
  -29.1386  -16.4610   18.3425 N   0  0  0  0  0  0  0  0  0  0  0  0
  -29.9403  -18.6583   23.0970 N   0  0  0  0  0  0  0  0  0  0  0  0
  -29.2046  -23.1043   23.3934 N   0  0  0  0  0  0  0  0  0  0  0  0
  -24.6457  -15.7717   20.8466 N   0  0  0  0  0  0  0  0  0  0  0  0
  -21.1689  -25.7251   21.8537 N   0  0  0  0  0  0  0  0  0  0  0  0
  -24.1660  -24.4930   16.1497 N   0  0  0  0  0  0  0  0  0  0  0  0
  -26.8599  -15.8453   18.4906 N   0  0  0  0  0  0  0  0  0  0  0  0
  -27.4965  -23.2722   15.4531 N   0  3  0  0  0  0  0  0  0  0  0  0
  -29.6566  -21.2073   24.6000 O   0  0  0  0  0  0  0  0  0  0  0  0
  -20.8690  -23.7143   20.7183 O   0  0  0  0  0  0  0  0  0  0  0  0
  -23.1109  -26.1464   18.2382 O   0  0  0  0  0  0  0  0  0  0  0  0
  -24.9421  -22.3080   16.1325 O   0  0  0  0  0  0  0  0  0  0  0  0
  -28.3945  -14.3952   17.5966 O   0  0  0  0  0  0  0  0  0  0  0  0
  -28.2216  -26.5702   19.1441 O   0  0  0  0  0  0  0  0  0  0  0  0
  -23.7903  -18.3836   21.5753 O   0  0  0  0  0  0  0  0  0  1  0  0
  -24.4460  -29.5118   21.8820 F   0  0  0  0  0  0  0  0  0  0  0  0
  -28.5435  -27.1425   21.8296 F   0  0  0  0  0  0  0  0  0  0  0  0
  1  2  1  0  0  0  0
  1  5  2  0  0  0  0
  2  6  2  0  0  0  0
  3  8  2  0  0  0  0
  3 16  1  0  0  0  0
  4  9  1  0  0  0  0
  4 16  2  0  0  0  0
  5 18  1  0  0  0  0
  6 20  1  0  0  0  0
  7 10  2  0  0  0  0
  7 19  1  0  0  0  0
  8 25  1  0  0  0  0
  9 25  2  0  0  0  0
 10 26  1  0  0  0  0
 11 12  2  0  0  0  0
 11 27  1  0  0  0  0
 12 28  1  0  0  0  0
 13 21  1  0  0  0  0
 13 26  2  0  0  0  0
 14 28  2  0  0  0  0
 14 29  1  0  0  0  0
 15 22  2  0  0  0  0
 15 65  1  0  0  0  0
 16 30  1  0  0  0  0
 17 30  1  0  0  0  0
 17 32  2  0  0  0  0
 17 33  1  0  0  0  0
 18 20  2  0  0  0  0
 18 38  1  0  0  0  0
 19 21  2  0  0  0  0
 19 39  1  0  0  0  0
 20 47  1  0  0  0  0
 21 40  1  0  0  0  0
 22 24  1  0  0  0  0
 22 57  1  0  0  0  0
 23 24  2  0  0  0  0
 23 31  1  0  0  0  0
 23 50  1  0  0  0  0
 24 70  1  0  0  0  0
 25 80  1  0  0  0  0
 26 81  1  0  0  0  0
 27 29  2  0  0  0  0
 27 80  1  0  0  0  0
 28 82  1  0  0  0  0
 29 83  1  0  0  0  0
 30 63  2  0  0  0  0
 31 51  1  0  0  0  0
 31 65  2  0  0  0  0
 32 64  1  0  0  0  0
 32 68  1  0  0  0  0
 33 69  1  0  0  0  0
 33 75  2  0  0  0  0
 34 48  1  0  0  0  0
 34 71  1  0  0  0  0
 34 76  2  0  0  0  0
 35 60  1  0  0  0  0
 35 66  1  0  0  0  0
 35 77  2  0  0  0  0
 36 61  1  0  0  0  0
 36 72  1  0  0  0  0
 36 78  2  0  0  0  0
 37 67  1  0  0  0  0
 37 73  1  0  0  0  0
 37 79  2  0  0  0  0
 38 41  1  0  0  0  0
 39 48  1  0  0  0  0
 40 66  1  0  0  0  0
 41 43  1  0  0  0  0
 42 44  1  0  0  0  0
 42 45  1  0  0  0  0
 43 47  1  0  0  0  0
 44 49  1  0  0  0  0
 45 67  1  0  0  0  0
 46 49  1  0  0  0  0
 46 67  1  0  0  0  0
 47 71  1  0  0  0  0
 48 66  1  0  0  0  0
 49 64  1  0  0  0  0
 52 61  1  0  0  0  0
 53 62  1  0  0  0  0
 54 62  1  0  0  0  0
 55 62  1  0  0  0  0
 56 74  1  0  0  0  0
 57 73  1  0  0  0  0
 58 59  1  0  0  0  0
 58 70  1  0  0  0  0
 59 81  1  0  0  0  0
 60 62  1  0  0  0  0
 60 72  1  0  0  0  0
 61 74  1  0  0  0  0
 63 64  1  0  0  0  0
M  CHG  2  65   1  74   1
M  ISO  4  37 100  59 101  73 100  81 101
M  END
> <Batch ID>
0106

> <Smiles>
CNC(C)C(=O)NC(C(=O)N1Cc2cc([101O:1][101CH2:1]CNc3c(C[100NH:0][100C:0](=O)N4CCCC(n5nc(-c6ccc(Oc7ccc(F)cc7F)cc6)c(C(N)=O)c5N)C4)cnc(C)c3C)ccc2CC1C(=O)NC1CCCc2ccccc21)C(C)(C)C

> <Shape>
0.186

> <Color>
0.080

> <Negative vol penalty>
0.000

$$$$

  -OEChem-04052319483D

 82 90  0     1  0  0  0  0  0999 V2000
  -16.8162  -25.0087   23.6351 C   0  0  0  0  0  0  0  0  0  0  0  0
  -17.8779  -24.1296   23.8226 C   0  0  0  0  0  0  0  0  0  0  0  0
  -22.8600  -16.3151   19.8902 C   0  0  0  0  0  0  0  0  0  0  0  0
  -24.4973  -16.8408   21.5872 C   0  0  0  0  0  0  0  0  0  0  0  0
  -16.9535  -26.0906   22.7664 C   0  0  0  0  0  0  0  0  0  0  0  0
  -19.0774  -24.3313   23.1406 C   0  0  0  0  0  0  0  0  0  0  0  0
  -26.1467  -23.4579   23.9007 C   0  0  0  0  0  0  0  0  0  0  0  0
  -22.2392  -17.5451   20.1080 C   0  0  0  0  0  0  0  0  0  0  0  0
  -23.8766  -18.0708   21.8050 C   0  0  0  0  0  0  0  0  0  0  0  0
  -27.2390  -22.8928   23.2438 C   0  0  0  0  0  0  0  0  0  0  0  0
  -22.5120  -21.1964   23.0613 C   0  0  0  0  0  0  0  0  0  0  0  0
  -22.3058  -21.5936   24.3824 C   0  0  0  0  0  0  0  0  0  0  0  0
  -27.3883  -24.8409   21.8289 C   0  0  0  0  0  0  0  0  0  0  0  0
  -20.9479  -19.6314   24.7605 C   0  0  0  0  0  0  0  0  0  0  0  0
  -23.9890  -15.9629   20.6298 C   0  0  0  0  0  0  0  0  0  0  0  0
  -24.0595  -13.4140   20.5543 C   0  0  0  0  0  0  0  0  0  0  0  0
  -18.1584  -26.3111   22.0808 C   0  0  0  0  0  0  0  0  0  0  0  0
  -25.6595  -24.7161   23.5187 C   0  0  0  0  0  0  0  0  0  0  0  0
  -19.2305  -25.4163   22.2609 C   0  0  0  0  0  0  0  0  0  0  0  0
  -26.2914  -25.4209   22.4842 C   0  0  0  0  0  0  0  0  0  0  0  0
  -22.7476  -18.4229   21.0654 C   0  0  0  0  0  0  0  0  0  0  0  0
  -27.8581  -23.5830   22.2059 C   0  0  0  0  0  0  0  0  0  0  0  0
  -21.9360  -20.0167   22.5897 C   0  0  0  0  0  0  0  0  0  0  0  0
  -21.5238  -20.8111   25.2320 C   0  0  0  0  0  0  0  0  0  0  0  0
  -21.1540  -19.2342   23.4393 C   0  0  0  0  0  0  0  0  0  0  0  0
  -24.6303  -14.6922   20.4056 C   0  0  0  0  0  0  0  0  0  0  0  0
  -25.0713  -12.5457   20.2244 C   0  0  0  0  0  0  0  0  0  0  0  0
  -22.7333  -13.0445   20.9547 C   0  0  0  0  0  0  0  0  0  0  0  0
  -22.9045  -25.7971   22.3588 C   0  0  0  0  0  0  0  0  0  0  0  0
  -24.3216  -28.6884   22.7515 C   0  0  0  0  0  0  0  0  0  0  0  0
  -28.8819  -21.3269   20.0054 C   0  0  0  0  0  0  0  0  0  0  0  0
  -27.2097  -30.4883   23.0094 C   0  0  0  0  0  0  0  0  0  0  0  0
  -29.0365  -16.1336   18.4381 C   0  0  0  0  0  0  0  0  0  0  0  0
  -18.2437  -27.4673   21.1161 C   0  0  0  0  0  0  0  0  0  0  0  0
  -24.4971  -25.3236   24.2550 C   0  0  0  0  0  0  0  0  0  0  0  0
  -25.8196  -26.7835   22.0495 C   0  0  0  0  0  0  0  0  0  0  0  0
  -19.6734  -27.8241   20.7177 C   0  0  0  0  0  0  0  0  0  0  0  0
  -29.0181  -13.7657   21.3356 C   0  0  0  0  0  0  0  0  0  0  0  0
  -20.4572  -26.5657   20.3583 C   0  0  0  0  0  0  0  0  0  0  0  0
  -28.4186  -12.5194   20.6875 C   0  0  0  0  0  0  0  0  0  0  0  0
  -29.7607  -14.6093   20.3087 C   0  0  0  0  0  0  0  0  0  0  0  0
  -29.3870  -19.5756   18.3380 C   0  0  0  0  0  0  0  0  0  0  0  0
  -28.1248  -18.9312   20.3740 C   0  0  0  0  0  0  0  0  0  0  0  0
  -30.2211  -18.3080   18.4695 C   0  0  0  0  0  0  0  0  0  0  0  0
  -28.9494  -17.6463   20.4716 C   0  0  0  0  0  0  0  0  0  0  0  0
  -28.2827  -13.7835   18.4974 C   0  0  0  0  0  0  0  0  0  0  0  0
  -20.5558  -25.6157   21.5580 C   0  0  1  0  0  0  0  0  0  0  0  0
  -23.7638  -26.3858   23.4417 C   0  0  1  0  0  0  0  0  0  0  0  0
  -27.5295  -12.8588   19.4747 C   0  0  2  0  0  0  0  0  0  0  0  0
  -28.0490  -32.8369   23.2867 C   0  0  0  0  0  0  0  0  0  0  0  0
  -31.4919  -21.6991   21.3526 C   0  0  0  0  0  0  0  0  0  0  0  0
  -30.3837  -21.3677   23.5732 C   0  0  0  0  0  0  0  0  0  0  0  0
  -23.6793  -29.2610   19.8241 C   0  0  0  0  0  0  0  0  0  0  0  0
  -25.3307  -31.1412   19.9019 C   0  0  0  0  0  0  0  0  0  0  0  0
  -23.3142  -31.1931   21.3694 C   0  0  0  0  0  0  0  0  0  0  0  0
  -28.5502  -29.8311   25.5648 C   0  0  0  0  0  0  0  0  0  0  0  0
  -25.1883  -29.5794   21.8948 C   0  0  1  0  0  0  0  0  0  0  0  0
  -28.9776  -21.6132   21.4830 C   0  0  1  0  0  0  0  0  0  1  0  0
  -27.6475  -31.5540   23.9979 C   0  0  2  0  0  0  0  0  0  0  0  0
  -30.2872  -21.0835   22.0720 C   0  0  0  0  0  0  0  0  0  0  0  0
  -24.3861  -30.2672   20.7542 C   0  0  0  0  0  0  0  0  0  0  0  0
  -25.9058  -14.6448   20.0121 N   0  0  0  0  0  0  0  0  0  0  0  0
  -26.1449  -13.3263   19.9108 N   0  0  0  0  0  0  0  0  0  0  0  0
  -24.6755  -27.3325   22.7960 N   0  0  0  0  0  0  0  0  0  0  0  0
  -28.8305  -19.9832   19.6307 N   0  0  0  0  0  0  0  0  0  0  0  0
  -28.9115  -14.9319   19.1563 N   0  0  0  0  0  0  0  0  0  0  0  0
  -29.4699  -17.2590   19.1552 N   0  0  0  0  0  0  0  0  0  0  0  0
  -25.1386  -11.1983   20.1750 N   0  0  0  0  0  0  0  0  0  0  0  0
  -22.4777  -12.8475   22.3186 N   0  0  0  0  0  0  0  0  0  0  0  0
  -21.5589  -26.0822   22.4910 N   0  0  0  0  0  0  0  0  0  0  0  0
  -25.8459  -30.5087   22.8072 N   0  0  0  0  0  0  0  0  0  0  0  0
  -28.8118  -31.0743   24.7948 N   0  3  0  0  0  0  0  0  0  0  0  0
  -21.8066  -12.8776   20.1260 O   0  0  0  0  0  0  0  0  0  0  0  0
  -23.4240  -25.1345   21.4684 O   0  0  0  0  0  0  0  0  0  0  0  0
  -23.3701  -29.1788   23.3645 O   0  0  0  0  0  0  0  0  0  0  0  0
  -28.8573  -22.2691   19.2094 O   0  0  0  0  0  0  0  0  0  0  0  0
  -27.9990  -29.7174   22.4679 O   0  0  0  0  0  0  0  0  0  0  0  0
  -28.7646  -16.1969   17.2327 O   0  0  0  0  0  0  0  0  0  0  0  0
  -22.1423  -19.6233   21.2781 O   0  0  0  0  0  0  0  0  0  0  0  0
  -28.9327  -23.0289   21.5573 O   0  0  0  0  0  0  0  0  0  1  0  0
  -21.3272  -21.1919   26.5011 F   0  0  0  0  0  0  0  0  0  0  0  0
  -20.5991  -18.0993   22.9924 F   0  0  0  0  0  0  0  0  0  0  0  0
  1  2  1  0  0  0  0
  1  5  2  0  0  0  0
  2  6  2  0  0  0  0
  3  8  2  0  0  0  0
  3 15  1  0  0  0  0
  4  9  1  0  0  0  0
  4 15  2  0  0  0  0
  5 17  1  0  0  0  0
  6 19  1  0  0  0  0
  7 10  2  0  0  0  0
  7 18  1  0  0  0  0
  8 21  1  0  0  0  0
  9 21  2  0  0  0  0
 10 22  1  0  0  0  0
 11 12  2  0  0  0  0
 11 23  1  0  0  0  0
 12 24  1  0  0  0  0
 13 20  1  0  0  0  0
 13 22  2  0  0  0  0
 14 24  2  0  0  0  0
 14 25  1  0  0  0  0
 15 26  1  0  0  0  0
 16 26  1  0  0  0  0
 16 27  2  0  0  0  0
 16 28  1  0  0  0  0
 17 19  2  0  0  0  0
 17 34  1  0  0  0  0
 18 20  2  0  0  0  0
 18 35  1  0  0  0  0
 19 47  1  0  0  0  0
 20 36  1  0  0  0  0
 21 79  1  0  0  0  0
 22 80  1  0  0  0  0
 23 25  2  0  0  0  0
 23 79  1  0  0  0  0
 24 81  1  0  0  0  0
 25 82  1  0  0  0  0
 26 62  2  0  0  0  0
 27 63  1  0  0  0  0
 27 68  1  0  0  0  0
 28 69  1  0  0  0  0
 28 73  2  0  0  0  0
 29 48  1  0  0  0  0
 29 70  1  0  0  0  0
 29 74  2  0  0  0  0
 30 57  1  0  0  0  0
 30 64  1  0  0  0  0
 30 75  2  0  0  0  0
 31 58  1  0  0  0  0
 31 65  1  0  0  0  0
 31 76  2  0  0  0  0
 32 59  1  0  0  0  0
 32 71  1  0  0  0  0
 32 77  2  0  0  0  0
 33 66  1  0  0  0  0
 33 67  1  0  0  0  0
 33 78  2  0  0  0  0
 34 37  1  0  0  0  0
 35 48  1  0  0  0  0
 36 64  1  0  0  0  0
 37 39  1  0  0  0  0
 38 40  1  0  0  0  0
 38 41  1  0  0  0  0
 39 47  1  0  0  0  0
 40 49  1  0  0  0  0
 41 66  1  0  0  0  0
 42 44  1  0  0  0  0
 42 65  1  0  0  0  0
 43 45  1  0  0  0  0
 43 65  1  0  0  0  0
 44 67  1  0  0  0  0
 45 67  1  0  0  0  0
 46 49  1  0  0  0  0
 46 66  1  0  0  0  0
 47 70  1  0  0  0  0
 48 64  1  0  0  0  0
 49 63  1  0  0  0  0
 50 59  1  0  0  0  0
 51 60  1  0  0  0  0
 52 60  1  0  0  0  0
 53 61  1  0  0  0  0
 54 61  1  0  0  0  0
 55 61  1  0  0  0  0
 56 72  1  0  0  0  0
 57 61  1  0  0  0  0
 57 71  1  0  0  0  0
 58 60  1  0  0  0  0
 58 80  1  0  0  0  0
 59 72  1  0  0  0  0
 62 63  1  0  0  0  0
M  CHG  1  72   1
M  ISO  4  33 100  58 101  67 100  80 101
M  END
> <Batch ID>
0106

> <Smiles>
CNC(C)C(=O)NC(C(=O)N1Cc2cc([101O:1][101CH:1](C(=O)N3CC[100N:0]([100C:0](=O)N4CCCC(n5nc(-c6ccc(Oc7ccc(F)cc7F)cc6)c(C(N)=O)c5N)C4)CC3)C(C)C)ccc2CC1C(=O)NC1CCCc2ccccc21)C(C)(C)C

> <Shape>
0.244

> <Color>
0.072

> <Negative vol penalty>
0.000

$$$$

  -OEChem-04052319483D

 80 88  0     1  0  0  0  0  0999 V2000
  -29.9186  -24.7845   17.6060 C   0  0  0  0  0  0  0  0  0  0  0  0
  -28.5337  -24.8820   17.6955 C   0  0  0  0  0  0  0  0  0  0  0  0
  -25.8265  -13.5812   21.9512 C   0  0  0  0  0  0  0  0  0  0  0  0
  -25.5701  -14.5177   19.7389 C   0  0  0  0  0  0  0  0  0  0  0  0
  -30.7179  -25.2522   18.6482 C   0  0  0  0  0  0  0  0  0  0  0  0
  -27.9473  -25.4464   18.8278 C   0  0  0  0  0  0  0  0  0  0  0  0
  -22.8416  -28.8220   19.0350 C   0  0  0  0  0  0  0  0  0  0  0  0
  -25.1069  -12.4532   21.5570 C   0  0  0  0  0  0  0  0  0  0  0  0
  -24.8506  -13.3897   19.3447 C   0  0  0  0  0  0  0  0  0  0  0  0
  -21.5214  -28.5073   19.3541 C   0  0  0  0  0  0  0  0  0  0  0  0
  -25.6803   -9.6204   19.8021 C   0  0  0  0  0  0  0  0  0  0  0  0
  -26.1821   -8.3713   20.1672 C   0  0  0  0  0  0  0  0  0  0  0  0
  -21.8946  -29.2616   21.6149 C   0  0  0  0  0  0  0  0  0  0  0  0
  -24.1513   -7.9140   21.3935 C   0  0  0  0  0  0  0  0  0  0  0  0
  -26.0580  -14.6135   21.0421 C   0  0  0  0  0  0  0  0  0  0  0  0
  -28.1931  -15.9709   21.3684 C   0  0  0  0  0  0  0  0  0  0  0  0
  -30.1414  -25.8313   19.7896 C   0  0  0  0  0  0  0  0  0  0  0  0
  -23.7027  -29.3495   20.0079 C   0  0  0  0  0  0  0  0  0  0  0  0
  -28.7396  -25.9210   19.8868 C   0  0  0  0  0  0  0  0  0  0  0  0
  -23.2245  -29.5845   21.3049 C   0  0  0  0  0  0  0  0  0  0  0  0
  -24.6190  -12.3574   20.2538 C   0  0  0  0  0  0  0  0  0  0  0  0
  -21.0485  -28.7244   20.6450 C   0  0  0  0  0  0  0  0  0  0  0  0
  -24.4140  -10.0165   20.2328 C   0  0  0  0  0  0  0  0  0  0  0  0
  -25.4176   -7.5180   20.9629 C   0  0  0  0  0  0  0  0  0  0  0  0
  -23.6495   -9.1632   21.0285 C   0  0  0  0  0  0  0  0  0  0  0  0
  -26.8008  -15.7793   21.4488 C   0  0  0  0  0  0  0  0  0  0  0  0
  -28.3963  -17.2305   21.8771 C   0  0  0  0  0  0  0  0  0  0  0  0
  -29.2117  -15.0893   20.8776 C   0  0  0  0  0  0  0  0  0  0  0  0
  -26.4202  -28.3956   21.3529 C   0  0  0  0  0  0  0  0  0  0  0  0
  -26.3144  -31.3305   22.7306 C   0  0  0  0  0  0  0  0  0  0  0  0
  -24.4313  -33.9942   23.7330 C   0  0  0  0  0  0  0  0  0  0  0  0
  -24.8849  -21.9675   22.1709 C   0  0  0  0  0  0  0  0  0  0  0  0
  -31.0446  -26.2797   20.9112 C   0  0  0  0  0  0  0  0  0  0  0  0
  -25.1164  -29.7087   19.6406 C   0  0  0  0  0  0  0  0  0  0  0  0
  -24.1028  -30.1678   22.3804 C   0  0  0  0  0  0  0  0  0  0  0  0
  -30.3587  -27.2053   21.9126 C   0  0  0  0  0  0  0  0  0  0  0  0
  -26.5252  -20.3661   24.9714 C   0  0  0  0  0  0  0  0  0  0  0  0
  -28.9938  -26.6490   22.3057 C   0  0  0  0  0  0  0  0  0  0  0  0
  -26.9144  -19.0167   24.3648 C   0  0  0  0  0  0  0  0  0  0  0  0
  -19.8594  -25.2424   24.2169 C   0  0  0  0  0  0  0  0  0  0  0  0
  -25.1666  -20.8323   24.4567 C   0  0  0  0  0  0  0  0  0  0  0  0
  -25.4523  -19.5626   22.3638 C   0  0  0  0  0  0  0  0  0  0  0  0
  -28.0671  -26.5495   21.0880 C   0  0  1  0  0  0  0  0  0  0  0  0
  -26.0518  -29.7608   20.8447 C   0  0  1  0  0  0  0  0  0  0  0  0
  -20.0615  -26.1586   23.0396 C   0  0  1  0  0  0  0  0  0  0  0  0
  -26.8269  -19.0473   22.8274 C   0  0  2  0  0  0  0  0  0  0  0  0
  -20.6282  -24.7641   23.0151 C   0  0  1  0  0  0  0  0  0  0  0  0
  -24.6210  -36.2271   24.8624 C   0  0  0  0  0  0  0  0  0  0  0  0
  -18.2316  -27.0021   19.7764 C   0  0  0  0  0  0  0  0  0  0  0  0
  -26.6185  -29.9374   25.4281 C   0  0  0  0  0  0  0  0  0  0  0  0
  -25.8574  -32.0536   26.5283 C   0  0  0  0  0  0  0  0  0  0  0  0
  -27.9566  -32.0357   25.1809 C   0  0  0  0  0  0  0  0  0  0  0  0
  -23.3978  -35.4163   21.3521 C   0  0  0  0  0  0  0  0  0  0  0  0
  -18.9028  -26.5163   22.1555 C   0  0  0  0  0  0  0  0  0  0  0  0
  -24.3149  -24.3822   22.1355 C   0  0  0  0  0  0  0  0  0  0  0  0
  -22.8321  -24.5481   21.8598 C   0  0  0  0  0  0  0  0  0  0  0  0
  -25.7251  -31.8946   24.0008 C   0  0  1  0  0  0  0  0  0  0  0  0
  -24.6127  -35.4881   23.5333 C   0  0  2  0  0  0  0  0  0  0  0  0
  -19.3591  -27.0577   20.7987 C   0  0  2  0  0  0  0  0  0  1  0  0
  -26.5232  -31.4675   25.2650 C   0  0  0  0  0  0  0  0  0  0  0  0
  -26.1644  -16.8327   21.9679 N   0  0  0  0  0  0  0  0  0  0  0  0
  -27.1615  -17.6983   22.2184 N   0  0  0  0  0  0  0  0  0  0  0  0
  -25.4791  -30.4965   21.9738 N   0  0  0  0  0  0  0  0  0  0  0  0
  -25.1559  -20.8568   22.9872 N   0  0  0  0  0  0  0  0  0  0  0  0
  -29.5090  -17.9723   22.0615 N   0  0  0  0  0  0  0  0  0  0  0  0
  -28.8293  -13.8320   20.3905 N   0  0  0  0  0  0  0  0  0  0  0  0
  -27.5377  -27.8527   20.7480 N   0  0  0  0  0  0  0  0  0  0  0  0
  -25.6418  -33.3380   23.8062 N   0  0  0  0  0  0  0  0  0  0  0  0
  -24.6071  -23.1534   22.8396 N   0  0  0  0  0  0  0  0  0  0  0  0
  -22.0824  -24.6197   23.1512 N   0  3  0  0  0  0  0  0  0  0  0  0
  -23.5077  -36.0369   22.6973 N   0  3  0  0  0  0  0  0  0  0  0  0
  -30.4269  -15.4006   20.8864 O   0  0  0  0  0  0  0  0  0  0  0  0
  -25.7418  -27.8741   22.2301 O   0  0  0  0  0  0  0  0  0  0  0  0
  -27.4707  -31.6248   22.4175 O   0  0  0  0  0  0  0  0  0  0  0  0
  -23.3263  -33.4631   23.8194 O   0  0  0  0  0  0  0  0  0  0  0  0
  -24.8952  -21.9082   20.9366 O   0  0  0  0  0  0  0  0  0  0  0  0
  -23.9170  -11.2567   19.8688 O   0  0  0  0  0  0  0  0  0  0  0  0
  -19.7606  -28.4176   20.9594 O   0  0  0  0  0  0  0  0  0  1  0  0
  -25.8989   -6.3178   21.3121 F   0  0  0  0  0  0  0  0  0  0  0  0
  -22.4319   -9.5377   21.4443 F   0  0  0  0  0  0  0  0  0  0  0  0
  1  2  1  0  0  0  0
  1  5  2  0  0  0  0
  2  6  2  0  0  0  0
  3  8  2  0  0  0  0
  3 15  1  0  0  0  0
  4  9  1  0  0  0  0
  4 15  2  0  0  0  0
  5 17  1  0  0  0  0
  6 19  1  0  0  0  0
  7 10  2  0  0  0  0
  7 18  1  0  0  0  0
  8 21  1  0  0  0  0
  9 21  2  0  0  0  0
 10 22  1  0  0  0  0
 11 12  2  0  0  0  0
 11 23  1  0  0  0  0
 12 24  1  0  0  0  0
 13 20  1  0  0  0  0
 13 22  2  0  0  0  0
 14 24  2  0  0  0  0
 14 25  1  0  0  0  0
 15 26  1  0  0  0  0
 16 26  1  0  0  0  0
 16 27  2  0  0  0  0
 16 28  1  0  0  0  0
 17 19  2  0  0  0  0
 17 33  1  0  0  0  0
 18 20  2  0  0  0  0
 18 34  1  0  0  0  0
 19 43  1  0  0  0  0
 20 35  1  0  0  0  0
 21 77  1  0  0  0  0
 22 78  1  0  0  0  0
 23 25  2  0  0  0  0
 23 77  1  0  0  0  0
 24 79  1  0  0  0  0
 25 80  1  0  0  0  0
 26 61  2  0  0  0  0
 27 62  1  0  0  0  0
 27 65  1  0  0  0  0
 28 66  1  0  0  0  0
 28 72  2  0  0  0  0
 29 44  1  0  0  0  0
 29 67  1  0  0  0  0
 29 73  2  0  0  0  0
 30 57  1  0  0  0  0
 30 63  1  0  0  0  0
 30 74  2  0  0  0  0
 31 58  1  0  0  0  0
 31 68  1  0  0  0  0
 31 75  2  0  0  0  0
 32 64  1  0  0  0  0
 32 69  1  0  0  0  0
 32 76  2  0  0  0  0
 33 36  1  0  0  0  0
 34 44  1  0  0  0  0
 35 63  1  0  0  0  0
 36 38  1  0  0  0  0
 37 39  1  0  0  0  0
 37 41  1  0  0  0  0
 38 43  1  0  0  0  0
 39 46  1  0  0  0  0
 40 45  1  0  0  0  0
 40 47  1  0  0  0  0
 41 64  1  0  0  0  0
 42 46  1  0  0  0  0
 42 64  1  0  0  0  0
 43 67  1  0  0  0  0
 44 63  1  0  0  0  0
 45 47  1  0  0  0  0
 45 54  1  0  0  0  0
 46 62  1  0  0  0  0
 47 70  1  0  0  0  0
 48 58  1  0  0  0  0
 49 59  1  0  0  0  0
 50 60  1  0  0  0  0
 51 60  1  0  0  0  0
 52 60  1  0  0  0  0
 53 71  1  0  0  0  0
 54 59  1  0  0  0  0
 55 56  1  0  0  0  0
 55 69  1  0  0  0  0
 56 70  1  0  0  0  0
 57 60  1  0  0  0  0
 57 68  1  0  0  0  0
 58 71  1  0  0  0  0
 59 78  1  0  0  0  0
 61 62  1  0  0  0  0
M  CHG  2  70   1  71   1
M  ISO  4  32 100  59 101  69 100  78 101
M  END
> <Batch ID>
0106

> <Smiles>
CNC(C)C(=O)NC(C(=O)N1Cc2cc([101O:1][101CH:1](C)CC3CC3NCC[100NH:0][100C:0](=O)N3CCCC(n4nc(-c5ccc(Oc6ccc(F)cc6F)cc5)c(C(N)=O)c4N)C3)ccc2CC1C(=O)NC1CCCc2ccccc21)C(C)(C)C

> <Shape>
0.299

> <Color>
0.062

> <Negative vol penalty>
0.000

$$$$

  -OEChem-04052319483D

 90 98  0     1  0  0  0  0  0999 V2000
  -25.8284   -7.4808   19.2571 C   0  0  0  0  0  0  0  0  0  0  0  0
  -26.3089   -8.6260   18.6301 C   0  0  0  0  0  0  0  0  0  0  0  0
  -23.1039  -30.9139   21.3551 C   0  0  0  0  0  0  0  0  0  0  0  0
  -22.8068  -28.8333   22.5468 C   0  0  0  0  0  0  0  0  0  0  0  0
  -24.8673   -7.5885   20.2614 C   0  0  0  0  0  0  0  0  0  0  0  0
  -25.8276   -9.8795   19.0063 C   0  0  0  0  0  0  0  0  0  0  0  0
  -28.9733  -15.1313   19.1773 C   0  0  0  0  0  0  0  0  0  0  0  0
  -21.7323  -30.9678   21.1072 C   0  0  0  0  0  0  0  0  0  0  0  0
  -21.4352  -28.8872   22.2989 C   0  0  0  0  0  0  0  0  0  0  0  0
  -29.0658  -16.1988   18.2852 C   0  0  0  0  0  0  0  0  0  0  0  0
  -18.7420  -30.5035   23.5459 C   0  0  0  0  0  0  0  0  0  0  0  0
  -17.8817  -30.2198   24.6065 C   0  0  0  0  0  0  0  0  0  0  0  0
  -27.3754  -17.3818   19.5351 C   0  0  0  0  0  0  0  0  0  0  0  0
  -28.4692  -21.4615   18.2523 C   0  0  0  0  0  0  0  0  0  0  0  0
  -30.8661  -21.2917   18.5032 C   0  0  0  0  0  0  0  0  0  0  0  0
  -16.9458  -28.3776   23.3545 C   0  0  0  0  0  0  0  0  0  0  0  0
  -23.6412  -29.8466   22.0748 C   0  0  0  0  0  0  0  0  0  0  0  0
  -25.7441  -30.3257   23.4371 C   0  0  0  0  0  0  0  0  0  0  0  0
  -24.3811   -8.8446   20.6567 C   0  0  0  0  0  0  0  0  0  0  0  0
  -28.0718  -15.1766   20.2505 C   0  0  0  0  0  0  0  0  0  0  0  0
  -24.8581  -10.0040   20.0159 C   0  0  0  0  0  0  0  0  0  0  0  0
  -27.2752  -16.3147   20.4408 C   0  0  0  0  0  0  0  0  0  0  0  0
  -29.6968  -20.9617   17.8179 C   0  0  0  0  0  0  0  0  0  0  0  0
  -28.4108  -22.2915   19.3718 C   0  0  0  0  0  0  0  0  0  0  0  0
  -29.5800  -22.6215   20.0571 C   0  0  0  0  0  0  0  0  0  0  0  0
  -20.8980  -29.9545   21.5791 C   0  0  0  0  0  0  0  0  0  0  0  0
  -28.2647  -17.3230   18.4624 C   0  0  0  0  0  0  0  0  0  0  0  0
  -18.7042  -29.7244   22.3895 C   0  0  0  0  0  0  0  0  0  0  0  0
  -16.9836  -29.1569   24.5108 C   0  0  0  0  0  0  0  0  0  0  0  0
  -30.8077  -22.1216   19.6228 C   0  0  0  0  0  0  0  0  0  0  0  0
  -17.8061  -28.6614   22.2938 C   0  0  0  0  0  0  0  0  0  0  0  0
  -25.0580  -29.7901   22.3307 C   0  0  0  0  0  0  0  0  0  0  0  0
  -27.0610  -30.0074   23.2115 C   0  0  0  0  0  0  0  0  0  0  0  0
  -25.2363  -31.0463   24.5679 C   0  0  0  0  0  0  0  0  0  0  0  0
  -25.5492  -13.4569   21.1350 C   0  0  0  0  0  0  0  0  0  0  0  0
  -25.6872  -15.3318   23.7785 C   0  0  0  0  0  0  0  0  0  0  0  0
  -26.6801  -18.2734   25.1955 C   0  0  0  0  0  0  0  0  0  0  0  0
  -29.7251  -25.6715   20.0566 C   0  0  0  0  0  0  0  0  0  0  0  0
  -23.3076   -8.9075   21.7143 C   0  0  0  0  0  0  0  0  0  0  0  0
  -28.0033  -14.0281   21.2193 C   0  0  0  0  0  0  0  0  0  0  0  0
  -26.3060  -16.4213   21.5887 C   0  0  0  0  0  0  0  0  0  0  0  0
  -23.1239  -10.2993   22.3138 C   0  0  0  0  0  0  0  0  0  0  0  0
  -30.1584  -29.1831   19.6594 C   0  0  0  0  0  0  0  0  0  0  0  0
  -23.0698  -11.3524   21.2116 C   0  0  0  0  0  0  0  0  0  0  0  0
  -28.9623  -29.7852   20.3988 C   0  0  0  0  0  0  0  0  0  0  0  0
  -29.7860  -27.8851   18.9463 C   0  0  0  0  0  0  0  0  0  0  0  0
  -27.9563  -27.4688   20.5441 C   0  0  0  0  0  0  0  0  0  0  0  0
  -24.3788  -11.3833   20.4133 C   0  0  1  0  0  0  0  0  0  0  0  0
  -26.6824  -13.9662   21.9801 C   0  0  1  0  0  0  0  0  0  0  0  0
  -28.2965  -28.7497   21.3250 C   0  0  2  0  0  0  0  0  0  0  0  0
  -26.6177  -19.5355   27.3636 C   0  0  0  0  0  0  0  0  0  0  0  0
  -28.5131  -23.8633   23.6252 C   0  0  0  0  0  0  0  0  0  0  0  0
  -29.0224  -21.5232   22.9217 C   0  0  0  0  0  0  0  0  0  0  0  0
  -23.8559  -23.8883   17.9330 C   0  0  0  0  0  0  0  0  0  0  0  0
  -30.9854  -23.7045   21.8171 C   0  0  0  0  0  0  0  0  0  0  0  0
  -22.7548  -16.0195   23.2910 C   0  0  0  0  0  0  0  0  0  0  0  0
  -23.0198  -17.9533   24.8589 C   0  0  0  0  0  0  0  0  0  0  0  0
  -23.3489  -15.6236   25.6878 C   0  0  0  0  0  0  0  0  0  0  0  0
  -29.6332  -18.3233   25.3853 C   0  0  0  0  0  0  0  0  0  0  0  0
  -29.7605  -20.0626   16.6072 C   0  0  0  0  0  0  0  0  0  0  0  0
  -27.0849  -22.8156   19.8172 C   0  0  0  0  0  0  0  0  0  0  0  0
  -26.1246  -23.0402   18.6391 C   0  0  0  0  0  0  0  0  0  0  0  0
  -29.6176  -18.5888   16.9712 C   0  0  0  0  0  0  0  0  0  1  0  0
  -25.0928  -16.6604   24.1792 C   0  0  1  0  0  0  0  0  0  0  0  0
  -27.4086  -18.5708   26.4937 C   0  0  2  0  0  0  0  0  0  0  0  0
  -28.6176  -22.9173   22.4160 C   0  0  0  0  0  0  0  0  0  0  0  0
  -24.7900  -23.6210   19.0988 C   0  0  1  0  0  0  0  0  0  0  0  0
  -29.5385  -23.5081   21.2583 C   0  0  2  0  0  0  0  0  0  0  0  0
  -23.5709  -16.5617   24.4814 C   0  0  0  0  0  0  0  0  0  0  0  0
  -25.8718  -29.1782   21.4662 N   0  0  0  0  0  0  0  0  0  0  0  0
  -27.0829  -29.3273   22.0295 N   0  0  0  0  0  0  0  0  0  0  0  0
  -26.2710  -15.2697   22.5053 N   0  0  0  0  0  0  0  0  0  0  0  0
  -29.1608  -26.9456   19.8804 N   0  0  0  0  0  0  0  0  0  0  0  0
  -28.1908  -30.2458   23.9108 N   0  0  0  0  0  0  0  0  0  0  0  0
  -23.8576  -31.2869   24.6426 N   0  0  0  0  0  0  0  0  0  0  0  0
  -25.4064  -12.0826   21.1545 N   0  0  0  0  0  0  0  0  0  0  0  0
  -25.8939  -17.1453   25.2979 N   0  0  0  0  0  0  0  0  0  0  0  0
  -29.0741  -24.8456   20.9648 N   0  0  0  0  0  0  0  0  0  0  0  0
  -28.7414  -19.1756   26.2130 N   0  3  0  0  0  0  0  0  0  0  0  0
  -25.9852  -31.4788   25.4765 O   0  0  0  0  0  0  0  0  0  0  0  0
  -24.8548  -14.2520   20.5127 O   0  0  0  0  0  0  0  0  0  0  0  0
  -25.6418  -14.3859   24.5691 O   0  0  0  0  0  0  0  0  0  0  0  0
  -26.7940  -18.9741   24.1922 O   0  0  0  0  0  0  0  0  0  0  0  0
  -30.7375  -25.2995   19.4535 O   0  0  0  0  0  0  0  0  0  0  0  0
  -19.5595  -30.0069   21.3377 O   0  0  0  0  0  0  0  0  0  0  0  0
  -28.3525  -18.3661   17.5927 O   0  0  0  0  0  0  0  0  0  1  0  0
  -16.1586  -28.8835   25.5300 F   0  0  0  0  0  0  0  0  0  0  0  0
  -31.9372  -22.4331   20.2740 F   0  0  0  0  0  0  0  0  0  0  0  0
  -17.7659  -27.9086   21.1859 F   0  0  0  0  0  0  0  0  0  0  0  0
  -25.0252  -24.8064   19.7282 F   0  0  0  0  0  0  0  0  0  0  0  0
  1  2  1  0  0  0  0
  1  5  2  0  0  0  0
  2  6  2  0  0  0  0
  3  8  2  0  0  0  0
  3 17  1  0  0  0  0
  4  9  1  0  0  0  0
  4 17  2  0  0  0  0
  5 19  1  0  0  0  0
  6 21  1  0  0  0  0
  7 10  2  0  0  0  0
  7 20  1  0  0  0  0
  8 26  1  0  0  0  0
  9 26  2  0  0  0  0
 10 27  1  0  0  0  0
 11 12  2  0  0  0  0
 11 28  1  0  0  0  0
 12 29  1  0  0  0  0
 13 22  1  0  0  0  0
 13 27  2  0  0  0  0
 14 23  2  0  0  0  0
 14 24  1  0  0  0  0
 15 23  1  0  0  0  0
 15 30  2  0  0  0  0
 16 29  2  0  0  0  0
 16 31  1  0  0  0  0
 17 32  1  0  0  0  0
 18 32  1  0  0  0  0
 18 33  2  0  0  0  0
 18 34  1  0  0  0  0
 19 21  2  0  0  0  0
 19 39  1  0  0  0  0
 20 22  2  0  0  0  0
 20 40  1  0  0  0  0
 21 48  1  0  0  0  0
 22 41  1  0  0  0  0
 23 60  1  0  0  0  0
 24 25  2  0  0  0  0
 24 61  1  0  0  0  0
 25 30  1  0  0  0  0
 25 68  1  0  0  0  0
 26 85  1  0  0  0  0
 27 86  1  0  0  0  0
 28 31  2  0  0  0  0
 28 85  1  0  0  0  0
 29 87  1  0  0  0  0
 30 88  1  0  0  0  0
 31 89  1  0  0  0  0
 32 70  2  0  0  0  0
 33 71  1  0  0  0  0
 33 74  1  0  0  0  0
 34 75  1  0  0  0  0
 34 80  2  0  0  0  0
 35 49  1  0  0  0  0
 35 76  1  0  0  0  0
 35 81  2  0  0  0  0
 36 64  1  0  0  0  0
 36 72  1  0  0  0  0
 36 82  2  0  0  0  0
 37 65  1  0  0  0  0
 37 77  1  0  0  0  0
 37 83  2  0  0  0  0
 38 73  1  0  0  0  0
 38 78  1  0  0  0  0
 38 84  2  0  0  0  0
 39 42  1  0  0  0  0
 40 49  1  0  0  0  0
 41 72  1  0  0  0  0
 42 44  1  0  0  0  0
 43 45  1  0  0  0  0
 43 46  1  0  0  0  0
 44 48  1  0  0  0  0
 45 50  1  0  0  0  0
 46 73  1  0  0  0  0
 47 50  1  0  0  0  0
 47 73  1  0  0  0  0
 48 76  1  0  0  0  0
 49 72  1  0  0  0  0
 50 71  1  0  0  0  0
 51 65  1  0  0  0  0
 52 66  1  0  0  0  0
 53 66  1  0  0  0  0
 54 67  1  0  0  0  0
 55 68  1  0  0  0  0
 56 69  1  0  0  0  0
 57 69  1  0  0  0  0
 58 69  1  0  0  0  0
 59 79  1  0  0  0  0
 60 63  1  0  0  0  0
 61 62  1  0  0  0  0
 62 67  1  0  0  0  0
 63 86  1  0  0  0  0
 64 69  1  0  0  0  0
 64 77  1  0  0  0  0
 65 79  1  0  0  0  0
 66 68  1  0  0  0  0
 67 90  1  0  0  0  0
 68 78  1  0  0  0  0
 70 71  1  0  0  0  0
M  CHG  1  79   1
M  ISO  4  38 100  63 101  78 100  86 101
M  END
> <Batch ID>
0106

> <Smiles>
CNC(C)C(=O)NC(C(=O)N1Cc2cc([101O:1][101CH2:1]Cc3cc(F)c(C(C)([100NH:0][100C:0](=O)N4CCCC(n5nc(-c6ccc(Oc7ccc(F)cc7F)cc6)c(C(N)=O)c5N)C4)C(C)C)c(CCC(C)F)c3)ccc2CC1C(=O)NC1CCCc2ccccc21)C(C)(C)C

> <Shape>
0.251

> <Color>
0.049

> <Negative vol penalty>
0.000

$$$$

  -OEChem-04052319483D

 85 93  0     1  0  0  0  0  0999 V2000
  -18.1480  -28.1169   22.8509 C   0  0  0  0  0  0  0  0  0  0  0  0
  -19.0089  -27.0260   22.9148 C   0  0  0  0  0  0  0  0  0  0  0  0
  -23.0753   -9.8735   19.8965 C   0  0  0  0  0  0  0  0  0  0  0  0
  -23.9698   -9.6865   22.1331 C   0  0  0  0  0  0  0  0  0  0  0  0
  -18.5894  -29.3206   22.3028 C   0  0  0  0  0  0  0  0  0  0  0  0
  -20.3115  -27.1378   22.4297 C   0  0  0  0  0  0  0  0  0  0  0  0
  -25.3214  -24.4228   24.6737 C   0  0  0  0  0  0  0  0  0  0  0  0
  -22.3542   -8.6947   20.0864 C   0  0  0  0  0  0  0  0  0  0  0  0
  -23.2486   -8.5077   22.3229 C   0  0  0  0  0  0  0  0  0  0  0  0
  -26.0146  -23.2738   24.2956 C   0  0  0  0  0  0  0  0  0  0  0  0
  -20.0664   -7.6247   23.0402 C   0  0  0  0  0  0  0  0  0  0  0  0
  -19.3804   -7.4734   24.2453 C   0  0  0  0  0  0  0  0  0  0  0  0
  -27.5444  -24.6266   23.0115 C   0  0  0  0  0  0  0  0  0  0  0  0
  -20.6743   -5.4922   24.7331 C   0  0  0  0  0  0  0  0  0  0  0  0
  -29.9152  -18.3885   23.6550 C   0  0  0  0  0  0  0  0  0  0  0  0
  -23.8832  -10.3694   20.9199 C   0  0  0  0  0  0  0  0  0  0  0  0
  -24.2029  -12.8988   21.0045 C   0  0  0  0  0  0  0  0  0  0  0  0
  -19.9010  -29.4501   21.8196 C   0  0  0  0  0  0  0  0  0  0  0  0
  -25.7286  -25.6834   24.2139 C   0  0  0  0  0  0  0  0  0  0  0  0
  -20.7703  -28.3439   21.8735 C   0  0  0  0  0  0  0  0  0  0  0  0
  -26.8561  -25.7903   23.3872 C   0  0  0  0  0  0  0  0  0  0  0  0
  -29.9247  -17.8792   22.3642 C   0  0  0  0  0  0  0  0  0  0  0  0
  -28.1776  -19.4367   21.7939 C   0  0  0  0  0  0  0  0  0  0  0  0
  -29.0448  -18.4120   21.4270 C   0  0  0  0  0  0  0  0  0  0  0  0
  -22.4408   -8.0119   21.2995 C   0  0  0  0  0  0  0  0  0  0  0  0
  -27.1246  -23.3753   23.4620 C   0  0  0  0  0  0  0  0  0  0  0  0
  -21.0563   -6.7097   22.6815 C   0  0  0  0  0  0  0  0  0  0  0  0
  -19.6844   -6.4072   25.0917 C   0  0  0  0  0  0  0  0  0  0  0  0
  -21.3603   -5.6435   23.5280 C   0  0  0  0  0  0  0  0  0  0  0  0
  -24.6289  -11.5866   20.7242 C   0  0  0  0  0  0  0  0  0  0  0  0
  -28.2122  -19.9065   23.0991 C   0  0  0  0  0  0  0  0  0  0  0  0
  -25.2674  -13.6893   20.6458 C   0  0  0  0  0  0  0  0  0  0  0  0
  -22.9566  -13.3618   21.5411 C   0  0  0  0  0  0  0  0  0  0  0  0
  -24.4024  -27.9570   22.4318 C   0  0  0  0  0  0  0  0  0  0  0  0
  -27.0775  -29.6056   23.2369 C   0  0  0  0  0  0  0  0  0  0  0  0
  -30.3352  -29.5250   24.2506 C   0  0  0  0  0  0  0  0  0  0  0  0
  -30.7467  -14.7476   20.6024 C   0  0  0  0  0  0  0  0  0  0  0  0
  -20.3179  -30.7569   21.1928 C   0  0  0  0  0  0  0  0  0  0  0  0
  -24.9860  -26.9157   24.6525 C   0  0  0  0  0  0  0  0  0  0  0  0
  -27.3462  -27.1221   22.8827 C   0  0  0  0  0  0  0  0  0  0  0  0
  -21.8298  -30.9056   21.0429 C   0  0  0  0  0  0  0  0  0  0  0  0
  -29.4833  -12.5706   18.0843 C   0  0  0  0  0  0  0  0  0  0  0  0
  -22.4357  -29.6343   20.4568 C   0  0  0  0  0  0  0  0  0  0  0  0
  -28.0757  -12.2241   18.5729 C   0  0  0  0  0  0  0  0  0  0  0  0
  -30.4687  -12.6946   19.2443 C   0  0  0  0  0  0  0  0  0  0  0  0
  -28.6483  -13.2798   20.7992 C   0  0  0  0  0  0  0  0  0  0  0  0
  -22.1982  -28.4334   21.3803 C   0  0  1  0  0  0  0  0  0  0  0  0
  -25.1813  -28.0985   23.7089 C   0  0  1  0  0  0  0  0  0  0  0  0
  -27.6071  -13.1991   19.6698 C   0  0  2  0  0  0  0  0  0  0  0  0
  -32.2693  -31.0314   24.7865 C   0  0  0  0  0  0  0  0  0  0  0  0
  -23.8231  -18.7061   19.3949 C   0  0  0  0  0  0  0  0  0  0  0  0
  -24.4433  -21.0481   20.0198 C   0  0  0  0  0  0  0  0  0  0  0  0
  -27.5315  -30.0787   20.2570 C   0  0  0  0  0  0  0  0  0  0  0  0
  -29.8905  -30.7260   20.7902 C   0  0  0  0  0  0  0  0  0  0  0  0
  -27.9945  -32.0606   21.7103 C   0  0  0  0  0  0  0  0  0  0  0  0
  -30.4701  -28.5513   27.0421 C   0  0  0  0  0  0  0  0  0  0  0  0
  -27.2245  -20.0267   20.8066 C   0  0  0  0  0  0  0  0  0  0  0  0
  -30.8735  -16.7813   22.0192 C   0  0  0  0  0  0  0  0  0  0  0  0
  -27.3219  -21.0088   23.5926 C   0  0  0  0  0  0  0  0  0  1  0  0
  -26.0127  -19.1104   20.5590 C   0  0  0  0  0  0  0  0  0  0  0  0
  -28.4580  -29.7578   22.6454 C   0  0  1  0  0  0  0  0  0  0  0  0
  -31.0692  -30.2814   25.3431 C   0  0  2  0  0  0  0  0  0  0  0  0
  -24.9830  -19.6894   19.5710 C   0  0  0  0  0  0  0  0  0  0  0  0
  -28.4585  -30.6303   21.3585 C   0  0  0  0  0  0  0  0  0  0  0  0
  -25.8672  -11.5419   20.2257 N   0  0  0  0  0  0  0  0  0  0  0  0
  -26.2286  -12.8358   20.1899 N   0  0  0  0  0  0  0  0  0  0  0  0
  -29.0696  -19.3755   23.9815 N   0  3  0  0  0  0  0  0  0  0  0  0
  -26.5829  -28.2973   23.3343 N   0  0  0  0  0  0  0  0  0  0  0  0
  -29.9658  -13.6349   20.2487 N   0  0  0  0  0  0  0  0  0  0  0  0
  -29.0344  -17.9128   20.1041 N   0  0  0  0  0  0  0  0  0  0  0  0
  -25.4655  -15.0242   20.6789 N   0  0  0  0  0  0  0  0  0  0  0  0
  -21.9717  -12.4154   21.8551 N   0  0  0  0  0  0  0  0  0  0  0  0
  -23.1187  -28.4645   22.4966 N   0  0  0  0  0  0  0  0  0  0  0  0
  -29.3063  -30.2710   23.7156 N   0  0  0  0  0  0  0  0  0  0  0  0
  -30.1933  -15.5919   21.5572 N   0  0  0  0  0  0  0  0  0  0  0  0
  -31.5495  -29.3388   26.3927 N   0  3  0  0  0  0  0  0  0  0  0  0
  -22.7172  -14.5799   21.7211 O   0  0  0  0  0  0  0  0  0  0  0  0
  -24.9275  -27.4279   21.4592 O   0  0  0  0  0  0  0  0  0  0  0  0
  -26.4635  -30.6099   23.6057 O   0  0  0  0  0  0  0  0  0  0  0  0
  -30.6460  -28.3877   23.9036 O   0  0  0  0  0  0  0  0  0  0  0  0
  -31.8528  -14.9748   20.1005 O   0  0  0  0  0  0  0  0  0  0  0  0
  -21.7370   -6.8617   21.4852 O   0  0  0  0  0  0  0  0  0  0  0  0
  -27.8027  -22.2553   23.0910 O   0  0  0  0  0  0  0  0  0  1  0  0
  -19.0266   -6.2629   26.2496 F   0  0  0  0  0  0  0  0  0  0  0  0
  -22.3111   -4.7620   23.1893 F   0  0  0  0  0  0  0  0  0  0  0  0
  1  2  1  0  0  0  0
  1  5  2  0  0  0  0
  2  6  2  0  0  0  0
  3  8  2  0  0  0  0
  3 16  1  0  0  0  0
  4  9  1  0  0  0  0
  4 16  2  0  0  0  0
  5 18  1  0  0  0  0
  6 20  1  0  0  0  0
  7 10  2  0  0  0  0
  7 19  1  0  0  0  0
  8 25  1  0  0  0  0
  9 25  2  0  0  0  0
 10 26  1  0  0  0  0
 11 12  2  0  0  0  0
 11 27  1  0  0  0  0
 12 28  1  0  0  0  0
 13 21  1  0  0  0  0
 13 26  2  0  0  0  0
 14 28  2  0  0  0  0
 14 29  1  0  0  0  0
 15 22  1  0  0  0  0
 15 67  2  0  0  0  0
 16 30  1  0  0  0  0
 17 30  1  0  0  0  0
 17 32  2  0  0  0  0
 17 33  1  0  0  0  0
 18 20  2  0  0  0  0
 18 38  1  0  0  0  0
 19 21  2  0  0  0  0
 19 39  1  0  0  0  0
 20 47  1  0  0  0  0
 21 40  1  0  0  0  0
 22 24  2  0  0  0  0
 22 58  1  0  0  0  0
 23 24  1  0  0  0  0
 23 31  2  0  0  0  0
 23 57  1  0  0  0  0
 24 70  1  0  0  0  0
 25 82  1  0  0  0  0
 26 83  1  0  0  0  0
 27 29  2  0  0  0  0
 27 82  1  0  0  0  0
 28 84  1  0  0  0  0
 29 85  1  0  0  0  0
 30 65  2  0  0  0  0
 31 59  1  0  0  0  0
 31 67  1  0  0  0  0
 32 66  1  0  0  0  0
 32 71  1  0  0  0  0
 33 72  1  0  0  0  0
 33 77  2  0  0  0  0
 34 48  1  0  0  0  0
 34 73  1  0  0  0  0
 34 78  2  0  0  0  0
 35 61  1  0  0  0  0
 35 68  1  0  0  0  0
 35 79  2  0  0  0  0
 36 62  1  0  0  0  0
 36 74  1  0  0  0  0
 36 80  2  0  0  0  0
 37 69  1  0  0  0  0
 37 75  1  0  0  0  0
 37 81  2  0  0  0  0
 38 41  1  0  0  0  0
 39 48  1  0  0  0  0
 40 68  1  0  0  0  0
 41 43  1  0  0  0  0
 42 44  1  0  0  0  0
 42 45  1  0  0  0  0
 43 47  1  0  0  0  0
 44 49  1  0  0  0  0
 45 69  1  0  0  0  0
 46 49  1  0  0  0  0
 46 69  1  0  0  0  0
 47 73  1  0  0  0  0
 48 68  1  0  0  0  0
 49 66  1  0  0  0  0
 50 62  1  0  0  0  0
 51 63  1  0  0  0  0
 52 63  1  0  0  0  0
 53 64  1  0  0  0  0
 54 64  1  0  0  0  0
 55 64  1  0  0  0  0
 56 76  1  0  0  0  0
 57 60  1  0  0  0  0
 58 75  1  0  0  0  0
 59 83  1  0  0  0  0
 60 63  1  0  0  0  0
 61 64  1  0  0  0  0
 61 74  1  0  0  0  0
 62 76  1  0  0  0  0
 65 66  1  0  0  0  0
M  CHG  2  67   1  76   1
M  ISO  4  37 100  59 101  75 100  83 101
M  END
> <Batch ID>
0106

> <Smiles>
CNC(C)C(=O)NC(C(=O)N1Cc2cc([101O:1][101CH2:1]c3ncc(C[100NH:0][100C:0](=O)N4CCCC(n5nc(-c6ccc(Oc7ccc(F)cc7F)cc6)c(C(N)=O)c5N)C4)c(N)c3CCC(C)C)ccc2CC1C(=O)NC1CCCc2ccccc21)C(C)(C)C

> <Shape>
0.289

> <Color>
0.196

> <Negative vol penalty>
0.000

$$$$

  -OEChem-04052319483D

 82 89  0     1  0  0  0  0  0999 V2000
  -16.9815  -25.5225   21.4577 C   0  0  0  0  0  0  0  0  0  0  0  0
  -17.7562  -24.5213   22.0346 C   0  0  0  0  0  0  0  0  0  0  0  0
  -23.2374   -9.7296   19.9359 C   0  0  0  0  0  0  0  0  0  0  0  0
  -23.8563   -9.8948   22.2655 C   0  0  0  0  0  0  0  0  0  0  0  0
  -17.5810  -26.4875   20.6494 C   0  0  0  0  0  0  0  0  0  0  0  0
  -19.1307  -24.4838   21.8027 C   0  0  0  0  0  0  0  0  0  0  0  0
  -25.2840  -22.6782   24.9953 C   0  0  0  0  0  0  0  0  0  0  0  0
  -22.5528   -8.5437   20.2019 C   0  0  0  0  0  0  0  0  0  0  0  0
  -23.1716   -8.7089   22.5314 C   0  0  0  0  0  0  0  0  0  0  0  0
  -26.4226  -21.9031   24.7792 C   0  0  0  0  0  0  0  0  0  0  0  0
  -21.2836   -5.9154   23.8913 C   0  0  0  0  0  0  0  0  0  0  0  0
  -20.4625   -5.8784   25.0183 C   0  0  0  0  0  0  0  0  0  0  0  0
  -27.3611  -23.6688   23.4298 C   0  0  0  0  0  0  0  0  0  0  0  0
  -19.1464   -7.6939   24.1188 C   0  0  0  0  0  0  0  0  0  0  0  0
  -23.8892  -10.4051   20.9677 C   0  0  0  0  0  0  0  0  0  0  0  0
  -24.0803  -12.9385   20.7381 C   0  0  0  0  0  0  0  0  0  0  0  0
  -18.9650  -26.4675   20.4152 C   0  0  0  0  0  0  0  0  0  0  0  0
  -25.1706  -23.9521   24.4203 C   0  0  0  0  0  0  0  0  0  0  0  0
  -19.7490  -25.4487   20.9894 C   0  0  0  0  0  0  0  0  0  0  0  0
  -26.2212  -24.4590   23.6423 C   0  0  0  0  0  0  0  0  0  0  0  0
  -22.5199   -8.0334   21.4996 C   0  0  0  0  0  0  0  0  0  0  0  0
  -27.4601  -22.3972   23.9940 C   0  0  0  0  0  0  0  0  0  0  0  0
  -21.0362   -6.8416   22.8781 C   0  0  0  0  0  0  0  0  0  0  0  0
  -19.3939   -6.7677   25.1320 C   0  0  0  0  0  0  0  0  0  0  0  0
  -19.9675   -7.7308   22.9919 C   0  0  0  0  0  0  0  0  0  0  0  0
  -24.5970  -11.6298   20.6935 C   0  0  0  0  0  0  0  0  0  0  0  0
  -25.1437  -13.7392   20.3997 C   0  0  0  0  0  0  0  0  0  0  0  0
  -22.7574  -13.3901   21.0571 C   0  0  0  0  0  0  0  0  0  0  0  0
  -23.1860  -25.3048   22.3382 C   0  0  0  0  0  0  0  0  0  0  0  0
  -24.8512  -27.9864   23.0858 C   0  0  0  0  0  0  0  0  0  0  0  0
  -27.7429  -29.3685   24.2581 C   0  0  0  0  0  0  0  0  0  0  0  0
  -30.5325  -15.1199   20.8474 C   0  0  0  0  0  0  0  0  0  0  0  0
  -19.5607  -27.5043   19.4961 C   0  0  0  0  0  0  0  0  0  0  0  0
  -23.9474  -24.7865   24.6850 C   0  0  0  0  0  0  0  0  0  0  0  0
  -26.1572  -25.8288   23.0192 C   0  0  0  0  0  0  0  0  0  0  0  0
  -21.0796  -27.6130   19.6038 C   0  0  0  0  0  0  0  0  0  0  0  0
  -29.6904  -12.5559   18.5251 C   0  0  0  0  0  0  0  0  0  0  0  0
  -21.7166  -26.2271   19.5864 C   0  0  0  0  0  0  0  0  0  0  0  0
  -28.2505  -12.1904   18.8900 C   0  0  0  0  0  0  0  0  0  0  0  0
  -30.5182  -12.8926   19.7633 C   0  0  0  0  0  0  0  0  0  0  0  0
  -28.4950  -13.5637   21.0002 C   0  0  0  0  0  0  0  0  0  0  0  0
  -21.2468  -25.3890   20.7815 C   0  0  1  0  0  0  0  0  0  0  0  0
  -23.7179  -25.8624   23.6281 C   0  0  1  0  0  0  0  0  0  0  0  0
  -27.6060  -13.2705   19.7795 C   0  0  2  0  0  0  0  0  0  0  0  0
  -28.8204  -31.5876   24.7185 C   0  0  0  0  0  0  0  0  0  0  0  0
  -32.3984  -18.3892   23.2518 C   0  0  0  0  0  0  0  0  0  0  0  0
  -31.5140  -16.1975   24.0389 C   0  0  0  0  0  0  0  0  0  0  0  0
  -25.3333  -28.3694   20.0974 C   0  0  0  0  0  0  0  0  0  0  0  0
  -27.1524  -29.9917   20.6697 C   0  0  0  0  0  0  0  0  0  0  0  0
  -24.7992  -30.4697   21.3456 C   0  0  0  0  0  0  0  0  0  0  0  0
  -28.0188  -28.7669   27.1427 C   0  0  0  0  0  0  0  0  0  0  0  0
  -28.3370  -18.1028   20.0013 C   0  0  0  0  0  0  0  0  0  0  0  0
  -30.1061  -18.5191   18.2991 C   0  0  0  0  0  0  0  0  0  0  0  0
  -29.4556  -19.6012   22.8667 C   0  0  0  0  0  0  0  0  0  0  0  0
  -29.3097  -18.0782   22.8133 C   0  0  0  0  0  0  0  0  0  0  0  0
  -30.7357  -18.0941   20.6705 C   0  0  0  0  0  0  0  0  0  0  0  0
  -28.4077  -20.2264   23.7800 C   0  0  0  0  0  0  0  0  0  1  0  0
  -26.0909  -28.6596   22.5485 C   0  0  1  0  0  0  0  0  0  0  0  0
  -27.9953  -30.4478   25.2953 C   0  0  2  0  0  0  0  0  0  0  0  0
  -31.7120  -17.0898   22.8010 C   0  0  0  0  0  0  0  0  0  0  0  0
  -25.8447  -29.3460   21.1753 C   0  0  0  0  0  0  0  0  0  0  0  0
  -30.3904  -17.3265   21.9743 C   0  0  1  0  0  0  0  0  0  0  0  0
  -25.8882  -11.5965   20.3533 N   0  0  0  0  0  0  0  0  0  0  0  0
  -26.1918  -12.8943   20.1811 N   0  0  0  0  0  0  0  0  0  0  0  0
  -24.9378  -26.6038   23.3020 N   0  0  0  0  0  0  0  0  0  0  0  0
  -29.8527  -13.9241   20.5627 N   0  0  0  0  0  0  0  0  0  0  0  0
  -25.2751  -15.0766   20.2707 N   0  0  0  0  0  0  0  0  0  0  0  0
  -21.7854  -12.4342   21.3824 N   0  0  0  0  0  0  0  0  0  0  0  0
  -21.9417  -25.7915   21.9855 N   0  0  0  0  0  0  0  0  0  0  0  0
  -26.5498  -29.5658   23.5957 N   0  0  0  0  0  0  0  0  0  0  0  0
  -29.8274  -16.0468   21.6053 N   0  0  0  0  0  0  0  0  0  0  0  0
  -28.7273  -29.8823   26.4638 N   0  3  0  0  0  0  0  0  0  0  0  0
  -29.7580  -17.8149   19.5865 N   0  3  0  0  0  0  0  0  0  0  0  0
  -22.4423  -14.6041   21.0378 O   0  0  0  0  0  0  0  0  0  0  0  0
  -23.8556  -24.4943   21.7087 O   0  0  0  0  0  0  0  0  0  0  0  0
  -23.8453  -28.6635   23.3124 O   0  0  0  0  0  0  0  0  0  0  0  0
  -28.5276  -28.4450   24.0532 O   0  0  0  0  0  0  0  0  0  0  0  0
  -31.6805  -15.3470   20.4508 O   0  0  0  0  0  0  0  0  0  0  0  0
  -21.8518   -6.8765   21.7596 O   0  0  0  0  0  0  0  0  0  0  0  0
  -28.5804  -21.6369   23.7794 O   0  0  0  0  0  0  0  0  0  1  0  0
  -18.6046   -6.7311   26.2136 F   0  0  0  0  0  0  0  0  0  0  0  0
  -19.7241   -8.6221   22.0212 F   0  0  0  0  0  0  0  0  0  0  0  0
  1  2  1  0  0  0  0
  1  5  2  0  0  0  0
  2  6  2  0  0  0  0
  3  8  2  0  0  0  0
  3 15  1  0  0  0  0
  4  9  1  0  0  0  0
  4 15  2  0  0  0  0
  5 17  1  0  0  0  0
  6 19  1  0  0  0  0
  7 10  2  0  0  0  0
  7 18  1  0  0  0  0
  8 21  1  0  0  0  0
  9 21  2  0  0  0  0
 10 22  1  0  0  0  0
 11 12  2  0  0  0  0
 11 23  1  0  0  0  0
 12 24  1  0  0  0  0
 13 20  1  0  0  0  0
 13 22  2  0  0  0  0
 14 24  2  0  0  0  0
 14 25  1  0  0  0  0
 15 26  1  0  0  0  0
 16 26  1  0  0  0  0
 16 27  2  0  0  0  0
 16 28  1  0  0  0  0
 17 19  2  0  0  0  0
 17 33  1  0  0  0  0
 18 20  2  0  0  0  0
 18 34  1  0  0  0  0
 19 42  1  0  0  0  0
 20 35  1  0  0  0  0
 21 79  1  0  0  0  0
 22 80  1  0  0  0  0
 23 25  2  0  0  0  0
 23 79  1  0  0  0  0
 24 81  1  0  0  0  0
 25 82  1  0  0  0  0
 26 63  2  0  0  0  0
 27 64  1  0  0  0  0
 27 67  1  0  0  0  0
 28 68  1  0  0  0  0
 28 74  2  0  0  0  0
 29 43  1  0  0  0  0
 29 69  1  0  0  0  0
 29 75  2  0  0  0  0
 30 58  1  0  0  0  0
 30 65  1  0  0  0  0
 30 76  2  0  0  0  0
 31 59  1  0  0  0  0
 31 70  1  0  0  0  0
 31 77  2  0  0  0  0
 32 66  1  0  0  0  0
 32 71  1  0  0  0  0
 32 78  2  0  0  0  0
 33 36  1  0  0  0  0
 34 43  1  0  0  0  0
 35 65  1  0  0  0  0
 36 38  1  0  0  0  0
 37 39  1  0  0  0  0
 37 40  1  0  0  0  0
 38 42  1  0  0  0  0
 39 44  1  0  0  0  0
 40 66  1  0  0  0  0
 41 44  1  0  0  0  0
 41 66  1  0  0  0  0
 42 69  1  0  0  0  0
 43 65  1  0  0  0  0
 44 64  1  0  0  0  0
 45 59  1  0  0  0  0
 46 60  1  0  0  0  0
 47 60  1  0  0  0  0
 48 61  1  0  0  0  0
 49 61  1  0  0  0  0
 50 61  1  0  0  0  0
 51 72  1  0  0  0  0
 52 73  1  0  0  0  0
 53 73  1  0  0  0  0
 54 55  1  0  0  0  0
 54 57  1  0  0  0  0
 55 62  1  0  0  0  0
 56 62  1  0  0  0  0
 56 73  1  0  0  0  0
 57 80  1  0  0  0  0
 58 61  1  0  0  0  0
 58 70  1  0  0  0  0
 59 72  1  0  0  0  0
 60 62  1  0  0  0  0
 62 71  1  0  0  0  0
 63 64  1  0  0  0  0
M  CHG  2  72   1  73   1
M  ISO  4  32 100  57 101  71 100  80 101
M  END
> <Batch ID>
0106

> <Smiles>
CNC(C)C(=O)NC(C(=O)N1Cc2cc([101O:1][101CH2:1]CCC(CN(C)C)([100NH:0][100C:0](=O)N3CCCC(n4nc(-c5ccc(Oc6ccc(F)cc6F)cc5)c(C(N)=O)c4N)C3)C(C)C)ccc2CC1C(=O)NC1CCCc2ccccc21)C(C)(C)C

> <Shape>
0.280

> <Color>
0.200

> <Negative vol penalty>
0.000

$$$$

  -OEChem-04052319483D

 88 96  0     1  0  0  0  0  0999 V2000
  -26.9842  -35.0899   18.3666 C   0  0  0  0  0  0  0  0  0  0  0  0
  -27.5537  -33.8526   18.0838 C   0  0  0  0  0  0  0  0  0  0  0  0
  -23.9984   -9.7087   21.8717 C   0  0  0  0  0  0  0  0  0  0  0  0
  -22.0107  -10.4930   20.7444 C   0  0  0  0  0  0  0  0  0  0  0  0
  -26.4744  -35.3471   19.6385 C   0  0  0  0  0  0  0  0  0  0  0  0
  -27.6147  -32.8719   19.0732 C   0  0  0  0  0  0  0  0  0  0  0  0
  -27.1030  -26.8191   18.2941 C   0  0  0  0  0  0  0  0  0  0  0  0
  -23.4753   -8.4159   21.8946 C   0  0  0  0  0  0  0  0  0  0  0  0
  -21.4876   -9.2002   20.7673 C   0  0  0  0  0  0  0  0  0  0  0  0
  -28.0520  -25.8024   18.1961 C   0  0  0  0  0  0  0  0  0  0  0  0
  -22.5067   -4.9766   22.5707 C   0  0  0  0  0  0  0  0  0  0  0  0
  -22.6091   -4.2550   23.7599 C   0  0  0  0  0  0  0  0  0  0  0  0
  -27.7891  -25.3385   20.5487 C   0  0  0  0  0  0  0  0  0  0  0  0
  -21.3193   -5.9503   24.8998 C   0  0  0  0  0  0  0  0  0  0  0  0
  -27.6134  -20.9767   18.9168 C   0  0  0  0  0  0  0  0  0  0  0  0
  -23.2661  -10.7473   21.2966 C   0  0  0  0  0  0  0  0  0  0  0  0
  -24.6036  -12.6601   20.2671 C   0  0  0  0  0  0  0  0  0  0  0  0
  -26.5205  -34.3657   20.6413 C   0  0  0  0  0  0  0  0  0  0  0  0
  -26.4969  -27.1108   19.5245 C   0  0  0  0  0  0  0  0  0  0  0  0
  -27.1063  -33.1166   20.3602 C   0  0  0  0  0  0  0  0  0  0  0  0
  -26.8309  -26.3577   20.6592 C   0  0  0  0  0  0  0  0  0  0  0  0
  -27.0923  -20.3083   20.0026 C   0  0  0  0  0  0  0  0  0  0  0  0
  -28.1408  -20.1436   20.9410 C   0  0  0  0  0  0  0  0  0  0  0  0
  -22.2199   -8.1616   21.3424 C   0  0  0  0  0  0  0  0  0  0  0  0
  -28.3973  -25.0639   19.3241 C   0  0  0  0  0  0  0  0  0  0  0  0
  -21.8107   -6.1852   22.5460 C   0  0  0  0  0  0  0  0  0  0  0  0
  -22.0154   -4.7417   24.9245 C   0  0  0  0  0  0  0  0  0  0  0  0
  -21.2169   -6.6720   23.7105 C   0  0  0  0  0  0  0  0  0  0  0  0
  -23.8056  -12.0831   21.2732 C   0  0  0  0  0  0  0  0  0  0  0  0
  -29.2707  -20.7165   20.4001 C   0  0  0  0  0  0  0  0  0  0  0  0
  -24.8518  -13.9347   20.7145 C   0  0  0  0  0  0  0  0  0  0  0  0
  -25.0781  -12.0944   19.0380 C   0  0  0  0  0  0  0  0  0  0  0  0
  -26.4038  -29.6512   21.4328 C   0  0  0  0  0  0  0  0  0  0  0  0
  -24.2770  -27.8449   23.0869 C   0  0  0  0  0  0  0  0  0  0  0  0
  -23.1003  -24.7364   23.8611 C   0  0  0  0  0  0  0  0  0  0  0  0
  -23.1097  -18.7083   23.0216 C   0  0  0  0  0  0  0  0  0  0  0  0
  -25.9993  -34.7064   22.0149 C   0  0  0  0  0  0  0  0  0  0  0  0
  -25.4555  -28.1929   19.6079 C   0  0  0  0  0  0  0  0  0  0  0  0
  -26.1943  -26.6178   21.9992 C   0  0  0  0  0  0  0  0  0  0  0  0
  -25.7645  -33.4835   22.8979 C   0  0  0  0  0  0  0  0  0  0  0  0
  -24.0123  -16.0622   25.2262 C   0  0  0  0  0  0  0  0  0  0  0  0
  -26.9588  -32.5371   22.8276 C   0  0  0  0  0  0  0  0  0  0  0  0
  -24.0986  -14.8384   24.3126 C   0  0  0  0  0  0  0  0  0  0  0  0
  -22.8858  -17.0030   24.8044 C   0  0  0  0  0  0  0  0  0  0  0  0
  -23.0131  -16.2001   22.4779 C   0  0  0  0  0  0  0  0  0  0  0  0
  -27.1686  -32.0187   21.3998 C   0  0  1  0  0  0  0  0  0  0  0  0
  -25.2791  -28.7448   21.0192 C   0  0  1  0  0  0  0  0  0  0  0  0
  -24.1702  -15.2495   22.8297 C   0  0  2  0  0  0  0  0  0  0  0  0
  -30.6407  -20.8300   20.9460 C   0  0  0  0  0  0  0  0  0  0  0  0
  -30.5664  -19.7865   17.0143 C   0  0  0  0  0  0  0  0  0  0  0  0
  -21.5937  -23.0017   24.8701 C   0  0  0  0  0  0  0  0  0  0  0  0
  -28.2048  -17.1183   21.9449 C   0  0  0  0  0  0  0  0  0  0  0  0
  -28.8700  -18.2985   24.0688 C   0  0  0  0  0  0  0  0  0  0  0  0
  -25.9902  -28.3221   25.5663 C   0  0  0  0  0  0  0  0  0  0  0  0
  -24.7947  -26.4208   26.6727 C   0  0  0  0  0  0  0  0  0  0  0  0
  -23.5240  -28.4465   25.9626 C   0  0  0  0  0  0  0  0  0  0  0  0
  -21.2959  -24.7721   21.5155 C   0  0  0  0  0  0  0  0  0  0  0  0
  -25.6944  -19.8535   20.1464 C   0  0  0  0  0  0  0  0  0  0  0  0
  -30.0343  -21.2070   16.8670 C   0  0  0  0  0  0  0  0  0  0  0  0
  -24.8010  -20.7592   21.0274 C   0  0  0  0  0  0  0  0  0  0  0  0
  -23.3496  -20.2946   21.1281 C   0  0  0  0  0  0  0  0  0  0  0  0
  -29.4235  -23.3908   17.9812 C   0  0  0  0  0  0  0  0  0  1  0  0
  -24.3732  -26.8375   24.2070 C   0  0  1  0  0  0  0  0  0  0  0  0
  -21.6902  -24.1762   23.9089 C   0  0  2  0  0  0  0  0  0  0  0  0
  -29.8804  -21.9410   18.2156 C   0  0  1  0  0  0  0  0  0  0  0  0
  -28.8332  -18.3658   22.5490 C   0  0  0  0  0  0  0  0  0  0  0  0
  -24.6841  -27.5028   25.5775 C   0  0  0  0  0  0  0  0  0  0  0  0
  -23.5631  -12.9224   22.2836 N   0  0  0  0  0  0  0  0  0  0  0  0
  -28.9382  -21.2199   19.1697 N   0  0  0  0  0  0  0  0  0  0  0  0
  -24.2126  -14.0396   21.9147 N   0  0  0  0  0  0  0  0  0  0  0  0
  -25.1863  -27.6904   22.0310 N   0  0  0  0  0  0  0  0  0  0  0  0
  -23.0128  -17.3559   23.3883 N   0  0  0  0  0  0  0  0  0  0  0  0
  -25.5524  -14.9648   20.1944 N   0  0  0  0  0  0  0  0  0  0  0  0
  -24.7299  -10.7715   18.7331 N   0  0  0  0  0  0  0  0  0  0  0  0
  -28.0554  -19.5378   22.1453 N   0  0  0  0  0  0  0  0  0  0  0  0
  -26.2113  -30.9771   21.0945 N   0  0  0  0  0  0  0  0  0  0  0  0
  -23.1282  -26.0775   24.1806 N   0  0  0  0  0  0  0  0  0  0  0  0
  -23.2336  -18.9550   21.6598 N   0  0  0  0  0  0  0  0  0  0  0  0
  -21.2711  -23.7121   22.5561 N   0  3  0  0  0  0  0  0  0  0  0  0
  -25.8033  -12.7375   18.2418 O   0  0  0  0  0  0  0  0  0  0  0  0
  -27.3738  -29.1826   22.0169 O   0  0  0  0  0  0  0  0  0  0  0  0
  -23.4216  -28.7320   23.1432 O   0  0  0  0  0  0  0  0  0  0  0  0
  -24.0796  -24.0519   23.5730 O   0  0  0  0  0  0  0  0  0  0  0  0
  -23.0927  -19.6277   23.8472 O   0  0  0  0  0  0  0  0  0  0  0  0
  -21.7093   -6.9001   21.3644 O   0  0  0  0  0  0  0  0  0  0  0  0
  -29.3238  -24.0714   19.2314 O   0  0  0  0  0  0  0  0  0  1  0  0
  -22.1125   -4.0478   26.0661 F   0  0  0  0  0  0  0  0  0  0  0  0
  -20.5459   -7.8318   23.6927 F   0  0  0  0  0  0  0  0  0  0  0  0
  1  2  1  0  0  0  0
  1  5  2  0  0  0  0
  2  6  2  0  0  0  0
  3  8  2  0  0  0  0
  3 16  1  0  0  0  0
  4  9  1  0  0  0  0
  4 16  2  0  0  0  0
  5 18  1  0  0  0  0
  6 20  1  0  0  0  0
  7 10  2  0  0  0  0
  7 19  1  0  0  0  0
  8 24  1  0  0  0  0
  9 24  2  0  0  0  0
 10 25  1  0  0  0  0
 11 12  2  0  0  0  0
 11 26  1  0  0  0  0
 12 27  1  0  0  0  0
 13 21  1  0  0  0  0
 13 25  2  0  0  0  0
 14 27  2  0  0  0  0
 14 28  1  0  0  0  0
 15 22  2  0  0  0  0
 15 69  1  0  0  0  0
 16 29  1  0  0  0  0
 17 29  1  0  0  0  0
 17 31  2  0  0  0  0
 17 32  1  0  0  0  0
 18 20  2  0  0  0  0
 18 37  1  0  0  0  0
 19 21  2  0  0  0  0
 19 38  1  0  0  0  0
 20 46  1  0  0  0  0
 21 39  1  0  0  0  0
 22 23  1  0  0  0  0
 22 58  1  0  0  0  0
 23 30  2  0  0  0  0
 23 75  1  0  0  0  0
 24 85  1  0  0  0  0
 25 86  1  0  0  0  0
 26 28  2  0  0  0  0
 26 85  1  0  0  0  0
 27 87  1  0  0  0  0
 28 88  1  0  0  0  0
 29 68  2  0  0  0  0
 30 49  1  0  0  0  0
 30 69  1  0  0  0  0
 31 70  1  0  0  0  0
 31 73  1  0  0  0  0
 32 74  1  0  0  0  0
 32 80  2  0  0  0  0
 33 47  1  0  0  0  0
 33 76  1  0  0  0  0
 33 81  2  0  0  0  0
 34 63  1  0  0  0  0
 34 71  1  0  0  0  0
 34 82  2  0  0  0  0
 35 64  1  0  0  0  0
 35 77  1  0  0  0  0
 35 83  2  0  0  0  0
 36 72  1  0  0  0  0
 36 78  1  0  0  0  0
 36 84  2  0  0  0  0
 37 40  1  0  0  0  0
 38 47  1  0  0  0  0
 39 71  1  0  0  0  0
 40 42  1  0  0  0  0
 41 43  1  0  0  0  0
 41 44  1  0  0  0  0
 42 46  1  0  0  0  0
 43 48  1  0  0  0  0
 44 72  1  0  0  0  0
 45 48  1  0  0  0  0
 45 72  1  0  0  0  0
 46 76  1  0  0  0  0
 47 71  1  0  0  0  0
 48 70  1  0  0  0  0
 50 59  1  0  0  0  0
 51 64  1  0  0  0  0
 52 66  1  0  0  0  0
 53 66  1  0  0  0  0
 54 67  1  0  0  0  0
 55 67  1  0  0  0  0
 56 67  1  0  0  0  0
 57 79  1  0  0  0  0
 58 60  1  0  0  0  0
 59 65  1  0  0  0  0
 60 61  1  0  0  0  0
 61 78  1  0  0  0  0
 62 65  1  0  0  0  0
 62 86  1  0  0  0  0
 63 67  1  0  0  0  0
 63 77  1  0  0  0  0
 64 79  1  0  0  0  0
 65 69  1  0  0  0  0
 66 75  1  0  0  0  0
 68 70  1  0  0  0  0
M  CHG  1  79   1
M  ISO  4  36 100  62 101  78 100  86 101
M  END
> <Batch ID>
0106

> <Smiles>
CCC(n1cc(CCC[100NH:0][100C:0](=O)N2CCCC(n3nc(-c4ccc(Oc5ccc(F)cc5F)cc4)c(C(N)=O)c3N)C2)c(NC(C)C)c1C)[101CH2:1][101O:1]c1ccc2c(c1)CN(C(=O)C(NC(=O)C(C)NC)C(C)(C)C)C(C(=O)NC1CCCc3ccccc31)C2

> <Shape>
0.225

> <Color>
0.121

> <Negative vol penalty>
0.000

$$$$

  -OEChem-04052319483D

 83 91  0     1  0  0  0  0  0999 V2000
  -29.2447  -18.7004   15.4645 C   0  0  0  0  0  0  0  0  0  0  0  0
  -28.1459  -19.5329   15.2775 C   0  0  0  0  0  0  0  0  0  0  0  0
  -24.9086  -17.6174   23.1148 C   0  0  0  0  0  0  0  0  0  0  0  0
  -24.8493  -18.9140   21.0770 C   0  0  0  0  0  0  0  0  0  0  0  0
  -29.8959  -18.6737   16.6970 C   0  0  0  0  0  0  0  0  0  0  0  0
  -27.6968  -20.3383   16.3235 C   0  0  0  0  0  0  0  0  0  0  0  0
  -24.6493  -26.7029   17.5567 C   0  0  0  0  0  0  0  0  0  0  0  0
  -25.2985  -16.4927   22.3879 C   0  0  0  0  0  0  0  0  0  0  0  0
  -25.2392  -17.7892   20.3501 C   0  0  0  0  0  0  0  0  0  0  0  0
  -23.5660  -27.2660   18.2298 C   0  0  0  0  0  0  0  0  0  0  0  0
  -23.8325  -14.1671   20.4215 C   0  0  0  0  0  0  0  0  0  0  0  0
  -23.1956  -12.9593   20.7065 C   0  0  0  0  0  0  0  0  0  0  0  0
  -24.8176  -27.1956   20.2908 C   0  0  0  0  0  0  0  0  0  0  0  0
  -25.3213  -11.9799   21.3060 C   0  0  0  0  0  0  0  0  0  0  0  0
  -24.6839  -18.8281   22.4594 C   0  0  0  0  0  0  0  0  0  0  0  0
  -25.1195  -20.9550   23.7989 C   0  0  0  0  0  0  0  0  0  0  0  0
  -29.4605  -19.4864   17.7556 C   0  0  0  0  0  0  0  0  0  0  0  0
  -25.8229  -26.3713   18.2488 C   0  0  0  0  0  0  0  0  0  0  0  0
  -28.3419  -20.3214   17.5718 C   0  0  0  0  0  0  0  0  0  0  0  0
  -25.9154  -26.6308   19.6237 C   0  0  0  0  0  0  0  0  0  0  0  0
  -25.4638  -16.5785   21.0055 C   0  0  0  0  0  0  0  0  0  0  0  0
  -23.6490  -27.5098   19.5976 C   0  0  0  0  0  0  0  0  0  0  0  0
  -25.2138  -14.2812   20.5786 C   0  0  0  0  0  0  0  0  0  0  0  0
  -23.9400  -11.8657   21.1488 C   0  0  0  0  0  0  0  0  0  0  0  0
  -25.9582  -13.1877   21.0209 C   0  0  0  0  0  0  0  0  0  0  0  0
  -24.2806  -19.9902   23.2097 C   0  0  0  0  0  0  0  0  0  0  0  0
  -24.2567  -21.8455   24.3896 C   0  0  0  0  0  0  0  0  0  0  0  0
  -26.5508  -21.0387   23.8111 C   0  0  0  0  0  0  0  0  0  0  0  0
  -27.4093  -23.6749   18.8116 C   0  0  0  0  0  0  0  0  0  0  0  0
  -29.5884  -25.6884   20.1231 C   0  0  0  0  0  0  0  0  0  0  0  0
  -30.2394  -28.7125   21.5645 C   0  0  0  0  0  0  0  0  0  0  0  0
  -18.6644  -23.2983   23.1766 C   0  0  0  0  0  0  0  0  0  0  0  0
  -30.1673  -19.3881   19.0843 C   0  0  0  0  0  0  0  0  0  0  0  0
  -26.9924  -25.7892   17.5032 C   0  0  0  0  0  0  0  0  0  0  0  0
  -27.1604  -26.3118   20.4089 C   0  0  0  0  0  0  0  0  0  0  0  0
  -29.8589  -20.5497   20.0256 C   0  0  0  0  0  0  0  0  0  0  0  0
  -19.9012  -22.0956   26.3580 C   0  0  0  0  0  0  0  0  0  0  0  0
  -28.3590  -20.8251   20.0601 C   0  0  0  0  0  0  0  0  0  0  0  0
  -21.2552  -21.5082   25.9556 C   0  0  0  0  0  0  0  0  0  0  0  0
  -20.1569  -26.7929   21.1071 C   0  0  0  0  0  0  0  0  0  0  0  0
  -20.7460  -27.4451   23.4685 C   0  0  0  0  0  0  0  0  0  0  0  0
  -18.8476  -21.8426   25.2837 C   0  0  0  0  0  0  0  0  0  0  0  0
  -20.5708  -21.7532   23.5242 C   0  0  0  0  0  0  0  0  0  0  0  0
  -18.6820  -26.7645   21.4807 C   0  0  0  0  0  0  0  0  0  0  0  0
  -27.8401  -21.2282   18.6745 C   0  0  1  0  0  0  0  0  0  0  0  0
  -27.9505  -25.0161   18.4041 C   0  0  1  0  0  0  0  0  0  0  0  0
  -20.9587  -27.7613   21.9823 C   0  0  1  0  0  0  0  0  0  0  0  0
  -21.6846  -21.9955   24.5590 C   0  0  2  0  0  0  0  0  0  0  0  0
  -19.2672  -27.4132   23.8736 C   0  0  1  0  0  0  0  0  0  0  0  0
  -32.1073  -30.0558   22.5664 C   0  0  0  0  0  0  0  0  0  0  0  0
  -17.3398  -28.7891   24.7078 C   0  0  0  0  0  0  0  0  0  0  0  0
  -19.6023  -29.8398   24.4235 C   0  0  0  0  0  0  0  0  0  0  0  0
  -29.4492  -23.9897   22.6539 C   0  0  0  0  0  0  0  0  0  0  0  0
  -30.5550  -25.8653   23.8899 C   0  0  0  0  0  0  0  0  0  0  0  0
  -31.7524  -24.7294   22.0194 C   0  0  0  0  0  0  0  0  0  0  0  0
  -29.9455  -30.8489   19.5376 C   0  0  0  0  0  0  0  0  0  0  0  0
  -22.4298  -27.7056   21.6302 C   0  0  0  0  0  0  0  0  0  1  0  0
  -16.6976  -24.7965   22.9671 C   0  0  0  0  0  0  0  0  0  0  0  0
  -17.0994  -26.2131   23.3331 C   0  0  0  0  0  0  0  0  0  0  0  0
  -29.8159  -26.2690   21.4979 C   0  0  1  0  0  0  0  0  0  0  0  0
  -31.3243  -29.7411   21.3012 C   0  0  2  0  0  0  0  0  0  0  0  0
  -18.6246  -28.7992   23.8829 C   0  0  0  0  0  0  0  0  0  0  0  0
  -30.3688  -25.2177   22.5011 C   0  0  0  0  0  0  0  0  0  0  0  0
  -22.9843  -20.2438   23.4082 N   0  0  0  0  0  0  0  0  0  0  0  0
  -23.0023  -21.3780   24.1288 N   0  0  0  0  0  0  0  0  0  0  0  0
  -28.2745  -25.7381   19.6362 N   0  0  0  0  0  0  0  0  0  0  0  0
  -19.3103  -22.3464   23.9829 N   0  0  0  0  0  0  0  0  0  0  0  0
  -24.4563  -22.9750   25.1015 N   0  0  0  0  0  0  0  0  0  0  0  0
  -27.2841  -20.0404   23.1554 N   0  0  0  0  0  0  0  0  0  0  0  0
  -28.1774  -22.6065   18.3899 N   0  0  0  0  0  0  0  0  0  0  0  0
  -30.6795  -27.4302   21.3128 N   0  0  0  0  0  0  0  0  0  0  0  0
  -17.4729  -23.8057   23.6800 N   0  0  0  0  0  0  0  0  0  0  0  0
  -18.5361  -26.4500   22.9505 N   0  3  1  0  0  0  0  0  0  0  0  0
  -30.7252  -31.0072   20.7922 N   0  3  0  0  0  0  0  0  0  0  0  0
  -27.1617  -21.9624   24.4003 O   0  0  0  0  0  0  0  0  0  0  0  0
  -26.3724  -23.6140   19.4619 O   0  0  0  0  0  0  0  0  0  0  0  0
  -30.5426  -25.2149   19.5011 O   0  0  0  0  0  0  0  0  0  0  0  0
  -29.1153  -29.0158   21.9579 O   0  0  0  0  0  0  0  0  0  0  0  0
  -19.1189  -23.6726   22.0901 O   0  0  0  0  0  0  0  0  0  0  0  0
  -25.8445  -15.4812   20.2959 O   0  0  0  0  0  0  0  0  0  0  0  0
  -22.5928  -28.0587   20.2572 O   0  0  0  0  0  0  0  0  0  1  0  0
  -23.3280  -10.7064   21.4240 F   0  0  0  0  0  0  0  0  0  0  0  0
  -27.2853  -13.2916   21.1749 F   0  0  0  0  0  0  0  0  0  0  0  0
  1  2  1  0  0  0  0
  1  5  2  0  0  0  0
  2  6  2  0  0  0  0
  3  8  2  0  0  0  0
  3 15  1  0  0  0  0
  4  9  1  0  0  0  0
  4 15  2  0  0  0  0
  5 17  1  0  0  0  0
  6 19  1  0  0  0  0
  7 10  2  0  0  0  0
  7 18  1  0  0  0  0
  8 21  1  0  0  0  0
  9 21  2  0  0  0  0
 10 22  1  0  0  0  0
 11 12  2  0  0  0  0
 11 23  1  0  0  0  0
 12 24  1  0  0  0  0
 13 20  1  0  0  0  0
 13 22  2  0  0  0  0
 14 24  2  0  0  0  0
 14 25  1  0  0  0  0
 15 26  1  0  0  0  0
 16 26  1  0  0  0  0
 16 27  2  0  0  0  0
 16 28  1  0  0  0  0
 17 19  2  0  0  0  0
 17 33  1  0  0  0  0
 18 20  2  0  0  0  0
 18 34  1  0  0  0  0
 19 45  1  0  0  0  0
 20 35  1  0  0  0  0
 21 80  1  0  0  0  0
 22 81  1  0  0  0  0
 23 25  2  0  0  0  0
 23 80  1  0  0  0  0
 24 82  1  0  0  0  0
 25 83  1  0  0  0  0
 26 64  2  0  0  0  0
 27 65  1  0  0  0  0
 27 68  1  0  0  0  0
 28 69  1  0  0  0  0
 28 75  2  0  0  0  0
 29 46  1  0  0  0  0
 29 70  1  0  0  0  0
 29 76  2  0  0  0  0
 30 60  1  0  0  0  0
 30 66  1  0  0  0  0
 30 77  2  0  0  0  0
 31 61  1  0  0  0  0
 31 71  1  0  0  0  0
 31 78  2  0  0  0  0
 32 67  1  0  0  0  0
 32 72  1  0  0  0  0
 32 79  2  0  0  0  0
 33 36  1  0  0  0  0
 34 46  1  0  0  0  0
 35 66  1  0  0  0  0
 36 38  1  0  0  0  0
 37 39  1  0  0  0  0
 37 42  1  0  0  0  0
 38 45  1  0  0  0  0
 39 48  1  0  0  0  0
 40 44  1  0  0  0  0
 40 47  1  0  0  0  0
 41 47  1  0  0  0  0
 41 49  1  0  0  0  0
 42 67  1  0  0  0  0
 43 48  1  0  0  0  0
 43 67  1  0  0  0  0
 44 73  1  0  0  0  0
 45 70  1  0  0  0  0
 46 66  1  0  0  0  0
 47 57  1  0  0  0  0
 48 65  1  0  0  0  0
 49 62  1  0  0  0  0
 49 73  1  0  0  0  0
 50 61  1  0  0  0  0
 51 62  1  0  0  0  0
 52 62  1  0  0  0  0
 53 63  1  0  0  0  0
 54 63  1  0  0  0  0
 55 63  1  0  0  0  0
 56 74  1  0  0  0  0
 57 81  1  0  0  0  0
 58 59  1  0  0  0  0
 58 72  1  0  0  0  0
 59 73  1  0  0  0  0
 60 63  1  0  0  0  0
 60 71  1  0  0  0  0
 61 74  1  0  0  0  0
 64 65  1  0  0  0  0
M  CHG  2  73   1  74   1
M  ISO  4  32 100  57 101  72 100  81 101
M  END
> <Batch ID>
0106

> <Smiles>
CNC(C)C(=O)NC(C(=O)N1Cc2cc([101O:1][101CH2:1]C3CCN(CC[100NH:0][100C:0](=O)N4CCCC(n5nc(-c6ccc(Oc7ccc(F)cc7F)cc6)c(C(N)=O)c5N)C4)C(C(C)C)C3)ccc2CC1C(=O)NC1CCCc2ccccc21)C(C)(C)C

> <Shape>
0.186

> <Color>
0.053

> <Negative vol penalty>
0.000

$$$$

  -OEChem-04052319483D

 81 89  0     1  0  0  0  0  0999 V2000
  -17.5462  -25.9742   21.7887 C   0  0  0  0  0  0  0  0  0  0  0  0
  -18.8362  -25.4532   21.7855 C   0  0  0  0  0  0  0  0  0  0  0  0
  -23.4882   -9.5890   20.2662 C   0  0  0  0  0  0  0  0  0  0  0  0
  -23.8848  -10.1391   22.5851 C   0  0  0  0  0  0  0  0  0  0  0  0
  -17.3423  -27.3259   22.0627 C   0  0  0  0  0  0  0  0  0  0  0  0
  -19.9231  -26.2840   22.0552 C   0  0  0  0  0  0  0  0  0  0  0  0
  -23.2317  -24.1766   25.2578 C   0  0  0  0  0  0  0  0  0  0  0  0
  -22.8568   -8.4074   20.6545 C   0  0  0  0  0  0  0  0  0  0  0  0
  -23.2534   -8.9575   22.9734 C   0  0  0  0  0  0  0  0  0  0  0  0
  -24.1016  -23.2199   24.7364 C   0  0  0  0  0  0  0  0  0  0  0  0
  -20.0886   -7.8240   23.3193 C   0  0  0  0  0  0  0  0  0  0  0  0
  -19.1727   -7.8951   24.3689 C   0  0  0  0  0  0  0  0  0  0  0  0
  -25.8453  -24.8822   24.6114 C   0  0  0  0  0  0  0  0  0  0  0  0
  -28.2452  -19.6998   21.3690 C   0  0  0  0  0  0  0  0  0  0  0  0
  -27.4562  -19.5296   24.0394 C   0  0  0  0  0  0  0  0  0  0  0  0
  -20.5084   -6.3340   25.6401 C   0  0  0  0  0  0  0  0  0  0  0  0
  -24.0023  -10.4549   21.2315 C   0  0  0  0  0  0  0  0  0  0  0  0
  -24.0570  -12.9345   20.6349 C   0  0  0  0  0  0  0  0  0  0  0  0
  -18.4264  -28.1717   22.3454 C   0  0  0  0  0  0  0  0  0  0  0  0
  -23.6596  -25.4981   25.4500 C   0  0  0  0  0  0  0  0  0  0  0  0
  -19.7336  -27.6487   22.3319 C   0  0  0  0  0  0  0  0  0  0  0  0
  -24.9797  -25.8531   25.1378 C   0  0  0  0  0  0  0  0  0  0  0  0
  -27.2303  -20.5267   21.8504 C   0  0  0  0  0  0  0  0  0  0  0  0
  -28.4711  -18.7027   23.5580 C   0  0  0  0  0  0  0  0  0  0  0  0
  -28.8656  -18.7878   22.2228 C   0  0  0  0  0  0  0  0  0  0  0  0
  -26.8357  -20.4416   23.1856 C   0  0  0  0  0  0  0  0  0  0  0  0
  -22.7393   -8.0917   22.0081 C   0  0  0  0  0  0  0  0  0  0  0  0
  -25.4077  -23.5733   24.4104 C   0  0  0  0  0  0  0  0  0  0  0  0
  -21.2143   -7.0078   23.4300 C   0  0  0  0  0  0  0  0  0  0  0  0
  -19.3826   -7.1501   25.5293 C   0  0  0  0  0  0  0  0  0  0  0  0
  -21.4243   -6.2628   24.5904 C   0  0  0  0  0  0  0  0  0  0  0  0
  -24.6551  -11.6753   20.8311 C   0  0  0  0  0  0  0  0  0  0  0  0
  -25.0952  -13.7537   20.2638 C   0  0  0  0  0  0  0  0  0  0  0  0
  -22.6856  -13.3285   20.7755 C   0  0  0  0  0  0  0  0  0  0  0  0
  -22.7917  -28.3279   24.2913 C   0  0  0  0  0  0  0  0  0  0  0  0
  -24.9229  -29.4377   26.4705 C   0  0  0  0  0  0  0  0  0  0  0  0
  -27.6794  -28.8400   28.3918 C   0  0  0  0  0  0  0  0  0  0  0  0
  -30.3271  -15.5811   20.9218 C   0  0  0  0  0  0  0  0  0  0  0  0
  -18.1604  -29.6361   22.5891 C   0  0  0  0  0  0  0  0  0  0  0  0
  -22.7170  -26.5119   26.0384 C   0  0  0  0  0  0  0  0  0  0  0  0
  -25.4942  -27.2535   25.3443 C   0  0  0  0  0  0  0  0  0  0  0  0
  -19.3340  -30.3693   23.2336 C   0  0  0  0  0  0  0  0  0  0  0  0
  -29.8555  -12.6492   18.9575 C   0  0  0  0  0  0  0  0  0  0  0  0
  -20.6386  -30.0126   22.5283 C   0  0  0  0  0  0  0  0  0  0  0  0
  -28.4139  -12.2353   19.2585 C   0  0  0  0  0  0  0  0  0  0  0  0
  -30.5470  -13.2241   20.1918 C   0  0  0  0  0  0  0  0  0  0  0  0
  -28.3837  -13.9171   21.1477 C   0  0  0  0  0  0  0  0  0  0  0  0
  -20.9361  -28.5127   22.6441 C   0  0  1  0  0  0  0  0  0  0  0  0
  -23.1062  -27.9502   25.7112 C   0  0  1  0  0  0  0  0  0  0  0  0
  -27.6272  -13.3832   19.9193 C   0  0  2  0  0  0  0  0  0  0  0  0
  -26.5810  -21.4959   20.9178 C   0  0  0  0  0  0  0  0  0  0  0  0
  -29.1203  -17.7334   24.4906 C   0  0  0  0  0  0  0  0  0  0  0  0
  -29.2091  -29.9511   30.0417 C   0  0  0  0  0  0  0  0  0  0  0  0
  -26.2669  -30.9618   24.1943 C   0  0  0  0  0  0  0  0  0  0  0  0
  -28.2691  -31.2579   25.6679 C   0  0  0  0  0  0  0  0  0  0  0  0
  -26.0753  -32.2398   26.3354 C   0  0  0  0  0  0  0  0  0  0  0  0
  -26.9928  -26.8949   30.5141 C   0  0  0  0  0  0  0  0  0  0  0  0
  -29.9494  -17.9122   21.6848 C   0  0  0  0  0  0  0  0  0  0  0  0
  -25.7468  -21.3211   23.7260 C   0  0  0  0  0  0  0  0  0  1  0  0
  -26.4027  -29.7361   26.4627 C   0  0  1  0  0  0  0  0  0  0  0  0
  -27.9599  -29.1030   29.8603 C   0  0  2  0  0  0  0  0  0  0  0  0
  -26.7435  -31.0229   25.6592 C   0  0  0  0  0  0  0  0  0  0  0  0
  -25.9712  -11.6885   20.6034 N   0  0  0  0  0  0  0  0  0  0  0  0
  -26.2086  -12.9659   20.2602 N   0  0  0  0  0  0  0  0  0  0  0  0
  -24.5326  -28.2104   25.9163 N   0  0  0  0  0  0  0  0  0  0  0  0
  -29.7504  -14.3094   20.7695 N   0  0  0  0  0  0  0  0  0  0  0  0
  -25.1551  -15.0637   19.9436 N   0  0  0  0  0  0  0  0  0  0  0  0
  -21.7491  -12.3611   21.1644 N   0  0  0  0  0  0  0  0  0  0  0  0
  -21.4568  -28.2006   23.9578 N   0  0  0  0  0  0  0  0  0  0  0  0
  -26.8183  -29.7768   27.8605 N   0  0  0  0  0  0  0  0  0  0  0  0
  -29.5014  -16.5541   21.4715 N   0  0  0  0  0  0  0  0  0  0  0  0
  -28.1547  -27.8176   30.5888 N   0  3  0  0  0  0  0  0  0  0  0  0
  -22.2994  -14.4998   20.5467 O   0  0  0  0  0  0  0  0  0  0  0  0
  -23.6931  -28.7081   23.5534 O   0  0  0  0  0  0  0  0  0  0  0  0
  -24.1427  -30.2601   26.9570 O   0  0  0  0  0  0  0  0  0  0  0  0
  -28.1774  -27.8998   27.7765 O   0  0  0  0  0  0  0  0  0  0  0  0
  -31.4899  -15.8322   20.5875 O   0  0  0  0  0  0  0  0  0  0  0  0
  -22.1231   -6.9389   22.3873 O   0  0  0  0  0  0  0  0  0  0  0  0
  -26.2586  -22.6416   23.9007 O   0  0  0  0  0  0  0  0  0  1  0  0
  -18.5039   -7.2197   26.5378 F   0  0  0  0  0  0  0  0  0  0  0  0
  -22.5045   -5.4779   24.7031 F   0  0  0  0  0  0  0  0  0  0  0  0
  1  2  1  0  0  0  0
  1  5  2  0  0  0  0
  2  6  2  0  0  0  0
  3  8  2  0  0  0  0
  3 17  1  0  0  0  0
  4  9  1  0  0  0  0
  4 17  2  0  0  0  0
  5 19  1  0  0  0  0
  6 21  1  0  0  0  0
  7 10  2  0  0  0  0
  7 20  1  0  0  0  0
  8 27  1  0  0  0  0
  9 27  2  0  0  0  0
 10 28  1  0  0  0  0
 11 12  2  0  0  0  0
 11 29  1  0  0  0  0
 12 30  1  0  0  0  0
 13 22  1  0  0  0  0
 13 28  2  0  0  0  0
 14 23  1  0  0  0  0
 14 25  2  0  0  0  0
 15 24  2  0  0  0  0
 15 26  1  0  0  0  0
 16 30  2  0  0  0  0
 16 31  1  0  0  0  0
 17 32  1  0  0  0  0
 18 32  1  0  0  0  0
 18 33  2  0  0  0  0
 18 34  1  0  0  0  0
 19 21  2  0  0  0  0
 19 39  1  0  0  0  0
 20 22  2  0  0  0  0
 20 40  1  0  0  0  0
 21 48  1  0  0  0  0
 22 41  1  0  0  0  0
 23 26  2  0  0  0  0
 23 51  1  0  0  0  0
 24 25  1  0  0  0  0
 24 52  1  0  0  0  0
 25 58  1  0  0  0  0
 26 59  1  0  0  0  0
 27 78  1  0  0  0  0
 28 79  1  0  0  0  0
 29 31  2  0  0  0  0
 29 78  1  0  0  0  0
 30 80  1  0  0  0  0
 31 81  1  0  0  0  0
 32 63  2  0  0  0  0
 33 64  1  0  0  0  0
 33 67  1  0  0  0  0
 34 68  1  0  0  0  0
 34 73  2  0  0  0  0
 35 49  1  0  0  0  0
 35 69  1  0  0  0  0
 35 74  2  0  0  0  0
 36 60  1  0  0  0  0
 36 65  1  0  0  0  0
 36 75  2  0  0  0  0
 37 61  1  0  0  0  0
 37 70  1  0  0  0  0
 37 76  2  0  0  0  0
 38 66  1  0  0  0  0
 38 71  1  0  0  0  0
 38 77  2  0  0  0  0
 39 42  1  0  0  0  0
 40 49  1  0  0  0  0
 41 65  1  0  0  0  0
 42 44  1  0  0  0  0
 43 45  1  0  0  0  0
 43 46  1  0  0  0  0
 44 48  1  0  0  0  0
 45 50  1  0  0  0  0
 46 66  1  0  0  0  0
 47 50  1  0  0  0  0
 47 66  1  0  0  0  0
 48 69  1  0  0  0  0
 49 65  1  0  0  0  0
 50 64  1  0  0  0  0
 53 61  1  0  0  0  0
 54 62  1  0  0  0  0
 55 62  1  0  0  0  0
 56 62  1  0  0  0  0
 57 72  1  0  0  0  0
 58 71  1  0  0  0  0
 59 79  1  0  0  0  0
 60 62  1  0  0  0  0
 60 70  1  0  0  0  0
 61 72  1  0  0  0  0
 63 64  1  0  0  0  0
M  CHG  1  72   1
M  ISO  4  38 100  59 101  71 100  79 101
M  END
> <Batch ID>
0106

> <Smiles>
CNC(C)C(=O)NC(C(=O)N1Cc2cc([101O:1][101CH2:1]c3cc(C)c(C[100NH:0][100C:0](=O)N4CCCC(n5nc(-c6ccc(Oc7ccc(F)cc7F)cc6)c(C(N)=O)c5N)C4)cc3C)ccc2CC1C(=O)NC1CCCc2ccccc21)C(C)(C)C

> <Shape>
0.282

> <Color>
0.199

> <Negative vol penalty>
0.000

$$$$

  -OEChem-04052319483D

 90 98  0     1  0  0  0  0  0999 V2000
  -32.4197  -13.5492   20.9125 C   0  0  0  0  0  0  0  0  0  0  0  0
  -31.7252  -14.7304   21.1529 C   0  0  0  0  0  0  0  0  0  0  0  0
  -29.5492  -23.8004   21.1971 C   0  0  0  0  0  0  0  0  0  0  0  0
  -29.3519  -23.7666   18.7894 C   0  0  0  0  0  0  0  0  0  0  0  0
  -31.7762  -12.4765   20.2968 C   0  0  0  0  0  0  0  0  0  0  0  0
  -30.3869  -14.8399   20.7767 C   0  0  0  0  0  0  0  0  0  0  0  0
  -25.9836  -17.9371   23.6964 C   0  0  0  0  0  0  0  0  0  0  0  0
  -29.6657  -22.4104   21.2071 C   0  0  0  0  0  0  0  0  0  0  0  0
  -29.4684  -22.3766   18.7994 C   0  0  0  0  0  0  0  0  0  0  0  0
  -25.4294  -19.1995   23.4889 C   0  0  0  0  0  0  0  0  0  0  0  0
  -29.3527  -18.7905   18.2193 C   0  0  0  0  0  0  0  0  0  0  0  0
  -28.4695  -18.0602   17.4243 C   0  0  0  0  0  0  0  0  0  0  0  0
  -23.6351  -18.1975   22.2257 C   0  0  0  0  0  0  0  0  0  0  0  0
  -26.6031  -18.9832   18.6497 C   0  0  0  0  0  0  0  0  0  0  0  0
  -29.3922  -24.4785   19.9883 C   0  0  0  0  0  0  0  0  0  0  0  0
  -30.3143  -26.8545   19.8785 C   0  0  0  0  0  0  0  0  0  0  0  0
  -30.4267  -12.5695   19.9216 C   0  0  0  0  0  0  0  0  0  0  0  0
  -25.3726  -16.7946   23.1599 C   0  0  0  0  0  0  0  0  0  0  0  0
  -29.7252  -13.7679   20.1542 C   0  0  0  0  0  0  0  0  0  0  0  0
  -24.1822  -16.9215   22.4299 C   0  0  0  0  0  0  0  0  0  0  0  0
  -29.6253  -21.6986   20.0082 C   0  0  0  0  0  0  0  0  0  0  0  0
  -24.2566  -19.3301   22.7511 C   0  0  0  0  0  0  0  0  0  0  0  0
  -28.8611  -19.6172   19.2296 C   0  0  0  0  0  0  0  0  0  0  0  0
  -27.0947  -18.1565   17.6394 C   0  0  0  0  0  0  0  0  0  0  0  0
  -27.4863  -19.7136   19.4447 C   0  0  0  0  0  0  0  0  0  0  0  0
  -29.2712  -25.9142   19.9773 C   0  0  0  0  0  0  0  0  0  0  0  0
  -29.6821  -28.0733   19.9123 C   0  0  0  0  0  0  0  0  0  0  0  0
  -31.7282  -26.6448   19.7660 C   0  0  0  0  0  0  0  0  0  0  0  0
  -20.0989  -27.1118   18.6770 C   0  0  0  0  0  0  0  0  0  0  0  0
  -26.2339  -14.5644   21.0651 C   0  0  0  0  0  0  0  0  0  0  0  0
  -23.4248  -13.2037   21.9479 C   0  0  0  0  0  0  0  0  0  0  0  0
  -20.2950  -13.6023   23.2490 C   0  0  0  0  0  0  0  0  0  0  0  0
  -24.9445  -30.7248   18.1971 C   0  0  0  0  0  0  0  0  0  0  0  0
  -29.7871  -11.4000   19.2161 C   0  0  0  0  0  0  0  0  0  0  0  0
  -25.9685  -15.4374   23.4153 C   0  0  0  0  0  0  0  0  0  0  0  0
  -23.4761  -15.7242   21.8499 C   0  0  0  0  0  0  0  0  0  0  0  0
  -28.2623  -11.4657   19.1875 C   0  0  0  0  0  0  0  0  0  0  0  0
  -25.2967  -29.6944   21.4895 C   0  0  0  0  0  0  0  0  0  0  0  0
  -27.7956  -12.8588   18.7772 C   0  0  0  0  0  0  0  0  0  0  0  0
  -26.4574  -28.7018   21.4418 C   0  0  0  0  0  0  0  0  0  0  0  0
  -20.7822  -26.3770   20.9115 C   0  0  0  0  0  0  0  0  0  0  0  0
  -24.3808  -29.5194   20.2841 C   0  0  0  0  0  0  0  0  0  0  0  0
  -26.2495  -28.6656   18.9056 C   0  0  0  0  0  0  0  0  0  0  0  0
  -21.1422  -25.2190   21.8276 C   0  0  0  0  0  0  0  0  0  0  0  0
  -21.6986  -23.8007   19.8424 C   0  0  0  0  0  0  0  0  0  0  0  0
  -28.2656  -13.9165   19.7831 C   0  0  1  0  0  0  0  0  0  0  0  0
  -20.3154  -25.8997   19.5342 C   0  0  2  0  0  0  0  0  0  0  0  0
  -25.5412  -14.3941   22.3875 C   0  0  1  0  0  0  0  0  0  0  0  0
  -21.3376  -24.9459   18.8907 C   0  0  2  0  0  0  0  0  0  0  0  0
  -27.2114  -28.7993   20.1040 C   0  0  2  0  0  0  0  0  0  0  0  0
  -18.6981  -27.3607   18.1778 C   0  0  0  0  0  0  0  0  0  0  0  0
  -20.8101  -24.3611   17.5761 C   0  0  0  0  0  0  0  0  0  0  0  0
  -18.2171  -12.3132   23.8124 C   0  0  0  0  0  0  0  0  0  0  0  0
  -24.2353  -33.7218   18.4769 C   0  0  0  0  0  0  0  0  0  0  0  0
  -23.7136  -32.7492   16.2174 C   0  0  0  0  0  0  0  0  0  0  0  0
  -22.6868  -13.1046   18.9889 C   0  0  0  0  0  0  0  0  0  0  0  0
  -20.3078  -12.7183   19.6668 C   0  0  0  0  0  0  0  0  0  0  0  0
  -22.0649  -11.0602   20.2882 C   0  0  0  0  0  0  0  0  0  0  0  0
  -20.5064  -14.2912   26.1194 C   0  0  0  0  0  0  0  0  0  0  0  0
  -21.8772  -29.9585   17.2462 C   0  0  0  0  0  0  0  0  0  0  0  0
  -24.0201  -22.7390   21.5893 C   0  0  0  0  0  0  0  0  0  0  0  0
  -20.6526  -29.0860   17.5100 C   0  0  0  0  0  0  0  0  0  0  0  0
  -22.5062  -30.5393   18.5104 C   0  0  0  0  0  0  0  0  0  0  0  0
  -22.6810  -23.2757   22.0723 C   0  0  0  0  0  0  0  0  0  0  0  0
  -24.6139  -21.6674   22.4952 C   0  0  0  0  0  0  0  0  0  1  0  0
  -21.9959  -13.2945   21.4694 C   0  0  1  0  0  0  0  0  0  0  0  0
  -19.5478  -12.8390   24.3276 C   0  0  2  0  0  0  0  0  0  0  0  0
  -23.4212  -32.6865   17.7110 C   0  0  0  0  0  0  0  0  0  0  0  0
  -21.7780  -12.5674   20.1125 C   0  0  0  0  0  0  0  0  0  0  0  0
  -28.0678  -26.4866   20.0674 N   0  0  0  0  0  0  0  0  0  0  0  0
  -21.0182  -27.9559   18.3506 N   0  0  0  0  0  0  0  0  0  0  0  0
  -28.3508  -27.7997   20.0254 N   0  0  0  0  0  0  0  0  0  0  0  0
  -24.1014  -14.4193   22.1216 N   0  0  0  0  0  0  0  0  0  0  0  0
  -25.1308  -29.6125   19.0312 N   0  0  0  0  0  0  0  0  0  0  0  0
  -30.1408  -29.3418   19.8562 N   0  0  0  0  0  0  0  0  0  0  0  0
  -32.2089  -25.3285   19.7458 N   0  0  0  0  0  0  0  0  0  0  0  0
  -27.4362  -13.8902   20.9689 N   0  0  0  0  0  0  0  0  0  0  0  0
  -21.1677  -12.7881   22.5585 N   0  0  0  0  0  0  0  0  0  0  0  0
  -23.6856  -31.3437   18.2245 N   0  0  0  0  0  0  0  0  0  0  0  0
  -22.1836  -24.3605   21.1566 N   0  3  2  0  0  0  0  0  0  0  0  0
  -19.2827  -13.7224   25.4982 N   0  3  0  0  0  0  0  0  0  0  0  0
  -32.5425  -27.5968   19.7022 O   0  0  0  0  0  0  0  0  0  0  0  0
  -25.7153  -15.2552   20.1959 O   0  0  0  0  0  0  0  0  0  0  0  0
  -23.9200  -12.0953   22.1666 O   0  0  0  0  0  0  0  0  0  0  0  0
  -20.1193  -14.8002   23.0375 O   0  0  0  0  0  0  0  0  0  0  0  0
  -25.8547  -31.1477   17.4726 O   0  0  0  0  0  0  0  0  0  0  0  0
  -29.7392  -20.3423   20.0176 O   0  0  0  0  0  0  0  0  0  0  0  0
  -23.7139  -20.5612   22.5465 O   0  0  0  0  0  0  0  0  0  1  0  0
  -26.2466  -17.4563   16.8748 F   0  0  0  0  0  0  0  0  0  0  0  0
  -27.0081  -20.5070   20.4130 F   0  0  0  0  0  0  0  0  0  0  0  0
  1  2  1  0  0  0  0
  1  5  2  0  0  0  0
  2  6  2  0  0  0  0
  3  8  2  0  0  0  0
  3 15  1  0  0  0  0
  4  9  1  0  0  0  0
  4 15  2  0  0  0  0
  5 17  1  0  0  0  0
  6 19  1  0  0  0  0
  7 10  2  0  0  0  0
  7 18  1  0  0  0  0
  8 21  1  0  0  0  0
  9 21  2  0  0  0  0
 10 22  1  0  0  0  0
 11 12  2  0  0  0  0
 11 23  1  0  0  0  0
 12 24  1  0  0  0  0
 13 20  1  0  0  0  0
 13 22  2  0  0  0  0
 14 24  2  0  0  0  0
 14 25  1  0  0  0  0
 15 26  1  0  0  0  0
 16 26  1  0  0  0  0
 16 27  2  0  0  0  0
 16 28  1  0  0  0  0
 17 19  2  0  0  0  0
 17 34  1  0  0  0  0
 18 20  2  0  0  0  0
 18 35  1  0  0  0  0
 19 46  1  0  0  0  0
 20 36  1  0  0  0  0
 21 87  1  0  0  0  0
 22 88  1  0  0  0  0
 23 25  2  0  0  0  0
 23 87  1  0  0  0  0
 24 89  1  0  0  0  0
 25 90  1  0  0  0  0
 26 70  2  0  0  0  0
 27 72  1  0  0  0  0
 27 75  1  0  0  0  0
 28 76  1  0  0  0  0
 28 82  2  0  0  0  0
 29 47  1  0  0  0  0
 29 51  1  0  0  0  0
 29 71  2  0  0  0  0
 30 48  1  0  0  0  0
 30 77  1  0  0  0  0
 30 83  2  0  0  0  0
 31 66  1  0  0  0  0
 31 73  1  0  0  0  0
 31 84  2  0  0  0  0
 32 67  1  0  0  0  0
 32 78  1  0  0  0  0
 32 85  2  0  0  0  0
 33 74  1  0  0  0  0
 33 79  1  0  0  0  0
 33 86  2  0  0  0  0
 34 37  1  0  0  0  0
 35 48  1  0  0  0  0
 36 73  1  0  0  0  0
 37 39  1  0  0  0  0
 38 40  1  0  0  0  0
 38 42  1  0  0  0  0
 39 46  1  0  0  0  0
 40 50  1  0  0  0  0
 41 44  1  0  0  0  0
 41 47  1  0  0  0  0
 42 74  1  0  0  0  0
 43 50  1  0  0  0  0
 43 74  1  0  0  0  0
 44 80  1  0  0  0  0
 45 49  1  0  0  0  0
 45 80  1  0  0  0  0
 46 77  1  0  0  0  0
 47 49  1  0  0  0  0
 48 73  1  0  0  0  0
 49 52  1  0  0  0  0
 50 72  1  0  0  0  0
 53 67  1  0  0  0  0
 54 68  1  0  0  0  0
 55 68  1  0  0  0  0
 56 69  1  0  0  0  0
 57 69  1  0  0  0  0
 58 69  1  0  0  0  0
 59 81  1  0  0  0  0
 60 62  1  0  0  0  0
 60 63  1  0  0  0  0
 61 64  1  0  0  0  0
 61 65  1  0  0  0  0
 62 71  1  0  0  0  0
 63 79  1  0  0  0  0
 64 80  1  0  0  0  0
 65 88  1  0  0  0  0
 66 69  1  0  0  0  0
 66 78  1  0  0  0  0
 67 81  1  0  0  0  0
 68 79  1  0  0  0  0
 70 72  1  0  0  0  0
M  CHG  2  80   1  81   1
M  ISO  4  33 100  65 101  79 100  88 101
M  END
> <Batch ID>
0106

> <Smiles>
CNC(C)C(=O)NC(C(=O)N1Cc2cc([101O:1][101CH2:1]CCN3CCC(=C(C)NCCC[100N:0](C(C)C)[100C:0](=O)N4CCCC(n5nc(-c6ccc(Oc7ccc(F)cc7F)cc6)c(C(N)=O)c5N)C4)C(C)C3)ccc2CC1C(=O)NC1CCCc2ccccc21)C(C)(C)C

> <Shape>
0.232

> <Color>
0.082

> <Negative vol penalty>
0.000

$$$$

  -OEChem-04052319483D

 86 94  0     1  0  0  0  0  0999 V2000
  -23.0718   -8.0136   20.5992 C   0  0  0  0  0  0  0  0  0  0  0  0
  -22.5835   -9.1060   19.8895 C   0  0  0  0  0  0  0  0  0  0  0  0
  -23.1337  -24.5675   17.6294 C   0  0  0  0  0  0  0  0  0  0  0  0
  -28.7982  -27.8717   20.9097 C   0  0  0  0  0  0  0  0  0  0  0  0
  -27.4421  -26.9526   19.1339 C   0  0  0  0  0  0  0  0  0  0  0  0
  -23.9239   -8.2133   21.6845 C   0  0  0  0  0  0  0  0  0  0  0  0
  -22.9463  -10.3988   20.2653 C   0  0  0  0  0  0  0  0  0  0  0  0
  -24.2397  -16.8685   17.4749 C   0  0  0  0  0  0  0  0  0  0  0  0
  -22.3874  -24.9262   18.7519 C   0  0  0  0  0  0  0  0  0  0  0  0
  -23.3618  -23.2212   17.3445 C   0  0  0  0  0  0  0  0  0  0  0  0
  -29.8211  -26.9786   20.5907 C   0  0  0  0  0  0  0  0  0  0  0  0
  -28.4650  -26.0596   18.8149 C   0  0  0  0  0  0  0  0  0  0  0  0
  -23.8621  -18.2020   17.6266 C   0  0  0  0  0  0  0  0  0  0  0  0
  -30.5780  -23.2953   17.7643 C   0  0  0  0  0  0  0  0  0  0  0  0
  -30.2281  -21.9656   17.5297 C   0  0  0  0  0  0  0  0  0  0  0  0
  -25.4035  -18.4225   19.4690 C   0  0  0  0  0  0  0  0  0  0  0  0
  -22.0974  -22.5922   19.3047 C   0  0  0  0  0  0  0  0  0  0  0  0
  -29.3321  -21.8066   19.7678 C   0  0  0  0  0  0  0  0  0  0  0  0
  -27.6087  -27.8587   20.1813 C   0  0  0  0  0  0  0  0  0  0  0  0
  -26.3579  -30.0737   19.9888 C   0  0  0  0  0  0  0  0  0  0  0  0
  -24.3050   -9.5088   22.0679 C   0  0  0  0  0  0  0  0  0  0  0  0
  -25.1957  -16.2980   18.3275 C   0  0  0  0  0  0  0  0  0  0  0  0
  -23.8033  -10.6161   21.3576 C   0  0  0  0  0  0  0  0  0  0  0  0
  -25.7933  -17.0823   19.3244 C   0  0  0  0  0  0  0  0  0  0  0  0
  -21.8693  -23.9385   19.5896 C   0  0  0  0  0  0  0  0  0  0  0  0
  -22.8437  -22.2336   18.1822 C   0  0  0  0  0  0  0  0  0  0  0  0
  -29.6545  -26.0726   19.5434 C   0  0  0  0  0  0  0  0  0  0  0  0
  -24.4419  -18.9784   18.6256 C   0  0  0  0  0  0  0  0  0  0  0  0
  -30.3051  -23.8807   19.0007 C   0  0  0  0  0  0  0  0  0  0  0  0
  -29.6051  -21.2213   18.5315 C   0  0  0  0  0  0  0  0  0  0  0  0
  -29.6821  -23.1363   20.0024 C   0  0  0  0  0  0  0  0  0  0  0  0
  -26.5514  -28.7806   20.5106 C   0  0  0  0  0  0  0  0  0  0  0  0
  -25.2250  -30.5311   20.6162 C   0  0  0  0  0  0  0  0  0  0  0  0
  -27.1330  -30.7967   19.0233 C   0  0  0  0  0  0  0  0  0  0  0  0
  -25.1883  -13.9135   20.4294 C   0  0  0  0  0  0  0  0  0  0  0  0
  -28.3681  -14.5404   20.5646 C   0  0  0  0  0  0  0  0  0  0  0  0
  -30.9003  -16.7841   20.1166 C   0  0  0  0  0  0  0  0  0  0  0  0
  -20.5430  -27.7553   23.1112 C   0  0  0  0  0  0  0  0  0  0  0  0
  -25.1906   -9.6770   23.2771 C   0  0  0  0  0  0  0  0  0  0  0  0
  -25.6116  -14.8656   18.1337 C   0  0  0  0  0  0  0  0  0  0  0  0
  -26.8392  -16.5230   20.2527 C   0  0  0  0  0  0  0  0  0  0  0  0
  -25.8257  -11.0614   23.3791 C   0  0  0  0  0  0  0  0  0  0  0  0
  -22.7498  -30.0646   24.6840 C   0  0  0  0  0  0  0  0  0  0  0  0
  -24.7831  -12.1467   23.1305 C   0  0  0  0  0  0  0  0  0  0  0  0
  -23.9569  -30.1140   23.7457 C   0  0  0  0  0  0  0  0  0  0  0  0
  -22.1526  -28.6612   24.7618 C   0  0  0  0  0  0  0  0  0  0  0  0
  -23.0172  -28.1103   22.5207 C   0  0  0  0  0  0  0  0  0  0  0  0
  -24.1937  -12.0327   21.7194 C   0  0  1  0  0  0  0  0  0  0  0  0
  -26.2193  -14.2449   19.3878 C   0  0  1  0  0  0  0  0  0  0  0  0
  -23.6195  -29.5173   22.3661 C   0  0  2  0  0  0  0  0  0  0  0  0
  -33.3883  -17.0181   20.3455 C   0  0  0  0  0  0  0  0  0  0  0  0
  -18.9207  -23.0551   20.4231 C   0  0  0  0  0  0  0  0  0  0  0  0
  -28.0644  -14.7834   23.5909 C   0  0  0  0  0  0  0  0  0  0  0  0
  -30.2920  -15.9246   23.6528 C   0  0  0  0  0  0  0  0  0  0  0  0
  -30.1201  -13.5715   22.8427 C   0  0  0  0  0  0  0  0  0  0  0  0
  -31.2320  -17.3247   17.2258 C   0  0  0  0  0  0  0  0  0  0  0  0
  -16.7041  -25.5403   22.8752 C   0  0  0  0  0  0  0  0  0  0  0  0
  -16.6681  -25.6969   20.3903 C   0  0  0  0  0  0  0  0  0  0  0  0
  -21.0702  -24.3227   20.7888 C   0  0  0  0  0  0  0  0  0  0  0  0
  -23.0896  -20.7854   17.8760 C   0  0  0  0  0  0  0  0  0  1  0  0
  -19.0498  -26.8529   21.3462 C   0  0  0  0  0  0  0  0  0  0  0  0
  -29.2444  -15.4486   21.3929 C   0  0  1  0  0  0  0  0  0  0  0  0
  -32.2402  -16.6636   19.4133 C   0  0  2  0  0  0  0  0  0  0  0  0
  -19.5392  -24.4560   20.5428 C   0  0  2  0  0  0  0  0  0  0  0  0
  -18.8263  -25.3570   21.5851 C   0  0  2  0  0  0  0  0  0  0  0  0
  -29.4091  -14.9423   22.8537 C   0  0  0  0  0  0  0  0  0  0  0  0
  -25.6164  -28.4386   21.4010 N   0  0  0  0  0  0  0  0  0  0  0  0
  -24.8245  -29.5235   21.4436 N   0  0  0  0  0  0  0  0  0  0  0  0
  -27.2078  -15.1156   20.0273 N   0  0  0  0  0  0  0  0  0  0  0  0
  -21.8539  -28.1538   23.4205 N   0  0  0  0  0  0  0  0  0  0  0  0
  -24.5422  -31.6929   20.5354 N   0  0  0  0  0  0  0  0  0  0  0  0
  -28.2667  -30.1787   18.4784 N   0  0  0  0  0  0  0  0  0  0  0  0
  -25.1159  -12.5694   20.7417 N   0  0  0  0  0  0  0  0  0  0  0  0
  -30.4998  -15.5826   20.6619 N   0  0  0  0  0  0  0  0  0  0  0  0
  -20.3446  -27.2927   21.8160 N   0  0  0  0  0  0  0  0  0  0  0  0
  -32.2914  -17.5764   18.2364 N   0  3  0  0  0  0  0  0  0  0  0  0
  -17.3556  -25.1020   21.5905 N   0  3  0  0  0  0  0  0  0  0  0  0
  -26.8385  -31.9628   18.6670 O   0  0  0  0  0  0  0  0  0  0  0  0
  -24.5098  -14.8110   20.9149 O   0  0  0  0  0  0  0  0  0  0  0  0
  -28.7045  -13.3659   20.3943 O   0  0  0  0  0  0  0  0  0  0  0  0
  -30.2736  -17.8394   20.1795 O   0  0  0  0  0  0  0  0  0  0  0  0
  -19.6167  -27.8129   23.9270 O   0  0  0  0  0  0  0  0  0  0  0  0
  -30.6525  -25.2011   19.2317 O   0  0  0  0  0  0  0  0  0  0  0  0
  -24.0747  -20.2801   18.7763 O   0  0  0  0  0  0  0  0  0  1  0  0
  -29.2676  -19.9449   18.3055 F   0  0  0  0  0  0  0  0  0  0  0  0
  -29.4163  -23.6936   21.1918 F   0  0  0  0  0  0  0  0  0  0  0  0
  1  2  1  0  0  0  0
  1  6  2  0  0  0  0
  2  7  2  0  0  0  0
  3  9  1  0  0  0  0
  3 10  2  0  0  0  0
  4 11  2  0  0  0  0
  4 19  1  0  0  0  0
  5 12  1  0  0  0  0
  5 19  2  0  0  0  0
  6 21  1  0  0  0  0
  7 23  1  0  0  0  0
  8 13  2  0  0  0  0
  8 22  1  0  0  0  0
  9 25  2  0  0  0  0
 10 26  1  0  0  0  0
 11 27  1  0  0  0  0
 12 27  2  0  0  0  0
 13 28  1  0  0  0  0
 14 15  2  0  0  0  0
 14 29  1  0  0  0  0
 15 30  1  0  0  0  0
 16 24  1  0  0  0  0
 16 28  2  0  0  0  0
 17 25  1  0  0  0  0
 17 26  2  0  0  0  0
 18 30  2  0  0  0  0
 18 31  1  0  0  0  0
 19 32  1  0  0  0  0
 20 32  1  0  0  0  0
 20 33  2  0  0  0  0
 20 34  1  0  0  0  0
 21 23  2  0  0  0  0
 21 39  1  0  0  0  0
 22 24  2  0  0  0  0
 22 40  1  0  0  0  0
 23 48  1  0  0  0  0
 24 41  1  0  0  0  0
 25 59  1  0  0  0  0
 26 60  1  0  0  0  0
 27 83  1  0  0  0  0
 28 84  1  0  0  0  0
 29 31  2  0  0  0  0
 29 83  1  0  0  0  0
 30 85  1  0  0  0  0
 31 86  1  0  0  0  0
 32 67  2  0  0  0  0
 33 68  1  0  0  0  0
 33 71  1  0  0  0  0
 34 72  1  0  0  0  0
 34 78  2  0  0  0  0
 35 49  1  0  0  0  0
 35 73  1  0  0  0  0
 35 79  2  0  0  0  0
 36 62  1  0  0  0  0
 36 69  1  0  0  0  0
 36 80  2  0  0  0  0
 37 63  1  0  0  0  0
 37 74  1  0  0  0  0
 37 81  2  0  0  0  0
 38 70  1  0  0  0  0
 38 75  1  0  0  0  0
 38 82  2  0  0  0  0
 39 42  1  0  0  0  0
 40 49  1  0  0  0  0
 41 69  1  0  0  0  0
 42 44  1  0  0  0  0
 43 45  1  0  0  0  0
 43 46  1  0  0  0  0
 44 48  1  0  0  0  0
 45 50  1  0  0  0  0
 46 70  1  0  0  0  0
 47 50  1  0  0  0  0
 47 70  1  0  0  0  0
 48 73  1  0  0  0  0
 49 69  1  0  0  0  0
 50 68  1  0  0  0  0
 51 63  1  0  0  0  0
 52 64  1  0  0  0  0
 53 66  1  0  0  0  0
 54 66  1  0  0  0  0
 55 66  1  0  0  0  0
 56 76  1  0  0  0  0
 57 77  1  0  0  0  0
 58 77  1  0  0  0  0
 59 64  1  0  0  0  0
 60 84  1  0  0  0  0
 61 65  1  0  0  0  0
 61 75  1  0  0  0  0
 62 66  1  0  0  0  0
 62 74  1  0  0  0  0
 63 76  1  0  0  0  0
 64 65  1  0  0  0  0
 65 77  1  0  0  0  0
 67 68  1  0  0  0  0
M  CHG  2  76   1  77   1
M  ISO  4  38 100  60 101  75 100  84 101
M  END
> <Batch ID>
0106

> <Smiles>
CNC(C)C(=O)NC(C(=O)N1Cc2cc([101O:1][101CH2:1]c3cccc(CC(C)C(C[100NH:0][100C:0](=O)N4CCCC(n5nc(-c6ccc(Oc7ccc(F)cc7F)cc6)c(C(N)=O)c5N)C4)N(C)C)c3)ccc2CC1C(=O)NC1CCCc2ccccc21)C(C)(C)C

> <Shape>
0.278

> <Color>
0.064

> <Negative vol penalty>
0.000

$$$$

  -OEChem-04052319483D

 83 90  0     1  0  0  0  0  0999 V2000
  -32.9022  -25.6371   16.2678 C   0  0  0  0  0  0  0  0  0  0  0  0
  -31.5363  -25.8249   16.0819 C   0  0  0  0  0  0  0  0  0  0  0  0
  -26.2522  -16.2037   22.3835 C   0  0  0  0  0  0  0  0  0  0  0  0
  -25.5307  -16.0940   20.0804 C   0  0  0  0  0  0  0  0  0  0  0  0
  -33.4220  -25.5392   17.5578 C   0  0  0  0  0  0  0  0  0  0  0  0
  -30.6893  -25.9139   17.1861 C   0  0  0  0  0  0  0  0  0  0  0  0
  -25.6639  -29.3759   17.7014 C   0  0  0  0  0  0  0  0  0  0  0  0
  -25.5740  -15.0149   22.6526 C   0  0  0  0  0  0  0  0  0  0  0  0
  -24.8526  -14.9051   20.3494 C   0  0  0  0  0  0  0  0  0  0  0  0
  -24.3078  -29.0889   17.5518 C   0  0  0  0  0  0  0  0  0  0  0  0
  -25.6166  -11.6357   20.7334 C   0  0  0  0  0  0  0  0  0  0  0  0
  -25.7597  -10.5892   19.8223 C   0  0  0  0  0  0  0  0  0  0  0  0
  -24.1169  -28.7774   19.9363 C   0  0  0  0  0  0  0  0  0  0  0  0
  -23.3756  -10.6034   19.4314 C   0  0  0  0  0  0  0  0  0  0  0  0
  -26.2305  -16.7433   21.0974 C   0  0  0  0  0  0  0  0  0  0  0  0
  -28.2651  -18.1119   20.3940 C   0  0  0  0  0  0  0  0  0  0  0  0
  -32.5823  -25.6367   18.6785 C   0  0  0  0  0  0  0  0  0  0  0  0
  -26.2601  -29.3551   18.9704 C   0  0  0  0  0  0  0  0  0  0  0  0
  -31.1982  -25.8159   18.4922 C   0  0  0  0  0  0  0  0  0  0  0  0
  -25.4802  -29.0670   20.0995 C   0  0  0  0  0  0  0  0  0  0  0  0
  -24.8742  -14.3656   21.6356 C   0  0  0  0  0  0  0  0  0  0  0  0
  -23.5347  -28.7867   18.6690 C   0  0  0  0  0  0  0  0  0  0  0  0
  -24.3529  -12.1660   20.9935 C   0  0  0  0  0  0  0  0  0  0  0  0
  -24.6393  -10.0731   19.1713 C   0  0  0  0  0  0  0  0  0  0  0  0
  -23.2325  -11.6499   20.3425 C   0  0  0  0  0  0  0  0  0  0  0  0
  -26.9304  -17.9716   20.8190 C   0  0  0  0  0  0  0  0  0  0  0  0
  -28.4458  -19.4680   20.2719 C   0  0  0  0  0  0  0  0  0  0  0  0
  -29.2532  -17.1064   20.1328 C   0  0  0  0  0  0  0  0  0  0  0  0
  -28.5766  -27.6576   20.3329 C   0  0  0  0  0  0  0  0  0  0  0  0
  -28.1210  -29.7314   22.7853 C   0  0  0  0  0  0  0  0  0  0  0  0
  -19.8357  -26.7881   18.4160 C   0  0  0  0  0  0  0  0  0  0  0  0
  -26.0338  -31.8959   24.3993 C   0  0  0  0  0  0  0  0  0  0  0  0
  -24.6716  -24.0129   19.2969 C   0  0  0  0  0  0  0  0  0  0  0  0
  -33.1838  -25.4776   20.0524 C   0  0  0  0  0  0  0  0  0  0  0  0
  -27.7183  -29.6931   19.1179 C   0  0  0  0  0  0  0  0  0  0  0  0
  -26.0679  -29.0513   21.4862 C   0  0  0  0  0  0  0  0  0  0  0  0
  -32.2696  -25.9573   21.1768 C   0  0  0  0  0  0  0  0  0  0  0  0
  -26.8922  -23.6279   22.0532 C   0  0  0  0  0  0  0  0  0  0  0  0
  -30.8538  -25.4257   20.9772 C   0  0  0  0  0  0  0  0  0  0  0  0
  -27.2743  -22.1472   22.0111 C   0  0  0  0  0  0  0  0  0  0  0  0
  -25.4365  -23.8469   21.6472 C   0  0  0  0  0  0  0  0  0  0  0  0
  -25.4434  -21.7801   20.3047 C   0  0  0  0  0  0  0  0  0  0  0  0
  -30.2506  -25.9421   19.6653 C   0  0  1  0  0  0  0  0  0  0  0  0
  -28.3335  -29.1389   20.3992 C   0  0  1  0  0  0  0  0  0  0  0  0
  -26.9182  -21.5147   20.6523 C   0  0  2  0  0  0  0  0  0  0  0  0
  -25.9297  -33.4125   26.3960 C   0  0  0  0  0  0  0  0  0  0  0  0
  -27.7712  -27.3074   24.6051 C   0  0  0  0  0  0  0  0  0  0  0  0
  -26.7524  -28.8257   26.3154 C   0  0  0  0  0  0  0  0  0  0  0  0
  -29.1157  -29.1695   25.5947 C   0  0  0  0  0  0  0  0  0  0  0  0
  -23.8180  -22.9925   15.7884 C   0  0  0  0  0  0  0  0  0  0  0  0
  -24.9499  -25.1019   16.4942 C   0  0  0  0  0  0  0  0  0  0  0  0
  -25.5991  -34.2849   22.7074 C   0  0  0  0  0  0  0  0  0  0  0  0
  -21.6133  -23.7170   18.0336 C   0  0  0  0  0  0  0  0  0  0  0  0
  -22.5474  -24.6194   17.2119 C   0  0  0  0  0  0  0  0  0  0  0  0
  -20.2321  -24.3372   18.2310 C   0  0  0  0  0  0  0  0  0  0  0  0
  -21.4787  -28.2046   19.7130 C   0  0  0  0  0  0  0  0  0  1  0  0
  -27.2378  -29.7622   24.0092 C   0  0  1  0  0  0  0  0  0  0  0  0
  -20.0123  -27.9492   19.3813 C   0  0  1  0  0  0  0  0  0  0  0  0
  -26.2486  -33.3083   24.9127 C   0  0  2  0  0  0  0  0  0  0  0  0
  -27.7084  -28.7645   25.1049 C   0  0  0  0  0  0  0  0  0  0  0  0
  -23.9470  -24.0223   16.9233 C   0  0  0  0  0  0  0  0  0  0  0  0
  -26.3073  -19.1449   20.9577 N   0  0  0  0  0  0  0  0  0  0  0  0
  -27.2548  -20.0354   20.6180 N   0  0  0  0  0  0  0  0  0  0  0  0
  -27.4995  -29.3824   21.5779 N   0  0  0  0  0  0  0  0  0  0  0  0
  -25.1647  -23.2241   20.3494 N   0  0  0  0  0  0  0  0  0  0  0  0
  -29.5057  -20.2185   19.9034 N   0  0  0  0  0  0  0  0  0  0  0  0
  -28.9004  -15.7614   20.3082 N   0  0  0  0  0  0  0  0  0  0  0  0
  -29.8109  -27.3126   19.8162 N   0  0  0  0  0  0  0  0  0  0  0  0
  -20.2871  -25.5899   18.9489 N   0  0  0  0  0  0  0  0  0  0  0  0
  -27.1947  -31.1534   24.4465 N   0  0  0  0  0  0  0  0  0  0  0  0
  -24.4472  -23.3454   18.0990 N   0  0  0  0  0  0  0  0  0  0  0  0
  -19.4228  -29.1939   18.8101 N   0  3  0  0  0  0  0  0  0  0  0  0
  -25.3756  -34.2655   24.1760 N   0  3  0  0  0  0  0  0  0  0  0  0
  -30.4196  -17.3929   19.7709 O   0  0  0  0  0  0  0  0  0  0  0  0
  -27.7092  -26.8849   20.7230 O   0  0  0  0  0  0  0  0  0  0  0  0
  -29.3168  -30.0137   22.8952 O   0  0  0  0  0  0  0  0  0  0  0  0
  -19.3469  -26.9241   17.2966 O   0  0  0  0  0  0  0  0  0  0  0  0
  -24.9444  -31.4907   24.0002 O   0  0  0  0  0  0  0  0  0  0  0  0
  -24.4529  -25.2234   19.4143 O   0  0  0  0  0  0  0  0  0  0  0  0
  -24.2126  -13.2054   21.8977 O   0  0  0  0  0  0  0  0  0  0  0  0
  -22.2110  -28.5056   18.5258 O   0  0  0  0  0  0  0  0  0  1  0  0
  -24.7771   -9.0692   18.2953 F   0  0  0  0  0  0  0  0  0  0  0  0
  -22.0161  -12.1560   20.5875 F   0  0  0  0  0  0  0  0  0  0  0  0
  1  2  1  0  0  0  0
  1  5  2  0  0  0  0
  2  6  2  0  0  0  0
  3  8  2  0  0  0  0
  3 15  1  0  0  0  0
  4  9  1  0  0  0  0
  4 15  2  0  0  0  0
  5 17  1  0  0  0  0
  6 19  1  0  0  0  0
  7 10  2  0  0  0  0
  7 18  1  0  0  0  0
  8 21  1  0  0  0  0
  9 21  2  0  0  0  0
 10 22  1  0  0  0  0
 11 12  2  0  0  0  0
 11 23  1  0  0  0  0
 12 24  1  0  0  0  0
 13 20  1  0  0  0  0
 13 22  2  0  0  0  0
 14 24  2  0  0  0  0
 14 25  1  0  0  0  0
 15 26  1  0  0  0  0
 16 26  1  0  0  0  0
 16 27  2  0  0  0  0
 16 28  1  0  0  0  0
 17 19  2  0  0  0  0
 17 34  1  0  0  0  0
 18 20  2  0  0  0  0
 18 35  1  0  0  0  0
 19 43  1  0  0  0  0
 20 36  1  0  0  0  0
 21 80  1  0  0  0  0
 22 81  1  0  0  0  0
 23 25  2  0  0  0  0
 23 80  1  0  0  0  0
 24 82  1  0  0  0  0
 25 83  1  0  0  0  0
 26 62  2  0  0  0  0
 27 63  1  0  0  0  0
 27 66  1  0  0  0  0
 28 67  1  0  0  0  0
 28 74  2  0  0  0  0
 29 44  1  0  0  0  0
 29 68  1  0  0  0  0
 29 75  2  0  0  0  0
 30 57  1  0  0  0  0
 30 64  1  0  0  0  0
 30 76  2  0  0  0  0
 31 58  1  0  0  0  0
 31 69  1  0  0  0  0
 31 77  2  0  0  0  0
 32 59  1  0  0  0  0
 32 70  1  0  0  0  0
 32 78  2  0  0  0  0
 33 65  1  0  0  0  0
 33 71  1  0  0  0  0
 33 79  2  0  0  0  0
 34 37  1  0  0  0  0
 35 44  1  0  0  0  0
 36 64  1  0  0  0  0
 37 39  1  0  0  0  0
 38 40  1  0  0  0  0
 38 41  1  0  0  0  0
 39 43  1  0  0  0  0
 40 45  1  0  0  0  0
 41 65  1  0  0  0  0
 42 45  1  0  0  0  0
 42 65  1  0  0  0  0
 43 68  1  0  0  0  0
 44 64  1  0  0  0  0
 45 63  1  0  0  0  0
 46 59  1  0  0  0  0
 47 60  1  0  0  0  0
 48 60  1  0  0  0  0
 49 60  1  0  0  0  0
 50 61  1  0  0  0  0
 51 61  1  0  0  0  0
 52 73  1  0  0  0  0
 53 54  1  0  0  0  0
 53 55  1  0  0  0  0
 54 61  1  0  0  0  0
 55 69  1  0  0  0  0
 56 58  1  0  0  0  0
 56 81  1  0  0  0  0
 57 60  1  0  0  0  0
 57 70  1  0  0  0  0
 58 72  1  0  0  0  0
 59 73  1  0  0  0  0
 61 71  1  0  0  0  0
 62 63  1  0  0  0  0
M  CHG  2  72   1  73   1
M  ISO  4  33 100  56 101  71 100  81 101
M  END
> <Batch ID>
0106

> <Smiles>
CNC(C)C(=O)NC(C(=O)N1Cc2cc([101O:1][101CH2:1]C(N)C(=O)NCCCC(C)(C)[100NH:0][100C:0](=O)N3CCCC(n4nc(-c5ccc(Oc6ccc(F)cc6F)cc5)c(C(N)=O)c4N)C3)ccc2CC1C(=O)NC1CCCc2ccccc21)C(C)(C)C

> <Shape>
0.222

> <Color>
0.061

> <Negative vol penalty>
0.000

$$$$

  -OEChem-04052319483D

 90 99  0     1  0  0  0  0  0999 V2000
  -23.9728   -7.9434   22.1176 C   0  0  0  0  0  0  0  0  0  0  0  0
  -24.6960   -9.0163   21.6065 C   0  0  0  0  0  0  0  0  0  0  0  0
  -25.6874  -30.2396   21.0602 C   0  0  0  0  0  0  0  0  0  0  0  0
  -23.8640  -29.0153   22.0669 C   0  0  0  0  0  0  0  0  0  0  0  0
  -22.5826   -8.0154   22.1961 C   0  0  0  0  0  0  0  0  0  0  0  0
  -24.0293  -10.1615   21.1725 C   0  0  0  0  0  0  0  0  0  0  0  0
  -26.2440  -14.4241   22.7758 C   0  0  0  0  0  0  0  0  0  0  0  0
  -25.3629  -31.3562   21.8304 C   0  0  0  0  0  0  0  0  0  0  0  0
  -23.5396  -30.1320   22.8372 C   0  0  0  0  0  0  0  0  0  0  0  0
  -27.3879  -14.8415   22.0969 C   0  0  0  0  0  0  0  0  0  0  0  0
  -25.8208  -32.4062   25.0118 C   0  0  0  0  0  0  0  0  0  0  0  0
  -26.8646  -33.0871   25.6382 C   0  0  0  0  0  0  0  0  0  0  0  0
  -26.0645  -16.4329   20.8578 C   0  0  0  0  0  0  0  0  0  0  0  0
  -28.3442  -20.5431   16.5715 C   0  0  0  0  0  0  0  0  0  0  0  0
  -26.2842  -35.0937   24.4241 C   0  0  0  0  0  0  0  0  0  0  0  0
  -30.1219  -19.4314   17.3922 C   0  0  0  0  0  0  0  0  0  0  0  0
  -24.9379  -29.0691   21.1783 C   0  0  0  0  0  0  0  0  0  0  0  0
  -25.2965  -27.8300   18.9775 C   0  0  0  0  0  0  0  0  0  0  0  0
  -21.8992   -9.1659   21.7717 C   0  0  0  0  0  0  0  0  0  0  0  0
  -24.9978  -15.0013   22.4925 C   0  0  0  0  0  0  0  0  0  0  0  0
  -22.6285  -10.2485   21.2440 C   0  0  0  0  0  0  0  0  0  0  0  0
  -24.9067  -16.0228   21.5363 C   0  0  0  0  0  0  0  0  0  0  0  0
  -29.5987  -20.6928   17.2124 C   0  0  0  0  0  0  0  0  0  0  0  0
  -24.2890  -31.3024   22.7190 C   0  0  0  0  0  0  0  0  0  0  0  0
  -27.2979  -15.8440   21.1357 C   0  0  0  0  0  0  0  0  0  0  0  0
  -25.0087  -33.0690   24.0915 C   0  0  0  0  0  0  0  0  0  0  0  0
  -27.0963  -34.4308   25.3444 C   0  0  0  0  0  0  0  0  0  0  0  0
  -25.2404  -34.4127   23.7977 C   0  0  0  0  0  0  0  0  0  0  0  0
  -25.2722  -27.9154   20.3824 C   0  0  0  0  0  0  0  0  0  0  0  0
  -28.1388  -19.1946   16.3793 C   0  0  0  0  0  0  0  0  0  0  0  0
  -25.6723  -26.5345   18.7187 C   0  0  0  0  0  0  0  0  0  0  0  0
  -25.0055  -28.8321   17.9942 C   0  0  0  0  0  0  0  0  0  0  0  0
  -22.2278  -13.9195   21.3698 C   0  0  0  0  0  0  0  0  0  0  0  0
  -21.2257  -16.9310   22.0397 C   0  0  0  0  0  0  0  0  0  0  0  0
  -22.0294  -20.2137   22.5139 C   0  0  0  0  0  0  0  0  0  0  0  0
  -28.9353  -22.1203   19.7251 C   0  0  0  0  0  0  0  0  0  0  0  0
  -20.3923   -9.1788   21.8321 C   0  0  0  0  0  0  0  0  0  0  0  0
  -23.7778  -14.5585   23.2527 C   0  0  0  0  0  0  0  0  0  0  0  0
  -23.5959  -16.6888   21.2098 C   0  0  0  0  0  0  0  0  0  0  0  0
  -19.7893  -10.5748   21.6990 C   0  0  0  0  0  0  0  0  0  0  0  0
  -31.0045  -14.5765   17.5152 C   0  0  0  0  0  0  0  0  0  0  0  0
  -26.0750  -22.5450   21.8023 C   0  0  0  0  0  0  0  0  0  0  0  0
  -20.4405  -11.3298   20.5446 C   0  0  0  0  0  0  0  0  0  0  0  0
  -29.7667  -14.9366   18.3234 C   0  0  0  0  0  0  0  0  0  0  0  0
  -30.8915  -15.0845   16.0854 C   0  0  0  0  0  0  0  0  0  0  0  0
  -25.6173  -23.9744   21.5068 C   0  0  0  0  0  0  0  0  0  0  0  0
  -27.5973  -22.4253   21.7874 C   0  0  0  0  0  0  0  0  0  0  0  0
  -27.7881  -24.3539   20.2649 C   0  0  0  0  0  0  0  0  0  0  0  0
  -21.9432  -11.5176   20.7861 C   0  0  1  0  0  0  0  0  0  0  0  0
  -22.4747  -14.8572   22.5176 C   0  0  1  0  0  0  0  0  0  0  0  0
  -29.5094  -16.4517   18.3319 C   0  0  1  0  0  0  0  0  0  0  0  0
  -30.6643  -16.6035   16.0340 C   0  0  2  0  0  0  0  0  0  0  0  0
  -26.2589  -24.5126   20.2137 C   0  0  2  0  0  0  0  0  0  0  0  0
  -29.4256  -17.0168   16.8830 C   0  0  2  0  0  0  0  0  0  0  0  0
  -26.9989  -18.4882   15.7591 C   0  0  0  0  0  0  0  0  0  0  0  0
  -20.9918  -22.4441   23.0098 C   0  0  0  0  0  0  0  0  0  0  0  0
  -31.9115  -17.1903   13.9339 C   0  0  0  0  0  0  0  0  0  0  0  0
  -29.6891  -16.0310   13.7910 C   0  0  0  0  0  0  0  0  0  0  0  0
  -30.5205  -22.9860   16.4636 C   0  0  0  0  0  0  0  0  0  0  0  0
  -31.6028  -21.7144   18.3125 C   0  0  0  0  0  0  0  0  0  0  0  0
  -20.2361  -17.1083   19.1589 C   0  0  0  0  0  0  0  0  0  0  0  0
  -20.0957  -19.5929   19.4335 C   0  0  0  0  0  0  0  0  0  0  0  0
  -18.6905  -18.1012   20.8558 C   0  0  0  0  0  0  0  0  0  0  0  0
  -23.5585  -20.4953   25.0322 C   0  0  0  0  0  0  0  0  0  0  0  0
  -28.2353  -16.7340   19.1394 C   0  0  0  0  0  0  0  0  0  1  0  0
  -21.1790  -18.2357   21.2816 C   0  0  1  0  0  0  0  0  0  0  0  0
  -21.6377  -21.2000   23.5994 C   0  0  2  0  0  0  0  0  0  0  0  0
  -30.5329  -17.0362   14.5673 C   0  0  0  0  0  0  0  0  0  0  0  0
  -30.2298  -21.9646   17.6134 C   0  0  0  0  0  0  0  0  0  0  0  0
  -20.0748  -18.2458   20.1870 C   0  0  0  0  0  0  0  0  0  0  0  0
  -25.6058  -26.7657   20.9748 N   0  0  0  0  0  0  0  0  0  0  0  0
  -29.2258  -18.5285   16.8823 N   0  0  0  0  0  0  0  0  0  0  0  0
  -25.8432  -25.9456   19.9370 N   0  0  0  0  0  0  0  0  0  0  0  0
  -22.4304  -16.2167   21.9755 N   0  0  0  0  0  0  0  0  0  0  0  0
  -28.1428  -22.9515   20.5338 N   0  0  0  0  0  0  0  0  0  0  0  0
  -25.8698  -25.8530   17.5703 N   0  0  0  0  0  0  0  0  0  0  0  0
  -23.6867  -28.9559   17.5364 N   0  0  0  0  0  0  0  0  0  0  0  0
  -22.1729  -12.5875   21.7333 N   0  0  0  0  0  0  0  0  0  0  0  0
  -21.0359  -19.2856   22.2845 N   0  0  0  0  0  0  0  0  0  0  0  0
  -29.4070  -22.6954   18.5515 N   0  0  0  0  0  0  0  0  0  0  0  0
  -22.8382  -21.6176   24.3775 N   0  3  0  0  0  0  0  0  0  0  0  0
  -25.8921  -29.5842   17.5231 O   0  0  0  0  0  0  0  0  0  0  0  0
  -22.0953  -14.3712   20.2384 O   0  0  0  0  0  0  0  0  0  0  0  0
  -20.2323  -16.5629   22.6716 O   0  0  0  0  0  0  0  0  0  0  0  0
  -23.1074  -20.2640   21.9257 O   0  0  0  0  0  0  0  0  0  0  0  0
  -29.1983  -20.9505   20.0241 O   0  0  0  0  0  0  0  0  0  0  0  0
  -23.9723  -32.3918   23.4710 O   0  0  0  0  0  0  0  0  0  0  0  0
  -28.4128  -16.2529   20.4711 O   0  0  0  0  0  0  0  0  0  1  0  0
  -28.0978  -35.0850   25.9472 F   0  0  0  0  0  0  0  0  0  0  0  0
  -24.4629  -35.0551   22.9153 F   0  0  0  0  0  0  0  0  0  0  0  0
  1  2  1  0  0  0  0
  1  5  2  0  0  0  0
  2  6  2  0  0  0  0
  3  8  2  0  0  0  0
  3 17  1  0  0  0  0
  4  9  1  0  0  0  0
  4 17  2  0  0  0  0
  5 19  1  0  0  0  0
  6 21  1  0  0  0  0
  7 10  2  0  0  0  0
  7 20  1  0  0  0  0
  8 24  1  0  0  0  0
  9 24  2  0  0  0  0
 10 25  1  0  0  0  0
 11 12  2  0  0  0  0
 11 26  1  0  0  0  0
 12 27  1  0  0  0  0
 13 22  1  0  0  0  0
 13 25  2  0  0  0  0
 14 23  1  0  0  0  0
 14 30  2  0  0  0  0
 15 27  2  0  0  0  0
 15 28  1  0  0  0  0
 16 23  2  0  0  0  0
 16 72  1  0  0  0  0
 17 29  1  0  0  0  0
 18 29  1  0  0  0  0
 18 31  2  0  0  0  0
 18 32  1  0  0  0  0
 19 21  2  0  0  0  0
 19 37  1  0  0  0  0
 20 22  2  0  0  0  0
 20 38  1  0  0  0  0
 21 49  1  0  0  0  0
 22 39  1  0  0  0  0
 23 69  1  0  0  0  0
 24 87  1  0  0  0  0
 25 88  1  0  0  0  0
 26 28  2  0  0  0  0
 26 87  1  0  0  0  0
 27 89  1  0  0  0  0
 28 90  1  0  0  0  0
 29 71  2  0  0  0  0
 30 55  1  0  0  0  0
 30 72  1  0  0  0  0
 31 73  1  0  0  0  0
 31 76  1  0  0  0  0
 32 77  1  0  0  0  0
 32 82  2  0  0  0  0
 33 50  1  0  0  0  0
 33 78  1  0  0  0  0
 33 83  2  0  0  0  0
 34 66  1  0  0  0  0
 34 74  1  0  0  0  0
 34 84  2  0  0  0  0
 35 67  1  0  0  0  0
 35 79  1  0  0  0  0
 35 85  2  0  0  0  0
 36 75  1  0  0  0  0
 36 80  1  0  0  0  0
 36 86  2  0  0  0  0
 37 40  1  0  0  0  0
 38 50  1  0  0  0  0
 39 74  1  0  0  0  0
 40 43  1  0  0  0  0
 41 44  1  0  0  0  0
 41 45  1  0  0  0  0
 42 46  1  0  0  0  0
 42 47  1  0  0  0  0
 43 49  1  0  0  0  0
 44 51  1  0  0  0  0
 45 52  1  0  0  0  0
 46 53  1  0  0  0  0
 47 75  1  0  0  0  0
 48 53  1  0  0  0  0
 48 75  1  0  0  0  0
 49 78  1  0  0  0  0
 50 74  1  0  0  0  0
 51 54  1  0  0  0  0
 51 65  1  0  0  0  0
 52 54  1  0  0  0  0
 52 68  1  0  0  0  0
 53 73  1  0  0  0  0
 54 72  1  0  0  0  0
 56 67  1  0  0  0  0
 57 68  1  0  0  0  0
 58 68  1  0  0  0  0
 59 69  1  0  0  0  0
 60 69  1  0  0  0  0
 61 70  1  0  0  0  0
 62 70  1  0  0  0  0
 63 70  1  0  0  0  0
 64 81  1  0  0  0  0
 65 88  1  0  0  0  0
 66 70  1  0  0  0  0
 66 79  1  0  0  0  0
 67 81  1  0  0  0  0
 69 80  1  0  0  0  0
 71 73  1  0  0  0  0
M  CHG  1  81   1
M  ISO  4  36 100  65 101  80 100  88 101
M  END
> <Batch ID>
0106

> <Smiles>
CNC(C)C(=O)NC(C(=O)N1Cc2cc([101O:1][101CH2:1]C3CCCC(C(C)C)C3n3cc(C(C)(C)[100NH:0][100C:0](=O)N4CCCC(n5nc(-c6ccc(Oc7ccc(F)cc7F)cc6)c(C(N)=O)c5N)C4)cc3C)ccc2CC1C(=O)NC1CCCc2ccccc21)C(C)(C)C

> <Shape>
0.208

> <Color>
0.083

> <Negative vol penalty>
0.000

$$$$

  -OEChem-04052319483D

 83 91  0     1  0  0  0  0  0999 V2000
  -20.5955  -22.4000   23.2839 C   0  0  0  0  0  0  0  0  0  0  0  0
  -21.6145  -22.9923   22.5448 C   0  0  0  0  0  0  0  0  0  0  0  0
  -26.8974  -13.9659   22.1383 C   0  0  0  0  0  0  0  0  0  0  0  0
  -26.4170  -13.7749   19.7782 C   0  0  0  0  0  0  0  0  0  0  0  0
  -19.7949  -23.1813   24.1161 C   0  0  0  0  0  0  0  0  0  0  0  0
  -21.8326  -24.3665   22.6365 C   0  0  0  0  0  0  0  0  0  0  0  0
  -26.7409  -25.5284   23.0882 C   0  0  0  0  0  0  0  0  0  0  0  0
  -26.1075  -12.8441   22.3899 C   0  0  0  0  0  0  0  0  0  0  0  0
  -25.6271  -12.6531   20.0298 C   0  0  0  0  0  0  0  0  0  0  0  0
  -27.5135  -25.4905   21.9283 C   0  0  0  0  0  0  0  0  0  0  0  0
  -22.5124  -12.0051   21.1740 C   0  0  0  0  0  0  0  0  0  0  0  0
  -21.2724  -11.9301   20.5396 C   0  0  0  0  0  0  0  0  0  0  0  0
  -27.3427  -27.8897   21.7433 C   0  0  0  0  0  0  0  0  0  0  0  0
  -21.9505   -9.8797   19.4565 C   0  0  0  0  0  0  0  0  0  0  0  0
  -25.8515  -27.2754   18.1069 C   0  0  0  0  0  0  0  0  0  0  0  0
  -24.2742  -25.7438   17.6813 C   0  0  0  0  0  0  0  0  0  0  0  0
  -27.0521  -14.4314   20.8325 C   0  0  0  0  0  0  0  0  0  0  0  0
  -29.2463  -15.6137   20.2893 C   0  0  0  0  0  0  0  0  0  0  0  0
  -20.0095  -24.5642   24.2254 C   0  0  0  0  0  0  0  0  0  0  0  0
  -26.2534  -26.7482   23.5791 C   0  0  0  0  0  0  0  0  0  0  0  0
  -21.0332  -25.1672   23.4699 C   0  0  0  0  0  0  0  0  0  0  0  0
  -26.5662  -27.9406   22.9111 C   0  0  0  0  0  0  0  0  0  0  0  0
  -26.4919  -26.0766   17.8837 C   0  0  0  0  0  0  0  0  0  0  0  0
  -25.4941  -25.1075   17.6146 C   0  0  0  0  0  0  0  0  0  0  0  0
  -25.4724  -12.1877   21.3356 C   0  0  0  0  0  0  0  0  0  0  0  0
  -27.8121  -26.6709   21.2541 C   0  0  0  0  0  0  0  0  0  0  0  0
  -23.4715  -11.0174   20.9495 C   0  0  0  0  0  0  0  0  0  0  0  0
  -20.9915  -10.8674   19.6809 C   0  0  0  0  0  0  0  0  0  0  0  0
  -23.1905   -9.9547   20.0908 C   0  0  0  0  0  0  0  0  0  0  0  0
  -27.8674  -15.5904   20.5720 C   0  0  0  0  0  0  0  0  0  0  0  0
  -29.5399  -16.9449   20.1210 C   0  0  0  0  0  0  0  0  0  0  0  0
  -30.1784  -14.5290   20.1878 C   0  0  0  0  0  0  0  0  0  0  0  0
  -23.3619  -27.9710   24.0771 C   0  0  0  0  0  0  0  0  0  0  0  0
  -25.0460  -30.3985   25.4162 C   0  0  0  0  0  0  0  0  0  0  0  0
  -27.9893  -32.1133   25.6243 C   0  0  0  0  0  0  0  0  0  0  0  0
  -26.2139  -21.5244   18.4415 C   0  0  0  0  0  0  0  0  0  0  0  0
  -19.0879  -25.3748   25.1019 C   0  0  0  0  0  0  0  0  0  0  0  0
  -25.4437  -26.7749   24.8464 C   0  0  0  0  0  0  0  0  0  0  0  0
  -26.0841  -29.2781   23.4082 C   0  0  0  0  0  0  0  0  0  0  0  0
  -19.6254  -26.7657   25.4289 C   0  0  0  0  0  0  0  0  0  0  0  0
  -28.1175  -21.2982   21.5111 C   0  0  0  0  0  0  0  0  0  0  0  0
  -20.1532  -27.4438   24.1686 C   0  0  0  0  0  0  0  0  0  0  0  0
  -28.3988  -19.7963   21.5846 C   0  0  0  0  0  0  0  0  0  0  0  0
  -26.7223  -21.5730   20.9578 C   0  0  0  0  0  0  0  0  0  0  0  0
  -26.7343  -19.4537   19.6999 C   0  0  0  0  0  0  0  0  0  0  0  0
  -21.3169  -26.6509   23.5615 C   0  0  1  0  0  0  0  0  0  0  0  0
  -24.5691  -28.0187   24.9705 C   0  0  1  0  0  0  0  0  0  0  0  0
  -28.1382  -19.1105   20.2304 C   0  0  2  0  0  0  0  0  0  0  0  0
  -29.0498  -34.0735   26.7776 C   0  0  0  0  0  0  0  0  0  0  0  0
  -23.6015  -29.1752   17.0864 C   0  0  0  0  0  0  0  0  0  0  0  0
  -23.4553  -28.6428   19.5565 C   0  0  0  0  0  0  0  0  0  0  0  0
  -29.8571  -24.8172   19.2514 C   0  0  0  0  0  0  0  0  0  0  0  0
  -23.5321  -32.2998   23.5715 C   0  0  0  0  0  0  0  0  0  0  0  0
  -25.2573  -34.0447   24.0688 C   0  0  0  0  0  0  0  0  0  0  0  0
  -23.8381  -33.1366   25.9083 C   0  0  0  0  0  0  0  0  0  0  0  0
  -30.0339  -30.4005   26.9069 C   0  0  0  0  0  0  0  0  0  0  0  0
  -27.9848  -25.8496   17.9203 C   0  0  0  0  0  0  0  0  0  0  0  0
  -25.7090  -23.6778   17.3167 C   0  0  0  0  0  0  0  0  0  0  0  0
  -25.6522  -31.6854   24.9108 C   0  0  1  0  0  0  0  0  0  0  0  0
  -28.8048  -32.5732   26.8192 C   0  0  2  0  0  0  0  0  0  0  0  0
  -23.4815  -28.0704   18.1380 C   0  0  0  0  0  0  0  0  0  0  0  0
  -28.4777  -25.4604   19.3182 C   0  0  2  0  0  0  0  0  0  1  0  0
  -24.5775  -32.7664   24.6041 C   0  0  0  0  0  0  0  0  0  0  0  0
  -27.3228  -16.8100   20.5837 N   0  0  0  0  0  0  0  0  0  0  0  0
  -24.5037  -27.0613   17.9810 N   0  0  0  0  0  0  0  0  0  0  0  0
  -28.3648  -17.6120   20.3062 N   0  0  0  0  0  0  0  0  0  0  0  0
  -25.2905  -29.2515   24.6479 N   0  0  0  0  0  0  0  0  0  0  0  0
  -26.5456  -20.9076   19.6593 N   0  0  0  0  0  0  0  0  0  0  0  0
  -30.6860  -17.5980   19.8341 N   0  0  0  0  0  0  0  0  0  0  0  0
  -29.7093  -13.2238   20.3897 N   0  0  0  0  0  0  0  0  0  0  0  0
  -22.5341  -26.8888   24.3073 N   0  0  0  0  0  0  0  0  0  0  0  0
  -26.6397  -32.0899   25.9056 N   0  0  0  0  0  0  0  0  0  0  0  0
  -26.0459  -22.9029   18.4901 N   0  0  0  0  0  0  0  0  0  0  0  0
  -30.1249  -31.8819   26.8424 N   0  3  0  0  0  0  0  0  0  0  0  0
  -31.3947  -14.7131   19.9421 O   0  0  0  0  0  0  0  0  0  0  0  0
  -23.1933  -28.8516   23.2418 O   0  0  0  0  0  0  0  0  0  0  0  0
  -24.3860  -30.4093   26.4583 O   0  0  0  0  0  0  0  0  0  0  0  0
  -28.4983  -31.8091   24.5478 O   0  0  0  0  0  0  0  0  0  0  0  0
  -26.0824  -20.8938   17.3869 O   0  0  0  0  0  0  0  0  0  0  0  0
  -24.7018  -11.0929   21.5807 O   0  0  0  0  0  0  0  0  0  0  0  0
  -28.5656  -26.6367   20.1214 O   0  0  0  0  0  0  0  0  0  1  0  0
  -19.8001  -10.7947   19.0730 F   0  0  0  0  0  0  0  0  0  0  0  0
  -24.1075   -9.0023   19.8723 F   0  0  0  0  0  0  0  0  0  0  0  0
  1  2  1  0  0  0  0
  1  5  2  0  0  0  0
  2  6  2  0  0  0  0
  3  8  2  0  0  0  0
  3 17  1  0  0  0  0
  4  9  1  0  0  0  0
  4 17  2  0  0  0  0
  5 19  1  0  0  0  0
  6 21  1  0  0  0  0
  7 10  2  0  0  0  0
  7 20  1  0  0  0  0
  8 25  1  0  0  0  0
  9 25  2  0  0  0  0
 10 26  1  0  0  0  0
 11 12  2  0  0  0  0
 11 27  1  0  0  0  0
 12 28  1  0  0  0  0
 13 22  1  0  0  0  0
 13 26  2  0  0  0  0
 14 28  2  0  0  0  0
 14 29  1  0  0  0  0
 15 23  2  0  0  0  0
 15 65  1  0  0  0  0
 16 24  2  0  0  0  0
 16 65  1  0  0  0  0
 17 30  1  0  0  0  0
 18 30  1  0  0  0  0
 18 31  2  0  0  0  0
 18 32  1  0  0  0  0
 19 21  2  0  0  0  0
 19 37  1  0  0  0  0
 20 22  2  0  0  0  0
 20 38  1  0  0  0  0
 21 46  1  0  0  0  0
 22 39  1  0  0  0  0
 23 24  1  0  0  0  0
 23 57  1  0  0  0  0
 24 58  1  0  0  0  0
 25 80  1  0  0  0  0
 26 81  1  0  0  0  0
 27 29  2  0  0  0  0
 27 80  1  0  0  0  0
 28 82  1  0  0  0  0
 29 83  1  0  0  0  0
 30 64  2  0  0  0  0
 31 66  1  0  0  0  0
 31 69  1  0  0  0  0
 32 70  1  0  0  0  0
 32 75  2  0  0  0  0
 33 47  1  0  0  0  0
 33 71  1  0  0  0  0
 33 76  2  0  0  0  0
 34 59  1  0  0  0  0
 34 67  1  0  0  0  0
 34 77  2  0  0  0  0
 35 60  1  0  0  0  0
 35 72  1  0  0  0  0
 35 78  2  0  0  0  0
 36 68  1  0  0  0  0
 36 73  1  0  0  0  0
 36 79  2  0  0  0  0
 37 40  1  0  0  0  0
 38 47  1  0  0  0  0
 39 67  1  0  0  0  0
 40 42  1  0  0  0  0
 41 43  1  0  0  0  0
 41 44  1  0  0  0  0
 42 46  1  0  0  0  0
 43 48  1  0  0  0  0
 44 68  1  0  0  0  0
 45 48  1  0  0  0  0
 45 68  1  0  0  0  0
 46 71  1  0  0  0  0
 47 67  1  0  0  0  0
 48 66  1  0  0  0  0
 49 60  1  0  0  0  0
 50 61  1  0  0  0  0
 51 61  1  0  0  0  0
 52 62  1  0  0  0  0
 53 63  1  0  0  0  0
 54 63  1  0  0  0  0
 55 63  1  0  0  0  0
 56 74  1  0  0  0  0
 57 62  1  0  0  0  0
 58 73  1  0  0  0  0
 59 63  1  0  0  0  0
 59 72  1  0  0  0  0
 60 74  1  0  0  0  0
 61 65  1  0  0  0  0
 62 81  1  0  0  0  0
 64 66  1  0  0  0  0
M  CHG  1  74   1
M  ISO  4  36 100  62 101  73 100  81 101
M  END
> <Batch ID>
0106

> <Smiles>
CNC(C)C(=O)NC(C(=O)N1Cc2cc([101O:1][101CH:1](C)Cc3cn(C(C)C)cc3C[100NH:0][100C:0](=O)N3CCCC(n4nc(-c5ccc(Oc6ccc(F)cc6F)cc5)c(C(N)=O)c4N)C3)ccc2CC1C(=O)NC1CCCc2ccccc21)C(C)(C)C

> <Shape>
0.237

> <Color>
0.076

> <Negative vol penalty>
0.000

$$$$

  -OEChem-04052319483D

 84 92  0     1  0  0  0  0  0999 V2000
  -17.5847  -25.7942   27.8664 C   0  0  0  0  0  0  0  0  0  0  0  0
  -18.3929  -24.7639   27.3967 C   0  0  0  0  0  0  0  0  0  0  0  0
  -26.9311  -12.3878   21.8624 C   0  0  0  0  0  0  0  0  0  0  0  0
  -26.4077  -14.0201   20.1598 C   0  0  0  0  0  0  0  0  0  0  0  0
  -17.3284  -26.9013   27.0586 C   0  0  0  0  0  0  0  0  0  0  0  0
  -18.9445  -24.8396   26.1182 C   0  0  0  0  0  0  0  0  0  0  0  0
  -24.7856  -22.9317   22.4362 C   0  0  0  0  0  0  0  0  0  0  0  0
  -25.6023  -11.9637   21.8643 C   0  0  0  0  0  0  0  0  0  0  0  0
  -25.0789  -13.5959   20.1616 C   0  0  0  0  0  0  0  0  0  0  0  0
  -25.1524  -22.2634   21.2689 C   0  0  0  0  0  0  0  0  0  0  0  0
  -23.6107  -10.0030   19.9611 C   0  0  0  0  0  0  0  0  0  0  0  0
  -23.3688   -8.6293   19.9556 C   0  0  0  0  0  0  0  0  0  0  0  0
  -24.7054  -24.2607   19.9921 C   0  0  0  0  0  0  0  0  0  0  0  0
  -30.5743  -22.2734   22.2354 C   0  0  0  0  0  0  0  0  0  0  0  0
  -29.5674  -23.7291   20.5911 C   0  0  0  0  0  0  0  0  0  0  0  0
  -29.8665  -21.3816   20.1046 C   0  0  0  0  0  0  0  0  0  0  0  0
  -22.1836   -8.8298   22.0514 C   0  0  0  0  0  0  0  0  0  0  0  0
  -27.3338  -13.4161   21.0101 C   0  0  0  0  0  0  0  0  0  0  0  0
  -29.7557  -13.3604   20.2110 C   0  0  0  0  0  0  0  0  0  0  0  0
  -17.8850  -26.9951   25.7733 C   0  0  0  0  0  0  0  0  0  0  0  0
  -24.3648  -24.2685   22.3887 C   0  0  0  0  0  0  0  0  0  0  0  0
  -18.6944  -25.9484   25.2919 C   0  0  0  0  0  0  0  0  0  0  0  0
  -24.3362  -24.9445   21.1606 C   0  0  0  0  0  0  0  0  0  0  0  0
  -30.1390  -23.5411   21.8495 C   0  0  0  0  0  0  0  0  0  0  0  0
  -30.4381  -21.1936   21.3629 C   0  0  0  0  0  0  0  0  0  0  0  0
  -24.6762  -12.5677   21.0139 C   0  0  0  0  0  0  0  0  0  0  0  0
  -25.1096  -22.9270   20.0462 C   0  0  0  0  0  0  0  0  0  0  0  0
  -23.1392  -10.7901   21.0117 C   0  0  0  0  0  0  0  0  0  0  0  0
  -29.4311  -22.6493   19.7186 C   0  0  0  0  0  0  0  0  0  0  0  0
  -22.6552   -8.0427   21.0007 C   0  0  0  0  0  0  0  0  0  0  0  0
  -22.4256  -10.2035   22.0568 C   0  0  0  0  0  0  0  0  0  0  0  0
  -28.7062  -13.8551   21.0081 C   0  0  0  0  0  0  0  0  0  0  0  0
  -30.8496  -14.1022   20.5846 C   0  0  0  0  0  0  0  0  0  0  0  0
  -29.7430  -12.3232   19.2212 C   0  0  0  0  0  0  0  0  0  0  0  0
  -21.6764  -25.8010   23.1151 C   0  0  0  0  0  0  0  0  0  0  0  0
  -23.4591  -28.4317   22.4639 C   0  0  0  0  0  0  0  0  0  0  0  0
  -26.1411  -29.7861   20.8454 C   0  0  0  0  0  0  0  0  0  0  0  0
  -31.4693  -19.5471   22.9667 C   0  0  0  0  0  0  0  0  0  0  0  0
  -17.5411  -28.1893   24.9187 C   0  0  0  0  0  0  0  0  0  0  0  0
  -23.9980  -24.9833   23.6603 C   0  0  0  0  0  0  0  0  0  0  0  0
  -23.9113  -26.3858   21.0584 C   0  0  0  0  0  0  0  0  0  0  0  0
  -18.4682  -28.3670   23.7190 C   0  0  0  0  0  0  0  0  0  0  0  0
  -32.6612  -16.4798   24.3263 C   0  0  0  0  0  0  0  0  0  0  0  0
  -18.6698  -27.0376   22.9987 C   0  0  0  0  0  0  0  0  0  0  0  0
  -31.8822  -15.4135   23.5528 C   0  0  0  0  0  0  0  0  0  0  0  0
  -31.8056  -17.7133   24.6096 C   0  0  0  0  0  0  0  0  0  0  0  0
  -30.3796  -17.2378   22.6577 C   0  0  0  0  0  0  0  0  0  0  0  0
  -19.3311  -26.0056   23.9202 C   0  0  1  0  0  0  0  0  0  0  0  0
  -23.0937  -26.1897   23.4281 C   0  0  1  0  0  0  0  0  0  0  0  0
  -31.2195  -16.0030   22.2923 C   0  0  2  0  0  0  0  0  0  0  0  0
  -28.9276  -25.3056   23.1810 C   0  0  0  0  0  0  0  0  0  0  0  0
  -31.2059  -25.7949   22.2192 C   0  0  0  0  0  0  0  0  0  0  0  0
  -27.3207  -31.9696   20.4737 C   0  0  0  0  0  0  0  0  0  0  0  0
  -21.2671  -29.2821   20.5192 C   0  0  0  0  0  0  0  0  0  0  0  0
  -22.8876  -30.9018   19.5099 C   0  0  0  0  0  0  0  0  0  0  0  0
  -22.2147  -31.1394   21.9001 C   0  0  0  0  0  0  0  0  0  0  0  0
  -28.6387  -28.7785   22.0725 C   0  0  0  0  0  0  0  0  0  0  0  0
  -27.0217  -22.2298   17.0612 C   0  0  0  0  0  0  0  0  0  0  0  0
  -26.0321  -23.0648   17.8586 C   0  0  0  0  0  0  0  0  0  1  0  0
  -28.1697  -21.7302   17.9241 C   0  0  0  0  0  0  0  0  0  0  0  0
  -30.2848  -24.6958   22.7820 C   0  0  0  0  0  0  0  0  0  0  0  0
  -23.7498  -29.2467   21.2269 C   0  0  1  0  0  0  0  0  0  0  0  0
  -27.2448  -30.7115   21.3248 C   0  0  2  0  0  0  0  0  0  0  0  0
  -22.5360  -30.1148   20.7904 C   0  0  0  0  0  0  0  0  0  0  0  0
  -29.0981  -14.8352   21.8266 N   0  0  0  0  0  0  0  0  0  0  0  0
  -30.4061  -14.9623   21.5457 N   0  0  0  0  0  0  0  0  0  0  0  0
  -23.5561  -27.0395   22.3289 N   0  0  0  0  0  0  0  0  0  0  0  0
  -31.2139  -18.2191   23.3691 N   0  0  0  0  0  0  0  0  0  0  0  0
  -32.1380  -14.0961   20.1816 N   0  0  0  0  0  0  0  0  0  0  0  0
  -28.5345  -11.6630   18.9608 N   0  0  0  0  0  0  0  0  0  0  0  0
  -30.8804  -19.9057   21.7546 N   0  0  0  0  0  0  0  0  0  0  0  0
  -20.7508  -26.2632   24.0311 N   0  0  0  0  0  0  0  0  0  0  0  0
  -24.9579  -30.0116   21.5167 N   0  0  0  0  0  0  0  0  0  0  0  0
  -28.5638  -30.0209   21.2615 N   0  3  0  0  0  0  0  0  0  0  0  0
  -30.7764  -11.9806   18.5981 O   0  0  0  0  0  0  0  0  0  0  0  0
  -21.4400  -25.1325   22.1156 O   0  0  0  0  0  0  0  0  0  0  0  0
  -23.1641  -29.0092   23.5132 O   0  0  0  0  0  0  0  0  0  0  0  0
  -26.3105  -28.9495   19.9611 O   0  0  0  0  0  0  0  0  0  0  0  0
  -32.1819  -20.3016   23.6337 O   0  0  0  0  0  0  0  0  0  0  0  0
  -23.3796  -12.1538   21.0153 O   0  0  0  0  0  0  0  0  0  0  0  0
  -25.4664  -22.2769   18.9052 O   0  0  0  0  0  0  0  0  0  1  0  0
  -28.8697  -22.8342   18.4819 O   0  0  0  0  0  0  0  0  0  0  0  0
  -22.4215   -6.7238   20.9946 F   0  0  0  0  0  0  0  0  0  0  0  0
  -21.9690  -10.9547   23.0683 F   0  0  0  0  0  0  0  0  0  0  0  0
  1  2  1  0  0  0  0
  1  5  2  0  0  0  0
  2  6  2  0  0  0  0
  3  8  2  0  0  0  0
  3 18  1  0  0  0  0
  4  9  1  0  0  0  0
  4 18  2  0  0  0  0
  5 20  1  0  0  0  0
  6 22  1  0  0  0  0
  7 10  2  0  0  0  0
  7 21  1  0  0  0  0
  8 26  1  0  0  0  0
  9 26  2  0  0  0  0
 10 27  1  0  0  0  0
 11 12  2  0  0  0  0
 11 28  1  0  0  0  0
 12 30  1  0  0  0  0
 13 23  1  0  0  0  0
 13 27  2  0  0  0  0
 14 24  2  0  0  0  0
 14 25  1  0  0  0  0
 15 24  1  0  0  0  0
 15 29  2  0  0  0  0
 16 25  2  0  0  0  0
 16 29  1  0  0  0  0
 17 30  2  0  0  0  0
 17 31  1  0  0  0  0
 18 32  1  0  0  0  0
 19 32  1  0  0  0  0
 19 33  2  0  0  0  0
 19 34  1  0  0  0  0
 20 22  2  0  0  0  0
 20 39  1  0  0  0  0
 21 23  2  0  0  0  0
 21 40  1  0  0  0  0
 22 48  1  0  0  0  0
 23 41  1  0  0  0  0
 24 61  1  0  0  0  0
 25 71  1  0  0  0  0
 26 80  1  0  0  0  0
 27 81  1  0  0  0  0
 28 31  2  0  0  0  0
 28 80  1  0  0  0  0
 29 82  1  0  0  0  0
 30 83  1  0  0  0  0
 31 84  1  0  0  0  0
 32 65  2  0  0  0  0
 33 66  1  0  0  0  0
 33 69  1  0  0  0  0
 34 70  1  0  0  0  0
 34 75  2  0  0  0  0
 35 49  1  0  0  0  0
 35 72  1  0  0  0  0
 35 76  2  0  0  0  0
 36 62  1  0  0  0  0
 36 67  1  0  0  0  0
 36 77  2  0  0  0  0
 37 63  1  0  0  0  0
 37 73  1  0  0  0  0
 37 78  2  0  0  0  0
 38 68  1  0  0  0  0
 38 71  1  0  0  0  0
 38 79  2  0  0  0  0
 39 42  1  0  0  0  0
 40 49  1  0  0  0  0
 41 67  1  0  0  0  0
 42 44  1  0  0  0  0
 43 45  1  0  0  0  0
 43 46  1  0  0  0  0
 44 48  1  0  0  0  0
 45 50  1  0  0  0  0
 46 68  1  0  0  0  0
 47 50  1  0  0  0  0
 47 68  1  0  0  0  0
 48 72  1  0  0  0  0
 49 67  1  0  0  0  0
 50 66  1  0  0  0  0
 51 61  1  0  0  0  0
 52 61  1  0  0  0  0
 53 63  1  0  0  0  0
 54 64  1  0  0  0  0
 55 64  1  0  0  0  0
 56 64  1  0  0  0  0
 57 74  1  0  0  0  0
 58 59  1  0  0  0  0
 58 60  1  0  0  0  0
 59 81  1  0  0  0  0
 60 82  1  0  0  0  0
 62 64  1  0  0  0  0
 62 73  1  0  0  0  0
 63 74  1  0  0  0  0
 65 66  1  0  0  0  0
M  CHG  1  74   1
M  ISO  4  38 100  59 101  71 100  81 101
M  END
> <Batch ID>
0106

> <Smiles>
CNC(C)C(=O)NC(C(=O)N1Cc2cc([101O:1][101CH2:1]CCOc3cc([100NH:0][100C:0](=O)N4CCCC(n5nc(-c6ccc(Oc7ccc(F)cc7F)cc6)c(C(N)=O)c5N)C4)cc(C(C)C)c3)ccc2CC1C(=O)NC1CCCc2ccccc21)C(C)(C)C

> <Shape>
0.251

> <Color>
0.070

> <Negative vol penalty>
0.000

$$$$

  -OEChem-04052319483D

 85 92  0     1  0  0  0  0  0999 V2000
  -15.6646  -24.6301   21.7301 C   0  0  0  0  0  0  0  0  0  0  0  0
  -16.2247  -23.5263   21.0950 C   0  0  0  0  0  0  0  0  0  0  0  0
  -26.2140  -28.3051   18.8929 C   0  0  0  0  0  0  0  0  0  0  0  0
  -26.2842  -27.6663   21.2218 C   0  0  0  0  0  0  0  0  0  0  0  0
  -16.4902  -25.6012   22.2951 C   0  0  0  0  0  0  0  0  0  0  0  0
  -17.6110  -23.3936   21.0236 C   0  0  0  0  0  0  0  0  0  0  0  0
  -20.8260  -18.1852   21.2302 C   0  0  0  0  0  0  0  0  0  0  0  0
  -25.3661  -29.3664   19.2095 C   0  0  0  0  0  0  0  0  0  0  0  0
  -25.4363  -28.7276   21.5385 C   0  0  0  0  0  0  0  0  0  0  0  0
  -21.3895  -17.3906   20.2328 C   0  0  0  0  0  0  0  0  0  0  0  0
  -25.6893  -32.0679   21.9848 C   0  0  0  0  0  0  0  0  0  0  0  0
  -26.0156  -32.8472   23.0947 C   0  0  0  0  0  0  0  0  0  0  0  0
  -23.5081  -18.4982   20.5559 C   0  0  0  0  0  0  0  0  0  0  0  0
  -23.9083  -32.2652   24.1230 C   0  0  0  0  0  0  0  0  0  0  0  0
  -26.6730  -27.4550   19.8990 C   0  0  0  0  0  0  0  0  0  0  0  0
  -28.9556  -26.3757   19.5350 C   0  0  0  0  0  0  0  0  0  0  0  0
  -17.8872  -25.4754   22.2390 C   0  0  0  0  0  0  0  0  0  0  0  0
  -21.5977  -19.1514   21.8915 C   0  0  0  0  0  0  0  0  0  0  0  0
  -18.4561  -24.3646   21.5872 C   0  0  0  0  0  0  0  0  0  0  0  0
  -22.9526  -19.3020   21.5631 C   0  0  0  0  0  0  0  0  0  0  0  0
  -24.9773  -29.5777   20.5324 C   0  0  0  0  0  0  0  0  0  0  0  0
  -22.7300  -17.5490   19.8935 C   0  0  0  0  0  0  0  0  0  0  0  0
  -24.4724  -31.3873   21.9440 C   0  0  0  0  0  0  0  0  0  0  0  0
  -25.1252  -32.9458   24.1638 C   0  0  0  0  0  0  0  0  0  0  0  0
  -23.5819  -31.4859   23.0131 C   0  0  0  0  0  0  0  0  0  0  0  0
  -27.5485  -26.3582   19.5724 C   0  0  0  0  0  0  0  0  0  0  0  0
  -29.3055  -25.0973   19.1747 C   0  0  0  0  0  0  0  0  0  0  0  0
  -29.8652  -27.4513   19.8022 C   0  0  0  0  0  0  0  0  0  0  0  0
  -21.4758  -22.3157   22.1672 C   0  0  0  0  0  0  0  0  0  0  0  0
  -23.9028  -21.8364   24.2653 C   0  0  0  0  0  0  0  0  0  0  0  0
  -26.4668  -19.8488   25.3246 C   0  0  0  0  0  0  0  0  0  0  0  0
  -28.7870  -19.6807   19.7568 C   0  0  0  0  0  0  0  0  0  0  0  0
  -18.7391  -26.5746   22.8227 C   0  0  0  0  0  0  0  0  0  0  0  0
  -20.9818  -19.9822   22.9836 C   0  0  0  0  0  0  0  0  0  0  0  0
  -23.8294  -20.3109   22.2571 C   0  0  0  0  0  0  0  0  0  0  0  0
  -20.1961  -26.1701   23.0318 C   0  0  0  0  0  0  0  0  0  0  0  0
  -26.4791  -21.2663   17.4639 C   0  0  0  0  0  0  0  0  0  0  0  0
  -20.7364  -25.4615   21.7938 C   0  0  0  0  0  0  0  0  0  0  0  0
  -26.6725  -22.7437   17.8108 C   0  0  0  0  0  0  0  0  0  0  0  0
  -26.5518  -20.3914   18.7119 C   0  0  0  0  0  0  0  0  0  0  0  0
  -27.9982  -22.0283   19.8531 C   0  0  0  0  0  0  0  0  0  0  0  0
  -19.9552  -24.1726   21.5109 C   0  0  1  0  0  0  0  0  0  0  0  0
  -21.7289  -21.2885   23.2342 C   0  0  1  0  0  0  0  0  0  0  0  0
  -27.9578  -22.9631   18.6305 C   0  0  2  0  0  0  0  0  0  0  0  0
  -28.2959  -19.7398   27.0392 C   0  0  0  0  0  0  0  0  0  0  0  0
  -27.3180  -15.7386   22.5640 C   0  0  0  0  0  0  0  0  0  0  0  0
  -24.7537  -13.3301   19.5211 C   0  0  0  0  0  0  0  0  0  0  0  0
  -22.4257  -14.7010   18.0428 C   0  0  0  0  0  0  0  0  0  0  0  0
  -25.5223  -23.8662   22.6631 C   0  0  0  0  0  0  0  0  0  0  0  0
  -27.5825  -23.0219   23.8080 C   0  0  0  0  0  0  0  0  0  0  0  0
  -25.7559  -24.0705   25.1446 C   0  0  0  0  0  0  0  0  0  0  0  0
  -29.7994  -17.4033   22.0643 C   0  0  0  0  0  0  0  0  0  0  0  0
  -32.0576  -13.9537   20.6208 C   0  0  0  0  0  0  0  0  0  0  0  0
  -25.3625  -17.3742   26.5147 C   0  0  0  0  0  0  0  0  0  0  0  0
  -29.4441  -17.2943   19.5825 C   0  0  0  0  0  0  0  0  0  0  0  0
  -26.9295  -15.5555   20.0711 C   0  0  0  0  0  0  0  0  0  0  0  0
  -29.8857  -15.1590   20.8831 C   0  0  0  0  0  0  0  0  0  0  0  0
  -25.4073  -21.7672   24.1621 C   0  0  1  0  0  0  0  0  0  0  0  0
  -26.8600  -19.3639   26.7084 C   0  0  2  0  0  0  0  0  0  0  0  0
  -27.6291  -16.3595   21.1876 C   0  0  2  0  0  0  0  0  0  0  0  0
  -24.7019  -14.8223   19.2114 C   0  0  1  0  0  0  0  0  0  0  0  0
  -23.2661  -15.3613   19.1302 C   0  0  1  0  0  0  0  0  0  1  0  0
  -26.0502  -23.1637   23.9298 C   0  0  0  0  0  0  0  0  0  0  0  0
  -29.1862  -16.5467   20.9260 C   0  0  1  0  0  0  0  0  0  0  0  0
  -27.0392  -25.1634   19.2606 N   0  0  0  0  0  0  0  0  0  0  0  0
  -28.1323  -24.4183   19.0237 N   0  0  0  0  0  0  0  0  0  0  0  0
  -23.1793  -21.1038   23.3136 N   0  0  0  0  0  0  0  0  0  0  0  0
  -27.8071  -20.6350   19.4364 N   0  0  0  0  0  0  0  0  0  0  0  0
  -30.4991  -24.4990   18.9753 N   0  0  0  0  0  0  0  0  0  0  0  0
  -29.3373  -28.6995   20.1597 N   0  0  0  0  0  0  0  0  0  0  0  0
  -20.3773  -23.1185   22.4083 N   0  0  0  0  0  0  0  0  0  0  0  0
  -25.8686  -21.0903   25.3693 N   0  0  0  0  0  0  0  0  0  0  0  0
  -28.5265  -18.3836   19.3322 N   0  0  0  0  0  0  0  0  0  0  0  0
  -31.3433  -15.2583   20.6115 N   0  3  0  0  0  0  0  0  0  0  0  0
  -26.7305  -17.8817   26.7941 N   0  3  0  0  0  0  0  0  0  0  0  0
  -25.4576  -15.5311   20.2782 N   0  3  0  0  0  0  0  0  0  0  0  0
  -31.1087  -27.3142   19.7101 O   0  0  0  0  0  0  0  0  0  0  0  0
  -22.2228  -22.3764   21.1976 O   0  0  0  0  0  0  0  0  0  0  0  0
  -23.3885  -22.5097   25.1619 O   0  0  0  0  0  0  0  0  0  0  0  0
  -26.6733  -19.1934   24.3056 O   0  0  0  0  0  0  0  0  0  0  0  0
  -29.8208  -19.9647   20.3713 O   0  0  0  0  0  0  0  0  0  0  0  0
  -24.1501  -30.6134   20.8418 O   0  0  0  0  0  0  0  0  0  0  0  0
  -23.2855  -16.7708   18.9144 O   0  0  0  0  0  0  0  0  0  1  0  0
  -25.4394  -33.6930   25.2302 F   0  0  0  0  0  0  0  0  0  0  0  0
  -22.4119  -30.8334   22.9801 F   0  0  0  0  0  0  0  0  0  0  0  0
  1  2  1  0  0  0  0
  1  5  2  0  0  0  0
  2  6  2  0  0  0  0
  3  8  2  0  0  0  0
  3 15  1  0  0  0  0
  4  9  1  0  0  0  0
  4 15  2  0  0  0  0
  5 17  1  0  0  0  0
  6 19  1  0  0  0  0
  7 10  2  0  0  0  0
  7 18  1  0  0  0  0
  8 21  1  0  0  0  0
  9 21  2  0  0  0  0
 10 22  1  0  0  0  0
 11 12  2  0  0  0  0
 11 23  1  0  0  0  0
 12 24  1  0  0  0  0
 13 20  1  0  0  0  0
 13 22  2  0  0  0  0
 14 24  2  0  0  0  0
 14 25  1  0  0  0  0
 15 26  1  0  0  0  0
 16 26  1  0  0  0  0
 16 27  2  0  0  0  0
 16 28  1  0  0  0  0
 17 19  2  0  0  0  0
 17 33  1  0  0  0  0
 18 20  2  0  0  0  0
 18 34  1  0  0  0  0
 19 42  1  0  0  0  0
 20 35  1  0  0  0  0
 21 82  1  0  0  0  0
 22 83  1  0  0  0  0
 23 25  2  0  0  0  0
 23 82  1  0  0  0  0
 24 84  1  0  0  0  0
 25 85  1  0  0  0  0
 26 65  2  0  0  0  0
 27 66  1  0  0  0  0
 27 69  1  0  0  0  0
 28 70  1  0  0  0  0
 28 77  2  0  0  0  0
 29 43  1  0  0  0  0
 29 71  1  0  0  0  0
 29 78  2  0  0  0  0
 30 58  1  0  0  0  0
 30 67  1  0  0  0  0
 30 79  2  0  0  0  0
 31 59  1  0  0  0  0
 31 72  1  0  0  0  0
 31 80  2  0  0  0  0
 32 68  1  0  0  0  0
 32 73  1  0  0  0  0
 32 81  2  0  0  0  0
 33 36  1  0  0  0  0
 34 43  1  0  0  0  0
 35 67  1  0  0  0  0
 36 38  1  0  0  0  0
 37 39  1  0  0  0  0
 37 40  1  0  0  0  0
 38 42  1  0  0  0  0
 39 44  1  0  0  0  0
 40 68  1  0  0  0  0
 41 44  1  0  0  0  0
 41 68  1  0  0  0  0
 42 71  1  0  0  0  0
 43 67  1  0  0  0  0
 44 66  1  0  0  0  0
 45 59  1  0  0  0  0
 46 60  1  0  0  0  0
 47 61  1  0  0  0  0
 48 62  1  0  0  0  0
 49 63  1  0  0  0  0
 50 63  1  0  0  0  0
 51 63  1  0  0  0  0
 52 64  1  0  0  0  0
 53 74  1  0  0  0  0
 54 75  1  0  0  0  0
 55 64  1  0  0  0  0
 55 73  1  0  0  0  0
 56 60  1  0  0  0  0
 56 76  1  0  0  0  0
 57 64  1  0  0  0  0
 57 74  1  0  0  0  0
 58 63  1  0  0  0  0
 58 72  1  0  0  0  0
 59 75  1  0  0  0  0
 60 64  1  0  0  0  0
 61 62  1  0  0  0  0
 61 76  1  0  0  0  0
 62 83  1  0  0  0  0
 65 66  1  0  0  0  0
M  CHG  3  74   1  75   1  76   1
M  ISO  4  32 100  62 101  73 100  83 101
M  END
> <Batch ID>
0106

> <Smiles>
CNCC(C)(C[100NH:0][100C:0](=O)N1CCCC(n2nc(-c3ccc(Oc4ccc(F)cc4F)cc3)c(C(N)=O)c2N)C1)C(C)CNC(C)[101CH:1](C)[101O:1]c1ccc2c(c1)CN(C(=O)C(NC(=O)C(C)NC)C(C)(C)C)C(C(=O)NC1CCCc3ccccc31)C2

> <Shape>
0.216

> <Color>
0.048

> <Negative vol penalty>
0.000

$$$$

  -OEChem-04052319483D

 83 91  0     1  0  0  0  0  0999 V2000
  -26.7150  -34.0528   26.1734 C   0  0  0  0  0  0  0  0  0  0  0  0
  -27.1631  -32.9259   25.4917 C   0  0  0  0  0  0  0  0  0  0  0  0
  -26.4349  -15.7939   22.4309 C   0  0  0  0  0  0  0  0  0  0  0  0
  -25.8909  -15.4510   20.1020 C   0  0  0  0  0  0  0  0  0  0  0  0
  -25.3703  -34.1649   26.5244 C   0  0  0  0  0  0  0  0  0  0  0  0
  -26.2668  -31.9099   25.1615 C   0  0  0  0  0  0  0  0  0  0  0  0
  -26.8569  -30.2680   20.4074 C   0  0  0  0  0  0  0  0  0  0  0  0
  -25.9802  -14.5088   22.7263 C   0  0  0  0  0  0  0  0  0  0  0  0
  -25.4362  -14.1659   20.3974 C   0  0  0  0  0  0  0  0  0  0  0  0
  -27.9200  -29.4005   20.1607 C   0  0  0  0  0  0  0  0  0  0  0  0
  -26.7835  -11.1244   20.9928 C   0  0  0  0  0  0  0  0  0  0  0  0
  -27.1792  -10.0882   20.1470 C   0  0  0  0  0  0  0  0  0  0  0  0
  -26.3998  -27.5286   20.2261 C   0  0  0  0  0  0  0  0  0  0  0  0
  -24.8646   -9.6255   19.6313 C   0  0  0  0  0  0  0  0  0  0  0  0
  -26.3902  -16.2651   21.1187 C   0  0  0  0  0  0  0  0  0  0  0  0
  -28.1665  -17.9703   20.4519 C   0  0  0  0  0  0  0  0  0  0  0  0
  -24.4553  -33.1543   26.1898 C   0  0  0  0  0  0  0  0  0  0  0  0
  -25.5567  -29.7706   20.5764 C   0  0  0  0  0  0  0  0  0  0  0  0
  -24.9089  -32.0081   25.5095 C   0  0  0  0  0  0  0  0  0  0  0  0
  -25.3215  -28.3922   20.4722 C   0  0  0  0  0  0  0  0  0  0  0  0
  -25.4809  -13.6947   21.7096 C   0  0  0  0  0  0  0  0  0  0  0  0
  -27.6920  -28.0303   20.0729 C   0  0  0  0  0  0  0  0  0  0  0  0
  -25.4284  -11.4111   21.1579 C   0  0  0  0  0  0  0  0  0  0  0  0
  -26.2197   -9.3388   19.4662 C   0  0  0  0  0  0  0  0  0  0  0  0
  -24.4690  -10.6616   20.4771 C   0  0  0  0  0  0  0  0  0  0  0  0
  -26.8593  -17.5927   20.8130 C   0  0  0  0  0  0  0  0  0  0  0  0
  -28.0928  -19.3295   20.2681 C   0  0  0  0  0  0  0  0  0  0  0  0
  -29.3421  -17.1645   20.2963 C   0  0  0  0  0  0  0  0  0  0  0  0
  -23.4364  -29.7934   22.9444 C   0  0  0  0  0  0  0  0  0  0  0  0
  -21.5045  -28.4589   20.7062 C   0  0  0  0  0  0  0  0  0  0  0  0
  -21.2273  -26.6743   17.8105 C   0  0  0  0  0  0  0  0  0  0  0  0
  -25.4978  -23.8319   18.2337 C   0  0  0  0  0  0  0  0  0  0  0  0
  -23.0206  -33.2985   26.6321 C   0  0  0  0  0  0  0  0  0  0  0  0
  -24.4165  -30.7220   20.8153 C   0  0  0  0  0  0  0  0  0  0  0  0
  -23.9411  -27.8095   20.6258 C   0  0  0  0  0  0  0  0  0  0  0  0
  -22.0640  -32.3491   25.9153 C   0  0  0  0  0  0  0  0  0  0  0  0
  -30.3097  -22.6647   15.9450 C   0  0  0  0  0  0  0  0  0  0  0  0
  -24.4111  -22.6095   21.3962 C   0  0  0  0  0  0  0  0  0  0  0  0
  -22.6380  -30.9362   25.8835 C   0  0  0  0  0  0  0  0  0  0  0  0
  -30.6716  -23.4951   17.1771 C   0  0  0  0  0  0  0  0  0  0  0  0
  -25.0537  -21.2248   21.4935 C   0  0  0  0  0  0  0  0  0  0  0  0
  -28.8582  -23.0033   15.6097 C   0  0  0  0  0  0  0  0  0  0  0  0
  -23.9760  -22.9307   19.9680 C   0  0  0  0  0  0  0  0  0  0  0  0
  -25.6771  -21.4028   19.0485 C   0  0  0  0  0  0  0  0  0  0  0  0
  -23.9625  -30.8961   25.1119 C   0  0  1  0  0  0  0  0  0  0  0  0
  -23.2151  -30.0593   21.4822 C   0  0  1  0  0  0  0  0  0  0  0  0
  -29.3858  -24.2268   17.5815 C   0  0  2  0  0  0  0  0  0  0  0  0
  -26.1830  -21.0567   20.4593 C   0  0  2  0  0  0  0  0  0  0  0  0
  -28.6007  -24.3756   16.2572 C   0  0  2  0  0  0  0  0  0  0  0  0
  -19.5178  -25.7066   16.2490 C   0  0  0  0  0  0  0  0  0  0  0  0
  -30.8503  -25.3232   19.2905 C   0  0  0  0  0  0  0  0  0  0  0  0
  -29.0831  -25.0705   13.8933 C   0  0  0  0  0  0  0  0  0  0  0  0
  -28.3148  -26.7734   15.5707 C   0  0  0  0  0  0  0  0  0  0  0  0
  -20.9703  -26.2048   22.6920 C   0  0  0  0  0  0  0  0  0  0  0  0
  -20.0674  -24.8421   20.7957 C   0  0  0  0  0  0  0  0  0  0  0  0
  -18.9559  -26.9831   21.4307 C   0  0  0  0  0  0  0  0  0  0  0  0
  -22.1928  -28.3198   15.5480 C   0  0  0  0  0  0  0  0  0  0  0  0
  -27.1031  -24.5928   16.5007 C   0  0  0  0  0  0  0  0  0  0  0  0
  -28.4312  -25.9781   19.1253 C   0  0  0  0  0  0  0  0  0  1  0  0
  -21.1972  -27.0490   20.2627 C   0  0  1  0  0  0  0  0  0  0  0  0
  -20.3991  -26.9064   16.5596 C   0  0  2  0  0  0  0  0  0  0  0  0
  -29.6649  -25.5133   18.3467 C   0  0  2  0  0  0  0  0  0  0  0  0
  -29.1271  -25.5040   15.3525 C   0  0  0  0  0  0  0  0  0  0  0  0
  -20.3241  -26.2802   21.2943 C   0  0  0  0  0  0  0  0  0  0  0  0
  -26.0169  -18.6283   20.8568 N   0  0  0  0  0  0  0  0  0  0  0  0
  -26.7966  -19.6701   20.5209 N   0  0  0  0  0  0  0  0  0  0  0  0
  -22.8601  -28.7800   20.8645 N   0  0  0  0  0  0  0  0  0  0  0  0
  -25.0932  -22.7533   19.0373 N   0  0  0  0  0  0  0  0  0  0  0  0
  -29.0111  -20.2545   19.9167 N   0  0  0  0  0  0  0  0  0  0  0  0
  -29.2417  -15.7852   20.5236 N   0  0  0  0  0  0  0  0  0  0  0  0
  -23.7177  -30.9250   23.6858 N   0  0  0  0  0  0  0  0  0  0  0  0
  -20.5978  -27.1596   18.9372 N   0  0  0  0  0  0  0  0  0  0  0  0
  -26.5683  -23.5807   17.3841 N   0  0  0  0  0  0  0  0  0  0  0  0
  -21.2873  -27.1529   15.3886 N   0  3  0  0  0  0  0  0  0  0  0  0
  -30.4527  -17.6556   19.9816 O   0  0  0  0  0  0  0  0  0  0  0  0
  -23.3563  -28.6466   23.3688 O   0  0  0  0  0  0  0  0  0  0  0  0
  -20.5763  -29.2484   20.8981 O   0  0  0  0  0  0  0  0  0  0  0  0
  -22.3215  -26.1150   17.7906 O   0  0  0  0  0  0  0  0  0  0  0  0
  -24.9494  -24.9385   18.2744 O   0  0  0  0  0  0  0  0  0  0  0  0
  -25.0373  -12.4406   21.9974 O   0  0  0  0  0  0  0  0  0  0  0  0
  -28.7280  -27.1812   19.8329 O   0  0  0  0  0  0  0  0  0  1  0  0
  -26.5999   -8.3448   18.6527 F   0  0  0  0  0  0  0  0  0  0  0  0
  -23.1658  -10.9331   20.6309 F   0  0  0  0  0  0  0  0  0  0  0  0
  1  2  1  0  0  0  0
  1  5  2  0  0  0  0
  2  6  2  0  0  0  0
  3  8  2  0  0  0  0
  3 15  1  0  0  0  0
  4  9  1  0  0  0  0
  4 15  2  0  0  0  0
  5 17  1  0  0  0  0
  6 19  1  0  0  0  0
  7 10  2  0  0  0  0
  7 18  1  0  0  0  0
  8 21  1  0  0  0  0
  9 21  2  0  0  0  0
 10 22  1  0  0  0  0
 11 12  2  0  0  0  0
 11 23  1  0  0  0  0
 12 24  1  0  0  0  0
 13 20  1  0  0  0  0
 13 22  2  0  0  0  0
 14 24  2  0  0  0  0
 14 25  1  0  0  0  0
 15 26  1  0  0  0  0
 16 26  1  0  0  0  0
 16 27  2  0  0  0  0
 16 28  1  0  0  0  0
 17 19  2  0  0  0  0
 17 33  1  0  0  0  0
 18 20  2  0  0  0  0
 18 34  1  0  0  0  0
 19 45  1  0  0  0  0
 20 35  1  0  0  0  0
 21 80  1  0  0  0  0
 22 81  1  0  0  0  0
 23 25  2  0  0  0  0
 23 80  1  0  0  0  0
 24 82  1  0  0  0  0
 25 83  1  0  0  0  0
 26 65  2  0  0  0  0
 27 66  1  0  0  0  0
 27 69  1  0  0  0  0
 28 70  1  0  0  0  0
 28 75  2  0  0  0  0
 29 46  1  0  0  0  0
 29 71  1  0  0  0  0
 29 76  2  0  0  0  0
 30 60  1  0  0  0  0
 30 67  1  0  0  0  0
 30 77  2  0  0  0  0
 31 61  1  0  0  0  0
 31 72  1  0  0  0  0
 31 78  2  0  0  0  0
 32 68  1  0  0  0  0
 32 73  1  0  0  0  0
 32 79  2  0  0  0  0
 33 36  1  0  0  0  0
 34 46  1  0  0  0  0
 35 67  1  0  0  0  0
 36 39  1  0  0  0  0
 37 40  1  0  0  0  0
 37 42  1  0  0  0  0
 38 41  1  0  0  0  0
 38 43  1  0  0  0  0
 39 45  1  0  0  0  0
 40 47  1  0  0  0  0
 41 48  1  0  0  0  0
 42 49  1  0  0  0  0
 43 68  1  0  0  0  0
 44 48  1  0  0  0  0
 44 68  1  0  0  0  0
 45 71  1  0  0  0  0
 46 67  1  0  0  0  0
 47 49  1  0  0  0  0
 47 62  1  0  0  0  0
 48 66  1  0  0  0  0
 49 58  1  0  0  0  0
 49 63  1  0  0  0  0
 50 61  1  0  0  0  0
 51 62  1  0  0  0  0
 52 63  1  0  0  0  0
 53 63  1  0  0  0  0
 54 64  1  0  0  0  0
 55 64  1  0  0  0  0
 56 64  1  0  0  0  0
 57 74  1  0  0  0  0
 58 73  1  0  0  0  0
 59 62  1  0  0  0  0
 59 81  1  0  0  0  0
 60 64  1  0  0  0  0
 60 72  1  0  0  0  0
 61 74  1  0  0  0  0
 65 66  1  0  0  0  0
M  CHG  1  74   1
M  ISO  4  32 100  59 101  73 100  81 101
M  END
> <Batch ID>
0106

> <Smiles>
CNC(C)C(=O)NC(C(=O)N1Cc2cc([101O:1][101CH2:1]C(C)C3CCCC3(C[100NH:0][100C:0](=O)N3CCCC(n4nc(-c5ccc(Oc6ccc(F)cc6F)cc5)c(C(N)=O)c4N)C3)C(C)C)ccc2CC1C(=O)NC1CCCc2ccccc21)C(C)(C)C

> <Shape>
0.247

> <Color>
0.085

> <Negative vol penalty>
0.000

$$$$

  -OEChem-04052319483D

 86 94  0     1  0  0  0  0  0999 V2000
  -28.0802  -23.9146   14.6486 C   0  0  0  0  0  0  0  0  0  0  0  0
  -26.9983  -24.1205   15.4986 C   0  0  0  0  0  0  0  0  0  0  0  0
  -25.9677  -13.0428   19.2687 C   0  0  0  0  0  0  0  0  0  0  0  0
  -24.3298  -13.4213   21.0039 C   0  0  0  0  0  0  0  0  0  0  0  0
  -29.3806  -24.0668   15.1280 C   0  0  0  0  0  0  0  0  0  0  0  0
  -27.2162  -24.4777   16.8287 C   0  0  0  0  0  0  0  0  0  0  0  0
  -24.1794  -28.2320   18.3545 C   0  0  0  0  0  0  0  0  0  0  0  0
  -26.0860  -11.7124   19.6704 C   0  0  0  0  0  0  0  0  0  0  0  0
  -24.4480  -12.0908   21.4057 C   0  0  0  0  0  0  0  0  0  0  0  0
  -22.8623  -27.8984   18.6673 C   0  0  0  0  0  0  0  0  0  0  0  0
  -24.0523   -8.7005   22.6578 C   0  0  0  0  0  0  0  0  0  0  0  0
  -22.8782   -7.9947   22.9200 C   0  0  0  0  0  0  0  0  0  0  0  0
  -23.4260  -27.8981   21.0129 C   0  0  0  0  0  0  0  0  0  0  0  0
  -20.4590  -24.8850   22.0236 C   0  0  0  0  0  0  0  0  0  0  0  0
  -22.1485   -8.3640   20.6466 C   0  0  0  0  0  0  0  0  0  0  0  0
  -25.0896  -13.8974   19.9354 C   0  0  0  0  0  0  0  0  0  0  0  0
  -24.0761  -15.7960   18.5659 C   0  0  0  0  0  0  0  0  0  0  0  0
  -29.6144  -24.4355   16.4622 C   0  0  0  0  0  0  0  0  0  0  0  0
  -25.1337  -28.3908   19.3696 C   0  0  0  0  0  0  0  0  0  0  0  0
  -28.5209  -24.6337   17.3267 C   0  0  0  0  0  0  0  0  0  0  0  0
  -24.7538  -28.2362   20.7104 C   0  0  0  0  0  0  0  0  0  0  0  0
  -20.9652  -25.0254   20.7079 C   0  0  0  0  0  0  0  0  0  0  0  0
  -25.3261  -11.2363   20.7389 C   0  0  0  0  0  0  0  0  0  0  0  0
  -22.4861  -27.7285   19.9965 C   0  0  0  0  0  0  0  0  0  0  0  0
  -24.2745   -9.2382   21.3900 C   0  0  0  0  0  0  0  0  0  0  0  0
  -21.9263   -7.8264   21.9145 C   0  0  0  0  0  0  0  0  0  0  0  0
  -23.3226   -9.0699   20.3845 C   0  0  0  0  0  0  0  0  0  0  0  0
  -24.9675  -15.2720   19.5213 C   0  0  0  0  0  0  0  0  0  0  0  0
  -20.9442  -23.6981   22.5266 C   0  0  0  0  0  0  0  0  0  0  0  0
  -21.7444  -23.9198   20.4468 C   0  0  0  0  0  0  0  0  0  0  0  0
  -24.3550  -17.1405   18.5371 C   0  0  0  0  0  0  0  0  0  0  0  0
  -23.0845  -15.1271   17.7752 C   0  0  0  0  0  0  0  0  0  0  0  0
  -27.8544  -26.9375   20.1376 C   0  0  0  0  0  0  0  0  0  0  0  0
  -28.0411  -29.3044   22.3478 C   0  0  0  0  0  0  0  0  0  0  0  0
  -26.4161  -31.6159   24.2619 C   0  0  0  0  0  0  0  0  0  0  0  0
  -27.0385  -20.5654   22.8507 C   0  0  0  0  0  0  0  0  0  0  0  0
  -31.0385  -24.5419   16.9470 C   0  0  0  0  0  0  0  0  0  0  0  0
  -26.5441  -28.7769   19.0171 C   0  0  0  0  0  0  0  0  0  0  0  0
  -25.7356  -28.4153   21.8385 C   0  0  0  0  0  0  0  0  0  0  0  0
  -31.1769  -25.2879   18.2716 C   0  0  0  0  0  0  0  0  0  0  0  0
  -27.9037  -20.2570   19.2649 C   0  0  0  0  0  0  0  0  0  0  0  0
  -30.1411  -24.7907   19.2751 C   0  0  0  0  0  0  0  0  0  0  0  0
  -27.2263  -18.9456   18.8704 C   0  0  0  0  0  0  0  0  0  0  0  0
  -28.2870  -20.2756   20.7415 C   0  0  0  0  0  0  0  0  0  0  0  0
  -26.4762  -18.6760   21.2674 C   0  0  0  0  0  0  0  0  0  0  0  0
  -28.7161  -25.0463   18.7696 C   0  0  1  0  0  0  0  0  0  0  0  0
  -27.5529  -28.4091   20.1007 C   0  0  1  0  0  0  0  0  0  0  0  0
  -26.0353  -18.6432   19.7963 C   0  0  2  0  0  0  0  0  0  0  0  0
  -20.7284  -23.0709   23.8467 C   0  0  0  0  0  0  0  0  0  0  0  0
  -19.2093  -26.3541   19.4855 C   0  0  0  0  0  0  0  0  0  0  0  0
  -22.0095  -22.2472   18.5798 C   0  0  0  0  0  0  0  0  0  0  0  0
  -24.0279  -23.4561   19.4853 C   0  0  0  0  0  0  0  0  0  0  0  0
  -26.8322  -33.3785   25.9990 C   0  0  0  0  0  0  0  0  0  0  0  0
  -28.4110  -27.1329   24.4591 C   0  0  0  0  0  0  0  0  0  0  0  0
  -27.8704  -28.8398   26.2091 C   0  0  0  0  0  0  0  0  0  0  0  0
  -29.8764  -29.1375   24.7566 C   0  0  0  0  0  0  0  0  0  0  0  0
  -25.5797  -21.4312   24.6401 C   0  0  0  0  0  0  0  0  0  0  0  0
  -25.3415  -33.7524   22.5184 C   0  0  0  0  0  0  0  0  0  0  0  0
  -23.7293  -21.9502   22.4879 C   0  0  0  0  0  0  0  0  0  0  0  0
  -22.4198  -21.8571   21.6931 C   0  0  0  0  0  0  0  0  0  0  0  0
  -24.5275  -20.6497   22.5502 C   0  0  0  0  0  0  0  0  0  0  0  0
  -20.6957  -26.1797   19.7699 C   0  0  1  0  0  0  0  0  0  1  0  0
  -22.5065  -23.5566   19.2330 C   0  0  0  0  0  0  0  0  0  0  0  0
  -27.5723  -29.4762   23.7725 C   0  0  1  0  0  0  0  0  0  0  0  0
  -26.6901  -33.0877   24.5130 C   0  0  2  0  0  0  0  0  0  0  0  0
  -28.4143  -28.6413   24.7782 C   0  0  0  0  0  0  0  0  0  0  0  0
  -25.7539  -16.2074   20.0603 N   0  0  0  0  0  0  0  0  0  0  0  0
  -21.7241  -23.1198   21.5593 N   0  0  0  0  0  0  0  0  0  0  0  0
  -25.3577  -17.3326   19.4415 N   0  0  0  0  0  0  0  0  0  0  0  0
  -27.1041  -28.7867   21.4425 N   0  0  0  0  0  0  0  0  0  0  0  0
  -27.1472  -19.9426   21.5965 N   0  0  0  0  0  0  0  0  0  0  0  0
  -23.8380  -18.1654   17.8266 N   0  0  0  0  0  0  0  0  0  0  0  0
  -22.9292  -13.7428   17.9295 N   0  0  0  0  0  0  0  0  0  0  0  0
  -28.3569  -26.4363   18.9520 N   0  0  0  0  0  0  0  0  0  0  0  0
  -27.5794  -30.9114   24.0343 N   0  0  0  0  0  0  0  0  0  0  0  0
  -25.7443  -20.7786   23.3490 N   0  0  0  0  0  0  0  0  0  0  0  0
  -25.5774  -33.9208   23.9755 N   0  3  0  0  0  0  0  0  0  0  0  0
  -22.3691  -15.7363   16.9443 O   0  0  0  0  0  0  0  0  0  0  0  0
  -27.6479  -26.3040   21.1661 O   0  0  0  0  0  0  0  0  0  0  0  0
  -29.1939  -29.6248   22.0478 O   0  0  0  0  0  0  0  0  0  0  0  0
  -25.2838  -31.1381   24.2706 O   0  0  0  0  0  0  0  0  0  0  0  0
  -28.0409  -20.9199   23.4844 O   0  0  0  0  0  0  0  0  0  0  0  0
  -25.4411   -9.9380   21.1310 O   0  0  0  0  0  0  0  0  0  0  0  0
  -21.2014  -27.4022   20.3046 O   0  0  0  0  0  0  0  0  0  1  0  0
  -20.7995   -7.1472   22.1660 F   0  0  0  0  0  0  0  0  0  0  0  0
  -23.5311   -9.5831   19.1642 F   0  0  0  0  0  0  0  0  0  0  0  0
  1  2  1  0  0  0  0
  1  5  2  0  0  0  0
  2  6  2  0  0  0  0
  3  8  2  0  0  0  0
  3 16  1  0  0  0  0
  4  9  1  0  0  0  0
  4 16  2  0  0  0  0
  5 18  1  0  0  0  0
  6 20  1  0  0  0  0
  7 10  2  0  0  0  0
  7 19  1  0  0  0  0
  8 23  1  0  0  0  0
  9 23  2  0  0  0  0
 10 24  1  0  0  0  0
 11 12  2  0  0  0  0
 11 25  1  0  0  0  0
 12 26  1  0  0  0  0
 13 21  1  0  0  0  0
 13 24  2  0  0  0  0
 14 22  1  0  0  0  0
 14 29  2  0  0  0  0
 15 26  2  0  0  0  0
 15 27  1  0  0  0  0
 16 28  1  0  0  0  0
 17 28  1  0  0  0  0
 17 31  2  0  0  0  0
 17 32  1  0  0  0  0
 18 20  2  0  0  0  0
 18 37  1  0  0  0  0
 19 21  2  0  0  0  0
 19 38  1  0  0  0  0
 20 46  1  0  0  0  0
 21 39  1  0  0  0  0
 22 30  2  0  0  0  0
 22 62  1  0  0  0  0
 23 83  1  0  0  0  0
 24 84  1  0  0  0  0
 25 27  2  0  0  0  0
 25 83  1  0  0  0  0
 26 85  1  0  0  0  0
 27 86  1  0  0  0  0
 28 67  2  0  0  0  0
 29 49  1  0  0  0  0
 29 68  1  0  0  0  0
 30 63  1  0  0  0  0
 30 68  1  0  0  0  0
 31 69  1  0  0  0  0
 31 72  1  0  0  0  0
 32 73  1  0  0  0  0
 32 78  2  0  0  0  0
 33 47  1  0  0  0  0
 33 74  1  0  0  0  0
 33 79  2  0  0  0  0
 34 64  1  0  0  0  0
 34 70  1  0  0  0  0
 34 80  2  0  0  0  0
 35 65  1  0  0  0  0
 35 75  1  0  0  0  0
 35 81  2  0  0  0  0
 36 71  1  0  0  0  0
 36 76  1  0  0  0  0
 36 82  2  0  0  0  0
 37 40  1  0  0  0  0
 38 47  1  0  0  0  0
 39 70  1  0  0  0  0
 40 42  1  0  0  0  0
 41 43  1  0  0  0  0
 41 44  1  0  0  0  0
 42 46  1  0  0  0  0
 43 48  1  0  0  0  0
 44 71  1  0  0  0  0
 45 48  1  0  0  0  0
 45 71  1  0  0  0  0
 46 74  1  0  0  0  0
 47 70  1  0  0  0  0
 48 69  1  0  0  0  0
 50 62  1  0  0  0  0
 51 63  1  0  0  0  0
 52 63  1  0  0  0  0
 53 65  1  0  0  0  0
 54 66  1  0  0  0  0
 55 66  1  0  0  0  0
 56 66  1  0  0  0  0
 57 76  1  0  0  0  0
 58 77  1  0  0  0  0
 59 60  1  0  0  0  0
 59 61  1  0  0  0  0
 60 68  1  0  0  0  0
 61 76  1  0  0  0  0
 62 84  1  0  0  0  0
 64 66  1  0  0  0  0
 64 75  1  0  0  0  0
 65 77  1  0  0  0  0
 67 69  1  0  0  0  0
M  CHG  1  77   1
M  ISO  4  36 100  62 101  76 100  84 101
M  END
> <Batch ID>
0106

> <Smiles>
CNC(C)C(=O)NC(C(=O)N1Cc2cc([101O:1][101CH:1](C)c3cc(C)n(CCC[100N:0](C)[100C:0](=O)N4CCCC(n5nc(-c6ccc(Oc7ccc(F)cc7F)cc6)c(C(N)=O)c5N)C4)c3C(C)C)ccc2CC1C(=O)NC1CCCc2ccccc21)C(C)(C)C

> <Shape>
0.227

> <Color>
0.072

> <Negative vol penalty>
0.000

$$$$

  -OEChem-04052319483D

 86 94  0     1  0  0  0  0  0999 V2000
  -28.5151  -36.4620   25.5890 C   0  0  0  0  0  0  0  0  0  0  0  0
  -28.9679  -35.7285   24.4970 C   0  0  0  0  0  0  0  0  0  0  0  0
  -26.2878  -12.9081   18.5330 C   0  0  0  0  0  0  0  0  0  0  0  0
  -25.2621  -13.5739   20.6167 C   0  0  0  0  0  0  0  0  0  0  0  0
  -27.6580  -35.8717   26.5168 C   0  0  0  0  0  0  0  0  0  0  0  0
  -28.5646  -34.4038   24.3328 C   0  0  0  0  0  0  0  0  0  0  0  0
  -27.0644  -29.6179   19.2180 C   0  0  0  0  0  0  0  0  0  0  0  0
  -26.1526  -11.5677   18.8947 C   0  0  0  0  0  0  0  0  0  0  0  0
  -25.1269  -12.2335   20.9784 C   0  0  0  0  0  0  0  0  0  0  0  0
  -27.3996  -28.3239   18.8221 C   0  0  0  0  0  0  0  0  0  0  0  0
  -24.1836   -8.9775   22.2925 C   0  0  0  0  0  0  0  0  0  0  0  0
  -22.9647   -8.5713   22.8354 C   0  0  0  0  0  0  0  0  0  0  0  0
  -25.8536  -27.4331   20.4455 C   0  0  0  0  0  0  0  0  0  0  0  0
  -28.1560  -22.9431   20.9406 C   0  0  0  0  0  0  0  0  0  0  0  0
  -21.8361   -9.2510   20.8102 C   0  0  0  0  0  0  0  0  0  0  0  0
  -29.6212  -24.6203   21.2722 C   0  0  0  0  0  0  0  0  0  0  0  0
  -25.8425  -13.9112   19.3940 C   0  0  0  0  0  0  0  0  0  0  0  0
  -25.0549  -16.0835   18.3132 C   0  0  0  0  0  0  0  0  0  0  0  0
  -27.2364  -34.5421   26.3587 C   0  0  0  0  0  0  0  0  0  0  0  0
  -26.1277  -29.8294   20.2400 C   0  0  0  0  0  0  0  0  0  0  0  0
  -27.7021  -33.7947   25.2601 C   0  0  0  0  0  0  0  0  0  0  0  0
  -25.5063  -28.7308   20.8508 C   0  0  0  0  0  0  0  0  0  0  0  0
  -28.8961  -23.9674   20.3000 C   0  0  0  0  0  0  0  0  0  0  0  0
  -25.5722  -11.2304   20.1174 C   0  0  0  0  0  0  0  0  0  0  0  0
  -26.7964  -27.2311   19.4378 C   0  0  0  0  0  0  0  0  0  0  0  0
  -24.2288   -9.5205   21.0085 C   0  0  0  0  0  0  0  0  0  0  0  0
  -21.7909   -8.7080   22.0943 C   0  0  0  0  0  0  0  0  0  0  0  0
  -23.0551   -9.6572   20.2673 C   0  0  0  0  0  0  0  0  0  0  0  0
  -25.9824  -15.2959   19.0212 C   0  0  0  0  0  0  0  0  0  0  0  0
  -28.4514  -23.0015   22.2848 C   0  0  0  0  0  0  0  0  0  0  0  0
  -25.6544  -17.3154   18.2157 C   0  0  0  0  0  0  0  0  0  0  0  0
  -23.7667  -15.7329   17.7906 C   0  0  0  0  0  0  0  0  0  0  0  0
  -26.2125  -31.1799   23.1162 C   0  0  0  0  0  0  0  0  0  0  0  0
  -23.0145  -30.6426   23.0336 C   0  0  0  0  0  0  0  0  0  0  0  0
  -20.4121  -28.8360   21.7647 C   0  0  0  0  0  0  0  0  0  0  0  0
  -29.8029  -20.1038   21.5120 C   0  0  0  0  0  0  0  0  0  0  0  0
  -26.3470  -33.9323   27.4131 C   0  0  0  0  0  0  0  0  0  0  0  0
  -25.7572  -31.2321   20.6371 C   0  0  0  0  0  0  0  0  0  0  0  0
  -24.4795  -28.9045   21.9389 C   0  0  0  0  0  0  0  0  0  0  0  0
  -25.6684  -32.6405   26.9649 C   0  0  0  0  0  0  0  0  0  0  0  0
  -29.9682  -19.3764   18.0306 C   0  0  0  0  0  0  0  0  0  0  0  0
  -26.6759  -31.7141   26.2914 C   0  0  0  0  0  0  0  0  0  0  0  0
  -28.8817  -18.3192   17.8258 C   0  0  0  0  0  0  0  0  0  0  0  0
  -30.6746  -19.2068   19.3738 C   0  0  0  0  0  0  0  0  0  0  0  0
  -28.6916  -18.1073   20.3393 C   0  0  0  0  0  0  0  0  0  0  0  0
  -27.2673  -32.3630   25.0341 C   0  0  1  0  0  0  0  0  0  0  0  0
  -25.1706  -31.3199   22.0426 C   0  0  1  0  0  0  0  0  0  0  0  0
  -27.9131  -18.2715   19.0228 C   0  0  2  0  0  0  0  0  0  0  0  0
  -17.9181  -28.6018   21.9151 C   0  0  0  0  0  0  0  0  0  0  0  0
  -29.5101  -25.8541   24.1224 C   0  0  0  0  0  0  0  0  0  0  0  0
  -31.4314  -24.2446   23.7702 C   0  0  0  0  0  0  0  0  0  0  0  0
  -27.9677  -23.3694   17.9635 C   0  0  0  0  0  0  0  0  0  0  0  0
  -30.3227  -24.1162   18.2355 C   0  0  0  0  0  0  0  0  0  0  0  0
  -23.3131  -29.2073   25.7096 C   0  0  0  0  0  0  0  0  0  0  0  0
  -21.0505  -28.2001   25.3427 C   0  0  0  0  0  0  0  0  0  0  0  0
  -21.2961  -30.6753   25.5325 C   0  0  0  0  0  0  0  0  0  0  0  0
  -20.0608  -29.4996   18.9020 C   0  0  0  0  0  0  0  0  0  0  0  0
  -28.8051  -20.8973   23.6413 C   0  0  0  0  0  0  0  0  0  0  0  0
  -28.4455  -25.7584   18.5618 C   0  0  0  0  0  0  0  0  0  1  0  0
  -27.9585  -22.1679   23.4007 C   0  0  2  0  0  0  0  0  0  0  0  0
  -22.1106  -29.5054   23.4444 C   0  0  1  0  0  0  0  0  0  0  0  0
  -19.0760  -29.2647   21.1854 C   0  0  2  0  0  0  0  0  0  0  0  0
  -29.9129  -24.4282   23.7415 C   0  0  0  0  0  0  0  0  0  0  0  0
  -28.8919  -24.2918   18.7944 C   0  0  0  0  0  0  0  0  0  0  0  0
  -21.9633  -29.3934   24.9882 C   0  0  0  0  0  0  0  0  0  0  0  0
  -27.0872  -15.9708   19.3500 N   0  0  0  0  0  0  0  0  0  0  0  0
  -29.3428  -24.0249   22.4747 N   0  0  0  0  0  0  0  0  0  0  0  0
  -26.8577  -17.1954   18.8462 N   0  0  0  0  0  0  0  0  0  0  0  0
  -24.1556  -30.2955   22.2965 N   0  0  0  0  0  0  0  0  0  0  0  0
  -29.7002  -19.1708   20.4670 N   0  0  0  0  0  0  0  0  0  0  0  0
  -25.2643  -18.4788   17.6527 N   0  0  0  0  0  0  0  0  0  0  0  0
  -23.3026  -14.4240   17.9795 N   0  0  0  0  0  0  0  0  0  0  0  0
  -26.3277  -32.2862   23.9361 N   0  0  0  0  0  0  0  0  0  0  0  0
  -20.8509  -29.7094   22.7372 N   0  0  0  0  0  0  0  0  0  0  0  0
  -28.8356  -20.0042   22.5045 N   0  0  0  0  0  0  0  0  0  0  0  0
  -26.5234  -21.7249   23.2325 N   0  3  0  0  0  0  0  0  0  0  0  0
  -18.9949  -28.8972   19.7434 N   0  3  0  0  0  0  0  0  0  0  0  0
  -23.0554  -16.5514   17.1600 O   0  0  0  0  0  0  0  0  0  0  0  0
  -26.8626  -30.1442   23.1958 O   0  0  0  0  0  0  0  0  0  0  0  0
  -22.7154  -31.7970   23.3489 O   0  0  0  0  0  0  0  0  0  0  0  0
  -21.0051  -27.8252   21.3945 O   0  0  0  0  0  0  0  0  0  0  0  0
  -30.6876  -20.9655   21.5543 O   0  0  0  0  0  0  0  0  0  0  0  0
  -25.4399   -9.9226   20.4706 O   0  0  0  0  0  0  0  0  0  0  0  0
  -27.1223  -25.9670   19.0537 O   0  0  0  0  0  0  0  0  0  1  0  0
  -20.6207   -8.3164   22.6151 F   0  0  0  0  0  0  0  0  0  0  0  0
  -23.0924  -10.1771   19.0327 F   0  0  0  0  0  0  0  0  0  0  0  0
  1  2  1  0  0  0  0
  1  5  2  0  0  0  0
  2  6  2  0  0  0  0
  3  8  2  0  0  0  0
  3 17  1  0  0  0  0
  4  9  1  0  0  0  0
  4 17  2  0  0  0  0
  5 19  1  0  0  0  0
  6 21  1  0  0  0  0
  7 10  2  0  0  0  0
  7 20  1  0  0  0  0
  8 24  1  0  0  0  0
  9 24  2  0  0  0  0
 10 25  1  0  0  0  0
 11 12  2  0  0  0  0
 11 26  1  0  0  0  0
 12 27  1  0  0  0  0
 13 22  1  0  0  0  0
 13 25  2  0  0  0  0
 14 23  1  0  0  0  0
 14 30  2  0  0  0  0
 15 27  2  0  0  0  0
 15 28  1  0  0  0  0
 16 23  2  0  0  0  0
 16 67  1  0  0  0  0
 17 29  1  0  0  0  0
 18 29  1  0  0  0  0
 18 31  2  0  0  0  0
 18 32  1  0  0  0  0
 19 21  2  0  0  0  0
 19 37  1  0  0  0  0
 20 22  2  0  0  0  0
 20 38  1  0  0  0  0
 21 46  1  0  0  0  0
 22 39  1  0  0  0  0
 23 64  1  0  0  0  0
 24 83  1  0  0  0  0
 25 84  1  0  0  0  0
 26 28  2  0  0  0  0
 26 83  1  0  0  0  0
 27 85  1  0  0  0  0
 28 86  1  0  0  0  0
 29 66  2  0  0  0  0
 30 60  1  0  0  0  0
 30 67  1  0  0  0  0
 31 68  1  0  0  0  0
 31 71  1  0  0  0  0
 32 72  1  0  0  0  0
 32 78  2  0  0  0  0
 33 47  1  0  0  0  0
 33 73  1  0  0  0  0
 33 79  2  0  0  0  0
 34 61  1  0  0  0  0
 34 69  1  0  0  0  0
 34 80  2  0  0  0  0
 35 62  1  0  0  0  0
 35 74  1  0  0  0  0
 35 81  2  0  0  0  0
 36 70  1  0  0  0  0
 36 75  1  0  0  0  0
 36 82  2  0  0  0  0
 37 40  1  0  0  0  0
 38 47  1  0  0  0  0
 39 69  1  0  0  0  0
 40 42  1  0  0  0  0
 41 43  1  0  0  0  0
 41 44  1  0  0  0  0
 42 46  1  0  0  0  0
 43 48  1  0  0  0  0
 44 70  1  0  0  0  0
 45 48  1  0  0  0  0
 45 70  1  0  0  0  0
 46 73  1  0  0  0  0
 47 69  1  0  0  0  0
 48 68  1  0  0  0  0
 49 62  1  0  0  0  0
 50 63  1  0  0  0  0
 51 63  1  0  0  0  0
 52 64  1  0  0  0  0
 53 64  1  0  0  0  0
 54 65  1  0  0  0  0
 55 65  1  0  0  0  0
 56 65  1  0  0  0  0
 57 77  1  0  0  0  0
 58 60  1  0  0  0  0
 58 75  1  0  0  0  0
 59 64  1  0  0  0  0
 59 84  1  0  0  0  0
 60 76  1  0  0  0  0
 61 65  1  0  0  0  0
 61 74  1  0  0  0  0
 62 77  1  0  0  0  0
 63 67  1  0  0  0  0
 66 68  1  0  0  0  0
M  CHG  2  76   1  77   1
M  ISO  4  36 100  59 101  75 100  84 101
M  END
> <Batch ID>
0106

> <Smiles>
CNC(C)C(=O)NC(C(=O)N1Cc2cc([101O:1][101CH2:1]C(C)(C)c3cc(C(N)C[100NH:0][100C:0](=O)N4CCCC(n5nc(-c6ccc(Oc7ccc(F)cc7F)cc6)c(C(N)=O)c5N)C4)n(C(C)C)c3)ccc2CC1C(=O)NC1CCCc2ccccc21)C(C)(C)C

> <Shape>
0.280

> <Color>
0.068

> <Negative vol penalty>
0.000

$$$$

  -OEChem-04052319483D

 84 92  0     1  0  0  0  0  0999 V2000
  -26.9309  -28.7309   19.2825 C   0  0  0  0  0  0  0  0  0  0  0  0
  -26.8395  -27.4074   19.7010 C   0  0  0  0  0  0  0  0  0  0  0  0
  -31.0461  -22.7087   21.0959 C   0  0  0  0  0  0  0  0  0  0  0  0
  -29.2862  -22.8115   19.4438 C   0  0  0  0  0  0  0  0  0  0  0  0
  -25.9815  -29.6611   19.7035 C   0  0  0  0  0  0  0  0  0  0  0  0
  -25.7992  -27.0135   20.5419 C   0  0  0  0  0  0  0  0  0  0  0  0
  -22.9168  -21.6100   20.5496 C   0  0  0  0  0  0  0  0  0  0  0  0
  -31.5182  -23.9503   20.6703 C   0  0  0  0  0  0  0  0  0  0  0  0
  -29.7583  -24.0531   19.0182 C   0  0  0  0  0  0  0  0  0  0  0  0
  -23.0646  -20.4691   21.3373 C   0  0  0  0  0  0  0  0  0  0  0  0
  -32.9696  -27.2579   20.2604 C   0  0  0  0  0  0  0  0  0  0  0  0
  -33.3065  -28.1936   21.2384 C   0  0  0  0  0  0  0  0  0  0  0  0
  -21.2674  -21.2246   22.7580 C   0  0  0  0  0  0  0  0  0  0  0  0
  -31.0387  -28.1409   22.0699 C   0  0  0  0  0  0  0  0  0  0  0  0
  -29.9301  -22.1392   20.4827 C   0  0  0  0  0  0  0  0  0  0  0  0
  -28.9843  -20.5160   22.2084 C   0  0  0  0  0  0  0  0  0  0  0  0
  -24.9235  -29.2764   20.5422 C   0  0  0  0  0  0  0  0  0  0  0  0
  -21.9488  -22.5736   20.8671 C   0  0  0  0  0  0  0  0  0  0  0  0
  -24.8355  -27.9397   20.9757 C   0  0  0  0  0  0  0  0  0  0  0  0
  -21.1076  -22.3755   21.9713 C   0  0  0  0  0  0  0  0  0  0  0  0
  -30.8743  -24.6225   19.6315 C   0  0  0  0  0  0  0  0  0  0  0  0
  -22.2418  -20.2777   22.4434 C   0  0  0  0  0  0  0  0  0  0  0  0
  -31.6672  -26.7637   20.1871 C   0  0  0  0  0  0  0  0  0  0  0  0
  -32.3410  -28.6351   22.1432 C   0  0  0  0  0  0  0  0  0  0  0  0
  -30.7018  -27.2052   21.0919 C   0  0  0  0  0  0  0  0  0  0  0  0
  -29.4423  -20.8564   20.9215 C   0  0  0  0  0  0  0  0  0  0  0  0
  -28.6354  -19.1913   22.1094 C   0  0  0  0  0  0  0  0  0  0  0  0
  -28.8832  -21.3250   23.3878 C   0  0  0  0  0  0  0  0  0  0  0  0
  -22.0238  -25.6468   21.6755 C   0  0  0  0  0  0  0  0  0  0  0  0
  -18.7982  -25.3809   21.4588 C   0  0  0  0  0  0  0  0  0  0  0  0
  -16.3931  -23.3883   21.0644 C   0  0  0  0  0  0  0  0  0  0  0  0
  -26.1612  -15.0014   19.3766 C   0  0  0  0  0  0  0  0  0  0  0  0
  -23.9482  -30.3276   21.0093 C   0  0  0  0  0  0  0  0  0  0  0  0
  -21.7842  -23.7857   19.9918 C   0  0  0  0  0  0  0  0  0  0  0  0
  -20.0394  -23.3701   22.3429 C   0  0  0  0  0  0  0  0  0  0  0  0
  -22.6640  -29.7487   21.5975 C   0  0  0  0  0  0  0  0  0  0  0  0
  -29.4929  -15.8270   18.4307 C   0  0  0  0  0  0  0  0  0  0  0  0
  -22.9848  -28.6218   22.5742 C   0  0  0  0  0  0  0  0  0  0  0  0
  -29.7364  -17.1831   19.0952 C   0  0  0  0  0  0  0  0  0  0  0  0
  -24.8317  -13.5461   22.0013 C   0  0  0  0  0  0  0  0  0  0  0  0
  -23.0605  -15.2270   21.4113 C   0  0  0  0  0  0  0  0  0  0  0  0
  -28.0546  -15.6910   17.9359 C   0  0  0  0  0  0  0  0  0  0  0  0
  -27.2650  -17.3076   19.6202 C   0  0  0  0  0  0  0  0  0  0  0  0
  -25.2584  -14.3109   23.2513 C   0  0  0  0  0  0  0  0  0  0  0  0
  -23.7076  -27.4685   21.8678 C   0  0  1  0  0  0  0  0  0  0  0  0
  -21.1090  -24.9519   20.7070 C   0  0  1  0  0  0  0  0  0  0  0  0
  -28.6864  -17.4699   20.1854 C   0  0  2  0  0  0  0  0  0  0  0  0
  -24.2823  -14.4493   20.9030 C   0  0  1  0  0  0  0  0  0  0  0  0
  -23.0569  -15.4914   22.9297 C   0  0  2  0  0  0  0  0  0  0  0  0
  -15.0736  -24.2919   19.1305 C   0  0  0  0  0  0  0  0  0  0  0  0
  -20.7935  -16.5617   22.8059 C   0  0  0  0  0  0  0  0  0  0  0  0
  -18.6396  -26.5237   24.2835 C   0  0  0  0  0  0  0  0  0  0  0  0
  -16.2787  -25.6998   24.4094 C   0  0  0  0  0  0  0  0  0  0  0  0
  -16.9134  -27.4052   22.7031 C   0  0  0  0  0  0  0  0  0  0  0  0
  -24.7219  -17.6654   24.7298 C   0  0  0  0  0  0  0  0  0  0  0  0
  -23.4495  -15.6803   25.6233 C   0  0  0  0  0  0  0  0  0  0  0  0
  -25.9558  -15.5626   25.3730 C   0  0  0  0  0  0  0  0  0  0  0  0
  -13.8296  -22.5060   22.2513 C   0  0  0  0  0  0  0  0  0  0  0  0
  -22.8511  -17.9822   22.5673 C   0  0  0  0  0  0  0  0  0  1  0  0
  -17.6889  -25.0161   22.4156 C   0  0  1  0  0  0  0  0  0  0  0  0
  -15.1180  -23.2636   20.2501 C   0  0  2  0  0  0  0  0  0  0  0  0
  -22.2459  -16.7471   23.2399 C   0  0  2  0  0  0  0  0  0  0  0  0
  -17.4015  -26.1432   23.4473 C   0  0  0  0  0  0  0  0  0  0  0  0
  -24.6583  -16.1409   24.8099 C   0  0  0  0  0  0  0  0  0  0  0  0
  -29.3904  -19.8307   20.0676 N   0  0  0  0  0  0  0  0  0  0  0  0
  -28.8958  -18.8326   20.8195 N   0  0  0  0  0  0  0  0  0  0  0  0
  -19.9218  -24.5422   21.4598 N   0  0  0  0  0  0  0  0  0  0  0  0
  -27.1089  -15.9742   19.0181 N   0  0  0  0  0  0  0  0  0  0  0  0
  -28.1343  -18.3099   23.0007 N   0  0  0  0  0  0  0  0  0  0  0  0
  -29.2848  -22.6658   23.3149 N   0  0  0  0  0  0  0  0  0  0  0  0
  -22.7663  -26.6682   21.1143 N   0  0  0  0  0  0  0  0  0  0  0  0
  -16.5411  -24.6540   21.5909 N   0  0  0  0  0  0  0  0  0  0  0  0
  -25.3070  -15.3480   20.4163 N   0  0  0  0  0  0  0  0  0  0  0  0
  -24.4936  -15.6150   23.4065 N   0  3  1  0  0  0  0  0  0  0  0  0
  -13.9255  -23.4652   21.1210 N   0  3  0  0  0  0  0  0  0  0  0  0
  -28.4649  -20.8679   24.4785 O   0  0  0  0  0  0  0  0  0  0  0  0
  -22.0527  -25.2842   22.8457 O   0  0  0  0  0  0  0  0  0  0  0  0
  -18.6693  -26.3693   20.7322 O   0  0  0  0  0  0  0  0  0  0  0  0
  -17.1774  -22.4550   21.2210 O   0  0  0  0  0  0  0  0  0  0  0  0
  -26.0855  -13.9031   18.8153 O   0  0  0  0  0  0  0  0  0  0  0  0
  -31.3346  -25.8342   19.2160 O   0  0  0  0  0  0  0  0  0  0  0  0
  -22.3844  -19.1654   23.2143 O   0  0  0  0  0  0  0  0  0  1  0  0
  -32.6650  -29.5326   23.0833 F   0  0  0  0  0  0  0  0  0  0  0  0
  -29.4493  -26.7332   21.0272 F   0  0  0  0  0  0  0  0  0  0  0  0
  1  2  1  0  0  0  0
  1  5  2  0  0  0  0
  2  6  2  0  0  0  0
  3  8  2  0  0  0  0
  3 15  1  0  0  0  0
  4  9  1  0  0  0  0
  4 15  2  0  0  0  0
  5 17  1  0  0  0  0
  6 19  1  0  0  0  0
  7 10  2  0  0  0  0
  7 18  1  0  0  0  0
  8 21  1  0  0  0  0
  9 21  2  0  0  0  0
 10 22  1  0  0  0  0
 11 12  2  0  0  0  0
 11 23  1  0  0  0  0
 12 24  1  0  0  0  0
 13 20  1  0  0  0  0
 13 22  2  0  0  0  0
 14 24  2  0  0  0  0
 14 25  1  0  0  0  0
 15 26  1  0  0  0  0
 16 26  1  0  0  0  0
 16 27  2  0  0  0  0
 16 28  1  0  0  0  0
 17 19  2  0  0  0  0
 17 33  1  0  0  0  0
 18 20  2  0  0  0  0
 18 34  1  0  0  0  0
 19 45  1  0  0  0  0
 20 35  1  0  0  0  0
 21 81  1  0  0  0  0
 22 82  1  0  0  0  0
 23 25  2  0  0  0  0
 23 81  1  0  0  0  0
 24 83  1  0  0  0  0
 25 84  1  0  0  0  0
 26 65  2  0  0  0  0
 27 66  1  0  0  0  0
 27 69  1  0  0  0  0
 28 70  1  0  0  0  0
 28 76  2  0  0  0  0
 29 46  1  0  0  0  0
 29 71  1  0  0  0  0
 29 77  2  0  0  0  0
 30 60  1  0  0  0  0
 30 67  1  0  0  0  0
 30 78  2  0  0  0  0
 31 61  1  0  0  0  0
 31 72  1  0  0  0  0
 31 79  2  0  0  0  0
 32 68  1  0  0  0  0
 32 73  1  0  0  0  0
 32 80  2  0  0  0  0
 33 36  1  0  0  0  0
 34 46  1  0  0  0  0
 35 67  1  0  0  0  0
 36 38  1  0  0  0  0
 37 39  1  0  0  0  0
 37 42  1  0  0  0  0
 38 45  1  0  0  0  0
 39 47  1  0  0  0  0
 40 44  1  0  0  0  0
 40 48  1  0  0  0  0
 41 48  1  0  0  0  0
 41 49  1  0  0  0  0
 42 68  1  0  0  0  0
 43 47  1  0  0  0  0
 43 68  1  0  0  0  0
 44 74  1  0  0  0  0
 45 71  1  0  0  0  0
 46 67  1  0  0  0  0
 47 66  1  0  0  0  0
 48 73  1  0  0  0  0
 49 62  1  0  0  0  0
 49 74  1  0  0  0  0
 50 61  1  0  0  0  0
 51 62  1  0  0  0  0
 52 63  1  0  0  0  0
 53 63  1  0  0  0  0
 54 63  1  0  0  0  0
 55 64  1  0  0  0  0
 56 64  1  0  0  0  0
 57 64  1  0  0  0  0
 58 75  1  0  0  0  0
 59 62  1  0  0  0  0
 59 82  1  0  0  0  0
 60 63  1  0  0  0  0
 60 72  1  0  0  0  0
 61 75  1  0  0  0  0
 64 74  1  0  0  0  0
 65 66  1  0  0  0  0
M  CHG  2  74   1  75   1
M  ISO  4  32 100  59 101  73 100  82 101
M  END
> <Batch ID>
0106

> <Smiles>
CNC(C)C(=O)NC(C(=O)N1Cc2cc([101O:1][101CH2:1]C(C)C3CC([100NH:0][100C:0](=O)N4CCCC(n5nc(-c6ccc(Oc7ccc(F)cc7F)cc6)c(C(N)=O)c5N)C4)CCN3C(C)(C)C)ccc2CC1C(=O)NC1CCCc2ccccc21)C(C)(C)C

> <Shape>
0.183

> <Color>
0.059

> <Negative vol penalty>
0.000

$$$$

  -OEChem-04052319483D

 83 91  0     1  0  0  0  0  0999 V2000
  -20.1552  -31.6190   18.0225 C   0  0  0  0  0  0  0  0  0  0  0  0
  -21.2371  -30.7492   18.1132 C   0  0  0  0  0  0  0  0  0  0  0  0
  -25.1073  -13.5005   21.8074 C   0  0  0  0  0  0  0  0  0  0  0  0
  -26.3541  -13.4319   19.7392 C   0  0  0  0  0  0  0  0  0  0  0  0
  -19.6141  -32.1796   19.1787 C   0  0  0  0  0  0  0  0  0  0  0  0
  -21.7793  -30.4403   19.3602 C   0  0  0  0  0  0  0  0  0  0  0  0
  -24.1845  -25.0852   21.1049 C   0  0  0  0  0  0  0  0  0  0  0  0
  -24.2580  -12.5030   21.3286 C   0  0  0  0  0  0  0  0  0  0  0  0
  -25.5049  -12.4344   19.2603 C   0  0  0  0  0  0  0  0  0  0  0  0
  -25.4998  -24.6305   21.1886 C   0  0  0  0  0  0  0  0  0  0  0  0
  -24.3235   -9.1429   20.9560 C   0  0  0  0  0  0  0  0  0  0  0  0
  -24.0060   -8.0931   21.8178 C   0  0  0  0  0  0  0  0  0  0  0  0
  -25.5433  -25.2060   23.5308 C   0  0  0  0  0  0  0  0  0  0  0  0
  -29.6790  -26.8383   21.5280 C   0  0  0  0  0  0  0  0  0  0  0  0
  -21.6649   -8.6671   21.6545 C   0  0  0  0  0  0  0  0  0  0  0  0
  -30.4253  -26.7195   19.2730 C   0  0  0  0  0  0  0  0  0  0  0  0
  -26.1553  -13.9650   21.0127 C   0  0  0  0  0  0  0  0  0  0  0  0
  -28.2263  -14.8207   22.2319 C   0  0  0  0  0  0  0  0  0  0  0  0
  -20.1438  -31.8700   20.4413 C   0  0  0  0  0  0  0  0  0  0  0  0
  -23.5413  -25.6147   22.2329 C   0  0  0  0  0  0  0  0  0  0  0  0
  -21.2457  -30.9984   20.5343 C   0  0  0  0  0  0  0  0  0  0  0  0
  -24.2190  -25.6644   23.4594 C   0  0  0  0  0  0  0  0  0  0  0  0
  -29.8962  -27.4715   20.3094 C   0  0  0  0  0  0  0  0  0  0  0  0
  -29.9931  -25.4914   21.6710 C   0  0  0  0  0  0  0  0  0  0  0  0
  -24.4568  -11.9699   20.0550 C   0  0  0  0  0  0  0  0  0  0  0  0
  -26.1804  -24.6936   22.4010 C   0  0  0  0  0  0  0  0  0  0  0  0
  -23.3117   -9.9549   20.4435 C   0  0  0  0  0  0  0  0  0  0  0  0
  -22.6767   -7.8552   22.1670 C   0  0  0  0  0  0  0  0  0  0  0  0
  -21.9824   -9.7170   20.7927 C   0  0  0  0  0  0  0  0  0  0  0  0
  -27.0325  -14.9958   21.5066 C   0  0  0  0  0  0  0  0  0  0  0  0
  -30.5177  -24.8279   20.5735 C   0  0  0  0  0  0  0  0  0  0  0  0
  -28.6790  -16.0969   22.4615 C   0  0  0  0  0  0  0  0  0  0  0  0
  -28.8687  -13.6123   22.6597 C   0  0  0  0  0  0  0  0  0  0  0  0
  -22.2977  -28.4414   22.9855 C   0  0  0  0  0  0  0  0  0  0  0  0
  -21.3223  -26.8668   25.6484 C   0  0  0  0  0  0  0  0  0  0  0  0
  -21.7807  -24.2620   27.8052 C   0  0  0  0  0  0  0  0  0  0  0  0
  -29.8038  -21.1409   20.6615 C   0  0  0  0  0  0  0  0  0  0  0  0
  -19.5554  -32.5376   21.6590 C   0  0  0  0  0  0  0  0  0  0  0  0
  -22.1133  -26.0762   22.1323 C   0  0  0  0  0  0  0  0  0  0  0  0
  -23.5665  -26.2051   24.7045 C   0  0  0  0  0  0  0  0  0  0  0  0
  -19.9499  -31.8663   22.9720 C   0  0  0  0  0  0  0  0  0  0  0  0
  -26.4117  -20.5683   21.7855 C   0  0  0  0  0  0  0  0  0  0  0  0
  -21.4483  -31.5816   22.9970 C   0  0  0  0  0  0  0  0  0  0  0  0
  -26.3737  -19.0415   21.8724 C   0  0  0  0  0  0  0  0  0  0  0  0
  -27.2394  -21.0337   20.5911 C   0  0  0  0  0  0  0  0  0  0  0  0
  -28.5958  -18.9769   20.6484 C   0  0  0  0  0  0  0  0  0  0  0  0
  -21.8459  -30.6196   21.8709 C   0  0  1  0  0  0  0  0  0  0  0  0
  -21.7287  -27.0712   23.2230 C   0  0  1  0  0  0  0  0  0  0  0  0
  -27.7928  -18.4434   21.8488 C   0  0  2  0  0  0  0  0  0  0  0  0
  -30.3961  -29.8297   21.0461 C   0  0  0  0  0  0  0  0  0  0  0  0
  -28.0678  -29.2068   20.3070 C   0  0  0  0  0  0  0  0  0  0  0  0
  -20.8495  -23.2587   29.9084 C   0  0  0  0  0  0  0  0  0  0  0  0
  -22.6606  -29.0654   27.2869 C   0  0  0  0  0  0  0  0  0  0  0  0
  -22.5371  -27.5576   29.2818 C   0  0  0  0  0  0  0  0  0  0  0  0
  -20.4410  -28.3164   28.1624 C   0  0  0  0  0  0  0  0  0  0  0  0
  -21.1103  -21.7252   26.4362 C   0  0  0  0  0  0  0  0  0  0  0  0
  -29.7615  -24.7982   22.9917 C   0  0  0  0  0  0  0  0  0  0  0  0
  -30.8730  -23.3800   20.6686 C   0  0  0  0  0  0  0  0  0  0  0  0
  -28.3084  -24.8854   23.4454 C   0  0  0  0  0  0  0  0  0  1  0  0
  -29.5700  -28.9107   20.1237 C   0  0  0  0  0  0  0  0  0  0  0  0
  -21.9112  -26.6098   27.0145 C   0  0  1  0  0  0  0  0  0  0  0  0
  -20.8071  -23.2537   28.3883 C   0  0  2  0  0  0  0  0  0  0  0  0
  -21.9007  -27.8788   27.9127 C   0  0  0  0  0  0  0  0  0  0  0  0
  -30.7428  -25.4093   19.3740 N   0  0  0  0  0  0  0  0  0  0  0  0
  -26.7448  -16.2820   21.2900 N   0  0  0  0  0  0  0  0  0  0  0  0
  -27.7643  -16.9266   21.8827 N   0  0  0  0  0  0  0  0  0  0  0  0
  -22.1712  -26.6500   24.5538 N   0  0  0  0  0  0  0  0  0  0  0  0
  -28.5846  -20.4435   20.6384 N   0  0  0  0  0  0  0  0  0  0  0  0
  -29.7662  -16.5791   23.1001 N   0  0  0  0  0  0  0  0  0  0  0  0
  -28.2684  -12.3870   22.3393 N   0  0  0  0  0  0  0  0  0  0  0  0
  -21.4910  -29.2603   22.2185 N   0  0  0  0  0  0  0  0  0  0  0  0
  -21.1760  -25.4786   27.5697 N   0  0  0  0  0  0  0  0  0  0  0  0
  -29.7058  -22.5268   20.6427 N   0  0  0  0  0  0  0  0  0  0  0  0
  -21.1375  -21.8802   27.9134 N   0  3  0  0  0  0  0  0  0  0  0  0
  -29.9345  -13.6195   23.3210 O   0  0  0  0  0  0  0  0  0  0  0  0
  -23.3871  -28.7346   23.4638 O   0  0  0  0  0  0  0  0  0  0  0  0
  -20.1499  -27.2390   25.5556 O   0  0  0  0  0  0  0  0  0  0  0  0
  -22.9606  -23.9980   27.5845 O   0  0  0  0  0  0  0  0  0  0  0  0
  -30.8993  -20.5706   20.7014 O   0  0  0  0  0  0  0  0  0  0  0  0
  -23.6285  -10.9963   19.5875 O   0  0  0  0  0  0  0  0  0  0  0  0
  -27.4645  -24.2510   22.4853 O   0  0  0  0  0  0  0  0  0  1  0  0
  -22.3718   -6.8460   22.9933 F   0  0  0  0  0  0  0  0  0  0  0  0
  -21.0059  -10.4929   20.3026 F   0  0  0  0  0  0  0  0  0  0  0  0
  1  2  1  0  0  0  0
  1  5  2  0  0  0  0
  2  6  2  0  0  0  0
  3  8  2  0  0  0  0
  3 17  1  0  0  0  0
  4  9  1  0  0  0  0
  4 17  2  0  0  0  0
  5 19  1  0  0  0  0
  6 21  1  0  0  0  0
  7 10  2  0  0  0  0
  7 20  1  0  0  0  0
  8 25  1  0  0  0  0
  9 25  2  0  0  0  0
 10 26  1  0  0  0  0
 11 12  2  0  0  0  0
 11 27  1  0  0  0  0
 12 28  1  0  0  0  0
 13 22  1  0  0  0  0
 13 26  2  0  0  0  0
 14 23  2  0  0  0  0
 14 24  1  0  0  0  0
 15 28  2  0  0  0  0
 15 29  1  0  0  0  0
 16 23  1  0  0  0  0
 16 64  2  0  0  0  0
 17 30  1  0  0  0  0
 18 30  1  0  0  0  0
 18 32  2  0  0  0  0
 18 33  1  0  0  0  0
 19 21  2  0  0  0  0
 19 38  1  0  0  0  0
 20 22  2  0  0  0  0
 20 39  1  0  0  0  0
 21 47  1  0  0  0  0
 22 40  1  0  0  0  0
 23 60  1  0  0  0  0
 24 31  2  0  0  0  0
 24 57  1  0  0  0  0
 25 80  1  0  0  0  0
 26 81  1  0  0  0  0
 27 29  2  0  0  0  0
 27 80  1  0  0  0  0
 28 82  1  0  0  0  0
 29 83  1  0  0  0  0
 30 65  2  0  0  0  0
 31 58  1  0  0  0  0
 31 64  1  0  0  0  0
 32 66  1  0  0  0  0
 32 69  1  0  0  0  0
 33 70  1  0  0  0  0
 33 75  2  0  0  0  0
 34 48  1  0  0  0  0
 34 71  1  0  0  0  0
 34 76  2  0  0  0  0
 35 61  1  0  0  0  0
 35 67  1  0  0  0  0
 35 77  2  0  0  0  0
 36 62  1  0  0  0  0
 36 72  1  0  0  0  0
 36 78  2  0  0  0  0
 37 68  1  0  0  0  0
 37 73  1  0  0  0  0
 37 79  2  0  0  0  0
 38 41  1  0  0  0  0
 39 48  1  0  0  0  0
 40 67  1  0  0  0  0
 41 43  1  0  0  0  0
 42 44  1  0  0  0  0
 42 45  1  0  0  0  0
 43 47  1  0  0  0  0
 44 49  1  0  0  0  0
 45 68  1  0  0  0  0
 46 49  1  0  0  0  0
 46 68  1  0  0  0  0
 47 71  1  0  0  0  0
 48 67  1  0  0  0  0
 49 66  1  0  0  0  0
 50 60  1  0  0  0  0
 51 60  1  0  0  0  0
 52 62  1  0  0  0  0
 53 63  1  0  0  0  0
 54 63  1  0  0  0  0
 55 63  1  0  0  0  0
 56 74  1  0  0  0  0
 57 59  1  0  0  0  0
 58 73  1  0  0  0  0
 59 81  1  0  0  0  0
 61 63  1  0  0  0  0
 61 72  1  0  0  0  0
 62 74  1  0  0  0  0
 65 66  1  0  0  0  0
M  CHG  1  74   1
M  ISO  4  37 100  59 101  73 100  81 101
M  END
> <Batch ID>
0106

> <Smiles>
CNC(C)C(=O)NC(C(=O)N1Cc2cc([101O:1][101CH2:1]Cc3cc(C(C)C)cnc3C[100NH:0][100C:0](=O)N3CCCC(n4nc(-c5ccc(Oc6ccc(F)cc6F)cc5)c(C(N)=O)c4N)C3)ccc2CC1C(=O)NC1CCCc2ccccc21)C(C)(C)C

> <Shape>
0.195

> <Color>
0.092

> <Negative vol penalty>
0.000

$$$$

  -OEChem-04052319483D

 84 93  0     1  0  0  0  0  0999 V2000
  -25.1749  -35.4109   25.2548 C   0  0  0  0  0  0  0  0  0  0  0  0
  -25.8736  -34.4170   24.5770 C   0  0  0  0  0  0  0  0  0  0  0  0
  -23.9555  -12.2610   19.3379 C   0  0  0  0  0  0  0  0  0  0  0  0
  -24.9650  -11.7209   21.4654 C   0  0  0  0  0  0  0  0  0  0  0  0
  -23.9432  -35.1202   25.8398 C   0  0  0  0  0  0  0  0  0  0  0  0
  -25.3413  -33.1314   24.4847 C   0  0  0  0  0  0  0  0  0  0  0  0
  -31.3279  -23.5163   18.0112 C   0  0  0  0  0  0  0  0  0  0  0  0
  -25.7308  -31.1977   19.8205 C   0  0  0  0  0  0  0  0  0  0  0  0
  -31.5861  -24.6719   18.7476 C   0  0  0  0  0  0  0  0  0  0  0  0
  -23.8395  -10.9016   19.0478 C   0  0  0  0  0  0  0  0  0  0  0  0
  -24.8490  -10.3615   21.1754 C   0  0  0  0  0  0  0  0  0  0  0  0
  -26.9766  -30.7015   19.4390 C   0  0  0  0  0  0  0  0  0  0  0  0
  -22.4275   -8.0045   21.2199 C   0  0  0  0  0  0  0  0  0  0  0  0
  -21.9474   -7.1673   22.2268 C   0  0  0  0  0  0  0  0  0  0  0  0
  -29.4971  -24.3879   19.9221 C   0  0  0  0  0  0  0  0  0  0  0  0
  -26.2195  -28.4591   19.9054 C   0  0  0  0  0  0  0  0  0  0  0  0
  -24.0071   -5.9061   22.1603 C   0  0  0  0  0  0  0  0  0  0  0  0
  -24.5183  -12.6707   20.5467 C   0  0  0  0  0  0  0  0  0  0  0  0
  -23.6948  -14.8884   21.5014 C   0  0  0  0  0  0  0  0  0  0  0  0
  -23.3910  -33.8330   25.7464 C   0  0  0  0  0  0  0  0  0  0  0  0
  -30.1464  -22.7900   18.2177 C   0  0  0  0  0  0  0  0  0  0  0  0
  -24.7219  -30.3279   20.2585 C   0  0  0  0  0  0  0  0  0  0  0  0
  -24.1016  -32.8229   25.0701 C   0  0  0  0  0  0  0  0  0  0  0  0
  -29.2298  -23.2196   19.1937 C   0  0  0  0  0  0  0  0  0  0  0  0
  -24.9609  -28.9466   20.2895 C   0  0  0  0  0  0  0  0  0  0  0  0
  -30.6701  -25.1088   19.7006 C   0  0  0  0  0  0  0  0  0  0  0  0
  -24.2862   -9.9518   19.9665 C   0  0  0  0  0  0  0  0  0  0  0  0
  -27.2220  -29.3323   19.4841 C   0  0  0  0  0  0  0  0  0  0  0  0
  -23.6974   -7.7926   20.6830 C   0  0  0  0  0  0  0  0  0  0  0  0
  -22.7371   -6.1181   22.6971 C   0  0  0  0  0  0  0  0  0  0  0  0
  -24.4872   -6.7434   21.1533 C   0  0  0  0  0  0  0  0  0  0  0  0
  -24.6389  -14.0748   20.8467 C   0  0  0  0  0  0  0  0  0  0  0  0
  -24.2800  -16.1304   21.5400 C   0  0  0  0  0  0  0  0  0  0  0  0
  -22.4044  -14.5515   22.0277 C   0  0  0  0  0  0  0  0  0  0  0  0
  -23.1076  -29.9495   22.9705 C   0  0  0  0  0  0  0  0  0  0  0  0
  -21.4353  -27.7914   21.2189 C   0  0  0  0  0  0  0  0  0  0  0  0
  -21.3516  -25.6705   18.5465 C   0  0  0  0  0  0  0  0  0  0  0  0
  -26.9788  -20.2125   19.3142 C   0  0  0  0  0  0  0  0  0  0  0  0
  -22.0787  -33.5542   26.4354 C   0  0  0  0  0  0  0  0  0  0  0  0
  -29.9024  -21.5293   17.4288 C   0  0  0  0  0  0  0  0  0  0  0  0
  -23.3747  -30.8765   20.6413 C   0  0  0  0  0  0  0  0  0  0  0  0
  -27.9448  -22.4746   19.4463 C   0  0  0  0  0  0  0  0  0  0  0  0
  -23.9046  -27.9687   20.7328 C   0  0  0  0  0  0  0  0  0  0  0  0
  -21.4089  -32.2635   25.9708 C   0  0  0  0  0  0  0  0  0  0  0  0
  -29.0015  -17.5903   20.5010 C   0  0  0  0  0  0  0  0  0  0  0  0
  -22.4210  -31.1232   25.9257 C   0  0  0  0  0  0  0  0  0  0  0  0
  -27.9650  -16.4953   20.7495 C   0  0  0  0  0  0  0  0  0  0  0  0
  -28.4391  -21.1005   17.4537 C   0  0  0  0  0  0  0  0  0  0  0  0
  -28.7151  -18.3700   19.2166 C   0  0  0  0  0  0  0  0  0  0  0  0
  -26.3079  -17.8298   19.3933 C   0  0  0  0  0  0  0  0  0  0  0  0
  -23.5456  -31.4227   24.9272 C   0  0  1  0  0  0  0  0  0  0  0  0
  -22.5895  -29.9457   21.5601 C   0  0  1  0  0  0  0  0  0  0  0  0
  -26.5371  -17.0677   20.7077 C   0  0  1  0  0  0  0  0  0  0  0  0
  -19.8622  -24.0122   17.3936 C   0  0  0  0  0  0  0  0  0  0  0  0
  -22.0146  -25.7502   23.4117 C   0  0  0  0  0  0  0  0  0  0  0  0
  -21.3576  -23.9440   21.8073 C   0  0  0  0  0  0  0  0  0  0  0  0
  -19.6890  -25.6657   22.4957 C   0  0  0  0  0  0  0  0  0  0  0  0
  -21.3390  -27.2479   16.0424 C   0  0  0  0  0  0  0  0  0  0  0  0
  -30.9421  -26.3486   20.4835 C   0  0  0  0  0  0  0  0  0  0  0  0
  -28.8790  -27.6469   19.7487 C   0  0  0  0  0  0  0  0  0  1  0  0
  -21.5669  -26.3150   20.9324 C   0  0  1  0  0  0  0  0  0  0  0  0
  -20.3146  -25.4628   17.4575 C   0  0  2  0  0  0  0  0  0  0  0  0
  -30.4031  -27.6383   19.8344 C   0  0  1  0  0  0  0  0  0  0  0  0
  -21.1778  -25.4371   22.1552 C   0  0  0  0  0  0  0  0  0  0  0  0
  -25.7401  -14.7437   20.4946 N   0  0  0  0  0  0  0  0  0  0  0  0
  -25.4916  -15.9908   20.9296 N   0  0  0  0  0  0  0  0  0  0  0  0
  -22.6057  -28.5546   21.1031 N   0  0  0  0  0  0  0  0  0  0  0  0
  -27.8933  -21.1554   18.8144 N   0  0  0  0  0  0  0  0  0  0  0  0
  -27.3309  -18.8600   19.2009 N   0  0  0  0  0  0  0  0  0  0  0  0
  -23.8711  -17.3174   22.0362 N   0  0  0  0  0  0  0  0  0  0  0  0
  -21.9567  -13.2292   21.9036 N   0  0  0  0  0  0  0  0  0  0  0  0
  -23.0925  -31.1935   23.5720 N   0  0  0  0  0  0  0  0  0  0  0  0
  -20.7723  -26.0590   19.7360 N   0  0  0  0  0  0  0  0  0  0  0  0
  -30.8226  -28.8096   20.6640 N   0  3  0  0  0  0  0  0  0  0  0  0
  -20.8758  -25.8391   16.1292 N   0  3  0  0  0  0  0  0  0  0  0  0
  -21.6632  -15.4016   22.5767 O   0  0  0  0  0  0  0  0  0  0  0  0
  -23.4912  -28.9013   23.4761 O   0  0  0  0  0  0  0  0  0  0  0  0
  -20.3331  -28.2517   21.5270 O   0  0  0  0  0  0  0  0  0  0  0  0
  -22.5548  -25.5013   18.3616 O   0  0  0  0  0  0  0  0  0  0  0  0
  -25.9093  -20.5625   19.8296 O   0  0  0  0  0  0  0  0  0  0  0  0
  -24.1730   -8.6252   19.6839 O   0  0  0  0  0  0  0  0  0  0  0  0
  -28.4456  -28.8420   19.1103 O   0  0  0  0  0  0  0  0  0  1  0  0
  -22.2766   -5.3150   23.6651 F   0  0  0  0  0  0  0  0  0  0  0  0
  -25.7084   -6.5356   20.6422 F   0  0  0  0  0  0  0  0  0  0  0  0
  1  2  1  0  0  0  0
  1  5  2  0  0  0  0
  2  6  2  0  0  0  0
  3 10  2  0  0  0  0
  3 18  1  0  0  0  0
  4 11  1  0  0  0  0
  4 18  2  0  0  0  0
  5 20  1  0  0  0  0
  6 23  1  0  0  0  0
  7  9  2  0  0  0  0
  7 21  1  0  0  0  0
  8 12  2  0  0  0  0
  8 22  1  0  0  0  0
  9 26  1  0  0  0  0
 10 27  1  0  0  0  0
 11 27  2  0  0  0  0
 12 28  1  0  0  0  0
 13 14  2  0  0  0  0
 13 29  1  0  0  0  0
 14 30  1  0  0  0  0
 15 24  1  0  0  0  0
 15 26  2  0  0  0  0
 16 25  1  0  0  0  0
 16 28  2  0  0  0  0
 17 30  2  0  0  0  0
 17 31  1  0  0  0  0
 18 32  1  0  0  0  0
 19 32  1  0  0  0  0
 19 33  2  0  0  0  0
 19 34  1  0  0  0  0
 20 23  2  0  0  0  0
 20 39  1  0  0  0  0
 21 24  2  0  0  0  0
 21 40  1  0  0  0  0
 22 25  2  0  0  0  0
 22 41  1  0  0  0  0
 23 51  1  0  0  0  0
 24 42  1  0  0  0  0
 25 43  1  0  0  0  0
 26 59  1  0  0  0  0
 27 81  1  0  0  0  0
 28 82  1  0  0  0  0
 29 31  2  0  0  0  0
 29 81  1  0  0  0  0
 30 83  1  0  0  0  0
 31 84  1  0  0  0  0
 32 65  2  0  0  0  0
 33 66  1  0  0  0  0
 33 70  1  0  0  0  0
 34 71  1  0  0  0  0
 34 76  2  0  0  0  0
 35 52  1  0  0  0  0
 35 72  1  0  0  0  0
 35 77  2  0  0  0  0
 36 61  1  0  0  0  0
 36 67  1  0  0  0  0
 36 78  2  0  0  0  0
 37 62  1  0  0  0  0
 37 73  1  0  0  0  0
 37 79  2  0  0  0  0
 38 68  1  0  0  0  0
 38 69  1  0  0  0  0
 38 80  2  0  0  0  0
 39 44  1  0  0  0  0
 40 48  1  0  0  0  0
 41 52  1  0  0  0  0
 42 68  1  0  0  0  0
 43 67  1  0  0  0  0
 44 46  1  0  0  0  0
 45 47  1  0  0  0  0
 45 49  1  0  0  0  0
 46 51  1  0  0  0  0
 47 53  1  0  0  0  0
 48 68  1  0  0  0  0
 49 69  1  0  0  0  0
 50 53  1  0  0  0  0
 50 69  1  0  0  0  0
 51 72  1  0  0  0  0
 52 67  1  0  0  0  0
 53 66  1  0  0  0  0
 54 62  1  0  0  0  0
 55 64  1  0  0  0  0
 56 64  1  0  0  0  0
 57 64  1  0  0  0  0
 58 75  1  0  0  0  0
 59 63  1  0  0  0  0
 60 63  1  0  0  0  0
 60 82  1  0  0  0  0
 61 64  1  0  0  0  0
 61 73  1  0  0  0  0
 62 75  1  0  0  0  0
 63 74  1  0  0  0  0
 65 66  1  0  0  0  0
M  CHG  2  74   1  75   1
M  ISO  4  38 100  60 101  68 100  82 101
M  END
> <Batch ID>
0106

> <Smiles>
CNC(C)C(=O)NC(C(=O)N1Cc2cc([101O:1][101CH2:1]C(N)Cc3ccc4c(c3)C[100N:0]([100C:0](=O)N3CCCC(n5nc(-c6ccc(Oc7ccc(F)cc7F)cc6)c(C(N)=O)c5N)C3)CC4)ccc2CC1C(=O)NC1CCCc2ccccc21)C(C)(C)C

> <Shape>
0.282

> <Color>
0.055

> <Negative vol penalty>
0.000

$$$$

  -OEChem-04052319483D

 84 92  0     1  0  0  0  0  0999 V2000
  -32.3011  -15.1065   20.1920 C   0  0  0  0  0  0  0  0  0  0  0  0
  -31.4341  -16.1945   20.1832 C   0  0  0  0  0  0  0  0  0  0  0  0
  -29.6267  -27.8379   20.5514 C   0  0  0  0  0  0  0  0  0  0  0  0
  -27.9258  -26.8276   19.1645 C   0  0  0  0  0  0  0  0  0  0  0  0
  -31.7957  -13.8128   20.0703 C   0  0  0  0  0  0  0  0  0  0  0  0
  -30.0612  -15.9894   20.0516 C   0  0  0  0  0  0  0  0  0  0  0  0
  -25.5842  -19.2614   22.6508 C   0  0  0  0  0  0  0  0  0  0  0  0
  -30.4563  -26.7375   20.3357 C   0  0  0  0  0  0  0  0  0  0  0  0
  -28.7554  -25.7272   18.9487 C   0  0  0  0  0  0  0  0  0  0  0  0
  -24.7781  -20.2937   22.1730 C   0  0  0  0  0  0  0  0  0  0  0  0
  -29.6818  -22.9394   20.6225 C   0  0  0  0  0  0  0  0  0  0  0  0
  -29.1137  -21.6697   20.7248 C   0  0  0  0  0  0  0  0  0  0  0  0
  -23.0528  -18.6931   21.6431 C   0  0  0  0  0  0  0  0  0  0  0  0
  -29.7137  -21.2162   18.4288 C   0  0  0  0  0  0  0  0  0  0  0  0
  -28.3614  -27.8829   19.9658 C   0  0  0  0  0  0  0  0  0  0  0  0
  -27.4333  -30.1951   19.4182 C   0  0  0  0  0  0  0  0  0  0  0  0
  -30.4150  -13.5912   19.9468 C   0  0  0  0  0  0  0  0  0  0  0  0
  -25.1342  -17.9337   22.6183 C   0  0  0  0  0  0  0  0  0  0  0  0
  -29.5369  -14.6916   19.9267 C   0  0  0  0  0  0  0  0  0  0  0  0
  -23.8541  -17.6461   22.1236 C   0  0  0  0  0  0  0  0  0  0  0  0
  -30.0207  -25.6822   19.5343 C   0  0  0  0  0  0  0  0  0  0  0  0
  -23.5134  -20.0093   21.6663 C   0  0  0  0  0  0  0  0  0  0  0  0
  -30.2657  -23.3477   19.4232 C   0  0  0  0  0  0  0  0  0  0  0  0
  -29.1297  -20.8080   19.6281 C   0  0  0  0  0  0  0  0  0  0  0  0
  -30.2817  -22.4860   18.3265 C   0  0  0  0  0  0  0  0  0  0  0  0
  -27.5038  -29.0191   20.1887 C   0  0  0  0  0  0  0  0  0  0  0  0
  -26.4734  -30.9558   20.0397 C   0  0  0  0  0  0  0  0  0  0  0  0
  -28.1696  -30.5666   18.2453 C   0  0  0  0  0  0  0  0  0  0  0  0
  -26.1128  -15.2680   21.1901 C   0  0  0  0  0  0  0  0  0  0  0  0
  -23.7570  -13.9160   22.9635 C   0  0  0  0  0  0  0  0  0  0  0  0
  -20.8123  -14.3013   24.6449 C   0  0  0  0  0  0  0  0  0  0  0  0
  -21.8121  -29.5788   23.5365 C   0  0  0  0  0  0  0  0  0  0  0  0
  -29.9196  -12.1776   19.7704 C   0  0  0  0  0  0  0  0  0  0  0  0
  -26.0053  -16.8347   23.1623 C   0  0  0  0  0  0  0  0  0  0  0  0
  -23.3162  -16.2398   22.0853 C   0  0  0  0  0  0  0  0  0  0  0  0
  -28.4202  -12.0232   20.0116 C   0  0  0  0  0  0  0  0  0  0  0  0
  -24.5228  -31.7440   24.3368 C   0  0  0  0  0  0  0  0  0  0  0  0
  -19.5467  -25.1278   25.2692 C   0  0  0  0  0  0  0  0  0  0  0  0
  -27.6472  -13.1211   19.2878 C   0  0  0  0  0  0  0  0  0  0  0  0
  -25.5878  -31.3973   23.2949 C   0  0  0  0  0  0  0  0  0  0  0  0
  -19.1852  -26.3620   24.4684 C   0  0  0  0  0  0  0  0  0  0  0  0
  -23.7429  -30.5080   24.7795 C   0  0  0  0  0  0  0  0  0  0  0  0
  -24.2103  -29.3797   22.6389 C   0  0  0  0  0  0  0  0  0  0  0  0
  -19.7513  -24.0636   24.2080 C   0  0  0  0  0  0  0  0  0  0  0  0
  -28.0392  -14.5083   19.8108 C   0  0  1  0  0  0  0  0  0  0  0  0
  -25.6490  -15.4594   22.6064 C   0  0  1  0  0  0  0  0  0  0  0  0
  -24.9855  -30.6030   22.1204 C   0  0  2  0  0  0  0  0  0  0  0  0
  -20.1697  -26.3066   23.3094 C   0  0  2  0  0  0  0  0  0  0  0  0
  -19.1112  -13.0077   25.9603 C   0  0  0  0  0  0  0  0  0  0  0  0
  -18.2284  -26.8046   21.8050 C   0  0  0  0  0  0  0  0  0  0  0  0
  -21.1085  -23.2823   20.2936 C   0  0  0  0  0  0  0  0  0  0  0  0
  -19.4858  -29.3582   20.9340 C   0  0  0  0  0  0  0  0  0  0  0  0
  -22.6601  -12.7307   20.3747 C   0  0  0  0  0  0  0  0  0  0  0  0
  -20.5105  -12.2765   21.5753 C   0  0  0  0  0  0  0  0  0  0  0  0
  -22.6172  -11.1769   22.3338 C   0  0  0  0  0  0  0  0  0  0  0  0
  -21.2734  -15.9356   27.0689 C   0  0  0  0  0  0  0  0  0  0  0  0
  -21.6138  -24.3801   22.5318 C   0  0  0  0  0  0  0  0  0  0  0  0
  -22.8857  -22.2994   21.7992 C   0  0  0  0  0  0  0  0  0  1  0  0
  -22.2856  -13.6469   22.7593 C   0  0  1  0  0  0  0  0  0  0  0  0
  -20.3752  -13.8507   26.0271 C   0  0  2  0  0  0  0  0  0  0  0  0
  -19.7143  -27.0823   22.0870 C   0  0  1  0  0  0  0  0  0  0  0  0
  -21.5589  -23.0669   21.7428 C   0  0  2  0  0  0  0  0  0  0  0  0
  -19.9808  -28.6101   22.1700 C   0  0  1  0  0  0  0  0  0  0  0  0
  -22.0290  -12.4841   21.7596 C   0  0  0  0  0  0  0  0  0  0  0  0
  -26.6564  -29.0275   21.2211 N   0  0  0  0  0  0  0  0  0  0  0  0
  -26.0443  -30.2181   21.1036 N   0  0  0  0  0  0  0  0  0  0  0  0
  -24.2081  -15.1991   22.6228 N   0  0  0  0  0  0  0  0  0  0  0  0
  -23.1966  -29.8009   23.6187 N   0  0  0  0  0  0  0  0  0  0  0  0
  -25.9630  -32.1772   19.7747 N   0  0  0  0  0  0  0  0  0  0  0  0
  -29.1178  -29.6673   17.7389 N   0  0  0  0  0  0  0  0  0  0  0  0
  -27.3970  -14.7696   21.0811 N   0  0  0  0  0  0  0  0  0  0  0  0
  -21.7225  -13.4284   24.0873 N   0  0  0  0  0  0  0  0  0  0  0  0
  -21.3770  -28.9070   22.4006 N   0  0  0  0  0  0  0  0  0  0  0  0
  -20.2568  -24.8197   22.9901 N   0  3  1  0  0  0  0  0  0  0  0  0
  -20.1074  -15.0313   26.8962 N   0  3  0  0  0  0  0  0  0  0  0  0
  -28.0036  -31.6705   17.6732 O   0  0  0  0  0  0  0  0  0  0  0  0
  -25.3605  -15.5500   20.2647 O   0  0  0  0  0  0  0  0  0  0  0  0
  -24.4780  -13.0230   23.4155 O   0  0  0  0  0  0  0  0  0  0  0  0
  -20.3859  -15.3232   24.1117 O   0  0  0  0  0  0  0  0  0  0  0  0
  -21.0216  -29.9562   24.4080 O   0  0  0  0  0  0  0  0  0  0  0  0
  -30.8300  -24.6083   19.3234 O   0  0  0  0  0  0  0  0  0  0  0  0
  -22.7248  -21.0149   21.1986 O   0  0  0  0  0  0  0  0  0  1  0  0
  -28.5855  -19.5880   19.7270 F   0  0  0  0  0  0  0  0  0  0  0  0
  -30.8423  -22.8721   17.1721 F   0  0  0  0  0  0  0  0  0  0  0  0
  1  2  1  0  0  0  0
  1  5  2  0  0  0  0
  2  6  2  0  0  0  0
  3  8  2  0  0  0  0
  3 15  1  0  0  0  0
  4  9  1  0  0  0  0
  4 15  2  0  0  0  0
  5 17  1  0  0  0  0
  6 19  1  0  0  0  0
  7 10  2  0  0  0  0
  7 18  1  0  0  0  0
  8 21  1  0  0  0  0
  9 21  2  0  0  0  0
 10 22  1  0  0  0  0
 11 12  2  0  0  0  0
 11 23  1  0  0  0  0
 12 24  1  0  0  0  0
 13 20  1  0  0  0  0
 13 22  2  0  0  0  0
 14 24  2  0  0  0  0
 14 25  1  0  0  0  0
 15 26  1  0  0  0  0
 16 26  1  0  0  0  0
 16 27  2  0  0  0  0
 16 28  1  0  0  0  0
 17 19  2  0  0  0  0
 17 33  1  0  0  0  0
 18 20  2  0  0  0  0
 18 34  1  0  0  0  0
 19 45  1  0  0  0  0
 20 35  1  0  0  0  0
 21 81  1  0  0  0  0
 22 82  1  0  0  0  0
 23 25  2  0  0  0  0
 23 81  1  0  0  0  0
 24 83  1  0  0  0  0
 25 84  1  0  0  0  0
 26 65  2  0  0  0  0
 27 66  1  0  0  0  0
 27 69  1  0  0  0  0
 28 70  1  0  0  0  0
 28 76  2  0  0  0  0
 29 46  1  0  0  0  0
 29 71  1  0  0  0  0
 29 77  2  0  0  0  0
 30 59  1  0  0  0  0
 30 67  1  0  0  0  0
 30 78  2  0  0  0  0
 31 60  1  0  0  0  0
 31 72  1  0  0  0  0
 31 79  2  0  0  0  0
 32 68  1  0  0  0  0
 32 73  1  0  0  0  0
 32 80  2  0  0  0  0
 33 36  1  0  0  0  0
 34 46  1  0  0  0  0
 35 67  1  0  0  0  0
 36 39  1  0  0  0  0
 37 40  1  0  0  0  0
 37 42  1  0  0  0  0
 38 41  1  0  0  0  0
 38 44  1  0  0  0  0
 39 45  1  0  0  0  0
 40 47  1  0  0  0  0
 41 48  1  0  0  0  0
 42 68  1  0  0  0  0
 43 47  1  0  0  0  0
 43 68  1  0  0  0  0
 44 74  1  0  0  0  0
 45 71  1  0  0  0  0
 46 67  1  0  0  0  0
 47 66  1  0  0  0  0
 48 61  1  0  0  0  0
 48 74  1  0  0  0  0
 49 60  1  0  0  0  0
 50 61  1  0  0  0  0
 51 62  1  0  0  0  0
 52 63  1  0  0  0  0
 53 64  1  0  0  0  0
 54 64  1  0  0  0  0
 55 64  1  0  0  0  0
 56 75  1  0  0  0  0
 57 62  1  0  0  0  0
 57 74  1  0  0  0  0
 58 62  1  0  0  0  0
 58 82  1  0  0  0  0
 59 64  1  0  0  0  0
 59 72  1  0  0  0  0
 60 75  1  0  0  0  0
 61 63  1  0  0  0  0
 63 73  1  0  0  0  0
 65 66  1  0  0  0  0
M  CHG  2  74   1  75   1
M  ISO  4  32 100  58 101  73 100  82 101
M  END
> <Batch ID>
0106

> <Smiles>
CNC(C)C(=O)NC(C(=O)N1Cc2cc([101O:1][101CH2:1]C(C)CN3CCCC3C(C)C(C)[100NH:0][100C:0](=O)N3CCCC(n4nc(-c5ccc(Oc6ccc(F)cc6F)cc5)c(C(N)=O)c4N)C3)ccc2CC1C(=O)NC1CCCc2ccccc21)C(C)(C)C

> <Shape>
0.268

> <Color>
0.055

> <Negative vol penalty>
0.000

$$$$

  -OEChem-04052319483D

 78 85  0     1  0  0  0  0  0999 V2000
  -28.2064  -25.0696   16.3517 C   0  0  0  0  0  0  0  0  0  0  0  0
  -27.0287  -25.1933   17.0819 C   0  0  0  0  0  0  0  0  0  0  0  0
  -27.3360  -19.9721   22.3748 C   0  0  0  0  0  0  0  0  0  0  0  0
  -26.3622  -21.2408   20.5639 C   0  0  0  0  0  0  0  0  0  0  0  0
  -29.3966  -25.5912   16.8568 C   0  0  0  0  0  0  0  0  0  0  0  0
  -27.0408  -25.8379   18.3184 C   0  0  0  0  0  0  0  0  0  0  0  0
  -23.1724  -29.0594   18.8678 C   0  0  0  0  0  0  0  0  0  0  0  0
  -28.0725  -19.2251   21.4554 C   0  0  0  0  0  0  0  0  0  0  0  0
  -27.0988  -20.4938   19.6445 C   0  0  0  0  0  0  0  0  0  0  0  0
  -21.9268  -28.5125   19.1733 C   0  0  0  0  0  0  0  0  0  0  0  0
  -27.5323  -16.6437   19.3415 C   0  0  0  0  0  0  0  0  0  0  0  0
  -27.5723  -15.2603   19.5155 C   0  0  0  0  0  0  0  0  0  0  0  0
  -22.2511  -29.0853   21.4940 C   0  0  0  0  0  0  0  0  0  0  0  0
  -29.9762  -15.3577   19.7364 C   0  0  0  0  0  0  0  0  0  0  0  0
  -26.4808  -20.9799   21.9290 C   0  0  0  0  0  0  0  0  0  0  0  0
  -26.1085  -22.9489   23.5075 C   0  0  0  0  0  0  0  0  0  0  0  0
  -29.4214  -26.2510   18.0957 C   0  0  0  0  0  0  0  0  0  0  0  0
  -23.9727  -29.6145   19.8767 C   0  0  0  0  0  0  0  0  0  0  0  0
  -28.2328  -26.3677   18.8412 C   0  0  0  0  0  0  0  0  0  0  0  0
  -23.5053  -29.6409   21.1984 C   0  0  0  0  0  0  0  0  0  0  0  0
  -27.9539  -19.4860   20.0903 C   0  0  0  0  0  0  0  0  0  0  0  0
  -21.4673  -28.5228   20.4870 C   0  0  0  0  0  0  0  0  0  0  0  0
  -28.7142  -17.3841   19.3650 C   0  0  0  0  0  0  0  0  0  0  0  0
  -28.7943  -14.6173   19.7129 C   0  0  0  0  0  0  0  0  0  0  0  0
  -29.9362  -16.7411   19.5625 C   0  0  0  0  0  0  0  0  0  0  0  0
  -25.7192  -21.7514   22.8781 C   0  0  0  0  0  0  0  0  0  0  0  0
  -25.0430  -23.2775   24.3095 C   0  0  0  0  0  0  0  0  0  0  0  0
  -27.3246  -23.6975   23.3787 C   0  0  0  0  0  0  0  0  0  0  0  0
  -26.8455  -28.9656   21.0725 C   0  0  0  0  0  0  0  0  0  0  0  0
  -26.3344  -31.6951   22.7491 C   0  0  0  0  0  0  0  0  0  0  0  0
  -24.0976  -33.9190   24.0523 C   0  0  0  0  0  0  0  0  0  0  0  0
  -19.2039  -21.9746   24.0682 C   0  0  0  0  0  0  0  0  0  0  0  0
  -30.7411  -26.7569   18.6223 C   0  0  0  0  0  0  0  0  0  0  0  0
  -25.3023  -30.2244   19.5266 C   0  0  0  0  0  0  0  0  0  0  0  0
  -24.3174  -30.2431   22.3148 C   0  0  0  0  0  0  0  0  0  0  0  0
  -30.5972  -27.7551   19.7683 C   0  0  0  0  0  0  0  0  0  0  0  0
  -21.4413  -21.2887   26.7516 C   0  0  0  0  0  0  0  0  0  0  0  0
  -29.5928  -27.2456   20.7971 C   0  0  0  0  0  0  0  0  0  0  0  0
  -22.8265  -21.4376   26.1199 C   0  0  0  0  0  0  0  0  0  0  0  0
  -20.4395  -20.6741   25.7765 C   0  0  0  0  0  0  0  0  0  0  0  0
  -21.7208  -21.5140   23.8461 C   0  0  0  0  0  0  0  0  0  0  0  0
  -28.2007  -27.0819   20.1750 C   0  0  1  0  0  0  0  0  0  0  0  0
  -26.2561  -30.3007   20.7147 C   0  0  1  0  0  0  0  0  0  0  0  0
  -22.7515  -22.1812   24.7728 C   0  0  2  0  0  0  0  0  0  0  0  0
  -23.9783  -36.0296   25.4045 C   0  0  0  0  0  0  0  0  0  0  0  0
  -26.9337  -30.1032   25.2823 C   0  0  0  0  0  0  0  0  0  0  0  0
  -25.8921  -31.9540   26.6082 C   0  0  0  0  0  0  0  0  0  0  0  0
  -27.9256  -32.3985   25.2334 C   0  0  0  0  0  0  0  0  0  0  0  0
  -18.9507  -23.0288   19.9176 C   0  0  0  0  0  0  0  0  0  0  0  0
  -17.0739  -24.5954   20.4059 C   0  0  0  0  0  0  0  0  0  0  0  0
  -22.7835  -35.3940   21.8486 C   0  0  0  0  0  0  0  0  0  0  0  0
  -19.0459  -26.3195   22.0576 C   0  0  0  0  0  0  0  0  0  0  0  0
  -19.4465  -25.1791   21.1098 C   0  0  0  0  0  0  0  0  0  0  0  0
  -18.1087  -23.3051   22.2823 C   0  0  0  0  0  0  0  0  0  0  0  0
  -20.0937  -27.4284   22.0906 C   0  0  0  0  0  0  0  0  0  1  0  0
  -25.7060  -32.0304   24.0802 C   0  0  1  0  0  0  0  0  0  0  0  0
  -24.0414  -35.4353   24.0061 C   0  0  2  0  0  0  0  0  0  0  0  0
  -26.5997  -31.6084   25.2805 C   0  0  0  0  0  0  0  0  0  0  0  0
  -18.4029  -24.0364   20.9519 C   0  0  0  0  0  0  0  0  0  0  0  0
  -24.5015  -21.3464   23.2485 N   0  0  0  0  0  0  0  0  0  0  0  0
  -24.1165  -22.2948   24.1194 N   0  0  0  0  0  0  0  0  0  0  0  0
  -25.6134  -30.8214   21.9230 N   0  0  0  0  0  0  0  0  0  0  0  0
  -20.4158  -21.4269   24.5201 N   0  0  0  0  0  0  0  0  0  0  0  0
  -24.8176  -24.3081   25.1518 N   0  0  0  0  0  0  0  0  0  0  0  0
  -28.3154  -23.2182   22.5111 N   0  0  0  0  0  0  0  0  0  0  0  0
  -27.5507  -28.3684   20.0452 N   0  0  0  0  0  0  0  0  0  0  0  0
  -25.3961  -33.4554   24.0380 N   0  0  0  0  0  0  0  0  0  0  0  0
  -19.2707  -22.6784   22.8720 N   0  0  0  0  0  0  0  0  0  0  0  0
  -22.8394  -35.8862   23.2492 N   0  3  0  0  0  0  0  0  0  0  0  0
  -27.5332  -24.7512   24.0265 O   0  0  0  0  0  0  0  0  0  0  0  0
  -26.6743  -28.5117   22.1979 O   0  0  0  0  0  0  0  0  0  0  0  0
  -27.4214  -32.1959   22.4503 O   0  0  0  0  0  0  0  0  0  0  0  0
  -23.0905  -33.2162   24.1004 O   0  0  0  0  0  0  0  0  0  0  0  0
  -18.1420  -21.8506   24.6879 O   0  0  0  0  0  0  0  0  0  0  0  0
  -28.6727  -18.7575   19.1930 O   0  0  0  0  0  0  0  0  0  0  0  0
  -20.2522  -27.9890   20.7879 O   0  0  0  0  0  0  0  0  0  1  0  0
  -28.8325  -13.2890   19.8815 F   0  0  0  0  0  0  0  0  0  0  0  0
  -31.0748  -17.4472   19.5872 F   0  0  0  0  0  0  0  0  0  0  0  0
  1  2  1  0  0  0  0
  1  5  2  0  0  0  0
  2  6  2  0  0  0  0
  3  8  2  0  0  0  0
  3 15  1  0  0  0  0
  4  9  1  0  0  0  0
  4 15  2  0  0  0  0
  5 17  1  0  0  0  0
  6 19  1  0  0  0  0
  7 10  2  0  0  0  0
  7 18  1  0  0  0  0
  8 21  1  0  0  0  0
  9 21  2  0  0  0  0
 10 22  1  0  0  0  0
 11 12  2  0  0  0  0
 11 23  1  0  0  0  0
 12 24  1  0  0  0  0
 13 20  1  0  0  0  0
 13 22  2  0  0  0  0
 14 24  2  0  0  0  0
 14 25  1  0  0  0  0
 15 26  1  0  0  0  0
 16 26  1  0  0  0  0
 16 27  2  0  0  0  0
 16 28  1  0  0  0  0
 17 19  2  0  0  0  0
 17 33  1  0  0  0  0
 18 20  2  0  0  0  0
 18 34  1  0  0  0  0
 19 42  1  0  0  0  0
 20 35  1  0  0  0  0
 21 75  1  0  0  0  0
 22 76  1  0  0  0  0
 23 25  2  0  0  0  0
 23 75  1  0  0  0  0
 24 77  1  0  0  0  0
 25 78  1  0  0  0  0
 26 60  2  0  0  0  0
 27 61  1  0  0  0  0
 27 64  1  0  0  0  0
 28 65  1  0  0  0  0
 28 70  2  0  0  0  0
 29 43  1  0  0  0  0
 29 66  1  0  0  0  0
 29 71  2  0  0  0  0
 30 56  1  0  0  0  0
 30 62  1  0  0  0  0
 30 72  2  0  0  0  0
 31 57  1  0  0  0  0
 31 67  1  0  0  0  0
 31 73  2  0  0  0  0
 32 63  1  0  0  0  0
 32 68  1  0  0  0  0
 32 74  2  0  0  0  0
 33 36  1  0  0  0  0
 34 43  1  0  0  0  0
 35 62  1  0  0  0  0
 36 38  1  0  0  0  0
 37 39  1  0  0  0  0
 37 40  1  0  0  0  0
 38 42  1  0  0  0  0
 39 44  1  0  0  0  0
 40 63  1  0  0  0  0
 41 44  1  0  0  0  0
 41 63  1  0  0  0  0
 42 66  1  0  0  0  0
 43 62  1  0  0  0  0
 44 61  1  0  0  0  0
 45 57  1  0  0  0  0
 46 58  1  0  0  0  0
 47 58  1  0  0  0  0
 48 58  1  0  0  0  0
 49 59  1  0  0  0  0
 50 59  1  0  0  0  0
 51 69  1  0  0  0  0
 52 53  1  0  0  0  0
 52 55  1  0  0  0  0
 53 59  1  0  0  0  0
 54 59  1  0  0  0  0
 54 68  1  0  0  0  0
 55 76  1  0  0  0  0
 56 58  1  0  0  0  0
 56 67  1  0  0  0  0
 57 69  1  0  0  0  0
 60 61  1  0  0  0  0
M  CHG  1  69   1
M  ISO  4  32 100  55 101  68 100  76 101
M  END
> <Batch ID>
0106

> <Smiles>
CNC(C)C(=O)NC(C(=O)N1Cc2cc([101O:1][101CH2:1]CCC(C)(C)C[100NH:0][100C:0](=O)N3CCCC(n4nc(-c5ccc(Oc6ccc(F)cc6F)cc5)c(C(N)=O)c4N)C3)ccc2CC1C(=O)NC1CCCc2ccccc21)C(C)(C)C

> <Shape>
0.248

> <Color>
0.058

> <Negative vol penalty>
0.000

$$$$

  -OEChem-04052319483D

 81 88  0     1  0  0  0  0  0999 V2000
  -33.4811  -33.4468   20.0422 C   0  0  0  0  0  0  0  0  0  0  0  0
  -32.0951  -33.3276   20.0534 C   0  0  0  0  0  0  0  0  0  0  0  0
  -24.7028  -13.9655   22.7606 C   0  0  0  0  0  0  0  0  0  0  0  0
  -24.7244  -14.9396   20.5497 C   0  0  0  0  0  0  0  0  0  0  0  0
  -34.2553  -32.5035   19.3678 C   0  0  0  0  0  0  0  0  0  0  0  0
  -31.4824  -32.2656   19.3892 C   0  0  0  0  0  0  0  0  0  0  0  0
  -26.3985  -29.3031   21.0873 C   0  0  0  0  0  0  0  0  0  0  0  0
  -24.8992  -12.7011   22.2054 C   0  0  0  0  0  0  0  0  0  0  0  0
  -24.9208  -13.6752   19.9945 C   0  0  0  0  0  0  0  0  0  0  0  0
  -25.0678  -29.4187   20.6878 C   0  0  0  0  0  0  0  0  0  0  0  0
  -23.0351  -10.3428   20.6601 C   0  0  0  0  0  0  0  0  0  0  0  0
  -22.2529   -9.2945   21.1445 C   0  0  0  0  0  0  0  0  0  0  0  0
  -25.3849  -27.6060   19.1281 C   0  0  0  0  0  0  0  0  0  0  0  0
  -24.2502   -8.1212   21.8309 C   0  0  0  0  0  0  0  0  0  0  0  0
  -24.6153  -15.0848   21.9327 C   0  0  0  0  0  0  0  0  0  0  0  0
  -25.4026  -17.3028   22.9167 C   0  0  0  0  0  0  0  0  0  0  0  0
  -33.6523  -31.4241   18.7032 C   0  0  0  0  0  0  0  0  0  0  0  0
  -27.2368  -28.3437   20.5014 C   0  0  0  0  0  0  0  0  0  0  0  0
  -32.2491  -31.3077   18.7042 C   0  0  0  0  0  0  0  0  0  0  0  0
  -26.7252  -27.4785   19.5237 C   0  0  0  0  0  0  0  0  0  0  0  0
  -25.0082  -12.5559   20.8224 C   0  0  0  0  0  0  0  0  0  0  0  0
  -24.5616  -28.5720   19.7060 C   0  0  0  0  0  0  0  0  0  0  0  0
  -24.4250  -10.2803   20.7610 C   0  0  0  0  0  0  0  0  0  0  0  0
  -22.8604   -8.1837   21.7299 C   0  0  0  0  0  0  0  0  0  0  0  0
  -25.0325   -9.1696   21.3465 C   0  0  0  0  0  0  0  0  0  0  0  0
  -24.4118  -16.3911   22.5056 C   0  0  0  0  0  0  0  0  0  0  0  0
  -24.6996  -18.3854   23.3860 C   0  0  0  0  0  0  0  0  0  0  0  0
  -26.8307  -17.1819   22.8779 C   0  0  0  0  0  0  0  0  0  0  0  0
  -29.9093  -28.4491   18.7839 C   0  0  0  0  0  0  0  0  0  0  0  0
  -29.7882  -25.2246   19.1160 C   0  0  0  0  0  0  0  0  0  0  0  0
  -27.8985  -22.4390   19.6786 C   0  0  0  0  0  0  0  0  0  0  0  0
  -20.5435  -22.0765   22.8883 C   0  0  0  0  0  0  0  0  0  0  0  0
  -34.5280  -30.4558   17.9480 C   0  0  0  0  0  0  0  0  0  0  0  0
  -28.6626  -28.2140   20.9625 C   0  0  0  0  0  0  0  0  0  0  0  0
  -27.5783  -26.4184   18.8781 C   0  0  0  0  0  0  0  0  0  0  0  0
  -33.8220  -29.1520   17.5846 C   0  0  0  0  0  0  0  0  0  0  0  0
  -19.7683  -18.9333   24.3703 C   0  0  0  0  0  0  0  0  0  0  0  0
  -32.4429  -29.4371   16.9986 C   0  0  0  0  0  0  0  0  0  0  0  0
  -20.9857  -18.0658   24.0458 C   0  0  0  0  0  0  0  0  0  0  0  0
  -19.4341  -19.8875   23.2258 C   0  0  0  0  0  0  0  0  0  0  0  0
  -21.7737  -19.8647   22.4515 C   0  0  0  0  0  0  0  0  0  0  0  0
  -31.5489  -30.1560   18.0163 C   0  0  1  0  0  0  0  0  0  0  0  0
  -29.5652  -27.5428   19.9319 C   0  0  1  0  0  0  0  0  0  0  0  0
  -22.1835  -18.9252   23.5986 C   0  0  2  0  0  0  0  0  0  0  0  0
  -18.4801  -28.8524   20.9578 C   0  0  0  0  0  0  0  0  0  0  0  0
  -28.0743  -19.9419   19.8542 C   0  0  0  0  0  0  0  0  0  0  0  0
  -22.3144  -24.3385   20.0486 C   0  0  0  0  0  0  0  0  0  0  0  0
  -30.0082  -25.0290   16.0790 C   0  0  0  0  0  0  0  0  0  0  0  0
  -29.2334  -22.6541   16.2456 C   0  0  0  0  0  0  0  0  0  0  0  0
  -31.3683  -23.3469   17.3340 C   0  0  0  0  0  0  0  0  0  0  0  0
  -20.4638  -29.0888   18.6051 C   0  0  0  0  0  0  0  0  0  0  0  0
  -26.9410  -22.4524   22.4789 C   0  0  0  0  0  0  0  0  0  0  0  0
  -19.9562  -29.2090   21.0858 C   0  0  0  0  0  0  0  0  0  0  0  0
  -21.3592  -26.3653   21.2797 C   0  0  0  0  0  0  0  0  0  0  0  0
  -20.8821  -27.0459   19.9875 C   0  0  0  0  0  0  0  0  0  0  0  0
  -21.7932  -24.1885   22.5186 C   0  0  0  0  0  0  0  0  0  0  0  0
  -22.3272  -29.1440   20.2861 C   0  0  0  0  0  0  0  0  0  1  0  0
  -29.1688  -24.0918   18.3336 C   0  0  1  0  0  0  0  0  0  0  0  0
  -28.0965  -21.2594   20.6134 C   0  0  2  0  0  0  0  0  0  0  0  0
  -21.3975  -24.8246   21.1751 C   0  0  2  0  0  0  0  0  0  0  0  0
  -29.9289  -23.8016   17.0086 C   0  0  0  0  0  0  0  0  0  0  0  0
  -20.9003  -28.6041   20.0077 C   0  0  1  0  0  0  0  0  0  0  0  0
  -23.1737  -16.8542   22.6970 N   0  0  0  0  0  0  0  0  0  0  0  0
  -23.3818  -18.0686   23.2336 N   0  0  0  0  0  0  0  0  0  0  0  0
  -28.9675  -26.3353   19.3583 N   0  0  0  0  0  0  0  0  0  0  0  0
  -20.6116  -20.6740   22.8507 N   0  0  0  0  0  0  0  0  0  0  0  0
  -25.0863  -19.5679   23.9100 N   0  0  0  0  0  0  0  0  0  0  0  0
  -27.3877  -16.0026   22.3645 N   0  0  0  0  0  0  0  0  0  0  0  0
  -31.0387  -29.2174   18.9927 N   0  0  0  0  0  0  0  0  0  0  0  0
  -29.1016  -22.9549   19.2453 N   0  0  0  0  0  0  0  0  0  0  0  0
  -21.7057  -22.7452   22.5238 N   0  0  0  0  0  0  0  0  0  0  0  0
  -27.0189  -21.2272   21.6422 N   0  3  0  0  0  0  0  0  0  0  0  0
  -27.5903  -18.0859   23.3015 O   0  0  0  0  0  0  0  0  0  0  0  0
  -29.2034  -28.4501   17.7822 O   0  0  0  0  0  0  0  0  0  0  0  0
  -30.9547  -25.1246   19.5042 O   0  0  0  0  0  0  0  0  0  0  0  0
  -26.7877  -22.8583   19.3613 O   0  0  0  0  0  0  0  0  0  0  0  0
  -19.5242  -22.6874   23.2271 O   0  0  0  0  0  0  0  0  0  0  0  0
  -25.2002  -11.3223   20.2803 O   0  0  0  0  0  0  0  0  0  0  0  0
  -23.2541  -28.6839   19.3110 O   0  0  0  0  0  0  0  0  0  1  0  0
  -22.1090   -7.1778   22.1965 F   0  0  0  0  0  0  0  0  0  0  0  0
  -26.3672   -9.1044   21.4473 F   0  0  0  0  0  0  0  0  0  0  0  0
  1  2  1  0  0  0  0
  1  5  2  0  0  0  0
  2  6  2  0  0  0  0
  3  8  2  0  0  0  0
  3 15  1  0  0  0  0
  4  9  1  0  0  0  0
  4 15  2  0  0  0  0
  5 17  1  0  0  0  0
  6 19  1  0  0  0  0
  7 10  2  0  0  0  0
  7 18  1  0  0  0  0
  8 21  1  0  0  0  0
  9 21  2  0  0  0  0
 10 22  1  0  0  0  0
 11 12  2  0  0  0  0
 11 23  1  0  0  0  0
 12 24  1  0  0  0  0
 13 20  1  0  0  0  0
 13 22  2  0  0  0  0
 14 24  2  0  0  0  0
 14 25  1  0  0  0  0
 15 26  1  0  0  0  0
 16 26  1  0  0  0  0
 16 27  2  0  0  0  0
 16 28  1  0  0  0  0
 17 19  2  0  0  0  0
 17 33  1  0  0  0  0
 18 20  2  0  0  0  0
 18 34  1  0  0  0  0
 19 42  1  0  0  0  0
 20 35  1  0  0  0  0
 21 78  1  0  0  0  0
 22 79  1  0  0  0  0
 23 25  2  0  0  0  0
 23 78  1  0  0  0  0
 24 80  1  0  0  0  0
 25 81  1  0  0  0  0
 26 63  2  0  0  0  0
 27 64  1  0  0  0  0
 27 67  1  0  0  0  0
 28 68  1  0  0  0  0
 28 73  2  0  0  0  0
 29 43  1  0  0  0  0
 29 69  1  0  0  0  0
 29 74  2  0  0  0  0
 30 58  1  0  0  0  0
 30 65  1  0  0  0  0
 30 75  2  0  0  0  0
 31 59  1  0  0  0  0
 31 70  1  0  0  0  0
 31 76  2  0  0  0  0
 32 66  1  0  0  0  0
 32 71  1  0  0  0  0
 32 77  2  0  0  0  0
 33 36  1  0  0  0  0
 34 43  1  0  0  0  0
 35 65  1  0  0  0  0
 36 38  1  0  0  0  0
 37 39  1  0  0  0  0
 37 40  1  0  0  0  0
 38 42  1  0  0  0  0
 39 44  1  0  0  0  0
 40 66  1  0  0  0  0
 41 44  1  0  0  0  0
 41 66  1  0  0  0  0
 42 69  1  0  0  0  0
 43 65  1  0  0  0  0
 44 64  1  0  0  0  0
 45 53  1  0  0  0  0
 46 59  1  0  0  0  0
 47 60  1  0  0  0  0
 48 61  1  0  0  0  0
 49 61  1  0  0  0  0
 50 61  1  0  0  0  0
 51 62  1  0  0  0  0
 52 72  1  0  0  0  0
 53 62  1  0  0  0  0
 54 55  1  0  0  0  0
 54 60  1  0  0  0  0
 55 62  1  0  0  0  0
 56 60  1  0  0  0  0
 56 71  1  0  0  0  0
 57 62  1  0  0  0  0
 57 79  1  0  0  0  0
 58 61  1  0  0  0  0
 58 70  1  0  0  0  0
 59 72  1  0  0  0  0
 63 64  1  0  0  0  0
M  CHG  1  72   1
M  ISO  4  32 100  57 101  71 100  79 101
M  END
> <Batch ID>
0106

> <Smiles>
CCC(C)(CCC(C)C[100NH:0][100C:0](=O)N1CCCC(n2nc(-c3ccc(Oc4ccc(F)cc4F)cc3)c(C(N)=O)c2N)C1)[101CH2:1][101O:1]c1ccc2c(c1)CN(C(=O)C(NC(=O)C(C)NC)C(C)(C)C)C(C(=O)NC1CCCc3ccccc31)C2

> <Shape>
0.197

> <Color>
0.061

> <Negative vol penalty>
0.000

$$$$

  -OEChem-04052319483D

 84 92  0     1  0  0  0  0  0999 V2000
  -28.5473  -31.5305   24.2463 C   0  0  0  0  0  0  0  0  0  0  0  0
  -29.1762  -30.3985   23.7378 C   0  0  0  0  0  0  0  0  0  0  0  0
  -23.0004   -9.8986   19.9799 C   0  0  0  0  0  0  0  0  0  0  0  0
  -23.7315   -9.9442   22.2822 C   0  0  0  0  0  0  0  0  0  0  0  0
  -27.1552  -31.6045   24.2640 C   0  0  0  0  0  0  0  0  0  0  0  0
  -28.4131  -29.3393   23.2476 C   0  0  0  0  0  0  0  0  0  0  0  0
  -28.5330  -24.2224   18.2358 C   0  0  0  0  0  0  0  0  0  0  0  0
  -22.2351   -8.7631   20.2454 C   0  0  0  0  0  0  0  0  0  0  0  0
  -22.9661   -8.8087   22.5477 C   0  0  0  0  0  0  0  0  0  0  0  0
  -28.3796  -22.8433   18.1007 C   0  0  0  0  0  0  0  0  0  0  0  0
  -23.2108   -5.4711   22.0670 C   0  0  0  0  0  0  0  0  0  0  0  0
  -23.8007   -4.4523   22.8151 C   0  0  0  0  0  0  0  0  0  0  0  0
  -25.9827  -23.1153   18.1090 C   0  0  0  0  0  0  0  0  0  0  0  0
  -28.2868  -18.7853   21.7860 C   0  0  0  0  0  0  0  0  0  0  0  0
  -22.0810   -4.6903   24.4954 C   0  0  0  0  0  0  0  0  0  0  0  0
  -28.4426  -18.3758   19.5774 C   0  0  0  0  0  0  0  0  0  0  0  0
  -23.7487  -10.4891   20.9983 C   0  0  0  0  0  0  0  0  0  0  0  0
  -24.1324  -13.0053   20.8275 C   0  0  0  0  0  0  0  0  0  0  0  0
  -26.3747  -30.5497   23.7650 C   0  0  0  0  0  0  0  0  0  0  0  0
  -27.4105  -25.0586   18.3196 C   0  0  0  0  0  0  0  0  0  0  0  0
  -27.0091  -29.3987   23.2599 C   0  0  0  0  0  0  0  0  0  0  0  0
  -26.1246  -24.5049   18.2425 C   0  0  0  0  0  0  0  0  0  0  0  0
  -29.1628  -18.3733   20.7516 C   0  0  0  0  0  0  0  0  0  0  0  0
  -22.2179   -8.2182   21.5293 C   0  0  0  0  0  0  0  0  0  0  0  0
  -27.1042  -22.2892   18.0401 C   0  0  0  0  0  0  0  0  0  0  0  0
  -22.0560   -6.0996   22.5331 C   0  0  0  0  0  0  0  0  0  0  0  0
  -23.2358   -4.0619   24.0293 C   0  0  0  0  0  0  0  0  0  0  0  0
  -21.4911   -5.7092   23.7472 C   0  0  0  0  0  0  0  0  0  0  0  0
  -24.5399  -11.6618   20.7245 C   0  0  0  0  0  0  0  0  0  0  0  0
  -27.0579  -19.0267   21.2125 C   0  0  0  0  0  0  0  0  0  0  0  0
  -25.2409  -13.7293   20.4620 C   0  0  0  0  0  0  0  0  0  0  0  0
  -22.8652  -13.5502   21.2186 C   0  0  0  0  0  0  0  0  0  0  0  0
  -26.2520  -27.0449   20.5141 C   0  0  0  0  0  0  0  0  0  0  0  0
  -24.1186  -27.7607   18.1777 C   0  0  0  0  0  0  0  0  0  0  0  0
  -22.5083  -26.7921   15.3289 C   0  0  0  0  0  0  0  0  0  0  0  0
  -30.7374  -14.6659   20.6987 C   0  0  0  0  0  0  0  0  0  0  0  0
  -24.8726  -30.6555   23.8486 C   0  0  0  0  0  0  0  0  0  0  0  0
  -27.5931  -26.5469   18.4383 C   0  0  0  0  0  0  0  0  0  0  0  0
  -24.8873  -25.3612   18.3076 C   0  0  0  0  0  0  0  0  0  0  0  0
  -24.1409  -29.6475   22.9661 C   0  0  0  0  0  0  0  0  0  0  0  0
  -29.5918  -12.2474   18.3502 C   0  0  0  0  0  0  0  0  0  0  0  0
  -24.7454  -28.2566   23.1303 C   0  0  0  0  0  0  0  0  0  0  0  0
  -28.1445  -11.9860   18.7709 C   0  0  0  0  0  0  0  0  0  0  0  0
  -30.4972  -12.4803   19.5577 C   0  0  0  0  0  0  0  0  0  0  0  0
  -28.5902  -13.2716   20.9033 C   0  0  0  0  0  0  0  0  0  0  0  0
  -26.2161  -28.2395   22.6964 C   0  0  1  0  0  0  0  0  0  0  0  0
  -26.3776  -27.2526   19.0313 C   0  0  1  0  0  0  0  0  0  0  0  0
  -27.6282  -13.0864   19.7173 C   0  0  2  0  0  0  0  0  0  0  0  0
  -25.9040  -20.8769   22.4770 C   0  0  0  0  0  0  0  0  0  0  0  0
  -25.2457  -18.4764   22.8760 C   0  0  0  0  0  0  0  0  0  0  0  0
  -20.7940  -27.5749   13.6720 C   0  0  0  0  0  0  0  0  0  0  0  0
  -21.9040  -27.1592   20.1885 C   0  0  0  0  0  0  0  0  0  0  0  0
  -20.2971  -27.0252   18.2733 C   0  0  0  0  0  0  0  0  0  0  0  0
  -21.4910  -29.1629   18.7502 C   0  0  0  0  0  0  0  0  0  0  0  0
  -24.4471  -26.6813   13.0956 C   0  0  0  0  0  0  0  0  0  0  0  0
  -26.0562  -18.9093   18.8538 C   0  0  0  0  0  0  0  0  0  0  0  0
  -30.8222  -16.8419   21.8890 C   0  0  0  0  0  0  0  0  0  0  0  0
  -25.7819  -20.3631   18.4848 C   0  0  0  0  0  0  0  0  0  1  0  0
  -30.5844  -18.0091   20.9026 C   0  0  2  0  0  0  0  0  0  0  0  0
  -25.7943  -19.4762   21.8325 C   0  0  0  0  0  0  0  0  0  0  0  0
  -22.7722  -27.2223   17.7578 C   0  0  1  0  0  0  0  0  0  0  0  0
  -22.2750  -27.5079   14.0107 C   0  0  2  0  0  0  0  0  0  0  0  0
  -21.6392  -27.6258   18.7432 C   0  0  0  0  0  0  0  0  0  0  0  0
  -25.8082  -11.5368   20.3248 N   0  0  0  0  0  0  0  0  0  0  0  0
  -27.1644  -18.7743   19.8697 N   0  0  0  0  0  0  0  0  0  0  0  0
  -26.2072  -12.8112   20.1732 N   0  0  0  0  0  0  0  0  0  0  0  0
  -25.1179  -26.8101   18.4300 N   0  0  0  0  0  0  0  0  0  0  0  0
  -29.9521  -13.5366   20.4138 N   0  0  0  0  0  0  0  0  0  0  0  0
  -25.4735  -15.0554   20.3626 N   0  0  0  0  0  0  0  0  0  0  0  0
  -21.8347  -12.6647   21.5626 N   0  0  0  0  0  0  0  0  0  0  0  0
  -26.3170  -28.2108   21.2530 N   0  0  0  0  0  0  0  0  0  0  0  0
  -22.5611  -27.6747   16.3870 N   0  0  0  0  0  0  0  0  0  0  0  0
  -30.1427  -15.6224   21.5124 N   0  0  0  0  0  0  0  0  0  0  0  0
  -31.4577  -19.1585   21.3529 N   0  3  0  0  0  0  0  0  0  0  0  0
  -22.9785  -26.7989   12.9047 N   0  3  0  0  0  0  0  0  0  0  0  0
  -22.6479  -14.7853   21.2459 O   0  0  0  0  0  0  0  0  0  0  0  0
  -26.1054  -25.9110   20.9551 O   0  0  0  0  0  0  0  0  0  0  0  0
  -24.2799  -28.9801   18.2712 O   0  0  0  0  0  0  0  0  0  0  0  0
  -22.6278  -25.5717   15.4122 O   0  0  0  0  0  0  0  0  0  0  0  0
  -31.8817  -14.8134   20.2561 O   0  0  0  0  0  0  0  0  0  0  0  0
  -21.4710   -7.1103   21.7888 O   0  0  0  0  0  0  0  0  0  0  0  0
  -26.9516  -20.9433   17.9089 O   0  0  0  0  0  0  0  0  0  1  0  0
  -23.8016   -3.0825   24.7468 F   0  0  0  0  0  0  0  0  0  0  0  0
  -20.3811   -6.3084   24.1996 F   0  0  0  0  0  0  0  0  0  0  0  0
  1  2  1  0  0  0  0
  1  5  2  0  0  0  0
  2  6  2  0  0  0  0
  3  8  2  0  0  0  0
  3 17  1  0  0  0  0
  4  9  1  0  0  0  0
  4 17  2  0  0  0  0
  5 19  1  0  0  0  0
  6 21  1  0  0  0  0
  7 10  2  0  0  0  0
  7 20  1  0  0  0  0
  8 24  1  0  0  0  0
  9 24  2  0  0  0  0
 10 25  1  0  0  0  0
 11 12  2  0  0  0  0
 11 26  1  0  0  0  0
 12 27  1  0  0  0  0
 13 22  1  0  0  0  0
 13 25  2  0  0  0  0
 14 23  1  0  0  0  0
 14 30  2  0  0  0  0
 15 27  2  0  0  0  0
 15 28  1  0  0  0  0
 16 23  2  0  0  0  0
 16 65  1  0  0  0  0
 17 29  1  0  0  0  0
 18 29  1  0  0  0  0
 18 31  2  0  0  0  0
 18 32  1  0  0  0  0
 19 21  2  0  0  0  0
 19 37  1  0  0  0  0
 20 22  2  0  0  0  0
 20 38  1  0  0  0  0
 21 46  1  0  0  0  0
 22 39  1  0  0  0  0
 23 59  1  0  0  0  0
 24 81  1  0  0  0  0
 25 82  1  0  0  0  0
 26 28  2  0  0  0  0
 26 81  1  0  0  0  0
 27 83  1  0  0  0  0
 28 84  1  0  0  0  0
 29 64  2  0  0  0  0
 30 60  1  0  0  0  0
 30 65  1  0  0  0  0
 31 66  1  0  0  0  0
 31 69  1  0  0  0  0
 32 70  1  0  0  0  0
 32 76  2  0  0  0  0
 33 47  1  0  0  0  0
 33 71  1  0  0  0  0
 33 77  2  0  0  0  0
 34 61  1  0  0  0  0
 34 67  1  0  0  0  0
 34 78  2  0  0  0  0
 35 62  1  0  0  0  0
 35 72  1  0  0  0  0
 35 79  2  0  0  0  0
 36 68  1  0  0  0  0
 36 73  1  0  0  0  0
 36 80  2  0  0  0  0
 37 40  1  0  0  0  0
 38 47  1  0  0  0  0
 39 67  1  0  0  0  0
 40 42  1  0  0  0  0
 41 43  1  0  0  0  0
 41 44  1  0  0  0  0
 42 46  1  0  0  0  0
 43 48  1  0  0  0  0
 44 68  1  0  0  0  0
 45 48  1  0  0  0  0
 45 68  1  0  0  0  0
 46 71  1  0  0  0  0
 47 67  1  0  0  0  0
 48 66  1  0  0  0  0
 49 60  1  0  0  0  0
 50 60  1  0  0  0  0
 51 62  1  0  0  0  0
 52 63  1  0  0  0  0
 53 63  1  0  0  0  0
 54 63  1  0  0  0  0
 55 75  1  0  0  0  0
 56 58  1  0  0  0  0
 56 65  1  0  0  0  0
 57 59  1  0  0  0  0
 57 73  1  0  0  0  0
 58 82  1  0  0  0  0
 59 74  1  0  0  0  0
 61 63  1  0  0  0  0
 61 72  1  0  0  0  0
 62 75  1  0  0  0  0
 64 66  1  0  0  0  0
M  CHG  2  74   1  75   1
M  ISO  4  36 100  58 101  73 100  82 101
M  END
> <Batch ID>
0106

> <Smiles>
CNC(C)C(=O)NC(C(=O)N1Cc2cc([101O:1][101CH2:1]Cn3cc(C(N)C[100NH:0][100C:0](=O)N4CCCC(n5nc(-c6ccc(Oc7ccc(F)cc7F)cc6)c(C(N)=O)c5N)C4)cc3C(C)C)ccc2CC1C(=O)NC1CCCc2ccccc21)C(C)(C)C

> <Shape>
0.292

> <Color>
0.193

> <Negative vol penalty>
0.000

$$$$

  -OEChem-04052319483D

 81 89  0     1  0  0  0  0  0999 V2000
  -21.7442   -8.8312   21.0379 C   0  0  0  0  0  0  0  0  0  0  0  0
  -21.8428  -10.2164   21.1217 C   0  0  0  0  0  0  0  0  0  0  0  0
  -25.5857  -30.1329   20.6662 C   0  0  0  0  0  0  0  0  0  0  0  0
  -23.7277  -28.6993   21.2401 C   0  0  0  0  0  0  0  0  0  0  0  0
  -22.8784   -8.0406   21.2183 C   0  0  0  0  0  0  0  0  0  0  0  0
  -23.0756  -10.8117   21.3870 C   0  0  0  0  0  0  0  0  0  0  0  0
  -23.9940  -14.7936   18.3961 C   0  0  0  0  0  0  0  0  0  0  0  0
  -25.1577  -31.0658   21.6107 C   0  0  0  0  0  0  0  0  0  0  0  0
  -23.2996  -29.6322   22.1847 C   0  0  0  0  0  0  0  0  0  0  0  0
  -23.3551  -15.9909   18.7158 C   0  0  0  0  0  0  0  0  0  0  0  0
  -25.3059  -31.4618   24.9654 C   0  0  0  0  0  0  0  0  0  0  0  0
  -26.2680  -32.0208   25.8065 C   0  0  0  0  0  0  0  0  0  0  0  0
  -25.3772  -16.7823   19.7665 C   0  0  0  0  0  0  0  0  0  0  0  0
  -25.7225  -34.2202   24.9685 C   0  0  0  0  0  0  0  0  0  0  0  0
  -24.8707  -28.9496   20.4809 C   0  0  0  0  0  0  0  0  0  0  0  0
  -26.5490  -27.3146   19.4722 C   0  0  0  0  0  0  0  0  0  0  0  0
  -24.1274   -8.6269   21.4764 C   0  0  0  0  0  0  0  0  0  0  0  0
  -25.3282  -14.5770   18.7694 C   0  0  0  0  0  0  0  0  0  0  0  0
  -24.2272  -10.0281   21.5724 C   0  0  0  0  0  0  0  0  0  0  0  0
  -26.0315  -15.5824   19.4481 C   0  0  0  0  0  0  0  0  0  0  0  0
  -24.0147  -30.8154   22.3699 C   0  0  0  0  0  0  0  0  0  0  0  0
  -24.0458  -16.9843   19.4037 C   0  0  0  0  0  0  0  0  0  0  0  0
  -24.5522  -32.2819   24.1257 C   0  0  0  0  0  0  0  0  0  0  0  0
  -26.4763  -33.4000   25.8081 C   0  0  0  0  0  0  0  0  0  0  0  0
  -24.7605  -33.6611   24.1273 C   0  0  0  0  0  0  0  0  0  0  0  0
  -25.3120  -27.9858   19.5050 C   0  0  0  0  0  0  0  0  0  0  0  0
  -26.4764  -26.5151   18.3577 C   0  0  0  0  0  0  0  0  0  0  0  0
  -27.6640  -27.4055   20.3690 C   0  0  0  0  0  0  0  0  0  0  0  0
  -26.8228  -12.4875   20.6413 C   0  0  0  0  0  0  0  0  0  0  0  0
  -29.4814  -13.9313   19.4709 C   0  0  0  0  0  0  0  0  0  0  0  0
  -30.5411  -17.3010   18.7365 C   0  0  0  0  0  0  0  0  0  0  0  0
  -21.8854  -24.1394   15.3360 C   0  0  0  0  0  0  0  0  0  0  0  0
  -25.3163   -7.7290   21.7112 C   0  0  0  0  0  0  0  0  0  0  0  0
  -26.0112  -13.2907   18.3936 C   0  0  0  0  0  0  0  0  0  0  0  0
  -27.4714  -15.4074   19.8537 C   0  0  0  0  0  0  0  0  0  0  0  0
  -26.6558   -8.4550   21.6173 C   0  0  0  0  0  0  0  0  0  0  0  0
  -24.4190  -26.2817   14.0445 C   0  0  0  0  0  0  0  0  0  0  0  0
  -26.6113   -9.7614   22.4035 C   0  0  0  0  0  0  0  0  0  0  0  0
  -20.8198  -19.9792   17.7172 C   0  0  0  0  0  0  0  0  0  0  0  0
  -23.0170  -21.2228   17.5706 C   0  0  0  0  0  0  0  0  0  0  0  0
  -25.0468  -26.9008   15.2945 C   0  0  0  0  0  0  0  0  0  0  0  0
  -21.4139  -19.0628   18.7827 C   0  0  0  0  0  0  0  0  0  0  0  0
  -23.6052  -20.3026   18.6361 C   0  0  0  0  0  0  0  0  0  0  0  0
  -22.9127  -26.0896   14.2055 C   0  0  0  0  0  0  0  0  0  0  0  0
  -23.1374  -25.9524   16.6559 C   0  0  0  0  0  0  0  0  0  0  0  0
  -25.5515  -10.7122   21.8340 C   0  0  1  0  0  0  0  0  0  0  0  0
  -27.2154  -12.9739   19.2749 C   0  0  1  0  0  0  0  0  0  0  0  0
  -21.4950  -21.3577   17.7172 C   0  0  0  0  0  0  0  0  0  0  0  0
  -24.6643  -26.1139   16.5625 C   0  0  2  0  0  0  0  0  0  0  0  0
  -22.9276  -18.9339   18.6357 C   0  0  0  0  0  0  0  0  0  1  0  0
  -32.2186  -18.1591   17.0791 C   0  0  0  0  0  0  0  0  0  0  0  0
  -18.9918  -23.1125   18.0742 C   0  0  0  0  0  0  0  0  0  0  0  0
  -18.8460  -23.2826   15.5782 C   0  0  0  0  0  0  0  0  0  0  0  0
  -31.4315  -13.8005   21.8139 C   0  0  0  0  0  0  0  0  0  0  0  0
  -32.4584  -15.9291   20.9876 C   0  0  0  0  0  0  0  0  0  0  0  0
  -32.5126  -13.8840   19.5603 C   0  0  0  0  0  0  0  0  0  0  0  0
  -28.5567  -19.1075   17.4883 C   0  0  0  0  0  0  0  0  0  0  0  0
  -30.3265  -15.1121   19.8840 C   0  0  1  0  0  0  0  0  0  0  0  0
  -30.7451  -17.9101   17.3610 C   0  0  2  0  0  0  0  0  0  0  0  0
  -20.9224  -22.2386   16.6084 C   0  0  1  0  0  0  0  0  0  0  0  0
  -19.3976  -22.4607   16.7488 C   0  0  0  0  0  0  0  0  0  0  0  0
  -31.6545  -14.6801   20.5675 C   0  0  0  0  0  0  0  0  0  0  0  0
  -24.5121  -27.6427   18.4918 N   0  0  0  0  0  0  0  0  0  0  0  0
  -25.2483  -26.7473   17.8118 N   0  0  0  0  0  0  0  0  0  0  0  0
  -28.0934  -14.1296   19.4690 N   0  0  0  0  0  0  0  0  0  0  0  0
  -22.6175  -25.3348   15.4258 N   0  0  0  0  0  0  0  0  0  0  0  0
  -27.3439  -25.6432   17.8012 N   0  0  0  0  0  0  0  0  0  0  0  0
  -27.5718  -28.2761   21.4635 N   0  0  0  0  0  0  0  0  0  0  0  0
  -26.0391  -11.3495   20.6297 N   0  0  0  0  0  0  0  0  0  0  0  0
  -30.5078  -15.9235   18.6852 N   0  0  0  0  0  0  0  0  0  0  0  0
  -21.6550  -23.4833   16.5390 N   0  0  0  0  0  0  0  0  0  0  0  0
  -30.0207  -19.2084   17.2568 N   0  3  0  0  0  0  0  0  0  0  0  0
  -28.7174  -26.7470   20.1954 O   0  0  0  0  0  0  0  0  0  0  0  0
  -27.2040  -13.0986   21.6327 O   0  0  0  0  0  0  0  0  0  0  0  0
  -30.0328  -12.8742   19.1543 O   0  0  0  0  0  0  0  0  0  0  0  0
  -30.4267  -17.9793   19.7550 O   0  0  0  0  0  0  0  0  0  0  0  0
  -21.4726  -23.6873   14.2626 O   0  0  0  0  0  0  0  0  0  0  0  0
  -23.5969  -31.7254   23.2918 O   0  0  0  0  0  0  0  0  0  0  0  0
  -23.4244  -18.1536   19.7175 O   0  0  0  0  0  0  0  0  0  1  0  0
  -27.3991  -33.9369   26.6170 F   0  0  0  0  0  0  0  0  0  0  0  0
  -24.0387  -34.4543   23.3238 F   0  0  0  0  0  0  0  0  0  0  0  0
  1  2  1  0  0  0  0
  1  5  2  0  0  0  0
  2  6  2  0  0  0  0
  3  8  2  0  0  0  0
  3 15  1  0  0  0  0
  4  9  1  0  0  0  0
  4 15  2  0  0  0  0
  5 17  1  0  0  0  0
  6 19  1  0  0  0  0
  7 10  2  0  0  0  0
  7 18  1  0  0  0  0
  8 21  1  0  0  0  0
  9 21  2  0  0  0  0
 10 22  1  0  0  0  0
 11 12  2  0  0  0  0
 11 23  1  0  0  0  0
 12 24  1  0  0  0  0
 13 20  1  0  0  0  0
 13 22  2  0  0  0  0
 14 24  2  0  0  0  0
 14 25  1  0  0  0  0
 15 26  1  0  0  0  0
 16 26  1  0  0  0  0
 16 27  2  0  0  0  0
 16 28  1  0  0  0  0
 17 19  2  0  0  0  0
 17 33  1  0  0  0  0
 18 20  2  0  0  0  0
 18 34  1  0  0  0  0
 19 46  1  0  0  0  0
 20 35  1  0  0  0  0
 21 78  1  0  0  0  0
 22 79  1  0  0  0  0
 23 25  2  0  0  0  0
 23 78  1  0  0  0  0
 24 80  1  0  0  0  0
 25 81  1  0  0  0  0
 26 63  2  0  0  0  0
 27 64  1  0  0  0  0
 27 67  1  0  0  0  0
 28 68  1  0  0  0  0
 28 73  2  0  0  0  0
 29 47  1  0  0  0  0
 29 69  1  0  0  0  0
 29 74  2  0  0  0  0
 30 58  1  0  0  0  0
 30 65  1  0  0  0  0
 30 75  2  0  0  0  0
 31 59  1  0  0  0  0
 31 70  1  0  0  0  0
 31 76  2  0  0  0  0
 32 66  1  0  0  0  0
 32 71  1  0  0  0  0
 32 77  2  0  0  0  0
 33 36  1  0  0  0  0
 34 47  1  0  0  0  0
 35 65  1  0  0  0  0
 36 38  1  0  0  0  0
 37 41  1  0  0  0  0
 37 44  1  0  0  0  0
 38 46  1  0  0  0  0
 39 42  1  0  0  0  0
 39 48  1  0  0  0  0
 40 43  1  0  0  0  0
 40 48  1  0  0  0  0
 41 49  1  0  0  0  0
 42 50  1  0  0  0  0
 43 50  1  0  0  0  0
 44 66  1  0  0  0  0
 45 49  1  0  0  0  0
 45 66  1  0  0  0  0
 46 69  1  0  0  0  0
 47 65  1  0  0  0  0
 48 60  1  0  0  0  0
 49 64  1  0  0  0  0
 50 79  1  0  0  0  0
 51 59  1  0  0  0  0
 52 61  1  0  0  0  0
 53 61  1  0  0  0  0
 54 62  1  0  0  0  0
 55 62  1  0  0  0  0
 56 62  1  0  0  0  0
 57 72  1  0  0  0  0
 58 62  1  0  0  0  0
 58 70  1  0  0  0  0
 59 72  1  0  0  0  0
 60 61  1  0  0  0  0
 60 71  1  0  0  0  0
 63 64  1  0  0  0  0
M  CHG  1  72   1
M  ISO  4  32 100  50 101  71 100  79 101
M  END
> <Batch ID>
0106

> <Smiles>
CNC(C)C(=O)NC(C(=O)N1Cc2cc([101O:1][101CH:1]3CCC(C([100NH:0][100C:0](=O)N4CCCC(n5nc(-c6ccc(Oc7ccc(F)cc7F)cc6)c(C(N)=O)c5N)C4)C(C)C)CC3)ccc2CC1C(=O)NC1CCCc2ccccc21)C(C)(C)C

> <Shape>
0.241

> <Color>
0.081

> <Negative vol penalty>
0.000

$$$$

  -OEChem-04052319483D

 83 91  0     1  0  0  0  0  0999 V2000
  -31.0486  -22.8057   15.6824 C   0  0  0  0  0  0  0  0  0  0  0  0
  -30.3519  -22.5734   16.8639 C   0  0  0  0  0  0  0  0  0  0  0  0
  -23.9143   -9.3760   19.8149 C   0  0  0  0  0  0  0  0  0  0  0  0
  -24.6021   -9.5342   22.1255 C   0  0  0  0  0  0  0  0  0  0  0  0
  -31.5585  -24.0752   15.4132 C   0  0  0  0  0  0  0  0  0  0  0  0
  -30.1655  -23.6102   17.7775 C   0  0  0  0  0  0  0  0  0  0  0  0
  -25.4276  -23.8056   19.5547 C   0  0  0  0  0  0  0  0  0  0  0  0
  -23.5253   -8.0525   20.0213 C   0  0  0  0  0  0  0  0  0  0  0  0
  -24.2130   -8.2107   22.3320 C   0  0  0  0  0  0  0  0  0  0  0  0
  -25.0789  -22.8837   20.5407 C   0  0  0  0  0  0  0  0  0  0  0  0
  -23.0669   -4.9861   23.5595 C   0  0  0  0  0  0  0  0  0  0  0  0
  -22.3347   -4.6967   24.7109 C   0  0  0  0  0  0  0  0  0  0  0  0
  -25.3877  -24.5803   22.2276 C   0  0  0  0  0  0  0  0  0  0  0  0
  -20.6028   -6.2203   23.9925 C   0  0  0  0  0  0  0  0  0  0  0  0
  -24.4528  -10.1168   20.8670 C   0  0  0  0  0  0  0  0  0  0  0  0
  -24.0638  -12.6374   20.8111 C   0  0  0  0  0  0  0  0  0  0  0  0
  -31.3700  -25.1305   16.3195 C   0  0  0  0  0  0  0  0  0  0  0  0
  -25.7701  -25.1210   19.8992 C   0  0  0  0  0  0  0  0  0  0  0  0
  -30.6746  -24.8947   17.5208 C   0  0  0  0  0  0  0  0  0  0  0  0
  -25.7379  -25.5176   21.2438 C   0  0  0  0  0  0  0  0  0  0  0  0
  -23.6746   -7.4698   21.2798 C   0  0  0  0  0  0  0  0  0  0  0  0
  -25.0617  -23.2702   21.8777 C   0  0  0  0  0  0  0  0  0  0  0  0
  -22.5671   -5.8927   22.6246 C   0  0  0  0  0  0  0  0  0  0  0  0
  -21.1027   -5.3137   24.9274 C   0  0  0  0  0  0  0  0  0  0  0  0
  -21.3350   -6.5098   22.8412 C   0  0  0  0  0  0  0  0  0  0  0  0
  -24.8554  -11.4839   20.6543 C   0  0  0  0  0  0  0  0  0  0  0  0
  -24.9034  -13.6761   20.4909 C   0  0  0  0  0  0  0  0  0  0  0  0
  -22.6922  -12.7591   21.2106 C   0  0  0  0  0  0  0  0  0  0  0  0
  -28.3788  -26.9119   19.5976 C   0  0  0  0  0  0  0  0  0  0  0  0
  -26.4368  -29.2444   20.7426 C   0  0  0  0  0  0  0  0  0  0  0  0
  -23.6531  -30.0773   22.5325 C   0  0  0  0  0  0  0  0  0  0  0  0
  -29.7307  -16.2524   20.6687 C   0  0  0  0  0  0  0  0  0  0  0  0
  -31.9805  -26.4737   16.0069 C   0  0  0  0  0  0  0  0  0  0  0  0
  -26.1180  -26.1106   18.8213 C   0  0  0  0  0  0  0  0  0  0  0  0
  -26.0776  -26.9234   21.6642 C   0  0  0  0  0  0  0  0  0  0  0  0
  -31.4161  -27.6113   16.8540 C   0  0  0  0  0  0  0  0  0  0  0  0
  -29.4853  -13.6871   18.3637 C   0  0  0  0  0  0  0  0  0  0  0  0
  -31.3573  -27.2047   18.3230 C   0  0  0  0  0  0  0  0  0  0  0  0
  -28.1934  -12.9700   18.7551 C   0  0  0  0  0  0  0  0  0  0  0  0
  -27.2473  -18.7776   21.7562 C   0  0  0  0  0  0  0  0  0  0  0  0
  -27.2788  -16.8903   23.4253 C   0  0  0  0  0  0  0  0  0  0  0  0
  -30.2830  -14.0879   19.5994 C   0  0  0  0  0  0  0  0  0  0  0  0
  -28.6491  -18.3770   21.3048 C   0  0  0  0  0  0  0  0  0  0  0  0
  -28.6811  -16.5290   22.9467 C   0  0  0  0  0  0  0  0  0  0  0  0
  -28.2242  -14.2348   20.9614 C   0  0  0  0  0  0  0  0  0  0  0  0
  -30.4304  -25.9999   18.5253 C   0  0  1  0  0  0  0  0  0  0  0  0
  -26.9474  -27.2844   19.3328 C   0  0  1  0  0  0  0  0  0  0  0  0
  -26.9863  -18.3821   23.2154 C   0  0  0  0  0  0  0  0  0  0  0  0
  -27.3724  -13.8128   19.7473 C   0  0  2  0  0  0  0  0  0  0  0  0
  -27.8761  -21.2075   26.7069 C   0  0  0  0  0  0  0  0  0  0  0  0
  -22.3438  -32.0652   23.3270 C   0  0  0  0  0  0  0  0  0  0  0  0
  -28.5413  -29.7698   22.8885 C   0  0  0  0  0  0  0  0  0  0  0  0
  -26.8129  -31.0479   24.1719 C   0  0  0  0  0  0  0  0  0  0  0  0
  -27.5137  -31.8286   21.9088 C   0  0  0  0  0  0  0  0  0  0  0  0
  -23.9901  -20.2954   24.7648 C   0  0  0  0  0  0  0  0  0  0  0  0
  -21.2398  -29.2283   21.0446 C   0  0  0  0  0  0  0  0  0  0  0  0
  -25.5533  -18.7172   23.6220 C   0  0  0  0  0  0  0  0  0  0  0  0
  -26.7734  -20.3891   26.0494 C   0  0  0  0  0  0  0  0  0  0  0  0
  -26.4482  -20.9229   24.6498 C   0  0  0  0  0  0  0  0  0  0  0  0
  -25.0263  -21.0017   22.5908 C   0  0  0  0  0  0  0  0  0  1  0  0
  -26.0778  -29.7581   22.1159 C   0  0  1  0  0  0  0  0  0  0  0  0
  -22.5070  -31.0254   22.2294 C   0  0  2  0  0  0  0  0  0  0  0  0
  -27.2319  -30.5740   22.7639 C   0  0  0  0  0  0  0  0  0  0  0  0
  -25.2745  -20.2193   23.9073 C   0  0  2  0  0  0  0  0  0  0  0  0
  -26.1020  -11.7630   20.2646 N   0  0  0  0  0  0  0  0  0  0  0  0
  -26.1002  -13.1039   20.1738 N   0  0  0  0  0  0  0  0  0  0  0  0
  -26.4175  -27.8526   20.5740 N   0  0  0  0  0  0  0  0  0  0  0  0
  -29.4678  -14.8824   20.5180 N   0  0  0  0  0  0  0  0  0  0  0  0
  -28.9099  -16.9613   21.5615 N   0  0  0  0  0  0  0  0  0  0  0  0
  -24.7274  -15.0140   20.4525 N   0  0  0  0  0  0  0  0  0  0  0  0
  -21.9753  -11.5908   21.5032 N   0  0  0  0  0  0  0  0  0  0  0  0
  -29.0450  -26.4171   18.4927 N   0  0  0  0  0  0  0  0  0  0  0  0
  -24.8332  -30.5033   21.9605 N   0  0  0  0  0  0  0  0  0  0  0  0
  -21.2287  -30.2694   22.1043 N   0  3  0  0  0  0  0  0  0  0  0  0
  -22.1145  -13.8698   21.2894 O   0  0  0  0  0  0  0  0  0  0  0  0
  -28.8447  -27.0637   20.7208 O   0  0  0  0  0  0  0  0  0  0  0  0
  -26.7170  -30.0487   19.8502 O   0  0  0  0  0  0  0  0  0  0  0  0
  -23.5162  -29.0625   23.2122 O   0  0  0  0  0  0  0  0  0  0  0  0
  -30.6393  -16.8115   20.0420 O   0  0  0  0  0  0  0  0  0  0  0  0
  -23.2949   -6.1785   21.4817 O   0  0  0  0  0  0  0  0  0  0  0  0
  -24.7200  -22.3659   22.8490 O   0  0  0  0  0  0  0  0  0  1  0  0
  -20.3989   -5.0345   26.0324 F   0  0  0  0  0  0  0  0  0  0  0  0
  -20.8491   -7.3807   21.9461 F   0  0  0  0  0  0  0  0  0  0  0  0
  1  2  1  0  0  0  0
  1  5  2  0  0  0  0
  2  6  2  0  0  0  0
  3  8  2  0  0  0  0
  3 15  1  0  0  0  0
  4  9  1  0  0  0  0
  4 15  2  0  0  0  0
  5 17  1  0  0  0  0
  6 19  1  0  0  0  0
  7 10  2  0  0  0  0
  7 18  1  0  0  0  0
  8 21  1  0  0  0  0
  9 21  2  0  0  0  0
 10 22  1  0  0  0  0
 11 12  2  0  0  0  0
 11 23  1  0  0  0  0
 12 24  1  0  0  0  0
 13 20  1  0  0  0  0
 13 22  2  0  0  0  0
 14 24  2  0  0  0  0
 14 25  1  0  0  0  0
 15 26  1  0  0  0  0
 16 26  1  0  0  0  0
 16 27  2  0  0  0  0
 16 28  1  0  0  0  0
 17 19  2  0  0  0  0
 17 33  1  0  0  0  0
 18 20  2  0  0  0  0
 18 34  1  0  0  0  0
 19 46  1  0  0  0  0
 20 35  1  0  0  0  0
 21 80  1  0  0  0  0
 22 81  1  0  0  0  0
 23 25  2  0  0  0  0
 23 80  1  0  0  0  0
 24 82  1  0  0  0  0
 25 83  1  0  0  0  0
 26 65  2  0  0  0  0
 27 66  1  0  0  0  0
 27 70  1  0  0  0  0
 28 71  1  0  0  0  0
 28 75  2  0  0  0  0
 29 47  1  0  0  0  0
 29 72  1  0  0  0  0
 29 76  2  0  0  0  0
 30 61  1  0  0  0  0
 30 67  1  0  0  0  0
 30 77  2  0  0  0  0
 31 62  1  0  0  0  0
 31 73  1  0  0  0  0
 31 78  2  0  0  0  0
 32 68  1  0  0  0  0
 32 69  1  0  0  0  0
 32 79  2  0  0  0  0
 33 36  1  0  0  0  0
 34 47  1  0  0  0  0
 35 67  1  0  0  0  0
 36 38  1  0  0  0  0
 37 39  1  0  0  0  0
 37 42  1  0  0  0  0
 38 46  1  0  0  0  0
 39 49  1  0  0  0  0
 40 43  1  0  0  0  0
 40 48  1  0  0  0  0
 41 44  1  0  0  0  0
 41 48  1  0  0  0  0
 42 68  1  0  0  0  0
 43 69  1  0  0  0  0
 44 69  1  0  0  0  0
 45 49  1  0  0  0  0
 45 68  1  0  0  0  0
 46 72  1  0  0  0  0
 47 67  1  0  0  0  0
 48 57  1  0  0  0  0
 49 66  1  0  0  0  0
 50 58  1  0  0  0  0
 51 62  1  0  0  0  0
 52 63  1  0  0  0  0
 53 63  1  0  0  0  0
 54 63  1  0  0  0  0
 55 64  1  0  0  0  0
 56 74  1  0  0  0  0
 57 64  1  0  0  0  0
 58 59  1  0  0  0  0
 59 64  1  0  0  0  0
 60 64  1  0  0  0  0
 60 81  1  0  0  0  0
 61 63  1  0  0  0  0
 61 73  1  0  0  0  0
 62 74  1  0  0  0  0
 65 66  1  0  0  0  0
M  CHG  1  74   1
M  ISO  4  32 100  60 101  69 100  81 101
M  END
> <Batch ID>
0106

> <Smiles>
CCCC(C)(CC1CC[100N:0]([100C:0](=O)N2CCCC(n3nc(-c4ccc(Oc5ccc(F)cc5F)cc4)c(C(N)=O)c3N)C2)CC1)[101CH2:1][101O:1]c1ccc2c(c1)CN(C(=O)C(NC(=O)C(C)NC)C(C)(C)C)C(C(=O)NC1CCCc3ccccc31)C2

> <Shape>
0.302

> <Color>
0.149

> <Negative vol penalty>
0.000

$$$$

  -OEChem-04052319483D

 82 90  0     1  0  0  0  0  0999 V2000
  -25.1420  -34.8545   24.2236 C   0  0  0  0  0  0  0  0  0  0  0  0
  -25.8375  -33.7116   23.8424 C   0  0  0  0  0  0  0  0  0  0  0  0
  -24.0011  -14.0753   19.9265 C   0  0  0  0  0  0  0  0  0  0  0  0
  -25.8655  -14.4585   21.4145 C   0  0  0  0  0  0  0  0  0  0  0  0
  -23.8231  -34.7521   24.6640 C   0  0  0  0  0  0  0  0  0  0  0  0
  -25.2148  -32.4653   23.9024 C   0  0  0  0  0  0  0  0  0  0  0  0
  -26.0557  -29.6721   19.7628 C   0  0  0  0  0  0  0  0  0  0  0  0
  -24.2324  -12.7012   19.9904 C   0  0  0  0  0  0  0  0  0  0  0  0
  -26.0968  -13.0844   21.4785 C   0  0  0  0  0  0  0  0  0  0  0  0
  -27.2944  -29.0403   19.6619 C   0  0  0  0  0  0  0  0  0  0  0  0
  -24.1081   -9.0686   20.0486 C   0  0  0  0  0  0  0  0  0  0  0  0
  -23.0055   -8.2329   20.2257 C   0  0  0  0  0  0  0  0  0  0  0  0
  -26.2939  -26.9739   20.4023 C   0  0  0  0  0  0  0  0  0  0  0  0
  -29.6856  -24.2738   19.8129 C   0  0  0  0  0  0  0  0  0  0  0  0
  -22.5094   -9.3313   22.3197 C   0  0  0  0  0  0  0  0  0  0  0  0
  -29.4507  -22.8632   21.5521 C   0  0  0  0  0  0  0  0  0  0  0  0
  -24.8177  -14.9539   20.6384 C   0  0  0  0  0  0  0  0  0  0  0  0
  -23.7499  -17.1365   21.4157 C   0  0  0  0  0  0  0  0  0  0  0  0
  -23.1807  -33.5052   24.7203 C   0  0  0  0  0  0  0  0  0  0  0  0
  -24.9272  -28.9611   20.1954 C   0  0  0  0  0  0  0  0  0  0  0  0
  -23.8865  -32.3460   24.3452 C   0  0  0  0  0  0  0  0  0  0  0  0
  -25.0415  -27.5984   20.5054 C   0  0  0  0  0  0  0  0  0  0  0  0
  -29.7461  -22.9146   20.2077 C   0  0  0  0  0  0  0  0  0  0  0  0
  -25.2802  -12.2058   20.7664 C   0  0  0  0  0  0  0  0  0  0  0  0
  -27.4143  -27.6917   19.9844 C   0  0  0  0  0  0  0  0  0  0  0  0
  -24.4115  -10.0356   21.0070 C   0  0  0  0  0  0  0  0  0  0  0  0
  -22.2061   -8.3642   21.3612 C   0  0  0  0  0  0  0  0  0  0  0  0
  -23.6121  -10.1670   22.1425 C   0  0  0  0  0  0  0  0  0  0  0  0
  -24.5796  -16.3734   20.5723 C   0  0  0  0  0  0  0  0  0  0  0  0
  -29.3553  -25.0117   20.9281 C   0  0  0  0  0  0  0  0  0  0  0  0
  -23.8658  -18.4202   20.9413 C   0  0  0  0  0  0  0  0  0  0  0  0
  -22.9464  -16.7219   22.5284 C   0  0  0  0  0  0  0  0  0  0  0  0
  -22.9399  -29.1941   22.6653 C   0  0  0  0  0  0  0  0  0  0  0  0
  -21.3381  -26.8488   21.0981 C   0  0  0  0  0  0  0  0  0  0  0  0
  -21.1712  -23.8124   19.1565 C   0  0  0  0  0  0  0  0  0  0  0  0
  -28.1423  -21.2568   17.8565 C   0  0  0  0  0  0  0  0  0  0  0  0
  -21.7694  -33.4387   25.2480 C   0  0  0  0  0  0  0  0  0  0  0  0
  -23.5927  -29.6506   20.2733 C   0  0  0  0  0  0  0  0  0  0  0  0
  -23.8563  -26.7852   20.9553 C   0  0  0  0  0  0  0  0  0  0  0  0
  -21.0601  -32.1259   24.9264 C   0  0  0  0  0  0  0  0  0  0  0  0
  -24.7304  -20.8619   16.9187 C   0  0  0  0  0  0  0  0  0  0  0  0
  -21.9684  -30.9393   25.2328 C   0  0  0  0  0  0  0  0  0  0  0  0
  -24.2300  -19.7357   17.8248 C   0  0  0  0  0  0  0  0  0  0  0  0
  -26.1764  -20.6356   16.4832 C   0  0  0  0  0  0  0  0  0  0  0  0
  -26.6272  -19.2833   18.4936 C   0  0  0  0  0  0  0  0  0  0  0  0
  -23.2373  -30.9793   24.3727 C   0  0  1  0  0  0  0  0  0  0  0  0
  -22.6158  -28.9566   21.2175 C   0  0  1  0  0  0  0  0  0  0  0  0
  -25.1917  -19.4955   19.0041 C   0  0  2  0  0  0  0  0  0  0  0  0
  -30.4564  -27.2226   21.4210 C   0  0  0  0  0  0  0  0  0  0  0  0
  -19.1976  -22.5984   18.1929 C   0  0  0  0  0  0  0  0  0  0  0  0
  -29.9927  -24.1656   24.3212 C   0  0  0  0  0  0  0  0  0  0  0  0
  -27.5367  -23.8975   23.7713 C   0  0  0  0  0  0  0  0  0  0  0  0
  -21.4445  -25.2241   23.6786 C   0  0  0  0  0  0  0  0  0  0  0  0
  -20.8557  -23.1913   22.3410 C   0  0  0  0  0  0  0  0  0  0  0  0
  -19.2629  -25.1073   22.4615 C   0  0  0  0  0  0  0  0  0  0  0  0
  -22.3149  -23.8803   16.4277 C   0  0  0  0  0  0  0  0  0  0  0  0
  -30.0659  -21.7651   19.3399 C   0  0  0  0  0  0  0  0  0  0  0  0
  -29.1576  -26.5025   21.0810 C   0  0  1  0  0  0  0  0  0  1  0  0
  -21.3806  -25.3397   21.1001 C   0  0  1  0  0  0  0  0  0  0  0  0
  -20.3317  -23.5728   17.9147 C   0  0  2  0  0  0  0  0  0  0  0  0
  -28.8716  -24.5057   23.3372 C   0  0  0  0  0  0  0  0  0  0  0  0
  -20.7588  -24.7311   22.3887 C   0  0  0  0  0  0  0  0  0  0  0  0
  -25.1782  -17.1109   19.6332 N   0  0  0  0  0  0  0  0  0  0  0  0
  -29.2152  -24.1438   21.9794 N   0  0  0  0  0  0  0  0  0  0  0  0
  -24.7241  -18.3507   19.8836 N   0  0  0  0  0  0  0  0  0  0  0  0
  -22.5742  -27.5060   21.0216 N   0  0  0  0  0  0  0  0  0  0  0  0
  -27.0366  -20.4159   17.6484 N   0  0  0  0  0  0  0  0  0  0  0  0
  -23.3161  -19.5904   21.3298 N   0  0  0  0  0  0  0  0  0  0  0  0
  -22.9427  -15.3655   22.8812 N   0  0  0  0  0  0  0  0  0  0  0  0
  -22.9508  -30.5274   23.0281 N   0  0  0  0  0  0  0  0  0  0  0  0
  -20.7335  -24.9115   19.8647 N   0  0  0  0  0  0  0  0  0  0  0  0
  -28.9014  -20.9837   18.9878 N   0  0  0  0  0  0  0  0  0  0  0  0
  -21.1740  -23.0133   16.8199 N   0  3  0  0  0  0  0  0  0  0  0  0
  -22.2396  -17.5277   23.1800 O   0  0  0  0  0  0  0  0  0  0  0  0
  -23.1622  -28.2383   23.3993 O   0  0  0  0  0  0  0  0  0  0  0  0
  -20.2480  -27.4232   21.1548 O   0  0  0  0  0  0  0  0  0  0  0  0
  -22.1182  -23.0940   19.4692 O   0  0  0  0  0  0  0  0  0  0  0  0
  -28.4285  -22.1859   17.0936 O   0  0  0  0  0  0  0  0  0  0  0  0
  -25.5061  -10.8650   20.8293 O   0  0  0  0  0  0  0  0  0  0  0  0
  -28.6223  -27.0727   19.8874 O   0  0  0  0  0  0  0  0  0  1  0  0
  -21.1464   -7.5627   21.5305 F   0  0  0  0  0  0  0  0  0  0  0  0
  -23.8979  -11.0949   23.0661 F   0  0  0  0  0  0  0  0  0  0  0  0
  1  2  1  0  0  0  0
  1  5  2  0  0  0  0
  2  6  2  0  0  0  0
  3  8  2  0  0  0  0
  3 17  1  0  0  0  0
  4  9  1  0  0  0  0
  4 17  2  0  0  0  0
  5 19  1  0  0  0  0
  6 21  1  0  0  0  0
  7 10  2  0  0  0  0
  7 20  1  0  0  0  0
  8 24  1  0  0  0  0
  9 24  2  0  0  0  0
 10 25  1  0  0  0  0
 11 12  2  0  0  0  0
 11 26  1  0  0  0  0
 12 27  1  0  0  0  0
 13 22  1  0  0  0  0
 13 25  2  0  0  0  0
 14 23  1  0  0  0  0
 14 30  2  0  0  0  0
 15 27  2  0  0  0  0
 15 28  1  0  0  0  0
 16 23  2  0  0  0  0
 16 64  1  0  0  0  0
 17 29  1  0  0  0  0
 18 29  1  0  0  0  0
 18 31  2  0  0  0  0
 18 32  1  0  0  0  0
 19 21  2  0  0  0  0
 19 37  1  0  0  0  0
 20 22  2  0  0  0  0
 20 38  1  0  0  0  0
 21 46  1  0  0  0  0
 22 39  1  0  0  0  0
 23 57  1  0  0  0  0
 24 79  1  0  0  0  0
 25 80  1  0  0  0  0
 26 28  2  0  0  0  0
 26 79  1  0  0  0  0
 27 81  1  0  0  0  0
 28 82  1  0  0  0  0
 29 63  2  0  0  0  0
 30 58  1  0  0  0  0
 30 64  1  0  0  0  0
 31 65  1  0  0  0  0
 31 68  1  0  0  0  0
 32 69  1  0  0  0  0
 32 74  2  0  0  0  0
 33 47  1  0  0  0  0
 33 70  1  0  0  0  0
 33 75  2  0  0  0  0
 34 59  1  0  0  0  0
 34 66  1  0  0  0  0
 34 76  2  0  0  0  0
 35 60  1  0  0  0  0
 35 71  1  0  0  0  0
 35 77  2  0  0  0  0
 36 67  1  0  0  0  0
 36 72  1  0  0  0  0
 36 78  2  0  0  0  0
 37 40  1  0  0  0  0
 38 47  1  0  0  0  0
 39 66  1  0  0  0  0
 40 42  1  0  0  0  0
 41 43  1  0  0  0  0
 41 44  1  0  0  0  0
 42 46  1  0  0  0  0
 43 48  1  0  0  0  0
 44 67  1  0  0  0  0
 45 48  1  0  0  0  0
 45 67  1  0  0  0  0
 46 70  1  0  0  0  0
 47 66  1  0  0  0  0
 48 65  1  0  0  0  0
 49 58  1  0  0  0  0
 50 60  1  0  0  0  0
 51 61  1  0  0  0  0
 52 61  1  0  0  0  0
 53 62  1  0  0  0  0
 54 62  1  0  0  0  0
 55 62  1  0  0  0  0
 56 73  1  0  0  0  0
 57 72  1  0  0  0  0
 58 80  1  0  0  0  0
 59 62  1  0  0  0  0
 59 71  1  0  0  0  0
 60 73  1  0  0  0  0
 61 64  1  0  0  0  0
 63 65  1  0  0  0  0
M  CHG  1  73   1
M  ISO  4  36 100  58 101  72 100  80 101
M  END
> <Batch ID>
0106

> <Smiles>
CNC(C)C(=O)NC(C(=O)N1Cc2cc([101O:1][101CH:1](C)c3cc(C[100NH:0][100C:0](=O)N4CCCC(n5nc(-c6ccc(Oc7ccc(F)cc7F)cc6)c(C(N)=O)c5N)C4)cn3C(C)C)ccc2CC1C(=O)NC1CCCc2ccccc21)C(C)(C)C

> <Shape>
0.224

> <Color>
0.085

> <Negative vol penalty>
0.000

$$$$

  -OEChem-04052319483D

 86 94  0     1  0  0  0  0  0999 V2000
  -28.3576  -25.8383   23.9326 C   0  0  0  0  0  0  0  0  0  0  0  0
  -27.4156  -25.1836   23.1456 C   0  0  0  0  0  0  0  0  0  0  0  0
  -25.2434  -31.0857   21.3711 C   0  0  0  0  0  0  0  0  0  0  0  0
  -24.4477  -29.2605   22.7395 C   0  0  0  0  0  0  0  0  0  0  0  0
  -29.7148  -25.5667   23.7644 C   0  0  0  0  0  0  0  0  0  0  0  0
  -27.8303  -24.2576   22.1891 C   0  0  0  0  0  0  0  0  0  0  0  0
  -25.0407  -20.0315   22.2389 C   0  0  0  0  0  0  0  0  0  0  0  0
  -24.5450  -31.9900   22.1711 C   0  0  0  0  0  0  0  0  0  0  0  0
  -23.7493  -30.1648   23.5396 C   0  0  0  0  0  0  0  0  0  0  0  0
  -23.7877  -20.0884   21.6301 C   0  0  0  0  0  0  0  0  0  0  0  0
  -23.2636  -34.8135   24.0687 C   0  0  0  0  0  0  0  0  0  0  0  0
  -23.9250  -35.9770   24.4615 C   0  0  0  0  0  0  0  0  0  0  0  0
  -24.6994  -19.0220   19.6678 C   0  0  0  0  0  0  0  0  0  0  0  0
  -25.6073  -34.6456   25.5725 C   0  0  0  0  0  0  0  0  0  0  0  0
  -19.3939  -22.4516   14.4386 C   0  0  0  0  0  0  0  0  0  0  0  0
  -19.4134  -21.7682   16.6320 C   0  0  0  0  0  0  0  0  0  0  0  0
  -25.1947  -29.7209   21.6552 C   0  0  0  0  0  0  0  0  0  0  0  0
  -27.2392  -28.3409   21.0048 C   0  0  0  0  0  0  0  0  0  0  0  0
  -30.1457  -24.6298   22.8119 C   0  0  0  0  0  0  0  0  0  0  0  0
  -26.1368  -19.4783   21.5613 C   0  0  0  0  0  0  0  0  0  0  0  0
  -29.1945  -23.9742   22.0070 C   0  0  0  0  0  0  0  0  0  0  0  0
  -25.9647  -18.9569   20.2711 C   0  0  0  0  0  0  0  0  0  0  0  0
  -20.7778  -22.4873   14.3811 C   0  0  0  0  0  0  0  0  0  0  0  0
  -21.4859  -22.1394   15.5260 C   0  0  0  0  0  0  0  0  0  0  0  0
  -23.7980  -31.5296   23.2554 C   0  0  0  0  0  0  0  0  0  0  0  0
  -23.6176  -19.5862   20.3432 C   0  0  0  0  0  0  0  0  0  0  0  0
  -23.7740  -33.5660   24.4279 C   0  0  0  0  0  0  0  0  0  0  0  0
  -20.7982  -21.7717   16.6772 C   0  0  0  0  0  0  0  0  0  0  0  0
  -25.0968  -35.8931   25.2134 C   0  0  0  0  0  0  0  0  0  0  0  0
  -24.9458  -33.4821   25.1797 C   0  0  0  0  0  0  0  0  0  0  0  0
  -25.9154  -28.7862   20.8288 C   0  0  0  0  0  0  0  0  0  0  0  0
  -27.4492  -27.4686   19.9649 C   0  0  0  0  0  0  0  0  0  0  0  0
  -28.1937  -28.6849   22.0179 C   0  0  0  0  0  0  0  0  0  0  0  0
  -28.9493  -20.5788   20.5703 C   0  0  0  0  0  0  0  0  0  0  0  0
  -29.4564  -17.4686   19.8010 C   0  0  0  0  0  0  0  0  0  0  0  0
  -28.1282  -14.4241   19.0177 C   0  0  0  0  0  0  0  0  0  0  0  0
  -23.7287  -24.1510   16.8016 C   0  0  0  0  0  0  0  0  0  0  0  0
  -31.6262  -24.4042   22.6338 C   0  0  0  0  0  0  0  0  0  0  0  0
  -27.4757  -19.4001   22.2422 C   0  0  0  0  0  0  0  0  0  0  0  0
  -27.1048  -18.3344   19.5088 C   0  0  0  0  0  0  0  0  0  0  0  0
  -31.9596  -23.1335   21.8563 C   0  0  0  0  0  0  0  0  0  0  0  0
  -26.0491  -26.5900   15.4732 C   0  0  0  0  0  0  0  0  0  0  0  0
  -31.0899  -23.0281   20.6076 C   0  0  0  0  0  0  0  0  0  0  0  0
  -26.4019  -27.3895   16.7288 C   0  0  0  0  0  0  0  0  0  0  0  0
  -24.5800  -26.1778   15.4750 C   0  0  0  0  0  0  0  0  0  0  0  0
  -24.5074  -26.2111   17.9382 C   0  0  0  0  0  0  0  0  0  0  0  0
  -29.6036  -22.9449   20.9758 C   0  0  1  0  0  0  0  0  0  0  0  0
  -28.6385  -19.2815   21.2618 C   0  0  1  0  0  0  0  0  0  0  0  0
  -25.9849  -26.6382   18.0071 C   0  0  2  0  0  0  0  0  0  0  0  0
  -28.7935  -12.0838   18.4031 C   0  0  0  0  0  0  0  0  0  0  0  0
  -22.0450  -26.4080   11.5049 C   0  0  0  0  0  0  0  0  0  0  0  0
  -23.6152  -24.4624   11.5998 C   0  0  0  0  0  0  0  0  0  0  0  0
  -30.1519  -18.4090   16.9829 C   0  0  0  0  0  0  0  0  0  0  0  0
  -29.8736  -16.0469   16.2011 C   0  0  0  0  0  0  0  0  0  0  0  0
  -31.6356  -16.6050   17.8765 C   0  0  0  0  0  0  0  0  0  0  0  0
  -26.7919  -13.2935   21.4042 C   0  0  0  0  0  0  0  0  0  0  0  0
  -21.4625  -22.8898   13.1214 C   0  0  0  0  0  0  0  0  0  0  0  0
  -22.9804  -22.1586   15.5258 C   0  0  0  0  0  0  0  0  0  0  0  0
  -21.4215  -24.4145   12.9014 C   0  0  0  0  0  0  0  0  0  0  0  0
  -21.5402  -20.7215   20.1165 C   0  0  0  0  0  0  0  0  0  1  0  0
  -20.6436  -21.0673   18.9434 C   0  0  0  0  0  0  0  0  0  0  0  0
  -29.2075  -16.6147   18.5812 C   0  0  1  0  0  0  0  0  0  0  0  0
  -28.4297  -13.0298   19.5369 C   0  0  2  0  0  0  0  0  0  0  0  0
  -22.1458  -24.8854   11.6265 C   0  0  0  0  0  0  0  0  0  0  0  0
  -30.1959  -16.9323   17.4238 C   0  0  0  0  0  0  0  0  0  0  0  0
  -18.6909  -22.0997   15.5384 N   0  0  0  0  0  0  0  0  0  0  0  0
  -25.3260  -28.2419   19.7609 N   0  0  0  0  0  0  0  0  0  0  0  0
  -26.2839  -27.4456   19.2566 N   0  0  0  0  0  0  0  0  0  0  0  0
  -28.3958  -18.2870   20.2147 N   0  0  0  0  0  0  0  0  0  0  0  0
  -24.2528  -25.4511   16.7099 N   0  0  0  0  0  0  0  0  0  0  0  0
  -28.5151  -26.7267   19.5964 N   0  0  0  0  0  0  0  0  0  0  0  0
  -27.8136  -29.5969   23.0119 N   0  0  0  0  0  0  0  0  0  0  0  0
  -29.2693  -21.6121   21.4302 N   0  0  0  0  0  0  0  0  0  0  0  0
  -29.2471  -15.2296   19.0376 N   0  0  0  0  0  0  0  0  0  0  0  0
  -23.5102  -23.5025   15.5923 N   0  0  0  0  0  0  0  0  0  0  0  0
  -27.2446  -12.4750   20.2500 N   0  3  0  0  0  0  0  0  0  0  0  0
  -29.3549  -28.2106   22.0315 O   0  0  0  0  0  0  0  0  0  0  0  0
  -28.9037  -20.6375   19.3471 O   0  0  0  0  0  0  0  0  0  0  0  0
  -30.5491  -17.4063   20.3701 O   0  0  0  0  0  0  0  0  0  0  0  0
  -27.0125  -14.7635   18.6297 O   0  0  0  0  0  0  0  0  0  0  0  0
  -23.4788  -23.6058   17.8821 O   0  0  0  0  0  0  0  0  0  0  0  0
  -23.1166  -32.4117   24.0364 O   0  0  0  0  0  0  0  0  0  0  0  0
  -22.3958  -19.6411   19.7465 O   0  0  0  0  0  0  0  0  0  1  0  0
  -21.4530  -21.4229   17.8291 O   0  0  0  0  0  0  0  0  0  0  0  0
  -25.7327  -37.0105   25.5893 F   0  0  0  0  0  0  0  0  0  0  0  0
  -25.4417  -32.2864   25.5268 F   0  0  0  0  0  0  0  0  0  0  0  0
  1  2  1  0  0  0  0
  1  5  2  0  0  0  0
  2  6  2  0  0  0  0
  3  8  2  0  0  0  0
  3 17  1  0  0  0  0
  4  9  1  0  0  0  0
  4 17  2  0  0  0  0
  5 19  1  0  0  0  0
  6 21  1  0  0  0  0
  7 10  2  0  0  0  0
  7 20  1  0  0  0  0
  8 25  1  0  0  0  0
  9 25  2  0  0  0  0
 10 26  1  0  0  0  0
 11 12  2  0  0  0  0
 11 27  1  0  0  0  0
 12 29  1  0  0  0  0
 13 22  1  0  0  0  0
 13 26  2  0  0  0  0
 14 29  2  0  0  0  0
 14 30  1  0  0  0  0
 15 23  2  0  0  0  0
 15 66  1  0  0  0  0
 16 28  1  0  0  0  0
 16 66  2  0  0  0  0
 17 31  1  0  0  0  0
 18 31  1  0  0  0  0
 18 32  2  0  0  0  0
 18 33  1  0  0  0  0
 19 21  2  0  0  0  0
 19 38  1  0  0  0  0
 20 22  2  0  0  0  0
 20 39  1  0  0  0  0
 21 47  1  0  0  0  0
 22 40  1  0  0  0  0
 23 24  1  0  0  0  0
 23 57  1  0  0  0  0
 24 28  2  0  0  0  0
 24 58  1  0  0  0  0
 25 82  1  0  0  0  0
 26 83  1  0  0  0  0
 27 30  2  0  0  0  0
 27 82  1  0  0  0  0
 28 84  1  0  0  0  0
 29 85  1  0  0  0  0
 30 86  1  0  0  0  0
 31 67  2  0  0  0  0
 32 68  1  0  0  0  0
 32 71  1  0  0  0  0
 33 72  1  0  0  0  0
 33 77  2  0  0  0  0
 34 48  1  0  0  0  0
 34 73  1  0  0  0  0
 34 78  2  0  0  0  0
 35 62  1  0  0  0  0
 35 69  1  0  0  0  0
 35 79  2  0  0  0  0
 36 63  1  0  0  0  0
 36 74  1  0  0  0  0
 36 80  2  0  0  0  0
 37 70  1  0  0  0  0
 37 75  1  0  0  0  0
 37 81  2  0  0  0  0
 38 41  1  0  0  0  0
 39 48  1  0  0  0  0
 40 69  1  0  0  0  0
 41 43  1  0  0  0  0
 42 44  1  0  0  0  0
 42 45  1  0  0  0  0
 43 47  1  0  0  0  0
 44 49  1  0  0  0  0
 45 70  1  0  0  0  0
 46 49  1  0  0  0  0
 46 70  1  0  0  0  0
 47 73  1  0  0  0  0
 48 69  1  0  0  0  0
 49 68  1  0  0  0  0
 50 63  1  0  0  0  0
 51 64  1  0  0  0  0
 52 64  1  0  0  0  0
 53 65  1  0  0  0  0
 54 65  1  0  0  0  0
 55 65  1  0  0  0  0
 56 76  1  0  0  0  0
 57 59  1  0  0  0  0
 58 75  1  0  0  0  0
 59 64  1  0  0  0  0
 60 61  1  0  0  0  0
 60 83  1  0  0  0  0
 61 84  1  0  0  0  0
 62 65  1  0  0  0  0
 62 74  1  0  0  0  0
 63 76  1  0  0  0  0
 67 68  1  0  0  0  0
M  CHG  1  76   1
M  ISO  4  37 100  60 101  75 100  83 101
M  END
> <Batch ID>
0106

> <Smiles>
CNC(C)C(=O)NC(C(=O)N1Cc2cc([101O:1][101CH2:1]COc3cncc(CCC(C)C)c3C[100NH:0][100C:0](=O)N3CCCC(n4nc(-c5ccc(Oc6ccc(F)cc6F)cc5)c(C(N)=O)c4N)C3)ccc2CC1C(=O)NC1CCCc2ccccc21)C(C)(C)C

> <Shape>
0.198

> <Color>
0.071

> <Negative vol penalty>
0.000

$$$$

  -OEChem-04052319483D

 85 92  0     1  0  0  0  0  0999 V2000
  -22.2687   -9.3861   18.6128 C   0  0  0  0  0  0  0  0  0  0  0  0
  -22.1932  -10.6660   18.0727 C   0  0  0  0  0  0  0  0  0  0  0  0
  -22.3946  -28.9517   20.7723 C   0  0  0  0  0  0  0  0  0  0  0  0
  -23.1231  -26.7111   21.3072 C   0  0  0  0  0  0  0  0  0  0  0  0
  -22.9033   -9.1839   19.8376 C   0  0  0  0  0  0  0  0  0  0  0  0
  -22.7514  -11.7446   18.7578 C   0  0  0  0  0  0  0  0  0  0  0  0
  -26.0030  -18.0201   17.5910 C   0  0  0  0  0  0  0  0  0  0  0  0
  -21.0773  -28.5909   21.0551 C   0  0  0  0  0  0  0  0  0  0  0  0
  -21.8057  -26.3503   21.5901 C   0  0  0  0  0  0  0  0  0  0  0  0
  -25.9107  -19.3642   17.9498 C   0  0  0  0  0  0  0  0  0  0  0  0
  -17.5704  -28.3585   21.9840 C   0  0  0  0  0  0  0  0  0  0  0  0
  -16.8084  -29.2373   22.7538 C   0  0  0  0  0  0  0  0  0  0  0  0
  -27.0520  -18.8835   20.0200 C   0  0  0  0  0  0  0  0  0  0  0  0
  -18.3888  -29.0186   24.5680 C   0  0  0  0  0  0  0  0  0  0  0  0
  -23.4176  -28.0117   20.8983 C   0  0  0  0  0  0  0  0  0  0  0  0
  -25.7286  -28.9066   21.5033 C   0  0  0  0  0  0  0  0  0  0  0  0
  -23.4781  -10.2592   20.5334 C   0  0  0  0  0  0  0  0  0  0  0  0
  -26.6118  -17.0942   18.4502 C   0  0  0  0  0  0  0  0  0  0  0  0
  -23.3932  -11.5568   19.9938 C   0  0  0  0  0  0  0  0  0  0  0  0
  -27.1530  -17.5288   19.6686 C   0  0  0  0  0  0  0  0  0  0  0  0
  -20.7828  -27.2903   21.4641 C   0  0  0  0  0  0  0  0  0  0  0  0
  -26.4326  -19.7956   19.1658 C   0  0  0  0  0  0  0  0  0  0  0  0
  -18.7416  -27.8097   22.5062 C   0  0  0  0  0  0  0  0  0  0  0  0
  -17.2176  -29.5674   24.0457 C   0  0  0  0  0  0  0  0  0  0  0  0
  -19.1508  -28.1398   23.7982 C   0  0  0  0  0  0  0  0  0  0  0  0
  -24.7785  -28.3836   20.6057 C   0  0  0  0  0  0  0  0  0  0  0  0
  -26.8563  -29.0903   20.7411 C   0  0  0  0  0  0  0  0  0  0  0  0
  -25.6030  -29.1999   22.9011 C   0  0  0  0  0  0  0  0  0  0  0  0
  -25.6410  -14.4894   19.9918 C   0  0  0  0  0  0  0  0  0  0  0  0
  -28.7838  -14.2449   20.7572 C   0  0  0  0  0  0  0  0  0  0  0  0
  -31.7906  -15.8009   21.1866 C   0  0  0  0  0  0  0  0  0  0  0  0
  -30.9574  -24.3734   18.3828 C   0  0  0  0  0  0  0  0  0  0  0  0
  -28.8315  -26.5340   15.6998 C   0  0  0  0  0  0  0  0  0  0  0  0
  -24.1122   -9.9986   21.8768 C   0  0  0  0  0  0  0  0  0  0  0  0
  -26.7272  -15.6527   18.0365 C   0  0  0  0  0  0  0  0  0  0  0  0
  -27.8345  -16.5783   20.6176 C   0  0  0  0  0  0  0  0  0  0  0  0
  -25.0065  -11.1378   22.3594 C   0  0  0  0  0  0  0  0  0  0  0  0
  -28.2332  -30.0003   16.2503 C   0  0  0  0  0  0  0  0  0  0  0  0
  -24.3067  -12.4806   22.1750 C   0  0  0  0  0  0  0  0  0  0  0  0
  -27.3657  -30.0263   17.5100 C   0  0  0  0  0  0  0  0  0  0  0  0
  -27.9008  -28.8045   15.3607 C   0  0  0  0  0  0  0  0  0  0  0  0
  -27.0809  -27.5217   17.2987 C   0  0  0  0  0  0  0  0  0  0  0  0
  -24.0083  -12.7485   20.6949 C   0  0  1  0  0  0  0  0  0  0  0  0
  -26.9107  -14.7049   19.2178 C   0  0  1  0  0  0  0  0  0  0  0  0
  -27.4180  -28.6787   18.2547 C   0  0  2  0  0  0  0  0  0  0  0  0
  -34.1670  -15.3455   21.8520 C   0  0  0  0  0  0  0  0  0  0  0  0
  -26.2517  -23.8758   20.4594 C   0  0  0  0  0  0  0  0  0  0  0  0
  -31.8925  -23.0866   16.4350 C   0  0  0  0  0  0  0  0  0  0  0  0
  -31.8243  -25.5760   16.3455 C   0  0  0  0  0  0  0  0  0  0  0  0
  -27.9296  -14.0734   23.6814 C   0  0  0  0  0  0  0  0  0  0  0  0
  -30.2951  -14.5763   24.3294 C   0  0  0  0  0  0  0  0  0  0  0  0
  -29.7703  -12.5071   23.0387 C   0  0  0  0  0  0  0  0  0  0  0  0
  -28.7367  -23.5651   22.3846 C   0  0  0  0  0  0  0  0  0  0  0  0
  -32.8192  -16.6902   18.5579 C   0  0  0  0  0  0  0  0  0  0  0  0
  -29.6799  -24.2516   16.1795 C   0  0  0  0  0  0  0  0  0  0  0  0
  -30.1427  -23.1380   20.3682 C   0  0  0  0  0  0  0  0  0  0  0  0
  -27.3780  -21.6268   20.3527 C   0  0  0  0  0  0  0  0  0  1  0  0
  -29.6527  -14.7524   21.8825 C   0  0  1  0  0  0  0  0  0  0  0  0
  -33.1844  -15.4522   20.6963 C   0  0  2  0  0  0  0  0  0  0  0  0
  -27.5605  -23.1374   20.1216 C   0  0  2  0  0  0  0  0  0  0  0  0
  -31.0725  -24.3247   16.8424 C   0  0  0  0  0  0  0  0  0  0  0  0
  -29.3974  -13.9951   23.2162 C   0  0  0  0  0  0  0  0  0  0  0  0
  -28.8047  -23.7306   20.8582 C   0  0  1  0  0  0  0  0  0  0  0  0
  -25.2606  -28.2443   19.3679 N   0  0  0  0  0  0  0  0  0  0  0  0
  -26.5259  -28.6825   19.4822 N   0  0  0  0  0  0  0  0  0  0  0  0
  -27.9168  -15.1779   20.1709 N   0  0  0  0  0  0  0  0  0  0  0  0
  -27.9700  -27.5579   16.1269 N   0  0  0  0  0  0  0  0  0  0  0  0
  -28.0884  -29.5595   21.0315 N   0  0  0  0  0  0  0  0  0  0  0  0
  -24.3746  -28.9511   23.5283 N   0  0  0  0  0  0  0  0  0  0  0  0
  -25.2073  -13.1775   20.0072 N   0  0  0  0  0  0  0  0  0  0  0  0
  -30.3363  -23.2665   18.9475 N   0  0  0  0  0  0  0  0  0  0  0  0
  -31.0285  -14.6725   21.4039 N   0  0  0  0  0  0  0  0  0  0  0  0
  -28.8409  -25.3886   16.4864 N   0  0  0  0  0  0  0  0  0  0  0  0
  -33.6783  -16.4960   19.7542 N   0  3  0  0  0  0  0  0  0  0  0  0
  -26.5470  -29.6842   23.5703 O   0  0  0  0  0  0  0  0  0  0  0  0
  -25.0961  -15.4426   20.5361 O   0  0  0  0  0  0  0  0  0  0  0  0
  -28.8762  -13.0659   20.4064 O   0  0  0  0  0  0  0  0  0  0  0  0
  -31.4168  -16.9583   21.3631 O   0  0  0  0  0  0  0  0  0  0  0  0
  -31.3860  -25.3201   19.0436 O   0  0  0  0  0  0  0  0  0  0  0  0
  -29.5439  -26.6353   14.6952 O   0  0  0  0  0  0  0  0  0  0  0  0
  -28.8755  -25.1389   20.5832 O   0  0  0  0  0  0  0  0  0  0  0  0
  -19.4975  -26.9380   21.7404 O   0  0  0  0  0  0  0  0  0  0  0  0
  -26.3433  -21.1068   19.5189 O   0  0  0  0  0  0  0  0  0  1  0  0
  -16.4865  -30.4126   24.7843 F   0  0  0  0  0  0  0  0  0  0  0  0
  -20.2757  -27.6166   24.3049 F   0  0  0  0  0  0  0  0  0  0  0  0
  1  2  1  0  0  0  0
  1  5  2  0  0  0  0
  2  6  2  0  0  0  0
  3  8  2  0  0  0  0
  3 15  1  0  0  0  0
  4  9  1  0  0  0  0
  4 15  2  0  0  0  0
  5 17  1  0  0  0  0
  6 19  1  0  0  0  0
  7 10  2  0  0  0  0
  7 18  1  0  0  0  0
  8 21  1  0  0  0  0
  9 21  2  0  0  0  0
 10 22  1  0  0  0  0
 11 12  2  0  0  0  0
 11 23  1  0  0  0  0
 12 24  1  0  0  0  0
 13 20  1  0  0  0  0
 13 22  2  0  0  0  0
 14 24  2  0  0  0  0
 14 25  1  0  0  0  0
 15 26  1  0  0  0  0
 16 26  1  0  0  0  0
 16 27  2  0  0  0  0
 16 28  1  0  0  0  0
 17 19  2  0  0  0  0
 17 34  1  0  0  0  0
 18 20  2  0  0  0  0
 18 35  1  0  0  0  0
 19 43  1  0  0  0  0
 20 36  1  0  0  0  0
 21 82  1  0  0  0  0
 22 83  1  0  0  0  0
 23 25  2  0  0  0  0
 23 82  1  0  0  0  0
 24 84  1  0  0  0  0
 25 85  1  0  0  0  0
 26 64  2  0  0  0  0
 27 65  1  0  0  0  0
 27 68  1  0  0  0  0
 28 69  1  0  0  0  0
 28 75  2  0  0  0  0
 29 44  1  0  0  0  0
 29 70  1  0  0  0  0
 29 76  2  0  0  0  0
 30 58  1  0  0  0  0
 30 66  1  0  0  0  0
 30 77  2  0  0  0  0
 31 59  1  0  0  0  0
 31 72  1  0  0  0  0
 31 78  2  0  0  0  0
 32 61  1  0  0  0  0
 32 71  1  0  0  0  0
 32 79  2  0  0  0  0
 33 67  1  0  0  0  0
 33 73  1  0  0  0  0
 33 80  2  0  0  0  0
 34 37  1  0  0  0  0
 35 44  1  0  0  0  0
 36 66  1  0  0  0  0
 37 39  1  0  0  0  0
 38 40  1  0  0  0  0
 38 41  1  0  0  0  0
 39 43  1  0  0  0  0
 40 45  1  0  0  0  0
 41 67  1  0  0  0  0
 42 45  1  0  0  0  0
 42 67  1  0  0  0  0
 43 70  1  0  0  0  0
 44 66  1  0  0  0  0
 45 65  1  0  0  0  0
 46 59  1  0  0  0  0
 47 60  1  0  0  0  0
 48 61  1  0  0  0  0
 49 61  1  0  0  0  0
 50 62  1  0  0  0  0
 51 62  1  0  0  0  0
 52 62  1  0  0  0  0
 53 63  1  0  0  0  0
 54 74  1  0  0  0  0
 55 61  1  0  0  0  0
 55 73  1  0  0  0  0
 56 63  1  0  0  0  0
 56 71  1  0  0  0  0
 57 60  1  0  0  0  0
 57 83  1  0  0  0  0
 58 62  1  0  0  0  0
 58 72  1  0  0  0  0
 59 74  1  0  0  0  0
 60 63  1  0  0  0  0
 63 81  1  0  0  0  0
 64 65  1  0  0  0  0
M  CHG  1  74   1
M  ISO  4  33 100  57 101  73 100  83 101
M  END
> <Batch ID>
0106

> <Smiles>
CNC(C)C(=O)NC(C(=O)N1Cc2cc([101O:1][101CH2:1]C(C)C(C)(O)CNC(=O)C(C)(C)C[100NH:0][100C:0](=O)N3CCCC(n4nc(-c5ccc(Oc6ccc(F)cc6F)cc5)c(C(N)=O)c4N)C3)ccc2CC1C(=O)NC1CCCc2ccccc21)C(C)(C)C

> <Shape>
0.266

> <Color>
0.053

> <Negative vol penalty>
0.000

$$$$

  -OEChem-04052319483D

 81 89  0     1  0  0  0  0  0999 V2000
  -28.4246  -25.2253   16.6115 C   0  0  0  0  0  0  0  0  0  0  0  0
  -27.4019  -25.2348   17.5546 C   0  0  0  0  0  0  0  0  0  0  0  0
  -26.4080  -12.6319   22.7985 C   0  0  0  0  0  0  0  0  0  0  0  0
  -26.5867  -11.9903   20.4762 C   0  0  0  0  0  0  0  0  0  0  0  0
  -29.5418  -26.0405   16.7882 C   0  0  0  0  0  0  0  0  0  0  0  0
  -27.4964  -26.0587   18.6756 C   0  0  0  0  0  0  0  0  0  0  0  0
  -23.1785  -28.5197   19.6473 C   0  0  0  0  0  0  0  0  0  0  0  0
  -27.3600  -11.6704   23.1374 C   0  0  0  0  0  0  0  0  0  0  0  0
  -27.5388  -11.0288   20.8150 C   0  0  0  0  0  0  0  0  0  0  0  0
  -22.1615  -27.7989   20.2718 C   0  0  0  0  0  0  0  0  0  0  0  0
  -30.8348  -10.9425   21.5561 C   0  0  0  0  0  0  0  0  0  0  0  0
  -31.9766  -10.8544   20.7599 C   0  0  0  0  0  0  0  0  0  0  0  0
  -22.7685  -28.7867   22.3872 C   0  0  0  0  0  0  0  0  0  0  0  0
  -31.4252   -8.5644   20.2225 C   0  0  0  0  0  0  0  0  0  0  0  0
  -26.0213  -12.7918   21.4679 C   0  0  0  0  0  0  0  0  0  0  0  0
  -23.7091  -13.8639   21.5762 C   0  0  0  0  0  0  0  0  0  0  0  0
  -29.6456  -26.8820   17.9070 C   0  0  0  0  0  0  0  0  0  0  0  0
  -24.0066  -29.3725   20.3913 C   0  0  0  0  0  0  0  0  0  0  0  0
  -28.6167  -26.8849   18.8681 C   0  0  0  0  0  0  0  0  0  0  0  0
  -23.7936  -29.5192   21.7694 C   0  0  0  0  0  0  0  0  0  0  0  0
  -27.9254  -10.8689   22.1457 C   0  0  0  0  0  0  0  0  0  0  0  0
  -21.9582  -27.9302   21.6424 C   0  0  0  0  0  0  0  0  0  0  0  0
  -29.9882   -9.8415   21.6857 C   0  0  0  0  0  0  0  0  0  0  0  0
  -32.2718   -9.6654   20.0930 C   0  0  0  0  0  0  0  0  0  0  0  0
  -30.2834   -8.6524   21.0188 C   0  0  0  0  0  0  0  0  0  0  0  0
  -25.0375  -13.7844   21.1173 C   0  0  0  0  0  0  0  0  0  0  0  0
  -23.1967  -14.9759   20.9538 C   0  0  0  0  0  0  0  0  0  0  0  0
  -23.0015  -13.0089   22.4840 C   0  0  0  0  0  0  0  0  0  0  0  0
  -27.1202  -29.4892   21.0201 C   0  0  0  0  0  0  0  0  0  0  0  0
  -26.3331  -32.3011   22.4330 C   0  0  0  0  0  0  0  0  0  0  0  0
  -25.9461  -35.1580   24.2592 C   0  0  0  0  0  0  0  0  0  0  0  0
  -23.6708  -20.2912   19.3204 C   0  0  0  0  0  0  0  0  0  0  0  0
  -30.8942  -27.7103   18.0790 C   0  0  0  0  0  0  0  0  0  0  0  0
  -25.0820  -30.1634   19.6983 C   0  0  0  0  0  0  0  0  0  0  0  0
  -24.6421  -30.4371   22.6097 C   0  0  0  0  0  0  0  0  0  0  0  0
  -30.7447  -28.8320   19.1036 C   0  0  0  0  0  0  0  0  0  0  0  0
  -19.4358  -22.0014   20.4579 C   0  0  0  0  0  0  0  0  0  0  0  0
  -25.0637  -17.7982   17.1941 C   0  0  0  0  0  0  0  0  0  0  0  0
  -30.0822  -28.3094   20.3744 C   0  0  0  0  0  0  0  0  0  0  0  0
  -19.7369  -23.4396   20.8687 C   0  0  0  0  0  0  0  0  0  0  0  0
  -21.5505  -23.0229   22.6548 C   0  0  0  0  0  0  0  0  0  0  0  0
  -25.0772  -16.5406   18.0649 C   0  0  0  0  0  0  0  0  0  0  0  0
  -20.6379  -21.1874   19.9867 C   0  0  0  0  0  0  0  0  0  0  0  0
  -21.8104  -21.5709   22.2462 C   0  0  0  0  0  0  0  0  0  0  0  0
  -25.3691  -19.0526   18.0096 C   0  0  0  0  0  0  0  0  0  0  0  0
  -24.5260  -17.9869   20.0656 C   0  0  0  0  0  0  0  0  0  0  0  0
  -28.6712  -27.7833   20.0847 C   0  0  1  0  0  0  0  0  0  0  0  0
  -26.1955  -30.6110   20.6402 C   0  0  1  0  0  0  0  0  0  0  0  0
  -20.1492  -23.5657   22.3441 C   0  0  1  0  0  0  0  0  0  0  0  0
  -24.1682  -16.7027   19.2981 C   0  0  2  0  0  0  0  0  0  0  0  0
  -21.9577  -21.4017   20.7315 C   0  0  1  0  0  0  0  0  0  0  0  0
  -27.0503  -36.5066   26.0646 C   0  0  0  0  0  0  0  0  0  0  0  0
  -18.6370  -25.4138   23.1269 C   0  0  0  0  0  0  0  0  0  0  0  0
  -25.3802  -30.2867   24.5173 C   0  0  0  0  0  0  0  0  0  0  0  0
  -25.6331  -32.0708   26.2555 C   0  0  0  0  0  0  0  0  0  0  0  0
  -27.6269  -31.2829   24.9801 C   0  0  0  0  0  0  0  0  0  0  0  0
  -26.2456  -37.5060   22.4827 C   0  0  0  0  0  0  0  0  0  0  0  0
  -20.6197  -25.9648   21.6868 C   0  0  0  0  0  0  0  0  0  1  0  0
  -25.8995  -32.7172   23.8178 C   0  0  1  0  0  0  0  0  0  0  0  0
  -26.9040  -36.2951   24.5657 C   0  0  2  0  0  0  0  0  0  0  0  0
  -20.0744  -25.0362   22.7751 C   0  0  2  0  0  0  0  0  0  0  0  0
  -26.1183  -31.5935   24.8700 C   0  0  0  0  0  0  0  0  0  0  0  0
  -25.3496  -14.7676   20.2687 N   0  0  0  0  0  0  0  0  0  0  0  0
  -24.2099  -15.4753   20.1894 N   0  0  0  0  0  0  0  0  0  0  0  0
  -25.6848  -31.1842   21.8871 N   0  0  0  0  0  0  0  0  0  0  0  0
  -24.4715  -19.1478   19.1633 N   0  0  0  0  0  0  0  0  0  0  0  0
  -21.9828  -15.5654   20.9912 N   0  0  0  0  0  0  0  0  0  0  0  0
  -22.3034  -11.9116   21.9617 N   0  0  0  0  0  0  0  0  0  0  0  0
  -27.7407  -28.8828   19.9446 N   0  0  0  0  0  0  0  0  0  0  0  0
  -26.6087  -33.9577   24.1121 N   0  0  0  0  0  0  0  0  0  0  0  0
  -22.8442  -20.2979   20.4373 N   0  0  0  0  0  0  0  0  0  0  0  0
  -26.4130  -37.5640   23.9577 N   0  3  0  0  0  0  0  0  0  0  0  0
  -22.9751  -13.2215   23.7200 O   0  0  0  0  0  0  0  0  0  0  0  0
  -27.2614  -29.1965   22.2017 O   0  0  0  0  0  0  0  0  0  0  0  0
  -27.2097  -32.9477   21.8539 O   0  0  0  0  0  0  0  0  0  0  0  0
  -24.7313  -35.3178   24.1638 O   0  0  0  0  0  0  0  0  0  0  0  0
  -23.6873  -21.2337   18.5215 O   0  0  0  0  0  0  0  0  0  0  0  0
  -28.8546   -9.9307   22.4760 O   0  0  0  0  0  0  0  0  0  0  0  0
  -20.9666  -27.2273   22.2544 O   0  0  0  0  0  0  0  0  0  1  0  0
  -33.3675   -9.5815   19.3271 F   0  0  0  0  0  0  0  0  0  0  0  0
  -29.4732   -7.5917   21.1385 F   0  0  0  0  0  0  0  0  0  0  0  0
  1  2  1  0  0  0  0
  1  5  2  0  0  0  0
  2  6  2  0  0  0  0
  3  8  2  0  0  0  0
  3 15  1  0  0  0  0
  4  9  1  0  0  0  0
  4 15  2  0  0  0  0
  5 17  1  0  0  0  0
  6 19  1  0  0  0  0
  7 10  2  0  0  0  0
  7 18  1  0  0  0  0
  8 21  1  0  0  0  0
  9 21  2  0  0  0  0
 10 22  1  0  0  0  0
 11 12  2  0  0  0  0
 11 23  1  0  0  0  0
 12 24  1  0  0  0  0
 13 20  1  0  0  0  0
 13 22  2  0  0  0  0
 14 24  2  0  0  0  0
 14 25  1  0  0  0  0
 15 26  1  0  0  0  0
 16 26  1  0  0  0  0
 16 27  2  0  0  0  0
 16 28  1  0  0  0  0
 17 19  2  0  0  0  0
 17 33  1  0  0  0  0
 18 20  2  0  0  0  0
 18 34  1  0  0  0  0
 19 47  1  0  0  0  0
 20 35  1  0  0  0  0
 21 78  1  0  0  0  0
 22 79  1  0  0  0  0
 23 25  2  0  0  0  0
 23 78  1  0  0  0  0
 24 80  1  0  0  0  0
 25 81  1  0  0  0  0
 26 63  2  0  0  0  0
 27 64  1  0  0  0  0
 27 67  1  0  0  0  0
 28 68  1  0  0  0  0
 28 73  2  0  0  0  0
 29 48  1  0  0  0  0
 29 69  1  0  0  0  0
 29 74  2  0  0  0  0
 30 59  1  0  0  0  0
 30 65  1  0  0  0  0
 30 75  2  0  0  0  0
 31 60  1  0  0  0  0
 31 70  1  0  0  0  0
 31 76  2  0  0  0  0
 32 66  1  0  0  0  0
 32 71  1  0  0  0  0
 32 77  2  0  0  0  0
 33 36  1  0  0  0  0
 34 48  1  0  0  0  0
 35 65  1  0  0  0  0
 36 39  1  0  0  0  0
 37 40  1  0  0  0  0
 37 43  1  0  0  0  0
 38 42  1  0  0  0  0
 38 45  1  0  0  0  0
 39 47  1  0  0  0  0
 40 49  1  0  0  0  0
 41 44  1  0  0  0  0
 41 49  1  0  0  0  0
 42 50  1  0  0  0  0
 43 51  1  0  0  0  0
 44 51  1  0  0  0  0
 45 66  1  0  0  0  0
 46 50  1  0  0  0  0
 46 66  1  0  0  0  0
 47 69  1  0  0  0  0
 48 65  1  0  0  0  0
 49 61  1  0  0  0  0
 50 64  1  0  0  0  0
 51 71  1  0  0  0  0
 52 60  1  0  0  0  0
 53 61  1  0  0  0  0
 54 62  1  0  0  0  0
 55 62  1  0  0  0  0
 56 62  1  0  0  0  0
 57 72  1  0  0  0  0
 58 61  1  0  0  0  0
 58 79  1  0  0  0  0
 59 62  1  0  0  0  0
 59 70  1  0  0  0  0
 60 72  1  0  0  0  0
 63 64  1  0  0  0  0
M  CHG  1  72   1
M  ISO  4  32 100  58 101  71 100  79 101
M  END
> <Batch ID>
0106

> <Smiles>
CNC(C)C(=O)NC(C(=O)N1Cc2cc([101O:1][101CH2:1]C(C)C3CCCC([100NH:0][100C:0](=O)N4CCCC(n5nc(-c6ccc(Oc7ccc(F)cc7F)cc6)c(C(N)=O)c5N)C4)CC3)ccc2CC1C(=O)NC1CCCc2ccccc21)C(C)(C)C

> <Shape>
0.244

> <Color>
0.111

> <Negative vol penalty>
0.000

$$$$

  -OEChem-04052319483D

 86 94  0     1  0  0  0  0  0999 V2000
  -29.6543  -25.0366   17.2958 C   0  0  0  0  0  0  0  0  0  0  0  0
  -28.2743  -25.1285   17.4455 C   0  0  0  0  0  0  0  0  0  0  0  0
  -26.9035  -13.4985   21.4069 C   0  0  0  0  0  0  0  0  0  0  0  0
  -24.7445  -13.8991   20.3991 C   0  0  0  0  0  0  0  0  0  0  0  0
  -30.4961  -25.4836   18.3134 C   0  0  0  0  0  0  0  0  0  0  0  0
  -27.7351  -25.6665   18.6135 C   0  0  0  0  0  0  0  0  0  0  0  0
  -22.6370  -29.0234   19.1091 C   0  0  0  0  0  0  0  0  0  0  0  0
  -26.4014  -12.3548   22.0278 C   0  0  0  0  0  0  0  0  0  0  0  0
  -24.2425  -12.7554   21.0200 C   0  0  0  0  0  0  0  0  0  0  0  0
  -21.3319  -28.6984   19.4766 C   0  0  0  0  0  0  0  0  0  0  0  0
  -22.4896   -9.7417   22.0510 C   0  0  0  0  0  0  0  0  0  0  0  0
  -21.7089   -8.8764   21.2845 C   0  0  0  0  0  0  0  0  0  0  0  0
  -21.7987  -29.4042   21.7356 C   0  0  0  0  0  0  0  0  0  0  0  0
  -19.8060  -25.3008   19.5282 C   0  0  0  0  0  0  0  0  0  0  0  0
  -20.4853  -25.9519   21.7534 C   0  0  0  0  0  0  0  0  0  0  0  0
  -23.5627   -8.5446   19.7711 C   0  0  0  0  0  0  0  0  0  0  0  0
  -26.0750  -14.2707   20.5925 C   0  0  0  0  0  0  0  0  0  0  0  0
  -27.1997  -15.5353   18.6838 C   0  0  0  0  0  0  0  0  0  0  0  0
  -29.9672  -26.0362   19.4905 C   0  0  0  0  0  0  0  0  0  0  0  0
  -23.5374  -29.5319   20.0563 C   0  0  0  0  0  0  0  0  0  0  0  0
  -28.5706  -26.1201   19.6484 C   0  0  0  0  0  0  0  0  0  0  0  0
  -23.1138  -29.7373   21.3770 C   0  0  0  0  0  0  0  0  0  0  0  0
  -19.7864  -26.2207   20.5766 C   0  0  0  0  0  0  0  0  0  0  0  0
  -20.5245  -24.1120   19.6568 C   0  0  0  0  0  0  0  0  0  0  0  0
  -21.2038  -24.7632   21.8820 C   0  0  0  0  0  0  0  0  0  0  0  0
  -21.2234  -23.8433   20.8336 C   0  0  0  0  0  0  0  0  0  0  0  0
  -25.0709  -11.9833   21.8344 C   0  0  0  0  0  0  0  0  0  0  0  0
  -20.9135  -28.8861   20.7907 C   0  0  0  0  0  0  0  0  0  0  0  0
  -23.8068  -10.0085   21.6775 C   0  0  0  0  0  0  0  0  0  0  0  0
  -22.2455   -8.2779   20.1446 C   0  0  0  0  0  0  0  0  0  0  0  0
  -24.3434   -9.4100   20.5375 C   0  0  0  0  0  0  0  0  0  0  0  0
  -26.5929  -15.4525   19.9513 C   0  0  0  0  0  0  0  0  0  0  0  0
  -27.5130  -16.8647   18.5392 C   0  0  0  0  0  0  0  0  0  0  0  0
  -27.4572  -14.5027   17.7229 C   0  0  0  0  0  0  0  0  0  0  0  0
  -26.3107  -28.5560   21.2646 C   0  0  0  0  0  0  0  0  0  0  0  0
  -26.2581  -31.4599   22.7093 C   0  0  0  0  0  0  0  0  0  0  0  0
  -24.4143  -34.0963   23.8481 C   0  0  0  0  0  0  0  0  0  0  0  0
  -25.2556  -21.8690   20.9292 C   0  0  0  0  0  0  0  0  0  0  0  0
  -30.9161  -26.4624   20.5825 C   0  0  0  0  0  0  0  0  0  0  0  0
  -24.9338  -29.9026   19.6378 C   0  0  0  0  0  0  0  0  0  0  0  0
  -24.0357  -30.2993   22.4272 C   0  0  0  0  0  0  0  0  0  0  0  0
  -30.2713  -27.3642   21.6320 C   0  0  0  0  0  0  0  0  0  0  0  0
  -28.6307  -20.7483   21.1003 C   0  0  0  0  0  0  0  0  0  0  0  0
  -28.9252  -26.7959   22.0699 C   0  0  0  0  0  0  0  0  0  0  0  0
  -28.5459  -19.2714   20.7109 C   0  0  0  0  0  0  0  0  0  0  0  0
  -27.4200  -21.1857   21.9217 C   0  0  0  0  0  0  0  0  0  0  0  0
  -26.0287  -19.4198   20.9119 C   0  0  0  0  0  0  0  0  0  0  0  0
  -27.9482  -26.7204   20.8903 C   0  0  1  0  0  0  0  0  0  0  0  0
  -25.9189  -29.9310   20.8023 C   0  0  1  0  0  0  0  0  0  0  0  0
  -27.2004  -18.9462   20.0349 C   0  0  2  0  0  0  0  0  0  0  0  0
  -20.5303  -23.1441   18.5189 C   0  0  0  0  0  0  0  0  0  0  0  0
  -21.0058  -24.4099   24.3698 C   0  0  0  0  0  0  0  0  0  0  0  0
  -23.0472  -25.5402   23.4157 C   0  0  0  0  0  0  0  0  0  0  0  0
  -17.5763  -27.3718   20.9419 C   0  0  0  0  0  0  0  0  0  0  0  0
  -24.6476  -36.3045   25.0171 C   0  0  0  0  0  0  0  0  0  0  0  0
  -26.6779  -30.0092   25.3606 C   0  0  0  0  0  0  0  0  0  0  0  0
  -25.9602  -32.0990   26.5379 C   0  0  0  0  0  0  0  0  0  0  0  0
  -28.0008  -32.1159   25.1032 C   0  0  0  0  0  0  0  0  0  0  0  0
  -23.2790  -35.5671   21.5445 C   0  0  0  0  0  0  0  0  0  0  0  0
  -23.0686  -22.3997   19.8830 C   0  0  0  0  0  0  0  0  0  0  0  0
  -21.9440  -24.4992   23.1525 C   0  0  0  0  0  0  0  0  0  0  0  0
  -21.9940  -22.5689   20.9709 C   0  0  2  0  0  0  0  0  0  0  0  0
  -19.0073  -27.5085   20.4376 C   0  0  1  0  0  0  0  0  0  1  0  0
  -25.7219  -31.9947   24.0153 C   0  0  1  0  0  0  0  0  0  0  0  0
  -24.5846  -35.5946   23.6737 C   0  0  2  0  0  0  0  0  0  0  0  0
  -26.5732  -31.5423   25.2351 C   0  0  0  0  0  0  0  0  0  0  0  0
  -26.5239  -16.6352   20.5681 N   0  0  0  0  0  0  0  0  0  0  0  0
  -27.0915  -17.4737   19.6845 N   0  0  0  0  0  0  0  0  0  0  0  0
  -25.3931  -30.6405   21.9703 N   0  0  0  0  0  0  0  0  0  0  0  0
  -26.1763  -20.8500   21.2244 N   0  0  0  0  0  0  0  0  0  0  0  0
  -28.1052  -17.5605   17.5454 N   0  0  0  0  0  0  0  0  0  0  0  0
  -27.0706  -13.1914   18.0315 N   0  0  0  0  0  0  0  0  0  0  0  0
  -27.4027  -28.0294   20.6015 N   0  0  0  0  0  0  0  0  0  0  0  0
  -25.6279  -33.4418   23.8560 N   0  0  0  0  0  0  0  0  0  0  0  0
  -24.1059  -21.4659   20.2610 N   0  0  0  0  0  0  0  0  0  0  0  0
  -21.1138  -21.3493   20.9477 N   0  3  0  0  0  0  0  0  0  0  0  0
  -23.4444  -36.1586   22.8972 N   0  3  0  0  0  0  0  0  0  0  0  0
  -28.0283  -14.7333   16.6301 O   0  0  0  0  0  0  0  0  0  0  0  0
  -25.6708  -28.0138   22.1580 O   0  0  0  0  0  0  0  0  0  0  0  0
  -27.3996  -31.7640   22.3545 O   0  0  0  0  0  0  0  0  0  0  0  0
  -23.3148  -33.5605   23.9693 O   0  0  0  0  0  0  0  0  0  0  0  0
  -25.4467  -23.0513   21.2336 O   0  0  0  0  0  0  0  0  0  0  0  0
  -24.5807  -10.8672   22.4399 O   0  0  0  0  0  0  0  0  0  0  0  0
  -19.6404  -28.5691   21.1522 O   0  0  0  0  0  0  0  0  0  1  0  0
  -21.4963   -7.4457   19.4095 F   0  0  0  0  0  0  0  0  0  0  0  0
  -25.6085   -9.6615   20.1744 F   0  0  0  0  0  0  0  0  0  0  0  0
  1  2  1  0  0  0  0
  1  5  2  0  0  0  0
  2  6  2  0  0  0  0
  3  8  2  0  0  0  0
  3 17  1  0  0  0  0
  4  9  1  0  0  0  0
  4 17  2  0  0  0  0
  5 19  1  0  0  0  0
  6 21  1  0  0  0  0
  7 10  2  0  0  0  0
  7 20  1  0  0  0  0
  8 27  1  0  0  0  0
  9 27  2  0  0  0  0
 10 28  1  0  0  0  0
 11 12  2  0  0  0  0
 11 29  1  0  0  0  0
 12 30  1  0  0  0  0
 13 22  1  0  0  0  0
 13 28  2  0  0  0  0
 14 23  1  0  0  0  0
 14 24  2  0  0  0  0
 15 23  2  0  0  0  0
 15 25  1  0  0  0  0
 16 30  2  0  0  0  0
 16 31  1  0  0  0  0
 17 32  1  0  0  0  0
 18 32  1  0  0  0  0
 18 33  2  0  0  0  0
 18 34  1  0  0  0  0
 19 21  2  0  0  0  0
 19 39  1  0  0  0  0
 20 22  2  0  0  0  0
 20 40  1  0  0  0  0
 21 48  1  0  0  0  0
 22 41  1  0  0  0  0
 23 63  1  0  0  0  0
 24 26  1  0  0  0  0
 24 51  1  0  0  0  0
 25 26  2  0  0  0  0
 25 61  1  0  0  0  0
 26 62  1  0  0  0  0
 27 83  1  0  0  0  0
 28 84  1  0  0  0  0
 29 31  2  0  0  0  0
 29 83  1  0  0  0  0
 30 85  1  0  0  0  0
 31 86  1  0  0  0  0
 32 67  2  0  0  0  0
 33 68  1  0  0  0  0
 33 71  1  0  0  0  0
 34 72  1  0  0  0  0
 34 78  2  0  0  0  0
 35 49  1  0  0  0  0
 35 73  1  0  0  0  0
 35 79  2  0  0  0  0
 36 64  1  0  0  0  0
 36 69  1  0  0  0  0
 36 80  2  0  0  0  0
 37 65  1  0  0  0  0
 37 74  1  0  0  0  0
 37 81  2  0  0  0  0
 38 70  1  0  0  0  0
 38 75  1  0  0  0  0
 38 82  2  0  0  0  0
 39 42  1  0  0  0  0
 40 49  1  0  0  0  0
 41 69  1  0  0  0  0
 42 44  1  0  0  0  0
 43 45  1  0  0  0  0
 43 46  1  0  0  0  0
 44 48  1  0  0  0  0
 45 50  1  0  0  0  0
 46 70  1  0  0  0  0
 47 50  1  0  0  0  0
 47 70  1  0  0  0  0
 48 73  1  0  0  0  0
 49 69  1  0  0  0  0
 50 68  1  0  0  0  0
 52 61  1  0  0  0  0
 53 61  1  0  0  0  0
 54 63  1  0  0  0  0
 55 65  1  0  0  0  0
 56 66  1  0  0  0  0
 57 66  1  0  0  0  0
 58 66  1  0  0  0  0
 59 77  1  0  0  0  0
 60 62  1  0  0  0  0
 60 75  1  0  0  0  0
 62 76  1  0  0  0  0
 63 84  1  0  0  0  0
 64 66  1  0  0  0  0
 64 74  1  0  0  0  0
 65 77  1  0  0  0  0
 67 68  1  0  0  0  0
M  CHG  2  76   1  77   1
M  ISO  4  38 100  63 101  75 100  84 101
M  END
> <Batch ID>
0106

> <Smiles>
CNC(C)C(=O)NC(C(=O)N1Cc2cc([101O:1][101CH:1](C)c3cc(C)c(C(N)C[100NH:0][100C:0](=O)N4CCCC(n5nc(-c6ccc(Oc7ccc(F)cc7F)cc6)c(C(N)=O)c5N)C4)c(C(C)C)c3)ccc2CC1C(=O)NC1CCCc2ccccc21)C(C)(C)C

> <Shape>
0.316

> <Color>
0.079

> <Negative vol penalty>
0.000

$$$$

  -OEChem-04052319483D

 84 92  0     1  0  0  0  0  0999 V2000
  -28.0555  -18.3097   18.8421 C   0  0  0  0  0  0  0  0  0  0  0  0
  -28.5171  -17.1947   19.5342 C   0  0  0  0  0  0  0  0  0  0  0  0
  -23.1468   -9.8478   19.9321 C   0  0  0  0  0  0  0  0  0  0  0  0
  -23.6428   -9.9839   22.2928 C   0  0  0  0  0  0  0  0  0  0  0  0
  -28.2979  -19.5886   19.3418 C   0  0  0  0  0  0  0  0  0  0  0  0
  -29.2223  -17.3580   20.7261 C   0  0  0  0  0  0  0  0  0  0  0  0
  -29.0752  -13.6841   25.6237 C   0  0  0  0  0  0  0  0  0  0  0  0
  -22.3883   -8.6992   20.1576 C   0  0  0  0  0  0  0  0  0  0  0  0
  -22.8843   -8.8352   22.5183 C   0  0  0  0  0  0  0  0  0  0  0  0
  -29.9268  -12.6711   26.0623 C   0  0  0  0  0  0  0  0  0  0  0  0
  -21.3753   -5.7345   23.6666 C   0  0  0  0  0  0  0  0  0  0  0  0
  -21.9118   -4.7576   24.5054 C   0  0  0  0  0  0  0  0  0  0  0  0
  -31.0482  -14.2466   27.5043 C   0  0  0  0  0  0  0  0  0  0  0  0
  -34.8860  -13.1918   22.7431 C   0  0  0  0  0  0  0  0  0  0  0  0
  -23.7986   -4.5150   23.0159 C   0  0  0  0  0  0  0  0  0  0  0  0
  -33.5745  -14.0332   24.3685 C   0  0  0  0  0  0  0  0  0  0  0  0
  -23.7741  -10.4902   20.9997 C   0  0  0  0  0  0  0  0  0  0  0  0
  -24.1078  -13.0102   20.7853 C   0  0  0  0  0  0  0  0  0  0  0  0
  -28.9980  -19.7672   20.5453 C   0  0  0  0  0  0  0  0  0  0  0  0
  -29.2109  -14.9905   26.1148 C   0  0  0  0  0  0  0  0  0  0  0  0
  -29.4754  -18.6405   21.2416 C   0  0  0  0  0  0  0  0  0  0  0  0
  -30.1954  -15.2738   27.0722 C   0  0  0  0  0  0  0  0  0  0  0  0
  -33.7939  -14.0543   23.0088 C   0  0  0  0  0  0  0  0  0  0  0  0
  -22.2570   -8.1928   21.4507 C   0  0  0  0  0  0  0  0  0  0  0  0
  -30.9154  -12.9529   27.0006 C   0  0  0  0  0  0  0  0  0  0  0  0
  -22.0504   -6.1016   22.5025 C   0  0  0  0  0  0  0  0  0  0  0  0
  -23.1235   -4.1479   24.1800 C   0  0  0  0  0  0  0  0  0  0  0  0
  -23.2620   -5.4919   22.1771 C   0  0  0  0  0  0  0  0  0  0  0  0
  -24.5581  -11.6765   20.7673 C   0  0  0  0  0  0  0  0  0  0  0  0
  -35.3006  -12.6698   23.9485 C   0  0  0  0  0  0  0  0  0  0  0  0
  -25.2282  -13.7546   20.5078 C   0  0  0  0  0  0  0  0  0  0  0  0
  -22.7942  -13.5296   21.0309 C   0  0  0  0  0  0  0  0  0  0  0  0
  -29.8814  -17.8151   24.8203 C   0  0  0  0  0  0  0  0  0  0  0  0
  -29.2311  -18.9013   27.8069 C   0  0  0  0  0  0  0  0  0  0  0  0
  -29.0393  -18.2451   31.1505 C   0  0  0  0  0  0  0  0  0  0  0  0
  -30.8058  -13.7985   21.6483 C   0  0  0  0  0  0  0  0  0  0  0  0
  -29.2768  -21.1709   21.0215 C   0  0  0  0  0  0  0  0  0  0  0  0
  -28.2671  -16.0661   25.6515 C   0  0  0  0  0  0  0  0  0  0  0  0
  -30.3695  -16.6555   27.6458 C   0  0  0  0  0  0  0  0  0  0  0  0
  -29.7066  -21.2437   22.4844 C   0  0  0  0  0  0  0  0  0  0  0  0
  -29.5940  -12.8221   18.3810 C   0  0  0  0  0  0  0  0  0  0  0  0
  -30.7687  -20.1899   22.7819 C   0  0  0  0  0  0  0  0  0  0  0  0
  -28.1159  -12.5563   18.6717 C   0  0  0  0  0  0  0  0  0  0  0  0
  -30.4757  -12.3692   19.5410 C   0  0  0  0  0  0  0  0  0  0  0  0
  -28.6394  -12.7024   21.1505 C   0  0  0  0  0  0  0  0  0  0  0  0
  -30.2227  -18.7757   22.5506 C   0  0  1  0  0  0  0  0  0  0  0  0
  -28.8278  -17.4729   25.8355 C   0  0  1  0  0  0  0  0  0  0  0  0
  -27.6937  -13.1590   20.0248 C   0  0  2  0  0  0  0  0  0  0  0  0
  -28.5168  -19.3418   33.3464 C   0  0  0  0  0  0  0  0  0  0  0  0
  -32.1861   -9.8417   26.4029 C   0  0  0  0  0  0  0  0  0  0  0  0
  -31.9514  -20.2824   27.7616 C   0  0  0  0  0  0  0  0  0  0  0  0
  -31.7854  -20.5376   30.2467 C   0  0  0  0  0  0  0  0  0  0  0  0
  -30.1081  -21.6414   28.7665 C   0  0  0  0  0  0  0  0  0  0  0  0
  -37.1620   -9.3453   24.2201 C   0  0  0  0  0  0  0  0  0  0  0  0
  -26.7757  -16.4083   31.6614 C   0  0  0  0  0  0  0  0  0  0  0  0
  -33.0317  -14.8324   22.0138 C   0  0  0  0  0  0  0  0  0  0  0  0
  -36.3948  -11.7221   24.2451 C   0  0  0  0  0  0  0  0  0  0  0  0
  -34.0330  -11.5122   26.7938 C   0  0  0  0  0  0  0  0  0  0  0  0
  -34.5946  -12.8870   26.4037 C   0  0  0  0  0  0  0  0  0  0  0  0
  -30.0400  -19.1313   29.0606 C   0  0  1  0  0  0  0  0  0  0  0  0
  -27.9609  -18.5459   32.1758 C   0  0  2  0  0  0  0  0  0  0  0  0
  -32.5522  -11.3199   26.4437 C   0  0  2  0  0  0  0  0  0  1  0  0
  -30.9695  -20.3725   28.9468 C   0  0  0  0  0  0  0  0  0  0  0  0
  -25.8628  -11.5763   20.4994 N   0  0  0  0  0  0  0  0  0  0  0  0
  -34.4960  -13.1880   24.9294 N   0  0  0  0  0  0  0  0  0  0  0  0
  -26.2419  -12.8566   20.3465 N   0  0  0  0  0  0  0  0  0  0  0  0
  -29.4262  -17.6746   27.1566 N   0  0  0  0  0  0  0  0  0  0  0  0
  -30.0326  -12.9931   20.7958 N   0  0  0  0  0  0  0  0  0  0  0  0
  -25.4353  -15.0833   20.3885 N   0  0  0  0  0  0  0  0  0  0  0  0
  -21.7577  -12.6254   21.3000 N   0  0  0  0  0  0  0  0  0  0  0  0
  -29.3829  -18.3709   23.6575 N   0  0  0  0  0  0  0  0  0  0  0  0
  -29.0812  -19.2014   30.1580 N   0  0  0  0  0  0  0  0  0  0  0  0
  -32.1166  -14.0197   21.2437 N   0  0  0  0  0  0  0  0  0  0  0  0
  -36.0880  -10.3079   23.8713 N   0  3  0  0  0  0  0  0  0  0  0  0
  -27.3794  -17.2790   32.7028 N   0  3  0  0  0  0  0  0  0  0  0  0
  -22.5435  -14.7582   20.9960 O   0  0  0  0  0  0  0  0  0  0  0  0
  -31.0595  -17.5929   25.0739 O   0  0  0  0  0  0  0  0  0  0  0  0
  -28.4493  -19.7748   27.4229 O   0  0  0  0  0  0  0  0  0  0  0  0
  -29.7736  -17.2624   31.2248 O   0  0  0  0  0  0  0  0  0  0  0  0
  -30.3593  -14.2891   22.6910 O   0  0  0  0  0  0  0  0  0  0  0  0
  -21.5168   -7.0721   21.6712 O   0  0  0  0  0  0  0  0  0  0  0  0
  -31.7484  -11.9662   27.4299 O   0  0  0  0  0  0  0  0  0  1  0  0
  -23.6393   -3.2109   24.9864 F   0  0  0  0  0  0  0  0  0  0  0  0
  -23.9157   -5.8412   21.0607 F   0  0  0  0  0  0  0  0  0  0  0  0
  1  2  1  0  0  0  0
  1  5  2  0  0  0  0
  2  6  2  0  0  0  0
  3  8  2  0  0  0  0
  3 17  1  0  0  0  0
  4  9  1  0  0  0  0
  4 17  2  0  0  0  0
  5 19  1  0  0  0  0
  6 21  1  0  0  0  0
  7 10  2  0  0  0  0
  7 20  1  0  0  0  0
  8 24  1  0  0  0  0
  9 24  2  0  0  0  0
 10 25  1  0  0  0  0
 11 12  2  0  0  0  0
 11 26  1  0  0  0  0
 12 27  1  0  0  0  0
 13 22  1  0  0  0  0
 13 25  2  0  0  0  0
 14 23  1  0  0  0  0
 14 30  2  0  0  0  0
 15 27  2  0  0  0  0
 15 28  1  0  0  0  0
 16 23  2  0  0  0  0
 16 65  1  0  0  0  0
 17 29  1  0  0  0  0
 18 29  1  0  0  0  0
 18 31  2  0  0  0  0
 18 32  1  0  0  0  0
 19 21  2  0  0  0  0
 19 37  1  0  0  0  0
 20 22  2  0  0  0  0
 20 38  1  0  0  0  0
 21 46  1  0  0  0  0
 22 39  1  0  0  0  0
 23 56  1  0  0  0  0
 24 81  1  0  0  0  0
 25 82  1  0  0  0  0
 26 28  2  0  0  0  0
 26 81  1  0  0  0  0
 27 83  1  0  0  0  0
 28 84  1  0  0  0  0
 29 64  2  0  0  0  0
 30 57  1  0  0  0  0
 30 65  1  0  0  0  0
 31 66  1  0  0  0  0
 31 69  1  0  0  0  0
 32 70  1  0  0  0  0
 32 76  2  0  0  0  0
 33 47  1  0  0  0  0
 33 71  1  0  0  0  0
 33 77  2  0  0  0  0
 34 60  1  0  0  0  0
 34 67  1  0  0  0  0
 34 78  2  0  0  0  0
 35 61  1  0  0  0  0
 35 72  1  0  0  0  0
 35 79  2  0  0  0  0
 36 68  1  0  0  0  0
 36 73  1  0  0  0  0
 36 80  2  0  0  0  0
 37 40  1  0  0  0  0
 38 47  1  0  0  0  0
 39 67  1  0  0  0  0
 40 42  1  0  0  0  0
 41 43  1  0  0  0  0
 41 44  1  0  0  0  0
 42 46  1  0  0  0  0
 43 48  1  0  0  0  0
 44 68  1  0  0  0  0
 45 48  1  0  0  0  0
 45 68  1  0  0  0  0
 46 71  1  0  0  0  0
 47 67  1  0  0  0  0
 48 66  1  0  0  0  0
 49 61  1  0  0  0  0
 50 62  1  0  0  0  0
 51 63  1  0  0  0  0
 52 63  1  0  0  0  0
 53 63  1  0  0  0  0
 54 74  1  0  0  0  0
 55 75  1  0  0  0  0
 56 73  1  0  0  0  0
 57 74  1  0  0  0  0
 58 59  1  0  0  0  0
 58 62  1  0  0  0  0
 59 65  1  0  0  0  0
 60 63  1  0  0  0  0
 60 72  1  0  0  0  0
 61 75  1  0  0  0  0
 62 82  1  0  0  0  0
 64 66  1  0  0  0  0
M  CHG  2  74   1  75   1
M  ISO  4  36 100  62 101  73 100  82 101
M  END
> <Batch ID>
0106

> <Smiles>
CNCc1cc(C[100NH:0][100C:0](=O)N2CCCC(n3nc(-c4ccc(Oc5ccc(F)cc5F)cc4)c(C(N)=O)c3N)C2)cn1CC[101CH:1](C)[101O:1]c1ccc2c(c1)CN(C(=O)C(NC(=O)C(C)NC)C(C)(C)C)C(C(=O)NC1CCCc3ccccc31)C2

> <Shape>
0.197

> <Color>
0.180

> <Negative vol penalty>
0.000

$$$$

  -OEChem-04052319483D

 84 92  0     1  0  0  0  0  0999 V2000
  -25.8304  -30.7254   22.9076 C   0  0  0  0  0  0  0  0  0  0  0  0
  -26.5451  -29.6385   22.4144 C   0  0  0  0  0  0  0  0  0  0  0  0
  -23.0789   -9.8603   19.9456 C   0  0  0  0  0  0  0  0  0  0  0  0
  -23.8378   -9.8785   22.2393 C   0  0  0  0  0  0  0  0  0  0  0  0
  -26.2952  -31.4139   24.0274 C   0  0  0  0  0  0  0  0  0  0  0  0
  -27.7259  -29.2401   23.0402 C   0  0  0  0  0  0  0  0  0  0  0  0
  -28.0046  -24.2204   23.6475 C   0  0  0  0  0  0  0  0  0  0  0  0
  -22.3379   -8.7063   20.1999 C   0  0  0  0  0  0  0  0  0  0  0  0
  -23.0967   -8.7244   22.4936 C   0  0  0  0  0  0  0  0  0  0  0  0
  -28.3496  -23.4619   22.5297 C   0  0  0  0  0  0  0  0  0  0  0  0
  -19.8704   -7.9208   23.0980 C   0  0  0  0  0  0  0  0  0  0  0  0
  -19.1130   -7.8836   24.2687 C   0  0  0  0  0  0  0  0  0  0  0  0
  -28.7370  -18.7899   24.3298 C   0  0  0  0  0  0  0  0  0  0  0  0
  -30.6178  -23.3139   23.3376 C   0  0  0  0  0  0  0  0  0  0  0  0
  -20.3591   -5.9524   25.0135 C   0  0  0  0  0  0  0  0  0  0  0  0
  -28.6158  -19.5352   23.1778 C   0  0  0  0  0  0  0  0  0  0  0  0
  -23.8289  -10.4464   20.9653 C   0  0  0  0  0  0  0  0  0  0  0  0
  -24.1644  -12.9719   20.8353 C   0  0  0  0  0  0  0  0  0  0  0  0
  -27.4772  -31.0177   24.6729 C   0  0  0  0  0  0  0  0  0  0  0  0
  -28.9678  -24.5410   24.6149 C   0  0  0  0  0  0  0  0  0  0  0  0
  -28.2077  -29.9248   24.1688 C   0  0  0  0  0  0  0  0  0  0  0  0
  -30.2819  -24.0744   24.4680 C   0  0  0  0  0  0  0  0  0  0  0  0
  -29.5733  -17.6856   24.0332 C   0  0  0  0  0  0  0  0  0  0  0  0
  -22.3468   -8.1383   21.4739 C   0  0  0  0  0  0  0  0  0  0  0  0
  -29.6570  -23.0110   22.3731 C   0  0  0  0  0  0  0  0  0  0  0  0
  -20.8721   -6.9737   22.8849 C   0  0  0  0  0  0  0  0  0  0  0  0
  -19.3574   -6.8994   25.2265 C   0  0  0  0  0  0  0  0  0  0  0  0
  -21.1164   -5.9895   23.8427 C   0  0  0  0  0  0  0  0  0  0  0  0
  -24.5951  -11.6382   20.7031 C   0  0  0  0  0  0  0  0  0  0  0  0
  -29.9379  -17.7897   22.7090 C   0  0  0  0  0  0  0  0  0  0  0  0
  -25.2547  -13.7227   20.4694 C   0  0  0  0  0  0  0  0  0  0  0  0
  -22.8924  -13.4862   21.2516 C   0  0  0  0  0  0  0  0  0  0  0  0
  -30.2197  -27.2441   25.7241 C   0  0  0  0  0  0  0  0  0  0  0  0
  -31.6704  -25.2506   27.8321 C   0  0  0  0  0  0  0  0  0  0  0  0
  -32.7849  -22.1057   28.5494 C   0  0  0  0  0  0  0  0  0  0  0  0
  -30.7358  -14.7566   20.6560 C   0  0  0  0  0  0  0  0  0  0  0  0
  -27.9651  -31.8221   25.8517 C   0  0  0  0  0  0  0  0  0  0  0  0
  -28.5735  -25.3374   25.8284 C   0  0  0  0  0  0  0  0  0  0  0  0
  -31.3486  -24.3741   25.4882 C   0  0  0  0  0  0  0  0  0  0  0  0
  -29.0269  -31.1045   26.6812 C   0  0  0  0  0  0  0  0  0  0  0  0
  -29.6053  -12.3596   18.2784 C   0  0  0  0  0  0  0  0  0  0  0  0
  -30.0905  -30.4941   25.7740 C   0  0  0  0  0  0  0  0  0  0  0  0
  -28.1684  -12.0639   18.7119 C   0  0  0  0  0  0  0  0  0  0  0  0
  -30.5214  -12.5876   19.4788 C   0  0  0  0  0  0  0  0  0  0  0  0
  -28.6171  -13.3193   20.8616 C   0  0  0  0  0  0  0  0  0  0  0  0
  -29.4798  -29.4470   24.8349 C   0  0  1  0  0  0  0  0  0  0  0  0
  -29.7543  -26.0394   26.4921 C   0  0  1  0  0  0  0  0  0  0  0  0
  -27.6439  -13.1375   19.6843 C   0  0  2  0  0  0  0  0  0  0  0  0
  -28.0148  -15.0454   24.4876 C   0  0  0  0  0  0  0  0  0  0  0  0
  -30.8202  -17.1783   26.1495 C   0  0  0  0  0  0  0  0  0  0  0  0
  -33.9630  -20.7926   30.3340 C   0  0  0  0  0  0  0  0  0  0  0  0
  -34.3247  -26.5033   26.9981 C   0  0  0  0  0  0  0  0  0  0  0  0
  -35.4950  -24.5611   28.0596 C   0  0  0  0  0  0  0  0  0  0  0  0
  -34.0945  -26.0843   29.4529 C   0  0  0  0  0  0  0  0  0  0  0  0
  -30.4664  -20.3033   28.9163 C   0  0  0  0  0  0  0  0  0  0  0  0
  -30.7956  -16.9123   21.8843 C   0  0  0  0  0  0  0  0  0  0  0  0
  -28.7917  -15.7945   25.5635 C   0  0  0  0  0  0  0  0  0  0  0  0
  -30.7964  -20.1470   20.5049 C   0  0  0  0  0  0  0  0  0  0  0  0
  -29.4794  -19.4192   20.7830 C   0  0  0  0  0  0  0  0  0  0  0  0
  -31.0483  -21.3204   21.4447 C   0  0  0  0  0  0  0  0  0  1  0  0
  -29.9754  -16.6229   24.9758 C   0  0  1  0  0  0  0  0  0  0  0  0
  -32.9686  -24.4804   27.8555 C   0  0  1  0  0  0  0  0  0  0  0  0
  -32.6170  -21.2340   29.7808 C   0  0  2  0  0  0  0  0  0  0  0  0
  -34.2013  -25.4031   28.0712 C   0  0  0  0  0  0  0  0  0  0  0  0
  -25.8604  -11.5439   20.2857 N   0  0  0  0  0  0  0  0  0  0  0  0
  -29.3503  -18.9179   22.1992 N   0  0  0  0  0  0  0  0  0  0  0  0
  -26.2340  -12.8279   20.1524 N   0  0  0  0  0  0  0  0  0  0  0  0
  -30.9151  -25.1617   26.6542 N   0  0  0  0  0  0  0  0  0  0  0  0
  -29.9678  -13.6182   20.3604 N   0  0  0  0  0  0  0  0  0  0  0  0
  -25.4618  -15.0544   20.3911 N   0  0  0  0  0  0  0  0  0  0  0  0
  -21.8826  -12.5758   21.5921 N   0  0  0  0  0  0  0  0  0  0  0  0
  -29.2455  -28.2074   25.5441 N   0  0  0  0  0  0  0  0  0  0  0  0
  -32.8113  -23.4460   28.8721 N   0  0  0  0  0  0  0  0  0  0  0  0
  -30.1339  -15.6872   21.4940 N   0  0  0  0  0  0  0  0  0  0  0  0
  -31.8231  -20.0171   29.4496 N   0  3  0  0  0  0  0  0  0  0  0  0
  -22.6529  -14.7164   21.3038 O   0  0  0  0  0  0  0  0  0  0  0  0
  -31.3773  -27.2964   25.3256 O   0  0  0  0  0  0  0  0  0  0  0  0
  -31.3353  -25.9012   28.8251 O   0  0  0  0  0  0  0  0  0  0  0  0
  -32.8865  -21.6437   27.4150 O   0  0  0  0  0  0  0  0  0  0  0  0
  -31.8715  -14.9331   20.2022 O   0  0  0  0  0  0  0  0  0  0  0  0
  -21.6236   -7.0124   21.7225 O   0  0  0  0  0  0  0  0  0  0  0  0
  -29.9965  -22.2711   21.2826 O   0  0  0  0  0  0  0  0  0  1  0  0
  -18.6311   -6.8648   26.3514 F   0  0  0  0  0  0  0  0  0  0  0  0
  -22.0782   -5.0777   23.6442 F   0  0  0  0  0  0  0  0  0  0  0  0
  1  2  1  0  0  0  0
  1  5  2  0  0  0  0
  2  6  2  0  0  0  0
  3  8  2  0  0  0  0
  3 17  1  0  0  0  0
  4  9  1  0  0  0  0
  4 17  2  0  0  0  0
  5 19  1  0  0  0  0
  6 21  1  0  0  0  0
  7 10  2  0  0  0  0
  7 20  1  0  0  0  0
  8 24  1  0  0  0  0
  9 24  2  0  0  0  0
 10 25  1  0  0  0  0
 11 12  2  0  0  0  0
 11 26  1  0  0  0  0
 12 27  1  0  0  0  0
 13 16  2  0  0  0  0
 13 23  1  0  0  0  0
 14 22  1  0  0  0  0
 14 25  2  0  0  0  0
 15 27  2  0  0  0  0
 15 28  1  0  0  0  0
 16 66  1  0  0  0  0
 17 29  1  0  0  0  0
 18 29  1  0  0  0  0
 18 31  2  0  0  0  0
 18 32  1  0  0  0  0
 19 21  2  0  0  0  0
 19 37  1  0  0  0  0
 20 22  2  0  0  0  0
 20 38  1  0  0  0  0
 21 46  1  0  0  0  0
 22 39  1  0  0  0  0
 23 30  2  0  0  0  0
 23 61  1  0  0  0  0
 24 81  1  0  0  0  0
 25 82  1  0  0  0  0
 26 28  2  0  0  0  0
 26 81  1  0  0  0  0
 27 83  1  0  0  0  0
 28 84  1  0  0  0  0
 29 65  2  0  0  0  0
 30 56  1  0  0  0  0
 30 66  1  0  0  0  0
 31 67  1  0  0  0  0
 31 70  1  0  0  0  0
 32 71  1  0  0  0  0
 32 76  2  0  0  0  0
 33 47  1  0  0  0  0
 33 72  1  0  0  0  0
 33 77  2  0  0  0  0
 34 62  1  0  0  0  0
 34 68  1  0  0  0  0
 34 78  2  0  0  0  0
 35 63  1  0  0  0  0
 35 73  1  0  0  0  0
 35 79  2  0  0  0  0
 36 69  1  0  0  0  0
 36 74  1  0  0  0  0
 36 80  2  0  0  0  0
 37 40  1  0  0  0  0
 38 47  1  0  0  0  0
 39 68  1  0  0  0  0
 40 42  1  0  0  0  0
 41 43  1  0  0  0  0
 41 44  1  0  0  0  0
 42 46  1  0  0  0  0
 43 48  1  0  0  0  0
 44 69  1  0  0  0  0
 45 48  1  0  0  0  0
 45 69  1  0  0  0  0
 46 72  1  0  0  0  0
 47 68  1  0  0  0  0
 48 67  1  0  0  0  0
 49 57  1  0  0  0  0
 50 61  1  0  0  0  0
 51 63  1  0  0  0  0
 52 64  1  0  0  0  0
 53 64  1  0  0  0  0
 54 64  1  0  0  0  0
 55 75  1  0  0  0  0
 56 74  1  0  0  0  0
 57 61  1  0  0  0  0
 58 59  1  0  0  0  0
 58 60  1  0  0  0  0
 59 66  1  0  0  0  0
 60 82  1  0  0  0  0
 62 64  1  0  0  0  0
 62 73  1  0  0  0  0
 63 75  1  0  0  0  0
 65 67  1  0  0  0  0
M  CHG  1  75   1
M  ISO  4  36 100  60 101  74 100  82 101
M  END
> <Batch ID>
0106

> <Smiles>
CCC(C)c1ccn(CC[101CH2:1][101O:1]c2ccc3c(c2)CN(C(=O)C(NC(=O)C(C)NC)C(C)(C)C)C(C(=O)NC2CCCc4ccccc42)C3)c1C[100NH:0][100C:0](=O)N1CCCC(n2nc(-c3ccc(Oc4ccc(F)cc4F)cc3)c(C(N)=O)c2N)C1

> <Shape>
0.232

> <Color>
0.192

> <Negative vol penalty>
0.000

$$$$

  -OEChem-04052319483D

 84 92  0     1  0  0  0  0  0999 V2000
  -28.8834  -32.3104   25.8254 C   0  0  0  0  0  0  0  0  0  0  0  0
  -28.3603  -31.0218   25.7891 C   0  0  0  0  0  0  0  0  0  0  0  0
  -22.9885   -9.8268   20.0400 C   0  0  0  0  0  0  0  0  0  0  0  0
  -23.6644  -10.0066   22.3526 C   0  0  0  0  0  0  0  0  0  0  0  0
  -29.2825  -32.9331   24.6435 C   0  0  0  0  0  0  0  0  0  0  0  0
  -28.2350  -30.3556   24.5706 C   0  0  0  0  0  0  0  0  0  0  0  0
  -28.9123  -24.3516   23.5708 C   0  0  0  0  0  0  0  0  0  0  0  0
  -22.2139   -8.7099   20.3532 C   0  0  0  0  0  0  0  0  0  0  0  0
  -22.8898   -8.8896   22.6658 C   0  0  0  0  0  0  0  0  0  0  0  0
  -27.9921  -23.3115   23.4480 C   0  0  0  0  0  0  0  0  0  0  0  0
  -23.1366   -5.5292   22.3877 C   0  0  0  0  0  0  0  0  0  0  0  0
  -23.7057   -4.5553   23.2082 C   0  0  0  0  0  0  0  0  0  0  0  0
  -28.0687  -23.5351   21.0473 C   0  0  0  0  0  0  0  0  0  0  0  0
  -28.3649  -18.7482   21.5359 C   0  0  0  0  0  0  0  0  0  0  0  0
  -21.9469   -4.8939   24.8297 C   0  0  0  0  0  0  0  0  0  0  0  0
  -26.5011  -18.9205   20.0686 C   0  0  0  0  0  0  0  0  0  0  0  0
  -23.7138  -10.4751   21.0397 C   0  0  0  0  0  0  0  0  0  0  0  0
  -24.1084  -12.9764   20.7308 C   0  0  0  0  0  0  0  0  0  0  0  0
  -29.1710  -32.2705   23.4110 C   0  0  0  0  0  0  0  0  0  0  0  0
  -29.4102  -24.9997   22.4312 C   0  0  0  0  0  0  0  0  0  0  0  0
  -28.6317  -30.9705   23.3709 C   0  0  0  0  0  0  0  0  0  0  0  0
  -28.9971  -24.5815   21.1582 C   0  0  0  0  0  0  0  0  0  0  0  0
  -27.0256  -19.0678   21.3426 C   0  0  0  0  0  0  0  0  0  0  0  0
  -29.1280  -18.2974   20.4646 C   0  0  0  0  0  0  0  0  0  0  0  0
  -22.1645   -8.2413   21.6661 C   0  0  0  0  0  0  0  0  0  0  0  0
  -27.5680  -22.9050   22.1862 C   0  0  0  0  0  0  0  0  0  0  0  0
  -21.9727   -6.1855   22.7882 C   0  0  0  0  0  0  0  0  0  0  0  0
  -23.1108   -4.2376   24.4292 C   0  0  0  0  0  0  0  0  0  0  0  0
  -21.3779   -5.8678   24.0092 C   0  0  0  0  0  0  0  0  0  0  0  0
  -24.5146  -11.6286   20.7167 C   0  0  0  0  0  0  0  0  0  0  0  0
  -28.5093  -18.1844   19.2299 C   0  0  0  0  0  0  0  0  0  0  0  0
  -25.2273  -13.6762   20.3503 C   0  0  0  0  0  0  0  0  0  0  0  0
  -22.8337  -13.5450   21.0587 C   0  0  0  0  0  0  0  0  0  0  0  0
  -29.3028  -27.9741   21.3156 C   0  0  0  0  0  0  0  0  0  0  0  0
  -31.3172  -26.7884   19.0664 C   0  0  0  0  0  0  0  0  0  0  0  0
  -32.4792  -24.0696   17.3620 C   0  0  0  0  0  0  0  0  0  0  0  0
  -30.7192  -14.6176   20.6637 C   0  0  0  0  0  0  0  0  0  0  0  0
  -29.5717  -33.0022   22.1546 C   0  0  0  0  0  0  0  0  0  0  0  0
  -30.4226  -26.1022   22.5796 C   0  0  0  0  0  0  0  0  0  0  0  0
  -29.5169  -25.2311   19.9027 C   0  0  0  0  0  0  0  0  0  0  0  0
  -29.7540  -32.0855   20.9477 C   0  0  0  0  0  0  0  0  0  0  0  0
  -29.6234  -12.0670   18.4343 C   0  0  0  0  0  0  0  0  0  0  0  0
  -28.5859  -31.1108   20.8363 C   0  0  0  0  0  0  0  0  0  0  0  0
  -28.1658  -11.8327   18.8346 C   0  0  0  0  0  0  0  0  0  0  0  0
  -30.5003  -12.3691   19.6474 C   0  0  0  0  0  0  0  0  0  0  0  0
  -28.5639  -13.2407   20.8981 C   0  0  0  0  0  0  0  0  0  0  0  0
  -28.5030  -30.2057   22.0714 C   0  0  1  0  0  0  0  0  0  0  0  0
  -30.4731  -27.0334   21.3723 C   0  0  1  0  0  0  0  0  0  0  0  0
  -27.6300  -12.9875   19.7022 C   0  0  2  0  0  0  0  0  0  0  0  0
  -29.2796  -17.7046   18.0433 C   0  0  0  0  0  0  0  0  0  0  0  0
  -26.0432  -18.4991   23.5883 C   0  0  0  0  0  0  0  0  0  0  0  0
  -34.0985  -23.4196   15.5585 C   0  0  0  0  0  0  0  0  0  0  0  0
  -29.3981  -27.8720   16.9562 C   0  0  0  0  0  0  0  0  0  0  0  0
  -30.5310  -26.4051   15.2730 C   0  0  0  0  0  0  0  0  0  0  0  0
  -31.8209  -28.1998   16.4296 C   0  0  0  0  0  0  0  0  0  0  0  0
  -34.0177  -22.3399   19.2059 C   0  0  0  0  0  0  0  0  0  0  0  0
  -30.7815  -16.8597   21.7260 C   0  0  0  0  0  0  0  0  0  0  0  0
  -26.6843  -20.8838   23.0749 C   0  0  0  0  0  0  0  0  0  1  0  0
  -26.1632  -19.5626   22.4931 C   0  0  1  0  0  0  0  0  0  0  0  0
  -30.5640  -17.9550   20.6644 C   0  0  2  0  0  0  0  0  0  0  0  0
  -31.1464  -26.1315   17.7179 C   0  0  1  0  0  0  0  0  0  0  0  0
  -33.8899  -23.6013   17.0539 C   0  0  2  0  0  0  0  0  0  0  0  0
  -30.7127  -27.1409   16.6177 C   0  0  0  0  0  0  0  0  0  0  0  0
  -27.2109  -18.4855   19.0035 N   0  0  0  0  0  0  0  0  0  0  0  0
  -25.7917  -11.4787   20.3556 N   0  0  0  0  0  0  0  0  0  0  0  0
  -26.1977  -12.7414   20.1392 N   0  0  0  0  0  0  0  0  0  0  0  0
  -30.5004  -26.3087   20.1002 N   0  0  0  0  0  0  0  0  0  0  0  0
  -29.9379  -13.4746   20.4267 N   0  0  0  0  0  0  0  0  0  0  0  0
  -25.4659  -14.9938   20.1789 N   0  0  0  0  0  0  0  0  0  0  0  0
  -21.7928  -12.6827   21.4292 N   0  0  0  0  0  0  0  0  0  0  0  0
  -29.4998  -29.1590   21.9988 N   0  0  0  0  0  0  0  0  0  0  0  0
  -32.4022  -25.4443   17.4367 N   0  0  0  0  0  0  0  0  0  0  0  0
  -30.1079  -15.6210   21.4054 N   0  0  0  0  0  0  0  0  0  0  0  0
  -31.4049  -19.1433   21.0520 N   0  3  0  0  0  0  0  0  0  0  0  0
  -34.1627  -22.3005   17.7280 N   0  3  0  0  0  0  0  0  0  0  0  0
  -22.6193  -14.7799   21.0084 O   0  0  0  0  0  0  0  0  0  0  0  0
  -28.2963  -27.6497   20.6964 O   0  0  0  0  0  0  0  0  0  0  0  0
  -32.1497  -27.6888   19.1994 O   0  0  0  0  0  0  0  0  0  0  0  0
  -31.5387  -23.2937   17.5170 O   0  0  0  0  0  0  0  0  0  0  0  0
  -31.8741  -14.7373   20.2408 O   0  0  0  0  0  0  0  0  0  0  0  0
  -21.4086   -7.1516   21.9721 O   0  0  0  0  0  0  0  0  0  0  0  0
  -26.6694  -21.8904   22.0636 O   0  0  0  0  0  0  0  0  0  1  0  0
  -23.6566   -3.3013   25.2164 F   0  0  0  0  0  0  0  0  0  0  0  0
  -20.2591   -6.4941   24.3988 F   0  0  0  0  0  0  0  0  0  0  0  0
  1  2  1  0  0  0  0
  1  5  2  0  0  0  0
  2  6  2  0  0  0  0
  3  8  2  0  0  0  0
  3 17  1  0  0  0  0
  4  9  1  0  0  0  0
  4 17  2  0  0  0  0
  5 19  1  0  0  0  0
  6 21  1  0  0  0  0
  7 10  2  0  0  0  0
  7 20  1  0  0  0  0
  8 25  1  0  0  0  0
  9 25  2  0  0  0  0
 10 26  1  0  0  0  0
 11 12  2  0  0  0  0
 11 27  1  0  0  0  0
 12 28  1  0  0  0  0
 13 22  1  0  0  0  0
 13 26  2  0  0  0  0
 14 23  2  0  0  0  0
 14 24  1  0  0  0  0
 15 28  2  0  0  0  0
 15 29  1  0  0  0  0
 16 23  1  0  0  0  0
 16 64  2  0  0  0  0
 17 30  1  0  0  0  0
 18 30  1  0  0  0  0
 18 32  2  0  0  0  0
 18 33  1  0  0  0  0
 19 21  2  0  0  0  0
 19 38  1  0  0  0  0
 20 22  2  0  0  0  0
 20 39  1  0  0  0  0
 21 47  1  0  0  0  0
 22 40  1  0  0  0  0
 23 59  1  0  0  0  0
 24 31  2  0  0  0  0
 24 60  1  0  0  0  0
 25 81  1  0  0  0  0
 26 82  1  0  0  0  0
 27 29  2  0  0  0  0
 27 81  1  0  0  0  0
 28 83  1  0  0  0  0
 29 84  1  0  0  0  0
 30 65  2  0  0  0  0
 31 50  1  0  0  0  0
 31 64  1  0  0  0  0
 32 66  1  0  0  0  0
 32 69  1  0  0  0  0
 33 70  1  0  0  0  0
 33 76  2  0  0  0  0
 34 48  1  0  0  0  0
 34 71  1  0  0  0  0
 34 77  2  0  0  0  0
 35 61  1  0  0  0  0
 35 67  1  0  0  0  0
 35 78  2  0  0  0  0
 36 62  1  0  0  0  0
 36 72  1  0  0  0  0
 36 79  2  0  0  0  0
 37 68  1  0  0  0  0
 37 73  1  0  0  0  0
 37 80  2  0  0  0  0
 38 41  1  0  0  0  0
 39 48  1  0  0  0  0
 40 67  1  0  0  0  0
 41 43  1  0  0  0  0
 42 44  1  0  0  0  0
 42 45  1  0  0  0  0
 43 47  1  0  0  0  0
 44 49  1  0  0  0  0
 45 68  1  0  0  0  0
 46 49  1  0  0  0  0
 46 68  1  0  0  0  0
 47 71  1  0  0  0  0
 48 67  1  0  0  0  0
 49 66  1  0  0  0  0
 51 59  1  0  0  0  0
 52 62  1  0  0  0  0
 53 63  1  0  0  0  0
 54 63  1  0  0  0  0
 55 63  1  0  0  0  0
 56 75  1  0  0  0  0
 57 60  1  0  0  0  0
 57 73  1  0  0  0  0
 58 59  1  0  0  0  0
 58 82  1  0  0  0  0
 60 74  1  0  0  0  0
 61 63  1  0  0  0  0
 61 72  1  0  0  0  0
 62 75  1  0  0  0  0
 65 66  1  0  0  0  0
M  CHG  2  74   1  75   1
M  ISO  4  37 100  58 101  73 100  82 101
M  END
> <Batch ID>
0106

> <Smiles>
CNC(C)C(=O)NC(C(=O)N1Cc2cc([101O:1][101CH2:1]C(C)c3cnc(C)c(C(N)C[100NH:0][100C:0](=O)N4CCCC(n5nc(-c6ccc(Oc7ccc(F)cc7F)cc6)c(C(N)=O)c5N)C4)c3)ccc2CC1C(=O)NC1CCCc2ccccc21)C(C)(C)C

> <Shape>
0.301

> <Color>
0.192

> <Negative vol penalty>
0.000

$$$$

  -OEChem-04052319483D

 86 95  0     1  0  0  0  0  0999 V2000
  -23.2263   -8.3628   21.0332 C   0  0  0  0  0  0  0  0  0  0  0  0
  -23.9006   -9.0788   20.0493 C   0  0  0  0  0  0  0  0  0  0  0  0
  -21.2360  -23.4402   20.7165 C   0  0  0  0  0  0  0  0  0  0  0  0
  -20.6688  -23.2578   23.0579 C   0  0  0  0  0  0  0  0  0  0  0  0
  -22.6551   -9.0334   22.1139 C   0  0  0  0  0  0  0  0  0  0  0  0
  -24.0030  -10.4662   20.1450 C   0  0  0  0  0  0  0  0  0  0  0  0
  -28.4436  -15.8589   18.5586 C   0  0  0  0  0  0  0  0  0  0  0  0
  -20.8804  -22.1049   20.5264 C   0  0  0  0  0  0  0  0  0  0  0  0
  -20.3132  -21.9225   22.8677 C   0  0  0  0  0  0  0  0  0  0  0  0
  -28.4531  -17.0885   17.9017 C   0  0  0  0  0  0  0  0  0  0  0  0
  -20.4620  -18.6415   19.4999 C   0  0  0  0  0  0  0  0  0  0  0  0
  -21.3191  -17.8419   18.7440 C   0  0  0  0  0  0  0  0  0  0  0  0
  -27.4955  -18.1323   19.8543 C   0  0  0  0  0  0  0  0  0  0  0  0
  -30.5104  -27.5509   20.1990 C   0  0  0  0  0  0  0  0  0  0  0  0
  -28.9941  -26.3125   18.8020 C   0  0  0  0  0  0  0  0  0  0  0  0
  -23.1003  -18.2593   20.3221 C   0  0  0  0  0  0  0  0  0  0  0  0
  -21.1303  -24.0166   21.9823 C   0  0  0  0  0  0  0  0  0  0  0  0
  -20.6626  -26.5230   22.0652 C   0  0  0  0  0  0  0  0  0  0  0  0
  -22.7590  -10.4287   22.2279 C   0  0  0  0  0  0  0  0  0  0  0  0
  -27.9491  -15.7545   19.8667 C   0  0  0  0  0  0  0  0  0  0  0  0
  -23.4315  -11.1563   21.2276 C   0  0  0  0  0  0  0  0  0  0  0  0
  -27.4832  -16.9007   20.5266 C   0  0  0  0  0  0  0  0  0  0  0  0
  -29.2827  -27.4453   19.5549 C   0  0  0  0  0  0  0  0  0  0  0  0
  -20.4189  -21.3461   21.6019 C   0  0  0  0  0  0  0  0  0  0  0  0
  -27.9764  -18.2250   18.5484 C   0  0  0  0  0  0  0  0  0  0  0  0
  -20.9240  -19.2502   20.6669 C   0  0  0  0  0  0  0  0  0  0  0  0
  -22.6382  -17.6507   19.1551 C   0  0  0  0  0  0  0  0  0  0  0  0
  -22.2431  -19.0590   21.0780 C   0  0  0  0  0  0  0  0  0  0  0  0
  -21.4981  -25.3957   22.1795 C   0  0  0  0  0  0  0  0  0  0  0  0
  -31.4079  -26.5046   20.0599 C   0  0  0  0  0  0  0  0  0  0  0  0
  -29.9596  -25.3217   18.7252 C   0  0  0  0  0  0  0  0  0  0  0  0
  -21.4826  -27.5881   22.3476 C   0  0  0  0  0  0  0  0  0  0  0  0
  -19.2700  -26.6005   21.7334 C   0  0  0  0  0  0  0  0  0  0  0  0
  -25.5518  -14.1823   21.2396 C   0  0  0  0  0  0  0  0  0  0  0  0
  -26.8632  -15.3497   23.9673 C   0  0  0  0  0  0  0  0  0  0  0  0
  -28.7888  -17.7357   25.4658 C   0  0  0  0  0  0  0  0  0  0  0  0
  -27.3357  -28.4623   21.9509 C   0  0  0  0  0  0  0  0  0  0  0  0
  -22.0846  -11.1143   23.3897 C   0  0  0  0  0  0  0  0  0  0  0  0
  -27.9704  -14.4257   20.5711 C   0  0  0  0  0  0  0  0  0  0  0  0
  -26.9606  -16.8458   21.9381 C   0  0  0  0  0  0  0  0  0  0  0  0
  -22.5608  -12.5476   23.6110 C   0  0  0  0  0  0  0  0  0  0  0  0
  -25.3812  -28.7704   24.8333 C   0  0  0  0  0  0  0  0  0  0  0  0
  -22.5996  -13.3074   22.2888 C   0  0  0  0  0  0  0  0  0  0  0  0
  -24.0866  -28.0382   24.4861 C   0  0  0  0  0  0  0  0  0  0  0  0
  -24.7150  -27.5242   20.3278 C   0  0  0  0  0  0  0  0  0  0  0  0
  -25.2334  -27.8006   18.9481 C   0  0  0  0  0  0  0  0  0  0  0  0
  -26.5896  -28.0328   24.2704 C   0  0  0  0  0  0  0  0  0  0  0  0
  -25.2372  -27.1041   22.4152 C   0  0  0  0  0  0  0  0  0  0  0  0
  -23.5853  -12.6595   21.3090 C   0  0  1  0  0  0  0  0  0  0  0  0
  -26.9675  -14.3410   21.7175 C   0  0  1  0  0  0  0  0  0  0  0  0
  -23.9796  -27.8044   22.9700 C   0  0  1  0  0  0  0  0  0  0  0  0
  -26.1738  -27.3239   20.0208 C   0  0  0  0  0  0  0  0  0  0  0  0
  -32.7346  -26.5827   20.7384 C   0  0  0  0  0  0  0  0  0  0  0  0
  -29.6486  -18.4479   27.7132 C   0  0  0  0  0  0  0  0  0  0  0  0
  -24.1121  -16.4719   24.6614 C   0  0  0  0  0  0  0  0  0  0  0  0
  -25.2163  -17.9355   26.3664 C   0  0  0  0  0  0  0  0  0  0  0  0
  -25.3399  -15.4539   26.5877 C   0  0  0  0  0  0  0  0  0  0  0  0
  -31.6059  -17.3929   24.6258 C   0  0  0  0  0  0  0  0  0  0  0  0
  -28.2791  -28.5420   19.6720 C   0  0  0  0  0  0  0  0  0  0  0  0
  -29.6814  -24.0802   17.9158 C   0  0  0  0  0  0  0  0  0  0  0  0
  -29.0246  -22.9519   18.7188 C   0  0  0  0  0  0  0  0  0  0  0  0
  -28.8209  -21.6755   17.9013 C   0  0  0  0  0  0  0  0  0  0  0  0
  -28.1311  -20.5920   18.7191 C   0  0  0  0  0  0  0  0  0  1  0  0
  -26.6875  -16.6061   24.7854 C   0  0  1  0  0  0  0  0  0  0  0  0
  -29.9294  -17.6303   26.4620 C   0  0  2  0  0  0  0  0  0  0  0  0
  -25.3469  -16.6179   25.5729 C   0  0  0  0  0  0  0  0  0  0  0  0
  -22.7526  -25.7149   22.5088 N   0  0  0  0  0  0  0  0  0  0  0  0
  -31.1633  -25.3887   19.3370 N   0  0  0  0  0  0  0  0  0  0  0  0
  -22.7115  -27.0548   22.6037 N   0  0  0  0  0  0  0  0  0  0  0  0
  -26.9963  -15.5224   22.5822 N   0  0  0  0  0  0  0  0  0  0  0  0
  -26.4577  -27.8115   22.8297 N   0  0  0  0  0  0  0  0  0  0  0  0
  -21.2651  -28.9194   22.3993 N   0  0  0  0  0  0  0  0  0  0  0  0
  -18.5781  -25.4099   21.4723 N   0  0  0  0  0  0  0  0  0  0  0  0
  -24.9460  -13.0116   21.6541 N   0  0  0  0  0  0  0  0  0  0  0  0
  -27.8751  -16.7155   25.6257 N   0  0  0  0  0  0  0  0  0  0  0  0
  -27.1878  -28.2010   20.5778 N   0  0  0  0  0  0  0  0  0  0  0  0
  -31.1967  -18.1239   25.8527 N   0  3  0  0  0  0  0  0  0  0  0  0
  -18.6611  -27.6943   21.6542 O   0  0  0  0  0  0  0  0  0  0  0  0
  -25.0461  -15.0580   20.5474 O   0  0  0  0  0  0  0  0  0  0  0  0
  -26.8888  -14.2558   24.5368 O   0  0  0  0  0  0  0  0  0  0  0  0
  -28.7139  -18.6354   24.6318 O   0  0  0  0  0  0  0  0  0  0  0  0
  -28.2209  -29.2209   22.3676 O   0  0  0  0  0  0  0  0  0  0  0  0
  -20.0716  -20.0432   21.4167 O   0  0  0  0  0  0  0  0  0  0  0  0
  -27.9839  -19.4263   17.9092 O   0  0  0  0  0  0  0  0  0  1  0  0
  -23.4608  -16.8815   18.4299 F   0  0  0  0  0  0  0  0  0  0  0  0
  -22.6924  -19.6401   22.1988 F   0  0  0  0  0  0  0  0  0  0  0  0
  1  2  1  0  0  0  0
  1  5  2  0  0  0  0
  2  6  2  0  0  0  0
  3  8  2  0  0  0  0
  3 17  1  0  0  0  0
  4  9  1  0  0  0  0
  4 17  2  0  0  0  0
  5 19  1  0  0  0  0
  6 21  1  0  0  0  0
  7 10  2  0  0  0  0
  7 20  1  0  0  0  0
  8 24  1  0  0  0  0
  9 24  2  0  0  0  0
 10 25  1  0  0  0  0
 11 12  2  0  0  0  0
 11 26  1  0  0  0  0
 12 27  1  0  0  0  0
 13 22  1  0  0  0  0
 13 25  2  0  0  0  0
 14 23  1  0  0  0  0
 14 30  2  0  0  0  0
 15 23  2  0  0  0  0
 15 31  1  0  0  0  0
 16 27  2  0  0  0  0
 16 28  1  0  0  0  0
 17 29  1  0  0  0  0
 18 29  1  0  0  0  0
 18 32  2  0  0  0  0
 18 33  1  0  0  0  0
 19 21  2  0  0  0  0
 19 38  1  0  0  0  0
 20 22  2  0  0  0  0
 20 39  1  0  0  0  0
 21 49  1  0  0  0  0
 22 40  1  0  0  0  0
 23 59  1  0  0  0  0
 24 83  1  0  0  0  0
 25 84  1  0  0  0  0
 26 28  2  0  0  0  0
 26 83  1  0  0  0  0
 27 85  1  0  0  0  0
 28 86  1  0  0  0  0
 29 67  2  0  0  0  0
 30 53  1  0  0  0  0
 30 68  1  0  0  0  0
 31 60  1  0  0  0  0
 31 68  2  0  0  0  0
 32 69  1  0  0  0  0
 32 72  1  0  0  0  0
 33 73  1  0  0  0  0
 33 78  2  0  0  0  0
 34 50  1  0  0  0  0
 34 74  1  0  0  0  0
 34 79  2  0  0  0  0
 35 64  1  0  0  0  0
 35 70  1  0  0  0  0
 35 80  2  0  0  0  0
 36 65  1  0  0  0  0
 36 75  1  0  0  0  0
 36 81  2  0  0  0  0
 37 71  1  0  0  0  0
 37 76  1  0  0  0  0
 37 82  2  0  0  0  0
 38 41  1  0  0  0  0
 39 50  1  0  0  0  0
 40 70  1  0  0  0  0
 41 43  1  0  0  0  0
 42 44  1  0  0  0  0
 42 47  1  0  0  0  0
 43 49  1  0  0  0  0
 44 51  1  0  0  0  0
 45 46  1  0  0  0  0
 45 52  1  0  0  0  0
 46 52  1  0  0  0  0
 47 71  1  0  0  0  0
 48 51  1  0  0  0  0
 48 71  1  0  0  0  0
 49 74  1  0  0  0  0
 50 70  1  0  0  0  0
 51 69  1  0  0  0  0
 52 76  1  0  0  0  0
 54 65  1  0  0  0  0
 55 66  1  0  0  0  0
 56 66  1  0  0  0  0
 57 66  1  0  0  0  0
 58 77  1  0  0  0  0
 59 76  1  0  0  0  0
 60 61  1  0  0  0  0
 61 62  1  0  0  0  0
 62 63  1  0  0  0  0
 63 84  1  0  0  0  0
 64 66  1  0  0  0  0
 64 75  1  0  0  0  0
 65 77  1  0  0  0  0
 67 69  1  0  0  0  0
M  CHG  1  77   1
M  ISO  4  37 100  63 101  76 100  84 101
M  END
> <Batch ID>
0106

> <Smiles>
CNC(C)C(=O)NC(C(=O)N1Cc2cc([101O:1][101CH2:1]CCCc3cc(C[100N:0](C4CC4)[100C:0](=O)N4CCCC(n5nc(-c6ccc(Oc7ccc(F)cc7F)cc6)c(C(N)=O)c5N)C4)cc(C)n3)ccc2CC1C(=O)NC1CCCc2ccccc21)C(C)(C)C

> <Shape>
0.210

> <Color>
0.064

> <Negative vol penalty>
0.000

$$$$

  -OEChem-04052319483D

 91 99  0     1  0  0  0  0  0999 V2000
  -28.7209  -23.2063   17.9060 C   0  0  0  0  0  0  0  0  0  0  0  0
  -27.5227  -23.4331   18.5756 C   0  0  0  0  0  0  0  0  0  0  0  0
  -27.7634  -12.7704   19.8187 C   0  0  0  0  0  0  0  0  0  0  0  0
  -25.5711  -13.3147   18.9616 C   0  0  0  0  0  0  0  0  0  0  0  0
  -29.8789  -23.8713   18.3070 C   0  0  0  0  0  0  0  0  0  0  0  0
  -27.4820  -24.3242   19.6474 C   0  0  0  0  0  0  0  0  0  0  0  0
  -23.4855  -27.4277   19.4430 C   0  0  0  0  0  0  0  0  0  0  0  0
  -27.3388  -11.4672   20.0772 C   0  0  0  0  0  0  0  0  0  0  0  0
  -25.1465  -12.0114   19.2200 C   0  0  0  0  0  0  0  0  0  0  0  0
  -22.2542  -26.9070   19.8386 C   0  0  0  0  0  0  0  0  0  0  0  0
  -23.3789   -8.9295   19.9865 C   0  0  0  0  0  0  0  0  0  0  0  0
  -22.1353   -8.7616   20.5953 C   0  0  0  0  0  0  0  0  0  0  0  0
  -22.5027  -27.9698   21.9899 C   0  0  0  0  0  0  0  0  0  0  0  0
  -22.8973  -10.0335   22.5028 C   0  0  0  0  0  0  0  0  0  0  0  0
  -21.1080  -23.2868   22.7786 C   0  0  0  0  0  0  0  0  0  0  0  0
  -26.8796  -13.6942   19.2610 C   0  0  0  0  0  0  0  0  0  0  0  0
  -27.9012  -15.5258   17.8086 C   0  0  0  0  0  0  0  0  0  0  0  0
  -29.8503  -24.7783   19.3781 C   0  0  0  0  0  0  0  0  0  0  0  0
  -24.2410  -28.2157   20.3233 C   0  0  0  0  0  0  0  0  0  0  0  0
  -28.6410  -25.0009   20.0639 C   0  0  0  0  0  0  0  0  0  0  0  0
  -23.7421  -28.5014   21.6021 C   0  0  0  0  0  0  0  0  0  0  0  0
  -19.9560  -23.9507   22.4191 C   0  0  0  0  0  0  0  0  0  0  0  0
  -19.3767  -23.2389   21.3398 C   0  0  0  0  0  0  0  0  0  0  0  0
  -26.0304  -11.0876   19.7778 C   0  0  0  0  0  0  0  0  0  0  0  0
  -21.7639  -27.1757   21.1132 C   0  0  0  0  0  0  0  0  0  0  0  0
  -24.3819   -9.6494   20.6358 C   0  0  0  0  0  0  0  0  0  0  0  0
  -21.8944   -9.3136   21.8534 C   0  0  0  0  0  0  0  0  0  0  0  0
  -24.1410  -10.2015   21.8939 C   0  0  0  0  0  0  0  0  0  0  0  0
  -27.3174  -15.0408   18.9942 C   0  0  0  0  0  0  0  0  0  0  0  0
  -20.1923  -22.1614   21.0728 C   0  0  0  0  0  0  0  0  0  0  0  0
  -28.1327  -16.8562   18.0590 C   0  0  0  0  0  0  0  0  0  0  0  0
  -28.2068  -14.8353   16.5897 C   0  0  0  0  0  0  0  0  0  0  0  0
  -27.1069  -27.9524   21.6727 C   0  0  0  0  0  0  0  0  0  0  0  0
  -26.4564  -30.9511   22.7248 C   0  0  0  0  0  0  0  0  0  0  0  0
  -24.1092  -33.3064   23.4930 C   0  0  0  0  0  0  0  0  0  0  0  0
  -25.6132  -20.8008   21.7931 C   0  0  0  0  0  0  0  0  0  0  0  0
  -31.1377  -25.4377   19.8054 C   0  0  0  0  0  0  0  0  0  0  0  0
  -25.5550  -28.7919   19.8719 C   0  0  0  0  0  0  0  0  0  0  0  0
  -24.5050  -29.3587   22.5777 C   0  0  0  0  0  0  0  0  0  0  0  0
  -30.9303  -26.6486   20.7115 C   0  0  0  0  0  0  0  0  0  0  0  0
  -29.0511  -19.8867   21.6456 C   0  0  0  0  0  0  0  0  0  0  0  0
  -29.9215  -26.3271   21.8096 C   0  0  0  0  0  0  0  0  0  0  0  0
  -29.0493  -18.5849   20.8424 C   0  0  0  0  0  0  0  0  0  0  0  0
  -27.8276  -19.9915   22.5533 C   0  0  0  0  0  0  0  0  0  0  0  0
  -26.5307  -18.5146   21.0665 C   0  0  0  0  0  0  0  0  0  0  0  0
  -28.5514  -25.9788   21.2154 C   0  0  1  0  0  0  0  0  0  0  0  0
  -26.4773  -29.1565   21.0312 C   0  0  1  0  0  0  0  0  0  0  0  0
  -27.7166  -18.3891   20.0949 C   0  0  2  0  0  0  0  0  0  0  0  0
  -18.0533  -23.9278   24.8128 C   0  0  0  0  0  0  0  0  0  0  0  0
  -18.2013  -24.9554   19.9167 C   0  0  0  0  0  0  0  0  0  0  0  0
  -16.8844  -23.5545   21.5471 C   0  0  0  0  0  0  0  0  0  0  0  0
  -20.1869  -21.6897   18.6255 C   0  0  0  0  0  0  0  0  0  0  0  0
  -23.8804  -35.6483   24.3652 C   0  0  0  0  0  0  0  0  0  0  0  0
  -18.6064  -19.1711   19.0833 C   0  0  0  0  0  0  0  0  0  0  0  0
  -27.0544  -29.9561   25.5465 C   0  0  0  0  0  0  0  0  0  0  0  0
  -25.9146  -32.0009   26.4341 C   0  0  0  0  0  0  0  0  0  0  0  0
  -27.9619  -32.2279   25.0272 C   0  0  0  0  0  0  0  0  0  0  0  0
  -22.7936  -34.2275   21.0072 C   0  0  0  0  0  0  0  0  0  0  0  0
  -19.0859  -25.0208   24.5641 C   0  0  0  0  0  0  0  0  0  0  0  0
  -22.3308  -21.2512   22.0177 C   0  0  0  0  0  0  0  0  0  0  0  0
  -23.3846  -21.4787   20.9370 C   0  0  0  0  0  0  0  0  0  0  0  0
  -18.6129  -19.5652   21.5766 C   0  0  0  0  0  0  0  0  0  0  0  0
  -20.3945  -26.3892   22.8914 C   0  0  0  0  0  0  0  0  0  1  0  0
  -19.4153  -25.2167   23.0694 C   0  0  1  0  0  0  0  0  0  0  0  0
  -18.1283  -23.5859   20.6299 C   0  0  0  0  0  0  0  0  0  0  0  0
  -20.0638  -21.0969   20.0552 C   0  0  2  0  0  0  0  0  0  0  0  0
  -25.7850  -31.5339   23.9449 C   0  0  1  0  0  0  0  0  0  0  0  0
  -23.9981  -34.7751   23.1257 C   0  0  2  0  0  0  0  0  0  0  0  0
  -18.7527  -20.2265   20.1907 C   0  0  1  0  0  0  0  0  0  0  0  0
  -26.6653  -31.4119   25.2207 C   0  0  0  0  0  0  0  0  0  0  0  0
  -27.1863  -15.9862   19.9286 N   0  0  0  0  0  0  0  0  0  0  0  0
  -21.2414  -22.2005   21.9537 N   0  0  0  0  0  0  0  0  0  0  0  0
  -27.6910  -17.0786   19.3301 N   0  0  0  0  0  0  0  0  0  0  0  0
  -25.7876  -29.8938   22.0918 N   0  0  0  0  0  0  0  0  0  0  0  0
  -26.5968  -19.7981   21.7828 N   0  0  0  0  0  0  0  0  0  0  0  0
  -28.6690  -17.8459   17.3138 N   0  0  0  0  0  0  0  0  0  0  0  0
  -27.9033  -13.4699   16.5011 N   0  0  0  0  0  0  0  0  0  0  0  0
  -27.8576  -27.1811   20.8061 N   0  0  0  0  0  0  0  0  0  0  0  0
  -25.4239  -32.9039   23.5969 N   0  0  0  0  0  0  0  0  0  0  0  0
  -24.4807  -20.5404   21.0313 N   0  0  0  0  0  0  0  0  0  0  0  0
  -17.2955  -18.9085   21.7502 N   0  3  0  0  0  0  0  0  0  0  0  0
  -22.7984  -35.0063   22.2723 N   0  3  0  0  0  0  0  0  0  0  0  0
  -28.7485  -15.4084   15.6142 O   0  0  0  0  0  0  0  0  0  0  0  0
  -26.9263  -27.7398   22.8660 O   0  0  0  0  0  0  0  0  0  0  0  0
  -27.5309  -31.4216   22.3430 O   0  0  0  0  0  0  0  0  0  0  0  0
  -23.1278  -32.5889   23.6738 O   0  0  0  0  0  0  0  0  0  0  0  0
  -25.7375  -21.8527   22.4296 O   0  0  0  0  0  0  0  0  0  0  0  0
  -25.6158   -9.8159   20.0297 O   0  0  0  0  0  0  0  0  0  0  0  0
  -20.5626  -26.6682   21.5021 O   0  0  0  0  0  0  0  0  0  1  0  0
  -20.6996   -9.1535   22.4373 F   0  0  0  0  0  0  0  0  0  0  0  0
  -25.1002  -10.8951   22.5222 F   0  0  0  0  0  0  0  0  0  0  0  0
  1  2  1  0  0  0  0
  1  5  2  0  0  0  0
  2  6  2  0  0  0  0
  3  8  2  0  0  0  0
  3 16  1  0  0  0  0
  4  9  1  0  0  0  0
  4 16  2  0  0  0  0
  5 18  1  0  0  0  0
  6 20  1  0  0  0  0
  7 10  2  0  0  0  0
  7 19  1  0  0  0  0
  8 24  1  0  0  0  0
  9 24  2  0  0  0  0
 10 25  1  0  0  0  0
 11 12  2  0  0  0  0
 11 26  1  0  0  0  0
 12 27  1  0  0  0  0
 13 21  1  0  0  0  0
 13 25  2  0  0  0  0
 14 27  2  0  0  0  0
 14 28  1  0  0  0  0
 15 22  2  0  0  0  0
 15 72  1  0  0  0  0
 16 29  1  0  0  0  0
 17 29  1  0  0  0  0
 17 31  2  0  0  0  0
 17 32  1  0  0  0  0
 18 20  2  0  0  0  0
 18 37  1  0  0  0  0
 19 21  2  0  0  0  0
 19 38  1  0  0  0  0
 20 46  1  0  0  0  0
 21 39  1  0  0  0  0
 22 23  1  0  0  0  0
 22 64  1  0  0  0  0
 23 30  2  0  0  0  0
 23 65  1  0  0  0  0
 24 88  1  0  0  0  0
 25 89  1  0  0  0  0
 26 28  2  0  0  0  0
 26 88  1  0  0  0  0
 27 90  1  0  0  0  0
 28 91  1  0  0  0  0
 29 71  2  0  0  0  0
 30 66  1  0  0  0  0
 30 72  1  0  0  0  0
 31 73  1  0  0  0  0
 31 76  1  0  0  0  0
 32 77  1  0  0  0  0
 32 83  2  0  0  0  0
 33 47  1  0  0  0  0
 33 78  1  0  0  0  0
 33 84  2  0  0  0  0
 34 67  1  0  0  0  0
 34 74  1  0  0  0  0
 34 85  2  0  0  0  0
 35 68  1  0  0  0  0
 35 79  1  0  0  0  0
 35 86  2  0  0  0  0
 36 75  1  0  0  0  0
 36 80  1  0  0  0  0
 36 87  2  0  0  0  0
 37 40  1  0  0  0  0
 38 47  1  0  0  0  0
 39 74  1  0  0  0  0
 40 42  1  0  0  0  0
 41 43  1  0  0  0  0
 41 44  1  0  0  0  0
 42 46  1  0  0  0  0
 43 48  1  0  0  0  0
 44 75  1  0  0  0  0
 45 48  1  0  0  0  0
 45 75  1  0  0  0  0
 46 78  1  0  0  0  0
 47 74  1  0  0  0  0
 48 73  1  0  0  0  0
 49 59  1  0  0  0  0
 50 65  1  0  0  0  0
 51 65  1  0  0  0  0
 52 66  1  0  0  0  0
 53 68  1  0  0  0  0
 54 69  1  0  0  0  0
 55 70  1  0  0  0  0
 56 70  1  0  0  0  0
 57 70  1  0  0  0  0
 58 82  1  0  0  0  0
 59 64  1  0  0  0  0
 60 61  1  0  0  0  0
 60 72  1  0  0  0  0
 61 80  1  0  0  0  0
 62 69  1  0  0  0  0
 62 81  1  0  0  0  0
 63 64  1  0  0  0  0
 63 89  1  0  0  0  0
 66 69  1  0  0  0  0
 67 70  1  0  0  0  0
 67 79  1  0  0  0  0
 68 82  1  0  0  0  0
 71 73  1  0  0  0  0
M  CHG  2  81   1  82   1
M  ISO  4  36 100  63 101  80 100  89 101
M  END
> <Batch ID>
0106

> <Smiles>
CCC(c1cn(CC[100NH:0][100C:0](=O)N2CCCC(n3nc(-c4ccc(Oc5ccc(F)cc5F)cc4)c(C(N)=O)c3N)C2)c(C(C)C(C)CN)c1C(C)C)[101CH2:1][101O:1]c1ccc2c(c1)CN(C(=O)C(NC(=O)C(C)NC)C(C)(C)C)C(C(=O)NC1CCCc3ccccc31)C2

> <Shape>
0.255

> <Color>
0.056

> <Negative vol penalty>
0.000

$$$$

  -OEChem-04052319483D

 86 94  0     1  0  0  0  0  0999 V2000
  -14.8970  -22.1991   26.8366 C   0  0  0  0  0  0  0  0  0  0  0  0
  -15.8409  -23.2193   26.7768 C   0  0  0  0  0  0  0  0  0  0  0  0
  -25.6781  -14.4047   21.5117 C   0  0  0  0  0  0  0  0  0  0  0  0
  -24.9301  -15.1433   19.3364 C   0  0  0  0  0  0  0  0  0  0  0  0
  -15.1260  -20.9988   26.1654 C   0  0  0  0  0  0  0  0  0  0  0  0
  -17.0151  -23.0393   26.0465 C   0  0  0  0  0  0  0  0  0  0  0  0
  -20.0703  -27.2984   22.8793 C   0  0  0  0  0  0  0  0  0  0  0  0
  -30.2999  -28.2426   21.5951 C   0  0  0  0  0  0  0  0  0  0  0  0
  -24.6643  -13.4470   21.5352 C   0  0  0  0  0  0  0  0  0  0  0  0
  -23.9162  -14.1856   19.3598 C   0  0  0  0  0  0  0  0  0  0  0  0
  -21.1929  -28.0675   23.1828 C   0  0  0  0  0  0  0  0  0  0  0  0
  -24.0894  -10.3947   20.1987 C   0  0  0  0  0  0  0  0  0  0  0  0
  -24.4245   -9.1060   20.6142 C   0  0  0  0  0  0  0  0  0  0  0  0
  -29.0391  -28.8279   21.5632 C   0  0  0  0  0  0  0  0  0  0  0  0
  -22.5897  -26.4715   22.0336 C   0  0  0  0  0  0  0  0  0  0  0  0
  -22.8328   -9.2757   22.4239 C   0  0  0  0  0  0  0  0  0  0  0  0
  -25.8110  -15.2529   20.4123 C   0  0  0  0  0  0  0  0  0  0  0  0
  -28.1636  -16.0867   19.8855 C   0  0  0  0  0  0  0  0  0  0  0  0
  -16.2992  -20.8075   25.4185 C   0  0  0  0  0  0  0  0  0  0  0  0
  -20.2006  -26.1024   22.1589 C   0  0  0  0  0  0  0  0  0  0  0  0
  -17.2607  -21.8347   25.3657 C   0  0  0  0  0  0  0  0  0  0  0  0
  -21.4669  -25.6903   21.7201 C   0  0  0  0  0  0  0  0  0  0  0  0
  -30.5010  -27.0047   20.9948 C   0  0  0  0  0  0  0  0  0  0  0  0
  -23.7833  -13.3375   20.4592 C   0  0  0  0  0  0  0  0  0  0  0  0
  -22.4531  -27.6527   22.7624 C   0  0  0  0  0  0  0  0  0  0  0  0
  -23.1261  -11.1239   20.8959 C   0  0  0  0  0  0  0  0  0  0  0  0
  -23.7961   -8.5465   21.7267 C   0  0  0  0  0  0  0  0  0  0  0  0
  -22.4978  -10.5644   22.0084 C   0  0  0  0  0  0  0  0  0  0  0  0
  -26.8578  -16.2427   20.3877 C   0  0  0  0  0  0  0  0  0  0  0  0
  -28.0207  -28.1400   20.9234 C   0  0  0  0  0  0  0  0  0  0  0  0
  -29.4171  -26.3982   20.3806 C   0  0  0  0  0  0  0  0  0  0  0  0
  -28.7596  -17.3065   20.0938 C   0  0  0  0  0  0  0  0  0  0  0  0
  -28.7826  -14.9417   19.2843 C   0  0  0  0  0  0  0  0  0  0  0  0
  -19.5881  -23.0422   22.7623 C   0  0  0  0  0  0  0  0  0  0  0  0
  -20.3804  -22.6711   19.6387 C   0  0  0  0  0  0  0  0  0  0  0  0
  -22.0551  -23.8605   16.9134 C   0  0  0  0  0  0  0  0  0  0  0  0
  -28.6472  -22.7693   19.7902 C   0  0  0  0  0  0  0  0  0  0  0  0
  -16.5241  -19.4752   24.7486 C   0  0  0  0  0  0  0  0  0  0  0  0
  -18.9767  -25.2978   21.8166 C   0  0  0  0  0  0  0  0  0  0  0  0
  -21.6580  -24.4246   20.9263 C   0  0  0  0  0  0  0  0  0  0  0  0
  -17.6229  -19.5038   23.6892 C   0  0  0  0  0  0  0  0  0  0  0  0
  -27.2224  -21.3087   22.7791 C   0  0  0  0  0  0  0  0  0  0  0  0
  -18.8568  -20.2272   24.2193 C   0  0  0  0  0  0  0  0  0  0  0  0
  -27.1095  -19.8377   22.3747 C   0  0  0  0  0  0  0  0  0  0  0  0
  -26.9113  -22.2306   21.6038 C   0  0  0  0  0  0  0  0  0  0  0  0
  -27.6323  -20.5168   19.9861 C   0  0  0  0  0  0  0  0  0  0  0  0
  -18.5353  -21.6866   24.5636 C   0  0  1  0  0  0  0  0  0  0  0  0
  -19.2875  -23.8338   21.5210 C   0  0  1  0  0  0  0  0  0  0  0  0
  -27.9571  -19.5334   21.1253 C   0  0  2  0  0  0  0  0  0  0  0  0
  -22.5466  -23.3199   14.5127 C   0  0  0  0  0  0  0  0  0  0  0  0
  -24.2996  -30.4199   21.9977 C   0  0  0  0  0  0  0  0  0  0  0  0
  -32.8793  -27.2693   21.7819 C   0  0  0  0  0  0  0  0  0  0  0  0
  -32.4003  -26.1367   19.5855 C   0  0  0  0  0  0  0  0  0  0  0  0
  -31.9210  -24.9756   21.7311 C   0  0  0  0  0  0  0  0  0  0  0  0
  -22.3896  -20.5545   20.5292 C   0  0  0  0  0  0  0  0  0  0  0  0
  -23.4805  -20.7455   18.2839 C   0  0  0  0  0  0  0  0  0  0  0  0
  -21.1141  -19.9758   18.4574 C   0  0  0  0  0  0  0  0  0  0  0  0
  -20.7504  -26.3425   15.9665 C   0  0  0  0  0  0  0  0  0  0  0  0
  -26.6411  -28.7459   20.8682 C   0  0  0  0  0  0  0  0  0  0  0  0
  -29.5748  -25.0696   19.7168 C   0  0  0  0  0  0  0  0  0  0  0  0
  -25.7455  -28.3558   22.0531 C   0  0  0  0  0  0  0  0  0  0  0  0
  -21.6613  -22.4068   18.8847 C   0  0  1  0  0  0  0  0  0  0  0  0
  -21.6228  -24.0550   15.4713 C   0  0  2  0  0  0  0  0  0  0  0  0
  -24.3136  -28.8970   21.9586 C   0  0  1  0  0  0  0  0  0  1  0  0
  -31.8491  -26.3721   21.0268 C   0  0  0  0  0  0  0  0  0  0  0  0
  -22.1583  -20.9436   19.0554 C   0  0  0  0  0  0  0  0  0  0  0  0
  -26.6366  -17.4652   20.8783 N   0  0  0  0  0  0  0  0  0  0  0  0
  -28.1778  -26.9359   20.3292 N   0  0  0  0  0  0  0  0  0  0  0  0
  -27.8116  -18.0884   20.6854 N   0  0  0  0  0  0  0  0  0  0  0  0
  -20.4316  -23.6691   20.6221 N   0  0  0  0  0  0  0  0  0  0  0  0
  -27.7647  -21.9007   20.4536 N   0  0  0  0  0  0  0  0  0  0  0  0
  -29.9969  -17.7758   19.8269 N   0  0  0  0  0  0  0  0  0  0  0  0
  -28.0273  -13.7691   19.1467 N   0  0  0  0  0  0  0  0  0  0  0  0
  -18.4725  -22.4877   23.3600 N   0  0  0  0  0  0  0  0  0  0  0  0
  -21.4079  -22.7943   17.5012 N   0  0  0  0  0  0  0  0  0  0  0  0
  -28.7085  -24.0641   20.2908 N   0  0  0  0  0  0  0  0  0  0  0  0
  -21.6344  -25.5027   15.1178 N   0  3  0  0  0  0  0  0  0  0  0  0
  -29.9753  -14.9527   18.8960 O   0  0  0  0  0  0  0  0  0  0  0  0
  -20.7468  -22.9408   23.1484 O   0  0  0  0  0  0  0  0  0  0  0  0
  -19.3697  -22.0209   19.3603 O   0  0  0  0  0  0  0  0  0  0  0  0
  -22.8867  -24.5800   17.4623 O   0  0  0  0  0  0  0  0  0  0  0  0
  -29.3343  -22.4157   18.8259 O   0  0  0  0  0  0  0  0  0  0  0  0
  -22.7940  -12.4029   20.4817 O   0  0  0  0  0  0  0  0  0  0  0  0
  -23.5506  -28.4012   23.0578 O   0  0  0  0  0  0  0  0  0  1  0  0
  -24.1169   -7.3084   22.1247 F   0  0  0  0  0  0  0  0  0  0  0  0
  -21.5707  -11.2596   22.6815 F   0  0  0  0  0  0  0  0  0  0  0  0
  1  2  1  0  0  0  0
  1  5  2  0  0  0  0
  2  6  2  0  0  0  0
  3  9  2  0  0  0  0
  3 17  1  0  0  0  0
  4 10  1  0  0  0  0
  4 17  2  0  0  0  0
  5 19  1  0  0  0  0
  6 21  1  0  0  0  0
  7 11  2  0  0  0  0
  7 20  1  0  0  0  0
  8 14  2  0  0  0  0
  8 23  1  0  0  0  0
  9 24  1  0  0  0  0
 10 24  2  0  0  0  0
 11 25  1  0  0  0  0
 12 13  2  0  0  0  0
 12 26  1  0  0  0  0
 13 27  1  0  0  0  0
 14 30  1  0  0  0  0
 15 22  1  0  0  0  0
 15 25  2  0  0  0  0
 16 27  2  0  0  0  0
 16 28  1  0  0  0  0
 17 29  1  0  0  0  0
 18 29  1  0  0  0  0
 18 32  2  0  0  0  0
 18 33  1  0  0  0  0
 19 21  2  0  0  0  0
 19 38  1  0  0  0  0
 20 22  2  0  0  0  0
 20 39  1  0  0  0  0
 21 47  1  0  0  0  0
 22 40  1  0  0  0  0
 23 31  2  0  0  0  0
 23 65  1  0  0  0  0
 24 83  1  0  0  0  0
 25 84  1  0  0  0  0
 26 28  2  0  0  0  0
 26 83  1  0  0  0  0
 27 85  1  0  0  0  0
 28 86  1  0  0  0  0
 29 67  2  0  0  0  0
 30 59  1  0  0  0  0
 30 68  2  0  0  0  0
 31 60  1  0  0  0  0
 31 68  1  0  0  0  0
 32 69  1  0  0  0  0
 32 72  1  0  0  0  0
 33 73  1  0  0  0  0
 33 78  2  0  0  0  0
 34 48  1  0  0  0  0
 34 74  1  0  0  0  0
 34 79  2  0  0  0  0
 35 62  1  0  0  0  0
 35 70  1  0  0  0  0
 35 80  2  0  0  0  0
 36 63  1  0  0  0  0
 36 75  1  0  0  0  0
 36 81  2  0  0  0  0
 37 71  1  0  0  0  0
 37 76  1  0  0  0  0
 37 82  2  0  0  0  0
 38 41  1  0  0  0  0
 39 48  1  0  0  0  0
 40 70  1  0  0  0  0
 41 43  1  0  0  0  0
 42 44  1  0  0  0  0
 42 45  1  0  0  0  0
 43 47  1  0  0  0  0
 44 49  1  0  0  0  0
 45 71  1  0  0  0  0
 46 49  1  0  0  0  0
 46 71  1  0  0  0  0
 47 74  1  0  0  0  0
 48 70  1  0  0  0  0
 49 69  1  0  0  0  0
 50 63  1  0  0  0  0
 51 64  1  0  0  0  0
 52 65  1  0  0  0  0
 53 65  1  0  0  0  0
 54 65  1  0  0  0  0
 55 66  1  0  0  0  0
 56 66  1  0  0  0  0
 57 66  1  0  0  0  0
 58 77  1  0  0  0  0
 59 61  1  0  0  0  0
 60 76  1  0  0  0  0
 61 64  1  0  0  0  0
 62 66  1  0  0  0  0
 62 75  1  0  0  0  0
 63 77  1  0  0  0  0
 64 84  1  0  0  0  0
 67 69  1  0  0  0  0
M  CHG  1  77   1
M  ISO  4  37 100  64 101  76 100  84 101
M  END
> <Batch ID>
0106

> <Smiles>
CNC(C)C(=O)NC(C(=O)N1Cc2cc([101O:1][101CH:1](C)CCc3ccc(C(C)(C)C)c(C[100NH:0][100C:0](=O)N4CCCC(n5nc(-c6ccc(Oc7ccc(F)cc7F)cc6)c(C(N)=O)c5N)C4)n3)ccc2CC1C(=O)NC1CCCc2ccccc21)C(C)(C)C

> <Shape>
0.216

> <Color>
0.073

> <Negative vol penalty>
0.000

$$$$

  -OEChem-04052319483D

 85 93  0     1  0  0  0  0  0999 V2000
  -30.6724  -24.7520   17.6487 C   0  0  0  0  0  0  0  0  0  0  0  0
  -29.4728  -24.6717   18.3487 C   0  0  0  0  0  0  0  0  0  0  0  0
  -28.2923  -13.4781   19.3018 C   0  0  0  0  0  0  0  0  0  0  0  0
  -28.3559  -14.4978   21.4912 C   0  0  0  0  0  0  0  0  0  0  0  0
  -31.6555  -25.6538   18.0539 C   0  0  0  0  0  0  0  0  0  0  0  0
  -29.2560  -25.4924   19.4549 C   0  0  0  0  0  0  0  0  0  0  0  0
  -24.6458  -27.5879   19.4456 C   0  0  0  0  0  0  0  0  0  0  0  0
  -29.6610  -13.7046   19.1565 C   0  0  0  0  0  0  0  0  0  0  0  0
  -29.7246  -14.7243   21.3459 C   0  0  0  0  0  0  0  0  0  0  0  0
  -23.5795  -26.7825   19.8432 C   0  0  0  0  0  0  0  0  0  0  0  0
  -32.5454  -12.2984   20.2221 C   0  0  0  0  0  0  0  0  0  0  0  0
  -33.3257  -11.2555   19.7231 C   0  0  0  0  0  0  0  0  0  0  0  0
  -23.6334  -27.8010   22.0293 C   0  0  0  0  0  0  0  0  0  0  0  0
  -18.1579  -23.1511   22.2020 C   0  0  0  0  0  0  0  0  0  0  0  0
  -20.5488  -23.4247   22.0915 C   0  0  0  0  0  0  0  0  0  0  0  0
  -33.9897  -12.6435   17.8604 C   0  0  0  0  0  0  0  0  0  0  0  0
  -27.6398  -13.8748   20.4691 C   0  0  0  0  0  0  0  0  0  0  0  0
  -25.6057  -12.5030   21.1680 C   0  0  0  0  0  0  0  0  0  0  0  0
  -31.4468  -26.4929   19.1598 C   0  0  0  0  0  0  0  0  0  0  0  0
  -25.2219  -28.4997   20.3417 C   0  0  0  0  0  0  0  0  0  0  0  0
  -30.2378  -26.4054   19.8760 C   0  0  0  0  0  0  0  0  0  0  0  0
  -24.7052  -28.6186   21.6397 C   0  0  0  0  0  0  0  0  0  0  0  0
  -19.4335  -22.7741   22.6108 C   0  0  0  0  0  0  0  0  0  0  0  0
  -30.3771  -14.3277   20.1786 C   0  0  0  0  0  0  0  0  0  0  0  0
  -23.0750  -26.8869   21.1362 C   0  0  0  0  0  0  0  0  0  0  0  0
  -32.4872  -13.5139   19.5402 C   0  0  0  0  0  0  0  0  0  0  0  0
  -34.0479  -11.4280   18.5422 C   0  0  0  0  0  0  0  0  0  0  0  0
  -33.2094  -13.6864   18.3593 C   0  0  0  0  0  0  0  0  0  0  0  0
  -26.2259  -13.6416   20.6195 C   0  0  0  0  0  0  0  0  0  0  0  0
  -18.0286  -24.1772   21.2768 C   0  0  0  0  0  0  0  0  0  0  0  0
  -20.3589  -24.4438   21.1690 C   0  0  0  0  0  0  0  0  0  0  0  0
  -24.2611  -12.7702   21.0836 C   0  0  0  0  0  0  0  0  0  0  0  0
  -26.1926  -11.3105   21.7059 C   0  0  0  0  0  0  0  0  0  0  0  0
  -28.1063  -28.8641   21.6267 C   0  0  0  0  0  0  0  0  0  0  0  0
  -26.8081  -31.5926   22.8066 C   0  0  0  0  0  0  0  0  0  0  0  0
  -24.0012  -33.3111   23.7093 C   0  0  0  0  0  0  0  0  0  0  0  0
  -21.1234  -17.8642   20.8440 C   0  0  0  0  0  0  0  0  0  0  0  0
  -32.5577  -27.4185   19.5886 C   0  0  0  0  0  0  0  0  0  0  0  0
  -26.3542  -29.3802   19.8889 C   0  0  0  0  0  0  0  0  0  0  0  0
  -25.2750  -29.5963   22.6336 C   0  0  0  0  0  0  0  0  0  0  0  0
  -32.1002  -28.5170   20.5448 C   0  0  0  0  0  0  0  0  0  0  0  0
  -21.0859  -15.2129   18.4678 C   0  0  0  0  0  0  0  0  0  0  0  0
  -31.2233  -27.9333   21.6481 C   0  0  0  0  0  0  0  0  0  0  0  0
  -22.3430  -14.4069   18.7993 C   0  0  0  0  0  0  0  0  0  0  0  0
  -21.3096  -16.7114   18.6593 C   0  0  0  0  0  0  0  0  0  0  0  0
  -23.0832  -16.2898   20.3177 C   0  0  0  0  0  0  0  0  0  0  0  0
  -29.9554  -27.2965   21.0662 C   0  0  1  0  0  0  0  0  0  0  0  0
  -27.1981  -29.9098   21.0443 C   0  0  1  0  0  0  0  0  0  0  0  0
  -22.8898  -14.7688   20.1933 C   0  0  2  0  0  0  0  0  0  0  0  0
  -16.7028  -24.6376   20.7901 C   0  0  0  0  0  0  0  0  0  0  0  0
  -23.2604  -35.5052   24.6761 C   0  0  0  0  0  0  0  0  0  0  0  0
  -27.6963  -30.6695   25.5759 C   0  0  0  0  0  0  0  0  0  0  0  0
  -26.1385  -32.3625   26.5634 C   0  0  0  0  0  0  0  0  0  0  0  0
  -28.0390  -33.1061   25.1288 C   0  0  0  0  0  0  0  0  0  0  0  0
  -18.4410  -21.0518   24.0969 C   0  0  0  0  0  0  0  0  0  0  0  0
  -22.4415  -33.9845   21.2859 C   0  0  0  0  0  0  0  0  0  0  0  0
  -21.5085  -25.1923   20.5613 C   0  0  0  0  0  0  0  0  0  1  0  0
  -21.0680  -18.9349   23.0822 C   0  0  0  0  0  0  0  0  0  0  0  0
  -20.9223  -21.3268   23.9706 C   0  0  0  0  0  0  0  0  0  0  0  0
  -26.0534  -31.9622   24.0607 C   0  0  1  0  0  0  0  0  0  0  0  0
  -23.5434  -34.7254   23.4015 C   0  0  2  0  0  0  0  0  0  0  0  0
  -21.5711  -20.3731   22.9670 C   0  0  1  0  0  0  0  0  0  0  0  0
  -26.9721  -32.0052   25.3143 C   0  0  0  0  0  0  0  0  0  0  0  0
  -25.3474  -14.5634   20.2163 N   0  0  0  0  0  0  0  0  0  0  0  0
  -24.1615  -14.0043   20.5116 N   0  0  0  0  0  0  0  0  0  0  0  0
  -19.1194  -24.7867   20.7928 N   0  3  0  0  0  0  0  0  0  0  0  0
  -26.3854  -30.4307   22.1454 N   0  0  0  0  0  0  0  0  0  0  0  0
  -21.8268  -16.9873   20.0018 N   0  0  0  0  0  0  0  0  0  0  0  0
  -23.1661  -12.0675   21.4435 N   0  0  0  0  0  0  0  0  0  0  0  0
  -27.5897  -11.1994   21.7162 N   0  0  0  0  0  0  0  0  0  0  0  0
  -28.9914  -28.3178   20.7169 N   0  0  0  0  0  0  0  0  0  0  0  0
  -25.3757  -33.2217   23.7730 N   0  0  0  0  0  0  0  0  0  0  0  0
  -21.6790  -18.0656   22.1016 N   0  0  0  0  0  0  0  0  0  0  0  0
  -19.5965  -21.7351   23.5499 N   0  0  3  0  0  0  0  0  0  0  0  0
  -23.0497  -20.3881   23.1679 N   0  3  0  0  0  0  0  0  0  0  0  0
  -22.3002  -34.7002   22.5801 N   0  3  0  0  0  0  0  0  0  0  0  0
  -25.4982  -10.3644   22.1487 O   0  0  0  0  0  0  0  0  0  0  0  0
  -28.0121  -28.5753   22.8139 O   0  0  0  0  0  0  0  0  0  0  0  0
  -27.7339  -32.3124   22.4237 O   0  0  0  0  0  0  0  0  0  0  0  0
  -23.2178  -32.3797   23.8800 O   0  0  0  0  0  0  0  0  0  0  0  0
  -20.0749  -18.4219   20.5026 O   0  0  0  0  0  0  0  0  0  0  0  0
  -31.7127  -14.5486   20.0373 O   0  0  0  0  0  0  0  0  0  0  0  0
  -22.0347  -26.1015   21.5271 O   0  0  0  0  0  0  0  0  0  1  0  0
  -34.7984  -10.4269   18.0640 F   0  0  0  0  0  0  0  0  0  0  0  0
  -33.1584  -14.8522   17.7005 F   0  0  0  0  0  0  0  0  0  0  0  0
  1  2  1  0  0  0  0
  1  5  2  0  0  0  0
  2  6  2  0  0  0  0
  3  8  2  0  0  0  0
  3 17  1  0  0  0  0
  4  9  1  0  0  0  0
  4 17  2  0  0  0  0
  5 19  1  0  0  0  0
  6 21  1  0  0  0  0
  7 10  2  0  0  0  0
  7 20  1  0  0  0  0
  8 24  1  0  0  0  0
  9 24  2  0  0  0  0
 10 25  1  0  0  0  0
 11 12  2  0  0  0  0
 11 26  1  0  0  0  0
 12 27  1  0  0  0  0
 13 22  1  0  0  0  0
 13 25  2  0  0  0  0
 14 23  1  0  0  0  0
 14 30  2  0  0  0  0
 15 23  2  0  0  0  0
 15 31  1  0  0  0  0
 16 27  2  0  0  0  0
 16 28  1  0  0  0  0
 17 29  1  0  0  0  0
 18 29  1  0  0  0  0
 18 32  2  0  0  0  0
 18 33  1  0  0  0  0
 19 21  2  0  0  0  0
 19 38  1  0  0  0  0
 20 22  2  0  0  0  0
 20 39  1  0  0  0  0
 21 47  1  0  0  0  0
 22 40  1  0  0  0  0
 23 74  1  0  0  0  0
 24 82  1  0  0  0  0
 25 83  1  0  0  0  0
 26 28  2  0  0  0  0
 26 82  1  0  0  0  0
 27 84  1  0  0  0  0
 28 85  1  0  0  0  0
 29 64  2  0  0  0  0
 30 50  1  0  0  0  0
 30 66  1  0  0  0  0
 31 57  1  0  0  0  0
 31 66  2  0  0  0  0
 32 65  1  0  0  0  0
 32 69  1  0  0  0  0
 33 70  1  0  0  0  0
 33 77  2  0  0  0  0
 34 48  1  0  0  0  0
 34 71  1  0  0  0  0
 34 78  2  0  0  0  0
 35 60  1  0  0  0  0
 35 67  1  0  0  0  0
 35 79  2  0  0  0  0
 36 61  1  0  0  0  0
 36 72  1  0  0  0  0
 36 80  2  0  0  0  0
 37 68  1  0  0  0  0
 37 73  1  0  0  0  0
 37 81  2  0  0  0  0
 38 41  1  0  0  0  0
 39 48  1  0  0  0  0
 40 67  1  0  0  0  0
 41 43  1  0  0  0  0
 42 44  1  0  0  0  0
 42 45  1  0  0  0  0
 43 47  1  0  0  0  0
 44 49  1  0  0  0  0
 45 68  1  0  0  0  0
 46 49  1  0  0  0  0
 46 68  1  0  0  0  0
 47 71  1  0  0  0  0
 48 67  1  0  0  0  0
 49 65  1  0  0  0  0
 51 61  1  0  0  0  0
 52 63  1  0  0  0  0
 53 63  1  0  0  0  0
 54 63  1  0  0  0  0
 55 74  1  0  0  0  0
 56 76  1  0  0  0  0
 57 83  1  0  0  0  0
 58 62  1  0  0  0  0
 58 73  1  0  0  0  0
 59 62  1  0  0  0  0
 59 74  1  0  0  0  0
 60 63  1  0  0  0  0
 60 72  1  0  0  0  0
 61 76  1  0  0  0  0
 62 75  1  0  0  0  0
 64 65  1  0  0  0  0
M  CHG  3  66   1  75   1  76   1
M  ISO  4  37 100  57 101  73 100  83 101
M  END
> <Batch ID>
0106

> <Smiles>
CNC(C)C(=O)NC(C(=O)N1Cc2cc([101O:1][101CH2:1]c3cc(N(C)CC(N)C[100NH:0][100C:0](=O)N4CCCC(n5nc(-c6ccc(Oc7ccc(F)cc7F)cc6)c(C(N)=O)c5N)C4)cc(C)n3)ccc2CC1C(=O)NC1CCCc2ccccc21)C(C)(C)C

> <Shape>
0.249

> <Color>
0.083

> <Negative vol penalty>
0.000

$$$$

  -OEChem-04052319483D

 88 96  0     1  0  0  0  0  0999 V2000
  -19.3977  -33.4902   22.0589 C   0  0  0  0  0  0  0  0  0  0  0  0
  -20.7248  -33.2070   21.7522 C   0  0  0  0  0  0  0  0  0  0  0  0
  -26.6579  -12.8874   21.8192 C   0  0  0  0  0  0  0  0  0  0  0  0
  -25.9794  -14.3675   20.0343 C   0  0  0  0  0  0  0  0  0  0  0  0
  -18.6501  -32.5877   22.8142 C   0  0  0  0  0  0  0  0  0  0  0  0
  -21.3054  -32.0215   22.2016 C   0  0  0  0  0  0  0  0  0  0  0  0
  -25.5013  -28.6421   19.2896 C   0  0  0  0  0  0  0  0  0  0  0  0
  -31.2451  -23.3615   18.1565 C   0  0  0  0  0  0  0  0  0  0  0  0
  -30.0997  -22.5878   17.9693 C   0  0  0  0  0  0  0  0  0  0  0  0
  -25.3631  -12.3726   21.8846 C   0  0  0  0  0  0  0  0  0  0  0  0
  -24.6846  -13.8527   20.0996 C   0  0  0  0  0  0  0  0  0  0  0  0
  -26.8877  -28.5591   19.4110 C   0  0  0  0  0  0  0  0  0  0  0  0
  -22.3257  -10.4141   22.2764 C   0  0  0  0  0  0  0  0  0  0  0  0
  -22.1821   -9.0297   22.3664 C   0  0  0  0  0  0  0  0  0  0  0  0
  -26.6395  -26.6594   20.8769 C   0  0  0  0  0  0  0  0  0  0  0  0
  -31.5918  -22.3271   20.3121 C   0  0  0  0  0  0  0  0  0  0  0  0
  -23.3282   -8.7734   20.2551 C   0  0  0  0  0  0  0  0  0  0  0  0
  -26.9660  -13.8848   20.8941 C   0  0  0  0  0  0  0  0  0  0  0  0
  -29.3662  -13.9473   20.0324 C   0  0  0  0  0  0  0  0  0  0  0  0
  -19.2190  -31.3861   23.2650 C   0  0  0  0  0  0  0  0  0  0  0  0
  -24.6718  -27.7397   19.9708 C   0  0  0  0  0  0  0  0  0  0  0  0
  -20.5651  -31.1027   22.9648 C   0  0  0  0  0  0  0  0  0  0  0  0
  -25.2430  -26.7316   20.7605 C   0  0  0  0  0  0  0  0  0  0  0  0
  -31.9911  -23.2312   19.3279 C   0  0  0  0  0  0  0  0  0  0  0  0
  -29.7003  -21.6837   18.9536 C   0  0  0  0  0  0  0  0  0  0  0  0
  -30.4464  -21.5533   20.1250 C   0  0  0  0  0  0  0  0  0  0  0  0
  -24.3765  -12.8552   21.0248 C   0  0  0  0  0  0  0  0  0  0  0  0
  -27.4569  -27.5694   20.2070 C   0  0  0  0  0  0  0  0  0  0  0  0
  -22.9705  -10.9783   21.1757 C   0  0  0  0  0  0  0  0  0  0  0  0
  -22.6833   -8.2093   21.3558 C   0  0  0  0  0  0  0  0  0  0  0  0
  -23.4718  -10.1580   20.1650 C   0  0  0  0  0  0  0  0  0  0  0  0
  -28.3031  -14.4174   20.8265 C   0  0  0  0  0  0  0  0  0  0  0  0
  -30.4129  -14.7858   20.3286 C   0  0  0  0  0  0  0  0  0  0  0  0
  -29.4041  -12.8509   19.1093 C   0  0  0  0  0  0  0  0  0  0  0  0
  -22.4302  -28.0039   22.2089 C   0  0  0  0  0  0  0  0  0  0  0  0
  -22.0417  -24.8336   21.6426 C   0  0  0  0  0  0  0  0  0  0  0  0
  -23.3846  -21.9063   20.5138 C   0  0  0  0  0  0  0  0  0  0  0  0
  -30.6987  -20.4013   22.3511 C   0  0  0  0  0  0  0  0  0  0  0  0
  -18.3853  -30.4635   24.1185 C   0  0  0  0  0  0  0  0  0  0  0  0
  -23.1790  -27.8260   19.8081 C   0  0  0  0  0  0  0  0  0  0  0  0
  -24.3971  -25.7258   21.4963 C   0  0  0  0  0  0  0  0  0  0  0  0
  -18.9641  -29.0561   24.2389 C   0  0  0  0  0  0  0  0  0  0  0  0
  -32.1381  -17.5173   23.8638 C   0  0  0  0  0  0  0  0  0  0  0  0
  -20.4575  -29.1173   24.5436 C   0  0  0  0  0  0  0  0  0  0  0  0
  -31.4191  -16.3522   23.1799 C   0  0  0  0  0  0  0  0  0  0  0  0
  -31.2036  -18.7037   24.0942 C   0  0  0  0  0  0  0  0  0  0  0  0
  -29.7696  -18.0067   22.2162 C   0  0  0  0  0  0  0  0  0  0  0  0
  -21.2230  -29.8158   23.4133 C   0  0  1  0  0  0  0  0  0  0  0  0
  -22.4142  -27.1744   20.9561 C   0  0  1  0  0  0  0  0  0  0  0  0
  -30.6865  -16.8126   21.9044 C   0  0  2  0  0  0  0  0  0  0  0  0
  -34.3055  -23.7387   18.4794 C   0  0  0  0  0  0  0  0  0  0  0  0
  -22.8381  -19.4759   20.2108 C   0  0  0  0  0  0  0  0  0  0  0  0
  -22.3999  -24.3820   24.6389 C   0  0  0  0  0  0  0  0  0  0  0  0
  -22.7947  -21.9574   24.1556 C   0  0  0  0  0  0  0  0  0  0  0  0
  -20.6023  -23.0005   23.5833 C   0  0  0  0  0  0  0  0  0  0  0  0
  -23.7641  -22.0669   17.5830 C   0  0  0  0  0  0  0  0  0  0  0  0
  -27.5031  -18.6416   18.1692 C   0  0  0  0  0  0  0  0  0  0  0  0
  -29.6991  -19.3215   17.2121 C   0  0  0  0  0  0  0  0  0  0  0  0
  -28.4687  -20.8685   18.7266 C   0  0  0  0  0  0  0  0  0  0  0  0
  -30.6730  -27.6210   21.8323 C   0  0  0  0  0  0  0  0  0  0  0  0
  -31.7044  -27.3744   20.7416 C   0  0  0  0  0  0  0  0  0  0  0  0
  -32.9506  -25.5831   19.5263 C   0  0  0  0  0  0  0  0  0  0  0  0
  -29.3220  -26.9726   21.5565 C   0  0  0  0  0  0  0  0  0  1  0  0
  -33.2426  -24.0769   19.5314 C   0  0  1  0  0  0  0  0  0  0  0  0
  -22.6424  -23.5663   22.2013 C   0  0  1  0  0  0  0  0  0  0  0  0
  -22.8469  -20.8518   19.5632 C   0  0  2  0  0  0  0  0  0  0  0  0
  -22.1260  -23.2466   23.6326 C   0  0  0  0  0  0  0  0  0  0  0  0
  -28.6433  -15.4725   21.5714 N   0  0  0  0  0  0  0  0  0  0  0  0
  -29.9320  -15.6724   21.2467 N   0  0  0  0  0  0  0  0  0  0  0  0
  -22.9424  -25.8555   21.3105 N   0  0  0  0  0  0  0  0  0  0  0  0
  -30.5482  -19.0870   22.8418 N   0  0  0  0  0  0  0  0  0  0  0  0
  -31.6886  -14.8438   19.8908 N   0  0  0  0  0  0  0  0  0  0  0  0
  -28.2400  -12.0927   18.9242 N   0  0  0  0  0  0  0  0  0  0  0  0
  -30.0573  -20.6400   21.1361 N   0  0  0  0  0  0  0  0  0  0  0  0
  -21.3976  -28.9184   22.2913 N   0  0  0  0  0  0  0  0  0  0  0  0
  -22.3725  -22.5200   21.2211 N   0  0  0  0  0  0  0  0  0  0  0  0
  -23.6859  -20.7870   18.3333 N   0  3  0  0  0  0  0  0  0  0  0  0
  -31.9909  -25.9265   20.6120 N   0  3  0  0  0  0  0  0  0  0  0  0
  -28.7575  -19.4501   18.3823 N   0  3  0  0  0  0  0  0  0  0  0  0
  -30.4444  -12.5421   18.4799 O   0  0  0  0  0  0  0  0  0  0  0  0
  -23.3131  -27.8262   23.0399 O   0  0  0  0  0  0  0  0  0  0  0  0
  -20.8190  -24.9112   21.4992 O   0  0  0  0  0  0  0  0  0  0  0  0
  -24.5829  -22.1576   20.6210 O   0  0  0  0  0  0  0  0  0  0  0  0
  -31.3713  -21.2445   22.9499 O   0  0  0  0  0  0  0  0  0  0  0  0
  -23.1131  -12.3530   21.0881 O   0  0  0  0  0  0  0  0  0  0  0  0
  -28.8099  -27.4865   20.3278 O   0  0  0  0  0  0  0  0  0  1  0  0
  -22.5466   -6.8797   21.4431 F   0  0  0  0  0  0  0  0  0  0  0  0
  -24.0932  -10.6941   19.1057 F   0  0  0  0  0  0  0  0  0  0  0  0
  1  2  1  0  0  0  0
  1  5  2  0  0  0  0
  2  6  2  0  0  0  0
  3 10  2  0  0  0  0
  3 18  1  0  0  0  0
  4 11  1  0  0  0  0
  4 18  2  0  0  0  0
  5 20  1  0  0  0  0
  6 22  1  0  0  0  0
  7 12  2  0  0  0  0
  7 21  1  0  0  0  0
  8  9  2  0  0  0  0
  8 24  1  0  0  0  0
  9 25  1  0  0  0  0
 10 27  1  0  0  0  0
 11 27  2  0  0  0  0
 12 28  1  0  0  0  0
 13 14  2  0  0  0  0
 13 29  1  0  0  0  0
 14 30  1  0  0  0  0
 15 23  1  0  0  0  0
 15 28  2  0  0  0  0
 16 24  2  0  0  0  0
 16 26  1  0  0  0  0
 17 30  2  0  0  0  0
 17 31  1  0  0  0  0
 18 32  1  0  0  0  0
 19 32  1  0  0  0  0
 19 33  2  0  0  0  0
 19 34  1  0  0  0  0
 20 22  2  0  0  0  0
 20 39  1  0  0  0  0
 21 23  2  0  0  0  0
 21 40  1  0  0  0  0
 22 48  1  0  0  0  0
 23 41  1  0  0  0  0
 24 64  1  0  0  0  0
 25 26  2  0  0  0  0
 25 59  1  0  0  0  0
 26 74  1  0  0  0  0
 27 85  1  0  0  0  0
 28 86  1  0  0  0  0
 29 31  2  0  0  0  0
 29 85  1  0  0  0  0
 30 87  1  0  0  0  0
 31 88  1  0  0  0  0
 32 68  2  0  0  0  0
 33 69  1  0  0  0  0
 33 72  1  0  0  0  0
 34 73  1  0  0  0  0
 34 80  2  0  0  0  0
 35 49  1  0  0  0  0
 35 75  1  0  0  0  0
 35 81  2  0  0  0  0
 36 65  1  0  0  0  0
 36 70  1  0  0  0  0
 36 82  2  0  0  0  0
 37 66  1  0  0  0  0
 37 76  1  0  0  0  0
 37 83  2  0  0  0  0
 38 71  1  0  0  0  0
 38 74  1  0  0  0  0
 38 84  2  0  0  0  0
 39 42  1  0  0  0  0
 40 49  1  0  0  0  0
 41 70  1  0  0  0  0
 42 44  1  0  0  0  0
 43 45  1  0  0  0  0
 43 46  1  0  0  0  0
 44 48  1  0  0  0  0
 45 50  1  0  0  0  0
 46 71  1  0  0  0  0
 47 50  1  0  0  0  0
 47 71  1  0  0  0  0
 48 75  1  0  0  0  0
 49 70  1  0  0  0  0
 50 69  1  0  0  0  0
 51 64  1  0  0  0  0
 52 66  1  0  0  0  0
 53 67  1  0  0  0  0
 54 67  1  0  0  0  0
 55 67  1  0  0  0  0
 56 77  1  0  0  0  0
 57 79  1  0  0  0  0
 58 79  1  0  0  0  0
 59 79  1  0  0  0  0
 60 61  1  0  0  0  0
 60 63  1  0  0  0  0
 61 78  1  0  0  0  0
 62 64  1  0  0  0  0
 62 78  1  0  0  0  0
 63 86  1  0  0  0  0
 65 67  1  0  0  0  0
 65 76  1  0  0  0  0
 66 77  1  0  0  0  0
 68 69  1  0  0  0  0
M  CHG  3  77   1  78   1  79   1
M  ISO  4  38 100  63 101  74 100  86 101
M  END
> <Batch ID>
0106

> <Smiles>
CNC(C)C(=O)NC(C(=O)N1Cc2cc([101O:1][101CH2:1]CCNCC(C)c3ccc(CN(C)C)c([100NH:0][100C:0](=O)N4CCCC(n5nc(-c6ccc(Oc7ccc(F)cc7F)cc6)c(C(N)=O)c5N)C4)c3)ccc2CC1C(=O)NC1CCCc2ccccc21)C(C)(C)C

> <Shape>
0.267

> <Color>
0.082

> <Negative vol penalty>
0.000

$$$$

  -OEChem-04052319483D

 86 94  0     1  0  0  0  0  0999 V2000
  -31.7076  -33.4884   20.8894 C   0  0  0  0  0  0  0  0  0  0  0  0
  -31.2290  -32.1896   20.7502 C   0  0  0  0  0  0  0  0  0  0  0  0
  -23.6857   -9.2665   20.3137 C   0  0  0  0  0  0  0  0  0  0  0  0
  -23.2205  -11.1993   21.6867 C   0  0  0  0  0  0  0  0  0  0  0  0
  -31.1458  -34.3388   21.8409 C   0  0  0  0  0  0  0  0  0  0  0  0
  -30.1891  -31.7399   21.5631 C   0  0  0  0  0  0  0  0  0  0  0  0
  -26.6597  -29.1947   18.9727 C   0  0  0  0  0  0  0  0  0  0  0  0
  -22.7264   -8.5369   21.0158 C   0  0  0  0  0  0  0  0  0  0  0  0
  -22.2611  -10.4697   22.3887 C   0  0  0  0  0  0  0  0  0  0  0  0
  -26.9506  -27.8756   18.6276 C   0  0  0  0  0  0  0  0  0  0  0  0
  -22.4963   -6.9327   23.9820 C   0  0  0  0  0  0  0  0  0  0  0  0
  -22.8311   -5.6388   24.3809 C   0  0  0  0  0  0  0  0  0  0  0  0
  -25.6175  -27.1025   20.4835 C   0  0  0  0  0  0  0  0  0  0  0  0
  -20.9905   -4.7626   23.0842 C   0  0  0  0  0  0  0  0  0  0  0  0
  -23.9328  -10.5977   20.6492 C   0  0  0  0  0  0  0  0  0  0  0  0
  -24.9373  -11.6336   18.5455 C   0  0  0  0  0  0  0  0  0  0  0  0
  -30.0920  -33.9025   22.6593 C   0  0  0  0  0  0  0  0  0  0  0  0
  -25.8530  -29.4783   20.0841 C   0  0  0  0  0  0  0  0  0  0  0  0
  -29.6136  -32.5848   22.5273 C   0  0  0  0  0  0  0  0  0  0  0  0
  -25.3157  -28.4259   20.8390 C   0  0  0  0  0  0  0  0  0  0  0  0
  -22.0141   -9.1384   22.0533 C   0  0  0  0  0  0  0  0  0  0  0  0
  -26.4319  -26.8293   19.3847 C   0  0  0  0  0  0  0  0  0  0  0  0
  -21.4084   -7.1417   23.1342 C   0  0  0  0  0  0  0  0  0  0  0  0
  -22.0783   -4.5537   23.9320 C   0  0  0  0  0  0  0  0  0  0  0  0
  -20.6556   -6.0566   22.6853 C   0  0  0  0  0  0  0  0  0  0  0  0
  -24.9240  -11.3518   19.9247 C   0  0  0  0  0  0  0  0  0  0  0  0
  -26.0788  -12.3739   18.3573 C   0  0  0  0  0  0  0  0  0  0  0  0
  -24.0014  -11.2597   17.5257 C   0  0  0  0  0  0  0  0  0  0  0  0
  -26.2798  -31.0207   22.8305 C   0  0  0  0  0  0  0  0  0  0  0  0
  -23.0981  -30.4900   23.1736 C   0  0  0  0  0  0  0  0  0  0  0  0
  -20.8010  -27.7746   22.5679 C   0  0  0  0  0  0  0  0  0  0  0  0
  -29.6066  -16.3264   19.8204 C   0  0  0  0  0  0  0  0  0  0  0  0
  -29.5485  -34.8426   23.7059 C   0  0  0  0  0  0  0  0  0  0  0  0
  -25.5267  -30.9060   20.4272 C   0  0  0  0  0  0  0  0  0  0  0  0
  -24.4277  -28.6766   22.0294 C   0  0  0  0  0  0  0  0  0  0  0  0
  -28.1984  -34.4095   24.2716 C   0  0  0  0  0  0  0  0  0  0  0  0
  -29.9728  -13.2823   21.4408 C   0  0  0  0  0  0  0  0  0  0  0  0
  -28.2173  -32.9246   24.6203 C   0  0  0  0  0  0  0  0  0  0  0  0
  -28.6953  -12.5220   21.0875 C   0  0  0  0  0  0  0  0  0  0  0  0
  -29.5903  -21.0986   17.9939 C   0  0  0  0  0  0  0  0  0  0  0  0
  -27.9438  -19.1596   18.5974 C   0  0  0  0  0  0  0  0  0  0  0  0
  -29.6720  -14.7488   21.7265 C   0  0  0  0  0  0  0  0  0  0  0  0
  -27.6991  -14.7029   20.2343 C   0  0  0  0  0  0  0  0  0  0  0  0
  -29.7957  -20.7772   16.5214 C   0  0  0  0  0  0  0  0  0  0  0  0
  -29.6884  -18.2542   16.9172 C   0  0  0  0  0  0  0  0  0  0  0  0
  -28.4703  -32.0683   23.3735 C   0  0  1  0  0  0  0  0  0  0  0  0
  -25.1146  -31.0911   21.8844 C   0  0  1  0  0  0  0  0  0  0  0  0
  -28.2540  -20.6756   18.6289 C   0  0  2  0  0  0  0  0  0  0  0  0
  -27.9455  -13.2102   19.9334 C   0  0  2  0  0  0  0  0  0  0  0  0
  -29.1663  -18.2635   18.3603 C   0  0  2  0  0  0  0  0  0  0  0  0
  -18.3421  -27.7986   22.0670 C   0  0  0  0  0  0  0  0  0  0  0  0
  -25.4932  -21.7591   20.0825 C   0  0  0  0  0  0  0  0  0  0  0  0
  -24.5470  -21.4685   17.7827 C   0  0  0  0  0  0  0  0  0  0  0  0
  -22.7754  -30.1262   26.1858 C   0  0  0  0  0  0  0  0  0  0  0  0
  -20.8540  -28.5889   25.7240 C   0  0  0  0  0  0  0  0  0  0  0  0
  -20.7368  -30.9773   25.0135 C   0  0  0  0  0  0  0  0  0  0  0  0
  -27.6374  -16.3315   18.2308 C   0  0  0  0  0  0  0  0  0  0  0  0
  -21.1736  -26.2082   20.0847 C   0  0  0  0  0  0  0  0  0  0  0  0
  -26.5718  -23.8233   17.3736 C   0  0  0  0  0  0  0  0  0  0  0  0
  -26.9425  -25.2631   17.6694 C   0  0  0  0  0  0  0  0  0  1  0  0
  -22.2562  -29.3865   23.7672 C   0  0  1  0  0  0  0  0  0  0  0  0
  -19.7427  -27.7046   21.4818 C   0  0  2  0  0  0  0  0  0  0  0  0
  -27.0795  -21.4762   18.0608 C   0  0  1  0  0  0  0  0  0  0  0  0
  -25.7208  -21.1247   18.7070 C   0  0  0  0  0  0  0  0  0  0  0  0
  -21.6813  -29.7645   25.1615 C   0  0  0  0  0  0  0  0  0  0  0  0
  -25.9739  -11.8706   20.5671 N   0  0  0  0  0  0  0  0  0  0  0  0
  -26.6575  -12.4859   19.5872 N   0  0  0  0  0  0  0  0  0  0  0  0
  -24.1429  -30.0898   22.3285 N   0  0  0  0  0  0  0  0  0  0  0  0
  -28.9550  -15.3693   20.6122 N   0  0  0  0  0  0  0  0  0  0  0  0
  -26.6339  -12.9335   17.2613 N   0  0  0  0  0  0  0  0  0  0  0  0
  -22.8830  -10.4984   17.8918 N   0  0  0  0  0  0  0  0  0  0  0  0
  -27.2635  -31.9588   22.5822 N   0  0  0  0  0  0  0  0  0  0  0  0
  -21.2414  -29.0656   22.7695 N   0  0  0  0  0  0  0  0  0  0  0  0
  -28.8725  -16.8975   18.7699 N   0  0  0  0  0  0  0  0  0  0  0  0
  -29.2670  -19.4466   16.1254 N   0  3  0  0  0  0  0  0  0  0  0  0
  -19.8537  -26.4213   20.7323 N   0  3  0  0  0  0  0  0  0  0  0  0
  -27.3934  -22.9219   18.2203 N   0  3  0  0  0  0  0  0  0  0  0  0
  -24.1610  -11.5770   16.3226 O   0  0  0  0  0  0  0  0  0  0  0  0
  -26.2852  -30.1786   23.7208 O   0  0  0  0  0  0  0  0  0  0  0  0
  -22.8339  -31.6643   23.4438 O   0  0  0  0  0  0  0  0  0  0  0  0
  -21.1947  -26.7837   23.1792 O   0  0  0  0  0  0  0  0  0  0  0  0
  -30.7778  -16.6592   20.0434 O   0  0  0  0  0  0  0  0  0  0  0  0
  -21.0777   -8.4268   22.7384 O   0  0  0  0  0  0  0  0  0  0  0  0
  -26.7149  -25.5409   19.0505 O   0  0  0  0  0  0  0  0  0  1  0  0
  -22.4009   -3.3111   24.3140 F   0  0  0  0  0  0  0  0  0  0  0  0
  -19.6101   -6.2510   21.8698 F   0  0  0  0  0  0  0  0  0  0  0  0
  1  2  1  0  0  0  0
  1  5  2  0  0  0  0
  2  6  2  0  0  0  0
  3  8  2  0  0  0  0
  3 15  1  0  0  0  0
  4  9  1  0  0  0  0
  4 15  2  0  0  0  0
  5 17  1  0  0  0  0
  6 19  1  0  0  0  0
  7 10  2  0  0  0  0
  7 18  1  0  0  0  0
  8 21  1  0  0  0  0
  9 21  2  0  0  0  0
 10 22  1  0  0  0  0
 11 12  2  0  0  0  0
 11 23  1  0  0  0  0
 12 24  1  0  0  0  0
 13 20  1  0  0  0  0
 13 22  2  0  0  0  0
 14 24  2  0  0  0  0
 14 25  1  0  0  0  0
 15 26  1  0  0  0  0
 16 26  1  0  0  0  0
 16 27  2  0  0  0  0
 16 28  1  0  0  0  0
 17 19  2  0  0  0  0
 17 33  1  0  0  0  0
 18 20  2  0  0  0  0
 18 34  1  0  0  0  0
 19 46  1  0  0  0  0
 20 35  1  0  0  0  0
 21 83  1  0  0  0  0
 22 84  1  0  0  0  0
 23 25  2  0  0  0  0
 23 83  1  0  0  0  0
 24 85  1  0  0  0  0
 25 86  1  0  0  0  0
 26 66  2  0  0  0  0
 27 67  1  0  0  0  0
 27 70  1  0  0  0  0
 28 71  1  0  0  0  0
 28 78  2  0  0  0  0
 29 47  1  0  0  0  0
 29 72  1  0  0  0  0
 29 79  2  0  0  0  0
 30 61  1  0  0  0  0
 30 68  1  0  0  0  0
 30 80  2  0  0  0  0
 31 62  1  0  0  0  0
 31 73  1  0  0  0  0
 31 81  2  0  0  0  0
 32 69  1  0  0  0  0
 32 74  1  0  0  0  0
 32 82  2  0  0  0  0
 33 36  1  0  0  0  0
 34 47  1  0  0  0  0
 35 68  1  0  0  0  0
 36 38  1  0  0  0  0
 37 39  1  0  0  0  0
 37 42  1  0  0  0  0
 38 46  1  0  0  0  0
 39 49  1  0  0  0  0
 40 44  1  0  0  0  0
 40 48  1  0  0  0  0
 41 48  1  0  0  0  0
 41 50  1  0  0  0  0
 42 69  1  0  0  0  0
 43 49  1  0  0  0  0
 43 69  1  0  0  0  0
 44 75  1  0  0  0  0
 45 50  1  0  0  0  0
 45 75  1  0  0  0  0
 46 72  1  0  0  0  0
 47 68  1  0  0  0  0
 48 63  1  0  0  0  0
 49 67  1  0  0  0  0
 50 74  1  0  0  0  0
 51 62  1  0  0  0  0
 52 64  1  0  0  0  0
 53 64  1  0  0  0  0
 54 65  1  0  0  0  0
 55 65  1  0  0  0  0
 56 65  1  0  0  0  0
 57 74  1  0  0  0  0
 58 76  1  0  0  0  0
 59 60  1  0  0  0  0
 59 77  1  0  0  0  0
 60 84  1  0  0  0  0
 61 65  1  0  0  0  0
 61 73  1  0  0  0  0
 62 76  1  0  0  0  0
 63 64  1  0  0  0  0
 63 77  1  0  0  0  0
 66 67  1  0  0  0  0
M  CHG  3  75   1  76   1  77   1
M  ISO  4  32 100  60 101  74 100  84 101
M  END
> <Batch ID>
0106

> <Smiles>
CNC(C)C(=O)NC(C(=O)N1Cc2cc([101O:1][101CH2:1]CNC(C(C)C)C3CCNCC([100N:0](C)[100C:0](=O)N4CCCC(n5nc(-c6ccc(Oc7ccc(F)cc7F)cc6)c(C(N)=O)c5N)C4)C3)ccc2CC1C(=O)NC1CCCc2ccccc21)C(C)(C)C

> <Shape>
0.276

> <Color>
0.104

> <Negative vol penalty>
0.000

$$$$

  -OEChem-04052319483D

 85 93  0     1  0  0  0  0  0999 V2000
  -25.4775  -11.4686   20.2919 C   0  0  0  0  0  0  0  0  0  0  0  0
  -26.5779  -12.2978   20.1001 C   0  0  0  0  0  0  0  0  0  0  0  0
  -27.0511  -28.5945   19.2877 C   0  0  0  0  0  0  0  0  0  0  0  0
  -26.2177  -27.2799   21.1355 C   0  0  0  0  0  0  0  0  0  0  0  0
  -24.2899  -11.9942   20.7993 C   0  0  0  0  0  0  0  0  0  0  0  0
  -26.4911  -13.6536   20.4146 C   0  0  0  0  0  0  0  0  0  0  0  0
  -30.5427  -15.3224   22.9532 C   0  0  0  0  0  0  0  0  0  0  0  0
  -25.8497  -29.3022   19.2493 C   0  0  0  0  0  0  0  0  0  0  0  0
  -25.0163  -27.9876   21.0972 C   0  0  0  0  0  0  0  0  0  0  0  0
  -31.6975  -15.5752   22.2141 C   0  0  0  0  0  0  0  0  0  0  0  0
  -23.8626  -30.9910   22.1309 C   0  0  0  0  0  0  0  0  0  0  0  0
  -23.3308  -31.4283   23.3440 C   0  0  0  0  0  0  0  0  0  0  0  0
  -31.1810  -17.9315   22.2244 C   0  0  0  0  0  0  0  0  0  0  0  0
  -21.3346  -30.1297   22.9370 C   0  0  0  0  0  0  0  0  0  0  0  0
  -32.2700  -15.9330   16.6714 C   0  0  0  0  0  0  0  0  0  0  0  0
  -27.2351  -27.5833   20.2307 C   0  0  0  0  0  0  0  0  0  0  0  0
  -29.6267  -27.1695   21.0161 C   0  0  0  0  0  0  0  0  0  0  0  0
  -24.1915  -13.3551   21.1292 C   0  0  0  0  0  0  0  0  0  0  0  0
  -29.6912  -16.3728   23.3248 C   0  0  0  0  0  0  0  0  0  0  0  0
  -25.3007  -14.1982   20.9256 C   0  0  0  0  0  0  0  0  0  0  0  0
  -30.0173  -17.6897   22.9704 C   0  0  0  0  0  0  0  0  0  0  0  0
  -32.1770  -16.9470   17.5990 C   0  0  0  0  0  0  0  0  0  0  0  0
  -30.7997  -17.1734   17.8416 C   0  0  0  0  0  0  0  0  0  0  0  0
  -24.8324  -28.9988   20.1541 C   0  0  0  0  0  0  0  0  0  0  0  0
  -32.0153  -16.8796   21.8471 C   0  0  0  0  0  0  0  0  0  0  0  0
  -23.1304  -30.1231   21.3208 C   0  0  0  0  0  0  0  0  0  0  0  0
  -22.0668  -30.9976   23.7470 C   0  0  0  0  0  0  0  0  0  0  0  0
  -21.8664  -29.6924   21.7238 C   0  0  0  0  0  0  0  0  0  0  0  0
  -28.4757  -26.8515   20.2705 C   0  0  0  0  0  0  0  0  0  0  0  0
  -30.0929  -16.2907   17.0550 C   0  0  0  0  0  0  0  0  0  0  0  0
  -30.5201  -26.1720   20.7105 C   0  0  0  0  0  0  0  0  0  0  0  0
  -29.8668  -28.2681   21.9054 C   0  0  0  0  0  0  0  0  0  0  0  0
  -26.6634  -17.1272   22.7191 C   0  0  0  0  0  0  0  0  0  0  0  0
  -27.2278  -19.4859   24.8732 C   0  0  0  0  0  0  0  0  0  0  0  0
  -29.4978  -21.4928   26.4438 C   0  0  0  0  0  0  0  0  0  0  0  0
  -29.7351  -20.5988   18.9277 C   0  0  0  0  0  0  0  0  0  0  0  0
  -22.8722  -13.8870   21.6303 C   0  0  0  0  0  0  0  0  0  0  0  0
  -28.4633  -16.0864   24.1449 C   0  0  0  0  0  0  0  0  0  0  0  0
  -29.1470  -18.8549   23.3620 C   0  0  0  0  0  0  0  0  0  0  0  0
  -22.9799  -15.2592   22.2905 C   0  0  0  0  0  0  0  0  0  0  0  0
  -31.6747  -23.1232   17.2063 C   0  0  0  0  0  0  0  0  0  0  0  0
  -23.8228  -16.1989   21.4341 C   0  0  0  0  0  0  0  0  0  0  0  0
  -31.1740  -24.4026   17.8790 C   0  0  0  0  0  0  0  0  0  0  0  0
  -30.5429  -22.1168   17.0209 C   0  0  0  0  0  0  0  0  0  0  0  0
  -29.3186  -23.0419   18.9494 C   0  0  0  0  0  0  0  0  0  0  0  0
  -25.2533  -15.6691   21.2781 C   0  0  1  0  0  0  0  0  0  0  0  0
  -27.3997  -17.1739   24.0280 C   0  0  1  0  0  0  0  0  0  0  0  0
  -30.4205  -24.0907   19.1856 C   0  0  2  0  0  0  0  0  0  0  0  0
  -28.6344  -16.0948   16.9149 C   0  0  0  0  0  0  0  0  0  0  0  0
  -34.1441  -18.4437   17.1744 C   0  0  0  0  0  0  0  0  0  0  0  0
  -29.6550  -23.3483   28.1260 C   0  0  0  0  0  0  0  0  0  0  0  0
  -31.1993  -13.1318   15.8577 C   0  0  0  0  0  0  0  0  0  0  0  0
  -31.1496  -14.8373   13.9883 C   0  0  0  0  0  0  0  0  0  0  0  0
  -26.2304  -21.4669   22.7778 C   0  0  0  0  0  0  0  0  0  0  0  0
  -27.2817  -23.3039   24.1151 C   0  0  0  0  0  0  0  0  0  0  0  0
  -25.4501  -21.9319   25.1079 C   0  0  0  0  0  0  0  0  0  0  0  0
  -31.1586  -19.8561   28.2663 C   0  0  0  0  0  0  0  0  0  0  0  0
  -30.2247  -18.1716   18.7669 C   0  0  0  0  0  0  0  0  0  0  0  0
  -34.2737  -16.7521   19.0425 C   0  0  0  0  0  0  0  0  0  0  0  0
  -33.5860  -16.1022   20.2395 C   0  0  0  0  0  0  0  0  0  1  0  0
  -33.3442  -17.6804   18.2369 C   0  0  2  0  0  0  0  0  0  0  0  0
  -27.7390  -20.9043   24.7961 C   0  0  1  0  0  0  0  0  0  0  0  0
  -29.6887  -21.8436   27.9083 C   0  0  2  0  0  0  0  0  0  0  0  0
  -30.6761  -14.4954   15.4022 C   0  0  0  0  0  0  0  0  0  0  0  0
  -26.6909  -21.8798   24.1900 C   0  0  0  0  0  0  0  0  0  0  0  0
  -28.6218  -25.7392   19.5456 N   0  0  0  0  0  0  0  0  0  0  0  0
  -30.9970  -15.5416   16.3482 N   0  0  0  0  0  0  0  0  0  0  0  0
  -29.8752  -25.3495   19.8343 N   0  0  0  0  0  0  0  0  0  0  0  0
  -27.9540  -18.5230   24.1583 N   0  0  0  0  0  0  0  0  0  0  0  0
  -29.8789  -21.8496   18.3046 N   0  0  0  0  0  0  0  0  0  0  0  0
  -31.7866  -25.9271   21.1084 N   0  0  0  0  0  0  0  0  0  0  0  0
  -28.8409  -29.2018   22.1061 N   0  0  0  0  0  0  0  0  0  0  0  0
  -26.0216  -15.9277   22.4770 N   0  0  0  0  0  0  0  0  0  0  0  0
  -28.1730  -21.2556   26.1439 N   0  0  0  0  0  0  0  0  0  0  0  0
  -30.2877  -19.5199   18.2484 N   0  0  0  0  0  0  0  0  0  0  0  0
  -30.9980  -21.3271   28.3982 N   0  3  0  0  0  0  0  0  0  0  0  0
  -30.9643  -28.4265   22.4918 O   0  0  0  0  0  0  0  0  0  0  0  0
  -26.6754  -18.1075   21.9838 O   0  0  0  0  0  0  0  0  0  0  0  0
  -26.2254  -19.2402   25.5488 O   0  0  0  0  0  0  0  0  0  0  0  0
  -30.4301  -21.4386   25.6448 O   0  0  0  0  0  0  0  0  0  0  0  0
  -29.1610  -20.4546   20.0125 O   0  0  0  0  0  0  0  0  0  0  0  0
  -23.6600  -29.6893   20.1171 O   0  0  0  0  0  0  0  0  0  0  0  0
  -33.1415  -17.1290   21.1251 O   0  0  0  0  0  0  0  0  0  1  0  0
  -21.5569  -31.4164   24.9127 F   0  0  0  0  0  0  0  0  0  0  0  0
  -21.1587  -28.8577   20.9504 F   0  0  0  0  0  0  0  0  0  0  0  0
  1  2  1  0  0  0  0
  1  5  2  0  0  0  0
  2  6  2  0  0  0  0
  3  8  2  0  0  0  0
  3 16  1  0  0  0  0
  4  9  1  0  0  0  0
  4 16  2  0  0  0  0
  5 18  1  0  0  0  0
  6 20  1  0  0  0  0
  7 10  2  0  0  0  0
  7 19  1  0  0  0  0
  8 24  1  0  0  0  0
  9 24  2  0  0  0  0
 10 25  1  0  0  0  0
 11 12  2  0  0  0  0
 11 26  1  0  0  0  0
 12 27  1  0  0  0  0
 13 21  1  0  0  0  0
 13 25  2  0  0  0  0
 14 27  2  0  0  0  0
 14 28  1  0  0  0  0
 15 22  2  0  0  0  0
 15 67  1  0  0  0  0
 16 29  1  0  0  0  0
 17 29  1  0  0  0  0
 17 31  2  0  0  0  0
 17 32  1  0  0  0  0
 18 20  2  0  0  0  0
 18 37  1  0  0  0  0
 19 21  2  0  0  0  0
 19 38  1  0  0  0  0
 20 46  1  0  0  0  0
 21 39  1  0  0  0  0
 22 23  1  0  0  0  0
 22 61  1  0  0  0  0
 23 30  2  0  0  0  0
 23 58  1  0  0  0  0
 24 82  1  0  0  0  0
 25 83  1  0  0  0  0
 26 28  2  0  0  0  0
 26 82  1  0  0  0  0
 27 84  1  0  0  0  0
 28 85  1  0  0  0  0
 29 66  2  0  0  0  0
 30 49  1  0  0  0  0
 30 67  1  0  0  0  0
 31 68  1  0  0  0  0
 31 71  1  0  0  0  0
 32 72  1  0  0  0  0
 32 77  2  0  0  0  0
 33 47  1  0  0  0  0
 33 73  1  0  0  0  0
 33 78  2  0  0  0  0
 34 62  1  0  0  0  0
 34 69  1  0  0  0  0
 34 79  2  0  0  0  0
 35 63  1  0  0  0  0
 35 74  1  0  0  0  0
 35 80  2  0  0  0  0
 36 70  1  0  0  0  0
 36 75  1  0  0  0  0
 36 81  2  0  0  0  0
 37 40  1  0  0  0  0
 38 47  1  0  0  0  0
 39 69  1  0  0  0  0
 40 42  1  0  0  0  0
 41 43  1  0  0  0  0
 41 44  1  0  0  0  0
 42 46  1  0  0  0  0
 43 48  1  0  0  0  0
 44 70  1  0  0  0  0
 45 48  1  0  0  0  0
 45 70  1  0  0  0  0
 46 73  1  0  0  0  0
 47 69  1  0  0  0  0
 48 68  1  0  0  0  0
 50 61  1  0  0  0  0
 51 63  1  0  0  0  0
 52 64  1  0  0  0  0
 53 64  1  0  0  0  0
 54 65  1  0  0  0  0
 55 65  1  0  0  0  0
 56 65  1  0  0  0  0
 57 76  1  0  0  0  0
 58 75  1  0  0  0  0
 59 60  1  0  0  0  0
 59 61  1  0  0  0  0
 60 83  1  0  0  0  0
 62 65  1  0  0  0  0
 62 74  1  0  0  0  0
 63 76  1  0  0  0  0
 64 67  1  0  0  0  0
 66 68  1  0  0  0  0
M  CHG  1  76   1
M  ISO  4  36 100  60 101  75 100  83 101
M  END
> <Batch ID>
0106

> <Smiles>
CNC(C)C(=O)NC(C(=O)N1Cc2cc([101O:1][101CH2:1]CC(C)c3cn(C(C)C)c(C)c3C[100NH:0][100C:0](=O)N3CCCC(n4nc(-c5ccc(Oc6ccc(F)cc6F)cc5)c(C(N)=O)c4N)C3)ccc2CC1C(=O)NC1CCCc2ccccc21)C(C)(C)C

> <Shape>
0.212

> <Color>
0.061

> <Negative vol penalty>
0.000

$$$$

  -OEChem-04052319483D

 84 92  0     1  0  0  0  0  0999 V2000
  -27.4593  -18.9495   24.4156 C   0  0  0  0  0  0  0  0  0  0  0  0
  -27.6884  -19.9183   23.4438 C   0  0  0  0  0  0  0  0  0  0  0  0
  -28.2349  -13.8486   19.4804 C   0  0  0  0  0  0  0  0  0  0  0  0
  -26.5689  -14.9251   20.8597 C   0  0  0  0  0  0  0  0  0  0  0  0
  -26.1729  -18.7587   24.9183 C   0  0  0  0  0  0  0  0  0  0  0  0
  -26.6310  -20.6961   22.9734 C   0  0  0  0  0  0  0  0  0  0  0  0
  -27.8291  -25.6050   22.6386 C   0  0  0  0  0  0  0  0  0  0  0  0
  -33.5723  -25.0682   18.9955 C   0  0  0  0  0  0  0  0  0  0  0  0
  -33.9101  -23.7151   18.9721 C   0  0  0  0  0  0  0  0  0  0  0  0
  -27.5414  -12.6428   19.5838 C   0  0  0  0  0  0  0  0  0  0  0  0
  -25.8754  -13.7192   20.9631 C   0  0  0  0  0  0  0  0  0  0  0  0
  -28.5970  -25.9998   21.5439 C   0  0  0  0  0  0  0  0  0  0  0  0
  -23.7646  -11.8906   19.0602 C   0  0  0  0  0  0  0  0  0  0  0  0
  -22.3804  -11.9243   18.8916 C   0  0  0  0  0  0  0  0  0  0  0  0
  -26.6041  -26.7909   20.4388 C   0  0  0  0  0  0  0  0  0  0  0  0
  -32.1612  -24.7495   17.0605 C   0  0  0  0  0  0  0  0  0  0  0  0
  -22.0873  -11.0446   21.1226 C   0  0  0  0  0  0  0  0  0  0  0  0
  -27.7487  -14.9897   20.1184 C   0  0  0  0  0  0  0  0  0  0  0  0
  -29.7859  -16.4943   20.4243 C   0  0  0  0  0  0  0  0  0  0  0  0
  -25.1010  -19.5412   24.4608 C   0  0  0  0  0  0  0  0  0  0  0  0
  -26.4392  -25.7906   22.6370 C   0  0  0  0  0  0  0  0  0  0  0  0
  -25.3289  -20.5147   23.4695 C   0  0  0  0  0  0  0  0  0  0  0  0
  -25.8211  -26.4000   21.5357 C   0  0  0  0  0  0  0  0  0  0  0  0
  -32.6978  -25.5854   18.0397 C   0  0  0  0  0  0  0  0  0  0  0  0
  -33.3735  -22.8792   17.9928 C   0  0  0  0  0  0  0  0  0  0  0  0
  -32.4990  -23.3964   17.0370 C   0  0  0  0  0  0  0  0  0  0  0  0
  -26.3617  -12.5781   20.3251 C   0  0  0  0  0  0  0  0  0  0  0  0
  -27.9842  -26.5902   20.4426 C   0  0  0  0  0  0  0  0  0  0  0  0
  -24.3102  -11.4338   20.2599 C   0  0  0  0  0  0  0  0  0  0  0  0
  -21.5417  -11.5013   19.9227 C   0  0  0  0  0  0  0  0  0  0  0  0
  -23.4715  -11.0108   21.2911 C   0  0  0  0  0  0  0  0  0  0  0  0
  -28.4649  -16.2355   20.0124 C   0  0  0  0  0  0  0  0  0  0  0  0
  -29.9920  -17.8147   20.1071 C   0  0  0  0  0  0  0  0  0  0  0  0
  -30.7413  -15.6194   21.0386 C   0  0  0  0  0  0  0  0  0  0  0  0
  -23.9182  -23.8601   22.7832 C   0  0  0  0  0  0  0  0  0  0  0  0
  -22.2784  -26.6537   22.9547 C   0  0  0  0  0  0  0  0  0  0  0  0
  -22.1801  -30.0006   22.2951 C   0  0  0  0  0  0  0  0  0  0  0  0
  -29.5363  -22.0951   16.5553 C   0  0  0  0  0  0  0  0  0  0  0  0
  -23.7195  -19.2661   24.9999 C   0  0  0  0  0  0  0  0  0  0  0  0
  -25.6284  -25.3837   23.8367 C   0  0  0  0  0  0  0  0  0  0  0  0
  -24.3348  -26.6401   21.4931 C   0  0  0  0  0  0  0  0  0  0  0  0
  -22.7220  -20.3872   24.7196 C   0  0  0  0  0  0  0  0  0  0  0  0
  -26.7348  -21.3950   18.6380 C   0  0  0  0  0  0  0  0  0  0  0  0
  -22.8188  -20.8367   23.2652 C   0  0  0  0  0  0  0  0  0  0  0  0
  -27.0412  -20.0097   19.2098 C   0  0  0  0  0  0  0  0  0  0  0  0
  -27.2110  -21.5271   17.1931 C   0  0  0  0  0  0  0  0  0  0  0  0
  -28.9364  -19.8032   17.5471 C   0  0  0  0  0  0  0  0  0  0  0  0
  -24.2122  -21.3952   22.9519 C   0  0  1  0  0  0  0  0  0  0  0  0
  -24.1558  -25.1523   23.5122 C   0  0  1  0  0  0  0  0  0  0  0  0
  -28.5248  -19.6405   19.0204 C   0  0  2  0  0  0  0  0  0  0  0  0
  -33.7506  -21.4341   17.9872 C   0  0  0  0  0  0  0  0  0  0  0  0
  -20.6925  -32.0094   22.5173 C   0  0  0  0  0  0  0  0  0  0  0  0
  -33.0015  -27.8723   19.2095 C   0  0  0  0  0  0  0  0  0  0  0  0
  -32.8081  -27.7248   16.7426 C   0  0  0  0  0  0  0  0  0  0  0  0
  -20.6018  -25.6691   20.6033 C   0  0  0  0  0  0  0  0  0  0  0  0
  -19.8146  -28.0222   20.2693 C   0  0  0  0  0  0  0  0  0  0  0  0
  -19.3021  -26.8278   22.3985 C   0  0  0  0  0  0  0  0  0  0  0  0
  -24.1320  -31.3992   24.0252 C   0  0  0  0  0  0  0  0  0  0  0  0
  -31.9124  -22.5206   15.9789 C   0  0  0  0  0  0  0  0  0  0  0  0
  -30.7826  -27.2743   18.1651 C   0  0  0  0  0  0  0  0  0  0  0  0
  -30.1377  -26.7455   19.4455 C   0  0  0  0  0  0  0  0  0  1  0  0
  -21.6676  -27.5983   21.9480 C   0  0  1  0  0  0  0  0  0  0  0  0
  -21.7980  -31.1872   23.1614 C   0  0  2  0  0  0  0  0  0  0  0  0
  -32.3256  -27.0790   18.0655 C   0  0  0  0  0  0  0  0  0  0  0  0
  -20.3743  -27.0232   21.3044 C   0  0  0  0  0  0  0  0  0  0  0  0
  -27.8734  -17.3056   19.4747 N   0  0  0  0  0  0  0  0  0  0  0  0
  -28.8272  -18.2496   19.5467 N   0  0  0  0  0  0  0  0  0  0  0  0
  -23.5844  -26.2190   22.6877 N   0  0  0  0  0  0  0  0  0  0  0  0
  -28.6259  -21.1642   17.0822 N   0  0  0  0  0  0  0  0  0  0  0  0
  -31.0542  -18.6345   20.2558 N   0  0  0  0  0  0  0  0  0  0  0  0
  -30.7746  -15.5432   22.4377 N   0  0  0  0  0  0  0  0  0  0  0  0
  -24.3459  -22.7399   23.4700 N   0  0  0  0  0  0  0  0  0  0  0  0
  -21.4762  -28.8670   22.6424 N   0  0  0  0  0  0  0  0  0  0  0  0
  -30.8587  -21.6732   16.4911 N   0  0  0  0  0  0  0  0  0  0  0  0
  -22.9774  -32.0725   23.3768 N   0  3  0  0  0  0  0  0  0  0  0  0
  -31.5528  -14.9380   20.3672 O   0  0  0  0  0  0  0  0  0  0  0  0
  -23.3849  -23.8780   21.6801 O   0  0  0  0  0  0  0  0  0  0  0  0
  -21.6237  -26.3196   23.9453 O   0  0  0  0  0  0  0  0  0  0  0  0
  -23.0166  -30.0731   21.3975 O   0  0  0  0  0  0  0  0  0  0  0  0
  -29.1968  -23.2209   16.1754 O   0  0  0  0  0  0  0  0  0  0  0  0
  -25.6846  -11.4017   20.4261 O   0  0  0  0  0  0  0  0  0  0  0  0
  -28.7313  -26.9758   19.3726 O   0  0  0  0  0  0  0  0  0  1  0  0
  -20.2125  -11.5352   19.7613 F   0  0  0  0  0  0  0  0  0  0  0  0
  -23.9897  -10.5721   22.4464 F   0  0  0  0  0  0  0  0  0  0  0  0
  1  2  1  0  0  0  0
  1  5  2  0  0  0  0
  2  6  2  0  0  0  0
  3 10  2  0  0  0  0
  3 18  1  0  0  0  0
  4 11  1  0  0  0  0
  4 18  2  0  0  0  0
  5 20  1  0  0  0  0
  6 22  1  0  0  0  0
  7 12  2  0  0  0  0
  7 21  1  0  0  0  0
  8  9  2  0  0  0  0
  8 24  1  0  0  0  0
  9 25  1  0  0  0  0
 10 27  1  0  0  0  0
 11 27  2  0  0  0  0
 12 28  1  0  0  0  0
 13 14  2  0  0  0  0
 13 29  1  0  0  0  0
 14 30  1  0  0  0  0
 15 23  1  0  0  0  0
 15 28  2  0  0  0  0
 16 24  2  0  0  0  0
 16 26  1  0  0  0  0
 17 30  2  0  0  0  0
 17 31  1  0  0  0  0
 18 32  1  0  0  0  0
 19 32  1  0  0  0  0
 19 33  2  0  0  0  0
 19 34  1  0  0  0  0
 20 22  2  0  0  0  0
 20 39  1  0  0  0  0
 21 23  2  0  0  0  0
 21 40  1  0  0  0  0
 22 48  1  0  0  0  0
 23 41  1  0  0  0  0
 24 64  1  0  0  0  0
 25 26  2  0  0  0  0
 25 51  1  0  0  0  0
 26 59  1  0  0  0  0
 27 81  1  0  0  0  0
 28 82  1  0  0  0  0
 29 31  2  0  0  0  0
 29 81  1  0  0  0  0
 30 83  1  0  0  0  0
 31 84  1  0  0  0  0
 32 66  2  0  0  0  0
 33 67  1  0  0  0  0
 33 70  1  0  0  0  0
 34 71  1  0  0  0  0
 34 76  2  0  0  0  0
 35 49  1  0  0  0  0
 35 72  1  0  0  0  0
 35 77  2  0  0  0  0
 36 62  1  0  0  0  0
 36 68  1  0  0  0  0
 36 78  2  0  0  0  0
 37 63  1  0  0  0  0
 37 73  1  0  0  0  0
 37 79  2  0  0  0  0
 38 69  1  0  0  0  0
 38 74  1  0  0  0  0
 38 80  2  0  0  0  0
 39 42  1  0  0  0  0
 40 49  1  0  0  0  0
 41 68  1  0  0  0  0
 42 44  1  0  0  0  0
 43 45  1  0  0  0  0
 43 46  1  0  0  0  0
 44 48  1  0  0  0  0
 45 50  1  0  0  0  0
 46 69  1  0  0  0  0
 47 50  1  0  0  0  0
 47 69  1  0  0  0  0
 48 72  1  0  0  0  0
 49 68  1  0  0  0  0
 50 67  1  0  0  0  0
 52 63  1  0  0  0  0
 53 64  1  0  0  0  0
 54 64  1  0  0  0  0
 55 65  1  0  0  0  0
 56 65  1  0  0  0  0
 57 65  1  0  0  0  0
 58 75  1  0  0  0  0
 59 74  1  0  0  0  0
 60 61  1  0  0  0  0
 60 64  1  0  0  0  0
 61 82  1  0  0  0  0
 62 65  1  0  0  0  0
 62 73  1  0  0  0  0
 63 75  1  0  0  0  0
 66 67  1  0  0  0  0
M  CHG  1  75   1
M  ISO  4  38 100  61 101  74 100  82 101
M  END
> <Batch ID>
0106

> <Smiles>
CNC(C)C(=O)NC(C(=O)N1Cc2cc([101O:1][101CH2:1]CC(C)(C)c3ccc(C)c(C[100NH:0][100C:0](=O)N4CCCC(n5nc(-c6ccc(Oc7ccc(F)cc7F)cc6)c(C(N)=O)c5N)C4)c3)ccc2CC1C(=O)NC1CCCc2ccccc21)C(C)(C)C

> <Shape>
0.212

> <Color>
0.062

> <Negative vol penalty>
0.000

$$$$

  -OEChem-04052319483D

 83 91  0     1  0  0  0  0  0999 V2000
  -17.0383  -29.6844   24.0799 C   0  0  0  0  0  0  0  0  0  0  0  0
  -17.7294  -28.5555   24.5080 C   0  0  0  0  0  0  0  0  0  0  0  0
  -23.1889   -9.8198   21.1927 C   0  0  0  0  0  0  0  0  0  0  0  0
  -23.9068  -10.5927   23.3663 C   0  0  0  0  0  0  0  0  0  0  0  0
  -17.4263  -30.3358   22.9098 C   0  0  0  0  0  0  0  0  0  0  0  0
  -18.8083  -28.0767   23.7657 C   0  0  0  0  0  0  0  0  0  0  0  0
  -25.1244  -24.7952   24.5755 C   0  0  0  0  0  0  0  0  0  0  0  0
  -22.5030   -8.7648   21.7944 C   0  0  0  0  0  0  0  0  0  0  0  0
  -23.2208   -9.5377   23.9680 C   0  0  0  0  0  0  0  0  0  0  0  0
  -25.8332  -23.6916   24.1028 C   0  0  0  0  0  0  0  0  0  0  0  0
  -20.8597   -5.6602   22.7352 C   0  0  0  0  0  0  0  0  0  0  0  0
  -20.9941   -4.3917   22.1711 C   0  0  0  0  0  0  0  0  0  0  0  0
  -26.4634  -24.9446   22.1402 C   0  0  0  0  0  0  0  0  0  0  0  0
  -28.3515  -18.8047   20.8942 C   0  0  0  0  0  0  0  0  0  0  0  0
  -23.3781   -4.4736   22.5548 C   0  0  0  0  0  0  0  0  0  0  0  0
  -30.0075  -19.2976   22.5287 C   0  0  0  0  0  0  0  0  0  0  0  0
  -23.8909  -10.7337   21.9787 C   0  0  0  0  0  0  0  0  0  0  0  0
  -24.1005  -13.1068   21.0665 C   0  0  0  0  0  0  0  0  0  0  0  0
  -18.5166  -29.8705   22.1579 C   0  0  0  0  0  0  0  0  0  0  0  0
  -25.0706  -25.9802   23.8276 C   0  0  0  0  0  0  0  0  0  0  0  0
  -19.2105  -28.7217   22.5838 C   0  0  0  0  0  0  0  0  0  0  0  0
  -25.7553  -26.0627   22.6068 C   0  0  0  0  0  0  0  0  0  0  0  0
  -29.6113  -18.5559   21.4274 C   0  0  0  0  0  0  0  0  0  0  0  0
  -27.5379  -19.7739   21.4705 C   0  0  0  0  0  0  0  0  0  0  0  0
  -22.5189   -8.6238   23.1821 C   0  0  0  0  0  0  0  0  0  0  0  0
  -26.5004  -23.7652   22.8836 C   0  0  0  0  0  0  0  0  0  0  0  0
  -21.9845   -6.3355   23.2090 C   0  0  0  0  0  0  0  0  0  0  0  0
  -22.2532   -3.7983   22.0809 C   0  0  0  0  0  0  0  0  0  0  0  0
  -23.2437   -5.7422   23.1188 C   0  0  0  0  0  0  0  0  0  0  0  0
  -24.6002  -11.8234   21.3577 C   0  0  0  0  0  0  0  0  0  0  0  0
  -28.0269  -20.4609   22.5699 C   0  0  0  0  0  0  0  0  0  0  0  0
  -25.1576  -13.7631   20.4849 C   0  0  0  0  0  0  0  0  0  0  0  0
  -22.7972  -13.6567   21.3009 C   0  0  0  0  0  0  0  0  0  0  0  0
  -22.7490  -27.6652   22.4585 C   0  0  0  0  0  0  0  0  0  0  0  0
  -25.1496  -29.7679   21.8771 C   0  0  0  0  0  0  0  0  0  0  0  0
  -28.4955  -30.3062   21.4747 C   0  0  0  0  0  0  0  0  0  0  0  0
  -30.5754  -15.0943   20.3414 C   0  0  0  0  0  0  0  0  0  0  0  0
  -18.8692  -30.5801   20.8747 C   0  0  0  0  0  0  0  0  0  0  0  0
  -24.3238  -27.1706   24.3641 C   0  0  0  0  0  0  0  0  0  0  0  0
  -25.7455  -27.3185   21.7753 C   0  0  0  0  0  0  0  0  0  0  0  0
  -20.2575  -30.2287   20.3460 C   0  0  0  0  0  0  0  0  0  0  0  0
  -29.6081  -12.0187   18.8308 C   0  0  0  0  0  0  0  0  0  0  0  0
  -20.4767  -28.7196   20.3832 C   0  0  0  0  0  0  0  0  0  0  0  0
  -28.1809  -11.7968   19.3344 C   0  0  0  0  0  0  0  0  0  0  0  0
  -30.4909  -12.6581   19.9003 C   0  0  0  0  0  0  0  0  0  0  0  0
  -28.5289  -13.6820   20.9847 C   0  0  0  0  0  0  0  0  0  0  0  0
  -20.4016  -28.1865   21.8190 C   0  0  1  0  0  0  0  0  0  0  0  0
  -23.9102  -28.1565   23.2759 C   0  0  1  0  0  0  0  0  0  0  0  0
  -27.5863  -13.0905   19.9227 C   0  0  2  0  0  0  0  0  0  0  0  0
  -24.9486  -18.3282   22.3430 C   0  0  0  0  0  0  0  0  0  0  0  0
  -26.2788  -20.5876   19.4597 C   0  0  0  0  0  0  0  0  0  0  0  0
  -30.1519  -32.1228   20.9711 C   0  0  0  0  0  0  0  0  0  0  0  0
  -24.3363  -29.6912   18.9373 C   0  0  0  0  0  0  0  0  0  0  0  0
  -26.5445  -30.7266   18.3714 C   0  0  0  0  0  0  0  0  0  0  0  0
  -24.9175  -31.9655   19.7999 C   0  0  0  0  0  0  0  0  0  0  0  0
  -29.8681  -29.9338   24.0702 C   0  0  0  0  0  0  0  0  0  0  0  0
  -30.5053  -17.5255   20.8350 C   0  0  0  0  0  0  0  0  0  0  0  0
  -27.1928  -21.5171   23.2334 C   0  0  0  0  0  0  0  0  0  1  0  0
  -25.2281  -18.8246   20.9296 C   0  0  0  0  0  0  0  0  0  0  0  0
  -26.1878  -20.0468   20.9031 C   0  0  1  0  0  0  0  0  0  0  0  0
  -26.1434  -29.9735   20.7595 C   0  0  1  0  0  0  0  0  0  0  0  0
  -29.4253  -31.3523   22.0625 C   0  0  2  0  0  0  0  0  0  0  0  0
  -25.4842  -30.5648   19.4815 C   0  0  0  0  0  0  0  0  0  0  0  0
  -29.2451  -20.2470   23.1158 N   0  0  0  0  0  0  0  0  0  0  0  0
  -25.8756  -11.6713   20.9911 N   0  0  0  0  0  0  0  0  0  0  0  0
  -26.1861  -12.8677   20.4636 N   0  0  0  0  0  0  0  0  0  0  0  0
  -24.9962  -28.4532   22.3395 N   0  0  0  0  0  0  0  0  0  0  0  0
  -29.8711  -13.8813   20.4157 N   0  0  0  0  0  0  0  0  0  0  0  0
  -25.2984  -15.0131   19.9948 N   0  0  0  0  0  0  0  0  0  0  0  0
  -21.8291  -12.8454   21.9083 N   0  0  0  0  0  0  0  0  0  0  0  0
  -21.6297  -28.4725   22.5292 N   0  0  0  0  0  0  0  0  0  0  0  0
  -27.2158  -30.7935   21.3126 N   0  0  0  0  0  0  0  0  0  0  0  0
  -29.9131  -16.2064   20.8466 N   0  0  0  0  0  0  0  0  0  0  0  0
  -30.4430  -30.7068   22.9393 N   0  3  0  0  0  0  0  0  0  0  0  0
  -22.4951  -14.8273   20.9663 O   0  0  0  0  0  0  0  0  0  0  0  0
  -22.8607  -26.6312   21.8105 O   0  0  0  0  0  0  0  0  0  0  0  0
  -24.5373  -30.7392   22.3282 O   0  0  0  0  0  0  0  0  0  0  0  0
  -28.8681  -29.1715   21.1846 O   0  0  0  0  0  0  0  0  0  0  0  0
  -31.7083  -15.1808   19.8555 O   0  0  0  0  0  0  0  0  0  0  0  0
  -21.8494   -7.5946   23.7696 O   0  0  0  0  0  0  0  0  0  0  0  0
  -27.1925  -22.6893   22.4196 O   0  0  0  0  0  0  0  0  0  1  0  0
  -22.3819   -2.5794   21.5405 F   0  0  0  0  0  0  0  0  0  0  0  0
  -24.3278   -6.3855   23.5734 F   0  0  0  0  0  0  0  0  0  0  0  0
  1  2  1  0  0  0  0
  1  5  2  0  0  0  0
  2  6  2  0  0  0  0
  3  8  2  0  0  0  0
  3 17  1  0  0  0  0
  4  9  1  0  0  0  0
  4 17  2  0  0  0  0
  5 19  1  0  0  0  0
  6 21  1  0  0  0  0
  7 10  2  0  0  0  0
  7 20  1  0  0  0  0
  8 25  1  0  0  0  0
  9 25  2  0  0  0  0
 10 26  1  0  0  0  0
 11 12  2  0  0  0  0
 11 27  1  0  0  0  0
 12 28  1  0  0  0  0
 13 22  1  0  0  0  0
 13 26  2  0  0  0  0
 14 23  2  0  0  0  0
 14 24  1  0  0  0  0
 15 28  2  0  0  0  0
 15 29  1  0  0  0  0
 16 23  1  0  0  0  0
 16 64  2  0  0  0  0
 17 30  1  0  0  0  0
 18 30  1  0  0  0  0
 18 32  2  0  0  0  0
 18 33  1  0  0  0  0
 19 21  2  0  0  0  0
 19 38  1  0  0  0  0
 20 22  2  0  0  0  0
 20 39  1  0  0  0  0
 21 47  1  0  0  0  0
 22 40  1  0  0  0  0
 23 57  1  0  0  0  0
 24 31  2  0  0  0  0
 24 60  1  0  0  0  0
 25 80  1  0  0  0  0
 26 81  1  0  0  0  0
 27 29  2  0  0  0  0
 27 80  1  0  0  0  0
 28 82  1  0  0  0  0
 29 83  1  0  0  0  0
 30 65  2  0  0  0  0
 31 58  1  0  0  0  0
 31 64  1  0  0  0  0
 32 66  1  0  0  0  0
 32 69  1  0  0  0  0
 33 70  1  0  0  0  0
 33 75  2  0  0  0  0
 34 48  1  0  0  0  0
 34 71  1  0  0  0  0
 34 76  2  0  0  0  0
 35 61  1  0  0  0  0
 35 67  1  0  0  0  0
 35 77  2  0  0  0  0
 36 62  1  0  0  0  0
 36 72  1  0  0  0  0
 36 78  2  0  0  0  0
 37 68  1  0  0  0  0
 37 73  1  0  0  0  0
 37 79  2  0  0  0  0
 38 41  1  0  0  0  0
 39 48  1  0  0  0  0
 40 67  1  0  0  0  0
 41 43  1  0  0  0  0
 42 44  1  0  0  0  0
 42 45  1  0  0  0  0
 43 47  1  0  0  0  0
 44 49  1  0  0  0  0
 45 68  1  0  0  0  0
 46 49  1  0  0  0  0
 46 68  1  0  0  0  0
 47 71  1  0  0  0  0
 48 67  1  0  0  0  0
 49 66  1  0  0  0  0
 50 59  1  0  0  0  0
 51 60  1  0  0  0  0
 52 62  1  0  0  0  0
 53 63  1  0  0  0  0
 54 63  1  0  0  0  0
 55 63  1  0  0  0  0
 56 74  1  0  0  0  0
 57 73  1  0  0  0  0
 58 81  1  0  0  0  0
 59 60  1  0  0  0  0
 61 63  1  0  0  0  0
 61 72  1  0  0  0  0
 62 74  1  0  0  0  0
 65 66  1  0  0  0  0
M  CHG  1  74   1
M  ISO  4  37 100  58 101  73 100  81 101
M  END
> <Batch ID>
0106

> <Smiles>
CCC(C)c1cc(C[100NH:0][100C:0](=O)N2CCCC(n3nc(-c4ccc(Oc5ccc(F)cc5F)cc4)c(C(N)=O)c3N)C2)cnc1[101CH2:1][101O:1]c1ccc2c(c1)CN(C(=O)C(NC(=O)C(C)NC)C(C)(C)C)C(C(=O)NC1CCCc3ccccc31)C2

> <Shape>
0.277

> <Color>
0.177

> <Negative vol penalty>
0.000

$$$$

  -OEChem-04052319483D

 84 92  0     1  0  0  0  0  0999 V2000
  -29.2877  -17.9213   18.5993 C   0  0  0  0  0  0  0  0  0  0  0  0
  -31.5750  -30.0036   27.2797 C   0  0  0  0  0  0  0  0  0  0  0  0
  -31.2676  -28.6495   27.3664 C   0  0  0  0  0  0  0  0  0  0  0  0
  -27.2838  -18.6174   19.7937 C   0  0  0  0  0  0  0  0  0  0  0  0
  -22.9507   -9.9893   19.9474 C   0  0  0  0  0  0  0  0  0  0  0  0
  -23.7546   -9.8730   22.2227 C   0  0  0  0  0  0  0  0  0  0  0  0
  -30.8397  -30.8312   26.4321 C   0  0  0  0  0  0  0  0  0  0  0  0
  -30.2241  -28.1225   26.6063 C   0  0  0  0  0  0  0  0  0  0  0  0
  -29.9524  -22.5444   24.0931 C   0  0  0  0  0  0  0  0  0  0  0  0
  -26.6206  -18.9431   20.9768 C   0  0  0  0  0  0  0  0  0  0  0  0
  -22.1653   -8.8577   20.1670 C   0  0  0  0  0  0  0  0  0  0  0  0
  -22.9691   -8.7414   22.4424 C   0  0  0  0  0  0  0  0  0  0  0  0
  -29.3359  -21.3617   24.4991 C   0  0  0  0  0  0  0  0  0  0  0  0
  -23.1130   -5.4357   21.7479 C   0  0  0  0  0  0  0  0  0  0  0  0
  -23.6998   -4.3583   22.4115 C   0  0  0  0  0  0  0  0  0  0  0  0
  -27.4349  -21.8820   23.1083 C   0  0  0  0  0  0  0  0  0  0  0  0
  -28.6495  -18.5405   22.2251 C   0  0  0  0  0  0  0  0  0  0  0  0
  -22.0404   -4.5309   24.1590 C   0  0  0  0  0  0  0  0  0  0  0  0
  -28.6299  -18.2532   19.8264 C   0  0  0  0  0  0  0  0  0  0  0  0
  -23.7454  -10.4969   20.9752 C   0  0  0  0  0  0  0  0  0  0  0  0
  -24.1879  -13.0091   20.9482 C   0  0  0  0  0  0  0  0  0  0  0  0
  -29.7929  -30.3122   25.6540 C   0  0  0  0  0  0  0  0  0  0  0  0
  -29.3089  -23.4116   23.1985 C   0  0  0  0  0  0  0  0  0  0  0  0
  -29.4733  -28.9442   25.7486 C   0  0  0  0  0  0  0  0  0  0  0  0
  -28.0464  -23.0739   22.6904 C   0  0  0  0  0  0  0  0  0  0  0  0
  -27.3034  -18.9047   22.1925 C   0  0  0  0  0  0  0  0  0  0  0  0
  -29.3128  -18.2148   21.0420 C   0  0  0  0  0  0  0  0  0  0  0  0
  -22.1744   -8.2338   21.4145 C   0  0  0  0  0  0  0  0  0  0  0  0
  -28.0758  -21.0317   24.0090 C   0  0  0  0  0  0  0  0  0  0  0  0
  -21.9899   -6.0608   22.2898 C   0  0  0  0  0  0  0  0  0  0  0  0
  -23.1635   -3.9059   23.6171 C   0  0  0  0  0  0  0  0  0  0  0  0
  -21.4536   -5.6083   23.4953 C   0  0  0  0  0  0  0  0  0  0  0  0
  -24.5575  -11.6654   20.7487 C   0  0  0  0  0  0  0  0  0  0  0  0
  -25.3026  -13.7282   20.5920 C   0  0  0  0  0  0  0  0  0  0  0  0
  -22.9480  -13.5581   21.4138 C   0  0  0  0  0  0  0  0  0  0  0  0
  -28.2752  -26.4143   23.3367 C   0  0  0  0  0  0  0  0  0  0  0  0
  -27.6687  -25.9395   20.1857 C   0  0  0  0  0  0  0  0  0  0  0  0
  -27.0367  -23.7369   17.6567 C   0  0  0  0  0  0  0  0  0  0  0  0
  -30.8260  -14.5181   20.7053 C   0  0  0  0  0  0  0  0  0  0  0  0
  -28.9958  -31.2550   24.7878 C   0  0  0  0  0  0  0  0  0  0  0  0
  -29.9988  -24.6706   22.7495 C   0  0  0  0  0  0  0  0  0  0  0  0
  -27.3220  -23.9610   21.7122 C   0  0  0  0  0  0  0  0  0  0  0  0
  -28.1484  -30.5456   23.7348 C   0  0  0  0  0  0  0  0  0  0  0  0
  -29.5457  -12.2796   18.2503 C   0  0  0  0  0  0  0  0  0  0  0  0
  -27.3940  -29.3748   24.3569 C   0  0  0  0  0  0  0  0  0  0  0  0
  -28.1061  -12.0265   18.7014 C   0  0  0  0  0  0  0  0  0  0  0  0
  -30.4942  -12.4147   19.4395 C   0  0  0  0  0  0  0  0  0  0  0  0
  -28.6513  -13.1648   20.8936 C   0  0  0  0  0  0  0  0  0  0  0  0
  -28.3646  -28.3305   24.9214 C   0  0  1  0  0  0  0  0  0  0  0  0
  -29.0309  -25.7305   22.2326 C   0  0  1  0  0  0  0  0  0  0  0  0
  -27.6481  -13.0772   19.7307 C   0  0  2  0  0  0  0  0  0  0  0  0
  -25.9621  -18.0371   24.1396 C   0  0  0  0  0  0  0  0  0  0  0  0
  -26.5458  -23.6494   15.1973 C   0  0  0  0  0  0  0  0  0  0  0  0
  -24.8091  -26.8564   20.7263 C   0  0  0  0  0  0  0  0  0  0  0  0
  -24.1483  -25.8619   18.5257 C   0  0  0  0  0  0  0  0  0  0  0  0
  -25.8006  -27.7291   18.6026 C   0  0  0  0  0  0  0  0  0  0  0  0
  -29.4720  -22.1469   17.1092 C   0  0  0  0  0  0  0  0  0  0  0  0
  -31.0038  -16.6125   22.0247 C   0  0  0  0  0  0  0  0  0  0  0  0
  -30.7554  -17.8285   21.1153 C   0  0  2  0  0  0  0  0  0  0  0  0
  -26.5844  -19.2581   23.4743 C   0  0  1  0  0  0  0  0  0  1  0  0
  -26.4932  -25.4281   19.3884 C   0  0  1  0  0  0  0  0  0  0  0  0
  -27.6279  -23.6047   16.2648 C   0  0  2  0  0  0  0  0  0  0  0  0
  -25.3253  -26.4529   19.3307 C   0  0  0  0  0  0  0  0  0  0  0  0
  -29.8209  -17.6522   17.6043 N   0  0  0  0  0  0  0  0  0  0  0  0
  -25.8090  -11.5359   20.3005 N   0  0  0  0  0  0  0  0  0  0  0  0
  -26.2355  -12.8075   20.2152 N   0  0  0  0  0  0  0  0  0  0  0  0
  -28.0352  -25.1840   21.3084 N   0  0  0  0  0  0  0  0  0  0  0  0
  -30.0035  -13.4278   20.3769 N   0  0  0  0  0  0  0  0  0  0  0  0
  -25.5658  -15.0521   20.5674 N   0  0  0  0  0  0  0  0  0  0  0  0
  -21.9064  -12.6773   21.7360 N   0  0  0  0  0  0  0  0  0  0  0  0
  -28.9162  -27.5239   23.8538 N   0  0  0  0  0  0  0  0  0  0  0  0
  -27.0201  -25.0484   18.0821 N   0  0  0  0  0  0  0  0  0  0  0  0
  -30.2818  -15.4354   21.5959 N   0  0  0  0  0  0  0  0  0  0  0  0
  -31.6370  -18.9509   21.5905 N   0  3  0  0  0  0  0  0  0  0  0  0
  -28.3633  -22.3150   16.1348 N   0  3  0  0  0  0  0  0  0  0  0  0
  -22.7634  -14.7938   21.5249 O   0  0  0  0  0  0  0  0  0  0  0  0
  -27.1903  -25.9691   23.6921 O   0  0  0  0  0  0  0  0  0  0  0  0
  -28.2451  -26.9675   19.8214 O   0  0  0  0  0  0  0  0  0  0  0  0
  -26.6268  -22.7736   18.3006 O   0  0  0  0  0  0  0  0  0  0  0  0
  -31.9592  -14.6661   20.2352 O   0  0  0  0  0  0  0  0  0  0  0  0
  -21.4080   -7.1298   21.6293 O   0  0  0  0  0  0  0  0  0  0  0  0
  -27.4716  -19.8782   24.4042 O   0  0  0  0  0  0  0  0  0  1  0  0
  -23.7263   -2.8703   24.2535 F   0  0  0  0  0  0  0  0  0  0  0  0
  -20.3740   -6.2040   24.0202 F   0  0  0  0  0  0  0  0  0  0  0  0
  1 19  1  0  0  0  0
  1 64  3  0  0  0  0
  2  3  1  0  0  0  0
  2  7  2  0  0  0  0
  3  8  2  0  0  0  0
  4 10  2  0  0  0  0
  4 19  1  0  0  0  0
  5 11  2  0  0  0  0
  5 20  1  0  0  0  0
  6 12  1  0  0  0  0
  6 20  2  0  0  0  0
  7 22  1  0  0  0  0
  8 24  1  0  0  0  0
  9 13  2  0  0  0  0
  9 23  1  0  0  0  0
 10 26  1  0  0  0  0
 11 28  1  0  0  0  0
 12 28  2  0  0  0  0
 13 29  1  0  0  0  0
 14 15  2  0  0  0  0
 14 30  1  0  0  0  0
 15 31  1  0  0  0  0
 16 25  1  0  0  0  0
 16 29  2  0  0  0  0
 17 26  2  0  0  0  0
 17 27  1  0  0  0  0
 18 31  2  0  0  0  0
 18 32  1  0  0  0  0
 19 27  2  0  0  0  0
 20 33  1  0  0  0  0
 21 33  1  0  0  0  0
 21 34  2  0  0  0  0
 21 35  1  0  0  0  0
 22 24  2  0  0  0  0
 22 40  1  0  0  0  0
 23 25  2  0  0  0  0
 23 41  1  0  0  0  0
 24 49  1  0  0  0  0
 25 42  1  0  0  0  0
 26 60  1  0  0  0  0
 27 59  1  0  0  0  0
 28 81  1  0  0  0  0
 29 82  1  0  0  0  0
 30 32  2  0  0  0  0
 30 81  1  0  0  0  0
 31 83  1  0  0  0  0
 32 84  1  0  0  0  0
 33 65  2  0  0  0  0
 34 66  1  0  0  0  0
 34 69  1  0  0  0  0
 35 70  1  0  0  0  0
 35 76  2  0  0  0  0
 36 50  1  0  0  0  0
 36 71  1  0  0  0  0
 36 77  2  0  0  0  0
 37 61  1  0  0  0  0
 37 67  1  0  0  0  0
 37 78  2  0  0  0  0
 38 62  1  0  0  0  0
 38 72  1  0  0  0  0
 38 79  2  0  0  0  0
 39 68  1  0  0  0  0
 39 73  1  0  0  0  0
 39 80  2  0  0  0  0
 40 43  1  0  0  0  0
 41 50  1  0  0  0  0
 42 67  1  0  0  0  0
 43 45  1  0  0  0  0
 44 46  1  0  0  0  0
 44 47  1  0  0  0  0
 45 49  1  0  0  0  0
 46 51  1  0  0  0  0
 47 68  1  0  0  0  0
 48 51  1  0  0  0  0
 48 68  1  0  0  0  0
 49 71  1  0  0  0  0
 50 67  1  0  0  0  0
 51 66  1  0  0  0  0
 52 60  1  0  0  0  0
 53 62  1  0  0  0  0
 54 63  1  0  0  0  0
 55 63  1  0  0  0  0
 56 63  1  0  0  0  0
 57 75  1  0  0  0  0
 58 59  1  0  0  0  0
 58 73  1  0  0  0  0
 59 74  1  0  0  0  0
 60 82  1  0  0  0  0
 61 63  1  0  0  0  0
 61 72  1  0  0  0  0
 62 75  1  0  0  0  0
 65 66  1  0  0  0  0
M  CHG  2  74   1  75   1
M  ISO  4  39 100  60 101  73 100  82 101
M  END
> <Batch ID>
0106

> <Smiles>
CNC(C)C(=O)NC(C(=O)N1Cc2cc([101O:1][101CH:1](C)c3ccc(C#N)c(C(N)C[100NH:0][100C:0](=O)N4CCCC(n5nc(-c6ccc(Oc7ccc(F)cc7F)cc6)c(C(N)=O)c5N)C4)c3)ccc2CC1C(=O)NC1CCCc2ccccc21)C(C)(C)C

> <Shape>
0.268

> <Color>
0.211

> <Negative vol penalty>
0.000

$$$$

  -OEChem-04052319483D

 78 85  0     1  0  0  0  0  0999 V2000
  -21.9231  -12.2988   19.4014 C   0  0  0  0  0  0  0  0  0  0  0  0
  -21.7939  -13.6441   19.7313 C   0  0  0  0  0  0  0  0  0  0  0  0
  -29.4213  -28.2631   20.8242 C   0  0  0  0  0  0  0  0  0  0  0  0
  -28.7143  -25.9681   21.0888 C   0  0  0  0  0  0  0  0  0  0  0  0
  -23.1246  -11.6347   19.6450 C   0  0  0  0  0  0  0  0  0  0  0  0
  -22.8659  -14.3259   20.3062 C   0  0  0  0  0  0  0  0  0  0  0  0
  -23.6045  -18.8864   18.2324 C   0  0  0  0  0  0  0  0  0  0  0  0
  -30.7085  -27.9137   21.2324 C   0  0  0  0  0  0  0  0  0  0  0  0
  -30.0015  -25.6186   21.4970 C   0  0  0  0  0  0  0  0  0  0  0  0
  -22.7483  -19.9126   18.6294 C   0  0  0  0  0  0  0  0  0  0  0  0
  -33.0086  -24.1888   22.9539 C   0  0  0  0  0  0  0  0  0  0  0  0
  -33.1325  -23.3583   24.0677 C   0  0  0  0  0  0  0  0  0  0  0  0
  -24.4418  -20.7336   20.1384 C   0  0  0  0  0  0  0  0  0  0  0  0
  -31.9937  -25.0039   25.4214 C   0  0  0  0  0  0  0  0  0  0  0  0
  -28.4242  -27.2903   20.7524 C   0  0  0  0  0  0  0  0  0  0  0  0
  -26.5904  -27.6543   19.0167 C   0  0  0  0  0  0  0  0  0  0  0  0
  -24.2150  -12.3112   20.2142 C   0  0  0  0  0  0  0  0  0  0  0  0
  -24.8839  -18.7695   18.7943 C   0  0  0  0  0  0  0  0  0  0  0  0
  -24.0826  -13.6699   20.5589 C   0  0  0  0  0  0  0  0  0  0  0  0
  -25.3133  -19.7066   19.7449 C   0  0  0  0  0  0  0  0  0  0  0  0
  -30.9986  -26.5914   21.5688 C   0  0  0  0  0  0  0  0  0  0  0  0
  -23.1658  -20.8347   19.5846 C   0  0  0  0  0  0  0  0  0  0  0  0
  -32.3774  -25.4269   23.0739 C   0  0  0  0  0  0  0  0  0  0  0  0
  -32.6250  -23.7658   25.3014 C   0  0  0  0  0  0  0  0  0  0  0  0
  -31.8699  -25.8344   24.3076 C   0  0  0  0  0  0  0  0  0  0  0  0
  -27.0942  -27.6508   20.3313 C   0  0  0  0  0  0  0  0  0  0  0  0
  -25.2880  -28.0699   19.1493 C   0  0  0  0  0  0  0  0  0  0  0  0
  -27.2414  -27.3123   17.7859 C   0  0  0  0  0  0  0  0  0  0  0  0
  -26.3804  -16.5633   20.5255 C   0  0  0  0  0  0  0  0  0  0  0  0
  -28.9320  -18.5209   20.1016 C   0  0  0  0  0  0  0  0  0  0  0  0
  -30.0974  -21.6620   19.4522 C   0  0  0  0  0  0  0  0  0  0  0  0
  -20.7888  -27.5895   22.7604 C   0  0  0  0  0  0  0  0  0  0  0  0
  -25.4781  -11.5391   20.5023 C   0  0  0  0  0  0  0  0  0  0  0  0
  -25.8054  -17.6726   18.3358 C   0  0  0  0  0  0  0  0  0  0  0  0
  -26.6846  -19.6370   20.3638 C   0  0  0  0  0  0  0  0  0  0  0  0
  -26.6888  -12.4297   20.7694 C   0  0  0  0  0  0  0  0  0  0  0  0
  -22.7564  -30.5522   22.5948 C   0  0  0  0  0  0  0  0  0  0  0  0
  -26.3255  -13.5469   21.7423 C   0  0  0  0  0  0  0  0  0  0  0  0
  -24.0287  -30.1063   21.8720 C   0  0  0  0  0  0  0  0  0  0  0  0
  -22.2217  -29.4617   23.5206 C   0  0  0  0  0  0  0  0  0  0  0  0
  -23.2818  -27.7061   22.1539 C   0  0  0  0  0  0  0  0  0  0  0  0
  -25.2309  -14.4502   21.1611 C   0  0  1  0  0  0  0  0  0  0  0  0
  -26.8963  -17.3454   19.3508 C   0  0  1  0  0  0  0  0  0  0  0  0
  -23.8274  -28.7518   21.1665 C   0  0  2  0  0  0  0  0  0  0  0  0
  -32.2312  -22.9598   19.2066 C   0  0  0  0  0  0  0  0  0  0  0  0
  -22.9009  -23.8788   18.8534 C   0  0  0  0  0  0  0  0  0  0  0  0
  -19.4701  -22.1165   19.4515 C   0  0  0  0  0  0  0  0  0  0  0  0
  -29.2817  -18.5149   23.1327 C   0  0  0  0  0  0  0  0  0  0  0  0
  -30.7658  -20.5173   22.8955 C   0  0  0  0  0  0  0  0  0  0  0  0
  -31.4142  -18.3540   21.8362 C   0  0  0  0  0  0  0  0  0  0  0  0
  -29.4744  -22.3795   16.6493 C   0  0  0  0  0  0  0  0  0  0  0  0
  -19.4806  -25.6583   21.9128 C   0  0  0  0  0  0  0  0  0  0  0  0
  -19.4149  -24.8961   20.6014 C   0  0  0  0  0  0  0  0  0  0  0  0
  -29.5131  -19.6968   20.8489 C   0  0  1  0  0  0  0  0  0  0  0  0
  -31.1543  -22.1644   18.4852 C   0  0  2  0  0  0  0  0  0  0  0  0
  -21.8898  -22.7436   18.9649 C   0  0  2  0  0  0  0  0  0  1  0  0
  -20.4816  -23.2480   19.3097 C   0  0  2  0  0  0  0  0  0  0  0  0
  -30.2171  -19.2712   22.1683 C   0  0  0  0  0  0  0  0  0  0  0  0
  -26.1860  -28.0340   21.2326 N   0  0  0  0  0  0  0  0  0  0  0  0
  -25.0984  -28.2822   20.4831 N   0  0  0  0  0  0  0  0  0  0  0  0
  -27.5466  -18.5427   19.8874 N   0  0  0  0  0  0  0  0  0  0  0  0
  -22.0517  -28.2036   22.7897 N   0  0  0  0  0  0  0  0  0  0  0  0
  -24.2980  -28.2709   18.2538 N   0  0  0  0  0  0  0  0  0  0  0  0
  -28.5818  -26.9051   17.8297 N   0  0  0  0  0  0  0  0  0  0  0  0
  -25.7918  -15.3602   20.1856 N   0  0  0  0  0  0  0  0  0  0  0  0
  -30.3822  -20.3912   19.9050 N   0  0  0  0  0  0  0  0  0  0  0  0
  -20.7131  -26.4036   22.0402 N   0  0  0  0  0  0  0  0  0  0  0  0
  -30.5355  -23.0413   17.4512 N   0  3  0  0  0  0  0  0  0  0  0  0
  -26.6568  -27.3818   16.6783 O   0  0  0  0  0  0  0  0  0  0  0  0
  -26.5084  -17.0171   21.6566 O   0  0  0  0  0  0  0  0  0  0  0  0
  -29.6808  -17.6198   19.7156 O   0  0  0  0  0  0  0  0  0  0  0  0
  -29.1192  -22.3316   19.7765 O   0  0  0  0  0  0  0  0  0  0  0  0
  -19.8005  -28.0656   23.3293 O   0  0  0  0  0  0  0  0  0  0  0  0
  -32.2545  -26.2500   21.9670 O   0  0  0  0  0  0  0  0  0  0  0  0
  -22.3318  -21.8370   19.9744 O   0  0  0  0  0  0  0  0  0  1  0  0
  -20.5032  -23.9879   20.5290 O   0  0  0  0  0  0  0  0  0  0  0  0
  -32.7426  -22.9675   26.3705 F   0  0  0  0  0  0  0  0  0  0  0  0
  -31.2614  -27.0222   24.4287 F   0  0  0  0  0  0  0  0  0  0  0  0
  1  2  1  0  0  0  0
  1  5  2  0  0  0  0
  2  6  2  0  0  0  0
  3  8  2  0  0  0  0
  3 15  1  0  0  0  0
  4  9  1  0  0  0  0
  4 15  2  0  0  0  0
  5 17  1  0  0  0  0
  6 19  1  0  0  0  0
  7 10  2  0  0  0  0
  7 18  1  0  0  0  0
  8 21  1  0  0  0  0
  9 21  2  0  0  0  0
 10 22  1  0  0  0  0
 11 12  2  0  0  0  0
 11 23  1  0  0  0  0
 12 24  1  0  0  0  0
 13 20  1  0  0  0  0
 13 22  2  0  0  0  0
 14 24  2  0  0  0  0
 14 25  1  0  0  0  0
 15 26  1  0  0  0  0
 16 26  1  0  0  0  0
 16 27  2  0  0  0  0
 16 28  1  0  0  0  0
 17 19  2  0  0  0  0
 17 33  1  0  0  0  0
 18 20  2  0  0  0  0
 18 34  1  0  0  0  0
 19 42  1  0  0  0  0
 20 35  1  0  0  0  0
 21 74  1  0  0  0  0
 22 75  1  0  0  0  0
 23 25  2  0  0  0  0
 23 74  1  0  0  0  0
 24 77  1  0  0  0  0
 25 78  1  0  0  0  0
 26 59  2  0  0  0  0
 27 60  1  0  0  0  0
 27 63  1  0  0  0  0
 28 64  1  0  0  0  0
 28 69  2  0  0  0  0
 29 43  1  0  0  0  0
 29 65  1  0  0  0  0
 29 70  2  0  0  0  0
 30 54  1  0  0  0  0
 30 61  1  0  0  0  0
 30 71  2  0  0  0  0
 31 55  1  0  0  0  0
 31 66  1  0  0  0  0
 31 72  2  0  0  0  0
 32 62  1  0  0  0  0
 32 67  1  0  0  0  0
 32 73  2  0  0  0  0
 33 36  1  0  0  0  0
 34 43  1  0  0  0  0
 35 61  1  0  0  0  0
 36 38  1  0  0  0  0
 37 39  1  0  0  0  0
 37 40  1  0  0  0  0
 38 42  1  0  0  0  0
 39 44  1  0  0  0  0
 40 62  1  0  0  0  0
 41 44  1  0  0  0  0
 41 62  1  0  0  0  0
 42 65  1  0  0  0  0
 43 61  1  0  0  0  0
 44 60  1  0  0  0  0
 45 55  1  0  0  0  0
 46 56  1  0  0  0  0
 47 57  1  0  0  0  0
 48 58  1  0  0  0  0
 49 58  1  0  0  0  0
 50 58  1  0  0  0  0
 51 68  1  0  0  0  0
 52 53  1  0  0  0  0
 52 67  1  0  0  0  0
 53 76  1  0  0  0  0
 54 58  1  0  0  0  0
 54 66  1  0  0  0  0
 55 68  1  0  0  0  0
 56 57  1  0  0  0  0
 56 75  1  0  0  0  0
 57 76  1  0  0  0  0
 59 60  1  0  0  0  0
M  CHG  1  68   1
M  ISO  4  32 100  56 101  67 100  75 101
M  END
> <Batch ID>
0106

> <Smiles>
CNC(C)C(=O)NC(C(=O)N1Cc2cc([101O:1][101CH:1](C)C(C)OCC[100NH:0][100C:0](=O)N3CCCC(n4nc(-c5ccc(Oc6ccc(F)cc6F)cc5)c(C(N)=O)c4N)C3)ccc2CC1C(=O)NC1CCCc2ccccc21)C(C)(C)C

> <Shape>
0.219

> <Color>
0.069

> <Negative vol penalty>
0.000

$$$$

  -OEChem-04052319483D

 87 94  0     1  0  0  0  0  0999 V2000
  -28.9936  -33.7615   25.8406 C   0  0  0  0  0  0  0  0  0  0  0  0
  -28.9907  -32.5472   25.1617 C   0  0  0  0  0  0  0  0  0  0  0  0
  -23.1176   -9.7717   22.8625 C   0  0  0  0  0  0  0  0  0  0  0  0
  -24.7850   -9.0893   21.2528 C   0  0  0  0  0  0  0  0  0  0  0  0
  -27.8005  -34.2831   26.3388 C   0  0  0  0  0  0  0  0  0  0  0  0
  -27.7947  -31.8533   24.9816 C   0  0  0  0  0  0  0  0  0  0  0  0
  -27.2688  -30.0797   20.2675 C   0  0  0  0  0  0  0  0  0  0  0  0
  -22.3393   -8.6643   22.5258 C   0  0  0  0  0  0  0  0  0  0  0  0
  -24.0067   -7.9818   20.9161 C   0  0  0  0  0  0  0  0  0  0  0  0
  -27.9792  -28.9262   19.9382 C   0  0  0  0  0  0  0  0  0  0  0  0
  -22.2917   -5.3528   23.2079 C   0  0  0  0  0  0  0  0  0  0  0  0
  -21.7315   -4.6134   24.2495 C   0  0  0  0  0  0  0  0  0  0  0  0
  -25.9822  -27.6117   20.2597 C   0  0  0  0  0  0  0  0  0  0  0  0
  -19.5215   -5.0788   23.3912 C   0  0  0  0  0  0  0  0  0  0  0  0
  -24.3405   -9.9842   22.2260 C   0  0  0  0  0  0  0  0  0  0  0  0
  -26.1363  -11.1996   23.5696 C   0  0  0  0  0  0  0  0  0  0  0  0
  -26.5878  -33.6000   26.1563 C   0  0  0  0  0  0  0  0  0  0  0  0
  -25.9101  -30.0064   20.6065 C   0  0  0  0  0  0  0  0  0  0  0  0
  -26.5844  -32.3656   25.4790 C   0  0  0  0  0  0  0  0  0  0  0  0
  -25.2562  -28.7661   20.5904 C   0  0  0  0  0  0  0  0  0  0  0  0
  -22.7838   -7.7693   21.5526 C   0  0  0  0  0  0  0  0  0  0  0  0
  -27.3367  -27.6916   19.9371 C   0  0  0  0  0  0  0  0  0  0  0  0
  -21.4669   -5.9553   22.2580 C   0  0  0  0  0  0  0  0  0  0  0  0
  -20.3464   -4.4764   24.3412 C   0  0  0  0  0  0  0  0  0  0  0  0
  -20.0818   -5.8182   22.3496 C   0  0  0  0  0  0  0  0  0  0  0  0
  -25.1447  -11.1283   22.5729 C   0  0  0  0  0  0  0  0  0  0  0  0
  -26.5998  -12.4907   23.5011 C   0  0  0  0  0  0  0  0  0  0  0  0
  -29.1152  -21.4459   20.2327 C   0  0  0  0  0  0  0  0  0  0  0  0
  -26.5974  -10.1891   24.4762 C   0  0  0  0  0  0  0  0  0  0  0  0
  -28.7954  -20.2751   20.8199 C   0  0  0  0  0  0  0  0  0  0  0  0
  -24.2049  -30.6937   23.1996 C   0  0  0  0  0  0  0  0  0  0  0  0
  -21.6991  -30.0025   21.2591 C   0  0  0  0  0  0  0  0  0  0  0  0
  -20.5390  -28.3710   18.4952 C   0  0  0  0  0  0  0  0  0  0  0  0
  -28.3204  -16.8074   20.7869 C   0  0  0  0  0  0  0  0  0  0  0  0
  -25.3306  -34.1803   26.7540 C   0  0  0  0  0  0  0  0  0  0  0  0
  -25.1513  -31.2633   20.9333 C   0  0  0  0  0  0  0  0  0  0  0  0
  -23.7939  -28.6361   20.9271 C   0  0  0  0  0  0  0  0  0  0  0  0
  -24.0502  -33.5659   26.1942 C   0  0  0  0  0  0  0  0  0  0  0  0
  -24.8097  -16.5178   21.0374 C   0  0  0  0  0  0  0  0  0  0  0  0
  -24.1593  -32.0449   26.1583 C   0  0  0  0  0  0  0  0  0  0  0  0
  -24.6594  -15.0813   21.5362 C   0  0  0  0  0  0  0  0  0  0  0  0
  -25.9162  -16.6493   19.9893 C   0  0  0  0  0  0  0  0  0  0  0  0
  -27.0727  -14.6730   20.9271 C   0  0  0  0  0  0  0  0  0  0  0  0
  -25.3036  -31.5953   25.2418 C   0  0  1  0  0  0  0  0  0  0  0  0
  -23.8969  -31.0056   21.7624 C   0  0  1  0  0  0  0  0  0  0  0  0
  -26.0079  -14.5246   22.0248 C   0  0  2  0  0  0  0  0  0  0  0  0
  -27.6894  -20.2214   21.8430 C   0  0  0  0  0  0  0  0  0  0  0  0
  -18.4379  -27.9648   17.1846 C   0  0  0  0  0  0  0  0  0  0  0  0
  -30.5132  -25.5854   16.9330 C   0  0  0  0  0  0  0  0  0  0  0  0
  -28.5636  -22.4166   17.3465 C   0  0  0  0  0  0  0  0  0  0  0  0
  -20.7536  -28.0337   23.3897 C   0  0  0  0  0  0  0  0  0  0  0  0
  -19.2534  -27.0020   21.6712 C   0  0  0  0  0  0  0  0  0  0  0  0
  -18.9320  -29.3848   22.3358 C   0  0  0  0  0  0  0  0  0  0  0  0
  -28.0817  -18.2032   18.6894 C   0  0  0  0  0  0  0  0  0  0  0  0
  -21.6730  -29.6265   16.0669 C   0  0  0  0  0  0  0  0  0  0  0  0
  -33.9455  -22.3892   19.6356 C   0  0  0  0  0  0  0  0  0  0  0  0
  -32.7104  -21.1118   17.8911 C   0  0  0  0  0  0  0  0  0  0  0  0
  -29.4907  -18.9660   20.5652 C   0  0  0  0  0  0  0  0  0  0  0  0
  -29.5574  -24.2141   18.8590 C   0  0  0  0  0  0  0  0  0  0  0  0
  -31.5141  -21.9294   19.9161 C   0  0  0  0  0  0  0  0  0  0  0  0
  -29.1145  -26.7034   18.7047 C   0  0  0  0  0  0  0  0  0  1  0  0
  -30.1812  -21.7022   19.1831 C   0  0  2  0  0  0  0  0  0  0  0  0
  -20.9258  -28.7523   20.9158 C   0  0  1  0  0  0  0  0  0  0  0  0
  -19.6732  -28.8382   17.3390 C   0  0  2  0  0  0  0  0  0  0  0  0
  -29.3405  -25.4110   17.9025 C   0  0  1  0  0  0  0  0  0  0  0  0
  -29.7829  -22.8394   18.1816 C   0  0  1  0  0  0  0  0  0  0  0  0
  -19.9942  -28.2950   22.0736 C   0  0  0  0  0  0  0  0  0  0  0  0
  -24.9867  -12.2824   21.9193 N   0  0  0  0  0  0  0  0  0  0  0  0
  -25.8852  -13.0910   22.5065 N   0  0  0  0  0  0  0  0  0  0  0  0
  -23.0969  -29.8931   21.2460 N   0  0  0  0  0  0  0  0  0  0  0  0
  -27.1722  -16.0636   20.4774 N   0  0  0  0  0  0  0  0  0  0  0  0
  -27.5448  -13.1598   24.1952 N   0  0  0  0  0  0  0  0  0  0  0  0
  -26.0133   -8.9167   24.4117 N   0  0  0  0  0  0  0  0  0  0  0  0
  -24.9058  -31.6890   23.8535 N   0  0  0  0  0  0  0  0  0  0  0  0
  -20.2302  -29.0332   19.6646 N   0  0  0  0  0  0  0  0  0  0  0  0
  -28.5343  -17.9898   20.0627 N   0  0  0  0  0  0  0  0  0  0  0  0
  -20.4433  -28.7929   16.0639 N   0  3  0  0  0  0  0  0  0  0  0  0
  -32.6150  -22.1786   18.9546 N   0  3  0  0  0  0  0  0  0  0  0  0
  -27.4892  -10.4126   25.3296 O   0  0  0  0  0  0  0  0  0  0  0  0
  -23.8330  -29.6295   23.6800 O   0  0  0  0  0  0  0  0  0  0  0  0
  -21.0857  -31.0400   21.5219 O   0  0  0  0  0  0  0  0  0  0  0  0
  -21.4003  -27.5027   18.3740 O   0  0  0  0  0  0  0  0  0  0  0  0
  -29.1166  -16.4324   21.6573 O   0  0  0  0  0  0  0  0  0  0  0  0
  -22.0247   -6.6884   21.2240 O   0  0  0  0  0  0  0  0  0  0  0  0
  -28.0330  -26.5557   19.6143 O   0  0  0  0  0  0  0  0  0  1  0  0
  -19.8086   -3.7650   25.3406 F   0  0  0  0  0  0  0  0  0  0  0  0
  -19.2843   -6.3937   21.4393 F   0  0  0  0  0  0  0  0  0  0  0  0
  1  2  1  0  0  0  0
  1  5  2  0  0  0  0
  2  6  2  0  0  0  0
  3  8  2  0  0  0  0
  3 15  1  0  0  0  0
  4  9  1  0  0  0  0
  4 15  2  0  0  0  0
  5 17  1  0  0  0  0
  6 19  1  0  0  0  0
  7 10  2  0  0  0  0
  7 18  1  0  0  0  0
  8 21  1  0  0  0  0
  9 21  2  0  0  0  0
 10 22  1  0  0  0  0
 11 12  2  0  0  0  0
 11 23  1  0  0  0  0
 12 24  1  0  0  0  0
 13 20  1  0  0  0  0
 13 22  2  0  0  0  0
 14 24  2  0  0  0  0
 14 25  1  0  0  0  0
 15 26  1  0  0  0  0
 16 26  1  0  0  0  0
 16 27  2  0  0  0  0
 16 29  1  0  0  0  0
 17 19  2  0  0  0  0
 17 35  1  0  0  0  0
 18 20  2  0  0  0  0
 18 36  1  0  0  0  0
 19 44  1  0  0  0  0
 20 37  1  0  0  0  0
 21 84  1  0  0  0  0
 22 85  1  0  0  0  0
 23 25  2  0  0  0  0
 23 84  1  0  0  0  0
 24 86  1  0  0  0  0
 25 87  1  0  0  0  0
 26 68  2  0  0  0  0
 27 69  1  0  0  0  0
 27 72  1  0  0  0  0
 28 30  2  0  0  0  0
 28 62  1  0  0  0  0
 29 73  1  0  0  0  0
 29 79  2  0  0  0  0
 30 47  1  0  0  0  0
 30 58  1  0  0  0  0
 31 45  1  0  0  0  0
 31 74  1  0  0  0  0
 31 80  2  0  0  0  0
 32 63  1  0  0  0  0
 32 70  1  0  0  0  0
 32 81  2  0  0  0  0
 33 64  1  0  0  0  0
 33 75  1  0  0  0  0
 33 82  2  0  0  0  0
 34 71  1  0  0  0  0
 34 76  1  0  0  0  0
 34 83  2  0  0  0  0
 35 38  1  0  0  0  0
 36 45  1  0  0  0  0
 37 70  1  0  0  0  0
 38 40  1  0  0  0  0
 39 41  1  0  0  0  0
 39 42  1  0  0  0  0
 40 44  1  0  0  0  0
 41 46  1  0  0  0  0
 42 71  1  0  0  0  0
 43 46  1  0  0  0  0
 43 71  1  0  0  0  0
 44 74  1  0  0  0  0
 45 70  1  0  0  0  0
 46 69  1  0  0  0  0
 48 64  1  0  0  0  0
 49 65  1  0  0  0  0
 50 66  1  0  0  0  0
 51 67  1  0  0  0  0
 52 67  1  0  0  0  0
 53 67  1  0  0  0  0
 54 76  1  0  0  0  0
 55 77  1  0  0  0  0
 56 78  1  0  0  0  0
 57 78  1  0  0  0  0
 58 76  1  0  0  0  0
 59 65  1  0  0  0  0
 59 66  1  0  0  0  0
 60 62  1  0  0  0  0
 60 78  1  0  0  0  0
 61 65  1  0  0  0  0
 61 85  1  0  0  0  0
 62 66  1  0  0  0  0
 63 67  1  0  0  0  0
 63 75  1  0  0  0  0
 64 77  1  0  0  0  0
 68 69  1  0  0  0  0
M  CHG  2  77   1  78   1
M  ISO  4  34 100  61 101  76 100  85 101
M  END
> <Batch ID>
0106

> <Smiles>
CNC(C)C(=O)NC(C(=O)N1Cc2cc([101O:1][101CH2:1]C(C)CC(C)C(C=C(C)C[100N:0](C)[100C:0](=O)N3CCCC(n4nc(-c5ccc(Oc6ccc(F)cc6F)cc5)c(C(N)=O)c4N)C3)CN(C)C)ccc2CC1C(=O)NC1CCCc2ccccc21)C(C)(C)C

> <Shape>
0.315

> <Color>
0.082

> <Negative vol penalty>
0.000

$$$$

  -OEChem-04052319483D

 87 95  0     1  0  0  0  0  0999 V2000
  -20.0269  -25.9745   16.1411 C   0  0  0  0  0  0  0  0  0  0  0  0
  -20.6898  -26.5572   17.2165 C   0  0  0  0  0  0  0  0  0  0  0  0
  -22.0500  -17.0133   20.9707 C   0  0  0  0  0  0  0  0  0  0  0  0
  -23.5980  -18.6660   21.8129 C   0  0  0  0  0  0  0  0  0  0  0  0
  -20.2608  -24.6379   15.8208 C   0  0  0  0  0  0  0  0  0  0  0  0
  -21.5862  -25.8031   17.9730 C   0  0  0  0  0  0  0  0  0  0  0  0
  -25.8817  -28.2998   18.9526 C   0  0  0  0  0  0  0  0  0  0  0  0
  -23.1203  -16.2398   20.5214 C   0  0  0  0  0  0  0  0  0  0  0  0
  -24.6683  -17.8925   21.3637 C   0  0  0  0  0  0  0  0  0  0  0  0
  -25.8447  -29.2579   19.9648 C   0  0  0  0  0  0  0  0  0  0  0  0
  -25.3793  -14.1025   21.8489 C   0  0  0  0  0  0  0  0  0  0  0  0
  -25.3417  -12.7322   22.1062 C   0  0  0  0  0  0  0  0  0  0  0  0
  -26.8493  -27.6794   21.4874 C   0  0  0  0  0  0  0  0  0  0  0  0
  -21.9716  -29.9416   24.5269 C   0  0  0  0  0  0  0  0  0  0  0  0
  -25.4178  -12.2845   19.7332 C   0  0  0  0  0  0  0  0  0  0  0  0
  -22.2889  -18.2264   21.6164 C   0  0  0  0  0  0  0  0  0  0  0  0
  -20.5615  -18.9664   23.3416 C   0  0  0  0  0  0  0  0  0  0  0  0
  -21.1678  -23.8697   16.5678 C   0  0  0  0  0  0  0  0  0  0  0  0
  -26.3937  -27.0187   19.2037 C   0  0  0  0  0  0  0  0  0  0  0  0
  -21.8315  -24.4546   17.6633 C   0  0  0  0  0  0  0  0  0  0  0  0
  -26.8941  -26.7077   20.4761 C   0  0  0  0  0  0  0  0  0  0  0  0
  -20.8105  -29.3079   24.0985 C   0  0  0  0  0  0  0  0  0  0  0  0
  -20.8950  -28.2348   23.2183 C   0  0  0  0  0  0  0  0  0  0  0  0
  -24.4294  -16.6794   20.7179 C   0  0  0  0  0  0  0  0  0  0  0  0
  -26.3258  -28.9469   21.2332 C   0  0  0  0  0  0  0  0  0  0  0  0
  -25.4360  -14.5639   20.5337 C   0  0  0  0  0  0  0  0  0  0  0  0
  -25.3610  -11.8231   21.0484 C   0  0  0  0  0  0  0  0  0  0  0  0
  -25.4553  -13.6549   19.4759 C   0  0  0  0  0  0  0  0  0  0  0  0
  -21.1837  -19.0262   22.0802 C   0  0  0  0  0  0  0  0  0  0  0  0
  -23.1830  -29.4677   24.0496 C   0  0  0  0  0  0  0  0  0  0  0  0
  -22.1545  -27.8375   22.7994 C   0  0  0  0  0  0  0  0  0  0  0  0
  -19.5754  -19.9207   23.2837 C   0  0  0  0  0  0  0  0  0  0  0  0
  -20.8493  -18.1237   24.4653 C   0  0  0  0  0  0  0  0  0  0  0  0
  -25.2033  -24.0724   19.1252 C   0  0  0  0  0  0  0  0  0  0  0  0
  -28.2841  -23.2314   19.6941 C   0  0  0  0  0  0  0  0  0  0  0  0
  -31.3454  -24.1035   20.9249 C   0  0  0  0  0  0  0  0  0  0  0  0
  -17.7101  -24.9077   21.9202 C   0  0  0  0  0  0  0  0  0  0  0  0
  -21.3524  -22.4156   16.2127 C   0  0  0  0  0  0  0  0  0  0  0  0
  -26.4512  -26.0050   18.0939 C   0  0  0  0  0  0  0  0  0  0  0  0
  -27.4725  -25.3533   20.7915 C   0  0  0  0  0  0  0  0  0  0  0  0
  -22.5989  -21.7904   16.8337 C   0  0  0  0  0  0  0  0  0  0  0  0
  -17.7472  -22.5486   19.3787 C   0  0  0  0  0  0  0  0  0  0  0  0
  -22.7019  -22.1590   18.3103 C   0  0  0  0  0  0  0  0  0  0  0  0
  -18.5948  -21.4107   19.9459 C   0  0  0  0  0  0  0  0  0  0  0  0
  -18.3390  -23.9039   19.7469 C   0  0  0  0  0  0  0  0  0  0  0  0
  -19.3532  -22.9759   21.8039 C   0  0  0  0  0  0  0  0  0  0  0  0
  -22.8298  -23.6763   18.4925 C   0  0  1  0  0  0  0  0  0  0  0  0
  -26.5213  -24.5677   18.6005 C   0  0  1  0  0  0  0  0  0  0  0  0
  -18.7983  -21.5778   21.4620 C   0  0  2  0  0  0  0  0  0  0  0  0
  -19.4905  -29.7988   24.5943 C   0  0  0  0  0  0  0  0  0  0  0  0
  -23.1824  -25.5802   22.4325 C   0  0  0  0  0  0  0  0  0  0  0  0
  -19.4806  -27.6676   21.2179 C   0  0  0  0  0  0  0  0  0  0  0  0
  -33.6557  -23.1928   21.2861 C   0  0  0  0  0  0  0  0  0  0  0  0
  -27.2717  -21.6140   22.0751 C   0  0  0  0  0  0  0  0  0  0  0  0
  -29.6244  -21.5257   22.9266 C   0  0  0  0  0  0  0  0  0  0  0  0
  -29.0547  -20.4875   20.7311 C   0  0  0  0  0  0  0  0  0  0  0  0
  -17.3903  -25.8560   24.1733 C   0  0  0  0  0  0  0  0  0  0  0  0
  -32.5557  -26.1617   19.1762 C   0  0  0  0  0  0  0  0  0  0  0  0
  -24.4630  -30.1294   24.4936 C   0  0  0  0  0  0  0  0  0  0  0  0
  -22.3093  -26.6901   21.8553 C   0  0  0  0  0  0  0  0  0  0  0  0
  -24.9054  -31.2830   23.5907 C   0  0  0  0  0  0  0  0  0  0  0  0
  -19.6212  -26.0374   23.1354 C   0  0  0  0  0  0  0  0  0  0  0  0
  -25.2392  -30.8438   22.1697 C   0  0  0  0  0  0  0  0  0  1  0  0
  -19.6665  -27.5342   22.7437 C   0  0  1  0  0  0  0  0  0  0  0  0
  -29.1201  -23.0070   20.9310 C   0  0  1  0  0  0  0  0  0  0  0  0
  -32.7415  -23.9624   20.3456 C   0  0  2  0  0  0  0  0  0  0  0  0
  -28.7551  -21.6835   21.6609 C   0  0  0  0  0  0  0  0  0  0  0  0
  -20.6385  -19.9456   21.2794 N   0  0  0  0  0  0  0  0  0  0  0  0
  -23.3048  -28.4283   23.1938 N   0  0  0  0  0  0  0  0  0  0  0  0
  -19.6633  -20.4724   22.0394 N   0  0  0  0  0  0  0  0  0  0  0  0
  -27.5010  -24.3942   19.6749 N   0  0  0  0  0  0  0  0  0  0  0  0
  -18.5235  -24.0260   21.1932 N   0  0  0  0  0  0  0  0  0  0  0  0
  -18.6504  -20.3334   24.1761 N   0  0  0  0  0  0  0  0  0  0  0  0
  -21.8960  -17.1981   24.3556 N   0  0  0  0  0  0  0  0  0  0  0  0
  -24.1792  -24.1087   18.1982 N   0  0  0  0  0  0  0  0  0  0  0  0
  -30.5124  -23.0889   20.5030 N   0  0  0  0  0  0  0  0  0  0  0  0
  -18.2654  -25.4953   23.0669 N   0  0  0  0  0  0  0  0  0  0  0  0
  -33.3398  -25.3056   20.1031 N   0  3  0  0  0  0  0  0  0  0  0  0
  -20.1869  -18.1781   25.5292 O   0  0  0  0  0  0  0  0  0  0  0  0
  -25.1219  -23.6846   20.2848 O   0  0  0  0  0  0  0  0  0  0  0  0
  -28.3299  -22.4091   18.7759 O   0  0  0  0  0  0  0  0  0  0  0  0
  -31.0268  -25.0199   21.6794 O   0  0  0  0  0  0  0  0  0  0  0  0
  -16.5533  -25.1630   21.5612 O   0  0  0  0  0  0  0  0  0  0  0  0
  -25.4740  -15.9247   20.2799 O   0  0  0  0  0  0  0  0  0  0  0  0
  -26.2902  -29.8800   22.2231 O   0  0  0  0  0  0  0  0  0  1  0  0
  -25.3265  -10.5071   21.2958 F   0  0  0  0  0  0  0  0  0  0  0  0
  -25.5110  -14.0921   18.2104 F   0  0  0  0  0  0  0  0  0  0  0  0
  1  2  1  0  0  0  0
  1  5  2  0  0  0  0
  2  6  2  0  0  0  0
  3  8  2  0  0  0  0
  3 16  1  0  0  0  0
  4  9  1  0  0  0  0
  4 16  2  0  0  0  0
  5 18  1  0  0  0  0
  6 20  1  0  0  0  0
  7 10  2  0  0  0  0
  7 19  1  0  0  0  0
  8 24  1  0  0  0  0
  9 24  2  0  0  0  0
 10 25  1  0  0  0  0
 11 12  2  0  0  0  0
 11 26  1  0  0  0  0
 12 27  1  0  0  0  0
 13 21  1  0  0  0  0
 13 25  2  0  0  0  0
 14 22  2  0  0  0  0
 14 30  1  0  0  0  0
 15 27  2  0  0  0  0
 15 28  1  0  0  0  0
 16 29  1  0  0  0  0
 17 29  1  0  0  0  0
 17 32  2  0  0  0  0
 17 33  1  0  0  0  0
 18 20  2  0  0  0  0
 18 38  1  0  0  0  0
 19 21  2  0  0  0  0
 19 39  1  0  0  0  0
 20 47  1  0  0  0  0
 21 40  1  0  0  0  0
 22 23  1  0  0  0  0
 22 50  1  0  0  0  0
 23 31  2  0  0  0  0
 23 64  1  0  0  0  0
 24 84  1  0  0  0  0
 25 85  1  0  0  0  0
 26 28  2  0  0  0  0
 26 84  1  0  0  0  0
 27 86  1  0  0  0  0
 28 87  1  0  0  0  0
 29 68  2  0  0  0  0
 30 59  1  0  0  0  0
 30 69  2  0  0  0  0
 31 60  1  0  0  0  0
 31 69  1  0  0  0  0
 32 70  1  0  0  0  0
 32 73  1  0  0  0  0
 33 74  1  0  0  0  0
 33 79  2  0  0  0  0
 34 48  1  0  0  0  0
 34 75  1  0  0  0  0
 34 80  2  0  0  0  0
 35 65  1  0  0  0  0
 35 71  1  0  0  0  0
 35 81  2  0  0  0  0
 36 66  1  0  0  0  0
 36 76  1  0  0  0  0
 36 82  2  0  0  0  0
 37 72  1  0  0  0  0
 37 77  1  0  0  0  0
 37 83  2  0  0  0  0
 38 41  1  0  0  0  0
 39 48  1  0  0  0  0
 40 71  1  0  0  0  0
 41 43  1  0  0  0  0
 42 44  1  0  0  0  0
 42 45  1  0  0  0  0
 43 47  1  0  0  0  0
 44 49  1  0  0  0  0
 45 72  1  0  0  0  0
 46 49  1  0  0  0  0
 46 72  1  0  0  0  0
 47 75  1  0  0  0  0
 48 71  1  0  0  0  0
 49 70  1  0  0  0  0
 51 60  1  0  0  0  0
 52 64  1  0  0  0  0
 53 66  1  0  0  0  0
 54 67  1  0  0  0  0
 55 67  1  0  0  0  0
 56 67  1  0  0  0  0
 57 77  1  0  0  0  0
 58 78  1  0  0  0  0
 59 61  1  0  0  0  0
 61 63  1  0  0  0  0
 62 64  1  0  0  0  0
 62 77  1  0  0  0  0
 63 85  1  0  0  0  0
 65 67  1  0  0  0  0
 65 76  1  0  0  0  0
 66 78  1  0  0  0  0
 68 70  1  0  0  0  0
M  CHG  1  78   1
M  ISO  4  37 100  63 101  77 100  85 101
M  END
> <Batch ID>
0106

> <Smiles>
CCc1nc(CC[101CH2:1][101O:1]c2ccc3c(c2)CN(C(=O)C(NC(=O)C(C)NC)C(C)(C)C)C(C(=O)NC2CCCc4ccccc42)C3)cc(C)c1C(C)C[100N:0](C)[100C:0](=O)N1CCCC(n2nc(-c3ccc(Oc4ccc(F)cc4F)cc3)c(C(N)=O)c2N)C1

> <Shape>
0.178

> <Color>
0.065

> <Negative vol penalty>
0.000

$$$$

  -OEChem-04052319483D

 85 93  0     1  0  0  0  0  0999 V2000
  -30.9626  -24.4433   14.3726 C   0  0  0  0  0  0  0  0  0  0  0  0
  -30.5608  -23.5250   15.3373 C   0  0  0  0  0  0  0  0  0  0  0  0
  -28.0424  -15.1026   19.4139 C   0  0  0  0  0  0  0  0  0  0  0  0
  -27.0203  -15.8431   21.4740 C   0  0  0  0  0  0  0  0  0  0  0  0
  -31.1162  -25.7869   14.7120 C   0  0  0  0  0  0  0  0  0  0  0  0
  -30.3134  -23.9495   16.6423 C   0  0  0  0  0  0  0  0  0  0  0  0
  -26.1157  -22.5351   22.2721 C   0  0  0  0  0  0  0  0  0  0  0  0
  -27.3052  -13.9200   19.4732 C   0  0  0  0  0  0  0  0  0  0  0  0
  -26.2830  -14.6605   21.5333 C   0  0  0  0  0  0  0  0  0  0  0  0
  -26.1998  -22.2621   23.6367 C   0  0  0  0  0  0  0  0  0  0  0  0
  -23.8634  -11.9942   22.0377 C   0  0  0  0  0  0  0  0  0  0  0  0
  -22.5088  -12.0889   22.3563 C   0  0  0  0  0  0  0  0  0  0  0  0
  -26.4214  -24.6213   24.0889 C   0  0  0  0  0  0  0  0  0  0  0  0
  -30.2949  -20.3731   27.1586 C   0  0  0  0  0  0  0  0  0  0  0  0
  -31.3550  -22.4774   26.6250 C   0  0  0  0  0  0  0  0  0  0  0  0
  -22.1485  -13.4768   20.4118 C   0  0  0  0  0  0  0  0  0  0  0  0
  -27.9001  -16.0641   20.4143 C   0  0  0  0  0  0  0  0  0  0  0  0
  -28.2857  -18.4923   19.7339 C   0  0  0  0  0  0  0  0  0  0  0  0
  -30.8612  -26.2298   16.0195 C   0  0  0  0  0  0  0  0  0  0  0  0
  -26.1949  -23.8546   21.8040 C   0  0  0  0  0  0  0  0  0  0  0  0
  -30.4651  -25.3000   16.9998 C   0  0  0  0  0  0  0  0  0  0  0  0
  -26.3354  -24.9086   22.7181 C   0  0  0  0  0  0  0  0  0  0  0  0
  -31.4045  -21.0857   26.7042 C   0  0  0  0  0  0  0  0  0  0  0  0
  -29.1356  -21.0522   27.5338 C   0  0  0  0  0  0  0  0  0  0  0  0
  -30.1958  -23.1566   27.0002 C   0  0  0  0  0  0  0  0  0  0  0  0
  -29.0861  -22.4439   27.4546 C   0  0  0  0  0  0  0  0  0  0  0  0
  -26.4255  -13.6989   20.5328 C   0  0  0  0  0  0  0  0  0  0  0  0
  -26.3555  -23.3050   24.5451 C   0  0  0  0  0  0  0  0  0  0  0  0
  -24.3607  -12.6409   20.9062 C   0  0  0  0  0  0  0  0  0  0  0  0
  -21.6513  -12.8302   21.5433 C   0  0  0  0  0  0  0  0  0  0  0  0
  -23.5033  -13.3821   20.0932 C   0  0  0  0  0  0  0  0  0  0  0  0
  -28.6618  -17.2857   20.3540 C   0  0  0  0  0  0  0  0  0  0  0  0
  -29.3451  -19.3376   19.9566 C   0  0  0  0  0  0  0  0  0  0  0  0
  -27.0859  -18.8197   19.0204 C   0  0  0  0  0  0  0  0  0  0  0  0
  -28.1867  -25.4454   19.9051 C   0  0  0  0  0  0  0  0  0  0  0  0
  -26.0093  -27.8230   20.2629 C   0  0  0  0  0  0  0  0  0  0  0  0
  -23.5180  -29.2123   22.1365 C   0  0  0  0  0  0  0  0  0  0  0  0
  -33.5966  -19.5245   24.1686 C   0  0  0  0  0  0  0  0  0  0  0  0
  -31.0867  -27.6839   16.3503 C   0  0  0  0  0  0  0  0  0  0  0  0
  -26.0756  -24.1347   20.3310 C   0  0  0  0  0  0  0  0  0  0  0  0
  -26.4053  -26.3443   22.2684 C   0  0  0  0  0  0  0  0  0  0  0  0
  -30.4426  -28.1164   17.6650 C   0  0  0  0  0  0  0  0  0  0  0  0
  -34.0792  -19.3064   20.6478 C   0  0  0  0  0  0  0  0  0  0  0  0
  -30.7428  -27.1034   18.7652 C   0  0  0  0  0  0  0  0  0  0  0  0
  -32.7116  -18.8726   20.1173 C   0  0  0  0  0  0  0  0  0  0  0  0
  -34.3961  -18.6539   21.9916 C   0  0  0  0  0  0  0  0  0  0  0  0
  -31.9971  -18.4067   22.4987 C   0  0  0  0  0  0  0  0  0  0  0  0
  -30.1633  -25.7262   18.4202 C   0  0  1  0  0  0  0  0  0  0  0  0
  -26.6846  -25.4735   19.9261 C   0  0  1  0  0  0  0  0  0  0  0  0
  -31.6088  -19.0822   21.1723 C   0  0  2  0  0  0  0  0  0  0  0  0
  -27.9616  -20.2656   28.0181 C   0  0  0  0  0  0  0  0  0  0  0  0
  -30.4511  -25.1426   25.4913 C   0  0  0  0  0  0  0  0  0  0  0  0
  -28.5807  -23.4598   30.2941 C   0  0  0  0  0  0  0  0  0  0  0  0
  -21.9551  -31.1749   22.1912 C   0  0  0  0  0  0  0  0  0  0  0  0
  -28.3088  -29.6267   21.1400 C   0  0  0  0  0  0  0  0  0  0  0  0
  -26.6139  -31.2184   22.0686 C   0  0  0  0  0  0  0  0  0  0  0  0
  -26.6457  -30.7189   19.6248 C   0  0  0  0  0  0  0  0  0  0  0  0
  -21.1326  -27.4628   22.0485 C   0  0  0  0  0  0  0  0  0  0  0  0
  -30.1684  -24.6473   26.9062 C   0  0  0  0  0  0  0  0  0  0  0  0
  -32.6436  -20.3596   26.3025 C   0  0  0  0  0  0  0  0  0  0  0  0
  -28.0568  -24.1536   29.0424 C   0  0  0  0  0  0  0  0  0  0  0  0
  -27.2130  -23.9400   26.6706 C   0  0  0  0  0  0  0  0  0  1  0  0
  -27.8209  -23.1849   27.8646 C   0  0  1  0  0  0  0  0  0  0  0  0
  -25.8169  -28.9584   21.2390 C   0  0  1  0  0  0  0  0  0  0  0  0
  -22.1418  -29.7291   21.7580 C   0  0  2  0  0  0  0  0  0  0  0  0
  -26.8470  -30.1035   21.0268 C   0  0  0  0  0  0  0  0  0  0  0  0
  -29.8661  -17.3542   20.9274 N   0  0  0  0  0  0  0  0  0  0  0  0
  -30.2560  -18.6140   20.6686 N   0  0  0  0  0  0  0  0  0  0  0  0
  -26.2904  -26.5664   20.8175 N   0  0  0  0  0  0  0  0  0  0  0  0
  -33.3118  -18.8912   22.9475 N   0  0  0  0  0  0  0  0  0  0  0  0
  -29.5770  -20.6218   19.6109 N   0  0  0  0  0  0  0  0  0  0  0  0
  -26.0992  -17.8337   18.8844 N   0  0  0  0  0  0  0  0  0  0  0  0
  -28.7369  -25.7026   18.6639 N   0  0  0  0  0  0  0  0  0  0  0  0
  -24.4248  -29.3756   21.1106 N   0  0  0  0  0  0  0  0  0  0  0  0
  -32.5109  -19.7167   25.0141 N   0  0  0  0  0  0  0  0  0  0  0  0
  -21.0827  -28.9041   22.4052 N   0  3  0  0  0  0  0  0  0  0  0  0
  -26.9016  -19.9481   18.5042 O   0  0  0  0  0  0  0  0  0  0  0  0
  -28.8011  -25.2093   20.9388 O   0  0  0  0  0  0  0  0  0  0  0  0
  -25.9068  -28.0416   19.0532 O   0  0  0  0  0  0  0  0  0  0  0  0
  -23.7650  -28.7170   23.2338 O   0  0  0  0  0  0  0  0  0  0  0  0
  -34.7333  -19.8962   24.4797 O   0  0  0  0  0  0  0  0  0  0  0  0
  -25.7057  -12.5452   20.5909 O   0  0  0  0  0  0  0  0  0  0  0  0
  -26.4386  -23.0412   25.8776 O   0  0  0  0  0  0  0  0  0  1  0  0
  -20.3501  -12.9198   21.8485 F   0  0  0  0  0  0  0  0  0  0  0  0
  -23.9749  -14.0046   19.0043 F   0  0  0  0  0  0  0  0  0  0  0  0
  1  2  1  0  0  0  0
  1  5  2  0  0  0  0
  2  6  2  0  0  0  0
  3  8  2  0  0  0  0
  3 17  1  0  0  0  0
  4  9  1  0  0  0  0
  4 17  2  0  0  0  0
  5 19  1  0  0  0  0
  6 21  1  0  0  0  0
  7 10  2  0  0  0  0
  7 20  1  0  0  0  0
  8 27  1  0  0  0  0
  9 27  2  0  0  0  0
 10 28  1  0  0  0  0
 11 12  2  0  0  0  0
 11 29  1  0  0  0  0
 12 30  1  0  0  0  0
 13 22  1  0  0  0  0
 13 28  2  0  0  0  0
 14 23  1  0  0  0  0
 14 24  2  0  0  0  0
 15 23  2  0  0  0  0
 15 25  1  0  0  0  0
 16 30  2  0  0  0  0
 16 31  1  0  0  0  0
 17 32  1  0  0  0  0
 18 32  1  0  0  0  0
 18 33  2  0  0  0  0
 18 34  1  0  0  0  0
 19 21  2  0  0  0  0
 19 39  1  0  0  0  0
 20 22  2  0  0  0  0
 20 40  1  0  0  0  0
 21 48  1  0  0  0  0
 22 41  1  0  0  0  0
 23 60  1  0  0  0  0
 24 26  1  0  0  0  0
 24 51  1  0  0  0  0
 25 26  2  0  0  0  0
 25 59  1  0  0  0  0
 26 63  1  0  0  0  0
 27 82  1  0  0  0  0
 28 83  1  0  0  0  0
 29 31  2  0  0  0  0
 29 82  1  0  0  0  0
 30 84  1  0  0  0  0
 31 85  1  0  0  0  0
 32 67  2  0  0  0  0
 33 68  1  0  0  0  0
 33 71  1  0  0  0  0
 34 72  1  0  0  0  0
 34 77  2  0  0  0  0
 35 49  1  0  0  0  0
 35 73  1  0  0  0  0
 35 78  2  0  0  0  0
 36 64  1  0  0  0  0
 36 69  1  0  0  0  0
 36 79  2  0  0  0  0
 37 65  1  0  0  0  0
 37 74  1  0  0  0  0
 37 80  2  0  0  0  0
 38 70  1  0  0  0  0
 38 75  1  0  0  0  0
 38 81  2  0  0  0  0
 39 42  1  0  0  0  0
 40 49  1  0  0  0  0
 41 69  1  0  0  0  0
 42 44  1  0  0  0  0
 43 45  1  0  0  0  0
 43 46  1  0  0  0  0
 44 48  1  0  0  0  0
 45 50  1  0  0  0  0
 46 70  1  0  0  0  0
 47 50  1  0  0  0  0
 47 70  1  0  0  0  0
 48 73  1  0  0  0  0
 49 69  1  0  0  0  0
 50 68  1  0  0  0  0
 52 59  1  0  0  0  0
 53 61  1  0  0  0  0
 54 65  1  0  0  0  0
 55 66  1  0  0  0  0
 56 66  1  0  0  0  0
 57 66  1  0  0  0  0
 58 76  1  0  0  0  0
 60 75  1  0  0  0  0
 61 63  1  0  0  0  0
 62 63  1  0  0  0  0
 62 83  1  0  0  0  0
 64 66  1  0  0  0  0
 64 74  1  0  0  0  0
 65 76  1  0  0  0  0
 67 68  1  0  0  0  0
M  CHG  1  76   1
M  ISO  4  38 100  62 101  75 100  83 101
M  END
> <Batch ID>
0106

> <Smiles>
CCc1cc(C[100NH:0][100C:0](=O)N2CCCC(n3nc(-c4ccc(Oc5ccc(F)cc5F)cc4)c(C(N)=O)c3N)C2)cc(C)c1C(CC)[101CH2:1][101O:1]c1ccc2c(c1)CN(C(=O)C(NC(=O)C(C)NC)C(C)(C)C)C(C(=O)NC1CCCc3ccccc31)C2

> <Shape>
0.205

> <Color>
0.061

> <Negative vol penalty>
0.000

$$$$

  -OEChem-04052319483D

 92101  0     1  0  0  0  0  0999 V2000
  -30.8088  -11.8020   23.2584 C   0  0  0  0  0  0  0  0  0  0  0  0
  -30.1639  -12.9932   23.5757 C   0  0  0  0  0  0  0  0  0  0  0  0
  -22.2311  -28.4929   20.8650 C   0  0  0  0  0  0  0  0  0  0  0  0
  -23.3724  -27.3249   22.6456 C   0  0  0  0  0  0  0  0  0  0  0  0
  -30.5677  -11.1857   22.0312 C   0  0  0  0  0  0  0  0  0  0  0  0
  -29.2784  -13.5693   22.6656 C   0  0  0  0  0  0  0  0  0  0  0  0
  -25.0029  -15.1662   24.8598 C   0  0  0  0  0  0  0  0  0  0  0  0
  -27.9666  -20.7270   24.9687 C   0  0  0  0  0  0  0  0  0  0  0  0
  -28.4132  -21.1945   23.7328 C   0  0  0  0  0  0  0  0  0  0  0  0
  -21.0088  -28.2589   21.4949 C   0  0  0  0  0  0  0  0  0  0  0  0
  -22.1500  -27.0909   23.2755 C   0  0  0  0  0  0  0  0  0  0  0  0
  -25.0575  -16.3715   25.5585 C   0  0  0  0  0  0  0  0  0  0  0  0
  -19.2499  -29.5507   24.0776 C   0  0  0  0  0  0  0  0  0  0  0  0
  -18.3529  -30.6150   24.1678 C   0  0  0  0  0  0  0  0  0  0  0  0
  -24.0746  -17.5043   23.6692 C   0  0  0  0  0  0  0  0  0  0  0  0
  -25.7181  -21.4183   24.4178 C   0  0  0  0  0  0  0  0  0  0  0  0
  -28.2024  -19.8811   20.7817 C   0  0  0  0  0  0  0  0  0  0  0  0
  -16.7246  -29.3493   22.9093 C   0  0  0  0  0  0  0  0  0  0  0  0
  -30.2009  -20.4638   19.0175 C   0  0  0  0  0  0  0  0  0  0  0  0
  -23.4129  -28.0259   21.4403 C   0  0  0  0  0  0  0  0  0  0  0  0
  -25.5275  -29.3732   20.9701 C   0  0  0  0  0  0  0  0  0  0  0  0
  -29.6714  -11.7494   21.1096 C   0  0  0  0  0  0  0  0  0  0  0  0
  -24.4929  -15.1228   23.5543 C   0  0  0  0  0  0  0  0  0  0  0  0
  -29.0261  -12.9606   21.4244 C   0  0  0  0  0  0  0  0  0  0  0  0
  -24.0122  -16.2969   22.9570 C   0  0  0  0  0  0  0  0  0  0  0  0
  -26.6190  -20.8388   25.3112 C   0  0  0  0  0  0  0  0  0  0  0  0
  -27.5123  -21.7740   22.8394 C   0  0  0  0  0  0  0  0  0  0  0  0
  -26.1647  -21.8859   23.1819 C   0  0  0  0  0  0  0  0  0  0  0  0
  -28.6488  -21.1928   20.6656 C   0  0  0  0  0  0  0  0  0  0  0  0
  -29.6668  -21.4981   19.7690 C   0  0  0  0  0  0  0  0  0  0  0  0
  -20.9683  -27.5579   22.7001 C   0  0  0  0  0  0  0  0  0  0  0  0
  -24.5960  -17.5413   24.9622 C   0  0  0  0  0  0  0  0  0  0  0  0
  -18.8843  -28.3857   23.4032 C   0  0  0  0  0  0  0  0  0  0  0  0
  -17.0902  -30.5143   23.5837 C   0  0  0  0  0  0  0  0  0  0  0  0
  -17.6217  -28.2850   22.8190 C   0  0  0  0  0  0  0  0  0  0  0  0
  -24.6758  -28.2668   20.7899 C   0  0  0  0  0  0  0  0  0  0  0  0
  -28.8020  -18.9193   19.9848 C   0  0  0  0  0  0  0  0  0  0  0  0
  -26.5881  -29.1301   20.1320 C   0  0  0  0  0  0  0  0  0  0  0  0
  -25.3736  -30.5181   21.8192 C   0  0  0  0  0  0  0  0  0  0  0  0
  -25.6772  -14.3478   20.7081 C   0  0  0  0  0  0  0  0  0  0  0  0
  -22.6044  -14.7558   19.7521 C   0  0  0  0  0  0  0  0  0  0  0  0
  -19.5644  -16.2027   20.3102 C   0  0  0  0  0  0  0  0  0  0  0  0
  -28.9171  -24.1063   17.8541 C   0  0  0  0  0  0  0  0  0  0  0  0
  -29.4789  -11.0713   19.7763 C   0  0  0  0  0  0  0  0  0  0  0  0
  -24.4162  -13.8101   22.8240 C   0  0  0  0  0  0  0  0  0  0  0  0
  -23.4367  -16.3003   21.5652 C   0  0  0  0  0  0  0  0  0  0  0  0
  -28.2414  -11.5507   19.0220 C   0  0  0  0  0  0  0  0  0  0  0  0
  -27.6946  -26.9145   16.0384 C   0  0  0  0  0  0  0  0  0  0  0  0
  -28.1623  -13.0740   19.0397 C   0  0  0  0  0  0  0  0  0  0  0  0
  -26.8592  -27.6793   17.0665 C   0  0  0  0  0  0  0  0  0  0  0  0
  -27.5750  -25.4036   16.2254 C   0  0  0  0  0  0  0  0  0  0  0  0
  -27.0411  -25.6871   18.6147 C   0  0  0  0  0  0  0  0  0  0  0  0
  -28.0397  -13.6034   20.4736 C   0  0  1  0  0  0  0  0  0  0  0  0
  -24.3519  -13.9724   21.3084 C   0  0  1  0  0  0  0  0  0  0  0  0
  -27.1738  -27.2155   18.5015 C   0  0  2  0  0  0  0  0  0  0  0  0
  -28.3485  -17.5009   20.0830 C   0  0  0  0  0  0  0  0  0  0  0  0
  -17.2586  -16.3803   19.3359 C   0  0  0  0  0  0  0  0  0  0  0  0
  -23.7471  -22.5120   22.8521 C   0  0  0  0  0  0  0  0  0  0  0  0
  -25.1179  -21.7163   20.8967 C   0  0  0  0  0  0  0  0  0  0  0  0
  -25.4766  -23.9867   21.8442 C   0  0  0  0  0  0  0  0  0  0  0  0
  -23.6518  -16.6829   17.6310 C   0  0  0  0  0  0  0  0  0  0  0  0
  -21.3127  -17.5280   17.3436 C   0  0  0  0  0  0  0  0  0  0  0  0
  -21.8459  -15.1435   16.8413 C   0  0  0  0  0  0  0  0  0  0  0  0
  -18.3299  -14.9954   22.7138 C   0  0  0  0  0  0  0  0  0  0  0  0
  -28.0140  -22.2684   21.5224 C   0  0  0  0  0  0  0  0  0  0  0  0
  -26.1361  -20.3332   26.6489 C   0  0  0  0  0  0  0  0  0  0  0  0
  -30.1828  -22.8855   19.6052 C   0  0  0  0  0  0  0  0  0  0  0  0
  -25.7003  -18.8731   26.5940 C   0  0  0  0  0  0  0  0  0  1  0  0
  -21.7877  -15.9204   19.2465 C   0  0  1  0  0  0  0  0  0  0  0  0
  -18.1591  -15.6285   20.3037 C   0  0  2  0  0  0  0  0  0  0  0  0
  -25.1820  -22.5031   22.2416 C   0  0  0  0  0  0  0  0  0  0  0  0
  -22.1621  -16.3193   17.7911 C   0  0  0  0  0  0  0  0  0  0  0  0
  -29.7933  -19.1777   19.1026 N   0  0  0  0  0  0  0  0  0  0  0  0
  -25.1541  -27.3865   19.9065 N   0  0  0  0  0  0  0  0  0  0  0  0
  -26.3177  -27.9395   19.5241 N   0  0  0  0  0  0  0  0  0  0  0  0
  -23.3890  -14.9930   20.8896 N   0  0  0  0  0  0  0  0  0  0  0  0
  -27.8877  -25.0295   17.6068 N   0  0  0  0  0  0  0  0  0  0  0  0
  -27.7164  -29.8209   19.8630 N   0  0  0  0  0  0  0  0  0  0  0  0
  -24.2238  -30.6098   22.6153 N   0  0  0  0  0  0  0  0  0  0  0  0
  -26.6866  -13.4382   20.9595 N   0  0  0  0  0  0  0  0  0  0  0  0
  -20.3890  -15.5449   19.4221 N   0  0  0  0  0  0  0  0  0  0  0  0
  -29.1526  -23.8119   19.1914 N   0  0  0  0  0  0  0  0  0  0  0  0
  -17.5591  -15.7120   21.6653 N   0  3  0  0  0  0  0  0  0  0  0  0
  -26.2225  -31.4408   21.8582 O   0  0  0  0  0  0  0  0  0  0  0  0
  -25.7763  -15.3852   20.0633 O   0  0  0  0  0  0  0  0  0  0  0  0
  -22.5428  -13.6733   19.1637 O   0  0  0  0  0  0  0  0  0  0  0  0
  -19.8963  -17.1432   21.0284 O   0  0  0  0  0  0  0  0  0  0  0  0
  -29.5808  -23.5872   16.9502 O   0  0  0  0  0  0  0  0  0  0  0  0
  -19.7757  -27.3296   23.3152 O   0  0  0  0  0  0  0  0  0  0  0  0
  -24.6487  -18.7191   25.6417 O   0  0  0  0  0  0  0  0  0  1  0  0
  -16.2283  -31.5359   23.6717 F   0  0  0  0  0  0  0  0  0  0  0  0
  -17.2643  -27.1678   22.1709 F   0  0  0  0  0  0  0  0  0  0  0  0
  1  2  1  0  0  0  0
  1  5  2  0  0  0  0
  2  6  2  0  0  0  0
  3 10  2  0  0  0  0
  3 20  1  0  0  0  0
  4 11  1  0  0  0  0
  4 20  2  0  0  0  0
  5 22  1  0  0  0  0
  6 24  1  0  0  0  0
  7 12  2  0  0  0  0
  7 23  1  0  0  0  0
  8  9  2  0  0  0  0
  8 26  1  0  0  0  0
  9 27  1  0  0  0  0
 10 31  1  0  0  0  0
 11 31  2  0  0  0  0
 12 32  1  0  0  0  0
 13 14  2  0  0  0  0
 13 33  1  0  0  0  0
 14 34  1  0  0  0  0
 15 25  1  0  0  0  0
 15 32  2  0  0  0  0
 16 26  2  0  0  0  0
 16 28  1  0  0  0  0
 17 29  1  0  0  0  0
 17 37  2  0  0  0  0
 18 34  2  0  0  0  0
 18 35  1  0  0  0  0
 19 30  1  0  0  0  0
 19 73  2  0  0  0  0
 20 36  1  0  0  0  0
 21 36  1  0  0  0  0
 21 38  2  0  0  0  0
 21 39  1  0  0  0  0
 22 24  2  0  0  0  0
 22 44  1  0  0  0  0
 23 25  2  0  0  0  0
 23 45  1  0  0  0  0
 24 53  1  0  0  0  0
 25 46  1  0  0  0  0
 26 66  1  0  0  0  0
 27 28  2  0  0  0  0
 27 65  1  0  0  0  0
 28 71  1  0  0  0  0
 29 30  2  0  0  0  0
 29 65  1  0  0  0  0
 30 67  1  0  0  0  0
 31 89  1  0  0  0  0
 32 90  1  0  0  0  0
 33 35  2  0  0  0  0
 33 89  1  0  0  0  0
 34 91  1  0  0  0  0
 35 92  1  0  0  0  0
 36 74  2  0  0  0  0
 37 56  1  0  0  0  0
 37 73  1  0  0  0  0
 38 75  1  0  0  0  0
 38 78  1  0  0  0  0
 39 79  1  0  0  0  0
 39 84  2  0  0  0  0
 40 54  1  0  0  0  0
 40 80  1  0  0  0  0
 40 85  2  0  0  0  0
 41 69  1  0  0  0  0
 41 76  1  0  0  0  0
 41 86  2  0  0  0  0
 42 70  1  0  0  0  0
 42 81  1  0  0  0  0
 42 87  2  0  0  0  0
 43 77  1  0  0  0  0
 43 82  1  0  0  0  0
 43 88  2  0  0  0  0
 44 47  1  0  0  0  0
 45 54  1  0  0  0  0
 46 76  1  0  0  0  0
 47 49  1  0  0  0  0
 48 50  1  0  0  0  0
 48 51  1  0  0  0  0
 49 53  1  0  0  0  0
 50 55  1  0  0  0  0
 51 77  1  0  0  0  0
 52 55  1  0  0  0  0
 52 77  1  0  0  0  0
 53 80  1  0  0  0  0
 54 76  1  0  0  0  0
 55 75  1  0  0  0  0
 57 70  1  0  0  0  0
 58 71  1  0  0  0  0
 59 71  1  0  0  0  0
 60 71  1  0  0  0  0
 61 72  1  0  0  0  0
 62 72  1  0  0  0  0
 63 72  1  0  0  0  0
 64 83  1  0  0  0  0
 66 68  1  0  0  0  0
 67 82  1  0  0  0  0
 68 90  1  0  0  0  0
 69 72  1  0  0  0  0
 69 81  1  0  0  0  0
 70 83  1  0  0  0  0
 74 75  1  0  0  0  0
M  CHG  1  83   1
M  ISO  4  43 100  68 101  82 100  90 101
M  END
> <Batch ID>
0106

> <Smiles>
CNC(C)C(=O)NC(C(=O)N1Cc2cc([101O:1][101CH2:1]Cc3ccc(Cc4cc(C)ncc4C[100NH:0][100C:0](=O)N4CCCC(n5nc(-c6ccc(Oc7ccc(F)cc7F)cc6)c(C(N)=O)c5N)C4)c(C(C)(C)C)c3)ccc2CC1C(=O)NC1CCCc2ccccc21)C(C)(C)C

> <Shape>
0.253

> <Color>
0.062

> <Negative vol penalty>
0.000

$$$$

  -OEChem-04052319483D

 86 94  0     1  0  0  0  0  0999 V2000
  -22.9489  -18.4153   17.3794 C   0  0  0  0  0  0  0  0  0  0  0  0
  -24.3386  -18.3511   17.3822 C   0  0  0  0  0  0  0  0  0  0  0  0
  -25.7106  -27.6454   20.6979 C   0  0  0  0  0  0  0  0  0  0  0  0
  -26.4331  -26.7243   22.8114 C   0  0  0  0  0  0  0  0  0  0  0  0
  -22.2210  -17.7839   18.3871 C   0  0  0  0  0  0  0  0  0  0  0  0
  -25.0013  -17.6562   18.3933 C   0  0  0  0  0  0  0  0  0  0  0  0
  -30.1924  -14.4501   17.8647 C   0  0  0  0  0  0  0  0  0  0  0  0
  -24.6352  -28.2642   21.3352 C   0  0  0  0  0  0  0  0  0  0  0  0
  -25.3577  -27.3432   23.4487 C   0  0  0  0  0  0  0  0  0  0  0  0
  -31.5202  -14.7604   18.1552 C   0  0  0  0  0  0  0  0  0  0  0  0
  -21.5885  -27.3811   22.5023 C   0  0  0  0  0  0  0  0  0  0  0  0
  -20.3368  -27.2919   21.8934 C   0  0  0  0  0  0  0  0  0  0  0  0
  -31.2931  -13.6922   20.3061 C   0  0  0  0  0  0  0  0  0  0  0  0
  -20.2409  -29.7010   21.7377 C   0  0  0  0  0  0  0  0  0  0  0  0
  -32.0124  -17.8145   20.9658 C   0  0  0  0  0  0  0  0  0  0  0  0
  -33.4718  -19.1049   22.0702 C   0  0  0  0  0  0  0  0  0  0  0  0
  -26.6095  -26.8754   21.4360 C   0  0  0  0  0  0  0  0  0  0  0  0
  -29.0069  -26.7678   20.5707 C   0  0  0  0  0  0  0  0  0  0  0  0
  -22.8748  -17.0728   19.4057 C   0  0  0  0  0  0  0  0  0  0  0  0
  -29.4004  -13.7669   18.7988 C   0  0  0  0  0  0  0  0  0  0  0  0
  -24.2816  -17.0158   19.4163 C   0  0  0  0  0  0  0  0  0  0  0  0
  -29.9563  -13.3721   20.0241 C   0  0  0  0  0  0  0  0  0  0  0  0
  -31.2834  -18.7110   21.7156 C   0  0  0  0  0  0  0  0  0  0  0  0
  -32.2067  -19.5273   22.4144 C   0  0  0  0  0  0  0  0  0  0  0  0
  -24.4587  -28.1131   22.7106 C   0  0  0  0  0  0  0  0  0  0  0  0
  -32.0700  -14.3840   19.3771 C   0  0  0  0  0  0  0  0  0  0  0  0
  -22.1665  -28.6302   22.7290 C   0  0  0  0  0  0  0  0  0  0  0  0
  -19.6630  -28.4518   21.5111 C   0  0  0  0  0  0  0  0  0  0  0  0
  -21.4927  -29.7902   22.3466 C   0  0  0  0  0  0  0  0  0  0  0  0
  -27.7203  -26.2354   20.7782 C   0  0  0  0  0  0  0  0  0  0  0  0
  -29.6861  -25.7755   19.9070 C   0  0  0  0  0  0  0  0  0  0  0  0
  -29.5403  -28.0451   20.9445 C   0  0  0  0  0  0  0  0  0  0  0  0
  -26.7400  -14.4398   20.4028 C   0  0  0  0  0  0  0  0  0  0  0  0
  -26.9953  -11.3489   21.3535 C   0  0  0  0  0  0  0  0  0  0  0  0
  -28.9968   -8.6350   21.8779 C   0  0  0  0  0  0  0  0  0  0  0  0
  -29.0090  -19.8314   19.6628 C   0  0  0  0  0  0  0  0  0  0  0  0
  -22.0472  -16.4463   20.4999 C   0  0  0  0  0  0  0  0  0  0  0  0
  -27.9777  -13.4161   18.4596 C   0  0  0  0  0  0  0  0  0  0  0  0
  -29.1543  -12.6191   21.0528 C   0  0  0  0  0  0  0  0  0  0  0  0
  -22.8109  -15.4148   21.3265 C   0  0  0  0  0  0  0  0  0  0  0  0
  -28.9777  -22.1040   16.9222 C   0  0  0  0  0  0  0  0  0  0  0  0
  -24.1814  -15.9558   21.7211 C   0  0  0  0  0  0  0  0  0  0  0  0
  -28.7680  -23.4686   17.5809 C   0  0  0  0  0  0  0  0  0  0  0  0
  -28.1957  -21.0053   17.6387 C   0  0  0  0  0  0  0  0  0  0  0  0
  -28.2342  -22.2786   19.7484 C   0  0  0  0  0  0  0  0  0  0  0  0
  -25.0357  -16.2508   20.4822 C   0  0  1  0  0  0  0  0  0  0  0  0
  -27.1129  -13.1696   19.6919 C   0  0  1  0  0  0  0  0  0  0  0  0
  -29.0472  -23.4092   19.0948 C   0  0  2  0  0  0  0  0  0  0  0  0
  -31.8365  -22.4888   21.5789 C   0  0  0  0  0  0  0  0  0  0  0  0
  -32.3775  -20.3374   24.7819 C   0  0  0  0  0  0  0  0  0  0  0  0
  -28.9259   -6.2636   22.6957 C   0  0  0  0  0  0  0  0  0  0  0  0
  -26.8085  -12.3491   24.2301 C   0  0  0  0  0  0  0  0  0  0  0  0
  -27.6822  -10.1277   24.9855 C   0  0  0  0  0  0  0  0  0  0  0  0
  -25.5109  -10.2624   23.7648 C   0  0  0  0  0  0  0  0  0  0  0  0
  -36.0858  -15.3891   20.4338 C   0  0  0  0  0  0  0  0  0  0  0  0
  -35.2022  -16.0519   22.6710 C   0  0  0  0  0  0  0  0  0  0  0  0
  -29.9300   -7.5862   19.2725 C   0  0  0  0  0  0  0  0  0  0  0  0
  -29.8106  -18.7968   21.7714 C   0  0  0  0  0  0  0  0  0  0  0  0
  -32.4263  -22.0252   22.9053 C   0  0  0  0  0  0  0  0  0  0  0  0
  -34.4877  -17.3071   20.5581 C   0  0  0  0  0  0  0  0  0  0  0  0
  -33.6952  -14.8978   21.0356 C   0  0  0  0  0  0  0  0  0  1  0  0
  -31.8850  -20.6293   23.3425 C   0  0  1  0  0  0  0  0  0  0  0  0
  -27.6686  -10.6355   22.5009 C   0  0  1  0  0  0  0  0  0  0  0  0
  -28.8415   -7.1774   21.4831 C   0  0  2  0  0  0  0  0  0  0  0  0
  -26.9324  -10.8596   23.8519 C   0  0  0  0  0  0  0  0  0  0  0  0
  -34.8416  -15.9229   21.1797 C   0  0  0  0  0  0  0  0  0  0  0  0
  -27.5876  -25.0008   20.2860 N   0  0  0  0  0  0  0  0  0  0  0  0
  -33.3415  -18.0635   21.1889 N   0  0  0  0  0  0  0  0  0  0  0  0
  -28.7995  -24.7492   19.7626 N   0  0  0  0  0  0  0  0  0  0  0  0
  -27.7660  -12.3050   20.6769 N   0  0  0  0  0  0  0  0  0  0  0  0
  -28.5069  -21.0017   19.0701 N   0  0  0  0  0  0  0  0  0  0  0  0
  -30.9493  -25.6896   19.4385 N   0  0  0  0  0  0  0  0  0  0  0  0
  -28.7061  -28.9454   21.6211 N   0  0  0  0  0  0  0  0  0  0  0  0
  -25.5773  -15.0241   19.9379 N   0  0  0  0  0  0  0  0  0  0  0  0
  -27.7765   -9.2357   22.1043 N   0  0  0  0  0  0  0  0  0  0  0  0
  -29.2835  -19.9157   21.0223 N   0  0  0  0  0  0  0  0  0  0  0  0
  -29.9110   -6.7841   20.5228 N   0  3  0  0  0  0  0  0  0  0  0  0
  -30.7167  -28.3844   20.6716 O   0  0  0  0  0  0  0  0  0  0  0  0
  -27.4534  -14.8579   21.3072 O   0  0  0  0  0  0  0  0  0  0  0  0
  -25.8308  -11.0632   21.0634 O   0  0  0  0  0  0  0  0  0  0  0  0
  -30.0914   -9.1846   21.9793 O   0  0  0  0  0  0  0  0  0  0  0  0
  -29.2035  -18.7902   19.0264 O   0  0  0  0  0  0  0  0  0  0  0  0
  -23.4096  -28.7171   23.3328 O   0  0  0  0  0  0  0  0  0  0  0  0
  -33.3656  -14.6862   19.6634 O   0  0  0  0  0  0  0  0  0  1  0  0
  -18.4616  -28.3660   20.9250 F   0  0  0  0  0  0  0  0  0  0  0  0
  -22.0434  -30.9930   22.5607 F   0  0  0  0  0  0  0  0  0  0  0  0
  1  2  1  0  0  0  0
  1  5  2  0  0  0  0
  2  6  2  0  0  0  0
  3  8  2  0  0  0  0
  3 17  1  0  0  0  0
  4  9  1  0  0  0  0
  4 17  2  0  0  0  0
  5 19  1  0  0  0  0
  6 21  1  0  0  0  0
  7 10  2  0  0  0  0
  7 20  1  0  0  0  0
  8 25  1  0  0  0  0
  9 25  2  0  0  0  0
 10 26  1  0  0  0  0
 11 12  2  0  0  0  0
 11 27  1  0  0  0  0
 12 28  1  0  0  0  0
 13 22  1  0  0  0  0
 13 26  2  0  0  0  0
 14 28  2  0  0  0  0
 14 29  1  0  0  0  0
 15 23  2  0  0  0  0
 15 68  1  0  0  0  0
 16 24  2  0  0  0  0
 16 68  1  0  0  0  0
 17 30  1  0  0  0  0
 18 30  1  0  0  0  0
 18 31  2  0  0  0  0
 18 32  1  0  0  0  0
 19 21  2  0  0  0  0
 19 37  1  0  0  0  0
 20 22  2  0  0  0  0
 20 38  1  0  0  0  0
 21 46  1  0  0  0  0
 22 39  1  0  0  0  0
 23 24  1  0  0  0  0
 23 58  1  0  0  0  0
 24 62  1  0  0  0  0
 25 83  1  0  0  0  0
 26 84  1  0  0  0  0
 27 29  2  0  0  0  0
 27 83  1  0  0  0  0
 28 85  1  0  0  0  0
 29 86  1  0  0  0  0
 30 67  2  0  0  0  0
 31 69  1  0  0  0  0
 31 72  1  0  0  0  0
 32 73  1  0  0  0  0
 32 78  2  0  0  0  0
 33 47  1  0  0  0  0
 33 74  1  0  0  0  0
 33 79  2  0  0  0  0
 34 63  1  0  0  0  0
 34 70  1  0  0  0  0
 34 80  2  0  0  0  0
 35 64  1  0  0  0  0
 35 75  1  0  0  0  0
 35 81  2  0  0  0  0
 36 71  1  0  0  0  0
 36 76  1  0  0  0  0
 36 82  2  0  0  0  0
 37 40  1  0  0  0  0
 38 47  1  0  0  0  0
 39 70  1  0  0  0  0
 40 42  1  0  0  0  0
 41 43  1  0  0  0  0
 41 44  1  0  0  0  0
 42 46  1  0  0  0  0
 43 48  1  0  0  0  0
 44 71  1  0  0  0  0
 45 48  1  0  0  0  0
 45 71  1  0  0  0  0
 46 74  1  0  0  0  0
 47 70  1  0  0  0  0
 48 69  1  0  0  0  0
 49 59  1  0  0  0  0
 50 62  1  0  0  0  0
 51 64  1  0  0  0  0
 52 65  1  0  0  0  0
 53 65  1  0  0  0  0
 54 65  1  0  0  0  0
 55 66  1  0  0  0  0
 56 66  1  0  0  0  0
 57 77  1  0  0  0  0
 58 76  1  0  0  0  0
 59 62  1  0  0  0  0
 60 66  1  0  0  0  0
 60 68  1  0  0  0  0
 61 66  1  0  0  0  0
 61 84  1  0  0  0  0
 63 65  1  0  0  0  0
 63 75  1  0  0  0  0
 64 77  1  0  0  0  0
 67 69  1  0  0  0  0
M  CHG  1  77   1
M  ISO  4  36 100  61 101  76 100  84 101
M  END
> <Batch ID>
0106

> <Smiles>
CCC(C)c1cn(CC(C)(C)[101CH2:1][101O:1]c2ccc3c(c2)CN(C(=O)C(NC(=O)C(C)NC)C(C)(C)C)C(C(=O)NC2CCCc4ccccc42)C3)cc1C[100NH:0][100C:0](=O)N1CCCC(n2nc(-c3ccc(Oc4ccc(F)cc4F)cc3)c(C(N)=O)c2N)C1

> <Shape>
0.218

> <Color>
0.076

> <Negative vol penalty>
0.000

$$$$

  -OEChem-04052319482D

  0  0  0     0  0  0  0  0  0999 V2000
M  END
$$$$

  -OEChem-04052319483D

 80 88  0     1  0  0  0  0  0999 V2000
  -16.7473  -28.5918   22.9153 C   0  0  0  0  0  0  0  0  0  0  0  0
  -17.6326  -27.5212   22.8417 C   0  0  0  0  0  0  0  0  0  0  0  0
  -23.5062   -9.6719   20.3116 C   0  0  0  0  0  0  0  0  0  0  0  0
  -23.9869  -10.1843   22.6232 C   0  0  0  0  0  0  0  0  0  0  0  0
  -17.2363  -29.8941   23.0084 C   0  0  0  0  0  0  0  0  0  0  0  0
  -19.0076  -27.7524   22.8601 C   0  0  0  0  0  0  0  0  0  0  0  0
  -23.3043  -24.2018   25.3973 C   0  0  0  0  0  0  0  0  0  0  0  0
  -27.5370  -19.5665   24.0928 C   0  0  0  0  0  0  0  0  0  0  0  0
  -22.9039   -8.4759   20.7020 C   0  0  0  0  0  0  0  0  0  0  0  0
  -23.3844   -8.9883   23.0136 C   0  0  0  0  0  0  0  0  0  0  0  0
  -24.1686  -23.2476   24.8623 C   0  0  0  0  0  0  0  0  0  0  0  0
  -20.2485   -7.8108   23.4609 C   0  0  0  0  0  0  0  0  0  0  0  0
  -19.3736   -7.8517   24.5464 C   0  0  0  0  0  0  0  0  0  0  0  0
  -28.5404  -18.7580   23.5704 C   0  0  0  0  0  0  0  0  0  0  0  0
  -25.9021  -24.9173   24.7006 C   0  0  0  0  0  0  0  0  0  0  0  0
  -20.7755   -6.2839   25.7354 C   0  0  0  0  0  0  0  0  0  0  0  0
  -24.0478  -10.5261   21.2723 C   0  0  0  0  0  0  0  0  0  0  0  0
  -24.0512  -13.0167   20.7203 C   0  0  0  0  0  0  0  0  0  0  0  0
  -18.6180  -30.1408   23.0377 C   0  0  0  0  0  0  0  0  0  0  0  0
  -23.7297  -25.5257   25.5781 C   0  0  0  0  0  0  0  0  0  0  0  0
  -19.5156  -29.0594   22.9523 C   0  0  0  0  0  0  0  0  0  0  0  0
  -25.0421  -25.8858   25.2404 C   0  0  0  0  0  0  0  0  0  0  0  0
  -26.8859  -20.4773   23.2682 C   0  0  0  0  0  0  0  0  0  0  0  0
  -22.8429   -8.1341   22.0530 C   0  0  0  0  0  0  0  0  0  0  0  0
  -25.4668  -23.6059   24.5112 C   0  0  0  0  0  0  0  0  0  0  0  0
  -21.3869   -7.0063   23.5125 C   0  0  0  0  0  0  0  0  0  0  0  0
  -19.6371   -7.0883   25.6837 C   0  0  0  0  0  0  0  0  0  0  0  0
  -21.6504   -6.2429   24.6498 C   0  0  0  0  0  0  0  0  0  0  0  0
  -24.6707  -11.7614   20.8696 C   0  0  0  0  0  0  0  0  0  0  0  0
  -28.8528  -18.8979   22.2277 C   0  0  0  0  0  0  0  0  0  0  0  0
  -27.2725  -20.5404   21.9392 C   0  0  0  0  0  0  0  0  0  0  0  0
  -25.0648  -13.8549   20.3247 C   0  0  0  0  0  0  0  0  0  0  0  0
  -22.6820  -13.3915   20.9214 C   0  0  0  0  0  0  0  0  0  0  0  0
  -22.8276  -28.3485   24.4283 C   0  0  0  0  0  0  0  0  0  0  0  0
  -24.9939  -29.4737   26.5644 C   0  0  0  0  0  0  0  0  0  0  0  0
  -27.7883  -28.8936   28.4356 C   0  0  0  0  0  0  0  0  0  0  0  0
  -30.2974  -15.7327   20.8130 C   0  0  0  0  0  0  0  0  0  0  0  0
  -19.0995  -31.5690   23.0916 C   0  0  0  0  0  0  0  0  0  0  0  0
  -22.7936  -26.5369   26.1812 C   0  0  0  0  0  0  0  0  0  0  0  0
  -25.5540  -27.2891   25.4335 C   0  0  0  0  0  0  0  0  0  0  0  0
  -20.5690  -31.7021   23.4827 C   0  0  0  0  0  0  0  0  0  0  0  0
  -29.7826  -12.8317   18.8141 C   0  0  0  0  0  0  0  0  0  0  0  0
  -21.4230  -30.7149   22.6935 C   0  0  0  0  0  0  0  0  0  0  0  0
  -28.3587  -12.3950   19.1630 C   0  0  0  0  0  0  0  0  0  0  0  0
  -30.5152  -13.3923   20.0311 C   0  0  0  0  0  0  0  0  0  0  0  0
  -28.3832  -14.0417   21.0831 C   0  0  0  0  0  0  0  0  0  0  0  0
  -21.0139  -29.2679   22.9944 C   0  0  1  0  0  0  0  0  0  0  0  0
  -23.1702  -27.9760   25.8430 C   0  0  1  0  0  0  0  0  0  0  0  0
  -27.5855  -13.5212   19.8752 C   0  0  2  0  0  0  0  0  0  0  0  0
  -26.6060  -21.4976   21.0063 C   0  0  0  0  0  0  0  0  0  0  0  0
  -29.3435  -30.0161   30.0539 C   0  0  0  0  0  0  0  0  0  0  0  0
  -26.2884  -30.9976   24.2596 C   0  0  0  0  0  0  0  0  0  0  0  0
  -28.3164  -31.3067   25.6948 C   0  0  0  0  0  0  0  0  0  0  0  0
  -26.1310  -32.2806   26.4005 C   0  0  0  0  0  0  0  0  0  0  0  0
  -27.1501  -26.9512   30.5755 C   0  0  0  0  0  0  0  0  0  0  0  0
  -25.8033  -21.3534   23.8265 C   0  0  0  0  0  0  0  0  0  1  0  0
  -29.9235  -18.0448   21.6335 C   0  0  0  0  0  0  0  0  0  0  0  0
  -26.4720  -29.7787   26.5282 C   0  0  1  0  0  0  0  0  0  0  0  0
  -28.0950  -29.1619   29.8979 C   0  0  2  0  0  0  0  0  0  0  0  0
  -26.7920  -31.0648   25.7152 C   0  0  0  0  0  0  0  0  0  0  0  0
  -25.9766  -11.7945   20.5913 N   0  0  0  0  0  0  0  0  0  0  0  0
  -28.2425  -19.7713   21.3957 N   0  0  0  0  0  0  0  0  0  0  0  0
  -26.1860  -13.0808   20.2630 N   0  0  0  0  0  0  0  0  0  0  0  0
  -24.5989  -28.2431   26.0208 N   0  0  0  0  0  0  0  0  0  0  0  0
  -29.7296  -14.4571   20.6595 N   0  0  0  0  0  0  0  0  0  0  0  0
  -25.0974  -15.1712   20.0268 N   0  0  0  0  0  0  0  0  0  0  0  0
  -21.7723  -12.4060   21.3283 N   0  0  0  0  0  0  0  0  0  0  0  0
  -21.5483  -28.8469   24.2717 N   0  0  0  0  0  0  0  0  0  0  0  0
  -26.9133  -29.8251   27.9180 N   0  0  0  0  0  0  0  0  0  0  0  0
  -29.4828  -16.6855   21.4124 N   0  0  0  0  0  0  0  0  0  0  0  0
  -28.3090  -27.8793   30.6261 N   0  3  0  0  0  0  0  0  0  0  0  0
  -22.2739  -14.5621   20.7297 O   0  0  0  0  0  0  0  0  0  0  0  0
  -23.6626  -28.1964   23.5443 O   0  0  0  0  0  0  0  0  0  0  0  0
  -24.2192  -30.2939   27.0632 O   0  0  0  0  0  0  0  0  0  0  0  0
  -28.2790  -27.9539   27.8136 O   0  0  0  0  0  0  0  0  0  0  0  0
  -31.4434  -16.0038   20.4386 O   0  0  0  0  0  0  0  0  0  0  0  0
  -22.2550   -6.9673   22.4343 O   0  0  0  0  0  0  0  0  0  0  0  0
  -26.3123  -22.6767   23.9882 O   0  0  0  0  0  0  0  0  0  1  0  0
  -18.7976   -7.1289   26.7267 F   0  0  0  0  0  0  0  0  0  0  0  0
  -22.7430   -5.4690   24.7057 F   0  0  0  0  0  0  0  0  0  0  0  0
  1  2  1  0  0  0  0
  1  5  2  0  0  0  0
  2  6  2  0  0  0  0
  3  9  2  0  0  0  0
  3 17  1  0  0  0  0
  4 10  1  0  0  0  0
  4 17  2  0  0  0  0
  5 19  1  0  0  0  0
  6 21  1  0  0  0  0
  7 11  2  0  0  0  0
  7 20  1  0  0  0  0
  8 14  2  0  0  0  0
  8 23  1  0  0  0  0
  9 24  1  0  0  0  0
 10 24  2  0  0  0  0
 11 25  1  0  0  0  0
 12 13  2  0  0  0  0
 12 26  1  0  0  0  0
 13 27  1  0  0  0  0
 14 30  1  0  0  0  0
 15 22  1  0  0  0  0
 15 25  2  0  0  0  0
 16 27  2  0  0  0  0
 16 28  1  0  0  0  0
 17 29  1  0  0  0  0
 18 29  1  0  0  0  0
 18 32  2  0  0  0  0
 18 33  1  0  0  0  0
 19 21  2  0  0  0  0
 19 38  1  0  0  0  0
 20 22  2  0  0  0  0
 20 39  1  0  0  0  0
 21 47  1  0  0  0  0
 22 40  1  0  0  0  0
 23 31  2  0  0  0  0
 23 56  1  0  0  0  0
 24 77  1  0  0  0  0
 25 78  1  0  0  0  0
 26 28  2  0  0  0  0
 26 77  1  0  0  0  0
 27 79  1  0  0  0  0
 28 80  1  0  0  0  0
 29 61  2  0  0  0  0
 30 57  1  0  0  0  0
 30 62  2  0  0  0  0
 31 50  1  0  0  0  0
 31 62  1  0  0  0  0
 32 63  1  0  0  0  0
 32 66  1  0  0  0  0
 33 67  1  0  0  0  0
 33 72  2  0  0  0  0
 34 48  1  0  0  0  0
 34 68  1  0  0  0  0
 34 73  2  0  0  0  0
 35 58  1  0  0  0  0
 35 64  1  0  0  0  0
 35 74  2  0  0  0  0
 36 59  1  0  0  0  0
 36 69  1  0  0  0  0
 36 75  2  0  0  0  0
 37 65  1  0  0  0  0
 37 70  1  0  0  0  0
 37 76  2  0  0  0  0
 38 41  1  0  0  0  0
 39 48  1  0  0  0  0
 40 64  1  0  0  0  0
 41 43  1  0  0  0  0
 42 44  1  0  0  0  0
 42 45  1  0  0  0  0
 43 47  1  0  0  0  0
 44 49  1  0  0  0  0
 45 65  1  0  0  0  0
 46 49  1  0  0  0  0
 46 65  1  0  0  0  0
 47 68  1  0  0  0  0
 48 64  1  0  0  0  0
 49 63  1  0  0  0  0
 51 59  1  0  0  0  0
 52 60  1  0  0  0  0
 53 60  1  0  0  0  0
 54 60  1  0  0  0  0
 55 71  1  0  0  0  0
 56 78  1  0  0  0  0
 57 70  1  0  0  0  0
 58 60  1  0  0  0  0
 58 69  1  0  0  0  0
 59 71  1  0  0  0  0
 61 63  1  0  0  0  0
M  CHG  1  71   1
M  ISO  4  37 100  56 101  70 100  78 101
M  END
> <Batch ID>
0106

> <Smiles>
CNC(C)C(=O)NC(C(=O)N1Cc2cc([101O:1][101CH2:1]c3ccc(C[100NH:0][100C:0](=O)N4CCCC(n5nc(-c6ccc(Oc7ccc(F)cc7F)cc6)c(C(N)=O)c5N)C4)nc3C)ccc2CC1C(=O)NC1CCCc2ccccc21)C(C)(C)C

> <Shape>
0.271

> <Color>
0.191

> <Negative vol penalty>
0.000

$$$$

  -OEChem-04052319483D

 88 96  0     1  0  0  0  0  0999 V2000
  -19.8680   -8.9651   22.5788 C   0  0  0  0  0  0  0  0  0  0  0  0
  -20.3527  -10.1352   23.1544 C   0  0  0  0  0  0  0  0  0  0  0  0
  -23.1431  -31.5805   20.3039 C   0  0  0  0  0  0  0  0  0  0  0  0
  -23.5868  -30.4966   22.4170 C   0  0  0  0  0  0  0  0  0  0  0  0
  -20.6714   -8.2353   21.7037 C   0  0  0  0  0  0  0  0  0  0  0  0
  -21.6417  -10.5756   22.8560 C   0  0  0  0  0  0  0  0  0  0  0  0
  -23.5250  -16.3815   22.3558 C   0  0  0  0  0  0  0  0  0  0  0  0
  -21.7759  -31.3701   20.4831 C   0  0  0  0  0  0  0  0  0  0  0  0
  -22.2196  -30.2862   22.5963 C   0  0  0  0  0  0  0  0  0  0  0  0
  -24.1820  -17.2341   23.2418 C   0  0  0  0  0  0  0  0  0  0  0  0
  -19.8620  -28.1366   21.4775 C   0  0  0  0  0  0  0  0  0  0  0  0
  -19.4519  -26.8771   21.9147 C   0  0  0  0  0  0  0  0  0  0  0  0
  -26.2919  -16.6534   22.2268 C   0  0  0  0  0  0  0  0  0  0  0  0
  -29.5332  -24.1132   19.8233 C   0  0  0  0  0  0  0  0  0  0  0  0
  -18.4635  -27.8805   23.8778 C   0  0  0  0  0  0  0  0  0  0  0  0
  -29.1522  -21.8473   19.2090 C   0  0  0  0  0  0  0  0  0  0  0  0
  -24.0486  -31.1436   21.2709 C   0  0  0  0  0  0  0  0  0  0  0  0
  -26.2114  -32.4765   21.5013 C   0  0  0  0  0  0  0  0  0  0  0  0
  -21.9674   -8.6721   21.3870 C   0  0  0  0  0  0  0  0  0  0  0  0
  -24.2489  -15.6489   21.4041 C   0  0  0  0  0  0  0  0  0  0  0  0
  -22.4637   -9.8502   21.9769 C   0  0  0  0  0  0  0  0  0  0  0  0
  -25.6415  -15.7941   21.3281 C   0  0  0  0  0  0  0  0  0  0  0  0
  -28.9608  -22.8796   20.1132 C   0  0  0  0  0  0  0  0  0  0  0  0
  -30.2692  -24.2744   18.6547 C   0  0  0  0  0  0  0  0  0  0  0  0
  -21.3141  -30.7230   21.6292 C   0  0  0  0  0  0  0  0  0  0  0  0
  -25.5660  -17.3680   23.1794 C   0  0  0  0  0  0  0  0  0  0  0  0
  -19.5729  -29.2680   22.2404 C   0  0  0  0  0  0  0  0  0  0  0  0
  -18.7527  -26.7491   23.1148 C   0  0  0  0  0  0  0  0  0  0  0  0
  -18.8737  -29.1399   23.4405 C   0  0  0  0  0  0  0  0  0  0  0  0
  -25.4610  -31.3601   21.0861 C   0  0  0  0  0  0  0  0  0  0  0  0
  -30.4021  -23.1796   17.8159 C   0  0  0  0  0  0  0  0  0  0  0  0
  -27.4930  -32.2005   21.0916 C   0  0  0  0  0  0  0  0  0  0  0  0
  -25.7879  -33.6574   22.1955 C   0  0  0  0  0  0  0  0  0  0  0  0
  -24.6981  -12.5566   20.8211 C   0  0  0  0  0  0  0  0  0  0  0  0
  -26.2532  -13.6752   18.2033 C   0  0  0  0  0  0  0  0  0  0  0  0
  -27.9338  -16.2418   16.7083 C   0  0  0  0  0  0  0  0  0  0  0  0
  -30.4181  -27.2820   20.1642 C   0  0  0  0  0  0  0  0  0  0  0  0
  -22.8158   -7.8245   20.4725 C   0  0  0  0  0  0  0  0  0  0  0  0
  -23.5225  -14.7537   20.4379 C   0  0  0  0  0  0  0  0  0  0  0  0
  -26.4626  -15.0452   20.3115 C   0  0  0  0  0  0  0  0  0  0  0  0
  -24.0335   -8.5588   19.9171 C   0  0  0  0  0  0  0  0  0  0  0  0
  -29.9342  -29.8146   17.7510 C   0  0  0  0  0  0  0  0  0  0  0  0
  -24.7567   -9.3108   21.0298 C   0  0  0  0  0  0  0  0  0  0  0  0
  -28.7883  -30.6109   18.3736 C   0  0  0  0  0  0  0  0  0  0  0  0
  -29.7550  -28.3070   17.9391 C   0  0  0  0  0  0  0  0  0  0  0  0
  -28.3955  -28.6976   19.9694 C   0  0  0  0  0  0  0  0  0  0  0  0
  -23.8476  -10.3735   21.6587 C   0  0  1  0  0  0  0  0  0  0  0  0
  -24.4129  -13.6648   19.8473 C   0  0  1  0  0  0  0  0  0  0  0  0
  -28.5818  -30.2177   19.8467 C   0  0  2  0  0  0  0  0  0  0  0  0
  -31.1823  -23.2940   16.5471 C   0  0  0  0  0  0  0  0  0  0  0  0
  -29.1182  -16.8459   14.5800 C   0  0  0  0  0  0  0  0  0  0  0  0
  -32.0698  -24.6405   21.0984 C   0  0  0  0  0  0  0  0  0  0  0  0
  -33.5390  -25.5260   19.2597 C   0  0  0  0  0  0  0  0  0  0  0  0
  -28.6485  -11.9910   19.0611 C   0  0  0  0  0  0  0  0  0  0  0  0
  -30.0661  -13.3352   17.4953 C   0  0  0  0  0  0  0  0  0  0  0  0
  -28.1814  -11.9652   16.6044 C   0  0  0  0  0  0  0  0  0  0  0  0
  -26.0500  -18.4556   16.1521 C   0  0  0  0  0  0  0  0  0  0  0  0
  -28.1577  -22.6714   21.3723 C   0  0  0  0  0  0  0  0  0  0  0  0
  -30.8836  -25.5938   18.3371 C   0  0  0  0  0  0  0  0  0  0  0  0
  -28.9932  -22.2054   22.5719 C   0  0  0  0  0  0  0  0  0  0  0  0
  -28.2069  -21.9297   23.8499 C   0  0  0  0  0  0  0  0  0  0  0  0
  -26.4636  -20.4490   24.8534 C   0  0  0  0  0  0  0  0  0  0  0  0
  -25.4893  -19.3411   24.5048 C   0  0  0  0  0  0  0  0  0  1  0  0
  -27.6749  -14.0790   17.8957 C   0  0  1  0  0  0  0  0  0  0  0  0
  -27.7971  -16.8695   15.3329 C   0  0  2  0  0  0  0  0  0  0  0  0
  -32.4249  -25.8523   20.2459 C   0  0  0  0  0  0  0  0  0  0  0  0
  -28.6278  -12.8554   17.7847 C   0  0  0  0  0  0  0  0  0  0  0  0
  -29.8606  -21.9659   18.0638 N   0  0  0  0  0  0  0  0  0  0  0  0
  -26.2039  -30.4433   20.4604 N   0  0  0  0  0  0  0  0  0  0  0  0
  -27.4345  -30.9831   20.4793 N   0  0  0  0  0  0  0  0  0  0  0  0
  -25.7071  -14.1775   19.3929 N   0  0  0  0  0  0  0  0  0  0  0  0
  -29.5134  -27.9805   19.3511 N   0  0  0  0  0  0  0  0  0  0  0  0
  -28.6529  -32.8827   21.1988 N   0  0  0  0  0  0  0  0  0  0  0  0
  -24.4353  -33.7801   22.5416 N   0  0  0  0  0  0  0  0  0  0  0  0
  -23.7645  -11.5380   20.8034 N   0  0  0  0  0  0  0  0  0  0  0  0
  -27.6145  -14.9005   16.6916 N   0  0  0  0  0  0  0  0  0  0  0  0
  -31.2500  -26.3414   19.5385 N   0  0  0  0  0  0  0  0  0  0  0  0
  -27.3494  -18.2860   15.4522 N   0  3  0  0  0  0  0  0  0  0  0  0
  -27.2325  -20.8250   23.6403 N   0  3  0  0  0  0  0  0  0  0  0  0
  -26.5823  -34.5840   22.4853 O   0  0  0  0  0  0  0  0  0  0  0  0
  -25.6923  -12.6203   21.5346 O   0  0  0  0  0  0  0  0  0  0  0  0
  -25.6471  -12.9468   17.4135 O   0  0  0  0  0  0  0  0  0  0  0  0
  -28.2919  -16.8768   17.6978 O   0  0  0  0  0  0  0  0  0  0  0  0
  -30.4749  -27.4810   21.3846 O   0  0  0  0  0  0  0  0  0  0  0  0
  -19.9801  -30.5178   21.8045 O   0  0  0  0  0  0  0  0  0  0  0  0
  -26.2098  -18.1990   24.0435 O   0  0  0  0  0  0  0  0  0  1  0  0
  -18.3576  -25.5397   23.5338 F   0  0  0  0  0  0  0  0  0  0  0  0
  -18.5920  -30.2234   24.1771 F   0  0  0  0  0  0  0  0  0  0  0  0
  1  2  1  0  0  0  0
  1  5  2  0  0  0  0
  2  6  2  0  0  0  0
  3  8  2  0  0  0  0
  3 17  1  0  0  0  0
  4  9  1  0  0  0  0
  4 17  2  0  0  0  0
  5 19  1  0  0  0  0
  6 21  1  0  0  0  0
  7 10  2  0  0  0  0
  7 20  1  0  0  0  0
  8 25  1  0  0  0  0
  9 25  2  0  0  0  0
 10 26  1  0  0  0  0
 11 12  2  0  0  0  0
 11 27  1  0  0  0  0
 12 28  1  0  0  0  0
 13 22  1  0  0  0  0
 13 26  2  0  0  0  0
 14 23  2  0  0  0  0
 14 24  1  0  0  0  0
 15 28  2  0  0  0  0
 15 29  1  0  0  0  0
 16 23  1  0  0  0  0
 16 68  2  0  0  0  0
 17 30  1  0  0  0  0
 18 30  1  0  0  0  0
 18 32  2  0  0  0  0
 18 33  1  0  0  0  0
 19 21  2  0  0  0  0
 19 38  1  0  0  0  0
 20 22  2  0  0  0  0
 20 39  1  0  0  0  0
 21 47  1  0  0  0  0
 22 40  1  0  0  0  0
 23 58  1  0  0  0  0
 24 31  2  0  0  0  0
 24 59  1  0  0  0  0
 25 85  1  0  0  0  0
 26 86  1  0  0  0  0
 27 29  2  0  0  0  0
 27 85  1  0  0  0  0
 28 87  1  0  0  0  0
 29 88  1  0  0  0  0
 30 69  2  0  0  0  0
 31 50  1  0  0  0  0
 31 68  1  0  0  0  0
 32 70  1  0  0  0  0
 32 73  1  0  0  0  0
 33 74  1  0  0  0  0
 33 80  2  0  0  0  0
 34 48  1  0  0  0  0
 34 75  1  0  0  0  0
 34 81  2  0  0  0  0
 35 64  1  0  0  0  0
 35 71  1  0  0  0  0
 35 82  2  0  0  0  0
 36 65  1  0  0  0  0
 36 76  1  0  0  0  0
 36 83  2  0  0  0  0
 37 72  1  0  0  0  0
 37 77  1  0  0  0  0
 37 84  2  0  0  0  0
 38 41  1  0  0  0  0
 39 48  1  0  0  0  0
 40 71  1  0  0  0  0
 41 43  1  0  0  0  0
 42 44  1  0  0  0  0
 42 45  1  0  0  0  0
 43 47  1  0  0  0  0
 44 49  1  0  0  0  0
 45 72  1  0  0  0  0
 46 49  1  0  0  0  0
 46 72  1  0  0  0  0
 47 75  1  0  0  0  0
 48 71  1  0  0  0  0
 49 70  1  0  0  0  0
 51 65  1  0  0  0  0
 52 66  1  0  0  0  0
 53 66  1  0  0  0  0
 54 67  1  0  0  0  0
 55 67  1  0  0  0  0
 56 67  1  0  0  0  0
 57 78  1  0  0  0  0
 58 60  1  0  0  0  0
 59 77  1  0  0  0  0
 60 61  1  0  0  0  0
 61 79  1  0  0  0  0
 62 63  1  0  0  0  0
 62 79  1  0  0  0  0
 63 86  1  0  0  0  0
 64 67  1  0  0  0  0
 64 76  1  0  0  0  0
 65 78  1  0  0  0  0
 66 77  1  0  0  0  0
 69 70  1  0  0  0  0
M  CHG  2  78   1  79   1
M  ISO  4  37 100  63 101  77 100  86 101
M  END
> <Batch ID>
0106

> <Smiles>
CNC(C)C(=O)NC(C(=O)N1Cc2cc([101O:1][101CH2:1]CNCCCc3cnc(C)c(C[100N:0](C(C)C)[100C:0](=O)N4CCCC(n5nc(-c6ccc(Oc7ccc(F)cc7F)cc6)c(C(N)=O)c5N)C4)c3)ccc2CC1C(=O)NC1CCCc2ccccc21)C(C)(C)C

> <Shape>
0.279

> <Color>
0.055

> <Negative vol penalty>
0.000

$$$$

  -OEChem-04052319483D

 89 98  0     1  0  0  0  0  0999 V2000
  -28.4292  -11.2116   21.3775 C   0  0  0  0  0  0  0  0  0  0  0  0
  -28.8569  -12.3754   20.7466 C   0  0  0  0  0  0  0  0  0  0  0  0
  -24.0962  -28.9467   22.0091 C   0  0  0  0  0  0  0  0  0  0  0  0
  -25.5862  -30.5928   21.0566 C   0  0  0  0  0  0  0  0  0  0  0  0
  -27.0657  -10.9483   21.5021 C   0  0  0  0  0  0  0  0  0  0  0  0
  -27.9213  -13.2761   20.2389 C   0  0  0  0  0  0  0  0  0  0  0  0
  -29.0377  -18.0833   21.3746 C   0  0  0  0  0  0  0  0  0  0  0  0
  -23.5662  -29.9179   22.8585 C   0  0  0  0  0  0  0  0  0  0  0  0
  -25.0562  -31.5640   21.9061 C   0  0  0  0  0  0  0  0  0  0  0  0
  -30.0325  -18.7017   20.6185 C   0  0  0  0  0  0  0  0  0  0  0  0
  -22.2901  -33.4997   22.0545 C   0  0  0  0  0  0  0  0  0  0  0  0
  -21.9801  -34.7424   21.5020 C   0  0  0  0  0  0  0  0  0  0  0  0
  -28.3382  -19.7959   19.2951 C   0  0  0  0  0  0  0  0  0  0  0  0
  -34.3930  -19.5020   17.7913 C   0  0  0  0  0  0  0  0  0  0  0  0
  -23.5338  -35.8038   23.0175 C   0  0  0  0  0  0  0  0  0  0  0  0
  -32.6271  -22.6191   17.3139 C   0  0  0  0  0  0  0  0  0  0  0  0
  -34.5997  -21.9090   18.1564 C   0  0  0  0  0  0  0  0  0  0  0  0
  -25.1062  -29.2842   21.1082 C   0  0  0  0  0  0  0  0  0  0  0  0
  -25.2044  -27.9425   18.9407 C   0  0  0  0  0  0  0  0  0  0  0  0
  -26.1128  -11.8510   21.0042 C   0  0  0  0  0  0  0  0  0  0  0  0
  -27.6833  -18.3085   21.0891 C   0  0  0  0  0  0  0  0  0  0  0  0
  -26.5438  -13.0241   20.3558 C   0  0  0  0  0  0  0  0  0  0  0  0
  -27.3281  -19.1812   20.0507 C   0  0  0  0  0  0  0  0  0  0  0  0
  -33.7913  -23.0520   17.9061 C   0  0  0  0  0  0  0  0  0  0  0  0
  -33.8904  -20.7966   17.7009 C   0  0  0  0  0  0  0  0  0  0  0  0
  -24.0462  -31.2266   22.8070 C   0  0  0  0  0  0  0  0  0  0  0  0
  -29.6829  -19.5558   19.5767 C   0  0  0  0  0  0  0  0  0  0  0  0
  -23.2219  -33.4091   23.0886 C   0  0  0  0  0  0  0  0  0  0  0  0
  -22.6019  -35.8944   21.9834 C   0  0  0  0  0  0  0  0  0  0  0  0
  -23.8437  -34.5611   23.5700 C   0  0  0  0  0  0  0  0  0  0  0  0
  -25.6545  -28.2812   20.2309 C   0  0  0  0  0  0  0  0  0  0  0  0
  -35.6500  -19.4126   18.3687 C   0  0  0  0  0  0  0  0  0  0  0  0
  -35.8619  -21.7073   18.7233 C   0  0  0  0  0  0  0  0  0  0  0  0
  -26.0516  -26.9411   18.5334 C   0  0  0  0  0  0  0  0  0  0  0  0
  -24.1176  -28.4845   18.1786 C   0  0  0  0  0  0  0  0  0  0  0  0
  -25.2500  -16.4803   20.1723 C   0  0  0  0  0  0  0  0  0  0  0  0
  -23.5448  -19.2045   20.6116 C   0  0  0  0  0  0  0  0  0  0  0  0
  -23.5193  -22.6138   20.7635 C   0  0  0  0  0  0  0  0  0  0  0  0
  -31.6072  -25.6327   20.0430 C   0  0  0  0  0  0  0  0  0  0  0  0
  -24.6505  -11.5004   21.1205 C   0  0  0  0  0  0  0  0  0  0  0  0
  -26.6222  -17.6548   21.9312 C   0  0  0  0  0  0  0  0  0  0  0  0
  -25.8886  -19.4721   19.7168 C   0  0  0  0  0  0  0  0  0  0  0  0
  -23.7192  -12.6873   20.8878 C   0  0  0  0  0  0  0  0  0  0  0  0
  -28.7677  -23.3996   20.2622 C   0  0  0  0  0  0  0  0  0  0  0  0
  -24.1461  -13.4657   19.6473 C   0  0  0  0  0  0  0  0  0  0  0  0
  -27.5996  -24.3815   20.1545 C   0  0  0  0  0  0  0  0  0  0  0  0
  -29.9174  -23.9948   21.0698 C   0  0  0  0  0  0  0  0  0  0  0  0
  -29.2513  -26.2853   20.4505 C   0  0  0  0  0  0  0  0  0  0  0  0
  -25.5592  -14.0375   19.8141 C   0  0  1  0  0  0  0  0  0  0  0  0
  -25.2749  -17.5544   21.2227 C   0  0  1  0  0  0  0  0  0  0  0  0
  -28.0657  -25.7512   19.6263 C   0  0  2  0  0  0  0  0  0  0  0  0
  -36.2784  -18.0647   18.5120 C   0  0  0  0  0  0  0  0  0  0  0  0
  -36.7177  -22.8128   19.2453 C   0  0  0  0  0  0  0  0  0  0  0  0
  -21.9701  -24.5591   21.0997 C   0  0  0  0  0  0  0  0  0  0  0  0
  -30.2676  -19.7814   14.4787 C   0  0  0  0  0  0  0  0  0  0  0  0
  -32.6144  -20.5853   14.2456 C   0  0  0  0  0  0  0  0  0  0  0  0
  -22.4987  -18.8602   17.7661 C   0  0  0  0  0  0  0  0  0  0  0  0
  -21.7527  -21.2493   17.8256 C   0  0  0  0  0  0  0  0  0  0  0  0
  -20.7815  -19.6010   19.4264 C   0  0  0  0  0  0  0  0  0  0  0  0
  -24.9692  -23.4986   23.1871 C   0  0  0  0  0  0  0  0  0  0  0  0
  -34.1213  -24.4582   18.2155 C   0  0  0  0  0  0  0  0  0  0  0  0
  -33.9318  -24.8374   19.6951 C   0  0  0  0  0  0  0  0  0  0  0  0
  -30.3410  -20.4546   17.4755 C   0  0  0  0  0  0  0  0  0  1  0  0
  -23.1656  -20.3801   19.7437 C   0  0  1  0  0  0  0  0  0  0  0  0
  -22.9124  -23.5727   21.7718 C   0  0  2  0  0  0  0  0  0  0  0  0
  -31.3312  -20.7085   15.0813 C   0  0  0  0  0  0  0  0  0  0  0  0
  -31.5979  -20.3892   16.5845 C   0  0  1  0  0  0  0  0  0  0  0  0
  -22.0769  -20.0159   18.6953 C   0  0  0  0  0  0  0  0  0  0  0  0
  -26.7059  -27.5540   20.6177 N   0  0  0  0  0  0  0  0  0  0  0  0
  -36.3772  -20.4584   18.8249 N   0  0  0  0  0  0  0  0  0  0  0  0
  -32.6962  -21.2568   17.1943 N   0  0  0  0  0  0  0  0  0  0  0  0
  -26.9235  -26.7482   19.5644 N   0  0  0  0  0  0  0  0  0  0  0  0
  -24.8877  -18.8040   20.5649 N   0  0  0  0  0  0  0  0  0  0  0  0
  -30.3257  -25.2883   20.5040 N   0  0  0  0  0  0  0  0  0  0  0  0
  -26.1284  -26.2155   17.3977 N   0  0  0  0  0  0  0  0  0  0  0  0
  -23.3483  -29.5088   18.7472 N   0  0  0  0  0  0  0  0  0  0  0  0
  -25.5316  -15.2160   20.6537 N   0  0  0  0  0  0  0  0  0  0  0  0
  -22.7826  -21.4533   20.6547 N   0  0  0  0  0  0  0  0  0  0  0  0
  -32.5693  -24.6343   20.1349 N   0  0  0  0  0  0  0  0  0  0  0  0
  -23.9840  -24.3432   22.4639 N   0  3  0  0  0  0  0  0  0  0  0  0
  -23.8269  -28.0615   17.0340 O   0  0  0  0  0  0  0  0  0  0  0  0
  -24.9929  -16.7764   19.0113 O   0  0  0  0  0  0  0  0  0  0  0  0
  -22.6830  -18.6662   21.3109 O   0  0  0  0  0  0  0  0  0  0  0  0
  -24.5424  -22.8703   20.1325 O   0  0  0  0  0  0  0  0  0  0  0  0
  -31.8734  -26.7464   19.5784 O   0  0  0  0  0  0  0  0  0  0  0  0
  -23.5292  -32.1746   23.6356 O   0  0  0  0  0  0  0  0  0  0  0  0
  -30.6520  -20.1601   18.8367 O   0  0  0  0  0  0  0  0  0  1  0  0
  -22.3053  -37.0875   21.4517 F   0  0  0  0  0  0  0  0  0  0  0  0
  -24.7406  -34.4802   24.5625 F   0  0  0  0  0  0  0  0  0  0  0  0
  1  2  1  0  0  0  0
  1  5  2  0  0  0  0
  2  6  2  0  0  0  0
  3  8  2  0  0  0  0
  3 18  1  0  0  0  0
  4  9  1  0  0  0  0
  4 18  2  0  0  0  0
  5 20  1  0  0  0  0
  6 22  1  0  0  0  0
  7 10  2  0  0  0  0
  7 21  1  0  0  0  0
  8 26  1  0  0  0  0
  9 26  2  0  0  0  0
 10 27  1  0  0  0  0
 11 12  2  0  0  0  0
 11 28  1  0  0  0  0
 12 29  1  0  0  0  0
 13 23  1  0  0  0  0
 13 27  2  0  0  0  0
 14 25  1  0  0  0  0
 14 32  2  0  0  0  0
 15 29  2  0  0  0  0
 15 30  1  0  0  0  0
 16 24  2  0  0  0  0
 16 71  1  0  0  0  0
 17 24  1  0  0  0  0
 17 25  2  0  0  0  0
 17 33  1  0  0  0  0
 18 31  1  0  0  0  0
 19 31  1  0  0  0  0
 19 34  2  0  0  0  0
 19 35  1  0  0  0  0
 20 22  2  0  0  0  0
 20 40  1  0  0  0  0
 21 23  2  0  0  0  0
 21 41  1  0  0  0  0
 22 49  1  0  0  0  0
 23 42  1  0  0  0  0
 24 61  1  0  0  0  0
 25 71  1  0  0  0  0
 26 86  1  0  0  0  0
 27 87  1  0  0  0  0
 28 30  2  0  0  0  0
 28 86  1  0  0  0  0
 29 88  1  0  0  0  0
 30 89  1  0  0  0  0
 31 69  2  0  0  0  0
 32 52  1  0  0  0  0
 32 70  1  0  0  0  0
 33 53  1  0  0  0  0
 33 70  2  0  0  0  0
 34 72  1  0  0  0  0
 34 75  1  0  0  0  0
 35 76  1  0  0  0  0
 35 81  2  0  0  0  0
 36 50  1  0  0  0  0
 36 77  1  0  0  0  0
 36 82  2  0  0  0  0
 37 64  1  0  0  0  0
 37 73  1  0  0  0  0
 37 83  2  0  0  0  0
 38 65  1  0  0  0  0
 38 78  1  0  0  0  0
 38 84  2  0  0  0  0
 39 74  1  0  0  0  0
 39 79  1  0  0  0  0
 39 85  2  0  0  0  0
 40 43  1  0  0  0  0
 41 50  1  0  0  0  0
 42 73  1  0  0  0  0
 43 45  1  0  0  0  0
 44 46  1  0  0  0  0
 44 47  1  0  0  0  0
 45 49  1  0  0  0  0
 46 51  1  0  0  0  0
 47 74  1  0  0  0  0
 48 51  1  0  0  0  0
 48 74  1  0  0  0  0
 49 77  1  0  0  0  0
 50 73  1  0  0  0  0
 51 72  1  0  0  0  0
 54 65  1  0  0  0  0
 55 66  1  0  0  0  0
 56 66  1  0  0  0  0
 57 68  1  0  0  0  0
 58 68  1  0  0  0  0
 59 68  1  0  0  0  0
 60 80  1  0  0  0  0
 61 62  1  0  0  0  0
 62 79  1  0  0  0  0
 63 67  1  0  0  0  0
 63 87  1  0  0  0  0
 64 68  1  0  0  0  0
 64 78  1  0  0  0  0
 65 80  1  0  0  0  0
 66 67  1  0  0  0  0
 67 71  1  0  0  0  0
 69 72  1  0  0  0  0
M  CHG  1  80   1
M  ISO  4  39 100  63 101  79 100  87 101
M  END
> <Batch ID>
0106

> <Smiles>
CNC(C)C(=O)NC(C(=O)N1Cc2cc([101O:1][101CH2:1]C(C(C)C)n3cc(CC[100NH:0][100C:0](=O)N4CCCC(n5nc(-c6ccc(Oc7ccc(F)cc7F)cc6)c(C(N)=O)c5N)C4)c4c(C)nc(C)cc43)ccc2CC1C(=O)NC1CCCc2ccccc21)C(C)(C)C

> <Shape>
0.203

> <Color>
0.071

> <Negative vol penalty>
0.000

$$$$

  -OEChem-04052319483D

 85 92  0     1  0  0  0  0  0999 V2000
  -30.7766  -24.8012   18.4774 C   0  0  0  0  0  0  0  0  0  0  0  0
  -29.3858  -24.8204   18.4562 C   0  0  0  0  0  0  0  0  0  0  0  0
  -27.8891  -18.6970   22.5235 C   0  0  0  0  0  0  0  0  0  0  0  0
  -27.1289  -19.6901   20.4564 C   0  0  0  0  0  0  0  0  0  0  0  0
  -31.4644  -25.3796   19.5434 C   0  0  0  0  0  0  0  0  0  0  0  0
  -28.6818  -25.4171   19.5015 C   0  0  0  0  0  0  0  0  0  0  0  0
  -23.3966  -28.4851   19.1018 C   0  0  0  0  0  0  0  0  0  0  0  0
  -28.9971  -18.1677   21.8618 C   0  0  0  0  0  0  0  0  0  0  0  0
  -28.2370  -19.1609   19.7947 C   0  0  0  0  0  0  0  0  0  0  0  0
  -22.0748  -28.1117   19.3412 C   0  0  0  0  0  0  0  0  0  0  0  0
  -29.6702  -15.5487   19.8340 C   0  0  0  0  0  0  0  0  0  0  0  0
  -30.0046  -14.2195   20.0927 C   0  0  0  0  0  0  0  0  0  0  0  0
  -22.2266  -29.0250   21.5688 C   0  0  0  0  0  0  0  0  0  0  0  0
  -32.1710  -14.9216   20.8996 C   0  0  0  0  0  0  0  0  0  0  0  0
  -26.9550  -19.4581   21.8208 C   0  0  0  0  0  0  0  0  0  0  0  0
  -25.7172  -21.2572   23.1394 C   0  0  0  0  0  0  0  0  0  0  0  0
  -30.7687  -25.9922   20.5976 C   0  0  0  0  0  0  0  0  0  0  0  0
  -24.1480  -29.1226   20.0996 C   0  0  0  0  0  0  0  0  0  0  0  0
  -29.3608  -26.0031   20.5833 C   0  0  0  0  0  0  0  0  0  0  0  0
  -23.5569  -29.4078   21.3387 C   0  0  0  0  0  0  0  0  0  0  0  0
  -29.1710  -18.3997   20.4974 C   0  0  0  0  0  0  0  0  0  0  0  0
  -21.4905  -28.3791   20.5759 C   0  0  0  0  0  0  0  0  0  0  0  0
  -30.5861  -16.5644   20.1081 C   0  0  0  0  0  0  0  0  0  0  0  0
  -31.2550  -13.9059   20.6255 C   0  0  0  0  0  0  0  0  0  0  0  0
  -31.8365  -16.2509   20.6409 C   0  0  0  0  0  0  0  0  0  0  0  0
  -25.8100  -20.0046   22.5037 C   0  0  0  0  0  0  0  0  0  0  0  0
  -24.4350  -21.2991   23.6301 C   0  0  0  0  0  0  0  0  0  0  0  0
  -16.6678  -27.4925   18.2016 C   0  0  0  0  0  0  0  0  0  0  0  0
  -16.5163  -26.4753   19.0570 C   0  0  0  0  0  0  0  0  0  0  0  0
  -26.7020  -22.2906   23.2743 C   0  0  0  0  0  0  0  0  0  0  0  0
  -26.7998  -28.4190   21.7047 C   0  0  0  0  0  0  0  0  0  0  0  0
  -26.4236  -31.4214   22.8735 C   0  0  0  0  0  0  0  0  0  0  0  0
  -24.3229  -34.0235   23.5537 C   0  0  0  0  0  0  0  0  0  0  0  0
  -19.3607  -18.5601   22.0178 C   0  0  0  0  0  0  0  0  0  0  0  0
  -31.5547  -26.5625   21.7516 C   0  0  0  0  0  0  0  0  0  0  0  0
  -25.5641  -29.5430   19.8164 C   0  0  0  0  0  0  0  0  0  0  0  0
  -24.3143  -30.1081   22.4361 C   0  0  0  0  0  0  0  0  0  0  0  0
  -30.7419  -27.5050   22.6355 C   0  0  0  0  0  0  0  0  0  0  0  0
  -20.9349  -18.4449   25.2092 C   0  0  0  0  0  0  0  0  0  0  0  0
  -29.3833  -26.8927   22.9611 C   0  0  0  0  0  0  0  0  0  0  0  0
  -22.3545  -18.9446   24.9351 C   0  0  0  0  0  0  0  0  0  0  0  0
  -20.3997  -17.6033   24.0528 C   0  0  0  0  0  0  0  0  0  0  0  0
  -21.8837  -18.7543   22.4570 C   0  0  0  0  0  0  0  0  0  0  0  0
  -28.5622  -26.6626   21.6866 C   0  0  1  0  0  0  0  0  0  0  0  0
  -26.3975  -29.7255   21.0811 C   0  0  1  0  0  0  0  0  0  0  0  0
  -22.4454  -19.6544   23.5708 C   0  0  2  0  0  0  0  0  0  0  0  0
  -24.2993  -36.3291   24.5441 C   0  0  0  0  0  0  0  0  0  0  0  0
  -17.7507  -20.7090   17.7644 C   0  0  0  0  0  0  0  0  0  0  0  0
  -26.5913  -30.2181   25.6724 C   0  0  0  0  0  0  0  0  0  0  0  0
  -25.6300  -32.3484   26.5702 C   0  0  0  0  0  0  0  0  0  0  0  0
  -27.8265  -32.3740   25.3880 C   0  0  0  0  0  0  0  0  0  0  0  0
  -19.7986  -23.6287   21.3618 C   0  0  0  0  0  0  0  0  0  0  0  0
  -23.4028  -35.2312   21.0132 C   0  0  0  0  0  0  0  0  0  0  0  0
  -20.5830  -22.0964   18.1169 C   0  0  0  0  0  0  0  0  0  0  0  0
  -17.3320  -25.2143   19.0166 C   0  0  0  0  0  0  0  0  0  0  0  0
  -18.6416  -26.1969   20.9815 C   0  0  0  0  0  0  0  0  0  0  0  0
  -18.4654  -19.5821   19.9410 C   0  0  0  0  0  0  0  0  0  0  0  0
  -19.7143  -26.8635   20.1243 C   0  0  0  0  0  0  0  0  0  1  0  0
  -18.5713  -22.7480   19.4607 C   0  0  0  0  0  0  0  0  0  0  0  0
  -25.7059  -32.0262   24.0559 C   0  0  1  0  0  0  0  0  0  0  0  0
  -24.4365  -35.5105   23.2698 C   0  0  2  0  0  0  0  0  0  0  0  0
  -18.0562  -24.9229   20.3460 C   0  0  2  0  0  0  0  0  0  0  0  0
  -18.8991  -20.3635   18.7027 C   0  0  2  0  0  0  0  0  0  0  0  0
  -26.4245  -31.7267   25.4018 C   0  0  0  0  0  0  0  0  0  0  0  0
  -24.6770  -19.3015   22.5820 N   0  0  0  0  0  0  0  0  0  0  0  0
  -23.8603  -20.1150   23.2727 N   0  0  0  0  0  0  0  0  0  0  0  0
  -25.6979  -30.4936   22.1130 N   0  0  0  0  0  0  0  0  0  0  0  0
  -20.5131  -18.3343   22.7885 N   0  0  0  0  0  0  0  0  0  0  0  0
  -23.7545  -22.2329   24.3282 N   0  0  0  0  0  0  0  0  0  0  0  0
  -27.9684  -22.0843   22.7103 N   0  0  0  0  0  0  0  0  0  0  0  0
  -27.9898  -27.9082   21.2224 N   0  0  0  0  0  0  0  0  0  0  0  0
  -25.5583  -33.4473   23.7606 N   0  0  0  0  0  0  0  0  0  0  0  0
  -19.5554  -19.2663   20.8371 N   0  0  0  0  0  0  0  0  0  0  0  0
  -19.1256  -23.9489   20.1027 N   0  0  1  0  0  0  0  0  0  0  0  0
  -23.3720  -35.9391   22.3190 N   0  3  0  0  0  0  0  0  0  0  0  0
  -19.5671  -21.6422   19.1305 N   0  3  1  0  0  0  0  0  0  0  0  0
  -26.4711  -23.3581   23.8912 O   0  0  0  0  0  0  0  0  0  0  0  0
  -26.0844  -27.9125   22.5611 O   0  0  0  0  0  0  0  0  0  0  0  0
  -27.5829  -31.7650   22.6293 O   0  0  0  0  0  0  0  0  0  0  0  0
  -23.2457  -33.4331   23.5919 O   0  0  0  0  0  0  0  0  0  0  0  0
  -18.2403  -18.1664   22.3595 O   0  0  0  0  0  0  0  0  0  0  0  0
  -30.2522  -17.8836   19.8514 O   0  0  0  0  0  0  0  0  0  0  0  0
  -20.2008  -28.0151   20.8124 O   0  0  0  0  0  0  0  0  0  1  0  0
  -31.5755  -12.6296   20.8752 F   0  0  0  0  0  0  0  0  0  0  0  0
  -32.7201  -17.2224   20.9073 F   0  0  0  0  0  0  0  0  0  0  0  0
  1  2  1  0  0  0  0
  1  5  2  0  0  0  0
  2  6  2  0  0  0  0
  3  8  2  0  0  0  0
  3 15  1  0  0  0  0
  4  9  1  0  0  0  0
  4 15  2  0  0  0  0
  5 17  1  0  0  0  0
  6 19  1  0  0  0  0
  7 10  2  0  0  0  0
  7 18  1  0  0  0  0
  8 21  1  0  0  0  0
  9 21  2  0  0  0  0
 10 22  1  0  0  0  0
 11 12  2  0  0  0  0
 11 23  1  0  0  0  0
 12 24  1  0  0  0  0
 13 20  1  0  0  0  0
 13 22  2  0  0  0  0
 14 24  2  0  0  0  0
 14 25  1  0  0  0  0
 15 26  1  0  0  0  0
 16 26  1  0  0  0  0
 16 27  2  0  0  0  0
 16 30  1  0  0  0  0
 17 19  2  0  0  0  0
 17 35  1  0  0  0  0
 18 20  2  0  0  0  0
 18 36  1  0  0  0  0
 19 44  1  0  0  0  0
 20 37  1  0  0  0  0
 21 82  1  0  0  0  0
 22 83  1  0  0  0  0
 23 25  2  0  0  0  0
 23 82  1  0  0  0  0
 24 84  1  0  0  0  0
 25 85  1  0  0  0  0
 26 65  2  0  0  0  0
 27 66  1  0  0  0  0
 27 69  1  0  0  0  0
 28 29  2  0  0  0  0
 29 55  1  0  0  0  0
 30 70  1  0  0  0  0
 30 77  2  0  0  0  0
 31 45  1  0  0  0  0
 31 71  1  0  0  0  0
 31 78  2  0  0  0  0
 32 60  1  0  0  0  0
 32 67  1  0  0  0  0
 32 79  2  0  0  0  0
 33 61  1  0  0  0  0
 33 72  1  0  0  0  0
 33 80  2  0  0  0  0
 34 68  1  0  0  0  0
 34 73  1  0  0  0  0
 34 81  2  0  0  0  0
 35 38  1  0  0  0  0
 36 45  1  0  0  0  0
 37 67  1  0  0  0  0
 38 40  1  0  0  0  0
 39 41  1  0  0  0  0
 39 42  1  0  0  0  0
 40 44  1  0  0  0  0
 41 46  1  0  0  0  0
 42 68  1  0  0  0  0
 43 46  1  0  0  0  0
 43 68  1  0  0  0  0
 44 71  1  0  0  0  0
 45 67  1  0  0  0  0
 46 66  1  0  0  0  0
 47 61  1  0  0  0  0
 48 63  1  0  0  0  0
 49 64  1  0  0  0  0
 50 64  1  0  0  0  0
 51 64  1  0  0  0  0
 52 74  1  0  0  0  0
 53 75  1  0  0  0  0
 54 76  1  0  0  0  0
 55 62  1  0  0  0  0
 56 58  1  0  0  0  0
 56 62  1  0  0  0  0
 57 63  1  0  0  0  0
 57 73  1  0  0  0  0
 58 83  1  0  0  0  0
 59 74  1  0  0  0  0
 59 76  1  0  0  0  0
 60 64  1  0  0  0  0
 60 72  1  0  0  0  0
 61 75  1  0  0  0  0
 62 74  1  0  0  0  0
 63 76  1  0  0  0  0
 65 66  1  0  0  0  0
M  CHG  2  75   1  76   1
M  ISO  4  34 100  58 101  73 100  83 101
M  END
> <Batch ID>
0106

> <Smiles>
C=CCC(C[101CH2:1][101O:1]c1ccc2c(c1)CN(C(=O)C(NC(=O)C(C)NC)C(C)(C)C)C(C(=O)NC1CCCc3ccccc31)C2)N(C)CN(C)C(C)C[100NH:0][100C:0](=O)N1CCCC(n2nc(-c3ccc(Oc4ccc(F)cc4F)cc3)c(C(N)=O)c2N)C1

> <Shape>
0.236

> <Color>
0.064

> <Negative vol penalty>
0.000

$$$$

  -OEChem-04052319483D

 82 90  0     1  0  0  0  0  0999 V2000
  -32.8602  -16.5593   21.5042 C   0  0  0  0  0  0  0  0  0  0  0  0
  -31.7210  -17.2536   21.8985 C   0  0  0  0  0  0  0  0  0  0  0  0
  -27.3168  -29.7273   20.0023 C   0  0  0  0  0  0  0  0  0  0  0  0
  -25.8809  -28.3977   21.4192 C   0  0  0  0  0  0  0  0  0  0  0  0
  -32.7539  -15.5053   20.5976 C   0  0  0  0  0  0  0  0  0  0  0  0
  -30.4748  -16.8951   21.3856 C   0  0  0  0  0  0  0  0  0  0  0  0
  -26.8885  -16.6969   24.9554 C   0  0  0  0  0  0  0  0  0  0  0  0
  -26.3225  -30.7010   19.9083 C   0  0  0  0  0  0  0  0  0  0  0  0
  -24.8866  -29.3714   21.3252 C   0  0  0  0  0  0  0  0  0  0  0  0
  -26.3534  -17.9093   25.3884 C   0  0  0  0  0  0  0  0  0  0  0  0
  -24.2118  -32.3813   22.7058 C   0  0  0  0  0  0  0  0  0  0  0  0
  -23.5575  -32.7527   23.8803 C   0  0  0  0  0  0  0  0  0  0  0  0
  -24.4361  -17.5643   23.9657 C   0  0  0  0  0  0  0  0  0  0  0  0
  -26.3473  -20.4594   22.3470 C   0  0  0  0  0  0  0  0  0  0  0  0
  -21.4514  -32.0456   22.9307 C   0  0  0  0  0  0  0  0  0  0  0  0
  -24.7332  -19.5747   21.0502 C   0  0  0  0  0  0  0  0  0  0  0  0
  -27.0960  -28.5756   20.7577 C   0  0  0  0  0  0  0  0  0  0  0  0
  -29.1464  -27.4892   21.8176 C   0  0  0  0  0  0  0  0  0  0  0  0
  -31.5046  -15.1275   20.0807 C   0  0  0  0  0  0  0  0  0  0  0  0
  -26.2054  -15.9130   24.0145 C   0  0  0  0  0  0  0  0  0  0  0  0
  -30.3519  -15.8360   20.4702 C   0  0  0  0  0  0  0  0  0  0  0  0
  -24.9634  -16.3411   23.5243 C   0  0  0  0  0  0  0  0  0  0  0  0
  -26.0499  -19.9791   21.0478 C   0  0  0  0  0  0  0  0  0  0  0  0
  -25.1074  -30.5231   20.5698 C   0  0  0  0  0  0  0  0  0  0  0  0
  -25.1284  -18.3446   24.8914 C   0  0  0  0  0  0  0  0  0  0  0  0
  -23.4859  -31.8421   21.6436 C   0  0  0  0  0  0  0  0  0  0  0  0
  -22.1773  -32.5848   23.9928 C   0  0  0  0  0  0  0  0  0  0  0  0
  -22.1058  -31.6742   21.7561 C   0  0  0  0  0  0  0  0  0  0  0  0
  -28.1225  -27.5691   20.8547 C   0  0  0  0  0  0  0  0  0  0  0  0
  -25.2033  -20.3336   23.1039 C   0  0  0  0  0  0  0  0  0  0  0  0
  -29.8519  -26.3614   21.4758 C   0  0  0  0  0  0  0  0  0  0  0  0
  -29.4339  -28.3567   22.9224 C   0  0  0  0  0  0  0  0  0  0  0  0
  -26.8333  -14.8831   21.0736 C   0  0  0  0  0  0  0  0  0  0  0  0
  -24.0696  -13.2342   21.4806 C   0  0  0  0  0  0  0  0  0  0  0  0
  -21.0678  -12.9609   23.0811 C   0  0  0  0  0  0  0  0  0  0  0  0
  -28.3883  -21.3879   18.4802 C   0  0  0  0  0  0  0  0  0  0  0  0
  -31.4456  -14.0123   19.0671 C   0  0  0  0  0  0  0  0  0  0  0  0
  -26.7834  -14.5948   23.5777 C   0  0  0  0  0  0  0  0  0  0  0  0
  -24.1806  -15.5268   22.5280 C   0  0  0  0  0  0  0  0  0  0  0  0
  -30.0406  -13.4533   18.8577 C   0  0  0  0  0  0  0  0  0  0  0  0
  -31.0055  -23.6696   17.6923 C   0  0  0  0  0  0  0  0  0  0  0  0
  -29.0335  -14.5874   18.6958 C   0  0  0  0  0  0  0  0  0  0  0  0
  -30.6558  -24.9205   18.5004 C   0  0  0  0  0  0  0  0  0  0  0  0
  -29.7549  -22.9753   17.1576 C   0  0  0  0  0  0  0  0  0  0  0  0
  -28.3903  -23.9059   18.9867 C   0  0  0  0  0  0  0  0  0  0  0  0
  -28.9793  -15.4610   19.9550 C   0  0  1  0  0  0  0  0  0  0  0  0
  -26.2460  -14.1241   22.2297 C   0  0  1  0  0  0  0  0  0  0  0  0
  -29.6162  -24.6093   19.5938 C   0  0  2  0  0  0  0  0  0  0  0  0
  -21.8823  -20.5343   22.2043 C   0  0  0  0  0  0  0  0  0  0  0  0
  -19.0086  -11.5297   23.1749 C   0  0  0  0  0  0  0  0  0  0  0  0
  -26.2168  -21.2762   25.2096 C   0  0  0  0  0  0  0  0  0  0  0  0
  -23.7772  -21.6725   24.6998 C   0  0  0  0  0  0  0  0  0  0  0  0
  -23.0912  -14.4751   18.8705 C   0  0  0  0  0  0  0  0  0  0  0  0
  -20.7657  -13.7933   19.4993 C   0  0  0  0  0  0  0  0  0  0  0  0
  -22.5222  -12.0562   19.1533 C   0  0  0  0  0  0  0  0  0  0  0  0
  -21.5302  -12.2793   25.9237 C   0  0  0  0  0  0  0  0  0  0  0  0
  -26.9781  -19.9224   19.9025 C   0  0  0  0  0  0  0  0  0  0  0  0
  -22.8715  -19.4972   22.7078 C   0  0  0  0  0  0  0  0  0  0  0  0
  -22.6095  -13.5133   21.2176 C   0  0  1  0  0  0  0  0  0  0  0  0
  -20.3905  -11.7826   23.7574 C   0  0  2  0  0  0  0  0  0  0  0  0
  -24.9516  -20.6938   24.5659 C   0  0  0  0  0  0  0  0  0  1  0  0
  -22.2626  -13.4760   19.7025 C   0  0  0  0  0  0  0  0  0  0  0  0
  -28.1700  -26.5717   19.9677 N   0  0  0  0  0  0  0  0  0  0  0  0
  -24.2287  -19.7945   22.3053 N   0  0  0  0  0  0  0  0  0  0  0  0
  -29.2321  -25.8544   20.3717 N   0  0  0  0  0  0  0  0  0  0  0  0
  -24.7906  -14.2483   22.1269 N   0  0  0  0  0  0  0  0  0  0  0  0
  -28.8105  -22.7068   18.2448 N   0  0  0  0  0  0  0  0  0  0  0  0
  -30.9358  -25.7640   22.0149 N   0  0  0  0  0  0  0  0  0  0  0  0
  -28.6086  -29.4703   23.1298 N   0  0  0  0  0  0  0  0  0  0  0  0
  -28.2106  -14.8063   20.9917 N   0  0  0  0  0  0  0  0  0  0  0  0
  -21.8593  -12.5584   22.0261 N   0  0  0  0  0  0  0  0  0  0  0  0
  -27.4977  -21.2204   19.5336 N   0  0  0  0  0  0  0  0  0  0  0  0
  -20.2453  -12.0374   25.2185 N   0  3  0  0  0  0  0  0  0  0  0  0
  -30.4041  -28.1595   23.6927 O   0  0  0  0  0  0  0  0  0  0  0  0
  -26.0917  -15.4920   20.3115 O   0  0  0  0  0  0  0  0  0  0  0  0
  -24.5510  -12.1532   21.1321 O   0  0  0  0  0  0  0  0  0  0  0  0
  -20.9077  -14.1225   23.4493 O   0  0  0  0  0  0  0  0  0  0  0  0
  -28.7803  -20.4300   17.8052 O   0  0  0  0  0  0  0  0  0  0  0  0
  -24.1371  -31.4731   20.4785 O   0  0  0  0  0  0  0  0  0  0  0  0
  -24.6041  -19.5279   25.3118 O   0  0  0  0  0  0  0  0  0  1  0  0
  -21.5494  -32.9401   25.1213 F   0  0  0  0  0  0  0  0  0  0  0  0
  -21.4033  -31.1556   20.7396 F   0  0  0  0  0  0  0  0  0  0  0  0
  1  2  1  0  0  0  0
  1  5  2  0  0  0  0
  2  6  2  0  0  0  0
  3  8  2  0  0  0  0
  3 17  1  0  0  0  0
  4  9  1  0  0  0  0
  4 17  2  0  0  0  0
  5 19  1  0  0  0  0
  6 21  1  0  0  0  0
  7 10  2  0  0  0  0
  7 20  1  0  0  0  0
  8 24  1  0  0  0  0
  9 24  2  0  0  0  0
 10 25  1  0  0  0  0
 11 12  2  0  0  0  0
 11 26  1  0  0  0  0
 12 27  1  0  0  0  0
 13 22  1  0  0  0  0
 13 25  2  0  0  0  0
 14 23  1  0  0  0  0
 14 30  2  0  0  0  0
 15 27  2  0  0  0  0
 15 28  1  0  0  0  0
 16 23  2  0  0  0  0
 16 64  1  0  0  0  0
 17 29  1  0  0  0  0
 18 29  1  0  0  0  0
 18 31  2  0  0  0  0
 18 32  1  0  0  0  0
 19 21  2  0  0  0  0
 19 37  1  0  0  0  0
 20 22  2  0  0  0  0
 20 38  1  0  0  0  0
 21 46  1  0  0  0  0
 22 39  1  0  0  0  0
 23 57  1  0  0  0  0
 24 79  1  0  0  0  0
 25 80  1  0  0  0  0
 26 28  2  0  0  0  0
 26 79  1  0  0  0  0
 27 81  1  0  0  0  0
 28 82  1  0  0  0  0
 29 63  2  0  0  0  0
 30 61  1  0  0  0  0
 30 64  1  0  0  0  0
 31 65  1  0  0  0  0
 31 68  1  0  0  0  0
 32 69  1  0  0  0  0
 32 74  2  0  0  0  0
 33 47  1  0  0  0  0
 33 70  1  0  0  0  0
 33 75  2  0  0  0  0
 34 59  1  0  0  0  0
 34 66  1  0  0  0  0
 34 76  2  0  0  0  0
 35 60  1  0  0  0  0
 35 71  1  0  0  0  0
 35 77  2  0  0  0  0
 36 67  1  0  0  0  0
 36 72  1  0  0  0  0
 36 78  2  0  0  0  0
 37 40  1  0  0  0  0
 38 47  1  0  0  0  0
 39 66  1  0  0  0  0
 40 42  1  0  0  0  0
 41 43  1  0  0  0  0
 41 44  1  0  0  0  0
 42 46  1  0  0  0  0
 43 48  1  0  0  0  0
 44 67  1  0  0  0  0
 45 48  1  0  0  0  0
 45 67  1  0  0  0  0
 46 70  1  0  0  0  0
 47 66  1  0  0  0  0
 48 65  1  0  0  0  0
 49 58  1  0  0  0  0
 50 60  1  0  0  0  0
 51 61  1  0  0  0  0
 52 61  1  0  0  0  0
 53 62  1  0  0  0  0
 54 62  1  0  0  0  0
 55 62  1  0  0  0  0
 56 73  1  0  0  0  0
 57 72  1  0  0  0  0
 58 64  1  0  0  0  0
 59 62  1  0  0  0  0
 59 71  1  0  0  0  0
 60 73  1  0  0  0  0
 61 80  1  0  0  0  0
 63 65  1  0  0  0  0
M  CHG  1  73   1
M  ISO  4  36 100  61 101  72 100  80 101
M  END
> <Batch ID>
0106

> <Smiles>
CCn1cc(C[100NH:0][100C:0](=O)N2CCCC(n3nc(-c4ccc(Oc5ccc(F)cc5F)cc4)c(C(N)=O)c3N)C2)cc1[101C:1](C)(C)[101O:1]c1ccc2c(c1)CN(C(=O)C(NC(=O)C(C)NC)C(C)(C)C)C(C(=O)NC1CCCc3ccccc31)C2

> <Shape>
0.205

> <Color>
0.052

> <Negative vol penalty>
0.000

$$$$

  -OEChem-04052319483D

 87 95  0     1  0  0  0  0  0999 V2000
  -29.3379  -34.2307   25.1513 C   0  0  0  0  0  0  0  0  0  0  0  0
  -29.8734  -33.1343   24.4830 C   0  0  0  0  0  0  0  0  0  0  0  0
  -24.4448   -8.8861   21.3880 C   0  0  0  0  0  0  0  0  0  0  0  0
  -24.1976  -10.6292   23.0427 C   0  0  0  0  0  0  0  0  0  0  0  0
  -28.0052  -34.2134   25.5606 C   0  0  0  0  0  0  0  0  0  0  0  0
  -29.0767  -32.0195   24.2246 C   0  0  0  0  0  0  0  0  0  0  0  0
  -28.1283  -26.8406   19.3670 C   0  0  0  0  0  0  0  0  0  0  0  0
  -24.0382   -7.9376   22.3264 C   0  0  0  0  0  0  0  0  0  0  0  0
  -23.7910   -9.6807   23.9811 C   0  0  0  0  0  0  0  0  0  0  0  0
  -28.0366  -25.4523   19.2767 C   0  0  0  0  0  0  0  0  0  0  0  0
  -21.1338   -6.8603   23.6815 C   0  0  0  0  0  0  0  0  0  0  0  0
  -20.2020   -5.9050   23.2757 C   0  0  0  0  0  0  0  0  0  0  0  0
  -25.7261  -25.5665   19.9604 C   0  0  0  0  0  0  0  0  0  0  0  0
  -21.7836   -4.1490   23.7779 C   0  0  0  0  0  0  0  0  0  0  0  0
  -27.5371  -21.1171   15.6737 C   0  0  0  0  0  0  0  0  0  0  0  0
  -24.5246  -10.2319   21.7462 C   0  0  0  0  0  0  0  0  0  0  0  0
  -24.1261  -11.9374   19.8913 C   0  0  0  0  0  0  0  0  0  0  0  0
  -27.1891  -33.1017   25.2985 C   0  0  0  0  0  0  0  0  0  0  0  0
  -27.0208  -27.6026   19.7660 C   0  0  0  0  0  0  0  0  0  0  0  0
  -27.7322  -31.9868   24.6319 C   0  0  0  0  0  0  0  0  0  0  0  0
  -25.8056  -26.9644   20.0526 C   0  0  0  0  0  0  0  0  0  0  0  0
  -27.7129  -20.8258   17.0168 C   0  0  0  0  0  0  0  0  0  0  0  0
  -28.6645  -19.8706   17.3564 C   0  0  0  0  0  0  0  0  0  0  0  0
  -29.4008  -19.2447   16.3567 C   0  0  0  0  0  0  0  0  0  0  0  0
  -23.7113   -8.3349   23.6229 C   0  0  0  0  0  0  0  0  0  0  0  0
  -26.8362  -24.8148   19.5761 C   0  0  0  0  0  0  0  0  0  0  0  0
  -22.3905   -6.4600   24.1355 C   0  0  0  0  0  0  0  0  0  0  0  0
  -20.5268   -4.5493   23.3239 C   0  0  0  0  0  0  0  0  0  0  0  0
  -22.7154   -5.1044   24.1837 C   0  0  0  0  0  0  0  0  0  0  0  0
  -24.9451  -11.2121   20.7774 C   0  0  0  0  0  0  0  0  0  0  0  0
  -29.1492  -19.6066   15.0431 C   0  0  0  0  0  0  0  0  0  0  0  0
  -24.9994  -12.7303   19.1877 C   0  0  0  0  0  0  0  0  0  0  0  0
  -22.7032  -11.8979   19.7197 C   0  0  0  0  0  0  0  0  0  0  0  0
  -26.3945  -29.5440   22.2037 C   0  0  0  0  0  0  0  0  0  0  0  0
  -23.6470  -30.0800   20.5647 C   0  0  0  0  0  0  0  0  0  0  0  0
  -21.3700  -28.9615   18.2819 C   0  0  0  0  0  0  0  0  0  0  0  0
  -29.4233  -16.2830   19.5404 C   0  0  0  0  0  0  0  0  0  0  0  0
  -25.7675  -33.1100   25.8021 C   0  0  0  0  0  0  0  0  0  0  0  0
  -27.1284  -29.1014   19.8327 C   0  0  0  0  0  0  0  0  0  0  0  0
  -24.5815  -27.7385   20.4659 C   0  0  0  0  0  0  0  0  0  0  0  0
  -24.8871  -32.0418   25.1584 C   0  0  0  0  0  0  0  0  0  0  0  0
  -30.0420  -12.6844   18.9330 C   0  0  0  0  0  0  0  0  0  0  0  0
  -25.6059  -30.6965   25.1417 C   0  0  0  0  0  0  0  0  0  0  0  0
  -28.7217  -12.0433   19.3568 C   0  0  0  0  0  0  0  0  0  0  0  0
  -30.3091  -13.9840   19.6864 C   0  0  0  0  0  0  0  0  0  0  0  0
  -27.8831  -14.3341   20.0120 C   0  0  0  0  0  0  0  0  0  0  0  0
  -26.8930  -30.7690   24.3112 C   0  0  1  0  0  0  0  0  0  0  0  0
  -26.0838  -29.7353   20.7461 C   0  0  1  0  0  0  0  0  0  0  0  0
  -27.5615  -13.0468   19.2381 C   0  0  2  0  0  0  0  0  0  0  0  0
  -30.4301  -18.2171   16.6890 C   0  0  0  0  0  0  0  0  0  0  0  0
  -29.9079  -18.9679   13.9260 C   0  0  0  0  0  0  0  0  0  0  0  0
  -19.2101  -29.6030   17.1771 C   0  0  0  0  0  0  0  0  0  0  0  0
  -27.9063  -18.3582   20.8135 C   0  0  0  0  0  0  0  0  0  0  0  0
  -22.1330  -29.3671   23.1161 C   0  0  0  0  0  0  0  0  0  0  0  0
  -20.0653  -29.0968   21.7305 C   0  0  0  0  0  0  0  0  0  0  0  0
  -21.1978  -31.3158   21.8580 C   0  0  0  0  0  0  0  0  0  0  0  0
  -27.7905  -16.4860   17.7040 C   0  0  0  0  0  0  0  0  0  0  0  0
  -22.6055  -28.9419   15.5926 C   0  0  0  0  0  0  0  0  0  0  0  0
  -28.8933  -19.5195   18.7918 C   0  0  0  0  0  0  0  0  0  0  0  0
  -27.5749  -22.8128   18.5263 C   0  0  0  0  0  0  0  0  0  1  0  0
  -22.2765  -29.4476   20.5394 C   0  0  1  0  0  0  0  0  0  0  0  0
  -20.7276  -29.6389   17.0848 C   0  0  2  0  0  0  0  0  0  0  0  0
  -28.0034  -18.3625   19.2912 C   0  0  1  0  0  0  0  0  0  0  0  0
  -26.8849  -21.5369   18.0582 C   0  0  0  0  0  0  0  0  0  0  0  0
  -21.4416  -29.7918   21.8051 C   0  0  0  0  0  0  0  0  0  0  0  0
  -28.2332  -20.5300   14.6745 N   0  0  0  0  0  0  0  0  0  0  0  0
  -26.2392  -11.5172   20.6502 N   0  0  0  0  0  0  0  0  0  0  0  0
  -26.2401  -12.4428   19.6758 N   0  0  0  0  0  0  0  0  0  0  0  0
  -24.7388  -29.2013   20.5226 N   0  0  0  0  0  0  0  0  0  0  0  0
  -29.1733  -14.9019   19.5931 N   0  0  0  0  0  0  0  0  0  0  0  0
  -24.8194  -13.6385   18.2052 N   0  0  0  0  0  0  0  0  0  0  0  0
  -21.9571  -11.0266   20.5250 N   0  0  0  0  0  0  0  0  0  0  0  0
  -26.5857  -30.7235   22.8977 N   0  0  0  0  0  0  0  0  0  0  0  0
  -21.6584  -29.8627   19.2848 N   0  0  0  0  0  0  0  0  0  0  0  0
  -28.5080  -17.0719   18.8273 N   0  0  0  0  0  0  0  0  0  0  0  0
  -21.1380  -28.9597   15.8234 N   0  3  0  0  0  0  0  0  0  0  0  0
  -22.1127  -12.6020   18.8659 O   0  0  0  0  0  0  0  0  0  0  0  0
  -26.4548  -28.4102   22.6648 O   0  0  0  0  0  0  0  0  0  0  0  0
  -23.7453  -31.3087   20.6125 O   0  0  0  0  0  0  0  0  0  0  0  0
  -21.5903  -27.7531   18.3246 O   0  0  0  0  0  0  0  0  0  0  0  0
  -30.4137  -16.7812   20.0909 O   0  0  0  0  0  0  0  0  0  0  0  0
  -23.3142   -7.4096   24.5388 O   0  0  0  0  0  0  0  0  0  0  0  0
  -26.7442  -23.4599   19.4894 O   0  0  0  0  0  0  0  0  0  1  0  0
  -19.6314   -3.6320   22.9356 F   0  0  0  0  0  0  0  0  0  0  0  0
  -23.9207   -4.7137   24.6201 F   0  0  0  0  0  0  0  0  0  0  0  0
  -25.6467  -21.8721   17.5904 F   0  0  0  0  0  0  0  0  0  0  0  0
  -26.6529  -20.7547   19.1531 F   0  0  0  0  0  0  0  0  0  0  0  0
  1  2  1  0  0  0  0
  1  5  2  0  0  0  0
  2  6  2  0  0  0  0
  3  8  2  0  0  0  0
  3 16  1  0  0  0  0
  4  9  1  0  0  0  0
  4 16  2  0  0  0  0
  5 18  1  0  0  0  0
  6 20  1  0  0  0  0
  7 10  2  0  0  0  0
  7 19  1  0  0  0  0
  8 25  1  0  0  0  0
  9 25  2  0  0  0  0
 10 26  1  0  0  0  0
 11 12  2  0  0  0  0
 11 27  1  0  0  0  0
 12 28  1  0  0  0  0
 13 21  1  0  0  0  0
 13 26  2  0  0  0  0
 14 28  2  0  0  0  0
 14 29  1  0  0  0  0
 15 22  1  0  0  0  0
 15 66  2  0  0  0  0
 16 30  1  0  0  0  0
 17 30  1  0  0  0  0
 17 32  2  0  0  0  0
 17 33  1  0  0  0  0
 18 20  2  0  0  0  0
 18 38  1  0  0  0  0
 19 21  2  0  0  0  0
 19 39  1  0  0  0  0
 20 47  1  0  0  0  0
 21 40  1  0  0  0  0
 22 23  2  0  0  0  0
 22 64  1  0  0  0  0
 23 24  1  0  0  0  0
 23 59  1  0  0  0  0
 24 31  2  0  0  0  0
 24 50  1  0  0  0  0
 25 82  1  0  0  0  0
 26 83  1  0  0  0  0
 27 29  2  0  0  0  0
 27 82  1  0  0  0  0
 28 84  1  0  0  0  0
 29 85  1  0  0  0  0
 30 67  2  0  0  0  0
 31 51  1  0  0  0  0
 31 66  1  0  0  0  0
 32 68  1  0  0  0  0
 32 71  1  0  0  0  0
 33 72  1  0  0  0  0
 33 77  2  0  0  0  0
 34 48  1  0  0  0  0
 34 73  1  0  0  0  0
 34 78  2  0  0  0  0
 35 61  1  0  0  0  0
 35 69  1  0  0  0  0
 35 79  2  0  0  0  0
 36 62  1  0  0  0  0
 36 74  1  0  0  0  0
 36 80  2  0  0  0  0
 37 70  1  0  0  0  0
 37 75  1  0  0  0  0
 37 81  2  0  0  0  0
 38 41  1  0  0  0  0
 39 48  1  0  0  0  0
 40 69  1  0  0  0  0
 41 43  1  0  0  0  0
 42 44  1  0  0  0  0
 42 45  1  0  0  0  0
 43 47  1  0  0  0  0
 44 49  1  0  0  0  0
 45 70  1  0  0  0  0
 46 49  1  0  0  0  0
 46 70  1  0  0  0  0
 47 73  1  0  0  0  0
 48 69  1  0  0  0  0
 49 68  1  0  0  0  0
 52 62  1  0  0  0  0
 53 63  1  0  0  0  0
 54 65  1  0  0  0  0
 55 65  1  0  0  0  0
 56 65  1  0  0  0  0
 57 75  1  0  0  0  0
 58 76  1  0  0  0  0
 59 63  1  0  0  0  0
 60 64  1  0  0  0  0
 60 83  1  0  0  0  0
 61 65  1  0  0  0  0
 61 74  1  0  0  0  0
 62 76  1  0  0  0  0
 63 75  1  0  0  0  0
 64 86  1  0  0  0  0
 64 87  1  0  0  0  0
 67 68  1  0  0  0  0
M  CHG  1  76   1
M  ISO  4  37 100  60 101  75 100  83 101
M  END
> <Batch ID>
0106

> <Smiles>
CNC(C)C(=O)NC(C(=O)N1Cc2cc([101O:1][101CH2:1]C(F)(F)c3cnc(C)c(C)c3CC(C)[100N:0](C)[100C:0](=O)N3CCCC(n4nc(-c5ccc(Oc6ccc(F)cc6F)cc5)c(C(N)=O)c4N)C3)ccc2CC1C(=O)NC1CCCc2ccccc21)C(C)(C)C

> <Shape>
0.291

> <Color>
0.084

> <Negative vol penalty>
0.000

$$$$

  -OEChem-04052319483D

 83 91  0     1  0  0  0  0  0999 V2000
  -26.2231  -18.7306   23.7589 C   0  0  0  0  0  0  0  0  0  0  0  0
  -26.6615  -20.0224   23.4902 C   0  0  0  0  0  0  0  0  0  0  0  0
  -26.1111  -12.6836   20.9854 C   0  0  0  0  0  0  0  0  0  0  0  0
  -26.4548  -12.5611   18.5971 C   0  0  0  0  0  0  0  0  0  0  0  0
  -24.8787  -18.4058   23.5907 C   0  0  0  0  0  0  0  0  0  0  0  0
  -25.7535  -20.9927   23.0648 C   0  0  0  0  0  0  0  0  0  0  0  0
  -27.4259  -25.6036   22.6826 C   0  0  0  0  0  0  0  0  0  0  0  0
  -24.9716  -11.8887   20.8622 C   0  0  0  0  0  0  0  0  0  0  0  0
  -25.3153  -11.7661   18.4739 C   0  0  0  0  0  0  0  0  0  0  0  0
  -28.2991  -26.0075   21.6735 C   0  0  0  0  0  0  0  0  0  0  0  0
  -24.2534   -8.6075   20.4740 C   0  0  0  0  0  0  0  0  0  0  0  0
  -24.0887   -7.5648   21.3857 C   0  0  0  0  0  0  0  0  0  0  0  0
  -26.4666  -27.0738   20.5228 C   0  0  0  0  0  0  0  0  0  0  0  0
  -31.2218  -23.9959   17.7821 C   0  0  0  0  0  0  0  0  0  0  0  0
  -22.0119   -8.5468   22.1337 C   0  0  0  0  0  0  0  0  0  0  0  0
  -29.2251  -24.5224   16.8843 C   0  0  0  0  0  0  0  0  0  0  0  0
  -26.8527  -13.0198   19.8529 C   0  0  0  0  0  0  0  0  0  0  0  0
  -29.3514  -13.4061   20.1917 C   0  0  0  0  0  0  0  0  0  0  0  0
  -23.9568  -19.3700   23.1510 C   0  0  0  0  0  0  0  0  0  0  0  0
  -26.0622  -25.9231   22.6138 C   0  0  0  0  0  0  0  0  0  0  0  0
  -24.3883  -20.6907   22.9120 C   0  0  0  0  0  0  0  0  0  0  0  0
  -25.5786  -26.6751   21.5336 C   0  0  0  0  0  0  0  0  0  0  0  0
  -30.0731  -23.4681   17.1426 C   0  0  0  0  0  0  0  0  0  0  0  0
  -24.5737  -11.4299   19.6065 C   0  0  0  0  0  0  0  0  0  0  0  0
  -27.8190  -26.7402   20.5920 C   0  0  0  0  0  0  0  0  0  0  0  0
  -23.2974   -9.6199   20.3922 C   0  0  0  0  0  0  0  0  0  0  0  0
  -22.9680   -7.5344   22.2155 C   0  0  0  0  0  0  0  0  0  0  0  0
  -22.1766   -9.5896   21.2220 C   0  0  0  0  0  0  0  0  0  0  0  0
  -28.0296  -13.8414   19.9794 C   0  0  0  0  0  0  0  0  0  0  0  0
  -31.0407  -25.3567   17.8954 C   0  0  0  0  0  0  0  0  0  0  0  0
  -30.0906  -14.5628   20.2379 C   0  0  0  0  0  0  0  0  0  0  0  0
  -29.8652  -12.0751   20.3344 C   0  0  0  0  0  0  0  0  0  0  0  0
  -23.3703  -24.2413   22.4436 C   0  0  0  0  0  0  0  0  0  0  0  0
  -21.9865  -27.1586   22.7547 C   0  0  0  0  0  0  0  0  0  0  0  0
  -22.2413  -30.5410   22.3787 C   0  0  0  0  0  0  0  0  0  0  0  0
  -29.1979  -19.8983   17.8734 C   0  0  0  0  0  0  0  0  0  0  0  0
  -22.5121  -18.9661   22.9935 C   0  0  0  0  0  0  0  0  0  0  0  0
  -25.1382  -25.5029   23.7238 C   0  0  0  0  0  0  0  0  0  0  0  0
  -24.1271  -27.0612   21.4228 C   0  0  0  0  0  0  0  0  0  0  0  0
  -21.7167  -19.9315   22.1207 C   0  0  0  0  0  0  0  0  0  0  0  0
  -29.7278  -19.1956   21.3838 C   0  0  0  0  0  0  0  0  0  0  0  0
  -21.9505  -21.3623   22.5820 C   0  0  0  0  0  0  0  0  0  0  0  0
  -29.4744  -17.6878   21.4338 C   0  0  0  0  0  0  0  0  0  0  0  0
  -28.7791  -19.8835   20.4066 C   0  0  0  0  0  0  0  0  0  0  0  0
  -28.5597  -17.8242   19.0706 C   0  0  0  0  0  0  0  0  0  0  0  0
  -23.4244  -21.7547   22.4189 C   0  0  1  0  0  0  0  0  0  0  0  0
  -23.6759  -25.4424   23.2932 C   0  0  1  0  0  0  0  0  0  0  0  0
  -29.5025  -17.0678   20.0241 C   0  0  2  0  0  0  0  0  0  0  0  0
  -20.9331  -32.6609   22.6824 C   0  0  0  0  0  0  0  0  0  0  0  0
  -33.2503  -25.7629   19.0349 C   0  0  0  0  0  0  0  0  0  0  0  0
  -31.2372  -27.1340   19.6701 C   0  0  0  0  0  0  0  0  0  0  0  0
  -32.3923  -27.5235   17.5032 C   0  0  0  0  0  0  0  0  0  0  0  0
  -20.3892  -26.5315   20.2318 C   0  0  0  0  0  0  0  0  0  0  0  0
  -19.8462  -28.9690   20.0536 C   0  0  0  0  0  0  0  0  0  0  0  0
  -19.0833  -27.6649   22.0385 C   0  0  0  0  0  0  0  0  0  0  0  0
  -24.1920  -31.6014   24.3355 C   0  0  0  0  0  0  0  0  0  0  0  0
  -29.8291  -22.0510   16.8129 C   0  0  0  0  0  0  0  0  0  0  0  0
  -29.2187  -27.0454   17.2556 C   0  0  0  0  0  0  0  0  0  0  0  0
  -28.1240  -27.2683   18.2933 C   0  0  0  0  0  0  0  0  0  1  0  0
  -21.5346  -28.2351   21.7976 C   0  0  1  0  0  0  0  0  0  0  0  0
  -21.9122  -31.6866   23.3187 C   0  0  2  0  0  0  0  0  0  0  0  0
  -31.9256  -26.3854   18.4802 C   0  0  0  0  0  0  0  0  0  0  0  0
  -20.2404  -27.8413   21.0312 C   0  0  0  0  0  0  0  0  0  0  0  0
  -27.9316  -15.1709   19.8966 N   0  0  0  0  0  0  0  0  0  0  0  0
  -29.8235  -25.6654   17.3466 N   0  0  0  0  0  0  0  0  0  0  0  0
  -29.2012  -15.5810   20.0578 N   0  0  0  0  0  0  0  0  0  0  0  0
  -23.2620  -26.6216   22.5301 N   0  0  0  0  0  0  0  0  0  0  0  0
  -28.8680  -19.2581   19.0795 N   0  0  0  0  0  0  0  0  0  0  0  0
  -31.4081  -14.7981   20.4147 N   0  0  0  0  0  0  0  0  0  0  0  0
  -28.9677  -11.0011   20.2611 N   0  0  0  0  0  0  0  0  0  0  0  0
  -23.6457  -23.0339   23.0565 N   0  0  0  0  0  0  0  0  0  0  0  0
  -21.4142  -29.4572   22.5852 N   0  0  0  0  0  0  0  0  0  0  0  0
  -29.4692  -21.2578   17.9672 N   0  0  0  0  0  0  0  0  0  0  0  0
  -23.1507  -32.4331   23.6791 N   0  3  0  0  0  0  0  0  0  0  0  0
  -31.0816  -11.8460   20.5377 O   0  0  0  0  0  0  0  0  0  0  0  0
  -22.9167  -24.3984   21.3161 O   0  0  0  0  0  0  0  0  0  0  0  0
  -21.2384  -26.8122   23.6723 O   0  0  0  0  0  0  0  0  0  0  0  0
  -23.1396  -30.6028   21.5422 O   0  0  0  0  0  0  0  0  0  0  0  0
  -29.2522  -19.3011   16.7929 O   0  0  0  0  0  0  0  0  0  0  0  0
  -23.4619  -10.6540   19.4860 O   0  0  0  0  0  0  0  0  0  0  0  0
  -28.6690  -27.1351   19.6054 O   0  0  0  0  0  0  0  0  0  1  0  0
  -22.8092   -6.5322   23.0899 F   0  0  0  0  0  0  0  0  0  0  0  0
  -21.2542  -10.5588   21.1472 F   0  0  0  0  0  0  0  0  0  0  0  0
  1  2  1  0  0  0  0
  1  5  2  0  0  0  0
  2  6  2  0  0  0  0
  3  8  2  0  0  0  0
  3 17  1  0  0  0  0
  4  9  1  0  0  0  0
  4 17  2  0  0  0  0
  5 19  1  0  0  0  0
  6 21  1  0  0  0  0
  7 10  2  0  0  0  0
  7 20  1  0  0  0  0
  8 24  1  0  0  0  0
  9 24  2  0  0  0  0
 10 25  1  0  0  0  0
 11 12  2  0  0  0  0
 11 26  1  0  0  0  0
 12 27  1  0  0  0  0
 13 22  1  0  0  0  0
 13 25  2  0  0  0  0
 14 23  1  0  0  0  0
 14 30  2  0  0  0  0
 15 27  2  0  0  0  0
 15 28  1  0  0  0  0
 16 23  2  0  0  0  0
 16 65  1  0  0  0  0
 17 29  1  0  0  0  0
 18 29  1  0  0  0  0
 18 31  2  0  0  0  0
 18 32  1  0  0  0  0
 19 21  2  0  0  0  0
 19 37  1  0  0  0  0
 20 22  2  0  0  0  0
 20 38  1  0  0  0  0
 21 46  1  0  0  0  0
 22 39  1  0  0  0  0
 23 57  1  0  0  0  0
 24 80  1  0  0  0  0
 25 81  1  0  0  0  0
 26 28  2  0  0  0  0
 26 80  1  0  0  0  0
 27 82  1  0  0  0  0
 28 83  1  0  0  0  0
 29 64  2  0  0  0  0
 30 62  1  0  0  0  0
 30 65  1  0  0  0  0
 31 66  1  0  0  0  0
 31 69  1  0  0  0  0
 32 70  1  0  0  0  0
 32 75  2  0  0  0  0
 33 47  1  0  0  0  0
 33 71  1  0  0  0  0
 33 76  2  0  0  0  0
 34 60  1  0  0  0  0
 34 67  1  0  0  0  0
 34 77  2  0  0  0  0
 35 61  1  0  0  0  0
 35 72  1  0  0  0  0
 35 78  2  0  0  0  0
 36 68  1  0  0  0  0
 36 73  1  0  0  0  0
 36 79  2  0  0  0  0
 37 40  1  0  0  0  0
 38 47  1  0  0  0  0
 39 67  1  0  0  0  0
 40 42  1  0  0  0  0
 41 43  1  0  0  0  0
 41 44  1  0  0  0  0
 42 46  1  0  0  0  0
 43 48  1  0  0  0  0
 44 68  1  0  0  0  0
 45 48  1  0  0  0  0
 45 68  1  0  0  0  0
 46 71  1  0  0  0  0
 47 67  1  0  0  0  0
 48 66  1  0  0  0  0
 49 61  1  0  0  0  0
 50 62  1  0  0  0  0
 51 62  1  0  0  0  0
 52 62  1  0  0  0  0
 53 63  1  0  0  0  0
 54 63  1  0  0  0  0
 55 63  1  0  0  0  0
 56 74  1  0  0  0  0
 57 73  1  0  0  0  0
 58 59  1  0  0  0  0
 58 65  1  0  0  0  0
 59 81  1  0  0  0  0
 60 63  1  0  0  0  0
 60 72  1  0  0  0  0
 61 74  1  0  0  0  0
 64 66  1  0  0  0  0
M  CHG  1  74   1
M  ISO  4  36 100  59 101  73 100  81 101
M  END
> <Batch ID>
0106

> <Smiles>
CNC(C)C(=O)NC(C(=O)N1Cc2cc([101O:1][101CH2:1]Cn3cc(C[100NH:0][100C:0](=O)N4CCCC(n5nc(-c6ccc(Oc7ccc(F)cc7F)cc6)c(C(N)=O)c5N)C4)cc3C(C)(C)C)ccc2CC1C(=O)NC1CCCc2ccccc21)C(C)(C)C

> <Shape>
0.265

> <Color>
0.065

> <Negative vol penalty>
0.000

$$$$

  -OEChem-04052319483D

 87 95  0     1  0  0  0  0  0999 V2000
  -25.1373  -38.2992   19.2765 C   0  0  0  0  0  0  0  0  0  0  0  0
  -25.9254  -37.2521   18.8098 C   0  0  0  0  0  0  0  0  0  0  0  0
  -23.8936   -9.8002   22.1927 C   0  0  0  0  0  0  0  0  0  0  0  0
  -24.4764  -11.3493   23.9526 C   0  0  0  0  0  0  0  0  0  0  0  0
  -24.5047  -38.1959   20.5147 C   0  0  0  0  0  0  0  0  0  0  0  0
  -26.0821  -36.1013   19.5816 C   0  0  0  0  0  0  0  0  0  0  0  0
  -26.9725  -29.0230   18.9332 C   0  0  0  0  0  0  0  0  0  0  0  0
  -28.3543  -20.3758   18.7138 C   0  0  0  0  0  0  0  0  0  0  0  0
  -23.4430   -8.8869   23.1457 C   0  0  0  0  0  0  0  0  0  0  0  0
  -24.0258  -10.4360   24.9058 C   0  0  0  0  0  0  0  0  0  0  0  0
  -27.8141  -27.9992   19.3660 C   0  0  0  0  0  0  0  0  0  0  0  0
  -20.6946   -8.4404   25.0640 C   0  0  0  0  0  0  0  0  0  0  0  0
  -19.4743   -7.8070   24.8288 C   0  0  0  0  0  0  0  0  0  0  0  0
  -28.2287  -19.0595   19.1439 C   0  0  0  0  0  0  0  0  0  0  0  0
  -26.6095  -27.8995   21.4536 C   0  0  0  0  0  0  0  0  0  0  0  0
  -20.5820   -5.6602   24.8626 C   0  0  0  0  0  0  0  0  0  0  0  0
  -24.4103  -11.0314   22.5961 C   0  0  0  0  0  0  0  0  0  0  0  0
  -24.1247  -12.9810   20.9759 C   0  0  0  0  0  0  0  0  0  0  0  0
  -24.6459  -37.0393   21.2976 C   0  0  0  0  0  0  0  0  0  0  0  0
  -25.9482  -29.5010   19.7631 C   0  0  0  0  0  0  0  0  0  0  0  0
  -25.4519  -35.9829   20.8319 C   0  0  0  0  0  0  0  0  0  0  0  0
  -25.7546  -28.9277   21.0280 C   0  0  0  0  0  0  0  0  0  0  0  0
  -29.4950  -20.7698   18.0233 C   0  0  0  0  0  0  0  0  0  0  0  0
  -23.5091   -9.2048   24.5023 C   0  0  0  0  0  0  0  0  0  0  0  0
  -27.6345  -27.4393   20.6275 C   0  0  0  0  0  0  0  0  0  0  0  0
  -21.8586   -7.6837   25.1984 C   0  0  0  0  0  0  0  0  0  0  0  0
  -19.4180   -6.4170   24.7282 C   0  0  0  0  0  0  0  0  0  0  0  0
  -21.8023   -6.2936   25.0977 C   0  0  0  0  0  0  0  0  0  0  0  0
  -24.8765  -11.9751   21.6121 C   0  0  0  0  0  0  0  0  0  0  0  0
  -30.4735  -19.8170   17.7900 C   0  0  0  0  0  0  0  0  0  0  0  0
  -29.2638  -18.1831   18.8603 C   0  0  0  0  0  0  0  0  0  0  0  0
  -25.0192  -13.5992   20.1367 C   0  0  0  0  0  0  0  0  0  0  0  0
  -22.7416  -13.3259   21.1298 C   0  0  0  0  0  0  0  0  0  0  0  0
  -25.2708  -32.3024   21.1036 C   0  0  0  0  0  0  0  0  0  0  0  0
  -22.5495  -30.7778   21.9939 C   0  0  0  0  0  0  0  0  0  0  0  0
  -20.9628  -27.8282   22.6489 C   0  0  0  0  0  0  0  0  0  0  0  0
  -30.0340  -15.7999   19.1308 C   0  0  0  0  0  0  0  0  0  0  0  0
  -23.9809  -36.9929   22.6505 C   0  0  0  0  0  0  0  0  0  0  0  0
  -25.0320  -30.5876   19.2709 C   0  0  0  0  0  0  0  0  0  0  0  0
  -24.6569  -29.3913   21.9492 C   0  0  0  0  0  0  0  0  0  0  0  0
  -23.8950  -35.5870   23.2391 C   0  0  0  0  0  0  0  0  0  0  0  0
  -29.7080  -12.2731   18.7662 C   0  0  0  0  0  0  0  0  0  0  0  0
  -25.2336  -34.8684   23.1026 C   0  0  0  0  0  0  0  0  0  0  0  0
  -28.3601  -11.9639   19.4217 C   0  0  0  0  0  0  0  0  0  0  0  0
  -30.4575  -13.3801   19.5054 C   0  0  0  0  0  0  0  0  0  0  0  0
  -28.3446  -14.3070   20.3688 C   0  0  0  0  0  0  0  0  0  0  0  0
  -25.6261  -34.7084   21.6289 C   0  0  1  0  0  0  0  0  0  0  0  0
  -24.3462  -31.3485   20.4015 C   0  0  1  0  0  0  0  0  0  0  0  0
  -27.5239  -13.2432   19.6214 C   0  0  2  0  0  0  0  0  0  0  0  0
  -31.7204  -20.1847   17.0542 C   0  0  0  0  0  0  0  0  0  0  0  0
  -18.7516  -26.9037   23.3926 C   0  0  0  0  0  0  0  0  0  0  0  0
  -29.2978  -23.9510   15.6854 C   0  0  0  0  0  0  0  0  0  0  0  0
  -27.5643  -22.1713   16.0532 C   0  0  0  0  0  0  0  0  0  0  0  0
  -27.9829  -23.5576   21.1857 C   0  0  0  0  0  0  0  0  0  0  0  0
  -23.1650  -31.6190   24.8615 C   0  0  0  0  0  0  0  0  0  0  0  0
  -21.5077  -29.9133   25.6438 C   0  0  0  0  0  0  0  0  0  0  0  0
  -20.7579  -31.8129   24.2113 C   0  0  0  0  0  0  0  0  0  0  0  0
  -20.6132  -26.3210   20.1260 C   0  0  0  0  0  0  0  0  0  0  0  0
  -28.9983  -25.5770   20.0547 C   0  0  0  0  0  0  0  0  0  1  0  0
  -29.9439  -23.2915   19.6131 C   0  0  0  0  0  0  0  0  0  0  0  0
  -29.6390  -22.2021   17.5533 C   0  0  1  0  0  0  0  0  0  0  0  0
  -22.1275  -29.9520   23.1851 C   0  0  1  0  0  0  0  0  0  0  0  0
  -19.6164  -27.2879   22.2021 C   0  0  2  0  0  0  0  0  0  0  0  0
  -29.0518  -22.5137   16.1542 C   0  0  0  0  0  0  0  0  0  0  0  0
  -29.2721  -24.1939   20.6521 C   0  0  2  0  0  0  0  0  0  0  0  0
  -21.9115  -30.8167   24.4591 C   0  0  0  0  0  0  0  0  0  0  0  0
  -26.1504  -11.9520   21.2112 N   0  0  0  0  0  0  0  0  0  0  0  0
  -30.3870  -18.5292   18.1922 N   0  0  0  0  0  0  0  0  0  0  0  0
  -26.2060  -12.9510   20.3140 N   0  0  0  0  0  0  0  0  0  0  0  0
  -23.7912  -30.4606   21.4251 N   0  0  0  0  0  0  0  0  0  0  0  0
  -29.6050  -14.5617   19.6538 N   0  0  0  0  0  0  0  0  0  0  0  0
  -24.8984  -14.6286   19.2716 N   0  0  0  0  0  0  0  0  0  0  0  0
  -21.9659  -12.5885   22.0347 N   0  0  0  0  0  0  0  0  0  0  0  0
  -29.1260  -16.8442   19.3029 N   0  0  0  0  0  0  0  0  0  0  0  0
  -24.8815  -33.6258   21.0223 N   0  0  0  0  0  0  0  0  0  0  0  0
  -20.9487  -29.2021   22.7649 N   0  0  0  0  0  0  0  0  0  0  0  0
  -19.8004  -26.0818   21.3463 N   0  3  0  0  0  0  0  0  0  0  0  0
  -22.2054  -14.2496   20.4720 O   0  0  0  0  0  0  0  0  0  0  0  0
  -26.2631  -31.8696   21.6779 O   0  0  0  0  0  0  0  0  0  0  0  0
  -21.8017  -31.6667   21.5788 O   0  0  0  0  0  0  0  0  0  0  0  0
  -21.9292  -27.1037   22.8761 O   0  0  0  0  0  0  0  0  0  0  0  0
  -31.1145  -15.9186   18.5473 O   0  0  0  0  0  0  0  0  0  0  0  0
  -23.0693   -8.3139   25.4326 O   0  0  0  0  0  0  0  0  0  0  0  0
  -28.4550  -26.4403   21.0526 O   0  0  0  0  0  0  0  0  0  1  0  0
  -29.0628  -23.0699   18.5199 O   0  0  0  0  0  0  0  0  0  0  0  0
  -18.2458   -5.8088   24.5039 F   0  0  0  0  0  0  0  0  0  0  0  0
  -22.9171   -5.5612   25.2271 F   0  0  0  0  0  0  0  0  0  0  0  0
  1  2  1  0  0  0  0
  1  5  2  0  0  0  0
  2  6  2  0  0  0  0
  3  9  2  0  0  0  0
  3 17  1  0  0  0  0
  4 10  1  0  0  0  0
  4 17  2  0  0  0  0
  5 19  1  0  0  0  0
  6 21  1  0  0  0  0
  7 11  2  0  0  0  0
  7 20  1  0  0  0  0
  8 14  2  0  0  0  0
  8 23  1  0  0  0  0
  9 24  1  0  0  0  0
 10 24  2  0  0  0  0
 11 25  1  0  0  0  0
 12 13  2  0  0  0  0
 12 26  1  0  0  0  0
 13 27  1  0  0  0  0
 14 31  1  0  0  0  0
 15 22  1  0  0  0  0
 15 25  2  0  0  0  0
 16 27  2  0  0  0  0
 16 28  1  0  0  0  0
 17 29  1  0  0  0  0
 18 29  1  0  0  0  0
 18 32  2  0  0  0  0
 18 33  1  0  0  0  0
 19 21  2  0  0  0  0
 19 38  1  0  0  0  0
 20 22  2  0  0  0  0
 20 39  1  0  0  0  0
 21 47  1  0  0  0  0
 22 40  1  0  0  0  0
 23 30  2  0  0  0  0
 23 61  1  0  0  0  0
 24 83  1  0  0  0  0
 25 84  1  0  0  0  0
 26 28  2  0  0  0  0
 26 83  1  0  0  0  0
 27 86  1  0  0  0  0
 28 87  1  0  0  0  0
 29 67  2  0  0  0  0
 30 50  1  0  0  0  0
 30 68  1  0  0  0  0
 31 68  2  0  0  0  0
 31 74  1  0  0  0  0
 32 69  1  0  0  0  0
 32 72  1  0  0  0  0
 33 73  1  0  0  0  0
 33 78  2  0  0  0  0
 34 48  1  0  0  0  0
 34 75  1  0  0  0  0
 34 79  2  0  0  0  0
 35 62  1  0  0  0  0
 35 70  1  0  0  0  0
 35 80  2  0  0  0  0
 36 63  1  0  0  0  0
 36 76  1  0  0  0  0
 36 81  2  0  0  0  0
 37 71  1  0  0  0  0
 37 74  1  0  0  0  0
 37 82  2  0  0  0  0
 38 41  1  0  0  0  0
 39 48  1  0  0  0  0
 40 70  1  0  0  0  0
 41 43  1  0  0  0  0
 42 44  1  0  0  0  0
 42 45  1  0  0  0  0
 43 47  1  0  0  0  0
 44 49  1  0  0  0  0
 45 71  1  0  0  0  0
 46 49  1  0  0  0  0
 46 71  1  0  0  0  0
 47 75  1  0  0  0  0
 48 70  1  0  0  0  0
 49 69  1  0  0  0  0
 51 63  1  0  0  0  0
 52 64  1  0  0  0  0
 53 64  1  0  0  0  0
 54 65  1  0  0  0  0
 55 66  1  0  0  0  0
 56 66  1  0  0  0  0
 57 66  1  0  0  0  0
 58 77  1  0  0  0  0
 59 65  1  0  0  0  0
 59 84  1  0  0  0  0
 60 65  1  0  0  0  0
 60 85  1  0  0  0  0
 61 64  1  0  0  0  0
 61 85  1  0  0  0  0
 62 66  1  0  0  0  0
 62 76  1  0  0  0  0
 63 77  1  0  0  0  0
 67 69  1  0  0  0  0
M  CHG  1  77   1
M  ISO  4  37 100  59 101  74 100  84 101
M  END
> <Batch ID>
0106

> <Smiles>
CNC(C)C(=O)NC(C(=O)N1Cc2cc([101O:1][101CH2:1]C(C)COC(c3ccc([100NH:0][100C:0](=O)N4CCCC(n5nc(-c6ccc(Oc7ccc(F)cc7F)cc6)c(C(N)=O)c5N)C4)nc3C)C(C)C)ccc2CC1C(=O)NC1CCCc2ccccc21)C(C)(C)C

> <Shape>
0.319

> <Color>
0.154

> <Negative vol penalty>
0.000

$$$$

  -OEChem-04052319483D

 85 93  0     1  0  0  0  0  0999 V2000
  -20.8227  -22.9578   21.7534 C   0  0  0  0  0  0  0  0  0  0  0  0
  -22.0382  -22.3870   21.3897 C   0  0  0  0  0  0  0  0  0  0  0  0
  -23.6395  -31.1829   22.0233 C   0  0  0  0  0  0  0  0  0  0  0  0
  -23.8681  -29.2320   23.4300 C   0  0  0  0  0  0  0  0  0  0  0  0
  -20.0270  -22.3438   22.7198 C   0  0  0  0  0  0  0  0  0  0  0  0
  -22.4592  -21.2024   21.9929 C   0  0  0  0  0  0  0  0  0  0  0  0
  -24.3014  -17.8701   18.6543 C   0  0  0  0  0  0  0  0  0  0  0  0
  -28.6067  -21.3553   20.7251 C   0  0  0  0  0  0  0  0  0  0  0  0
  -22.2509  -31.0803   22.1066 C   0  0  0  0  0  0  0  0  0  0  0  0
  -22.4795  -29.1294   23.5133 C   0  0  0  0  0  0  0  0  0  0  0  0
  -25.5979  -18.0854   18.1890 C   0  0  0  0  0  0  0  0  0  0  0  0
  -19.9450  -27.9953   21.5842 C   0  0  0  0  0  0  0  0  0  0  0  0
  -19.3777  -26.7314   21.4216 C   0  0  0  0  0  0  0  0  0  0  0  0
  -29.2562  -22.4436   21.2969 C   0  0  0  0  0  0  0  0  0  0  0  0
  -26.4222  -16.4297   19.7376 C   0  0  0  0  0  0  0  0  0  0  0  0
  -18.4256  -26.8736   23.6375 C   0  0  0  0  0  0  0  0  0  0  0  0
  -24.4481  -30.2587   22.6850 C   0  0  0  0  0  0  0  0  0  0  0  0
  -26.7353  -31.0829   23.4578 C   0  0  0  0  0  0  0  0  0  0  0  0
  -20.4340  -21.1460   23.3282 C   0  0  0  0  0  0  0  0  0  0  0  0
  -24.0566  -16.9392   19.6741 C   0  0  0  0  0  0  0  0  0  0  0  0
  -21.6688  -20.5726   22.9693 C   0  0  0  0  0  0  0  0  0  0  0  0
  -25.1214  -16.2025   20.2123 C   0  0  0  0  0  0  0  0  0  0  0  0
  -28.7128  -21.1297   19.3572 C   0  0  0  0  0  0  0  0  0  0  0  0
  -21.6709  -30.0535   22.8516 C   0  0  0  0  0  0  0  0  0  0  0  0
  -26.6589  -17.3673   18.7326 C   0  0  0  0  0  0  0  0  0  0  0  0
  -19.7527  -28.6983   22.7736 C   0  0  0  0  0  0  0  0  0  0  0  0
  -18.6180  -26.1706   22.4482 C   0  0  0  0  0  0  0  0  0  0  0  0
  -18.9930  -28.1375   23.8002 C   0  0  0  0  0  0  0  0  0  0  0  0
  -25.8825  -30.3639   22.5989 C   0  0  0  0  0  0  0  0  0  0  0  0
  -29.9934  -23.2699   20.4641 C   0  0  0  0  0  0  0  0  0  0  0  0
  -29.4742  -22.0149   18.6111 C   0  0  0  0  0  0  0  0  0  0  0  0
  -27.9940  -30.8653   22.9530 C   0  0  0  0  0  0  0  0  0  0  0  0
  -26.4180  -31.8763   24.6090 C   0  0  0  0  0  0  0  0  0  0  0  0
  -22.8842  -17.1003   22.6242 C   0  0  0  0  0  0  0  0  0  0  0  0
  -23.0997  -13.8674   22.4681 C   0  0  0  0  0  0  0  0  0  0  0  0
  -24.5683  -11.1262   21.0625 C   0  0  0  0  0  0  0  0  0  0  0  0
  -30.3575  -26.4678   19.6475 C   0  0  0  0  0  0  0  0  0  0  0  0
  -19.5621  -20.5444   24.4018 C   0  0  0  0  0  0  0  0  0  0  0  0
  -22.6488  -16.6993   20.1463 C   0  0  0  0  0  0  0  0  0  0  0  0
  -24.9090  -15.1770   21.2947 C   0  0  0  0  0  0  0  0  0  0  0  0
  -19.9056  -19.0920   24.7225 C   0  0  0  0  0  0  0  0  0  0  0  0
  -30.2741  -29.9368   18.8505 C   0  0  0  0  0  0  0  0  0  0  0  0
  -21.4132  -18.9226   24.8819 C   0  0  0  0  0  0  0  0  0  0  0  0
  -29.2161  -30.5045   19.7983 C   0  0  0  0  0  0  0  0  0  0  0  0
  -29.9036  -28.5375   18.3643 C   0  0  0  0  0  0  0  0  0  0  0  0
  -28.5484  -28.1358   20.3832 C   0  0  0  0  0  0  0  0  0  0  0  0
  -22.1483  -19.2751   23.5831 C   0  0  1  0  0  0  0  0  0  0  0  0
  -22.5827  -16.0975   21.5466 C   0  0  1  0  0  0  0  0  0  0  0  0
  -28.9052  -29.5230   20.9442 C   0  0  2  0  0  0  0  0  0  0  0  0
  -31.0891  -21.5726   16.7270 C   0  0  0  0  0  0  0  0  0  0  0  0
  -29.0457  -22.9940   16.3282 C   0  0  0  0  0  0  0  0  0  0  0  0
  -24.5647   -8.6189   21.1657 C   0  0  0  0  0  0  0  0  0  0  0  0
  -24.7050  -13.9743   25.0607 C   0  0  0  0  0  0  0  0  0  0  0  0
  -25.4631  -11.6319   24.6061 C   0  0  0  0  0  0  0  0  0  0  0  0
  -23.0386  -12.1133   24.9414 C   0  0  0  0  0  0  0  0  0  0  0  0
  -28.8291  -18.2022   20.4188 C   0  0  0  0  0  0  0  0  0  0  0  0
  -30.0793  -18.6046   18.2845 C   0  0  0  0  0  0  0  0  0  0  0  0
  -23.7141  -10.8954   18.2383 C   0  0  0  0  0  0  0  0  0  0  0  0
  -28.0079  -19.9488   18.7293 C   0  0  0  0  0  0  0  0  0  0  0  0
  -30.7048  -24.4463   21.0447 C   0  0  0  0  0  0  0  0  0  0  0  0
  -29.6263  -21.8204   17.1381 C   0  0  0  0  0  0  0  0  0  0  0  0
  -24.1639  -12.8496   22.8005 C   0  0  1  0  0  0  0  0  0  0  0  0
  -23.9788   -9.8494   20.4910 C   0  0  2  0  0  0  0  0  0  0  0  0
  -24.3472  -12.6629   24.3332 C   0  0  0  0  0  0  0  0  0  0  0  0
  -28.6935  -18.5808   18.9416 C   0  0  0  0  0  0  0  0  0  1  0  0
  -26.5436  -29.7367   21.6224 N   0  0  0  0  0  0  0  0  0  0  0  0
  -30.1196  -23.0829   19.1312 N   0  0  0  0  0  0  0  0  0  0  0  0
  -27.8252  -30.0609   21.8646 N   0  0  0  0  0  0  0  0  0  0  0  0
  -23.5152  -14.9831   21.7275 N   0  0  0  0  0  0  0  0  0  0  0  0
  -29.6224  -27.6556   19.4997 N   0  0  0  0  0  0  0  0  0  0  0  0
  -29.2176  -31.2856   23.3383 N   0  0  0  0  0  0  0  0  0  0  0  0
  -25.0742  -31.9942   24.9896 N   0  0  0  0  0  0  0  0  0  0  0  0
  -22.0372  -18.1921   22.6296 N   0  0  0  0  0  0  0  0  0  0  0  0
  -23.7980  -11.6294   22.0895 N   0  0  0  0  0  0  0  0  0  0  0  0
  -30.0322  -25.6929   20.7540 N   0  0  0  0  0  0  0  0  0  0  0  0
  -24.2552   -9.7602   19.0292 N   0  3  0  0  0  0  0  0  0  0  0  0
  -27.2984  -32.4768   25.2708 O   0  0  0  0  0  0  0  0  0  0  0  0
  -23.8154  -16.8978   23.3947 O   0  0  0  0  0  0  0  0  0  0  0  0
  -21.9409  -13.6760   22.8453 O   0  0  0  0  0  0  0  0  0  0  0  0
  -25.6101  -11.6251   20.6426 O   0  0  0  0  0  0  0  0  0  0  0  0
  -31.2420  -26.1260   18.8552 O   0  0  0  0  0  0  0  0  0  0  0  0
  -20.3160  -29.9532   22.9332 O   0  0  0  0  0  0  0  0  0  0  0  0
  -27.9254  -17.5759   18.2807 O   0  0  0  0  0  0  0  0  0  1  0  0
  -18.0719  -24.9576   22.2912 F   0  0  0  0  0  0  0  0  0  0  0  0
  -18.8037  -28.8085   24.9446 F   0  0  0  0  0  0  0  0  0  0  0  0
  1  2  1  0  0  0  0
  1  5  2  0  0  0  0
  2  6  2  0  0  0  0
  3  9  2  0  0  0  0
  3 17  1  0  0  0  0
  4 10  1  0  0  0  0
  4 17  2  0  0  0  0
  5 19  1  0  0  0  0
  6 21  1  0  0  0  0
  7 11  2  0  0  0  0
  7 20  1  0  0  0  0
  8 14  2  0  0  0  0
  8 23  1  0  0  0  0
  9 24  1  0  0  0  0
 10 24  2  0  0  0  0
 11 25  1  0  0  0  0
 12 13  2  0  0  0  0
 12 26  1  0  0  0  0
 13 27  1  0  0  0  0
 14 30  1  0  0  0  0
 15 22  1  0  0  0  0
 15 25  2  0  0  0  0
 16 27  2  0  0  0  0
 16 28  1  0  0  0  0
 17 29  1  0  0  0  0
 18 29  1  0  0  0  0
 18 32  2  0  0  0  0
 18 33  1  0  0  0  0
 19 21  2  0  0  0  0
 19 38  1  0  0  0  0
 20 22  2  0  0  0  0
 20 39  1  0  0  0  0
 21 47  1  0  0  0  0
 22 40  1  0  0  0  0
 23 31  2  0  0  0  0
 23 59  1  0  0  0  0
 24 82  1  0  0  0  0
 25 83  1  0  0  0  0
 26 28  2  0  0  0  0
 26 82  1  0  0  0  0
 27 84  1  0  0  0  0
 28 85  1  0  0  0  0
 29 66  2  0  0  0  0
 30 60  1  0  0  0  0
 30 67  2  0  0  0  0
 31 61  1  0  0  0  0
 31 67  1  0  0  0  0
 32 68  1  0  0  0  0
 32 71  1  0  0  0  0
 33 72  1  0  0  0  0
 33 77  2  0  0  0  0
 34 48  1  0  0  0  0
 34 73  1  0  0  0  0
 34 78  2  0  0  0  0
 35 62  1  0  0  0  0
 35 69  1  0  0  0  0
 35 79  2  0  0  0  0
 36 63  1  0  0  0  0
 36 74  1  0  0  0  0
 36 80  2  0  0  0  0
 37 70  1  0  0  0  0
 37 75  1  0  0  0  0
 37 81  2  0  0  0  0
 38 41  1  0  0  0  0
 39 48  1  0  0  0  0
 40 69  1  0  0  0  0
 41 43  1  0  0  0  0
 42 44  1  0  0  0  0
 42 45  1  0  0  0  0
 43 47  1  0  0  0  0
 44 49  1  0  0  0  0
 45 70  1  0  0  0  0
 46 49  1  0  0  0  0
 46 70  1  0  0  0  0
 47 73  1  0  0  0  0
 48 69  1  0  0  0  0
 49 68  1  0  0  0  0
 50 61  1  0  0  0  0
 51 61  1  0  0  0  0
 52 63  1  0  0  0  0
 53 64  1  0  0  0  0
 54 64  1  0  0  0  0
 55 64  1  0  0  0  0
 56 65  1  0  0  0  0
 57 65  1  0  0  0  0
 58 76  1  0  0  0  0
 59 65  1  0  0  0  0
 60 75  1  0  0  0  0
 62 64  1  0  0  0  0
 62 74  1  0  0  0  0
 63 76  1  0  0  0  0
 65 83  1  0  0  0  0
 66 68  1  0  0  0  0
M  CHG  1  76   1
M  ISO  4  37 100  65 101  75 100  83 101
M  END
> <Batch ID>
0106

> <Smiles>
CNC(C)C(=O)NC(C(=O)N1Cc2cc([101O:1][101C:1](C)(C)Cc3ccc(C[100NH:0][100C:0](=O)N4CCCC(n5nc(-c6ccc(Oc7ccc(F)cc7F)cc6)c(C(N)=O)c5N)C4)nc3C(C)C)ccc2CC1C(=O)NC1CCCc2ccccc21)C(C)(C)C

> <Shape>
0.270

> <Color>
0.044

> <Negative vol penalty>
0.000

$$$$

  -OEChem-04052319483D

 85 93  0     1  0  0  0  0  0999 V2000
  -28.7045  -24.5900   17.4533 C   0  0  0  0  0  0  0  0  0  0  0  0
  -27.4819  -24.7733   18.0914 C   0  0  0  0  0  0  0  0  0  0  0  0
  -28.4968  -19.0041   21.9867 C   0  0  0  0  0  0  0  0  0  0  0  0
  -27.0444  -18.2332   20.2166 C   0  0  0  0  0  0  0  0  0  0  0  0
  -29.8542  -25.1889   17.9666 C   0  0  0  0  0  0  0  0  0  0  0  0
  -27.4086  -25.5547   19.2439 C   0  0  0  0  0  0  0  0  0  0  0  0
  -23.4738  -28.7420   19.1828 C   0  0  0  0  0  0  0  0  0  0  0  0
  -29.5730  -18.3480   21.3895 C   0  0  0  0  0  0  0  0  0  0  0  0
  -28.1207  -17.5770   19.6193 C   0  0  0  0  0  0  0  0  0  0  0  0
  -22.2184  -28.2094   19.4727 C   0  0  0  0  0  0  0  0  0  0  0  0
  -29.8455  -14.7036   20.0660 C   0  0  0  0  0  0  0  0  0  0  0  0
  -29.6393  -13.4009   19.6122 C   0  0  0  0  0  0  0  0  0  0  0  0
  -22.3895  -29.0493   21.7276 C   0  0  0  0  0  0  0  0  0  0  0  0
  -18.9307  -22.9086   22.6736 C   0  0  0  0  0  0  0  0  0  0  0  0
  -30.2023  -14.0938   17.3672 C   0  0  0  0  0  0  0  0  0  0  0  0
  -17.8297  -23.6779   20.7109 C   0  0  0  0  0  0  0  0  0  0  0  0
  -27.2324  -18.9467   21.4003 C   0  0  0  0  0  0  0  0  0  0  0  0
  -25.6971  -20.9468   21.7877 C   0  0  0  0  0  0  0  0  0  0  0  0
  -29.7932  -25.9860   19.1205 C   0  0  0  0  0  0  0  0  0  0  0  0
  -24.2025  -29.4240   20.1680 C   0  0  0  0  0  0  0  0  0  0  0  0
  -28.5587  -26.1637   19.7739 C   0  0  0  0  0  0  0  0  0  0  0  0
  -23.6528  -29.5918   21.4470 C   0  0  0  0  0  0  0  0  0  0  0  0
  -18.8204  -23.8569   21.6629 C   0  0  0  0  0  0  0  0  0  0  0  0
  -18.0593  -21.8254   22.7012 C   0  0  0  0  0  0  0  0  0  0  0  0
  -29.3850  -17.6344   20.2058 C   0  0  0  0  0  0  0  0  0  0  0  0
  -21.6773  -28.3605   20.7461 C   0  0  0  0  0  0  0  0  0  0  0  0
  -30.2300  -15.7015   19.1704 C   0  0  0  0  0  0  0  0  0  0  0  0
  -29.8177  -13.0960   18.2628 C   0  0  0  0  0  0  0  0  0  0  0  0
  -30.4084  -15.3966   17.8210 C   0  0  0  0  0  0  0  0  0  0  0  0
  -26.1201  -19.6239   22.0171 C   0  0  0  0  0  0  0  0  0  0  0  0
  -17.1025  -21.7374   21.7029 C   0  0  0  0  0  0  0  0  0  0  0  0
  -24.6087  -21.1067   22.6100 C   0  0  0  0  0  0  0  0  0  0  0  0
  -26.2395  -21.9422   20.9098 C   0  0  0  0  0  0  0  0  0  0  0  0
  -27.0024  -28.9717   21.6031 C   0  0  0  0  0  0  0  0  0  0  0  0
  -26.3535  -31.8641   22.9205 C   0  0  0  0  0  0  0  0  0  0  0  0
  -24.0122  -34.1781   23.8207 C   0  0  0  0  0  0  0  0  0  0  0  0
  -19.8156  -19.2234   24.7607 C   0  0  0  0  0  0  0  0  0  0  0  0
  -31.0708  -26.5742   19.6648 C   0  0  0  0  0  0  0  0  0  0  0  0
  -25.5438  -30.0158   19.8316 C   0  0  0  0  0  0  0  0  0  0  0  0
  -24.3858  -30.3331   22.5341 C   0  0  0  0  0  0  0  0  0  0  0  0
  -30.8431  -27.6935   20.6775 C   0  0  0  0  0  0  0  0  0  0  0  0
  -22.8344  -18.1749   26.3306 C   0  0  0  0  0  0  0  0  0  0  0  0
  -29.7825  -27.2852   21.6950 C   0  0  0  0  0  0  0  0  0  0  0  0
  -23.9221  -18.5618   25.3270 C   0  0  0  0  0  0  0  0  0  0  0  0
  -21.5637  -17.6987   25.6301 C   0  0  0  0  0  0  0  0  0  0  0  0
  -22.1095  -19.0211   23.6234 C   0  0  0  0  0  0  0  0  0  0  0  0
  -28.4344  -27.0246   21.0123 C   0  0  1  0  0  0  0  0  0  0  0  0
  -26.4202  -30.2455   21.0590 C   0  0  1  0  0  0  0  0  0  0  0  0
  -23.3908  -19.5609   24.2817 C   0  0  2  0  0  0  0  0  0  0  0  0
  -23.7823  -36.4264   24.9115 C   0  0  0  0  0  0  0  0  0  0  0  0
  -15.2823  -20.5587   22.9848 C   0  0  0  0  0  0  0  0  0  0  0  0
  -16.8848  -19.2312   21.5684 C   0  0  0  0  0  0  0  0  0  0  0  0
  -15.1102  -20.6100   20.5049 C   0  0  0  0  0  0  0  0  0  0  0  0
  -26.8124  -30.5833   25.6516 C   0  0  0  0  0  0  0  0  0  0  0  0
  -25.6671  -32.5526   26.6900 C   0  0  0  0  0  0  0  0  0  0  0  0
  -27.7771  -32.8768   25.3996 C   0  0  0  0  0  0  0  0  0  0  0  0
  -22.8208  -35.3664   21.3861 C   0  0  0  0  0  0  0  0  0  0  0  0
  -19.7489  -25.0435   21.6048 C   0  0  0  0  0  0  0  0  0  0  0  0
  -18.1732  -20.8047   23.7803 C   0  0  0  0  0  0  0  0  0  0  0  0
  -19.2362  -26.2649   22.3709 C   0  0  0  0  0  0  0  0  0  0  0  0
  -20.2195  -27.4295   22.3783 C   0  0  0  0  0  0  0  0  0  1  0  0
  -25.6389  -32.3366   24.1635 C   0  0  1  0  0  0  0  0  0  0  0  0
  -23.9403  -35.6778   23.5971 C   0  0  2  0  0  0  0  0  0  0  0  0
  -16.1391  -20.5960   21.6824 C   0  0  0  0  0  0  0  0  0  0  0  0
  -26.4607  -32.0716   25.4565 C   0  0  0  0  0  0  0  0  0  0  0  0
  -16.9648  -22.6389   20.7048 N   0  0  0  0  0  0  0  0  0  0  0  0
  -25.3623  -18.9885   22.9149 N   0  0  0  0  0  0  0  0  0  0  0  0
  -24.4522  -19.9163   23.2570 N   0  0  0  0  0  0  0  0  0  0  0  0
  -25.6966  -30.8880   22.1580 N   0  0  0  0  0  0  0  0  0  0  0  0
  -21.1114  -18.6920   24.6531 N   0  0  0  0  0  0  0  0  0  0  0  0
  -23.7798  -22.1481   22.8356 N   0  0  0  0  0  0  0  0  0  0  0  0
  -27.3600  -21.6112   20.1356 N   0  0  0  0  0  0  0  0  0  0  0  0
  -27.7779  -28.2750   20.6961 N   0  0  0  0  0  0  0  0  0  0  0  0
  -25.3147  -33.7412   23.9388 N   0  0  0  0  0  0  0  0  0  0  0  0
  -19.4692  -20.1637   23.7981 N   0  0  0  0  0  0  0  0  0  0  0  0
  -22.7827  -36.0161   22.7216 N   0  3  0  0  0  0  0  0  0  0  0  0
  -25.7552  -23.0963   20.8267 O   0  0  0  0  0  0  0  0  0  0  0  0
  -26.7666  -28.6458   22.7607 O   0  0  0  0  0  0  0  0  0  0  0  0
  -27.4509  -32.3485   22.6328 O   0  0  0  0  0  0  0  0  0  0  0  0
  -23.0128  -33.4659   23.8879 O   0  0  0  0  0  0  0  0  0  0  0  0
  -19.0279  -18.8890   25.6521 O   0  0  0  0  0  0  0  0  0  0  0  0
  -30.4350  -16.9942   19.6226 O   0  0  0  0  0  0  0  0  0  0  0  0
  -20.4524  -27.8410   21.0319 O   0  0  0  0  0  0  0  0  0  1  0  0
  -29.6212  -11.8446   17.8274 F   0  0  0  0  0  0  0  0  0  0  0  0
  -30.7789  -16.3508   16.9561 F   0  0  0  0  0  0  0  0  0  0  0  0
  1  2  1  0  0  0  0
  1  5  2  0  0  0  0
  2  6  2  0  0  0  0
  3  8  2  0  0  0  0
  3 17  1  0  0  0  0
  4  9  1  0  0  0  0
  4 17  2  0  0  0  0
  5 19  1  0  0  0  0
  6 21  1  0  0  0  0
  7 10  2  0  0  0  0
  7 20  1  0  0  0  0
  8 25  1  0  0  0  0
  9 25  2  0  0  0  0
 10 26  1  0  0  0  0
 11 12  2  0  0  0  0
 11 27  1  0  0  0  0
 12 28  1  0  0  0  0
 13 22  1  0  0  0  0
 13 26  2  0  0  0  0
 14 23  2  0  0  0  0
 14 24  1  0  0  0  0
 15 28  2  0  0  0  0
 15 29  1  0  0  0  0
 16 23  1  0  0  0  0
 16 66  2  0  0  0  0
 17 30  1  0  0  0  0
 18 30  1  0  0  0  0
 18 32  2  0  0  0  0
 18 33  1  0  0  0  0
 19 21  2  0  0  0  0
 19 38  1  0  0  0  0
 20 22  2  0  0  0  0
 20 39  1  0  0  0  0
 21 47  1  0  0  0  0
 22 40  1  0  0  0  0
 23 58  1  0  0  0  0
 24 31  2  0  0  0  0
 24 59  1  0  0  0  0
 25 82  1  0  0  0  0
 26 83  1  0  0  0  0
 27 29  2  0  0  0  0
 27 82  1  0  0  0  0
 28 84  1  0  0  0  0
 29 85  1  0  0  0  0
 30 67  2  0  0  0  0
 31 64  1  0  0  0  0
 31 66  1  0  0  0  0
 32 68  1  0  0  0  0
 32 71  1  0  0  0  0
 33 72  1  0  0  0  0
 33 77  2  0  0  0  0
 34 48  1  0  0  0  0
 34 73  1  0  0  0  0
 34 78  2  0  0  0  0
 35 62  1  0  0  0  0
 35 69  1  0  0  0  0
 35 79  2  0  0  0  0
 36 63  1  0  0  0  0
 36 74  1  0  0  0  0
 36 80  2  0  0  0  0
 37 70  1  0  0  0  0
 37 75  1  0  0  0  0
 37 81  2  0  0  0  0
 38 41  1  0  0  0  0
 39 48  1  0  0  0  0
 40 69  1  0  0  0  0
 41 43  1  0  0  0  0
 42 44  1  0  0  0  0
 42 45  1  0  0  0  0
 43 47  1  0  0  0  0
 44 49  1  0  0  0  0
 45 70  1  0  0  0  0
 46 49  1  0  0  0  0
 46 70  1  0  0  0  0
 47 73  1  0  0  0  0
 48 69  1  0  0  0  0
 49 68  1  0  0  0  0
 50 63  1  0  0  0  0
 51 64  1  0  0  0  0
 52 64  1  0  0  0  0
 53 64  1  0  0  0  0
 54 65  1  0  0  0  0
 55 65  1  0  0  0  0
 56 65  1  0  0  0  0
 57 76  1  0  0  0  0
 58 60  1  0  0  0  0
 59 75  1  0  0  0  0
 60 61  1  0  0  0  0
 61 83  1  0  0  0  0
 62 65  1  0  0  0  0
 62 74  1  0  0  0  0
 63 76  1  0  0  0  0
 67 68  1  0  0  0  0
M  CHG  1  76   1
M  ISO  4  37 100  61 101  75 100  83 101
M  END
> <Batch ID>
0106

> <Smiles>
CNC(C)C(=O)NC(C(=O)N1Cc2cc([101O:1][101CH2:1]CCc3cnc(C(C)(C)C)c(C[100NH:0][100C:0](=O)N4CCCC(n5nc(-c6ccc(Oc7ccc(F)cc7F)cc6)c(C(N)=O)c5N)C4)c3)ccc2CC1C(=O)NC1CCCc2ccccc21)C(C)(C)C

> <Shape>
0.259

> <Color>
0.057

> <Negative vol penalty>
0.000

$$$$

  -OEChem-04052319483D

 81 88  0     1  0  0  0  0  0999 V2000
  -17.6477  -29.3000   19.5451 C   0  0  0  0  0  0  0  0  0  0  0  0
  -18.9981  -29.2310   19.2178 C   0  0  0  0  0  0  0  0  0  0  0  0
  -26.1360  -13.9151   21.1726 C   0  0  0  0  0  0  0  0  0  0  0  0
  -26.4721  -13.9954   18.7814 C   0  0  0  0  0  0  0  0  0  0  0  0
  -17.2147  -28.8861   20.8041 C   0  0  0  0  0  0  0  0  0  0  0  0
  -19.9165  -28.7489   20.1499 C   0  0  0  0  0  0  0  0  0  0  0  0
  -24.9625  -25.4769   18.9936 C   0  0  0  0  0  0  0  0  0  0  0  0
  -25.0537  -13.0541   20.9916 C   0  0  0  0  0  0  0  0  0  0  0  0
  -25.3897  -13.1343   18.6004 C   0  0  0  0  0  0  0  0  0  0  0  0
  -26.3059  -25.8326   18.8818 C   0  0  0  0  0  0  0  0  0  0  0  0
  -24.5626   -9.7689   20.3597 C   0  0  0  0  0  0  0  0  0  0  0  0
  -24.4766   -8.6522   21.1910 C   0  0  0  0  0  0  0  0  0  0  0  0
  -26.6548  -25.2167   21.1879 C   0  0  0  0  0  0  0  0  0  0  0  0
  -22.3415   -9.4285   22.0129 C   0  0  0  0  0  0  0  0  0  0  0  0
  -26.8452  -14.3858   20.0675 C   0  0  0  0  0  0  0  0  0  0  0  0
  -29.3132  -14.9190   20.4313 C   0  0  0  0  0  0  0  0  0  0  0  0
  -18.1269  -28.3898   21.7486 C   0  0  0  0  0  0  0  0  0  0  0  0
  -24.4519  -24.9979   20.2086 C   0  0  0  0  0  0  0  0  0  0  0  0
  -19.4954  -28.3293   21.4232 C   0  0  0  0  0  0  0  0  0  0  0  0
  -25.3052  -24.8532   21.3118 C   0  0  0  0  0  0  0  0  0  0  0  0
  -24.6806  -12.6636   19.7055 C   0  0  0  0  0  0  0  0  0  0  0  0
  -27.1517  -25.7053   19.9798 C   0  0  0  0  0  0  0  0  0  0  0  0
  -23.5381  -10.7155   20.3550 C   0  0  0  0  0  0  0  0  0  0  0  0
  -23.3660   -8.4819   22.0175 C   0  0  0  0  0  0  0  0  0  0  0  0
  -22.4275  -10.5453   21.1816 C   0  0  0  0  0  0  0  0  0  0  0  0
  -27.9630  -15.2757   20.2538 C   0  0  0  0  0  0  0  0  0  0  0  0
  -29.9706  -16.1177   20.5631 C   0  0  0  0  0  0  0  0  0  0  0  0
  -29.9190  -13.6202   20.4734 C   0  0  0  0  0  0  0  0  0  0  0  0
  -22.2321  -25.9905   22.2559 C   0  0  0  0  0  0  0  0  0  0  0  0
  -22.8479  -23.1507   23.6976 C   0  0  0  0  0  0  0  0  0  0  0  0
  -25.0361  -20.5866   24.2310 C   0  0  0  0  0  0  0  0  0  0  0  0
  -31.3172  -23.0341   16.8700 C   0  0  0  0  0  0  0  0  0  0  0  0
  -28.7310  -21.6734   18.7060 C   0  0  0  0  0  0  0  0  0  0  0  0
  -17.6180  -27.9985   23.1133 C   0  0  0  0  0  0  0  0  0  0  0  0
  -23.0064  -24.5933   20.3054 C   0  0  0  0  0  0  0  0  0  0  0  0
  -24.8108  -24.3248   22.6328 C   0  0  0  0  0  0  0  0  0  0  0  0
  -18.6044  -27.1493   23.9109 C   0  0  0  0  0  0  0  0  0  0  0  0
  -29.2976  -20.6128   22.0572 C   0  0  0  0  0  0  0  0  0  0  0  0
  -20.0042  -27.7516   23.8425 C   0  0  0  0  0  0  0  0  0  0  0  0
  -29.1416  -19.0925   21.9911 C   0  0  0  0  0  0  0  0  0  0  0  0
  -28.3192  -21.3217   21.1233 C   0  0  0  0  0  0  0  0  0  0  0  0
  -28.2048  -19.3456   19.6550 C   0  0  0  0  0  0  0  0  0  0  0  0
  -20.5187  -27.7891   22.3984 C   0  0  1  0  0  0  0  0  0  0  0  0
  -22.4780  -24.6021   21.7365 C   0  0  1  0  0  0  0  0  0  0  0  0
  -29.2085  -18.5847   20.5382 C   0  0  2  0  0  0  0  0  0  0  0  0
  -25.8673  -18.3699   25.0633 C   0  0  0  0  0  0  0  0  0  0  0  0
  -31.3061  -20.5988   16.2429 C   0  0  0  0  0  0  0  0  0  0  0  0
  -30.8765  -22.3211   14.4939 C   0  0  0  0  0  0  0  0  0  0  0  0
  -23.3194  -24.7063   26.2798 C   0  0  0  0  0  0  0  0  0  0  0  0
  -24.4484  -22.6765   27.2145 C   0  0  0  0  0  0  0  0  0  0  0  0
  -22.0422  -22.5750   26.5642 C   0  0  0  0  0  0  0  0  0  0  0  0
  -24.0747  -19.1855   21.8079 C   0  0  0  0  0  0  0  0  0  0  0  0
  -30.5592  -25.6298   18.7841 C   0  0  0  0  0  0  0  0  0  0  0  0
  -31.3012  -25.4368   17.4685 C   0  0  0  0  0  0  0  0  0  0  0  0
  -29.1341  -21.8639   16.2646 C   0  0  0  0  0  0  0  0  0  0  0  0
  -29.0725  -25.9038   18.5917 C   0  0  0  0  0  0  0  0  0  1  0  0
  -23.8104  -22.6776   24.7601 C   0  0  1  0  0  0  0  0  0  0  0  0
  -24.8549  -19.0804   24.1784 C   0  0  2  0  0  0  0  0  0  0  0  0
  -30.6478  -21.9653   15.9767 C   0  0  0  0  0  0  0  0  0  0  0  0
  -23.4143  -23.1707   26.1804 C   0  0  0  0  0  0  0  0  0  0  0  0
  -27.7724  -16.5976   20.2708 N   0  0  0  0  0  0  0  0  0  0  0  0
  -29.0115  -17.0820   20.4608 N   0  0  0  0  0  0  0  0  0  0  0  0
  -23.3882  -23.9486   22.6792 N   0  0  0  0  0  0  0  0  0  0  0  0
  -28.4343  -20.7950   19.7612 N   0  0  0  0  0  0  0  0  0  0  0  0
  -31.2696  -16.4305   20.7555 N   0  0  0  0  0  0  0  0  0  0  0  0
  -29.0979  -12.4947   20.3209 N   0  0  0  0  0  0  0  0  0  0  0  0
  -20.9665  -26.4757   21.9871 N   0  0  0  0  0  0  0  0  0  0  0  0
  -30.8027  -24.3172   16.7187 N   0  0  0  0  0  0  0  0  0  0  0  0
  -23.8814  -21.2263   24.6296 N   0  0  0  0  0  0  0  0  0  0  0  0
  -28.8285  -21.0913   17.4481 N   0  0  0  0  0  0  0  0  0  0  0  0
  -25.0231  -18.5869   22.7822 N   0  3  0  0  0  0  0  0  0  0  0  0
  -31.1497  -13.4619   20.6575 O   0  0  0  0  0  0  0  0  0  0  0  0
  -23.1240  -26.5774   22.8572 O   0  0  0  0  0  0  0  0  0  0  0  0
  -21.6619  -22.8184   23.7648 O   0  0  0  0  0  0  0  0  0  0  0  0
  -26.0970  -21.1402   23.9505 O   0  0  0  0  0  0  0  0  0  0  0  0
  -32.2302  -22.7598   17.6497 O   0  0  0  0  0  0  0  0  0  0  0  0
  -28.9019  -22.8857   18.8734 O   0  0  0  0  0  0  0  0  0  0  0  0
  -23.6246  -11.8233   19.5286 O   0  0  0  0  0  0  0  0  0  0  0  0
  -28.4632  -26.0524   19.8735 O   0  0  0  0  0  0  0  0  0  1  0  0
  -23.2829   -7.4087   22.8147 F   0  0  0  0  0  0  0  0  0  0  0  0
  -21.4396  -11.4507   21.1806 F   0  0  0  0  0  0  0  0  0  0  0  0
  1  2  1  0  0  0  0
  1  5  2  0  0  0  0
  2  6  2  0  0  0  0
  3  8  2  0  0  0  0
  3 15  1  0  0  0  0
  4  9  1  0  0  0  0
  4 15  2  0  0  0  0
  5 17  1  0  0  0  0
  6 19  1  0  0  0  0
  7 10  2  0  0  0  0
  7 18  1  0  0  0  0
  8 21  1  0  0  0  0
  9 21  2  0  0  0  0
 10 22  1  0  0  0  0
 11 12  2  0  0  0  0
 11 23  1  0  0  0  0
 12 24  1  0  0  0  0
 13 20  1  0  0  0  0
 13 22  2  0  0  0  0
 14 24  2  0  0  0  0
 14 25  1  0  0  0  0
 15 26  1  0  0  0  0
 16 26  1  0  0  0  0
 16 27  2  0  0  0  0
 16 28  1  0  0  0  0
 17 19  2  0  0  0  0
 17 34  1  0  0  0  0
 18 20  2  0  0  0  0
 18 35  1  0  0  0  0
 19 43  1  0  0  0  0
 20 36  1  0  0  0  0
 21 78  1  0  0  0  0
 22 79  1  0  0  0  0
 23 25  2  0  0  0  0
 23 78  1  0  0  0  0
 24 80  1  0  0  0  0
 25 81  1  0  0  0  0
 26 61  2  0  0  0  0
 27 62  1  0  0  0  0
 27 65  1  0  0  0  0
 28 66  1  0  0  0  0
 28 72  2  0  0  0  0
 29 44  1  0  0  0  0
 29 67  1  0  0  0  0
 29 73  2  0  0  0  0
 30 57  1  0  0  0  0
 30 63  1  0  0  0  0
 30 74  2  0  0  0  0
 31 58  1  0  0  0  0
 31 69  1  0  0  0  0
 31 75  2  0  0  0  0
 32 59  1  0  0  0  0
 32 68  1  0  0  0  0
 32 76  2  0  0  0  0
 33 64  1  0  0  0  0
 33 70  1  0  0  0  0
 33 77  2  0  0  0  0
 34 37  1  0  0  0  0
 35 44  1  0  0  0  0
 36 63  1  0  0  0  0
 37 39  1  0  0  0  0
 38 40  1  0  0  0  0
 38 41  1  0  0  0  0
 39 43  1  0  0  0  0
 40 45  1  0  0  0  0
 41 64  1  0  0  0  0
 42 45  1  0  0  0  0
 42 64  1  0  0  0  0
 43 67  1  0  0  0  0
 44 63  1  0  0  0  0
 45 62  1  0  0  0  0
 46 58  1  0  0  0  0
 47 59  1  0  0  0  0
 48 59  1  0  0  0  0
 49 60  1  0  0  0  0
 50 60  1  0  0  0  0
 51 60  1  0  0  0  0
 52 71  1  0  0  0  0
 53 54  1  0  0  0  0
 53 56  1  0  0  0  0
 54 68  1  0  0  0  0
 55 59  1  0  0  0  0
 55 70  1  0  0  0  0
 56 79  1  0  0  0  0
 57 60  1  0  0  0  0
 57 69  1  0  0  0  0
 58 71  1  0  0  0  0
 61 62  1  0  0  0  0
M  CHG  1  71   1
M  ISO  4  33 100  56 101  70 100  79 101
M  END
> <Batch ID>
0106

> <Smiles>
CNC(C)C(=O)NC(C(=O)N1Cc2cc([101O:1][101CH2:1]CCNC(=O)C(C)(C)C[100NH:0][100C:0](=O)N3CCCC(n4nc(-c5ccc(Oc6ccc(F)cc6F)cc5)c(C(N)=O)c4N)C3)ccc2CC1C(=O)NC1CCCc2ccccc21)C(C)(C)C

> <Shape>
0.225

> <Color>
0.069

> <Negative vol penalty>
0.000

$$$$

  -OEChem-04052319483D

 81 88  0     1  0  0  0  0  0999 V2000
  -16.1868  -29.4592   23.4820 C   0  0  0  0  0  0  0  0  0  0  0  0
  -16.9715  -28.9342   22.4602 C   0  0  0  0  0  0  0  0  0  0  0  0
  -28.2308  -13.9528   22.2577 C   0  0  0  0  0  0  0  0  0  0  0  0
  -28.2266  -14.4693   19.8976 C   0  0  0  0  0  0  0  0  0  0  0  0
  -16.7483  -30.3341   24.4111 C   0  0  0  0  0  0  0  0  0  0  0  0
  -18.3179  -29.2846   22.3663 C   0  0  0  0  0  0  0  0  0  0  0  0
  -22.9262  -25.7216   20.4757 C   0  0  0  0  0  0  0  0  0  0  0  0
  -27.3687  -12.8813   22.0248 C   0  0  0  0  0  0  0  0  0  0  0  0
  -27.3646  -13.3977   19.6646 C   0  0  0  0  0  0  0  0  0  0  0  0
  -23.5819  -25.6076   19.2506 C   0  0  0  0  0  0  0  0  0  0  0  0
  -24.8829  -10.2282   22.0988 C   0  0  0  0  0  0  0  0  0  0  0  0
  -23.7973  -10.0683   22.9599 C   0  0  0  0  0  0  0  0  0  0  0  0
  -25.3025  -27.1032   20.0392 C   0  0  0  0  0  0  0  0  0  0  0  0
  -22.9791  -12.2538   22.3343 C   0  0  0  0  0  0  0  0  0  0  0  0
  -28.6597  -14.7469   21.1941 C   0  0  0  0  0  0  0  0  0  0  0  0
  -30.9572  -15.8309   21.4263 C   0  0  0  0  0  0  0  0  0  0  0  0
  -18.1046  -30.6879   24.3343 C   0  0  0  0  0  0  0  0  0  0  0  0
  -23.4488  -26.5373   21.4895 C   0  0  0  0  0  0  0  0  0  0  0  0
  -18.8977  -30.1661   23.2945 C   0  0  0  0  0  0  0  0  0  0  0  0
  -24.6528  -27.2239   21.2772 C   0  0  0  0  0  0  0  0  0  0  0  0
  -26.9357  -12.6037   20.7283 C   0  0  0  0  0  0  0  0  0  0  0  0
  -24.7688  -26.3007   19.0312 C   0  0  0  0  0  0  0  0  0  0  0  0
  -25.0167  -11.4010   21.3556 C   0  0  0  0  0  0  0  0  0  0  0  0
  -22.8453  -11.0810   23.0776 C   0  0  0  0  0  0  0  0  0  0  0  0
  -24.0648  -12.4137   21.4733 C   0  0  0  0  0  0  0  0  0  0  0  0
  -29.5497  -15.8543   21.4342 C   0  0  0  0  0  0  0  0  0  0  0  0
  -31.3237  -17.1243   21.7079 C   0  0  0  0  0  0  0  0  0  0  0  0
  -31.8533  -14.7377   21.1860 C   0  0  0  0  0  0  0  0  0  0  0  0
  -22.4323  -29.1205   23.0379 C   0  0  0  0  0  0  0  0  0  0  0  0
  -25.1143  -28.6426   24.7989 C   0  0  0  0  0  0  0  0  0  0  0  0
  -28.2528  -27.3168   24.9960 C   0  0  0  0  0  0  0  0  0  0  0  0
  -28.5761  -22.3930   20.9717 C   0  0  0  0  0  0  0  0  0  0  0  0
  -18.6553  -31.6742   25.3336 C   0  0  0  0  0  0  0  0  0  0  0  0
  -22.7434  -26.6286   22.8149 C   0  0  0  0  0  0  0  0  0  0  0  0
  -25.2663  -28.0966   22.3404 C   0  0  0  0  0  0  0  0  0  0  0  0
  -20.1807  -31.7016   25.3852 C   0  0  0  0  0  0  0  0  0  0  0  0
  -29.8055  -21.0273   24.0213 C   0  0  0  0  0  0  0  0  0  0  0  0
  -20.7617  -31.7495   23.9756 C   0  0  0  0  0  0  0  0  0  0  0  0
  -30.0063  -19.5445   23.7034 C   0  0  0  0  0  0  0  0  0  0  0  0
  -28.5750  -21.5940   23.3165 C   0  0  0  0  0  0  0  0  0  0  0  0
  -28.7425  -19.8939   21.5401 C   0  0  0  0  0  0  0  0  0  0  0  0
  -20.3681  -30.5030   23.1740 C   0  0  1  0  0  0  0  0  0  0  0  0
  -23.0960  -27.8922   23.5935 C   0  0  1  0  0  0  0  0  0  0  0  0
  -30.0032  -19.2915   22.1838 C   0  0  2  0  0  0  0  0  0  0  0  0
  -30.4364  -26.6467   26.0354 C   0  0  0  0  0  0  0  0  0  0  0  0
  -25.8714  -31.5374   24.2018 C   0  0  0  0  0  0  0  0  0  0  0  0
  -28.2048  -31.0057   24.9370 C   0  0  0  0  0  0  0  0  0  0  0  0
  -26.3142  -30.8069   26.5522 C   0  0  0  0  0  0  0  0  0  0  0  0
  -26.9041  -26.0955   15.3463 C   0  0  0  0  0  0  0  0  0  0  0  0
  -28.9898  -25.8181   16.6885 C   0  0  0  0  0  0  0  0  0  0  0  0
  -27.1606  -24.7166   25.8933 C   0  0  0  0  0  0  0  0  0  0  0  0
  -24.9543  -22.2244   18.0616 C   0  0  0  0  0  0  0  0  0  0  0  0
  -26.8598  -21.2444   16.7930 C   0  0  0  0  0  0  0  0  0  0  0  0
  -27.1877  -24.0196   16.7143 C   0  0  0  0  0  0  0  0  0  0  0  0
  -28.6040  -23.0393   18.5757 C   0  0  0  0  0  0  0  0  0  0  0  0
  -26.8296  -26.3282   17.8446 C   0  0  0  0  0  0  0  0  0  1  0  0
  -26.5505  -29.0977   24.7043 C   0  0  1  0  0  0  0  0  0  0  0  0
  -28.9255  -26.4756   26.0657 C   0  0  2  0  0  0  0  0  0  0  0  0
  -27.1800  -23.3409   18.0978 C   0  0  2  0  0  0  0  0  0  0  0  0
  -26.7229  -30.5971   25.0779 C   0  0  0  0  0  0  0  0  0  0  0  0
  -27.4717  -25.5530   16.6779 C   0  0  0  0  0  0  0  0  0  0  0  0
  -29.0556  -17.0665   21.6998 N   0  0  0  0  0  0  0  0  0  0  0  0
  -30.1588  -17.8168   21.8616 N   0  0  0  0  0  0  0  0  0  0  0  0
  -24.5357  -28.1585   23.6171 N   0  0  0  0  0  0  0  0  0  0  0  0
  -28.6345  -21.3217   21.8783 N   0  0  0  0  0  0  0  0  0  0  0  0
  -32.5256  -17.7254   21.8365 N   0  0  0  0  0  0  0  0  0  0  0  0
  -31.3090  -13.4756   20.9116 N   0  0  0  0  0  0  0  0  0  0  0  0
  -21.1808  -29.3718   23.5670 N   0  0  0  0  0  0  0  0  0  0  0  0
  -27.3245  -28.1820   25.5354 N   0  0  0  0  0  0  0  0  0  0  0  0
  -28.6452  -22.0479   19.6275 N   0  0  0  0  0  0  0  0  0  0  0  0
  -28.6119  -25.0328   25.8634 N   0  3  0  0  0  0  0  0  0  0  0  0
  -26.4463  -22.0410   18.0003 N   0  3  0  0  0  0  0  0  0  0  0  0
  -33.0996  -14.8724   21.2300 O   0  0  0  0  0  0  0  0  0  0  0  0
  -23.0133  -29.7913   22.1929 O   0  0  0  0  0  0  0  0  0  0  0  0
  -24.5296  -28.7073   25.8831 O   0  0  0  0  0  0  0  0  0  0  0  0
  -28.5262  -27.2190   23.8018 O   0  0  0  0  0  0  0  0  0  0  0  0
  -28.4756  -23.5703   21.3335 O   0  0  0  0  0  0  0  0  0  0  0  0
  -26.0947  -11.5580   20.5006 O   0  0  0  0  0  0  0  0  0  0  0  0
  -25.4152  -26.1909   17.8275 O   0  0  0  0  0  0  0  0  0  1  0  0
  -21.8020  -10.9266   23.9033 F   0  0  0  0  0  0  0  0  0  0  0  0
  -24.1874  -13.5422   20.7609 F   0  0  0  0  0  0  0  0  0  0  0  0
  1  2  1  0  0  0  0
  1  5  2  0  0  0  0
  2  6  2  0  0  0  0
  3  8  2  0  0  0  0
  3 15  1  0  0  0  0
  4  9  1  0  0  0  0
  4 15  2  0  0  0  0
  5 17  1  0  0  0  0
  6 19  1  0  0  0  0
  7 10  2  0  0  0  0
  7 18  1  0  0  0  0
  8 21  1  0  0  0  0
  9 21  2  0  0  0  0
 10 22  1  0  0  0  0
 11 12  2  0  0  0  0
 11 23  1  0  0  0  0
 12 24  1  0  0  0  0
 13 20  1  0  0  0  0
 13 22  2  0  0  0  0
 14 24  2  0  0  0  0
 14 25  1  0  0  0  0
 15 26  1  0  0  0  0
 16 26  1  0  0  0  0
 16 27  2  0  0  0  0
 16 28  1  0  0  0  0
 17 19  2  0  0  0  0
 17 33  1  0  0  0  0
 18 20  2  0  0  0  0
 18 34  1  0  0  0  0
 19 42  1  0  0  0  0
 20 35  1  0  0  0  0
 21 78  1  0  0  0  0
 22 79  1  0  0  0  0
 23 25  2  0  0  0  0
 23 78  1  0  0  0  0
 24 80  1  0  0  0  0
 25 81  1  0  0  0  0
 26 62  2  0  0  0  0
 27 63  1  0  0  0  0
 27 66  1  0  0  0  0
 28 67  1  0  0  0  0
 28 73  2  0  0  0  0
 29 43  1  0  0  0  0
 29 68  1  0  0  0  0
 29 74  2  0  0  0  0
 30 57  1  0  0  0  0
 30 64  1  0  0  0  0
 30 75  2  0  0  0  0
 31 58  1  0  0  0  0
 31 69  1  0  0  0  0
 31 76  2  0  0  0  0
 32 65  1  0  0  0  0
 32 70  1  0  0  0  0
 32 77  2  0  0  0  0
 33 36  1  0  0  0  0
 34 43  1  0  0  0  0
 35 64  1  0  0  0  0
 36 38  1  0  0  0  0
 37 39  1  0  0  0  0
 37 40  1  0  0  0  0
 38 42  1  0  0  0  0
 39 44  1  0  0  0  0
 40 65  1  0  0  0  0
 41 44  1  0  0  0  0
 41 65  1  0  0  0  0
 42 68  1  0  0  0  0
 43 64  1  0  0  0  0
 44 63  1  0  0  0  0
 45 58  1  0  0  0  0
 46 60  1  0  0  0  0
 47 60  1  0  0  0  0
 48 60  1  0  0  0  0
 49 61  1  0  0  0  0
 50 61  1  0  0  0  0
 51 71  1  0  0  0  0
 52 72  1  0  0  0  0
 53 72  1  0  0  0  0
 54 59  1  0  0  0  0
 54 61  1  0  0  0  0
 55 59  1  0  0  0  0
 55 70  1  0  0  0  0
 56 61  1  0  0  0  0
 56 79  1  0  0  0  0
 57 60  1  0  0  0  0
 57 69  1  0  0  0  0
 58 71  1  0  0  0  0
 59 72  1  0  0  0  0
 62 63  1  0  0  0  0
M  CHG  2  71   1  72   1
M  ISO  4  32 100  56 101  70 100  79 101
M  END
> <Batch ID>
0106

> <Smiles>
CNC(C)C(=O)NC(C(=O)N1Cc2cc([101O:1][101CH2:1]C(C)(C)CC(C[100NH:0][100C:0](=O)N3CCCC(n4nc(-c5ccc(Oc6ccc(F)cc6F)cc5)c(C(N)=O)c4N)C3)N(C)C)ccc2CC1C(=O)NC1CCCc2ccccc21)C(C)(C)C

> <Shape>
0.251

> <Color>
0.054

> <Negative vol penalty>
0.000

$$$$

  -OEChem-04052319483D

 84 92  0     1  0  0  0  0  0999 V2000
  -23.0479  -21.4889   17.0153 C   0  0  0  0  0  0  0  0  0  0  0  0
  -22.7562  -22.4639   17.9638 C   0  0  0  0  0  0  0  0  0  0  0  0
  -24.2573  -17.4740   22.5575 C   0  0  0  0  0  0  0  0  0  0  0  0
  -24.6762  -18.6393   20.4830 C   0  0  0  0  0  0  0  0  0  0  0  0
  -24.3533  -21.0182   16.8800 C   0  0  0  0  0  0  0  0  0  0  0  0
  -23.7696  -22.9680   18.7783 C   0  0  0  0  0  0  0  0  0  0  0  0
  -23.6041  -28.0128   19.1880 C   0  0  0  0  0  0  0  0  0  0  0  0
  -24.9224  -16.3526   22.0619 C   0  0  0  0  0  0  0  0  0  0  0  0
  -25.3414  -17.5179   19.9873 C   0  0  0  0  0  0  0  0  0  0  0  0
  -22.6516  -28.5505   20.0526 C   0  0  0  0  0  0  0  0  0  0  0  0
  -26.1978  -13.0561   21.2072 C   0  0  0  0  0  0  0  0  0  0  0  0
  -25.6051  -11.8090   21.4042 C   0  0  0  0  0  0  0  0  0  0  0  0
  -24.3533  -28.8393   21.7379 C   0  0  0  0  0  0  0  0  0  0  0  0
  -20.0340  -27.2081   23.2669 C   0  0  0  0  0  0  0  0  0  0  0  0
  -23.6638  -12.5357   20.1630 C   0  0  0  0  0  0  0  0  0  0  0  0
  -17.8014  -28.4916   22.3647 C   0  0  0  0  0  0  0  0  0  0  0  0
  -24.1342  -18.6174   21.7680 C   0  0  0  0  0  0  0  0  0  0  0  0
  -24.0079  -20.8500   22.9957 C   0  0  0  0  0  0  0  0  0  0  0  0
  -25.3850  -21.5237   17.6866 C   0  0  0  0  0  0  0  0  0  0  0  0
  -24.9384  -27.8740   19.5965 C   0  0  0  0  0  0  0  0  0  0  0  0
  -25.0897  -22.5026   18.6545 C   0  0  0  0  0  0  0  0  0  0  0  0
  -25.3212  -28.3019   20.8757 C   0  0  0  0  0  0  0  0  0  0  0  0
  -19.8774  -28.5657   23.5229 C   0  0  0  0  0  0  0  0  0  0  0  0
  -18.7427  -29.2272   23.0666 C   0  0  0  0  0  0  0  0  0  0  0  0
  -25.4645  -16.3745   20.7768 C   0  0  0  0  0  0  0  0  0  0  0  0
  -23.0255  -28.9611   21.3287 C   0  0  0  0  0  0  0  0  0  0  0  0
  -25.5236  -14.0431   20.4882 C   0  0  0  0  0  0  0  0  0  0  0  0
  -24.3381  -11.5487   20.8820 C   0  0  0  0  0  0  0  0  0  0  0  0
  -24.2566  -13.7829   19.9661 C   0  0  0  0  0  0  0  0  0  0  0  0
  -23.4467  -19.7759   22.2793 C   0  0  0  0  0  0  0  0  0  0  0  0
  -19.0348  -26.5628   22.5561 C   0  0  0  0  0  0  0  0  0  0  0  0
  -22.9472  -21.6848   23.2495 C   0  0  0  0  0  0  0  0  0  0  0  0
  -25.3664  -21.0731   23.3959 C   0  0  0  0  0  0  0  0  0  0  0  0
  -26.9176  -25.4193   19.9978 C   0  0  0  0  0  0  0  0  0  0  0  0
  -29.0929  -27.7643   20.5378 C   0  0  0  0  0  0  0  0  0  0  0  0
  -29.7061  -30.9846   21.4866 C   0  0  0  0  0  0  0  0  0  0  0  0
  -18.3341  -24.3363   21.6086 C   0  0  0  0  0  0  0  0  0  0  0  0
  -26.7716  -20.9499   17.5360 C   0  0  0  0  0  0  0  0  0  0  0  0
  -25.9591  -27.3167   18.6425 C   0  0  0  0  0  0  0  0  0  0  0  0
  -26.7448  -28.1931   21.3553 C   0  0  0  0  0  0  0  0  0  0  0  0
  -27.8584  -21.8057   18.1817 C   0  0  0  0  0  0  0  0  0  0  0  0
  -17.9713  -20.9576   22.6719 C   0  0  0  0  0  0  0  0  0  0  0  0
  -27.4373  -22.2349   19.5836 C   0  0  0  0  0  0  0  0  0  0  0  0
  -19.4096  -20.4374   22.7235 C   0  0  0  0  0  0  0  0  0  0  0  0
  -17.7582  -21.9211   21.5057 C   0  0  0  0  0  0  0  0  0  0  0  0
  -20.1486  -22.5170   21.4922 C   0  0  0  0  0  0  0  0  0  0  0  0
  -26.1664  -23.0920   19.5397 C   0  0  1  0  0  0  0  0  0  0  0  0
  -27.1864  -26.7465   19.3466 C   0  0  1  0  0  0  0  0  0  0  0  0
  -20.4286  -21.5933   22.6888 C   0  0  2  0  0  0  0  0  0  0  0  0
  -21.0963  -28.7393   25.7174 C   0  0  0  0  0  0  0  0  0  0  0  0
  -31.5867  -32.6020   21.8671 C   0  0  0  0  0  0  0  0  0  0  0  0
  -17.5799  -32.5104   24.8157 C   0  0  0  0  0  0  0  0  0  0  0  0
  -16.4056  -30.3070   24.6432 C   0  0  0  0  0  0  0  0  0  0  0  0
  -29.7544  -26.3720   23.1710 C   0  0  0  0  0  0  0  0  0  0  0  0
  -30.8926  -28.4738   23.9159 C   0  0  0  0  0  0  0  0  0  0  0  0
  -31.7400  -27.2383   21.9214 C   0  0  0  0  0  0  0  0  0  0  0  0
  -28.6943  -32.8300   19.4058 C   0  0  0  0  0  0  0  0  0  0  0  0
  -18.5250  -30.6800   23.3129 C   0  0  0  0  0  0  0  0  0  0  0  0
  -22.3056  -29.2844   23.5722 C   0  0  0  0  0  0  0  0  0  1  0  0
  -20.9551  -29.3041   24.3011 C   0  0  1  0  0  0  0  0  0  0  0  0
  -29.5684  -28.5221   21.7538 C   0  0  1  0  0  0  0  0  0  0  0  0
  -30.5701  -32.0695   20.8693 C   0  0  2  0  0  0  0  0  0  0  0  0
  -17.7687  -31.0032   24.6260 C   0  0  0  0  0  0  0  0  0  0  0  0
  -30.4615  -27.6519   22.6825 C   0  0  0  0  0  0  0  0  0  0  0  0
  -17.9186  -27.1718   22.0967 N   0  0  0  0  0  0  0  0  0  0  0  0
  -22.1316  -19.9132   22.0903 N   0  0  0  0  0  0  0  0  0  0  0  0
  -21.8576  -21.0833   22.6917 N   0  0  0  0  0  0  0  0  0  0  0  0
  -27.7047  -27.6359   20.3880 N   0  0  0  0  0  0  0  0  0  0  0  0
  -18.7568  -22.9918   21.5402 N   0  0  0  0  0  0  0  0  0  0  0  0
  -22.8495  -22.8674   23.8933 N   0  0  0  0  0  0  0  0  0  0  0  0
  -26.3300  -20.1149   23.0530 N   0  0  0  0  0  0  0  0  0  0  0  0
  -19.2040  -25.1797   22.2987 N   0  0  0  0  0  0  0  0  0  0  0  0
  -26.4813  -24.4419   19.1239 N   0  0  0  0  0  0  0  0  0  0  0  0
  -30.2217  -29.7271   21.2542 N   0  0  0  0  0  0  0  0  0  0  0  0
  -29.7237  -33.2063   20.4087 N   0  3  0  0  0  0  0  0  0  0  0  0
  -25.7127  -22.0842   24.0528 O   0  0  0  0  0  0  0  0  0  0  0  0
  -27.0945  -25.2911   21.2036 O   0  0  0  0  0  0  0  0  0  0  0  0
  -29.9223  -27.3095   19.7461 O   0  0  0  0  0  0  0  0  0  0  0  0
  -28.6788  -31.2286   22.1156 O   0  0  0  0  0  0  0  0  0  0  0  0
  -17.2650  -24.7062   21.1166 O   0  0  0  0  0  0  0  0  0  0  0  0
  -26.1138  -15.2805   20.2929 O   0  0  0  0  0  0  0  0  0  0  0  0
  -22.0978  -29.4857   22.1748 O   0  0  0  0  0  0  0  0  0  1  0  0
  -23.7696  -10.3505   21.0699 F   0  0  0  0  0  0  0  0  0  0  0  0
  -23.6044  -14.7267   19.2735 F   0  0  0  0  0  0  0  0  0  0  0  0
  1  2  1  0  0  0  0
  1  5  2  0  0  0  0
  2  6  2  0  0  0  0
  3  8  2  0  0  0  0
  3 17  1  0  0  0  0
  4  9  1  0  0  0  0
  4 17  2  0  0  0  0
  5 19  1  0  0  0  0
  6 21  1  0  0  0  0
  7 10  2  0  0  0  0
  7 20  1  0  0  0  0
  8 25  1  0  0  0  0
  9 25  2  0  0  0  0
 10 26  1  0  0  0  0
 11 12  2  0  0  0  0
 11 27  1  0  0  0  0
 12 28  1  0  0  0  0
 13 22  1  0  0  0  0
 13 26  2  0  0  0  0
 14 23  1  0  0  0  0
 14 31  2  0  0  0  0
 15 28  2  0  0  0  0
 15 29  1  0  0  0  0
 16 24  1  0  0  0  0
 16 65  2  0  0  0  0
 17 30  1  0  0  0  0
 18 30  1  0  0  0  0
 18 32  2  0  0  0  0
 18 33  1  0  0  0  0
 19 21  2  0  0  0  0
 19 38  1  0  0  0  0
 20 22  2  0  0  0  0
 20 39  1  0  0  0  0
 21 47  1  0  0  0  0
 22 40  1  0  0  0  0
 23 24  2  0  0  0  0
 23 60  1  0  0  0  0
 24 58  1  0  0  0  0
 25 81  1  0  0  0  0
 26 82  1  0  0  0  0
 27 29  2  0  0  0  0
 27 81  1  0  0  0  0
 28 83  1  0  0  0  0
 29 84  1  0  0  0  0
 30 66  2  0  0  0  0
 31 65  1  0  0  0  0
 31 72  1  0  0  0  0
 32 67  1  0  0  0  0
 32 70  1  0  0  0  0
 33 71  1  0  0  0  0
 33 76  2  0  0  0  0
 34 48  1  0  0  0  0
 34 73  1  0  0  0  0
 34 77  2  0  0  0  0
 35 61  1  0  0  0  0
 35 68  1  0  0  0  0
 35 78  2  0  0  0  0
 36 62  1  0  0  0  0
 36 74  1  0  0  0  0
 36 79  2  0  0  0  0
 37 69  1  0  0  0  0
 37 72  1  0  0  0  0
 37 80  2  0  0  0  0
 38 41  1  0  0  0  0
 39 48  1  0  0  0  0
 40 68  1  0  0  0  0
 41 43  1  0  0  0  0
 42 44  1  0  0  0  0
 42 45  1  0  0  0  0
 43 47  1  0  0  0  0
 44 49  1  0  0  0  0
 45 69  1  0  0  0  0
 46 49  1  0  0  0  0
 46 69  1  0  0  0  0
 47 73  1  0  0  0  0
 48 68  1  0  0  0  0
 49 67  1  0  0  0  0
 50 60  1  0  0  0  0
 51 62  1  0  0  0  0
 52 63  1  0  0  0  0
 53 63  1  0  0  0  0
 54 64  1  0  0  0  0
 55 64  1  0  0  0  0
 56 64  1  0  0  0  0
 57 75  1  0  0  0  0
 58 63  1  0  0  0  0
 59 60  1  0  0  0  0
 59 82  1  0  0  0  0
 61 64  1  0  0  0  0
 61 74  1  0  0  0  0
 62 75  1  0  0  0  0
 66 67  1  0  0  0  0
M  CHG  1  75   1
M  ISO  4  37 100  59 101  72 100  82 101
M  END
> <Batch ID>
0106

> <Smiles>
CNC(C)C(=O)NC(C(=O)N1Cc2cc([101O:1][101CH2:1]C(C)c3cc([100NH:0][100C:0](=O)N4CCCC(n5nc(-c6ccc(Oc7ccc(F)cc7F)cc6)c(C(N)=O)c5N)C4)ncc3CC(C)C)ccc2CC1C(=O)NC1CCCc2ccccc21)C(C)(C)C

> <Shape>
0.190

> <Color>
0.056

> <Negative vol penalty>
0.000

$$$$

  -OEChem-04052319483D

 85 93  0     1  0  0  0  0  0999 V2000
  -34.3757  -20.8674   28.3747 C   0  0  0  0  0  0  0  0  0  0  0  0
  -33.6310  -20.7972   27.2018 C   0  0  0  0  0  0  0  0  0  0  0  0
  -23.0131   -9.8583   20.0027 C   0  0  0  0  0  0  0  0  0  0  0  0
  -23.7242   -9.9668   22.3091 C   0  0  0  0  0  0  0  0  0  0  0  0
  -33.8302  -21.4639   29.5108 C   0  0  0  0  0  0  0  0  0  0  0  0
  -32.3399  -21.3226   27.1644 C   0  0  0  0  0  0  0  0  0  0  0  0
  -31.4721  -24.0495   22.9864 C   0  0  0  0  0  0  0  0  0  0  0  0
  -22.2548   -8.7234   20.2898 C   0  0  0  0  0  0  0  0  0  0  0  0
  -22.9659   -8.8319   22.5963 C   0  0  0  0  0  0  0  0  0  0  0  0
  -31.2126  -23.3473   21.8103 C   0  0  0  0  0  0  0  0  0  0  0  0
  -23.2418   -5.4855   22.2002 C   0  0  0  0  0  0  0  0  0  0  0  0
  -23.8336   -4.4905   22.9781 C   0  0  0  0  0  0  0  0  0  0  0  0
  -28.8502  -23.7348   22.1073 C   0  0  0  0  0  0  0  0  0  0  0  0
  -31.4456  -18.4622   19.8577 C   0  0  0  0  0  0  0  0  0  0  0  0
  -22.0978   -4.7554   24.6376 C   0  0  0  0  0  0  0  0  0  0  0  0
  -29.3698  -18.7272   20.6888 C   0  0  0  0  0  0  0  0  0  0  0  0
  -23.7478  -10.4800   21.0123 C   0  0  0  0  0  0  0  0  0  0  0  0
  -24.1125  -12.9944   20.7826 C   0  0  0  0  0  0  0  0  0  0  0  0
  -32.5354  -22.0055   29.4845 C   0  0  0  0  0  0  0  0  0  0  0  0
  -30.4200  -24.5912   23.7389 C   0  0  0  0  0  0  0  0  0  0  0  0
  -31.7760  -21.9257   28.3016 C   0  0  0  0  0  0  0  0  0  0  0  0
  -29.0992  -24.4456   23.2913 C   0  0  0  0  0  0  0  0  0  0  0  0
  -30.5259  -17.9913   20.8270 C   0  0  0  0  0  0  0  0  0  0  0  0
  -22.2312   -8.2101   21.5866 C   0  0  0  0  0  0  0  0  0  0  0  0
  -29.9013  -23.1874   21.3720 C   0  0  0  0  0  0  0  0  0  0  0  0
  -22.0780   -6.1156   22.6410 C   0  0  0  0  0  0  0  0  0  0  0  0
  -23.2616   -4.1254   24.1968 C   0  0  0  0  0  0  0  0  0  0  0  0
  -21.5060   -5.7506   23.8597 C   0  0  0  0  0  0  0  0  0  0  0  0
  -24.5318  -11.6522   20.7162 C   0  0  0  0  0  0  0  0  0  0  0  0
  -30.8235  -19.4717   19.1567 C   0  0  0  0  0  0  0  0  0  0  0  0
  -25.2181  -13.7184   20.4085 C   0  0  0  0  0  0  0  0  0  0  0  0
  -22.8376  -13.5381   21.1496 C   0  0  0  0  0  0  0  0  0  0  0  0
  -29.3048  -24.1443   26.6817 C   0  0  0  0  0  0  0  0  0  0  0  0
  -27.3782  -26.6375   25.9108 C   0  0  0  0  0  0  0  0  0  0  0  0
  -25.8616  -28.4809   23.4718 C   0  0  0  0  0  0  0  0  0  0  0  0
  -30.7046  -14.7064   20.6677 C   0  0  0  0  0  0  0  0  0  0  0  0
  -31.9706  -22.5982   30.7512 C   0  0  0  0  0  0  0  0  0  0  0  0
  -30.7186  -25.3689   24.9913 C   0  0  0  0  0  0  0  0  0  0  0  0
  -27.9357  -25.0253   24.0519 C   0  0  0  0  0  0  0  0  0  0  0  0
  -30.7358  -23.4654   30.5201 C   0  0  0  0  0  0  0  0  0  0  0  0
  -29.5988  -12.2213   18.3702 C   0  0  0  0  0  0  0  0  0  0  0  0
  -29.7538  -22.7592   29.5906 C   0  0  0  0  0  0  0  0  0  0  0  0
  -28.1502  -11.9582   18.7852 C   0  0  0  0  0  0  0  0  0  0  0  0
  -30.4920  -12.4914   19.5791 C   0  0  0  0  0  0  0  0  0  0  0  0
  -28.5672  -13.2997   20.8889 C   0  0  0  0  0  0  0  0  0  0  0  0
  -30.3813  -22.5064   28.2145 C   0  0  1  0  0  0  0  0  0  0  0  0
  -29.5334  -25.4363   25.9495 C   0  0  1  0  0  0  0  0  0  0  0  0
  -27.6168  -13.0773   19.6998 C   0  0  2  0  0  0  0  0  0  0  0  0
  -24.3177  -30.4330   23.1509 C   0  0  0  0  0  0  0  0  0  0  0  0
  -31.6879  -22.8343   17.2624 C   0  0  0  0  0  0  0  0  0  0  0  0
  -31.9840  -22.2369   19.6639 C   0  0  0  0  0  0  0  0  0  0  0  0
  -32.8029  -19.9838   17.5818 C   0  0  0  0  0  0  0  0  0  0  0  0
  -30.4761  -20.0297   16.7435 C   0  0  0  0  0  0  0  0  0  0  0  0
  -25.0078  -24.8916   26.7128 C   0  0  0  0  0  0  0  0  0  0  0  0
  -23.5096  -26.4907   25.5019 C   0  0  0  0  0  0  0  0  0  0  0  0
  -24.8474  -27.2740   27.4563 C   0  0  0  0  0  0  0  0  0  0  0  0
  -27.9112  -30.0046   21.9764 C   0  0  0  0  0  0  0  0  0  0  0  0
  -30.7615  -16.9117   21.8045 C   0  0  0  0  0  0  0  0  0  0  0  0
  -28.5302  -20.6204   19.2007 C   0  0  0  0  0  0  0  0  0  0  0  0
  -28.3998  -21.8098   20.1459 C   0  0  0  0  0  0  0  0  0  1  0  0
  -26.0184  -26.7798   25.2707 C   0  0  1  0  0  0  0  0  0  0  0  0
  -25.7658  -29.9803   23.2552 C   0  0  2  0  0  0  0  0  0  0  0  0
  -31.2360  -21.8705   18.3709 C   0  0  0  0  0  0  0  0  0  0  0  0
  -31.3263  -20.3011   18.0420 C   0  0  0  0  0  0  0  0  0  0  0  0
  -24.8674  -26.3463   26.2219 C   0  0  0  0  0  0  0  0  0  0  0  0
  -25.8044  -11.5280   20.3302 N   0  0  0  0  0  0  0  0  0  0  0  0
  -29.5622  -19.6242   19.6707 N   0  0  0  0  0  0  0  0  0  0  0  0
  -26.1943  -12.8015   20.1506 N   0  0  0  0  0  0  0  0  0  0  0  0
  -28.2785  -25.7719   25.2737 N   0  0  0  0  0  0  0  0  0  0  0  0
  -29.9310  -13.5639   20.4042 N   0  0  0  0  0  0  0  0  0  0  0  0
  -25.4407  -15.0435   20.2783 N   0  0  0  0  0  0  0  0  0  0  0  0
  -21.8114  -12.6528   21.5068 N   0  0  0  0  0  0  0  0  0  0  0  0
  -30.3870  -23.7228   27.4305 N   0  0  0  0  0  0  0  0  0  0  0  0
  -25.9259  -28.1615   24.8116 N   0  0  0  0  0  0  0  0  0  0  0  0
  -30.0952  -15.6776   21.4525 N   0  0  0  0  0  0  0  0  0  0  0  0
  -26.4711  -30.3686   22.0012 N   0  3  0  0  0  0  0  0  0  0  0  0
  -22.6101  -14.7717   21.1446 O   0  0  0  0  0  0  0  0  0  0  0  0
  -28.2259  -23.5729   26.5764 O   0  0  0  0  0  0  0  0  0  0  0  0
  -27.6346  -27.2765   26.9343 O   0  0  0  0  0  0  0  0  0  0  0  0
  -25.8741  -27.6735   22.5453 O   0  0  0  0  0  0  0  0  0  0  0  0
  -31.8513  -14.8525   20.2310 O   0  0  0  0  0  0  0  0  0  0  0  0
  -21.4912   -7.1028   21.8672 O   0  0  0  0  0  0  0  0  0  0  0  0
  -29.6452  -22.5019   20.2247 O   0  0  0  0  0  0  0  0  0  1  0  0
  -23.8292   -3.1687   24.9430 F   0  0  0  0  0  0  0  0  0  0  0  0
  -20.3873   -6.3515   24.2879 F   0  0  0  0  0  0  0  0  0  0  0  0
  1  2  1  0  0  0  0
  1  5  2  0  0  0  0
  2  6  2  0  0  0  0
  3  8  2  0  0  0  0
  3 17  1  0  0  0  0
  4  9  1  0  0  0  0
  4 17  2  0  0  0  0
  5 19  1  0  0  0  0
  6 21  1  0  0  0  0
  7 10  2  0  0  0  0
  7 20  1  0  0  0  0
  8 24  1  0  0  0  0
  9 24  2  0  0  0  0
 10 25  1  0  0  0  0
 11 12  2  0  0  0  0
 11 26  1  0  0  0  0
 12 27  1  0  0  0  0
 13 22  1  0  0  0  0
 13 25  2  0  0  0  0
 14 23  1  0  0  0  0
 14 30  2  0  0  0  0
 15 27  2  0  0  0  0
 15 28  1  0  0  0  0
 16 23  2  0  0  0  0
 16 67  1  0  0  0  0
 17 29  1  0  0  0  0
 18 29  1  0  0  0  0
 18 31  2  0  0  0  0
 18 32  1  0  0  0  0
 19 21  2  0  0  0  0
 19 37  1  0  0  0  0
 20 22  2  0  0  0  0
 20 38  1  0  0  0  0
 21 46  1  0  0  0  0
 22 39  1  0  0  0  0
 23 58  1  0  0  0  0
 24 82  1  0  0  0  0
 25 83  1  0  0  0  0
 26 28  2  0  0  0  0
 26 82  1  0  0  0  0
 27 84  1  0  0  0  0
 28 85  1  0  0  0  0
 29 66  2  0  0  0  0
 30 64  1  0  0  0  0
 30 67  1  0  0  0  0
 31 68  1  0  0  0  0
 31 71  1  0  0  0  0
 32 72  1  0  0  0  0
 32 77  2  0  0  0  0
 33 47  1  0  0  0  0
 33 73  1  0  0  0  0
 33 78  2  0  0  0  0
 34 61  1  0  0  0  0
 34 69  1  0  0  0  0
 34 79  2  0  0  0  0
 35 62  1  0  0  0  0
 35 74  1  0  0  0  0
 35 80  2  0  0  0  0
 36 70  1  0  0  0  0
 36 75  1  0  0  0  0
 36 81  2  0  0  0  0
 37 40  1  0  0  0  0
 38 47  1  0  0  0  0
 39 69  1  0  0  0  0
 40 42  1  0  0  0  0
 41 43  1  0  0  0  0
 41 44  1  0  0  0  0
 42 46  1  0  0  0  0
 43 48  1  0  0  0  0
 44 70  1  0  0  0  0
 45 48  1  0  0  0  0
 45 70  1  0  0  0  0
 46 73  1  0  0  0  0
 47 69  1  0  0  0  0
 48 68  1  0  0  0  0
 49 62  1  0  0  0  0
 50 63  1  0  0  0  0
 51 63  1  0  0  0  0
 52 64  1  0  0  0  0
 53 64  1  0  0  0  0
 54 65  1  0  0  0  0
 55 65  1  0  0  0  0
 56 65  1  0  0  0  0
 57 76  1  0  0  0  0
 58 75  1  0  0  0  0
 59 60  1  0  0  0  0
 59 67  1  0  0  0  0
 60 83  1  0  0  0  0
 61 65  1  0  0  0  0
 61 74  1  0  0  0  0
 62 76  1  0  0  0  0
 63 64  1  0  0  0  0
 66 68  1  0  0  0  0
M  CHG  1  76   1
M  ISO  4  36 100  60 101  75 100  83 101
M  END
> <Batch ID>
0106

> <Smiles>
CNC(C)C(=O)NC(C(=O)N1Cc2cc([101O:1][101CH2:1]Cn3cc(C[100NH:0][100C:0](=O)N4CCCC(n5nc(-c6ccc(Oc7ccc(F)cc7F)cc6)c(C(N)=O)c5N)C4)cc3C(C)(C)C(C)C)ccc2CC1C(=O)NC1CCCc2ccccc21)C(C)(C)C

> <Shape>
0.248

> <Color>
0.199

> <Negative vol penalty>
0.000

$$$$

  -OEChem-04052319483D

 78 86  0     1  0  0  0  0  0999 V2000
  -30.8482  -33.6991   22.0657 C   0  0  0  0  0  0  0  0  0  0  0  0
  -30.4989  -32.3525   22.0588 C   0  0  0  0  0  0  0  0  0  0  0  0
  -26.3415  -13.8299   19.3135 C   0  0  0  0  0  0  0  0  0  0  0  0
  -26.4626  -13.1706   21.6346 C   0  0  0  0  0  0  0  0  0  0  0  0
  -29.9555  -34.6471   22.5638 C   0  0  0  0  0  0  0  0  0  0  0  0
  -29.2569  -31.9530   22.5511 C   0  0  0  0  0  0  0  0  0  0  0  0
  -26.9658  -28.5857   19.5416 C   0  0  0  0  0  0  0  0  0  0  0  0
  -25.0570  -13.2930   19.2279 C   0  0  0  0  0  0  0  0  0  0  0  0
  -25.1780  -12.6337   21.5491 C   0  0  0  0  0  0  0  0  0  0  0  0
  -27.4093  -27.2656   19.6096 C   0  0  0  0  0  0  0  0  0  0  0  0
  -23.7278   -9.8205   20.3602 C   0  0  0  0  0  0  0  0  0  0  0  0
  -23.5127   -8.5619   20.9217 C   0  0  0  0  0  0  0  0  0  0  0  0
  -25.5377  -26.7164   21.0290 C   0  0  0  0  0  0  0  0  0  0  0  0
  -21.8573   -9.5071   22.4061 C   0  0  0  0  0  0  0  0  0  0  0  0
  -27.0443  -13.7687   20.5168 C   0  0  0  0  0  0  0  0  0  0  0  0
  -29.5020  -13.9456   19.8563 C   0  0  0  0  0  0  0  0  0  0  0  0
  -28.6981  -34.2601   23.0536 C   0  0  0  0  0  0  0  0  0  0  0  0
  -25.8090  -28.9842   20.2268 C   0  0  0  0  0  0  0  0  0  0  0  0
  -28.3470  -32.8967   23.0575 C   0  0  0  0  0  0  0  0  0  0  0  0
  -25.0802  -28.0415   20.9660 C   0  0  0  0  0  0  0  0  0  0  0  0
  -24.4752  -12.6949   20.3457 C   0  0  0  0  0  0  0  0  0  0  0  0
  -26.6968  -26.3314   20.3558 C   0  0  0  0  0  0  0  0  0  0  0  0
  -23.0076  -10.9224   20.8217 C   0  0  0  0  0  0  0  0  0  0  0  0
  -22.5774   -8.4052   21.9446 C   0  0  0  0  0  0  0  0  0  0  0  0
  -22.0724  -10.7657   21.8446 C   0  0  0  0  0  0  0  0  0  0  0  0
  -28.3715  -14.3226   20.6057 C   0  0  0  0  0  0  0  0  0  0  0  0
  -30.5054  -14.7650   20.3126 C   0  0  0  0  0  0  0  0  0  0  0  0
  -29.6333  -12.9442   18.8386 C   0  0  0  0  0  0  0  0  0  0  0  0
  -25.1818  -31.0584   22.5523 C   0  0  0  0  0  0  0  0  0  0  0  0
  -22.1059  -30.2527   21.9106 C   0  0  0  0  0  0  0  0  0  0  0  0
  -19.9138  -27.9607   20.6504 C   0  0  0  0  0  0  0  0  0  0  0  0
  -30.4999  -20.1612   22.9071 C   0  0  0  0  0  0  0  0  0  0  0  0
  -27.7855  -35.3159   23.6255 C   0  0  0  0  0  0  0  0  0  0  0  0
  -25.3291  -30.4058   20.1216 C   0  0  0  0  0  0  0  0  0  0  0  0
  -23.8209  -28.4139   21.7034 C   0  0  0  0  0  0  0  0  0  0  0  0
  -26.3401  -34.8511   23.7834 C   0  0  0  0  0  0  0  0  0  0  0  0
  -30.1436  -23.2786   19.0266 C   0  0  0  0  0  0  0  0  0  0  0  0
  -31.9018  -17.1598   24.2121 C   0  0  0  0  0  0  0  0  0  0  0  0
  -26.2908  -33.4711   24.4314 C   0  0  0  0  0  0  0  0  0  0  0  0
  -31.2580  -16.0583   23.3682 C   0  0  0  0  0  0  0  0  0  0  0  0
  -30.0962  -21.9031   19.6928 C   0  0  0  0  0  0  0  0  0  0  0  0
  -28.8341  -22.7254   21.7940 C   0  0  0  0  0  0  0  0  0  0  0  0
  -28.7967  -23.9910   19.0630 C   0  0  0  0  0  0  0  0  0  0  0  0
  -29.0279  -24.2355   21.6424 C   0  0  0  0  0  0  0  0  0  0  0  0
  -30.9267  -18.3022   24.4878 C   0  0  0  0  0  0  0  0  0  0  0  0
  -29.6535  -17.7812   22.4429 C   0  0  0  0  0  0  0  0  0  0  0  0
  -26.9991  -32.4268   23.5601 C   0  0  1  0  0  0  0  0  0  0  0  0
  -24.4232  -30.8177   21.2779 C   0  0  1  0  0  0  0  0  0  0  0  0
  -30.6153  -16.6333   22.0916 C   0  0  2  0  0  0  0  0  0  0  0  0
  -30.0057  -21.9174   21.2209 C   0  0  1  0  0  0  0  0  0  0  0  0
  -28.5368  -24.8207   20.3193 C   0  0  2  0  0  0  0  0  0  1  0  0
  -17.4605  -27.5673   20.2986 C   0  0  0  0  0  0  0  0  0  0  0  0
  -21.7847  -29.6176   24.8777 C   0  0  0  0  0  0  0  0  0  0  0  0
  -19.6934  -28.3631   24.3114 C   0  0  0  0  0  0  0  0  0  0  0  0
  -19.8416  -30.8100   23.8498 C   0  0  0  0  0  0  0  0  0  0  0  0
  -20.2423  -27.8008   17.7134 C   0  0  0  0  0  0  0  0  0  0  0  0
  -21.1510  -29.1957   22.4106 C   0  0  1  0  0  0  0  0  0  0  0  0
  -18.7466  -28.1049   19.6906 C   0  0  2  0  0  0  0  0  0  0  0  0
  -20.6424  -29.4897   23.8502 C   0  0  0  0  0  0  0  0  0  0  0  0
  -28.6317  -15.3050   21.4724 N   0  0  0  0  0  0  0  0  0  0  0  0
  -29.9371  -15.5521   21.2705 N   0  0  0  0  0  0  0  0  0  0  0  0
  -23.3958  -29.8175   21.5749 N   0  0  0  0  0  0  0  0  0  0  0  0
  -30.3539  -18.8035   23.2362 N   0  0  0  0  0  0  0  0  0  0  0  0
  -31.8095  -14.8817   19.9840 N   0  0  0  0  0  0  0  0  0  0  0  0
  -29.9854  -11.6432   19.2228 N   0  0  0  0  0  0  0  0  0  0  0  0
  -26.1538  -32.0355   22.4525 N   0  0  0  0  0  0  0  0  0  0  0  0
  -20.0925  -29.0964   21.4116 N   0  0  0  0  0  0  0  0  0  0  0  0
  -29.9329  -20.5521   21.7003 N   0  0  0  0  0  0  0  0  0  0  0  0
  -19.0179  -27.3589   18.4293 N   0  3  0  0  0  0  0  0  0  0  0  0
  -29.4602  -13.1996   17.6227 O   0  0  0  0  0  0  0  0  0  0  0  0
  -24.9048  -30.4069   23.5526 O   0  0  0  0  0  0  0  0  0  0  0  0
  -21.7193  -31.4202   21.8145 O   0  0  0  0  0  0  0  0  0  0  0  0
  -20.5963  -26.9410   20.7206 O   0  0  0  0  0  0  0  0  0  0  0  0
  -31.0965  -20.9644   23.6324 O   0  0  0  0  0  0  0  0  0  0  0  0
  -23.2217  -12.1711   20.2626 O   0  0  0  0  0  0  0  0  0  0  0  0
  -27.1278  -25.0425   20.4244 O   0  0  0  0  0  0  0  0  0  1  0  0
  -22.3699   -7.1962   22.4827 F   0  0  0  0  0  0  0  0  0  0  0  0
  -21.3767  -11.8203   22.2913 F   0  0  0  0  0  0  0  0  0  0  0  0
  1  2  1  0  0  0  0
  1  5  2  0  0  0  0
  2  6  2  0  0  0  0
  3  8  2  0  0  0  0
  3 15  1  0  0  0  0
  4  9  1  0  0  0  0
  4 15  2  0  0  0  0
  5 17  1  0  0  0  0
  6 19  1  0  0  0  0
  7 10  2  0  0  0  0
  7 18  1  0  0  0  0
  8 21  1  0  0  0  0
  9 21  2  0  0  0  0
 10 22  1  0  0  0  0
 11 12  2  0  0  0  0
 11 23  1  0  0  0  0
 12 24  1  0  0  0  0
 13 20  1  0  0  0  0
 13 22  2  0  0  0  0
 14 24  2  0  0  0  0
 14 25  1  0  0  0  0
 15 26  1  0  0  0  0
 16 26  1  0  0  0  0
 16 27  2  0  0  0  0
 16 28  1  0  0  0  0
 17 19  2  0  0  0  0
 17 33  1  0  0  0  0
 18 20  2  0  0  0  0
 18 34  1  0  0  0  0
 19 47  1  0  0  0  0
 20 35  1  0  0  0  0
 21 75  1  0  0  0  0
 22 76  1  0  0  0  0
 23 25  2  0  0  0  0
 23 75  1  0  0  0  0
 24 77  1  0  0  0  0
 25 78  1  0  0  0  0
 26 60  2  0  0  0  0
 27 61  1  0  0  0  0
 27 64  1  0  0  0  0
 28 65  1  0  0  0  0
 28 70  2  0  0  0  0
 29 48  1  0  0  0  0
 29 66  1  0  0  0  0
 29 71  2  0  0  0  0
 30 57  1  0  0  0  0
 30 62  1  0  0  0  0
 30 72  2  0  0  0  0
 31 58  1  0  0  0  0
 31 67  1  0  0  0  0
 31 73  2  0  0  0  0
 32 63  1  0  0  0  0
 32 68  1  0  0  0  0
 32 74  2  0  0  0  0
 33 36  1  0  0  0  0
 34 48  1  0  0  0  0
 35 62  1  0  0  0  0
 36 39  1  0  0  0  0
 37 41  1  0  0  0  0
 37 43  1  0  0  0  0
 38 40  1  0  0  0  0
 38 45  1  0  0  0  0
 39 47  1  0  0  0  0
 40 49  1  0  0  0  0
 41 50  1  0  0  0  0
 42 44  1  0  0  0  0
 42 50  1  0  0  0  0
 43 51  1  0  0  0  0
 44 51  1  0  0  0  0
 45 63  1  0  0  0  0
 46 49  1  0  0  0  0
 46 63  1  0  0  0  0
 47 66  1  0  0  0  0
 48 62  1  0  0  0  0
 49 61  1  0  0  0  0
 50 68  1  0  0  0  0
 51 76  1  0  0  0  0
 52 58  1  0  0  0  0
 53 59  1  0  0  0  0
 54 59  1  0  0  0  0
 55 59  1  0  0  0  0
 56 69  1  0  0  0  0
 57 59  1  0  0  0  0
 57 67  1  0  0  0  0
 58 69  1  0  0  0  0
 60 61  1  0  0  0  0
M  CHG  1  69   1
M  ISO  4  32 100  51 101  68 100  76 101
M  END
> <Batch ID>
0106

> <Smiles>
CNC(C)C(=O)NC(C(=O)N1Cc2cc([101O:1][101CH:1]3CCCC([100NH:0][100C:0](=O)N4CCCC(n5nc(-c6ccc(Oc7ccc(F)cc7F)cc6)c(C(N)=O)c5N)C4)CC3)ccc2CC1C(=O)NC1CCCc2ccccc21)C(C)(C)C

> <Shape>
0.317

> <Color>
0.070

> <Negative vol penalty>
0.000

$$$$

  -OEChem-04052319483D

 83 91  0     1  0  0  0  0  0999 V2000
  -24.2910  -16.2730   35.3521 C   0  0  0  0  0  0  0  0  0  0  0  0
  -24.9476  -16.7053   34.2043 C   0  0  0  0  0  0  0  0  0  0  0  0
  -23.0711   -9.8619   19.9572 C   0  0  0  0  0  0  0  0  0  0  0  0
  -23.8341   -9.8913   22.2494 C   0  0  0  0  0  0  0  0  0  0  0  0
  -23.3040  -15.2924   35.2617 C   0  0  0  0  0  0  0  0  0  0  0  0
  -24.6182  -16.1564   32.9655 C   0  0  0  0  0  0  0  0  0  0  0  0
  -24.5716  -19.0332   27.5592 C   0  0  0  0  0  0  0  0  0  0  0  0
  -22.3274   -8.7113   20.2195 C   0  0  0  0  0  0  0  0  0  0  0  0
  -23.0904   -8.7407   22.5117 C   0  0  0  0  0  0  0  0  0  0  0  0
  -25.4959  -19.0860   26.5168 C   0  0  0  0  0  0  0  0  0  0  0  0
  -22.8998   -5.3958   20.5422 C   0  0  0  0  0  0  0  0  0  0  0  0
  -22.9652   -4.3570   19.6137 C   0  0  0  0  0  0  0  0  0  0  0  0
  -24.3077  -17.3197   25.3819 C   0  0  0  0  0  0  0  0  0  0  0  0
  -29.0660  -18.0843   23.1609 C   0  0  0  0  0  0  0  0  0  0  0  0
  -20.5803   -4.5197   19.2636 C   0  0  0  0  0  0  0  0  0  0  0  0
  -23.8245  -10.4518   20.9722 C   0  0  0  0  0  0  0  0  0  0  0  0
  -24.1664  -12.9756   20.8269 C   0  0  0  0  0  0  0  0  0  0  0  0
  -22.9556  -14.7381   34.0200 C   0  0  0  0  0  0  0  0  0  0  0  0
  -23.5129  -18.1143   27.5259 C   0  0  0  0  0  0  0  0  0  0  0  0
  -23.6265  -15.1665   32.8586 C   0  0  0  0  0  0  0  0  0  0  0  0
  -23.3699  -17.2591   26.4240 C   0  0  0  0  0  0  0  0  0  0  0  0
  -28.1850  -19.1513   23.2975 C   0  0  0  0  0  0  0  0  0  0  0  0
  -28.1200  -20.1233   22.3054 C   0  0  0  0  0  0  0  0  0  0  0  0
  -22.3370   -8.1508   21.4967 C   0  0  0  0  0  0  0  0  0  0  0  0
  -25.3657  -18.2272   25.4293 C   0  0  0  0  0  0  0  0  0  0  0  0
  -21.6745   -5.9965   20.8316 C   0  0  0  0  0  0  0  0  0  0  0  0
  -21.8055   -3.9190   18.9743 C   0  0  0  0  0  0  0  0  0  0  0  0
  -20.5148   -5.5585   20.1922 C   0  0  0  0  0  0  0  0  0  0  0  0
  -24.5934  -11.6400   20.7017 C   0  0  0  0  0  0  0  0  0  0  0  0
  -29.8541  -18.0356   22.0223 C   0  0  0  0  0  0  0  0  0  0  0  0
  -28.9506  -19.9835   21.2052 C   0  0  0  0  0  0  0  0  0  0  0  0
  -25.2582  -13.7214   20.4548 C   0  0  0  0  0  0  0  0  0  0  0  0
  -22.8966  -13.4957   21.2424 C   0  0  0  0  0  0  0  0  0  0  0  0
  -22.6086  -15.6673   29.3420 C   0  0  0  0  0  0  0  0  0  0  0  0
  -20.0246  -15.6713   27.3811 C   0  0  0  0  0  0  0  0  0  0  0  0
  -18.6887  -16.4944   24.3506 C   0  0  0  0  0  0  0  0  0  0  0  0
  -30.7423  -14.7415   20.6257 C   0  0  0  0  0  0  0  0  0  0  0  0
  -21.9154  -13.6468   33.9783 C   0  0  0  0  0  0  0  0  0  0  0  0
  -22.5090  -18.0883   28.6457 C   0  0  0  0  0  0  0  0  0  0  0  0
  -22.2394  -16.2683   26.3306 C   0  0  0  0  0  0  0  0  0  0  0  0
  -21.3632  -13.3848   32.5794 C   0  0  0  0  0  0  0  0  0  0  0  0
  -29.6012  -12.3338   18.2640 C   0  0  0  0  0  0  0  0  0  0  0  0
  -22.4991  -13.2951   31.5653 C   0  0  0  0  0  0  0  0  0  0  0  0
  -28.1643  -12.0446   18.7018 C   0  0  0  0  0  0  0  0  0  0  0  0
  -30.5200  -12.5663   19.4615 C   0  0  0  0  0  0  0  0  0  0  0  0
  -28.6202  -13.3112   20.8434 C   0  0  0  0  0  0  0  0  0  0  0  0
  -23.2799  -14.6129   31.4934 C   0  0  1  0  0  0  0  0  0  0  0  0
  -21.7648  -16.7607   28.7503 C   0  0  1  0  0  0  0  0  0  0  0  0
  -27.6444  -13.1252   19.6688 C   0  0  2  0  0  0  0  0  0  0  0  0
  -28.9249  -20.9949   20.1062 C   0  0  0  0  0  0  0  0  0  0  0  0
  -27.4931  -22.1650   23.6441 C   0  0  0  0  0  0  0  0  0  0  0  0
  -25.7074  -20.8371   22.4596 C   0  0  0  0  0  0  0  0  0  0  0  0
  -16.5630  -16.3360   23.0263 C   0  0  0  0  0  0  0  0  0  0  0  0
  -20.5740  -12.7159   26.8575 C   0  0  0  0  0  0  0  0  0  0  0  0
  -19.0650  -12.8602   24.8648 C   0  0  0  0  0  0  0  0  0  0  0  0
  -18.1578  -13.2924   27.1480 C   0  0  0  0  0  0  0  0  0  0  0  0
  -18.4601  -19.4380   24.1462 C   0  0  0  0  0  0  0  0  0  0  0  0
  -27.3210  -19.2317   24.5215 C   0  0  0  0  0  0  0  0  0  1  0  0
  -30.8101  -16.9041   21.8414 C   0  0  0  0  0  0  0  0  0  0  0  0
  -27.1828  -21.2779   22.4237 C   0  0  0  0  0  0  0  0  0  0  0  0
  -19.6747  -15.0052   26.0723 C   0  0  1  0  0  0  0  0  0  0  0  0
  -17.3907  -17.1872   23.9766 C   0  0  2  0  0  0  0  0  0  0  0  0
  -19.3904  -13.4857   26.2380 C   0  0  0  0  0  0  0  0  0  0  0  0
  -25.8576  -11.5399   20.2827 N   0  0  0  0  0  0  0  0  0  0  0  0
  -29.8190  -18.9610   21.0374 N   0  0  0  0  0  0  0  0  0  0  0  0
  -26.2345  -12.8221   20.1412 N   0  0  0  0  0  0  0  0  0  0  0  0
  -21.2871  -16.2768   27.4534 N   0  0  0  0  0  0  0  0  0  0  0  0
  -29.9707  -13.6036   20.3380 N   0  0  0  0  0  0  0  0  0  0  0  0
  -25.4686  -15.0520   20.3684 N   0  0  0  0  0  0  0  0  0  0  0  0
  -21.8850  -12.5900   21.5900 N   0  0  0  0  0  0  0  0  0  0  0  0
  -22.5473  -15.5929   30.7205 N   0  0  0  0  0  0  0  0  0  0  0  0
  -18.5612  -15.7640   25.5131 N   0  0  0  0  0  0  0  0  0  0  0  0
  -30.1444  -15.6787   21.4594 N   0  0  0  0  0  0  0  0  0  0  0  0
  -17.6723  -18.4923   23.3145 N   0  3  0  0  0  0  0  0  0  0  0  0
  -22.6605  -14.7269   21.2880 O   0  0  0  0  0  0  0  0  0  0  0  0
  -23.2655  -14.9438   28.6027 O   0  0  0  0  0  0  0  0  0  0  0  0
  -19.2050  -15.6610   28.3030 O   0  0  0  0  0  0  0  0  0  0  0  0
  -19.7121  -16.5886   23.6767 O   0  0  0  0  0  0  0  0  0  0  0  0
  -31.8777  -14.9124   20.1689 O   0  0  0  0  0  0  0  0  0  0  0  0
  -21.6113   -7.0282   21.7531 O   0  0  0  0  0  0  0  0  0  0  0  0
  -26.2669  -18.2761   24.4108 O   0  0  0  0  0  0  0  0  0  1  0  0
  -21.8688   -2.9225   18.0815 F   0  0  0  0  0  0  0  0  0  0  0  0
  -19.3350   -6.1324   20.4651 F   0  0  0  0  0  0  0  0  0  0  0  0
  1  2  1  0  0  0  0
  1  5  2  0  0  0  0
  2  6  2  0  0  0  0
  3  8  2  0  0  0  0
  3 16  1  0  0  0  0
  4  9  1  0  0  0  0
  4 16  2  0  0  0  0
  5 18  1  0  0  0  0
  6 20  1  0  0  0  0
  7 10  2  0  0  0  0
  7 19  1  0  0  0  0
  8 24  1  0  0  0  0
  9 24  2  0  0  0  0
 10 25  1  0  0  0  0
 11 12  2  0  0  0  0
 11 26  1  0  0  0  0
 12 27  1  0  0  0  0
 13 21  1  0  0  0  0
 13 25  2  0  0  0  0
 14 22  1  0  0  0  0
 14 30  2  0  0  0  0
 15 27  2  0  0  0  0
 15 28  1  0  0  0  0
 16 29  1  0  0  0  0
 17 29  1  0  0  0  0
 17 32  2  0  0  0  0
 17 33  1  0  0  0  0
 18 20  2  0  0  0  0
 18 38  1  0  0  0  0
 19 21  2  0  0  0  0
 19 39  1  0  0  0  0
 20 47  1  0  0  0  0
 21 40  1  0  0  0  0
 22 23  2  0  0  0  0
 22 58  1  0  0  0  0
 23 31  1  0  0  0  0
 23 60  1  0  0  0  0
 24 80  1  0  0  0  0
 25 81  1  0  0  0  0
 26 28  2  0  0  0  0
 26 80  1  0  0  0  0
 27 82  1  0  0  0  0
 28 83  1  0  0  0  0
 29 64  2  0  0  0  0
 30 59  1  0  0  0  0
 30 65  1  0  0  0  0
 31 50  1  0  0  0  0
 31 65  2  0  0  0  0
 32 66  1  0  0  0  0
 32 69  1  0  0  0  0
 33 70  1  0  0  0  0
 33 75  2  0  0  0  0
 34 48  1  0  0  0  0
 34 71  1  0  0  0  0
 34 76  2  0  0  0  0
 35 61  1  0  0  0  0
 35 67  1  0  0  0  0
 35 77  2  0  0  0  0
 36 62  1  0  0  0  0
 36 72  1  0  0  0  0
 36 78  2  0  0  0  0
 37 68  1  0  0  0  0
 37 73  1  0  0  0  0
 37 79  2  0  0  0  0
 38 41  1  0  0  0  0
 39 48  1  0  0  0  0
 40 67  1  0  0  0  0
 41 43  1  0  0  0  0
 42 44  1  0  0  0  0
 42 45  1  0  0  0  0
 43 47  1  0  0  0  0
 44 49  1  0  0  0  0
 45 68  1  0  0  0  0
 46 49  1  0  0  0  0
 46 68  1  0  0  0  0
 47 71  1  0  0  0  0
 48 67  1  0  0  0  0
 49 66  1  0  0  0  0
 51 60  1  0  0  0  0
 52 60  1  0  0  0  0
 53 62  1  0  0  0  0
 54 63  1  0  0  0  0
 55 63  1  0  0  0  0
 56 63  1  0  0  0  0
 57 74  1  0  0  0  0
 58 81  1  0  0  0  0
 59 73  1  0  0  0  0
 61 63  1  0  0  0  0
 61 72  1  0  0  0  0
 62 74  1  0  0  0  0
 64 66  1  0  0  0  0
M  CHG  1  74   1
M  ISO  4  37 100  58 101  73 100  81 101
M  END
> <Batch ID>
0106

> <Smiles>
CNC(C)C(=O)NC(C(=O)N1Cc2cc([101O:1][101CH2:1]c3cc(C[100NH:0][100C:0](=O)N4CCCC(n5nc(-c6ccc(Oc7ccc(F)cc7F)cc6)c(C(N)=O)c5N)C4)nc(C)c3C(C)C)ccc2CC1C(=O)NC1CCCc2ccccc21)C(C)(C)C

> <Shape>
0.171

> <Color>
0.193

> <Negative vol penalty>
0.000

$$$$

  -OEChem-04052319483D

 88 96  0     1  0  0  0  0  0999 V2000
  -17.3147  -29.7099   25.1695 C   0  0  0  0  0  0  0  0  0  0  0  0
  -17.8019  -28.4965   24.6942 C   0  0  0  0  0  0  0  0  0  0  0  0
  -27.5722  -12.2227   21.6934 C   0  0  0  0  0  0  0  0  0  0  0  0
  -26.7715  -14.1352   20.4532 C   0  0  0  0  0  0  0  0  0  0  0  0
  -17.6941  -30.9016   24.5531 C   0  0  0  0  0  0  0  0  0  0  0  0
  -18.6678  -28.4741   23.6015 C   0  0  0  0  0  0  0  0  0  0  0  0
  -22.6025  -25.3646   24.3046 C   0  0  0  0  0  0  0  0  0  0  0  0
  -26.6378  -11.4129   21.0480 C   0  0  0  0  0  0  0  0  0  0  0  0
  -25.8371  -13.3254   19.8076 C   0  0  0  0  0  0  0  0  0  0  0  0
  -22.3723  -23.9993   24.1410 C   0  0  0  0  0  0  0  0  0  0  0  0
  -24.2207   -8.9113   19.9881 C   0  0  0  0  0  0  0  0  0  0  0  0
  -23.4955   -8.0086   20.7658 C   0  0  0  0  0  0  0  0  0  0  0  0
  -23.3286  -24.1092   21.9291 C   0  0  0  0  0  0  0  0  0  0  0  0
  -26.4865  -19.5525   23.0122 C   0  0  0  0  0  0  0  0  0  0  0  0
  -26.6491  -19.7353   20.6087 C   0  0  0  0  0  0  0  0  0  0  0  0
  -22.6056   -9.8418   22.0638 C   0  0  0  0  0  0  0  0  0  0  0  0
  -27.6391  -13.5839   21.3961 C   0  0  0  0  0  0  0  0  0  0  0  0
  -29.9187  -14.7013   21.6457 C   0  0  0  0  0  0  0  0  0  0  0  0
  -18.5728  -30.8944   23.4584 C   0  0  0  0  0  0  0  0  0  0  0  0
  -23.1886  -26.1159   23.2758 C   0  0  0  0  0  0  0  0  0  0  0  0
  -19.0583  -29.6667   22.9691 C   0  0  0  0  0  0  0  0  0  0  0  0
  -23.5675  -25.4834   22.0831 C   0  0  0  0  0  0  0  0  0  0  0  0
  -25.9069  -19.4296   21.7495 C   0  0  0  0  0  0  0  0  0  0  0  0
  -27.8082  -19.9814   23.1343 C   0  0  0  0  0  0  0  0  0  0  0  0
  -28.5504  -20.2871   21.9935 C   0  0  0  0  0  0  0  0  0  0  0  0
  -25.7703  -11.9642   20.1051 C   0  0  0  0  0  0  0  0  0  0  0  0
  -22.7327  -23.3720   22.9520 C   0  0  0  0  0  0  0  0  0  0  0  0
  -24.1385  -10.2793   20.2483 C   0  0  0  0  0  0  0  0  0  0  0  0
  -27.9708  -20.1641   20.7307 C   0  0  0  0  0  0  0  0  0  0  0  0
  -22.6879   -8.4739   21.8036 C   0  0  0  0  0  0  0  0  0  0  0  0
  -23.3309  -10.7445   21.2861 C   0  0  0  0  0  0  0  0  0  0  0  0
  -28.6037  -14.4211   22.0629 C   0  0  0  0  0  0  0  0  0  0  0  0
  -30.4153  -15.5386   22.6147 C   0  0  0  0  0  0  0  0  0  0  0  0
  -30.6279  -14.2455   20.4860 C   0  0  0  0  0  0  0  0  0  0  0  0
  -22.2653  -28.5788   21.4911 C   0  0  0  0  0  0  0  0  0  0  0  0
  -25.3225  -28.4442   20.4152 C   0  0  0  0  0  0  0  0  0  0  0  0
  -28.1429  -26.5857   19.9270 C   0  0  0  0  0  0  0  0  0  0  0  0
  -27.3175  -19.0800   26.5390 C   0  0  0  0  0  0  0  0  0  0  0  0
  -18.9170  -32.2045   22.7952 C   0  0  0  0  0  0  0  0  0  0  0  0
  -23.4547  -27.5824   23.4781 C   0  0  0  0  0  0  0  0  0  0  0  0
  -24.2183  -26.2410   20.9558 C   0  0  0  0  0  0  0  0  0  0  0  0
  -20.1340  -32.1215   21.8775 C   0  0  0  0  0  0  0  0  0  0  0  0
  -29.9688  -16.5976   27.2530 C   0  0  0  0  0  0  0  0  0  0  0  0
  -20.0399  -30.8949   20.9757 C   0  0  0  0  0  0  0  0  0  0  0  0
  -29.9730  -15.7415   25.9877 C   0  0  0  0  0  0  0  0  0  0  0  0
  -28.5972  -17.2107   27.5185 C   0  0  0  0  0  0  0  0  0  0  0  0
  -28.0569  -17.1319   25.1068 C   0  0  0  0  0  0  0  0  0  0  0  0
  -20.0191  -29.6031   21.8017 C   0  0  1  0  0  0  0  0  0  0  0  0
  -23.5876  -28.3520   22.1676 C   0  0  1  0  0  0  0  0  0  0  0  0
  -29.4361  -16.5371   24.7852 C   0  0  2  0  0  0  0  0  0  0  0  0
  -29.9680  -20.7464   22.1185 C   0  0  0  0  0  0  0  0  0  0  0  0
  -29.3261  -22.1843   18.0781 C   0  0  0  0  0  0  0  0  0  0  0  0
  -30.4663  -26.7401   18.9913 C   0  0  0  0  0  0  0  0  0  0  0  0
  -23.9502  -18.8722   20.1524 C   0  0  0  0  0  0  0  0  0  0  0  0
  -24.3430  -17.5252   22.1959 C   0  0  0  0  0  0  0  0  0  0  0  0
  -24.1887  -28.3169   17.5853 C   0  0  0  0  0  0  0  0  0  0  0  0
  -26.4304  -27.5278   16.7975 C   0  0  0  0  0  0  0  0  0  0  0  0
  -26.1990  -29.7828   17.8387 C   0  0  0  0  0  0  0  0  0  0  0  0
  -26.6171  -21.2949   25.7123 C   0  0  0  0  0  0  0  0  0  0  0  0
  -29.3649  -25.9507   22.5466 C   0  0  0  0  0  0  0  0  0  0  0  0
  -28.4052  -20.1061   24.4978 C   0  0  0  0  0  0  0  0  0  0  0  0
  -23.4808  -19.8780   22.4195 C   0  0  0  0  0  0  0  0  0  0  0  0
  -28.1698  -21.4930   18.7685 C   0  0  0  0  0  0  0  0  0  0  0  0
  -23.4098  -21.3279   21.9425 C   0  0  0  0  0  0  0  0  0  1  0  0
  -26.0305  -27.7224   19.2942 C   0  0  1  0  0  0  0  0  0  0  0  0
  -29.6019  -26.8691   20.2359 C   0  0  2  0  0  0  0  0  0  0  0  0
  -24.4477  -18.9576   21.6153 C   0  0  0  0  0  0  0  0  0  0  0  0
  -25.6982  -28.3233   17.8992 C   0  0  0  0  0  0  0  0  0  0  0  0
  -28.2850  -15.0308   23.2078 N   0  0  0  0  0  0  0  0  0  0  0  0
  -29.4069  -15.7024   23.5183 N   0  0  0  0  0  0  0  0  0  0  0  0
  -24.4519  -27.6741   21.1993 N   0  0  0  0  0  0  0  0  0  0  0  0
  -28.0917  -17.9242   26.3452 N   0  0  0  0  0  0  0  0  0  0  0  0
  -31.6117  -16.1433   22.7733 N   0  0  0  0  0  0  0  0  0  0  0  0
  -29.9687  -13.3896   19.5932 N   0  0  0  0  0  0  0  0  0  0  0  0
  -21.3520  -29.2747   22.2599 N   0  0  0  0  0  0  0  0  0  0  0  0
  -27.4502  -27.7403   19.6296 N   0  0  0  0  0  0  0  0  0  0  0  0
  -27.3925  -20.0732   25.5507 N   0  0  0  0  0  0  0  0  0  0  0  0
  -30.1091  -25.9141   21.2614 N   0  3  0  0  0  0  0  0  0  0  0  0
  -31.8167  -14.5741   20.2570 O   0  0  0  0  0  0  0  0  0  0  0  0
  -22.0873  -28.1553   20.3550 O   0  0  0  0  0  0  0  0  0  0  0  0
  -25.5395  -29.6454   20.5932 O   0  0  0  0  0  0  0  0  0  0  0  0
  -27.6662  -25.4530   19.9438 O   0  0  0  0  0  0  0  0  0  0  0  0
  -26.6075  -19.2206   27.5430 O   0  0  0  0  0  0  0  0  0  0  0  0
  -24.8585  -11.1742   19.4748 O   0  0  0  0  0  0  0  0  0  0  0  0
  -22.5085  -22.0396   22.7894 O   0  0  0  0  0  0  0  0  0  1  0  0
  -28.6806  -20.4572   19.6053 O   0  0  0  0  0  0  0  0  0  0  0  0
  -21.9903   -7.6071   22.5493 F   0  0  0  0  0  0  0  0  0  0  0  0
  -23.2470  -12.0576   21.5401 F   0  0  0  0  0  0  0  0  0  0  0  0
  1  2  1  0  0  0  0
  1  5  2  0  0  0  0
  2  6  2  0  0  0  0
  3  8  2  0  0  0  0
  3 17  1  0  0  0  0
  4  9  1  0  0  0  0
  4 17  2  0  0  0  0
  5 19  1  0  0  0  0
  6 21  1  0  0  0  0
  7 10  2  0  0  0  0
  7 20  1  0  0  0  0
  8 26  1  0  0  0  0
  9 26  2  0  0  0  0
 10 27  1  0  0  0  0
 11 12  2  0  0  0  0
 11 28  1  0  0  0  0
 12 30  1  0  0  0  0
 13 22  1  0  0  0  0
 13 27  2  0  0  0  0
 14 23  1  0  0  0  0
 14 24  2  0  0  0  0
 15 23  2  0  0  0  0
 15 29  1  0  0  0  0
 16 30  2  0  0  0  0
 16 31  1  0  0  0  0
 17 32  1  0  0  0  0
 18 32  1  0  0  0  0
 18 33  2  0  0  0  0
 18 34  1  0  0  0  0
 19 21  2  0  0  0  0
 19 39  1  0  0  0  0
 20 22  2  0  0  0  0
 20 40  1  0  0  0  0
 21 48  1  0  0  0  0
 22 41  1  0  0  0  0
 23 67  1  0  0  0  0
 24 25  1  0  0  0  0
 24 61  1  0  0  0  0
 25 29  2  0  0  0  0
 25 51  1  0  0  0  0
 26 84  1  0  0  0  0
 27 85  1  0  0  0  0
 28 31  2  0  0  0  0
 28 84  1  0  0  0  0
 29 86  1  0  0  0  0
 30 87  1  0  0  0  0
 31 88  1  0  0  0  0
 32 69  2  0  0  0  0
 33 70  1  0  0  0  0
 33 73  1  0  0  0  0
 34 74  1  0  0  0  0
 34 79  2  0  0  0  0
 35 49  1  0  0  0  0
 35 75  1  0  0  0  0
 35 80  2  0  0  0  0
 36 65  1  0  0  0  0
 36 71  1  0  0  0  0
 36 81  2  0  0  0  0
 37 66  1  0  0  0  0
 37 76  1  0  0  0  0
 37 82  2  0  0  0  0
 38 72  1  0  0  0  0
 38 77  1  0  0  0  0
 38 83  2  0  0  0  0
 39 42  1  0  0  0  0
 40 49  1  0  0  0  0
 41 71  1  0  0  0  0
 42 44  1  0  0  0  0
 43 45  1  0  0  0  0
 43 46  1  0  0  0  0
 44 48  1  0  0  0  0
 45 50  1  0  0  0  0
 46 72  1  0  0  0  0
 47 50  1  0  0  0  0
 47 72  1  0  0  0  0
 48 75  1  0  0  0  0
 49 71  1  0  0  0  0
 50 70  1  0  0  0  0
 52 63  1  0  0  0  0
 53 66  1  0  0  0  0
 54 67  1  0  0  0  0
 55 67  1  0  0  0  0
 56 68  1  0  0  0  0
 57 68  1  0  0  0  0
 58 68  1  0  0  0  0
 59 77  1  0  0  0  0
 60 78  1  0  0  0  0
 61 77  1  0  0  0  0
 62 64  1  0  0  0  0
 62 67  1  0  0  0  0
 63 86  1  0  0  0  0
 64 85  1  0  0  0  0
 65 68  1  0  0  0  0
 65 76  1  0  0  0  0
 66 78  1  0  0  0  0
 69 70  1  0  0  0  0
M  CHG  1  78   1
M  ISO  4  38 100  64 101  77 100  85 101
M  END
> <Batch ID>
0106

> <Smiles>
CCOc1cc(C(C)(C)C[101CH2:1][101O:1]c2ccc3c(c2)CN(C(=O)C(NC(=O)C(C)NC)C(C)(C)C)C(C(=O)NC2CCCc4ccccc42)C3)cc(C[100N:0](C)[100C:0](=O)N2CCCC(n3nc(-c4ccc(Oc5ccc(F)cc5F)cc4)c(C(N)=O)c3N)C2)c1C

> <Shape>
0.229

> <Color>
0.084

> <Negative vol penalty>
0.000

$$$$

  -OEChem-04052319483D

 85 93  0     1  0  0  0  0  0999 V2000
  -18.7016  -27.5311   23.4575 C   0  0  0  0  0  0  0  0  0  0  0  0
  -18.8956  -26.5322   22.5088 C   0  0  0  0  0  0  0  0  0  0  0  0
  -19.3063  -15.2910   21.0687 C   0  0  0  0  0  0  0  0  0  0  0  0
  -20.6673  -17.2812   21.2229 C   0  0  0  0  0  0  0  0  0  0  0  0
  -19.5157  -28.6629   23.4529 C   0  0  0  0  0  0  0  0  0  0  0  0
  -19.9032  -26.6652   21.5542 C   0  0  0  0  0  0  0  0  0  0  0  0
  -25.1489  -21.7603   20.9915 C   0  0  0  0  0  0  0  0  0  0  0  0
  -18.3089  -15.9150   21.8180 C   0  0  0  0  0  0  0  0  0  0  0  0
  -19.6699  -17.9052   21.9721 C   0  0  0  0  0  0  0  0  0  0  0  0
  -26.0675  -20.7570   20.6818 C   0  0  0  0  0  0  0  0  0  0  0  0
  -17.3315  -20.1495   23.6192 C   0  0  0  0  0  0  0  0  0  0  0  0
  -16.9984  -21.4634   23.2903 C   0  0  0  0  0  0  0  0  0  0  0  0
  -27.0328  -22.1569   18.9624 C   0  0  0  0  0  0  0  0  0  0  0  0
  -16.3767  -20.7494   21.0675 C   0  0  0  0  0  0  0  0  0  0  0  0
  -29.1196  -16.7769   21.6150 C   0  0  0  0  0  0  0  0  0  0  0  0
  -20.4855  -15.9741   20.7712 C   0  0  0  0  0  0  0  0  0  0  0  0
  -21.6603  -15.3401   18.5973 C   0  0  0  0  0  0  0  0  0  0  0  0
  -20.5401  -28.8053   22.5037 C   0  0  0  0  0  0  0  0  0  0  0  0
  -25.1788  -22.9730   20.2974 C   0  0  0  0  0  0  0  0  0  0  0  0
  -20.7310  -27.8006   21.5360 C   0  0  0  0  0  0  0  0  0  0  0  0
  -26.1233  -23.1702   19.2766 C   0  0  0  0  0  0  0  0  0  0  0  0
  -18.4907  -17.2221   22.2697 C   0  0  0  0  0  0  0  0  0  0  0  0
  -27.0069  -20.9548   19.6696 C   0  0  0  0  0  0  0  0  0  0  0  0
  -17.1872  -19.1355   22.6723 C   0  0  0  0  0  0  0  0  0  0  0  0
  -16.5210  -21.7634   22.0145 C   0  0  0  0  0  0  0  0  0  0  0  0
  -16.7098  -19.4354   21.3965 C   0  0  0  0  0  0  0  0  0  0  0  0
  -21.5164  -15.3298   19.9977 C   0  0  0  0  0  0  0  0  0  0  0  0
  -22.7862  -14.5894   18.3623 C   0  0  0  0  0  0  0  0  0  0  0  0
  -28.9667  -15.4224   21.7090 C   0  0  0  0  0  0  0  0  0  0  0  0
  -31.1051  -15.8930   22.0353 C   0  0  0  0  0  0  0  0  0  0  0  0
  -20.8489  -15.9719   17.5983 C   0  0  0  0  0  0  0  0  0  0  0  0
  -23.7007  -26.3919   19.8479 C   0  0  0  0  0  0  0  0  0  0  0  0
  -26.7426  -26.6956   19.5925 C   0  0  0  0  0  0  0  0  0  0  0  0
  -30.1477  -26.6698   19.7964 C   0  0  0  0  0  0  0  0  0  0  0  0
  -27.5997  -13.3069   21.6625 C   0  0  0  0  0  0  0  0  0  0  0  0
  -21.3641  -30.0685   22.5089 C   0  0  0  0  0  0  0  0  0  0  0  0
  -24.1690  -24.0581   20.5556 C   0  0  0  0  0  0  0  0  0  0  0  0
  -26.0959  -24.4776   18.5331 C   0  0  0  0  0  0  0  0  0  0  0  0
  -22.6520  -29.9590   21.6966 C   0  0  0  0  0  0  0  0  0  0  0  0
  -25.3321  -10.9781   20.2093 C   0  0  0  0  0  0  0  0  0  0  0  0
  -22.3743  -29.3213   20.3390 C   0  0  0  0  0  0  0  0  0  0  0  0
  -24.1117  -11.8318   19.8572 C   0  0  0  0  0  0  0  0  0  0  0  0
  -25.9803  -11.4276   21.5176 C   0  0  0  0  0  0  0  0  0  0  0  0
  -25.0958  -13.7093   21.2332 C   0  0  0  0  0  0  0  0  0  0  0  0
  -21.8296  -27.8969   20.4996 C   0  0  1  0  0  0  0  0  0  0  0  0
  -24.7518  -25.4742   20.3997 C   0  0  1  0  0  0  0  0  0  0  0  0
  -24.4476  -13.3357   19.8901 C   0  0  2  0  0  0  0  0  0  0  0  0
  -33.1187  -14.4061   21.7379 C   0  0  0  0  0  0  0  0  0  0  0  0
  -32.9071  -15.8445   23.7973 C   0  0  0  0  0  0  0  0  0  0  0  0
  -32.1413  -28.1868   19.6499 C   0  0  0  0  0  0  0  0  0  0  0  0
  -26.4587  -26.7694   16.5564 C   0  0  0  0  0  0  0  0  0  0  0  0
  -28.8712  -27.4243   16.4178 C   0  0  0  0  0  0  0  0  0  0  0  0
  -27.2421  -28.9108   17.5837 C   0  0  0  0  0  0  0  0  0  0  0  0
  -32.0985  -20.3914   20.6499 C   0  0  0  0  0  0  0  0  0  0  0  0
  -32.3416  -18.1490   19.6011 C   0  0  0  0  0  0  0  0  0  0  0  0
  -30.9604  -26.0614   22.5764 C   0  0  0  0  0  0  0  0  0  0  0  0
  -31.0795  -18.4152   21.8074 C   0  0  0  0  0  0  0  0  0  0  0  0
  -30.1007  -19.2679   19.5582 C   0  0  0  0  0  0  0  0  0  0  0  0
  -32.5560  -15.7294   22.2988 C   0  0  0  0  0  0  0  0  0  0  0  0
  -27.9368  -26.7376   18.6731 C   0  0  1  0  0  0  0  0  0  0  0  0
  -31.1173  -27.5433   20.5719 C   0  0  2  0  0  0  0  0  0  0  0  0
  -27.6195  -27.4366   17.3210 C   0  0  0  0  0  0  0  0  0  0  0  0
  -31.3792  -19.0431   20.4115 C   0  0  0  0  0  0  0  0  0  0  0  0
  -22.4743  -14.6280   20.6093 N   0  0  0  0  0  0  0  0  0  0  0  0
  -30.4523  -17.0400   21.8216 N   0  0  0  0  0  0  0  0  0  0  0  0
  -23.2308  -14.1903   19.5884 N   0  0  0  0  0  0  0  0  0  0  0  0
  -30.2112  -14.9011   21.9693 N   0  3  0  0  0  0  0  0  0  0  0  0
  -25.8938  -25.5881   19.4767 N   0  0  0  0  0  0  0  0  0  0  0  0
  -26.2741  -12.8618   21.4743 N   0  0  0  0  0  0  0  0  0  0  0  0
  -23.4294  -14.2382   17.2286 N   0  0  0  0  0  0  0  0  0  0  0  0
  -19.7286  -16.7050   18.0129 N   0  0  0  0  0  0  0  0  0  0  0  0
  -27.7629  -14.6885   21.5675 N   0  0  0  0  0  0  0  0  0  0  0  0
  -22.9028  -26.9777   20.8121 N   0  0  0  0  0  0  0  0  0  0  0  0
  -29.0140  -27.3646   19.4315 N   0  0  0  0  0  0  0  0  0  0  0  0
  -29.1123  -20.1354   20.1828 N   0  0  0  0  0  0  0  0  0  1  0  0
  -31.8446  -26.7329   21.5894 N   0  3  0  0  0  0  0  0  0  0  0  0
  -21.1001  -15.8751   16.3731 O   0  0  0  0  0  0  0  0  0  0  0  0
  -23.6195  -26.5584   18.6366 O   0  0  0  0  0  0  0  0  0  0  0  0
  -26.5616  -27.6211   20.3888 O   0  0  0  0  0  0  0  0  0  0  0  0
  -30.3751  -25.4902   19.5369 O   0  0  0  0  0  0  0  0  0  0  0  0
  -28.5267  -12.5181   21.8640 O   0  0  0  0  0  0  0  0  0  0  0  0
  -17.5176  -17.8314   23.0007 O   0  0  0  0  0  0  0  0  0  0  0  0
  -27.9036  -19.9729   19.3754 O   0  0  0  0  0  0  0  0  0  1  0  0
  -16.1997  -23.0250   21.6992 F   0  0  0  0  0  0  0  0  0  0  0  0
  -16.5680  -18.4653   20.4829 F   0  0  0  0  0  0  0  0  0  0  0  0
  1  2  1  0  0  0  0
  1  5  2  0  0  0  0
  2  6  2  0  0  0  0
  3  8  2  0  0  0  0
  3 16  1  0  0  0  0
  4  9  1  0  0  0  0
  4 16  2  0  0  0  0
  5 18  1  0  0  0  0
  6 20  1  0  0  0  0
  7 10  2  0  0  0  0
  7 19  1  0  0  0  0
  8 22  1  0  0  0  0
  9 22  2  0  0  0  0
 10 23  1  0  0  0  0
 11 12  2  0  0  0  0
 11 24  1  0  0  0  0
 12 25  1  0  0  0  0
 13 21  1  0  0  0  0
 13 23  2  0  0  0  0
 14 25  2  0  0  0  0
 14 26  1  0  0  0  0
 15 29  2  0  0  0  0
 15 65  1  0  0  0  0
 16 27  1  0  0  0  0
 17 27  1  0  0  0  0
 17 28  2  0  0  0  0
 17 31  1  0  0  0  0
 18 20  2  0  0  0  0
 18 36  1  0  0  0  0
 19 21  2  0  0  0  0
 19 37  1  0  0  0  0
 20 45  1  0  0  0  0
 21 38  1  0  0  0  0
 22 82  1  0  0  0  0
 23 83  1  0  0  0  0
 24 26  2  0  0  0  0
 24 82  1  0  0  0  0
 25 84  1  0  0  0  0
 26 85  1  0  0  0  0
 27 64  2  0  0  0  0
 28 66  1  0  0  0  0
 28 70  1  0  0  0  0
 29 67  1  0  0  0  0
 29 72  1  0  0  0  0
 30 59  1  0  0  0  0
 30 65  1  0  0  0  0
 30 67  2  0  0  0  0
 31 71  1  0  0  0  0
 31 77  2  0  0  0  0
 32 46  1  0  0  0  0
 32 73  1  0  0  0  0
 32 78  2  0  0  0  0
 33 60  1  0  0  0  0
 33 68  1  0  0  0  0
 33 79  2  0  0  0  0
 34 61  1  0  0  0  0
 34 74  1  0  0  0  0
 34 80  2  0  0  0  0
 35 69  1  0  0  0  0
 35 72  1  0  0  0  0
 35 81  2  0  0  0  0
 36 39  1  0  0  0  0
 37 46  1  0  0  0  0
 38 68  1  0  0  0  0
 39 41  1  0  0  0  0
 40 42  1  0  0  0  0
 40 43  1  0  0  0  0
 41 45  1  0  0  0  0
 42 47  1  0  0  0  0
 43 69  1  0  0  0  0
 44 47  1  0  0  0  0
 44 69  1  0  0  0  0
 45 73  1  0  0  0  0
 46 68  1  0  0  0  0
 47 66  1  0  0  0  0
 48 59  1  0  0  0  0
 49 59  1  0  0  0  0
 50 61  1  0  0  0  0
 51 62  1  0  0  0  0
 52 62  1  0  0  0  0
 53 62  1  0  0  0  0
 54 63  1  0  0  0  0
 55 63  1  0  0  0  0
 56 76  1  0  0  0  0
 57 63  1  0  0  0  0
 57 65  1  0  0  0  0
 58 63  1  0  0  0  0
 58 75  1  0  0  0  0
 60 62  1  0  0  0  0
 60 74  1  0  0  0  0
 61 76  1  0  0  0  0
 64 66  1  0  0  0  0
 75 83  1  0  0  0  0
M  CHG  2  67   1  76   1
M  ISO  4  35 100  72 100  75 101  83 101
M  END
> <Batch ID>
0106

> <Smiles>
CNC(C)C(=O)NC(C(=O)N1Cc2cc([101O:1][101NH:1]CC(C)(C)Cn3cc([100NH:0][100C:0](=O)N4CCCC(n5nc(-c6ccc(Oc7ccc(F)cc7F)cc6)c(C(N)=O)c5N)C4)nc3C(C)C)ccc2CC1C(=O)NC1CCCc2ccccc21)C(C)(C)C

> <Shape>
0.203

> <Color>
0.068

> <Negative vol penalty>
0.000

$$$$

  -OEChem-04052319483D

 84 92  0     1  0  0  0  0  0999 V2000
  -21.4140  -30.1192   15.4716 C   0  0  0  0  0  0  0  0  0  0  0  0
  -22.2552  -29.1879   16.0720 C   0  0  0  0  0  0  0  0  0  0  0  0
  -23.0227   -9.8248   20.1798 C   0  0  0  0  0  0  0  0  0  0  0  0
  -23.6343  -10.1891   22.4885 C   0  0  0  0  0  0  0  0  0  0  0  0
  -21.3171  -31.4082   15.9943 C   0  0  0  0  0  0  0  0  0  0  0  0
  -23.0009  -29.5453   17.1947 C   0  0  0  0  0  0  0  0  0  0  0  0
  -22.8684  -26.0122   20.8202 C   0  0  0  0  0  0  0  0  0  0  0  0
  -22.2447   -8.7308   20.5585 C   0  0  0  0  0  0  0  0  0  0  0  0
  -22.8563   -9.0951   22.8672 C   0  0  0  0  0  0  0  0  0  0  0  0
  -23.6796  -24.8916   20.6472 C   0  0  0  0  0  0  0  0  0  0  0  0
  -23.1253   -5.7249   22.8599 C   0  0  0  0  0  0  0  0  0  0  0  0
  -23.6759   -4.8218   23.7692 C   0  0  0  0  0  0  0  0  0  0  0  0
  -25.3074  -25.8452   22.1506 C   0  0  0  0  0  0  0  0  0  0  0  0
  -27.3871  -21.7238   19.5285 C   0  0  0  0  0  0  0  0  0  0  0  0
  -21.8721   -5.2747   25.3113 C   0  0  0  0  0  0  0  0  0  0  0  0
  -23.7176  -10.5540   21.1448 C   0  0  0  0  0  0  0  0  0  0  0  0
  -24.1096  -13.0260   20.6517 C   0  0  0  0  0  0  0  0  0  0  0  0
  -22.0547  -31.7787   17.1298 C   0  0  0  0  0  0  0  0  0  0  0  0
  -23.2763  -27.0644   21.6527 C   0  0  0  0  0  0  0  0  0  0  0  0
  -22.9148  -30.8408   17.7323 C   0  0  0  0  0  0  0  0  0  0  0  0
  -24.4984  -26.9769   22.3345 C   0  0  0  0  0  0  0  0  0  0  0  0
  -28.2869  -20.6638   19.5204 C   0  0  0  0  0  0  0  0  0  0  0  0
  -27.9862  -19.4987   20.2170 C   0  0  0  0  0  0  0  0  0  0  0  0
  -22.1615   -8.3660   21.9022 C   0  0  0  0  0  0  0  0  0  0  0  0
  -24.9006  -24.8092   21.3101 C   0  0  0  0  0  0  0  0  0  0  0  0
  -21.9481   -6.4030   23.1763 C   0  0  0  0  0  0  0  0  0  0  0  0
  -23.0493   -4.5967   24.9949 C   0  0  0  0  0  0  0  0  0  0  0  0
  -21.3214   -6.1778   24.4020 C   0  0  0  0  0  0  0  0  0  0  0  0
  -24.5219  -11.6838   20.7541 C   0  0  0  0  0  0  0  0  0  0  0  0
  -26.2098  -21.5698   20.2427 C   0  0  0  0  0  0  0  0  0  0  0  0
  -26.7822  -19.4443   20.9006 C   0  0  0  0  0  0  0  0  0  0  0  0
  -25.2355  -13.7011   20.2478 C   0  0  0  0  0  0  0  0  0  0  0  0
  -22.8240  -13.6102   20.8997 C   0  0  0  0  0  0  0  0  0  0  0  0
  -23.9192  -30.1471   21.2198 C   0  0  0  0  0  0  0  0  0  0  0  0
  -24.1829  -30.1457   24.4529 C   0  0  0  0  0  0  0  0  0  0  0  0
  -24.7747  -28.3767   27.3107 C   0  0  0  0  0  0  0  0  0  0  0  0
  -30.7126  -14.6997   20.6343 C   0  0  0  0  0  0  0  0  0  0  0  0
  -21.9529  -33.1978   17.6303 C   0  0  0  0  0  0  0  0  0  0  0  0
  -22.3776  -28.2543   21.8497 C   0  0  0  0  0  0  0  0  0  0  0  0
  -24.9728  -28.0703   23.2553 C   0  0  0  0  0  0  0  0  0  0  0  0
  -22.4923  -33.3845   19.0461 C   0  0  0  0  0  0  0  0  0  0  0  0
  -29.6893  -11.9756   18.5827 C   0  0  0  0  0  0  0  0  0  0  0  0
  -23.8441  -32.6942   19.1977 C   0  0  0  0  0  0  0  0  0  0  0  0
  -28.2223  -11.7639   18.9608 C   0  0  0  0  0  0  0  0  0  0  0  0
  -30.5314  -12.3773   19.7917 C   0  0  0  0  0  0  0  0  0  0  0  0
  -28.5576  -13.3314   20.9177 C   0  0  0  0  0  0  0  0  0  0  0  0
  -23.7210  -31.1833   18.9664 C   0  0  1  0  0  0  0  0  0  0  0  0
  -23.1267  -29.4977   22.3189 C   0  0  1  0  0  0  0  0  0  0  0  0
  -27.6579  -12.9794   19.7206 C   0  0  2  0  0  0  0  0  0  0  0  0
  -29.5651  -20.8025   18.7614 C   0  0  0  0  0  0  0  0  0  0  0  0
  -26.4029  -18.2187   21.6659 C   0  0  0  0  0  0  0  0  0  0  0  0
  -24.9608  -28.6562   29.7976 C   0  0  0  0  0  0  0  0  0  0  0  0
  -31.5045  -16.9545   22.8358 C   0  0  0  0  0  0  0  0  0  0  0  0
  -26.9437  -31.3970   24.1032 C   0  0  0  0  0  0  0  0  0  0  0  0
  -27.4476  -30.7794   26.4765 C   0  0  0  0  0  0  0  0  0  0  0  0
  -25.5889  -32.3640   25.9696 C   0  0  0  0  0  0  0  0  0  0  0  0
  -22.5179  -26.5267   27.8042 C   0  0  0  0  0  0  0  0  0  0  0  0
  -28.9311  -18.3444   20.2243 C   0  0  0  0  0  0  0  0  0  0  0  0
  -25.2147  -22.6924   20.2727 C   0  0  0  0  0  0  0  0  0  1  0  0
  -29.7309  -18.1819   21.5334 C   0  0  0  0  0  0  0  0  0  0  0  0
  -25.3059  -29.9095   25.4338 C   0  0  1  0  0  0  0  0  0  0  0  0
  -24.0360  -28.3273   28.6360 C   0  0  2  0  0  0  0  0  0  0  0  0
  -30.7360  -17.0183   21.5191 C   0  0  2  0  0  0  0  0  0  0  0  0
  -26.3137  -31.0926   25.4770 C   0  0  0  0  0  0  0  0  0  0  0  0
  -25.8091  -11.5144   20.4403 N   0  0  0  0  0  0  0  0  0  0  0  0
  -25.8830  -20.4534   20.9314 N   0  0  0  0  0  0  0  0  0  0  0  0
  -26.2154  -12.7590   20.1368 N   0  0  0  0  0  0  0  0  0  0  0  0
  -24.0615  -29.2162   23.4103 N   0  0  0  0  0  0  0  0  0  0  0  0
  -29.9430  -13.5367   20.4666 N   0  0  0  0  0  0  0  0  0  0  0  0
  -25.4729  -15.0028   19.9802 N   0  0  0  0  0  0  0  0  0  0  0  0
  -21.7771  -12.7727   21.3084 N   0  0  0  0  0  0  0  0  0  0  0  0
  -23.1596  -30.5374   20.1335 N   0  0  0  0  0  0  0  0  0  0  0  0
  -24.6734  -29.6163   26.7154 N   0  0  0  0  0  0  0  0  0  0  0  0
  -30.0768  -15.7540   21.2784 N   0  0  0  0  0  0  0  0  0  0  0  0
  -23.4644  -26.9694   28.8602 N   0  3  0  0  0  0  0  0  0  0  0  0
  -22.6056  -14.8360   20.7470 O   0  0  0  0  0  0  0  0  0  0  0  0
  -25.1300  -30.2852   21.3485 O   0  0  0  0  0  0  0  0  0  0  0  0
  -23.4365  -31.1151   24.6101 O   0  0  0  0  0  0  0  0  0  0  0  0
  -25.3839  -27.4131   26.8514 O   0  0  0  0  0  0  0  0  0  0  0  0
  -31.8781  -14.7935   20.2346 O   0  0  0  0  0  0  0  0  0  0  0  0
  -21.4022   -7.2986   22.2721 O   0  0  0  0  0  0  0  0  0  0  0  0
  -25.6946  -23.7168   21.1424 O   0  0  0  0  0  0  0  0  0  1  0  0
  -23.5774   -3.7283   25.8673 F   0  0  0  0  0  0  0  0  0  0  0  0
  -20.1897   -6.8254   24.7111 F   0  0  0  0  0  0  0  0  0  0  0  0
  1  2  1  0  0  0  0
  1  5  2  0  0  0  0
  2  6  2  0  0  0  0
  3  8  2  0  0  0  0
  3 16  1  0  0  0  0
  4  9  1  0  0  0  0
  4 16  2  0  0  0  0
  5 18  1  0  0  0  0
  6 20  1  0  0  0  0
  7 10  2  0  0  0  0
  7 19  1  0  0  0  0
  8 24  1  0  0  0  0
  9 24  2  0  0  0  0
 10 25  1  0  0  0  0
 11 12  2  0  0  0  0
 11 26  1  0  0  0  0
 12 27  1  0  0  0  0
 13 21  1  0  0  0  0
 13 25  2  0  0  0  0
 14 22  2  0  0  0  0
 14 30  1  0  0  0  0
 15 27  2  0  0  0  0
 15 28  1  0  0  0  0
 16 29  1  0  0  0  0
 17 29  1  0  0  0  0
 17 32  2  0  0  0  0
 17 33  1  0  0  0  0
 18 20  2  0  0  0  0
 18 38  1  0  0  0  0
 19 21  2  0  0  0  0
 19 39  1  0  0  0  0
 20 47  1  0  0  0  0
 21 40  1  0  0  0  0
 22 23  1  0  0  0  0
 22 50  1  0  0  0  0
 23 31  2  0  0  0  0
 23 58  1  0  0  0  0
 24 81  1  0  0  0  0
 25 82  1  0  0  0  0
 26 28  2  0  0  0  0
 26 81  1  0  0  0  0
 27 83  1  0  0  0  0
 28 84  1  0  0  0  0
 29 65  2  0  0  0  0
 30 59  1  0  0  0  0
 30 66  2  0  0  0  0
 31 51  1  0  0  0  0
 31 66  1  0  0  0  0
 32 67  1  0  0  0  0
 32 70  1  0  0  0  0
 33 71  1  0  0  0  0
 33 76  2  0  0  0  0
 34 48  1  0  0  0  0
 34 72  1  0  0  0  0
 34 77  2  0  0  0  0
 35 61  1  0  0  0  0
 35 68  1  0  0  0  0
 35 78  2  0  0  0  0
 36 62  1  0  0  0  0
 36 73  1  0  0  0  0
 36 79  2  0  0  0  0
 37 69  1  0  0  0  0
 37 74  1  0  0  0  0
 37 80  2  0  0  0  0
 38 41  1  0  0  0  0
 39 48  1  0  0  0  0
 40 68  1  0  0  0  0
 41 43  1  0  0  0  0
 42 44  1  0  0  0  0
 42 45  1  0  0  0  0
 43 47  1  0  0  0  0
 44 49  1  0  0  0  0
 45 69  1  0  0  0  0
 46 49  1  0  0  0  0
 46 69  1  0  0  0  0
 47 72  1  0  0  0  0
 48 68  1  0  0  0  0
 49 67  1  0  0  0  0
 52 62  1  0  0  0  0
 53 63  1  0  0  0  0
 54 64  1  0  0  0  0
 55 64  1  0  0  0  0
 56 64  1  0  0  0  0
 57 75  1  0  0  0  0
 58 60  1  0  0  0  0
 59 82  1  0  0  0  0
 60 63  1  0  0  0  0
 61 64  1  0  0  0  0
 61 73  1  0  0  0  0
 62 75  1  0  0  0  0
 63 74  1  0  0  0  0
 65 67  1  0  0  0  0
M  CHG  1  75   1
M  ISO  4  37 100  59 101  74 100  82 101
M  END
> <Batch ID>
0106

> <Smiles>
CNC(C)C(=O)NC(C(=O)N1Cc2cc([101O:1][101CH2:1]c3cc(C)c(CCC(C)[100NH:0][100C:0](=O)N4CCCC(n5nc(-c6ccc(Oc7ccc(F)cc7F)cc6)c(C(N)=O)c5N)C4)c(C)n3)ccc2CC1C(=O)NC1CCCc2ccccc21)C(C)(C)C

> <Shape>
0.297

> <Color>
0.210

> <Negative vol penalty>
0.000

$$$$

  -OEChem-04052319483D

 92100  0     1  0  0  0  0  0999 V2000
  -24.5447  -35.3071   22.4383 C   0  0  0  0  0  0  0  0  0  0  0  0
  -25.3306  -34.1630   22.3443 C   0  0  0  0  0  0  0  0  0  0  0  0
  -25.1141  -20.7731   19.3369 C   0  0  0  0  0  0  0  0  0  0  0  0
  -24.3561   -7.8614   19.8304 C   0  0  0  0  0  0  0  0  0  0  0  0
  -23.0497   -9.8898   19.9556 C   0  0  0  0  0  0  0  0  0  0  0  0
  -23.2366  -35.2159   22.9120 C   0  0  0  0  0  0  0  0  0  0  0  0
  -24.8090  -32.9271   22.7250 C   0  0  0  0  0  0  0  0  0  0  0  0
  -25.8853  -29.2581   19.4046 C   0  0  0  0  0  0  0  0  0  0  0  0
  -26.2458  -21.1105   18.5947 C   0  0  0  0  0  0  0  0  0  0  0  0
  -25.0363  -19.5294   19.9637 C   0  0  0  0  0  0  0  0  0  0  0  0
  -23.3660   -7.1800   20.5381 C   0  0  0  0  0  0  0  0  0  0  0  0
  -22.0595   -9.2084   20.6633 C   0  0  0  0  0  0  0  0  0  0  0  0
  -27.1708  -28.7199   19.4448 C   0  0  0  0  0  0  0  0  0  0  0  0
  -22.3681   -6.8708   23.7526 C   0  0  0  0  0  0  0  0  0  0  0  0
  -22.7752   -6.0294   24.7879 C   0  0  0  0  0  0  0  0  0  0  0  0
  -26.3355  -26.8341   20.6959 C   0  0  0  0  0  0  0  0  0  0  0  0
  -21.7542   -4.1509   23.6628 C   0  0  0  0  0  0  0  0  0  0  0  0
  -24.1980   -9.2164   19.5392 C   0  0  0  0  0  0  0  0  0  0  0  0
  -25.3182  -10.0701   17.4123 C   0  0  0  0  0  0  0  0  0  0  0  0
  -22.6955  -33.9768   23.2896 C   0  0  0  0  0  0  0  0  0  0  0  0
  -24.8154  -28.5926   20.0201 C   0  0  0  0  0  0  0  0  0  0  0  0
  -23.4928  -32.8194   23.2055 C   0  0  0  0  0  0  0  0  0  0  0  0
  -25.0369  -27.3647   20.6598 C   0  0  0  0  0  0  0  0  0  0  0  0
  -27.2997  -20.2041   18.4791 C   0  0  0  0  0  0  0  0  0  0  0  0
  -26.0902  -18.6230   19.8480 C   0  0  0  0  0  0  0  0  0  0  0  0
  -27.2219  -18.9603   19.1057 C   0  0  0  0  0  0  0  0  0  0  0  0
  -22.2177   -7.8535   20.9545 C   0  0  0  0  0  0  0  0  0  0  0  0
  -27.3966  -27.5092   20.0931 C   0  0  0  0  0  0  0  0  0  0  0  0
  -21.6539   -6.3523   22.6724 C   0  0  0  0  0  0  0  0  0  0  0  0
  -22.4683   -4.6695   24.7430 C   0  0  0  0  0  0  0  0  0  0  0  0
  -21.3471   -4.9923   22.6274 C   0  0  0  0  0  0  0  0  0  0  0  0
  -25.2208   -9.9210   18.8087 C   0  0  0  0  0  0  0  0  0  0  0  0
  -26.4564  -10.8158   17.2252 C   0  0  0  0  0  0  0  0  0  0  0  0
  -24.4568   -9.5787   16.3768 C   0  0  0  0  0  0  0  0  0  0  0  0
  -22.8068  -29.2826   22.3851 C   0  0  0  0  0  0  0  0  0  0  0  0
  -21.4029  -26.5011   21.4824 C   0  0  0  0  0  0  0  0  0  0  0  0
  -21.7089  -23.4617   19.9609 C   0  0  0  0  0  0  0  0  0  0  0  0
  -29.8130  -14.9718   18.5172 C   0  0  0  0  0  0  0  0  0  0  0  0
  -21.2921  -33.9351   23.8402 C   0  0  0  0  0  0  0  0  0  0  0  0
  -23.4299  -29.1732   19.9447 C   0  0  0  0  0  0  0  0  0  0  0  0
  -23.9186  -26.6006   21.3186 C   0  0  0  0  0  0  0  0  0  0  0  0
  -20.6909  -32.5322   23.8698 C   0  0  0  0  0  0  0  0  0  0  0  0
  -30.1266  -12.1057   20.4442 C   0  0  0  0  0  0  0  0  0  0  0  0
  -21.6898  -31.5354   24.4489 C   0  0  0  0  0  0  0  0  0  0  0  0
  -28.8880  -11.2852   20.0868 C   0  0  0  0  0  0  0  0  0  0  0  0
  -29.7825  -13.5853   20.5674 C   0  0  0  0  0  0  0  0  0  0  0  0
  -27.9113  -13.3507   18.9659 C   0  0  0  0  0  0  0  0  0  0  0  0
  -22.9546  -31.4570   23.5854 C   0  0  1  0  0  0  0  0  0  0  0  0
  -22.5080  -28.6645   21.0486 C   0  0  1  0  0  0  0  0  0  0  0  0
  -28.2026  -11.8424   18.8269 C   0  0  2  0  0  0  0  0  0  0  0  0
  -24.8092  -16.4570   19.9929 C   0  0  0  0  0  0  0  0  0  0  0  0
  -25.8748  -17.4318   22.0591 C   0  0  0  0  0  0  0  0  0  0  0  0
  -20.3990  -21.3929   19.4117 C   0  0  0  0  0  0  0  0  0  0  0  0
  -30.9813  -21.1822   17.8042 C   0  0  0  0  0  0  0  0  0  0  0  0
  -30.4012  -23.0352   20.9535 C   0  0  0  0  0  0  0  0  0  0  0  0
  -21.6290  -25.5901   24.3857 C   0  0  0  0  0  0  0  0  0  0  0  0
  -21.2091  -23.2469   23.6102 C   0  0  0  0  0  0  0  0  0  0  0  0
  -19.4681  -25.0013   23.2728 C   0  0  0  0  0  0  0  0  0  0  0  0
  -29.5226  -16.3727   16.5095 C   0  0  0  0  0  0  0  0  0  0  0  0
  -22.0867  -23.8545   17.0520 C   0  0  0  0  0  0  0  0  0  0  0  0
  -28.5140  -20.5944   17.6698 C   0  0  0  0  0  0  0  0  0  0  0  0
  -30.0745  -25.1241   19.5537 C   0  0  0  0  0  0  0  0  0  0  0  0
  -29.2966  -22.8003   18.7075 C   0  0  0  0  0  0  0  0  0  0  0  0
  -27.9211  -16.6459   18.3661 C   0  0  0  0  0  0  0  0  0  0  0  0
  -28.7557  -25.5597   20.1847 C   0  0  0  0  0  0  0  0  0  1  0  0
  -25.9819  -17.2978   20.5292 C   0  0  0  0  0  0  0  0  0  0  0  0
  -28.3520  -17.9884   18.9817 C   0  0  2  0  0  0  0  0  0  0  0  0
  -21.5656  -25.0490   21.8620 C   0  0  1  0  0  0  0  0  0  0  0  0
  -20.8470  -22.7623   18.9252 C   0  0  2  0  0  0  0  0  0  0  0  0
  -29.6128  -21.3018   18.4919 C   0  0  2  0  0  0  0  0  0  0  0  0
  -30.3248  -23.6050   19.5317 C   0  0  2  0  0  0  0  0  0  0  0  0
  -20.9896  -24.7370   23.2720 C   0  0  0  0  0  0  0  0  0  0  0  0
  -26.2177  -10.5233   19.4624 N   0  0  0  0  0  0  0  0  0  0  0  0
  -26.9524  -11.0582   18.4723 N   0  0  0  0  0  0  0  0  0  0  0  0
  -22.5830  -27.2126   21.2233 N   0  0  0  0  0  0  0  0  0  0  0  0
  -29.1283  -14.0795   19.3555 N   0  0  0  0  0  0  0  0  0  0  0  0
  -27.0714  -11.2811   16.1172 N   0  0  0  0  0  0  0  0  0  0  0  0
  -23.3305   -8.8297   16.7440 N   0  0  0  0  0  0  0  0  0  0  0  0
  -22.7100  -30.6609   22.4018 N   0  0  0  0  0  0  0  0  0  0  0  0
  -20.9593  -24.2750   20.7842 N   0  0  0  0  0  0  0  0  0  0  0  0
  -29.0415  -15.8977   17.7990 N   0  0  0  0  0  0  0  0  0  0  0  0
  -29.0224  -17.7021   20.2973 N   0  3  0  0  0  0  0  0  0  0  0  0
  -21.6054  -22.5848   17.6547 N   0  3  0  0  0  0  0  0  0  0  0  0
  -24.6883   -9.7833   15.1610 O   0  0  0  0  0  0  0  0  0  0  0  0
  -23.1019  -28.5622   23.3315 O   0  0  0  0  0  0  0  0  0  0  0  0
  -20.2702  -26.9844   21.4114 O   0  0  0  0  0  0  0  0  0  0  0  0
  -22.9250  -23.2995   20.0347 O   0  0  0  0  0  0  0  0  0  0  0  0
  -31.0469  -14.9486   18.4206 O   0  0  0  0  0  0  0  0  0  0  0  0
  -21.2512   -7.1888   21.6449 O   0  0  0  0  0  0  0  0  0  0  0  0
  -28.6505  -26.9820   20.1344 O   0  0  0  0  0  0  0  0  0  1  0  0
  -22.8607   -3.8613   25.7366 F   0  0  0  0  0  0  0  0  0  0  0  0
  -20.6623   -4.4882   21.5917 F   0  0  0  0  0  0  0  0  0  0  0  0
  1  2  1  0  0  0  0
  1  6  2  0  0  0  0
  2  7  2  0  0  0  0
  3  9  2  0  0  0  0
  3 10  1  0  0  0  0
  4 11  2  0  0  0  0
  4 18  1  0  0  0  0
  5 12  1  0  0  0  0
  5 18  2  0  0  0  0
  6 20  1  0  0  0  0
  7 22  1  0  0  0  0
  8 13  2  0  0  0  0
  8 21  1  0  0  0  0
  9 24  1  0  0  0  0
 10 25  2  0  0  0  0
 11 27  1  0  0  0  0
 12 27  2  0  0  0  0
 13 28  1  0  0  0  0
 14 15  2  0  0  0  0
 14 29  1  0  0  0  0
 15 30  1  0  0  0  0
 16 23  1  0  0  0  0
 16 28  2  0  0  0  0
 17 30  2  0  0  0  0
 17 31  1  0  0  0  0
 18 32  1  0  0  0  0
 19 32  1  0  0  0  0
 19 33  2  0  0  0  0
 19 34  1  0  0  0  0
 20 22  2  0  0  0  0
 20 39  1  0  0  0  0
 21 23  2  0  0  0  0
 21 40  1  0  0  0  0
 22 48  1  0  0  0  0
 23 41  1  0  0  0  0
 24 26  2  0  0  0  0
 24 61  1  0  0  0  0
 25 26  1  0  0  0  0
 25 66  1  0  0  0  0
 26 67  1  0  0  0  0
 27 89  1  0  0  0  0
 28 90  1  0  0  0  0
 29 31  2  0  0  0  0
 29 89  1  0  0  0  0
 30 91  1  0  0  0  0
 31 92  1  0  0  0  0
 32 73  2  0  0  0  0
 33 74  1  0  0  0  0
 33 77  1  0  0  0  0
 34 78  1  0  0  0  0
 34 84  2  0  0  0  0
 35 49  1  0  0  0  0
 35 79  1  0  0  0  0
 35 85  2  0  0  0  0
 36 68  1  0  0  0  0
 36 75  1  0  0  0  0
 36 86  2  0  0  0  0
 37 69  1  0  0  0  0
 37 80  1  0  0  0  0
 37 87  2  0  0  0  0
 38 76  1  0  0  0  0
 38 81  1  0  0  0  0
 38 88  2  0  0  0  0
 39 42  1  0  0  0  0
 40 49  1  0  0  0  0
 41 75  1  0  0  0  0
 42 44  1  0  0  0  0
 43 45  1  0  0  0  0
 43 46  1  0  0  0  0
 44 48  1  0  0  0  0
 45 50  1  0  0  0  0
 46 76  1  0  0  0  0
 47 50  1  0  0  0  0
 47 76  1  0  0  0  0
 48 79  1  0  0  0  0
 49 75  1  0  0  0  0
 50 74  1  0  0  0  0
 51 66  1  0  0  0  0
 52 66  1  0  0  0  0
 53 69  1  0  0  0  0
 54 70  1  0  0  0  0
 55 71  1  0  0  0  0
 56 72  1  0  0  0  0
 57 72  1  0  0  0  0
 58 72  1  0  0  0  0
 59 81  1  0  0  0  0
 60 83  1  0  0  0  0
 61 70  1  0  0  0  0
 62 65  1  0  0  0  0
 62 71  1  0  0  0  0
 63 70  1  0  0  0  0
 63 71  1  0  0  0  0
 64 67  1  0  0  0  0
 64 81  1  0  0  0  0
 65 90  1  0  0  0  0
 67 82  1  0  0  0  0
 68 72  1  0  0  0  0
 68 80  1  0  0  0  0
 69 83  1  0  0  0  0
 73 74  1  0  0  0  0
M  CHG  2  82   1  83   1
M  ISO  4  38 100  65 101  81 100  90 101
M  END
> <Batch ID>
0106

> <Smiles>
CNC(C)C(=O)NC(C(=O)N1Cc2cc([101O:1][101CH2:1]CC(C)CC(C)Cc3cccc(C(C)C)c3C(N)C[100N:0](C)[100C:0](=O)N3CCCC(n4nc(-c5ccc(Oc6ccc(F)cc6F)cc5)c(C(N)=O)c4N)C3)ccc2CC1C(=O)NC1CCCc2ccccc21)C(C)(C)C

> <Shape>
0.255

> <Color>
0.104

> <Negative vol penalty>
0.000

$$$$

  -OEChem-04052319483D

 83 91  0     1  0  0  0  0  0999 V2000
  -22.3575  -12.1522   19.1517 C   0  0  0  0  0  0  0  0  0  0  0  0
  -22.1327  -13.5250   19.1694 C   0  0  0  0  0  0  0  0  0  0  0  0
  -27.2850  -30.9535   21.8411 C   0  0  0  0  0  0  0  0  0  0  0  0
  -25.2438  -31.5959   20.7195 C   0  0  0  0  0  0  0  0  0  0  0  0
  -23.4954  -11.6254   19.7613 C   0  0  0  0  0  0  0  0  0  0  0  0
  -23.0451  -14.3717   19.7978 C   0  0  0  0  0  0  0  0  0  0  0  0
  -24.1027  -18.4819   17.0350 C   0  0  0  0  0  0  0  0  0  0  0  0
  -27.4172  -32.2484   22.3423 C   0  0  0  0  0  0  0  0  0  0  0  0
  -25.3760  -32.8909   21.2208 C   0  0  0  0  0  0  0  0  0  0  0  0
  -23.1601  -19.5092   17.0354 C   0  0  0  0  0  0  0  0  0  0  0  0
  -24.8079  -34.5012   24.1370 C   0  0  0  0  0  0  0  0  0  0  0  0
  -23.6708  -35.1066   24.6720 C   0  0  0  0  0  0  0  0  0  0  0  0
  -24.4812  -20.7125   18.6558 C   0  0  0  0  0  0  0  0  0  0  0  0
  -23.2290  -23.8588   13.7192 C   0  0  0  0  0  0  0  0  0  0  0  0
  -23.8436  -36.8764   23.0364 C   0  0  0  0  0  0  0  0  0  0  0  0
  -21.0660  -23.1254   15.2122 C   0  0  0  0  0  0  0  0  0  0  0  0
  -26.1983  -30.6272   21.0296 C   0  0  0  0  0  0  0  0  0  0  0  0
  -25.3901  -28.2091   21.1134 C   0  0  0  0  0  0  0  0  0  0  0  0
  -24.4272  -12.4670   20.3891 C   0  0  0  0  0  0  0  0  0  0  0  0
  -25.2380  -18.5573   17.8545 C   0  0  0  0  0  0  0  0  0  0  0  0
  -24.1959  -13.8556   20.4176 C   0  0  0  0  0  0  0  0  0  0  0  0
  -25.4380  -19.6860   18.6621 C   0  0  0  0  0  0  0  0  0  0  0  0
  -22.1337  -23.7294   15.8564 C   0  0  0  0  0  0  0  0  0  0  0  0
  -23.2319  -24.1001   15.0885 C   0  0  0  0  0  0  0  0  0  0  0  0
  -26.4627  -33.2171   22.0322 C   0  0  0  0  0  0  0  0  0  0  0  0
  -23.3478  -20.6234   17.8480 C   0  0  0  0  0  0  0  0  0  0  0  0
  -25.4629  -35.0834   23.0518 C   0  0  0  0  0  0  0  0  0  0  0  0
  -23.1887  -36.2941   24.1217 C   0  0  0  0  0  0  0  0  0  0  0  0
  -24.9807  -36.2710   22.5015 C   0  0  0  0  0  0  0  0  0  0  0  0
  -26.0615  -29.2899   20.5110 C   0  0  0  0  0  0  0  0  0  0  0  0
  -22.1124  -23.2488   13.1706 C   0  0  0  0  0  0  0  0  0  0  0  0
  -25.5483  -27.1705   20.2287 C   0  0  0  0  0  0  0  0  0  0  0  0
  -24.6862  -28.1493   22.3610 C   0  0  0  0  0  0  0  0  0  0  0  0
  -26.3860  -16.8274   20.2615 C   0  0  0  0  0  0  0  0  0  0  0  0
  -28.9264  -18.8235   19.9717 C   0  0  0  0  0  0  0  0  0  0  0  0
  -30.1334  -21.8469   18.9474 C   0  0  0  0  0  0  0  0  0  0  0  0
  -25.5248  -25.1427   15.0430 C   0  0  0  0  0  0  0  0  0  0  0  0
  -25.6183  -11.8469   21.0756 C   0  0  0  0  0  0  0  0  0  0  0  0
  -26.2588  -17.4531   17.8226 C   0  0  0  0  0  0  0  0  0  0  0  0
  -26.6502  -19.8247   19.5451 C   0  0  0  0  0  0  0  0  0  0  0  0
  -26.7264  -12.8473   21.3946 C   0  0  0  0  0  0  0  0  0  0  0  0
  -28.5078  -26.7445   16.1443 C   0  0  0  0  0  0  0  0  0  0  0  0
  -26.1428  -14.1065   22.0276 C   0  0  0  0  0  0  0  0  0  0  0  0
  -28.0821  -27.4606   17.4281 C   0  0  0  0  0  0  0  0  0  0  0  0
  -27.4037  -26.7683   15.0888 C   0  0  0  0  0  0  0  0  0  0  0  0
  -25.6729  -26.9887   16.8280 C   0  0  0  0  0  0  0  0  0  0  0  0
  -25.1751  -14.8089   21.0676 C   0  0  1  0  0  0  0  0  0  0  0  0
  -27.1195  -17.3984   19.0810 C   0  0  1  0  0  0  0  0  0  0  0  0
  -26.7285  -26.9345   17.9445 C   0  0  2  0  0  0  0  0  0  0  0  0
  -32.2424  -23.2051   18.8782 C   0  0  0  0  0  0  0  0  0  0  0  0
  -21.8629  -20.4467   11.9486 C   0  0  0  0  0  0  0  0  0  0  0  0
  -22.6086  -21.4344    9.7733 C   0  0  0  0  0  0  0  0  0  0  0  0
  -28.6328  -19.4268   22.9483 C   0  0  0  0  0  0  0  0  0  0  0  0
  -30.0895  -21.4353   22.6138 C   0  0  0  0  0  0  0  0  0  0  0  0
  -30.9927  -19.1534   22.1672 C   0  0  0  0  0  0  0  0  0  0  0  0
  -30.0965  -21.9671   15.9905 C   0  0  0  0  0  0  0  0  0  0  0  0
  -22.0800  -23.9630   17.3467 C   0  0  0  0  0  0  0  0  0  0  0  0
  -22.0742  -22.9756   11.7040 C   0  0  0  0  0  0  0  0  0  0  0  0
  -22.9066  -22.9440   18.1234 C   0  0  0  0  0  0  0  0  0  1  0  0
  -29.3122  -20.1563   20.5666 C   0  0  1  0  0  0  0  0  0  0  0  0
  -31.3584  -22.2184   18.1314 C   0  0  2  0  0  0  0  0  0  0  0  0
  -22.6389  -21.5932   11.2955 C   0  0  0  0  0  0  0  0  0  0  0  0
  -29.7329  -20.0398   22.0589 C   0  0  0  0  0  0  0  0  0  0  0  0
  -21.0269  -22.8746   13.8843 N   0  0  0  0  0  0  0  0  0  0  0  0
  -26.6059  -28.9677   19.3347 N   0  0  0  0  0  0  0  0  0  0  0  0
  -26.2769  -27.6726   19.1908 N   0  0  0  0  0  0  0  0  0  0  0  0
  -27.6166  -18.7156   19.4834 N   0  0  0  0  0  0  0  0  0  0  0  0
  -26.1526  -26.2520   15.6482 N   0  0  0  0  0  0  0  0  0  0  0  0
  -25.1341  -25.8857   20.2451 N   0  0  0  0  0  0  0  0  0  0  0  0
  -24.6199  -29.3079   23.1469 N   0  0  0  0  0  0  0  0  0  0  0  0
  -24.3592  -24.7206   15.6817 N   0  0  0  0  0  0  0  0  0  0  0  0
  -25.9081  -15.5465   20.0611 N   0  0  0  0  0  0  0  0  0  0  0  0
  -30.3445  -20.7085   19.6961 N   0  0  0  0  0  0  0  0  0  0  0  0
  -30.9511  -22.8376   16.8384 N   0  3  0  0  0  0  0  0  0  0  0  0
  -24.1465  -27.0952   22.7747 O   0  0  0  0  0  0  0  0  0  0  0  0
  -26.2640  -17.4988   21.2794 O   0  0  0  0  0  0  0  0  0  0  0  0
  -29.7589  -17.9140   19.9349 O   0  0  0  0  0  0  0  0  0  0  0  0
  -29.0945  -22.5033   18.9258 O   0  0  0  0  0  0  0  0  0  0  0  0
  -26.0017  -24.5899   14.0486 O   0  0  0  0  0  0  0  0  0  0  0  0
  -26.5912  -34.4807   22.5214 O   0  0  0  0  0  0  0  0  0  0  0  0
  -22.4290  -21.6272   17.8509 O   0  0  0  0  0  0  0  0  0  1  0  0
  -22.0958  -36.8746   24.6345 F   0  0  0  0  0  0  0  0  0  0  0  0
  -25.6050  -36.8344   21.4581 F   0  0  0  0  0  0  0  0  0  0  0  0
  1  2  1  0  0  0  0
  1  5  2  0  0  0  0
  2  6  2  0  0  0  0
  3  8  2  0  0  0  0
  3 17  1  0  0  0  0
  4  9  1  0  0  0  0
  4 17  2  0  0  0  0
  5 19  1  0  0  0  0
  6 21  1  0  0  0  0
  7 10  2  0  0  0  0
  7 20  1  0  0  0  0
  8 25  1  0  0  0  0
  9 25  2  0  0  0  0
 10 26  1  0  0  0  0
 11 12  2  0  0  0  0
 11 27  1  0  0  0  0
 12 28  1  0  0  0  0
 13 22  1  0  0  0  0
 13 26  2  0  0  0  0
 14 24  1  0  0  0  0
 14 31  2  0  0  0  0
 15 28  2  0  0  0  0
 15 29  1  0  0  0  0
 16 23  1  0  0  0  0
 16 64  2  0  0  0  0
 17 30  1  0  0  0  0
 18 30  1  0  0  0  0
 18 32  2  0  0  0  0
 18 33  1  0  0  0  0
 19 21  2  0  0  0  0
 19 38  1  0  0  0  0
 20 22  2  0  0  0  0
 20 39  1  0  0  0  0
 21 47  1  0  0  0  0
 22 40  1  0  0  0  0
 23 24  2  0  0  0  0
 23 57  1  0  0  0  0
 24 71  1  0  0  0  0
 25 80  1  0  0  0  0
 26 81  1  0  0  0  0
 27 29  2  0  0  0  0
 27 80  1  0  0  0  0
 28 82  1  0  0  0  0
 29 83  1  0  0  0  0
 30 65  2  0  0  0  0
 31 58  1  0  0  0  0
 31 64  1  0  0  0  0
 32 66  1  0  0  0  0
 32 69  1  0  0  0  0
 33 70  1  0  0  0  0
 33 75  2  0  0  0  0
 34 48  1  0  0  0  0
 34 72  1  0  0  0  0
 34 76  2  0  0  0  0
 35 60  1  0  0  0  0
 35 67  1  0  0  0  0
 35 77  2  0  0  0  0
 36 61  1  0  0  0  0
 36 73  1  0  0  0  0
 36 78  2  0  0  0  0
 37 68  1  0  0  0  0
 37 71  1  0  0  0  0
 37 79  2  0  0  0  0
 38 41  1  0  0  0  0
 39 48  1  0  0  0  0
 40 67  1  0  0  0  0
 41 43  1  0  0  0  0
 42 44  1  0  0  0  0
 42 45  1  0  0  0  0
 43 47  1  0  0  0  0
 44 49  1  0  0  0  0
 45 68  1  0  0  0  0
 46 49  1  0  0  0  0
 46 68  1  0  0  0  0
 47 72  1  0  0  0  0
 48 67  1  0  0  0  0
 49 66  1  0  0  0  0
 50 61  1  0  0  0  0
 51 62  1  0  0  0  0
 52 62  1  0  0  0  0
 53 63  1  0  0  0  0
 54 63  1  0  0  0  0
 55 63  1  0  0  0  0
 56 74  1  0  0  0  0
 57 59  1  0  0  0  0
 58 62  1  0  0  0  0
 59 81  1  0  0  0  0
 60 63  1  0  0  0  0
 60 73  1  0  0  0  0
 61 74  1  0  0  0  0
 65 66  1  0  0  0  0
M  CHG  1  74   1
M  ISO  4  37 100  59 101  71 100  81 101
M  END
> <Batch ID>
0106

> <Smiles>
CNC(C)C(=O)NC(C(=O)N1Cc2cc([101O:1][101CH2:1]Cc3cnc(CC(C)C)cc3[100NH:0][100C:0](=O)N3CCCC(n4nc(-c5ccc(Oc6ccc(F)cc6F)cc5)c(C(N)=O)c4N)C3)ccc2CC1C(=O)NC1CCCc2ccccc21)C(C)(C)C

> <Shape>
0.185

> <Color>
0.086

> <Negative vol penalty>
0.000

$$$$

  -OEChem-04052319483D

 81 89  0     1  0  0  0  0  0999 V2000
  -17.0846  -30.4419   23.6024 C   0  0  0  0  0  0  0  0  0  0  0  0
  -18.3995  -30.8797   23.4805 C   0  0  0  0  0  0  0  0  0  0  0  0
  -24.5370  -12.7515   21.5386 C   0  0  0  0  0  0  0  0  0  0  0  0
  -26.0177  -12.7148   19.6299 C   0  0  0  0  0  0  0  0  0  0  0  0
  -16.7876  -29.0859   23.4717 C   0  0  0  0  0  0  0  0  0  0  0  0
  -19.4184  -29.9615   23.2289 C   0  0  0  0  0  0  0  0  0  0  0  0
  -25.6970  -29.3819   19.8291 C   0  0  0  0  0  0  0  0  0  0  0  0
  -23.9935  -11.5301   21.1406 C   0  0  0  0  0  0  0  0  0  0  0  0
  -25.4743  -11.4933   19.2318 C   0  0  0  0  0  0  0  0  0  0  0  0
  -27.0150  -28.9903   20.0604 C   0  0  0  0  0  0  0  0  0  0  0  0
  -21.7563  -10.4244   18.8610 C   0  0  0  0  0  0  0  0  0  0  0  0
  -20.3680  -10.2929   18.8914 C   0  0  0  0  0  0  0  0  0  0  0  0
  -26.3732  -26.6826   19.7747 C   0  0  0  0  0  0  0  0  0  0  0  0
  -29.9508  -22.8429   19.3562 C   0  0  0  0  0  0  0  0  0  0  0  0
  -20.5755   -8.4660   20.4588 C   0  0  0  0  0  0  0  0  0  0  0  0
  -32.0724  -23.2927   20.3324 C   0  0  0  0  0  0  0  0  0  0  0  0
  -25.5490  -13.3439   20.7833 C   0  0  0  0  0  0  0  0  0  0  0  0
  -27.2130  -14.8092   22.0449 C   0  0  0  0  0  0  0  0  0  0  0  0
  -17.8020  -28.1519   23.2087 C   0  0  0  0  0  0  0  0  0  0  0  0
  -24.7035  -28.4243   19.5793 C   0  0  0  0  0  0  0  0  0  0  0  0
  -19.1348  -28.5916   23.0958 C   0  0  0  0  0  0  0  0  0  0  0  0
  -25.0439  -27.0647   19.5381 C   0  0  0  0  0  0  0  0  0  0  0  0
  -31.0620  -23.6717   19.4633 C   0  0  0  0  0  0  0  0  0  0  0  0
  -29.8848  -21.6769   20.1108 C   0  0  0  0  0  0  0  0  0  0  0  0
  -24.4622  -10.9010   19.9872 C   0  0  0  0  0  0  0  0  0  0  0  0
  -27.3527  -27.6403   20.0361 C   0  0  0  0  0  0  0  0  0  0  0  0
  -22.5542   -9.5766   19.6294 C   0  0  0  0  0  0  0  0  0  0  0  0
  -19.7776   -9.3137   19.6904 C   0  0  0  0  0  0  0  0  0  0  0  0
  -21.9638   -8.5975   20.4283 C   0  0  0  0  0  0  0  0  0  0  0  0
  -26.1104  -14.6058   21.1936 C   0  0  0  0  0  0  0  0  0  0  0  0
  -30.9480  -21.3871   20.9508 C   0  0  0  0  0  0  0  0  0  0  0  0
  -27.3429  -16.1745   22.1183 C   0  0  0  0  0  0  0  0  0  0  0  0
  -28.0455  -13.8496   22.7097 C   0  0  0  0  0  0  0  0  0  0  0  0
  -22.0183  -27.5456   21.0357 C   0  0  0  0  0  0  0  0  0  0  0  0
  -21.6636  -25.6778   18.4073 C   0  0  0  0  0  0  0  0  0  0  0  0
  -23.1303  -24.0452   15.7939 C   0  0  0  0  0  0  0  0  0  0  0  0
  -27.4448  -21.1942   19.7109 C   0  0  0  0  0  0  0  0  0  0  0  0
  -17.4387  -26.6906   23.1224 C   0  0  0  0  0  0  0  0  0  0  0  0
  -23.2916  -28.8648   19.3053 C   0  0  0  0  0  0  0  0  0  0  0  0
  -24.0184  -25.9988   19.2543 C   0  0  0  0  0  0  0  0  0  0  0  0
  -18.5255  -25.8295   22.4839 C   0  0  0  0  0  0  0  0  0  0  0  0
  -24.2515  -19.8662   20.5573 C   0  0  0  0  0  0  0  0  0  0  0  0
  -19.8906  -26.1679   23.0745 C   0  0  0  0  0  0  0  0  0  0  0  0
  -24.5412  -18.3960   20.8683 C   0  0  0  0  0  0  0  0  0  0  0  0
  -25.1153  -20.3837   19.4085 C   0  0  0  0  0  0  0  0  0  0  0  0
  -26.8484  -18.6981   19.8822 C   0  0  0  0  0  0  0  0  0  0  0  0
  -20.2642  -27.6293   22.7984 C   0  0  1  0  0  0  0  0  0  0  0  0
  -22.2623  -27.7704   19.5702 C   0  0  1  0  0  0  0  0  0  0  0  0
  -26.0486  -18.1501   21.0754 C   0  0  2  0  0  0  0  0  0  0  0  0
  -30.9356  -20.1486   21.7868 C   0  0  0  0  0  0  0  0  0  0  0  0
  -22.5864  -22.5718   13.8367 C   0  0  0  0  0  0  0  0  0  0  0  0
  -21.3092  -23.3063   20.2942 C   0  0  0  0  0  0  0  0  0  0  0  0
  -21.7225  -21.7858   18.3486 C   0  0  0  0  0  0  0  0  0  0  0  0
  -19.7563  -23.3209   18.3339 C   0  0  0  0  0  0  0  0  0  0  0  0
  -24.1775  -26.0279   13.8621 C   0  0  0  0  0  0  0  0  0  0  0  0
  -31.1642  -24.9430   18.6590 C   0  0  0  0  0  0  0  0  0  0  0  0
  -30.5800  -26.1678   19.3660 C   0  0  0  0  0  0  0  0  0  0  0  0
  -29.0809  -26.0604   19.6200 C   0  0  0  0  0  0  0  0  0  1  0  0
  -22.0770  -24.2763   18.0280 C   0  0  1  0  0  0  0  0  0  0  0  0
  -22.7900  -24.0010   14.3151 C   0  0  2  0  0  0  0  0  0  0  0  0
  -21.2354  -23.1920   18.7585 C   0  0  0  0  0  0  0  0  0  0  0  0
  -32.0439  -22.1678   21.0815 N   0  0  0  0  0  0  0  0  0  0  0  0
  -25.5776  -15.7504   20.7576 N   0  0  0  0  0  0  0  0  0  0  0  0
  -26.3487  -16.6861   21.3373 N   0  0  0  0  0  0  0  0  0  0  0  0
  -22.6504  -26.4792   18.9989 N   0  0  0  0  0  0  0  0  0  0  0  0
  -26.5308  -20.1199   19.6762 N   0  0  0  0  0  0  0  0  0  0  0  0
  -28.2094  -16.9754   22.7742 N   0  0  0  0  0  0  0  0  0  0  0  0
  -27.7730  -12.4872   22.5254 N   0  0  0  0  0  0  0  0  0  0  0  0
  -28.7568  -20.8257   20.0068 N   0  0  0  0  0  0  0  0  0  0  0  0
  -20.7167  -27.7858   21.4326 N   0  0  0  0  0  0  0  0  0  0  0  0
  -22.0042  -24.2091   16.5725 N   0  0  0  0  0  0  0  0  0  0  0  0
  -23.8862  -24.6136   13.5127 N   0  3  0  0  0  0  0  0  0  0  0  0
  -28.9924  -14.1905   23.4584 O   0  0  0  0  0  0  0  0  0  0  0  0
  -22.9421  -27.1797   21.7528 O   0  0  0  0  0  0  0  0  0  0  0  0
  -20.5097  -26.0503   18.1803 O   0  0  0  0  0  0  0  0  0  0  0  0
  -24.2798  -23.9409   16.2162 O   0  0  0  0  0  0  0  0  0  0  0  0
  -27.0849  -22.3589   19.5211 O   0  0  0  0  0  0  0  0  0  0  0  0
  -23.9323   -9.7090   19.5986 O   0  0  0  0  0  0  0  0  0  0  0  0
  -28.6382  -27.2554   20.2622 O   0  0  0  0  0  0  0  0  0  1  0  0
  -18.4443   -9.1885   19.7207 F   0  0  0  0  0  0  0  0  0  0  0  0
  -22.7251   -7.7810   21.1696 F   0  0  0  0  0  0  0  0  0  0  0  0
  1  2  1  0  0  0  0
  1  5  2  0  0  0  0
  2  6  2  0  0  0  0
  3  8  2  0  0  0  0
  3 17  1  0  0  0  0
  4  9  1  0  0  0  0
  4 17  2  0  0  0  0
  5 19  1  0  0  0  0
  6 21  1  0  0  0  0
  7 10  2  0  0  0  0
  7 20  1  0  0  0  0
  8 25  1  0  0  0  0
  9 25  2  0  0  0  0
 10 26  1  0  0  0  0
 11 12  2  0  0  0  0
 11 27  1  0  0  0  0
 12 28  1  0  0  0  0
 13 22  1  0  0  0  0
 13 26  2  0  0  0  0
 14 23  2  0  0  0  0
 14 24  1  0  0  0  0
 15 28  2  0  0  0  0
 15 29  1  0  0  0  0
 16 23  1  0  0  0  0
 16 62  2  0  0  0  0
 17 30  1  0  0  0  0
 18 30  1  0  0  0  0
 18 32  2  0  0  0  0
 18 33  1  0  0  0  0
 19 21  2  0  0  0  0
 19 38  1  0  0  0  0
 20 22  2  0  0  0  0
 20 39  1  0  0  0  0
 21 47  1  0  0  0  0
 22 40  1  0  0  0  0
 23 56  1  0  0  0  0
 24 31  2  0  0  0  0
 24 69  1  0  0  0  0
 25 78  1  0  0  0  0
 26 79  1  0  0  0  0
 27 29  2  0  0  0  0
 27 78  1  0  0  0  0
 28 80  1  0  0  0  0
 29 81  1  0  0  0  0
 30 63  2  0  0  0  0
 31 50  1  0  0  0  0
 31 62  1  0  0  0  0
 32 64  1  0  0  0  0
 32 67  1  0  0  0  0
 33 68  1  0  0  0  0
 33 73  2  0  0  0  0
 34 48  1  0  0  0  0
 34 70  1  0  0  0  0
 34 74  2  0  0  0  0
 35 59  1  0  0  0  0
 35 65  1  0  0  0  0
 35 75  2  0  0  0  0
 36 60  1  0  0  0  0
 36 71  1  0  0  0  0
 36 76  2  0  0  0  0
 37 66  1  0  0  0  0
 37 69  1  0  0  0  0
 37 77  2  0  0  0  0
 38 41  1  0  0  0  0
 39 48  1  0  0  0  0
 40 65  1  0  0  0  0
 41 43  1  0  0  0  0
 42 44  1  0  0  0  0
 42 45  1  0  0  0  0
 43 47  1  0  0  0  0
 44 49  1  0  0  0  0
 45 66  1  0  0  0  0
 46 49  1  0  0  0  0
 46 66  1  0  0  0  0
 47 70  1  0  0  0  0
 48 65  1  0  0  0  0
 49 64  1  0  0  0  0
 51 60  1  0  0  0  0
 52 61  1  0  0  0  0
 53 61  1  0  0  0  0
 54 61  1  0  0  0  0
 55 72  1  0  0  0  0
 56 57  1  0  0  0  0
 57 58  1  0  0  0  0
 58 79  1  0  0  0  0
 59 61  1  0  0  0  0
 59 71  1  0  0  0  0
 60 72  1  0  0  0  0
 63 64  1  0  0  0  0
M  CHG  1  72   1
M  ISO  4  37 100  58 101  69 100  79 101
M  END
> <Batch ID>
0106

> <Smiles>
CNC(C)C(=O)NC(C(=O)N1Cc2cc([101O:1][101CH2:1]CCc3cnc(C)c([100NH:0][100C:0](=O)N4CCCC(n5nc(-c6ccc(Oc7ccc(F)cc7F)cc6)c(C(N)=O)c5N)C4)c3)ccc2CC1C(=O)NC1CCCc2ccccc21)C(C)(C)C

> <Shape>
0.245

> <Color>
0.085

> <Negative vol penalty>
0.000

$$$$

  -OEChem-04052319483D

 83 91  0     1  0  0  0  0  0999 V2000
  -17.8728  -25.9173   22.9269 C   0  0  0  0  0  0  0  0  0  0  0  0
  -19.1883  -25.5437   22.6711 C   0  0  0  0  0  0  0  0  0  0  0  0
  -26.7756  -14.6695   21.8177 C   0  0  0  0  0  0  0  0  0  0  0  0
  -26.1077  -14.8934   19.5067 C   0  0  0  0  0  0  0  0  0  0  0  0
  -17.4641  -27.2296   22.6930 C   0  0  0  0  0  0  0  0  0  0  0  0
  -20.0955  -26.4819   22.1802 C   0  0  0  0  0  0  0  0  0  0  0  0
  -26.0785  -26.8277   23.4409 C   0  0  0  0  0  0  0  0  0  0  0  0
  -26.6143  -13.2868   21.7304 C   0  0  0  0  0  0  0  0  0  0  0  0
  -25.9464  -13.5106   19.4193 C   0  0  0  0  0  0  0  0  0  0  0  0
  -27.2093  -26.3940   22.7502 C   0  0  0  0  0  0  0  0  0  0  0  0
  -27.9207  -10.7927   19.0513 C   0  0  0  0  0  0  0  0  0  0  0  0
  -28.4389  -10.1511   17.9264 C   0  0  0  0  0  0  0  0  0  0  0  0
  -27.4673  -28.5969   21.8015 C   0  0  0  0  0  0  0  0  0  0  0  0
  -26.2269   -9.3641   17.3563 C   0  0  0  0  0  0  0  0  0  0  0  0
  -26.5222  -15.4728   20.7059 C   0  0  0  0  0  0  0  0  0  0  0  0
  -27.8566  -17.6398   20.5293 C   0  0  0  0  0  0  0  0  0  0  0  0
  -18.3692  -28.1868   22.2082 C   0  0  0  0  0  0  0  0  0  0  0  0
  -25.6266  -28.1486   23.3084 C   0  0  0  0  0  0  0  0  0  0  0  0
  -19.6981  -27.8080   21.9383 C   0  0  0  0  0  0  0  0  0  0  0  0
  -26.3320  -29.0456   22.4936 C   0  0  0  0  0  0  0  0  0  0  0  0
  -26.1998  -12.7073   20.5312 C   0  0  0  0  0  0  0  0  0  0  0  0
  -27.9021  -27.2778   21.9281 C   0  0  0  0  0  0  0  0  0  0  0  0
  -26.5556  -10.7199   19.3288 C   0  0  0  0  0  0  0  0  0  0  0  0
  -27.5920   -9.4368   17.0789 C   0  0  0  0  0  0  0  0  0  0  0  0
  -25.7087  -10.0056   18.4813 C   0  0  0  0  0  0  0  0  0  0  0  0
  -26.6881  -16.9013   20.7956 C   0  0  0  0  0  0  0  0  0  0  0  0
  -27.4974  -18.9455   20.7587 C   0  0  0  0  0  0  0  0  0  0  0  0
  -26.7538  -22.7375   16.0695 C   0  0  0  0  0  0  0  0  0  0  0  0
  -29.1510  -17.1862   20.1117 C   0  0  0  0  0  0  0  0  0  0  0  0
  -24.7163  -24.3671   18.1903 C   0  0  0  0  0  0  0  0  0  0  0  0
  -22.9641  -29.5110   22.2320 C   0  0  0  0  0  0  0  0  0  0  0  0
  -24.3699  -32.2202   23.3304 C   0  0  0  0  0  0  0  0  0  0  0  0
  -27.2453  -33.8616   24.1578 C   0  0  0  0  0  0  0  0  0  0  0  0
  -23.6454  -23.0526   19.9907 C   0  0  0  0  0  0  0  0  0  0  0  0
  -17.8691  -29.5815   21.9261 C   0  0  0  0  0  0  0  0  0  0  0  0
  -24.4207  -28.6081   24.0811 C   0  0  0  0  0  0  0  0  0  0  0  0
  -25.8998  -30.4794   22.3331 C   0  0  0  0  0  0  0  0  0  0  0  0
  -27.8786  -23.3320   16.8519 C   0  0  0  0  0  0  0  0  0  0  0  0
  -18.9871  -30.6075   21.7599 C   0  0  0  0  0  0  0  0  0  0  0  0
  -23.3996  -20.9184   22.9178 C   0  0  0  0  0  0  0  0  0  0  0  0
  -20.0766  -30.0655   20.8401 C   0  0  0  0  0  0  0  0  0  0  0  0
  -24.2704  -19.7153   22.5726 C   0  0  0  0  0  0  0  0  0  0  0  0
  -22.7459  -21.4994   21.6707 C   0  0  0  0  0  0  0  0  0  0  0  0
  -24.6348  -20.7125   20.2623 C   0  0  0  0  0  0  0  0  0  0  0  0
  -20.7180  -28.8031   21.4289 C   0  0  1  0  0  0  0  0  0  0  0  0
  -25.7971  -24.3694   17.1809 C   0  0  2  0  0  0  0  0  0  0  0  0
  -23.7515  -29.8353   23.4700 C   0  0  1  0  0  0  0  0  0  0  0  0
  -25.3054  -20.0911   21.5026 C   0  0  2  0  0  0  0  0  0  0  0  0
  -28.0790  -36.0778   24.9890 C   0  0  0  0  0  0  0  0  0  0  0  0
  -31.3728  -26.1154   19.7172 C   0  0  0  0  0  0  0  0  0  0  0  0
  -23.9322  -33.4212   20.5598 C   0  0  0  0  0  0  0  0  0  0  0  0
  -25.5866  -35.2058   21.1485 C   0  0  0  0  0  0  0  0  0  0  0  0
  -23.4752  -34.9838   22.4583 C   0  0  0  0  0  0  0  0  0  0  0  0
  -28.4043  -32.6431   26.5931 C   0  0  0  0  0  0  0  0  0  0  0  0
  -29.2454  -25.2825   18.6843 C   0  0  0  0  0  0  0  0  0  0  0  0
  -27.8688  -25.5322   18.0769 C   0  0  0  0  0  0  0  0  0  0  0  0
  -29.2836  -27.4900   20.0039 C   0  0  0  0  0  0  0  0  0  1  0  0
  -25.2987  -33.2559   22.7442 C   0  0  1  0  0  0  0  0  0  0  0  0
  -27.6217  -34.6808   25.3791 C   0  0  2  0  0  0  0  0  0  0  0  0
  -30.0491  -26.5429   19.0707 C   0  0  1  0  0  0  0  0  0  0  0  0
  -24.5804  -34.1892   21.7290 C   0  0  0  0  0  0  0  0  0  0  0  0
  -25.6633  -17.6736   21.1661 N   0  0  0  0  0  0  0  0  0  0  0  0
  -25.5809  -23.2663   16.2152 N   0  0  0  0  0  0  0  0  0  0  0  0
  -26.1867  -18.9110   21.1343 N   0  0  0  0  0  0  0  0  0  0  0  0
  -24.7111  -30.8792   23.1044 N   0  0  0  0  0  0  0  0  0  0  0  0
  -23.7247  -21.8096   20.6256 N   0  0  0  0  0  0  0  0  0  0  0  0
  -28.1780  -20.1082   20.6739 N   0  0  0  0  0  0  0  0  0  0  0  0
  -29.3482  -15.8115   19.9223 N   0  0  0  0  0  0  0  0  0  0  0  0
  -24.6221  -23.2701   18.9471 N   0  0  0  0  0  0  0  0  0  0  0  0
  -21.6522  -29.1529   22.4774 N   0  0  0  0  0  0  0  0  0  0  0  0
  -25.8986  -33.9536   23.8763 N   0  0  0  0  0  0  0  0  0  0  0  0
  -23.9497  -25.4496   18.2457 N   0  3  0  0  0  0  0  0  0  0  0  0
  -27.1774  -24.2520   17.7997 N   0  3  2  0  0  0  0  0  0  0  0  0
  -28.7259  -34.0169   26.1280 N   0  3  0  0  0  0  0  0  0  0  0  0
  -30.1091  -17.9748   19.9282 O   0  0  0  0  0  0  0  0  0  0  0  0
  -23.5062  -29.5819   21.1353 O   0  0  0  0  0  0  0  0  0  0  0  0
  -23.3820  -32.5874   23.9714 O   0  0  0  0  0  0  0  0  0  0  0  0
  -28.0646  -33.2086   23.5154 O   0  0  0  0  0  0  0  0  0  0  0  0
  -22.8174  -23.9250   20.2308 O   0  0  0  0  0  0  0  0  0  0  0  0
  -26.0425  -11.3581   20.4455 O   0  0  0  0  0  0  0  0  0  0  0  0
  -29.0058  -26.8569   21.2523 O   0  0  0  0  0  0  0  0  0  1  0  0
  -28.0896   -8.8220   15.9979 F   0  0  0  0  0  0  0  0  0  0  0  0
  -24.3962   -9.9332   18.7420 F   0  0  0  0  0  0  0  0  0  0  0  0
  1  2  1  0  0  0  0
  1  5  2  0  0  0  0
  2  6  2  0  0  0  0
  3  8  2  0  0  0  0
  3 15  1  0  0  0  0
  4  9  1  0  0  0  0
  4 15  2  0  0  0  0
  5 17  1  0  0  0  0
  6 19  1  0  0  0  0
  7 10  2  0  0  0  0
  7 18  1  0  0  0  0
  8 21  1  0  0  0  0
  9 21  2  0  0  0  0
 10 22  1  0  0  0  0
 11 12  2  0  0  0  0
 11 23  1  0  0  0  0
 12 24  1  0  0  0  0
 13 20  1  0  0  0  0
 13 22  2  0  0  0  0
 14 24  2  0  0  0  0
 14 25  1  0  0  0  0
 15 26  1  0  0  0  0
 16 26  1  0  0  0  0
 16 27  2  0  0  0  0
 16 29  1  0  0  0  0
 17 19  2  0  0  0  0
 17 35  1  0  0  0  0
 18 20  2  0  0  0  0
 18 36  1  0  0  0  0
 19 45  1  0  0  0  0
 20 37  1  0  0  0  0
 21 80  1  0  0  0  0
 22 81  1  0  0  0  0
 23 25  2  0  0  0  0
 23 80  1  0  0  0  0
 24 82  1  0  0  0  0
 25 83  1  0  0  0  0
 26 62  2  0  0  0  0
 27 64  1  0  0  0  0
 27 67  1  0  0  0  0
 28 38  1  0  0  0  0
 28 63  2  0  0  0  0
 29 68  1  0  0  0  0
 29 75  2  0  0  0  0
 30 46  1  0  0  0  0
 30 69  1  0  0  0  0
 30 72  2  0  0  0  0
 31 47  1  0  0  0  0
 31 70  1  0  0  0  0
 31 76  2  0  0  0  0
 32 58  1  0  0  0  0
 32 65  1  0  0  0  0
 32 77  2  0  0  0  0
 33 59  1  0  0  0  0
 33 71  1  0  0  0  0
 33 78  2  0  0  0  0
 34 66  1  0  0  0  0
 34 69  1  0  0  0  0
 34 79  2  0  0  0  0
 35 39  1  0  0  0  0
 36 47  1  0  0  0  0
 37 65  1  0  0  0  0
 38 73  1  0  0  0  0
 39 41  1  0  0  0  0
 40 42  1  0  0  0  0
 40 43  1  0  0  0  0
 41 45  1  0  0  0  0
 42 48  1  0  0  0  0
 43 66  1  0  0  0  0
 44 48  1  0  0  0  0
 44 66  1  0  0  0  0
 45 70  1  0  0  0  0
 46 63  1  0  0  0  0
 46 73  1  0  0  0  0
 47 65  1  0  0  0  0
 48 64  1  0  0  0  0
 49 59  1  0  0  0  0
 50 60  1  0  0  0  0
 51 61  1  0  0  0  0
 52 61  1  0  0  0  0
 53 61  1  0  0  0  0
 54 74  1  0  0  0  0
 55 56  1  0  0  0  0
 55 60  1  0  0  0  0
 56 73  1  0  0  0  0
 57 60  1  0  0  0  0
 57 81  1  0  0  0  0
 58 61  1  0  0  0  0
 58 71  1  0  0  0  0
 59 74  1  0  0  0  0
 62 64  1  0  0  0  0
M  CHG  3  72   1  73   1  74   1
M  ISO  4  34 100  57 101  69 100  81 101
M  END
> <Batch ID>
0106

> <Smiles>
CNC(C)C(=O)NC(C(=O)N1Cc2cc([101O:1][101CH2:1]C(C)CCn3ccnc3C(N)[100NH:0][100C:0](=O)N3CCCC(n4nc(-c5ccc(Oc6ccc(F)cc6F)cc5)c(C(N)=O)c4N)C3)ccc2CC1C(=O)NC1CCCc2ccccc21)C(C)(C)C

> <Shape>
0.233

> <Color>
0.092

> <Negative vol penalty>
0.000

$$$$

  -OEChem-04052319483D

 76 83  0     1  0  0  0  0  0999 V2000
  -25.4160  -19.7204   25.4397 C   0  0  0  0  0  0  0  0  0  0  0  0
  -26.2804  -20.6612   24.8916 C   0  0  0  0  0  0  0  0  0  0  0  0
  -27.0998  -14.4956   21.6874 C   0  0  0  0  0  0  0  0  0  0  0  0
  -27.4992  -14.3354   19.3100 C   0  0  0  0  0  0  0  0  0  0  0  0
  -24.0392  -19.8751   25.2921 C   0  0  0  0  0  0  0  0  0  0  0  0
  -25.7682  -21.7632   24.2060 C   0  0  0  0  0  0  0  0  0  0  0  0
  -28.9802  -25.2199   22.8139 C   0  0  0  0  0  0  0  0  0  0  0  0
  -26.5133  -13.2301   21.6742 C   0  0  0  0  0  0  0  0  0  0  0  0
  -26.9128  -13.0698   19.2968 C   0  0  0  0  0  0  0  0  0  0  0  0
  -29.8941  -25.0265   21.7789 C   0  0  0  0  0  0  0  0  0  0  0  0
  -23.5407  -11.8717   20.8124 C   0  0  0  0  0  0  0  0  0  0  0  0
  -22.3442  -11.7054   21.5097 C   0  0  0  0  0  0  0  0  0  0  0  0
  -28.5235  -26.3774   20.3243 C   0  0  0  0  0  0  0  0  0  0  0  0
  -23.3872  -10.0265   22.8991 C   0  0  0  0  0  0  0  0  0  0  0  0
  -27.5927  -15.0483   20.5053 C   0  0  0  0  0  0  0  0  0  0  0  0
  -29.5564  -16.6616   20.7256 C   0  0  0  0  0  0  0  0  0  0  0  0
  -23.5111  -20.9732   24.5935 C   0  0  0  0  0  0  0  0  0  0  0  0
  -27.8236  -25.9857   22.6083 C   0  0  0  0  0  0  0  0  0  0  0  0
  -24.3810  -21.9497   24.0669 C   0  0  0  0  0  0  0  0  0  0  0  0
  -27.5978  -26.5811   21.3591 C   0  0  0  0  0  0  0  0  0  0  0  0
  -26.4199  -12.5172   20.4789 C   0  0  0  0  0  0  0  0  0  0  0  0
  -29.6644  -25.6029   20.5331 C   0  0  0  0  0  0  0  0  0  0  0  0
  -24.6605  -11.1153   21.1584 C   0  0  0  0  0  0  0  0  0  0  0  0
  -22.2674  -10.7828   22.5530 C   0  0  0  0  0  0  0  0  0  0  0  0
  -24.5838  -10.1928   22.2017 C   0  0  0  0  0  0  0  0  0  0  0  0
  -28.1980  -16.3557   20.5182 C   0  0  0  0  0  0  0  0  0  0  0  0
  -29.6166  -18.0312   20.6426 C   0  0  0  0  0  0  0  0  0  0  0  0
  -30.6648  -15.7859   20.9713 C   0  0  0  0  0  0  0  0  0  0  0  0
  -24.7003  -25.4061   22.7200 C   0  0  0  0  0  0  0  0  0  0  0  0
  -24.4844  -28.6103   22.2633 C   0  0  0  0  0  0  0  0  0  0  0  0
  -25.9315  -31.4756   21.1046 C   0  0  0  0  0  0  0  0  0  0  0  0
  -28.2144  -22.8218   18.1466 C   0  0  0  0  0  0  0  0  0  0  0  0
  -22.0127  -21.0957   24.4704 C   0  0  0  0  0  0  0  0  0  0  0  0
  -26.8610  -26.2069   23.7427 C   0  0  0  0  0  0  0  0  0  0  0  0
  -26.3817  -27.4288   21.0929 C   0  0  0  0  0  0  0  0  0  0  0  0
  -21.5833  -22.0458   23.3572 C   0  0  0  0  0  0  0  0  0  0  0  0
  -25.9253  -21.4877   20.5249 C   0  0  0  0  0  0  0  0  0  0  0  0
  -22.3407  -23.3600   23.4746 C   0  0  0  0  0  0  0  0  0  0  0  0
  -26.4208  -20.0576   20.7473 C   0  0  0  0  0  0  0  0  0  0  0  0
  -26.0987  -21.9256   19.0723 C   0  0  0  0  0  0  0  0  0  0  0  0
  -27.9600  -20.3408   18.7600 C   0  0  0  0  0  0  0  0  0  0  0  0
  -23.8476  -23.1402   23.2907 C   0  0  1  0  0  0  0  0  0  0  0  0
  -25.4586  -26.5798   23.2722 C   0  0  1  0  0  0  0  0  0  0  0  0
  -27.8574  -19.8740   20.2221 C   0  0  2  0  0  0  0  0  0  0  0  0
  -25.4964  -33.9322   20.8341 C   0  0  0  0  0  0  0  0  0  0  0  0
  -22.6568  -28.0230   19.8917 C   0  0  0  0  0  0  0  0  0  0  0  0
  -23.0275  -30.3735   19.1132 C   0  0  0  0  0  0  0  0  0  0  0  0
  -21.9335  -29.9484   21.3143 C   0  0  0  0  0  0  0  0  0  0  0  0
  -32.5579  -24.8808   17.4539 C   0  0  0  0  0  0  0  0  0  0  0  0
  -32.4956  -22.4743   18.1632 C   0  0  0  0  0  0  0  0  0  0  0  0
  -28.2198  -32.1901   22.8402 C   0  0  0  0  0  0  0  0  0  0  0  0
  -30.4005  -23.5722   17.2427 C   0  0  0  0  0  0  0  0  0  0  0  0
  -31.2888  -24.1917   19.5203 C   0  0  0  0  0  0  0  0  0  1  0  0
  -24.4112  -29.5158   21.0577 C   0  0  1  0  0  0  0  0  0  0  0  0
  -26.0830  -32.8512   21.7286 C   0  0  2  0  0  0  0  0  0  0  0  0
  -23.0293  -29.4476   20.3483 C   0  0  0  0  0  0  0  0  0  0  0  0
  -31.6832  -23.7797   18.0831 C   0  0  0  0  0  0  0  0  0  0  0  0
  -27.4492  -17.4436   20.3185 N   0  0  0  0  0  0  0  0  0  0  0  0
  -28.3402  -18.4464   20.4002 N   0  0  0  0  0  0  0  0  0  0  0  0
  -25.4668  -27.6104   22.2320 N   0  0  0  0  0  0  0  0  0  0  0  0
  -27.4831  -21.7272   18.6366 N   0  0  0  0  0  0  0  0  0  0  0  0
  -30.6362  -18.9089   20.7540 N   0  0  0  0  0  0  0  0  0  0  0  0
  -30.4268  -14.4058   21.0251 N   0  0  0  0  0  0  0  0  0  0  0  0
  -24.5462  -24.3644   23.6149 N   0  0  0  0  0  0  0  0  0  0  0  0
  -24.7779  -30.8483   21.5250 N   0  0  0  0  0  0  0  0  0  0  0  0
  -29.5210  -22.5482   17.7610 N   0  0  0  0  0  0  0  0  0  0  0  0
  -27.5228  -33.1605   21.9573 N   0  3  0  0  0  0  0  0  0  0  0  0
  -31.8289  -16.2157   21.1546 O   0  0  0  0  0  0  0  0  0  0  0  0
  -24.2844  -25.4433   21.5679 O   0  0  0  0  0  0  0  0  0  0  0  0
  -23.7036  -28.7882   23.2016 O   0  0  0  0  0  0  0  0  0  0  0  0
  -26.7525  -31.0062   20.3197 O   0  0  0  0  0  0  0  0  0  0  0  0
  -27.7399  -23.9597   18.0641 O   0  0  0  0  0  0  0  0  0  0  0  0
  -25.8479  -11.2822   20.4657 O   0  0  0  0  0  0  0  0  0  0  0  0
  -30.5545  -25.4153   19.5210 O   0  0  0  0  0  0  0  0  0  1  0  0
  -21.1187  -10.6243   23.2236 F   0  0  0  0  0  0  0  0  0  0  0  0
  -25.6565   -9.4641   22.5395 F   0  0  0  0  0  0  0  0  0  0  0  0
  1  2  1  0  0  0  0
  1  5  2  0  0  0  0
  2  6  2  0  0  0  0
  3  8  2  0  0  0  0
  3 15  1  0  0  0  0
  4  9  1  0  0  0  0
  4 15  2  0  0  0  0
  5 17  1  0  0  0  0
  6 19  1  0  0  0  0
  7 10  2  0  0  0  0
  7 18  1  0  0  0  0
  8 21  1  0  0  0  0
  9 21  2  0  0  0  0
 10 22  1  0  0  0  0
 11 12  2  0  0  0  0
 11 23  1  0  0  0  0
 12 24  1  0  0  0  0
 13 20  1  0  0  0  0
 13 22  2  0  0  0  0
 14 24  2  0  0  0  0
 14 25  1  0  0  0  0
 15 26  1  0  0  0  0
 16 26  1  0  0  0  0
 16 27  2  0  0  0  0
 16 28  1  0  0  0  0
 17 19  2  0  0  0  0
 17 33  1  0  0  0  0
 18 20  2  0  0  0  0
 18 34  1  0  0  0  0
 19 42  1  0  0  0  0
 20 35  1  0  0  0  0
 21 73  1  0  0  0  0
 22 74  1  0  0  0  0
 23 25  2  0  0  0  0
 23 73  1  0  0  0  0
 24 75  1  0  0  0  0
 25 76  1  0  0  0  0
 26 58  2  0  0  0  0
 27 59  1  0  0  0  0
 27 62  1  0  0  0  0
 28 63  1  0  0  0  0
 28 68  2  0  0  0  0
 29 43  1  0  0  0  0
 29 64  1  0  0  0  0
 29 69  2  0  0  0  0
 30 54  1  0  0  0  0
 30 60  1  0  0  0  0
 30 70  2  0  0  0  0
 31 55  1  0  0  0  0
 31 65  1  0  0  0  0
 31 71  2  0  0  0  0
 32 61  1  0  0  0  0
 32 66  1  0  0  0  0
 32 72  2  0  0  0  0
 33 36  1  0  0  0  0
 34 43  1  0  0  0  0
 35 60  1  0  0  0  0
 36 38  1  0  0  0  0
 37 39  1  0  0  0  0
 37 40  1  0  0  0  0
 38 42  1  0  0  0  0
 39 44  1  0  0  0  0
 40 61  1  0  0  0  0
 41 44  1  0  0  0  0
 41 61  1  0  0  0  0
 42 64  1  0  0  0  0
 43 60  1  0  0  0  0
 44 59  1  0  0  0  0
 45 55  1  0  0  0  0
 46 56  1  0  0  0  0
 47 56  1  0  0  0  0
 48 56  1  0  0  0  0
 49 57  1  0  0  0  0
 50 57  1  0  0  0  0
 51 67  1  0  0  0  0
 52 57  1  0  0  0  0
 52 66  1  0  0  0  0
 53 57  1  0  0  0  0
 53 74  1  0  0  0  0
 54 56  1  0  0  0  0
 54 65  1  0  0  0  0
 55 67  1  0  0  0  0
 58 59  1  0  0  0  0
M  CHG  1  67   1
M  ISO  4  32 100  53 101  66 100  74 101
M  END
> <Batch ID>
0106

> <Smiles>
CNC(C)C(=O)NC(C(=O)N1Cc2cc([101O:1][101CH2:1]C(C)(C)C[100NH:0][100C:0](=O)N3CCCC(n4nc(-c5ccc(Oc6ccc(F)cc6F)cc5)c(C(N)=O)c4N)C3)ccc2CC1C(=O)NC1CCCc2ccccc21)C(C)(C)C

> <Shape>
0.221

> <Color>
0.058

> <Negative vol penalty>
0.000

$$$$

  -OEChem-04052319483D

 83 90  0     1  0  0  0  0  0999 V2000
  -26.6121  -32.5044   19.1597 C   0  0  0  0  0  0  0  0  0  0  0  0
  -27.5522  -31.5235   19.4585 C   0  0  0  0  0  0  0  0  0  0  0  0
  -23.0086   -9.8036   20.0923 C   0  0  0  0  0  0  0  0  0  0  0  0
  -23.6090  -10.1191   22.4112 C   0  0  0  0  0  0  0  0  0  0  0  0
  -25.3206  -32.4112   19.6768 C   0  0  0  0  0  0  0  0  0  0  0  0
  -27.2017  -30.4492   20.2755 C   0  0  0  0  0  0  0  0  0  0  0  0
  -29.2135  -24.6814   19.8380 C   0  0  0  0  0  0  0  0  0  0  0  0
  -22.2218   -8.7073   20.4452 C   0  0  0  0  0  0  0  0  0  0  0  0
  -22.8221   -9.0228   22.7641 C   0  0  0  0  0  0  0  0  0  0  0  0
  -30.2095  -23.9814   20.5174 C   0  0  0  0  0  0  0  0  0  0  0  0
  -21.2586   -6.0887   24.2326 C   0  0  0  0  0  0  0  0  0  0  0  0
  -21.7967   -5.1665   25.1301 C   0  0  0  0  0  0  0  0  0  0  0  0
  -28.5492  -23.0954   22.0265 C   0  0  0  0  0  0  0  0  0  0  0  0
  -23.6089   -4.7286   23.5935 C   0  0  0  0  0  0  0  0  0  0  0  0
  -23.7023  -10.5095   21.0753 C   0  0  0  0  0  0  0  0  0  0  0  0
  -24.1124  -12.9881   20.6327 C   0  0  0  0  0  0  0  0  0  0  0  0
  -24.9513  -31.3302   20.4927 C   0  0  0  0  0  0  0  0  0  0  0  0
  -27.8770  -24.6022   20.2552 C   0  0  0  0  0  0  0  0  0  0  0  0
  -25.9045  -30.3421   20.8051 C   0  0  0  0  0  0  0  0  0  0  0  0
  -27.5377  -23.7934   21.3492 C   0  0  0  0  0  0  0  0  0  0  0  0
  -22.1285   -8.3169   21.7811 C   0  0  0  0  0  0  0  0  0  0  0  0
  -29.8779  -23.1905   21.6136 C   0  0  0  0  0  0  0  0  0  0  0  0
  -21.8956   -6.3309   23.0155 C   0  0  0  0  0  0  0  0  0  0  0  0
  -22.9719   -4.4865   24.8106 C   0  0  0  0  0  0  0  0  0  0  0  0
  -23.0708   -5.6508   22.6960 C   0  0  0  0  0  0  0  0  0  0  0  0
  -24.5158  -11.6417   20.7113 C   0  0  0  0  0  0  0  0  0  0  0  0
  -25.2447  -13.6639   20.2485 C   0  0  0  0  0  0  0  0  0  0  0  0
  -22.8289  -13.5754   20.8847 C   0  0  0  0  0  0  0  0  0  0  0  0
  -25.7372  -26.6894   21.3363 C   0  0  0  0  0  0  0  0  0  0  0  0
  -23.7347  -24.1447   21.1437 C   0  0  0  0  0  0  0  0  0  0  0  0
  -23.3549  -20.7534   21.1025 C   0  0  0  0  0  0  0  0  0  0  0  0
  -30.7255  -14.6206   20.6857 C   0  0  0  0  0  0  0  0  0  0  0  0
  -23.5571  -31.2972   21.0669 C   0  0  0  0  0  0  0  0  0  0  0  0
  -26.8106  -25.3424   19.4953 C   0  0  0  0  0  0  0  0  0  0  0  0
  -26.1149  -23.6586   21.8246 C   0  0  0  0  0  0  0  0  0  0  0  0
  -23.1580  -29.9312   21.6192 C   0  0  0  0  0  0  0  0  0  0  0  0
  -29.6975  -11.9433   18.5756 C   0  0  0  0  0  0  0  0  0  0  0  0
  -24.2753  -29.3585   22.4855 C   0  0  0  0  0  0  0  0  0  0  0  0
  -28.2270  -11.7334   18.9411 C   0  0  0  0  0  0  0  0  0  0  0  0
  -30.5350  -12.3162   19.7970 C   0  0  0  0  0  0  0  0  0  0  0  0
  -28.5606  -13.2605   20.9300 C   0  0  0  0  0  0  0  0  0  0  0  0
  -25.5552  -29.1486   21.6675 C   0  0  1  0  0  0  0  0  0  0  0  0
  -25.5541  -25.5955   20.3225 C   0  0  1  0  0  0  0  0  0  0  0  0
  -27.6657  -12.9375   19.7212 C   0  0  2  0  0  0  0  0  0  0  0  0
  -21.5945  -18.9698   20.9734 C   0  0  0  0  0  0  0  0  0  0  0  0
  -34.5797  -19.1111   21.7386 C   0  0  0  0  0  0  0  0  0  0  0  0
  -34.9242  -21.4831   21.0730 C   0  0  0  0  0  0  0  0  0  0  0  0
  -23.0055  -24.6566   24.0620 C   0  0  0  0  0  0  0  0  0  0  0  0
  -22.0227  -22.3555   24.1475 C   0  0  0  0  0  0  0  0  0  0  0  0
  -21.0718  -24.0590   22.5929 C   0  0  0  0  0  0  0  0  0  0  0  0
  -33.0605  -21.1405   23.5802 C   0  0  0  0  0  0  0  0  0  0  0  0
  -28.8551  -18.6123   21.7794 C   0  0  0  0  0  0  0  0  0  0  0  0
  -29.6626  -17.8179   19.5339 C   0  0  0  0  0  0  0  0  0  0  0  0
  -24.4705  -19.6720   18.5836 C   0  0  0  0  0  0  0  0  0  0  0  0
  -30.7579  -16.9213   21.6155 C   0  0  0  0  0  0  0  0  0  0  0  0
  -31.5704  -19.6742   22.2455 C   0  0  0  0  0  0  0  0  0  0  0  0
  -31.9816  -22.0851   21.5211 C   0  0  0  0  0  0  0  0  0  1  0  0
  -23.3250  -23.0334   22.0798 C   0  0  1  0  0  0  0  0  0  0  0  0
  -22.5617  -19.8397   20.1858 C   0  0  2  0  0  0  0  0  0  0  0  0
  -33.8667  -20.3804   21.2475 C   0  0  0  0  0  0  0  0  0  0  0  0
  -22.3834  -23.5300   23.2130 C   0  0  0  0  0  0  0  0  0  0  0  0
  -32.6294  -20.8081   22.1306 C   0  0  1  0  0  0  0  0  0  0  0  0
  -30.0676  -18.1353   20.9759 C   0  0  0  0  0  0  0  0  0  0  0  0
  -25.8037  -11.4704   20.4017 N   0  0  0  0  0  0  0  0  0  0  0  0
  -26.2194  -12.7180   20.1247 N   0  0  0  0  0  0  0  0  0  0  0  0
  -25.1090  -24.4068   21.0527 N   0  0  0  0  0  0  0  0  0  0  0  0
  -29.9497  -13.4659   20.4910 N   0  0  0  0  0  0  0  0  0  0  0  0
  -25.4916  -14.9691   20.0077 N   0  0  0  0  0  0  0  0  0  0  0  0
  -21.7746  -12.7367   21.2710 N   0  0  0  0  0  0  0  0  0  0  0  0
  -25.4478  -27.9533   20.8587 N   0  0  0  0  0  0  0  0  0  0  0  0
  -22.7515  -21.9852   21.2427 N   0  0  0  0  0  0  0  0  0  0  0  0
  -30.0924  -15.6662   21.3465 N   0  0  0  0  0  0  0  0  0  0  0  0
  -23.4799  -18.9486   19.4217 N   0  3  0  0  0  0  0  0  0  0  0  0
  -31.0433  -19.2582   20.9230 N   0  3  0  0  0  0  0  0  0  0  0  0
  -22.6190  -14.8053   20.7546 O   0  0  0  0  0  0  0  0  0  0  0  0
  -26.1118  -26.4073   22.4685 O   0  0  0  0  0  0  0  0  0  0  0  0
  -22.8678  -24.7529   20.5111 O   0  0  0  0  0  0  0  0  0  0  0  0
  -24.4030  -20.4076   21.6433 O   0  0  0  0  0  0  0  0  0  0  0  0
  -31.8938  -14.7149   20.2945 O   0  0  0  0  0  0  0  0  0  0  0  0
  -21.3605   -7.2473   22.1258 O   0  0  0  0  0  0  0  0  0  0  0  0
  -30.8483  -22.5067   22.2789 O   0  0  0  0  0  0  0  0  0  1  0  0
  -23.4893   -3.6020   25.6732 F   0  0  0  0  0  0  0  0  0  0  0  0
  -23.6879   -5.8801   21.5288 F   0  0  0  0  0  0  0  0  0  0  0  0
  1  2  1  0  0  0  0
  1  5  2  0  0  0  0
  2  6  2  0  0  0  0
  3  8  2  0  0  0  0
  3 15  1  0  0  0  0
  4  9  1  0  0  0  0
  4 15  2  0  0  0  0
  5 17  1  0  0  0  0
  6 19  1  0  0  0  0
  7 10  2  0  0  0  0
  7 18  1  0  0  0  0
  8 21  1  0  0  0  0
  9 21  2  0  0  0  0
 10 22  1  0  0  0  0
 11 12  2  0  0  0  0
 11 23  1  0  0  0  0
 12 24  1  0  0  0  0
 13 20  1  0  0  0  0
 13 22  2  0  0  0  0
 14 24  2  0  0  0  0
 14 25  1  0  0  0  0
 15 26  1  0  0  0  0
 16 26  1  0  0  0  0
 16 27  2  0  0  0  0
 16 28  1  0  0  0  0
 17 19  2  0  0  0  0
 17 33  1  0  0  0  0
 18 20  2  0  0  0  0
 18 34  1  0  0  0  0
 19 42  1  0  0  0  0
 20 35  1  0  0  0  0
 21 80  1  0  0  0  0
 22 81  1  0  0  0  0
 23 25  2  0  0  0  0
 23 80  1  0  0  0  0
 24 82  1  0  0  0  0
 25 83  1  0  0  0  0
 26 64  2  0  0  0  0
 27 65  1  0  0  0  0
 27 68  1  0  0  0  0
 28 69  1  0  0  0  0
 28 75  2  0  0  0  0
 29 43  1  0  0  0  0
 29 70  1  0  0  0  0
 29 76  2  0  0  0  0
 30 58  1  0  0  0  0
 30 66  1  0  0  0  0
 30 77  2  0  0  0  0
 31 59  1  0  0  0  0
 31 71  1  0  0  0  0
 31 78  2  0  0  0  0
 32 67  1  0  0  0  0
 32 72  1  0  0  0  0
 32 79  2  0  0  0  0
 33 36  1  0  0  0  0
 34 43  1  0  0  0  0
 35 66  1  0  0  0  0
 36 38  1  0  0  0  0
 37 39  1  0  0  0  0
 37 40  1  0  0  0  0
 38 42  1  0  0  0  0
 39 44  1  0  0  0  0
 40 67  1  0  0  0  0
 41 44  1  0  0  0  0
 41 67  1  0  0  0  0
 42 70  1  0  0  0  0
 43 66  1  0  0  0  0
 44 65  1  0  0  0  0
 45 59  1  0  0  0  0
 46 60  1  0  0  0  0
 47 60  1  0  0  0  0
 48 61  1  0  0  0  0
 49 61  1  0  0  0  0
 50 61  1  0  0  0  0
 51 62  1  0  0  0  0
 52 63  1  0  0  0  0
 53 63  1  0  0  0  0
 54 73  1  0  0  0  0
 55 63  1  0  0  0  0
 55 72  1  0  0  0  0
 56 62  1  0  0  0  0
 56 74  1  0  0  0  0
 57 62  1  0  0  0  0
 57 81  1  0  0  0  0
 58 61  1  0  0  0  0
 58 71  1  0  0  0  0
 59 73  1  0  0  0  0
 60 62  1  0  0  0  0
 63 74  1  0  0  0  0
 64 65  1  0  0  0  0
M  CHG  2  73   1  74   1
M  ISO  4  32 100  57 101  72 100  81 101
M  END
> <Batch ID>
0106

> <Smiles>
CNC(C)C(=O)NC(C(=O)N1Cc2cc([101O:1][101CH2:1]C(C)(CNC(C)(C)C[100NH:0][100C:0](=O)N3CCCC(n4nc(-c5ccc(Oc6ccc(F)cc6F)cc5)c(C(N)=O)c4N)C3)C(C)C)ccc2CC1C(=O)NC1CCCc2ccccc21)C(C)(C)C

> <Shape>
0.262

> <Color>
0.194

> <Negative vol penalty>
0.000

$$$$

  -OEChem-04052319483D

 82 90  0     1  0  0  0  0  0999 V2000
  -31.1088  -33.1483   14.6412 C   0  0  0  0  0  0  0  0  0  0  0  0
  -30.9611  -31.8127   15.0015 C   0  0  0  0  0  0  0  0  0  0  0  0
  -22.2395  -10.4890   21.6311 C   0  0  0  0  0  0  0  0  0  0  0  0
  -23.6542   -9.6465   19.8631 C   0  0  0  0  0  0  0  0  0  0  0  0
  -30.8924  -34.1517   15.5847 C   0  0  0  0  0  0  0  0  0  0  0  0
  -30.5978  -31.4798   16.3060 C   0  0  0  0  0  0  0  0  0  0  0  0
  -27.0742  -26.7890   18.0629 C   0  0  0  0  0  0  0  0  0  0  0  0
  -21.7798   -9.1958   21.8796 C   0  0  0  0  0  0  0  0  0  0  0  0
  -23.1945   -8.3532   20.1116 C   0  0  0  0  0  0  0  0  0  0  0  0
  -27.3781  -25.5217   18.5585 C   0  0  0  0  0  0  0  0  0  0  0  0
  -22.8817   -6.4231   23.4704 C   0  0  0  0  0  0  0  0  0  0  0  0
  -22.8055   -6.0064   24.7994 C   0  0  0  0  0  0  0  0  0  0  0  0
  -27.0952  -26.3409   20.8097 C   0  0  0  0  0  0  0  0  0  0  0  0
  -20.4292   -5.6483   24.5508 C   0  0  0  0  0  0  0  0  0  0  0  0
  -23.1767  -10.7144   20.6228 C   0  0  0  0  0  0  0  0  0  0  0  0
  -24.7628  -12.6852   20.9516 C   0  0  0  0  0  0  0  0  0  0  0  0
  -30.5168  -33.8313   16.8988 C   0  0  0  0  0  0  0  0  0  0  0  0
  -26.7888  -27.8462   18.9389 C   0  0  0  0  0  0  0  0  0  0  0  0
  -30.3774  -32.4798   17.2683 C   0  0  0  0  0  0  0  0  0  0  0  0
  -26.7856  -27.6200   20.3227 C   0  0  0  0  0  0  0  0  0  0  0  0
  -22.2573   -8.1279   21.1199 C   0  0  0  0  0  0  0  0  0  0  0  0
  -27.3914  -25.2982   19.9321 C   0  0  0  0  0  0  0  0  0  0  0  0
  -21.7316   -6.4525   22.6817 C   0  0  0  0  0  0  0  0  0  0  0  0
  -21.5793   -5.6190   25.3396 C   0  0  0  0  0  0  0  0  0  0  0  0
  -20.5054   -6.0651   23.2219 C   0  0  0  0  0  0  0  0  0  0  0  0
  -23.6515  -12.0502   20.3653 C   0  0  0  0  0  0  0  0  0  0  0  0
  -24.7885  -13.9323   20.3767 C   0  0  0  0  0  0  0  0  0  0  0  0
  -25.6890  -12.1918   21.9285 C   0  0  0  0  0  0  0  0  0  0  0  0
  -28.1201  -30.6645   19.5622 C   0  0  0  0  0  0  0  0  0  0  0  0
  -25.5058  -31.0452   21.4444 C   0  0  0  0  0  0  0  0  0  0  0  0
  -22.9953  -29.5942   23.2440 C   0  0  0  0  0  0  0  0  0  0  0  0
  -24.4065  -17.2330   15.8929 C   0  0  0  0  0  0  0  0  0  0  0  0
  -30.3399  -34.9487   17.8962 C   0  0  0  0  0  0  0  0  0  0  0  0
  -26.4368  -29.2006   18.3876 C   0  0  0  0  0  0  0  0  0  0  0  0
  -26.4663  -28.7164   21.3047 C   0  0  0  0  0  0  0  0  0  0  0  0
  -29.5923  -34.5260   19.1582 C   0  0  0  0  0  0  0  0  0  0  0  0
  -21.3688  -16.3025   17.5000 C   0  0  0  0  0  0  0  0  0  0  0  0
  -29.3089  -18.2348   19.3618 C   0  0  0  0  0  0  0  0  0  0  0  0
  -30.1450  -33.2073   19.6896 C   0  0  0  0  0  0  0  0  0  0  0  0
  -21.7825  -15.1621   18.4319 C   0  0  0  0  0  0  0  0  0  0  0  0
  -28.7502  -18.0471   17.9661 C   0  0  0  0  0  0  0  0  0  0  0  0
  -22.1445  -16.2664   16.1851 C   0  0  0  0  0  0  0  0  0  0  0  0
  -24.0254  -15.0951   17.2641 C   0  0  0  0  0  0  0  0  0  0  0  0
  -29.0413  -19.6982   19.6573 C   0  0  0  0  0  0  0  0  0  0  0  0
  -29.9604  -32.0796   18.6669 C   0  0  1  0  0  0  0  0  0  0  0  0
  -26.6657  -30.3304   19.3869 C   0  0  1  0  0  0  0  0  0  0  0  0
  -23.3103  -15.1225   18.6258 C   0  0  2  0  0  0  0  0  0  0  0  0
  -27.4366  -18.8128   18.0279 C   0  0  2  0  0  0  0  0  0  0  0  0
  -21.0355  -30.1631   24.7045 C   0  0  0  0  0  0  0  0  0  0  0  0
  -26.2903  -19.3505   20.7025 C   0  0  0  0  0  0  0  0  0  0  0  0
  -27.4080  -31.6909   23.7411 C   0  0  0  0  0  0  0  0  0  0  0  0
  -25.5092  -31.3117   25.3282 C   0  0  0  0  0  0  0  0  0  0  0  0
  -25.3714  -33.1384   23.6350 C   0  0  0  0  0  0  0  0  0  0  0  0
  -21.0893  -28.2896   21.3934 C   0  0  0  0  0  0  0  0  0  0  0  0
  -26.9243  -19.2523   16.6686 C   0  0  0  0  0  0  0  0  0  0  0  0
  -27.0514  -21.7513   20.5098 C   0  0  0  0  0  0  0  0  0  0  0  0
  -26.7288  -18.0874   15.7027 C   0  0  0  0  0  0  0  0  0  0  0  0
  -27.3410  -22.9433   19.6042 C   0  0  0  0  0  0  0  0  0  1  0  0
  -25.1693  -30.7332   22.8826 C   0  0  1  0  0  0  0  0  0  0  0  0
  -21.5020  -29.8637   23.2883 C   0  0  2  0  0  0  0  0  0  0  0  0
  -26.6437  -20.4865   19.7517 C   0  0  1  0  0  0  0  0  0  0  0  0
  -25.8724  -31.6982   23.8785 C   0  0  0  0  0  0  0  0  0  0  0  0
  -23.0171  -12.8296   19.4855 N   0  0  0  0  0  0  0  0  0  0  0  0
  -23.7320  -13.9673   19.5148 N   0  0  0  0  0  0  0  0  0  0  0  0
  -26.1345  -30.0248   20.7169 N   0  0  0  0  0  0  0  0  0  0  0  0
  -23.5868  -16.2317   16.4391 N   0  0  0  0  0  0  0  0  0  0  0  0
  -25.6114  -14.9915   20.5294 N   0  0  0  0  0  0  0  0  0  0  0  0
  -25.5174  -10.8881   22.4134 N   0  0  0  0  0  0  0  0  0  0  0  0
  -28.5911  -31.6113   18.6727 N   0  0  0  0  0  0  0  0  0  0  0  0
  -23.7131  -30.7395   22.9717 N   0  0  0  0  0  0  0  0  0  0  0  0
  -25.7605  -17.1291   16.1873 N   0  0  0  0  0  0  0  0  0  0  0  0
  -27.7749  -20.0268   18.8835 N   0  3  1  0  0  0  0  0  0  0  0  0
  -20.7471  -28.6815   22.7849 N   0  3  0  0  0  0  0  0  0  0  0  0
  -26.6310  -12.8922   22.3707 O   0  0  0  0  0  0  0  0  0  0  0  0
  -28.7668  -30.1057   20.4405 O   0  0  0  0  0  0  0  0  0  0  0  0
  -25.2149  -32.1510   20.9814 O   0  0  0  0  0  0  0  0  0  0  0  0
  -23.4770  -28.4798   23.4356 O   0  0  0  0  0  0  0  0  0  0  0  0
  -23.9638  -18.1546   15.1989 O   0  0  0  0  0  0  0  0  0  0  0  0
  -21.8091   -6.8658   21.3622 O   0  0  0  0  0  0  0  0  0  0  0  0
  -27.6883  -24.0625   20.4185 O   0  0  0  0  0  0  0  0  0  1  0  0
  -21.5065   -5.2173   26.6153 F   0  0  0  0  0  0  0  0  0  0  0  0
  -19.3973   -6.0901   22.4687 F   0  0  0  0  0  0  0  0  0  0  0  0
  1  2  1  0  0  0  0
  1  5  2  0  0  0  0
  2  6  2  0  0  0  0
  3  8  2  0  0  0  0
  3 15  1  0  0  0  0
  4  9  1  0  0  0  0
  4 15  2  0  0  0  0
  5 17  1  0  0  0  0
  6 19  1  0  0  0  0
  7 10  2  0  0  0  0
  7 18  1  0  0  0  0
  8 21  1  0  0  0  0
  9 21  2  0  0  0  0
 10 22  1  0  0  0  0
 11 12  2  0  0  0  0
 11 23  1  0  0  0  0
 12 24  1  0  0  0  0
 13 20  1  0  0  0  0
 13 22  2  0  0  0  0
 14 24  2  0  0  0  0
 14 25  1  0  0  0  0
 15 26  1  0  0  0  0
 16 26  1  0  0  0  0
 16 27  2  0  0  0  0
 16 28  1  0  0  0  0
 17 19  2  0  0  0  0
 17 33  1  0  0  0  0
 18 20  2  0  0  0  0
 18 34  1  0  0  0  0
 19 45  1  0  0  0  0
 20 35  1  0  0  0  0
 21 79  1  0  0  0  0
 22 80  1  0  0  0  0
 23 25  2  0  0  0  0
 23 79  1  0  0  0  0
 24 81  1  0  0  0  0
 25 82  1  0  0  0  0
 26 63  2  0  0  0  0
 27 64  1  0  0  0  0
 27 67  1  0  0  0  0
 28 68  1  0  0  0  0
 28 74  2  0  0  0  0
 29 46  1  0  0  0  0
 29 69  1  0  0  0  0
 29 75  2  0  0  0  0
 30 59  1  0  0  0  0
 30 65  1  0  0  0  0
 30 76  2  0  0  0  0
 31 60  1  0  0  0  0
 31 70  1  0  0  0  0
 31 77  2  0  0  0  0
 32 66  1  0  0  0  0
 32 71  1  0  0  0  0
 32 78  2  0  0  0  0
 33 36  1  0  0  0  0
 34 46  1  0  0  0  0
 35 65  1  0  0  0  0
 36 39  1  0  0  0  0
 37 40  1  0  0  0  0
 37 42  1  0  0  0  0
 38 41  1  0  0  0  0
 38 44  1  0  0  0  0
 39 45  1  0  0  0  0
 40 47  1  0  0  0  0
 41 48  1  0  0  0  0
 42 66  1  0  0  0  0
 43 47  1  0  0  0  0
 43 66  1  0  0  0  0
 44 72  1  0  0  0  0
 45 69  1  0  0  0  0
 46 65  1  0  0  0  0
 47 64  1  0  0  0  0
 48 55  1  0  0  0  0
 48 72  1  0  0  0  0
 49 60  1  0  0  0  0
 50 61  1  0  0  0  0
 51 62  1  0  0  0  0
 52 62  1  0  0  0  0
 53 62  1  0  0  0  0
 54 73  1  0  0  0  0
 55 57  1  0  0  0  0
 56 58  1  0  0  0  0
 56 61  1  0  0  0  0
 57 71  1  0  0  0  0
 58 80  1  0  0  0  0
 59 62  1  0  0  0  0
 59 70  1  0  0  0  0
 60 73  1  0  0  0  0
 61 72  1  0  0  0  0
 63 64  1  0  0  0  0
M  CHG  2  72   1  73   1
M  ISO  4  32 100  58 101  71 100  80 101
M  END
> <Batch ID>
0106

> <Smiles>
CNC(C)C(=O)NC(C(=O)N1Cc2cc([101O:1][101CH2:1]CC(C)N3CCCC3CC[100NH:0][100C:0](=O)N3CCCC(n4nc(-c5ccc(Oc6ccc(F)cc6F)cc5)c(C(N)=O)c4N)C3)ccc2CC1C(=O)NC1CCCc2ccccc21)C(C)(C)C

> <Shape>
0.238

> <Color>
0.117

> <Negative vol penalty>
0.000

$$$$

  -OEChem-04052319483D

 88 97  0     1  0  0  0  0  0999 V2000
  -24.4092  -17.0525   19.6001 C   0  0  0  0  0  0  0  0  0  0  0  0
  -24.9903  -18.2792   19.2952 C   0  0  0  0  0  0  0  0  0  0  0  0
  -26.2547  -13.1933   20.9891 C   0  0  0  0  0  0  0  0  0  0  0  0
  -26.5143  -13.1036   18.5888 C   0  0  0  0  0  0  0  0  0  0  0  0
  -23.0767  -16.9954   20.0064 C   0  0  0  0  0  0  0  0  0  0  0  0
  -24.2388  -19.4495   19.3954 C   0  0  0  0  0  0  0  0  0  0  0  0
  -26.7649  -23.1896   21.6923 C   0  0  0  0  0  0  0  0  0  0  0  0
  -25.0721  -12.4607   20.8886 C   0  0  0  0  0  0  0  0  0  0  0  0
  -25.3316  -12.3709   18.4883 C   0  0  0  0  0  0  0  0  0  0  0  0
  -27.7160  -23.8736   20.9364 C   0  0  0  0  0  0  0  0  0  0  0  0
  -24.1723   -9.2295   20.4611 C   0  0  0  0  0  0  0  0  0  0  0  0
  -23.9832   -8.1777   21.3575 C   0  0  0  0  0  0  0  0  0  0  0  0
  -26.1360  -25.6606   20.5765 C   0  0  0  0  0  0  0  0  0  0  0  0
  -21.9854   -9.2490   22.1932 C   0  0  0  0  0  0  0  0  0  0  0  0
  -28.1621  -24.6754   16.1435 C   0  0  0  0  0  0  0  0  0  0  0  0
  -30.3332  -24.7667   16.6845 C   0  0  0  0  0  0  0  0  0  0  0  0
  -26.9758  -13.5149   19.8391 C   0  0  0  0  0  0  0  0  0  0  0  0
  -29.5009  -13.7653   20.1019 C   0  0  0  0  0  0  0  0  0  0  0  0
  -22.3113  -18.1666   20.1209 C   0  0  0  0  0  0  0  0  0  0  0  0
  -25.4865  -23.7319   21.8872 C   0  0  0  0  0  0  0  0  0  0  0  0
  -22.8944  -19.4079   19.8023 C   0  0  0  0  0  0  0  0  0  0  0  0
  -25.1714  -24.9827   21.3374 C   0  0  0  0  0  0  0  0  0  0  0  0
  -28.7576  -23.5362   15.6485 C   0  0  0  0  0  0  0  0  0  0  0  0
  -30.1312  -23.5940   15.9907 C   0  0  0  0  0  0  0  0  0  0  0  0
  -24.6105  -12.0494   19.6382 C   0  0  0  0  0  0  0  0  0  0  0  0
  -27.4007  -25.1079   20.3759 C   0  0  0  0  0  0  0  0  0  0  0  0
  -23.2680  -10.2912   20.4309 C   0  0  0  0  0  0  0  0  0  0  0  0
  -22.8898   -8.1874   22.2235 C   0  0  0  0  0  0  0  0  0  0  0  0
  -22.1746  -10.3009   21.2969 C   0  0  0  0  0  0  0  0  0  0  0  0
  -28.1973  -14.2722   19.9422 C   0  0  0  0  0  0  0  0  0  0  0  0
  -30.3003  -14.8813   20.1458 C   0  0  0  0  0  0  0  0  0  0  0  0
  -29.9491  -12.4070   20.2016 C   0  0  0  0  0  0  0  0  0  0  0  0
  -22.5309  -22.8342   21.1371 C   0  0  0  0  0  0  0  0  0  0  0  0
  -21.7120  -25.4261   22.9072 C   0  0  0  0  0  0  0  0  0  0  0  0
  -22.6015  -28.4672   24.1750 C   0  0  0  0  0  0  0  0  0  0  0  0
  -30.7274  -20.0157   17.7235 C   0  0  0  0  0  0  0  0  0  0  0  0
  -20.8611  -18.0502   20.5184 C   0  0  0  0  0  0  0  0  0  0  0  0
  -24.4806  -22.9939   22.7275 C   0  0  0  0  0  0  0  0  0  0  0  0
  -23.8198  -25.6176   21.5340 C   0  0  0  0  0  0  0  0  0  0  0  0
  -20.2423  -19.3740   20.9597 C   0  0  0  0  0  0  0  0  0  0  0  0
  -29.5502  -19.6694   21.1281 C   0  0  0  0  0  0  0  0  0  0  0  0
  -20.6021  -20.4849   19.9783 C   0  0  0  0  0  0  0  0  0  0  0  0
  -29.2071  -18.1796   21.1813 C   0  0  0  0  0  0  0  0  0  0  0  0
  -27.5795  -21.2934   15.8017 C   0  0  0  0  0  0  0  0  0  0  0  0
  -26.9041  -22.9591   14.0134 C   0  0  0  0  0  0  0  0  0  0  0  0
  -29.1981  -20.2697   19.7702 C   0  0  0  0  0  0  0  0  0  0  0  0
  -29.4831  -18.0878   18.6603 C   0  0  0  0  0  0  0  0  0  0  0  0
  -26.8899  -20.1903   15.0118 C   0  0  0  0  0  0  0  0  0  0  0  0
  -26.2232  -21.8346   13.2462 C   0  0  0  0  0  0  0  0  0  0  0  0
  -28.0614  -22.4321   14.8828 C   0  0  0  0  0  0  0  0  0  0  0  0
  -22.1191  -20.7020   19.9226 C   0  0  1  0  0  0  0  0  0  0  0  0
  -23.0406  -23.4018   22.4316 C   0  0  1  0  0  0  0  0  0  0  0  0
  -29.8364  -17.4172   20.0002 C   0  0  2  0  0  0  0  0  0  0  0  0
  -21.7078  -30.3653   25.5519 C   0  0  0  0  0  0  0  0  0  0  0  0
  -20.0706  -26.3823   20.5194 C   0  0  0  0  0  0  0  0  0  0  0  0
  -19.9964  -28.6541   21.5688 C   0  0  0  0  0  0  0  0  0  0  0  0
  -18.9678  -26.7068   22.7404 C   0  0  0  0  0  0  0  0  0  0  0  0
  -30.1802  -27.3724   18.0932 C   0  0  0  0  0  0  0  0  0  0  0  0
  -28.3782  -27.7908   16.4333 C   0  0  0  0  0  0  0  0  0  0  0  0
  -24.6811  -28.0957   26.2477 C   0  0  0  0  0  0  0  0  0  0  0  0
  -31.1644  -22.5900   15.6688 C   0  0  0  0  0  0  0  0  0  0  0  0
  -31.9080  -22.0359   16.8976 C   0  0  0  0  0  0  0  0  0  0  0  0
  -27.8399  -26.6197   18.5934 C   0  0  0  0  0  0  0  0  0  1  0  0
  -21.4864  -26.8905   22.6178 C   0  0  1  0  0  0  0  0  0  0  0  0
  -22.4759  -29.0529   25.5698 C   0  0  2  0  0  0  0  0  0  0  0  0
  -20.1552  -27.1458   21.8561 C   0  0  0  0  0  0  0  0  0  0  0  0
  -28.8984  -26.7688   17.4703 C   0  0  0  0  0  0  0  0  0  0  0  0
  -28.1659  -15.6064   19.8885 N   0  0  0  0  0  0  0  0  0  0  0  0
  -29.1294  -25.4157   16.7716 N   0  0  0  0  0  0  0  0  0  0  0  0
  -29.4596  -15.9473   20.0152 N   0  0  0  0  0  0  0  0  0  0  0  0
  -22.8683  -24.8541   22.3582 N   0  0  0  0  0  0  0  0  0  0  0  0
  -29.8434  -19.5093   18.6907 N   0  0  0  0  0  0  0  0  0  0  0  0
  -31.6332  -15.0450   20.2831 N   0  0  0  0  0  0  0  0  0  0  0  0
  -28.9952  -11.3822   20.1375 N   0  0  0  0  0  0  0  0  0  0  0  0
  -22.5647  -21.4541   21.0760 N   0  0  0  0  0  0  0  0  0  0  0  0
  -21.5828  -27.5796   23.9001 N   0  0  0  0  0  0  0  0  0  0  0  0
  -31.0114  -21.3726   17.8180 N   0  0  0  0  0  0  0  0  0  0  0  0
  -25.7801  -20.7812   14.2069 N   0  3  0  0  0  0  0  0  0  0  0  0
  -23.8256  -29.3062   26.1488 N   0  3  0  0  0  0  0  0  0  0  0  0
  -31.1579  -12.1115   20.3598 O   0  0  0  0  0  0  0  0  0  0  0  0
  -22.1348  -23.5921   20.2594 O   0  0  0  0  0  0  0  0  0  0  0  0
  -20.8961  -24.8142   23.6011 O   0  0  0  0  0  0  0  0  0  0  0  0
  -23.5103  -28.7699   23.4048 O   0  0  0  0  0  0  0  0  0  0  0  0
  -31.2312  -19.3094   16.8434 O   0  0  0  0  0  0  0  0  0  0  0  0
  -23.4566  -11.3343   19.5398 O   0  0  0  0  0  0  0  0  0  0  0  0
  -28.3270  -25.7773   19.6372 O   0  0  0  0  0  0  0  0  0  1  0  0
  -22.7075   -7.1765   23.0832 F   0  0  0  0  0  0  0  0  0  0  0  0
  -21.3018  -11.3174   21.2716 F   0  0  0  0  0  0  0  0  0  0  0  0
  1  2  1  0  0  0  0
  1  5  2  0  0  0  0
  2  6  2  0  0  0  0
  3  8  2  0  0  0  0
  3 17  1  0  0  0  0
  4  9  1  0  0  0  0
  4 17  2  0  0  0  0
  5 19  1  0  0  0  0
  6 21  1  0  0  0  0
  7 10  2  0  0  0  0
  7 20  1  0  0  0  0
  8 25  1  0  0  0  0
  9 25  2  0  0  0  0
 10 26  1  0  0  0  0
 11 12  2  0  0  0  0
 11 27  1  0  0  0  0
 12 28  1  0  0  0  0
 13 22  1  0  0  0  0
 13 26  2  0  0  0  0
 14 28  2  0  0  0  0
 14 29  1  0  0  0  0
 15 23  2  0  0  0  0
 15 69  1  0  0  0  0
 16 24  2  0  0  0  0
 16 69  1  0  0  0  0
 17 30  1  0  0  0  0
 18 30  1  0  0  0  0
 18 31  2  0  0  0  0
 18 32  1  0  0  0  0
 19 21  2  0  0  0  0
 19 37  1  0  0  0  0
 20 22  2  0  0  0  0
 20 38  1  0  0  0  0
 21 51  1  0  0  0  0
 22 39  1  0  0  0  0
 23 24  1  0  0  0  0
 23 50  1  0  0  0  0
 24 61  1  0  0  0  0
 25 85  1  0  0  0  0
 26 86  1  0  0  0  0
 27 29  2  0  0  0  0
 27 85  1  0  0  0  0
 28 87  1  0  0  0  0
 29 88  1  0  0  0  0
 30 68  2  0  0  0  0
 31 70  1  0  0  0  0
 31 73  1  0  0  0  0
 32 74  1  0  0  0  0
 32 80  2  0  0  0  0
 33 52  1  0  0  0  0
 33 75  1  0  0  0  0
 33 81  2  0  0  0  0
 34 64  1  0  0  0  0
 34 71  1  0  0  0  0
 34 82  2  0  0  0  0
 35 65  1  0  0  0  0
 35 76  1  0  0  0  0
 35 83  2  0  0  0  0
 36 72  1  0  0  0  0
 36 77  1  0  0  0  0
 36 84  2  0  0  0  0
 37 40  1  0  0  0  0
 38 52  1  0  0  0  0
 39 71  1  0  0  0  0
 40 42  1  0  0  0  0
 41 43  1  0  0  0  0
 41 46  1  0  0  0  0
 42 51  1  0  0  0  0
 43 53  1  0  0  0  0
 44 48  1  0  0  0  0
 44 50  1  0  0  0  0
 45 49  1  0  0  0  0
 45 50  1  0  0  0  0
 46 72  1  0  0  0  0
 47 53  1  0  0  0  0
 47 72  1  0  0  0  0
 48 78  1  0  0  0  0
 49 78  1  0  0  0  0
 51 75  1  0  0  0  0
 52 71  1  0  0  0  0
 53 70  1  0  0  0  0
 54 65  1  0  0  0  0
 55 66  1  0  0  0  0
 56 66  1  0  0  0  0
 57 66  1  0  0  0  0
 58 67  1  0  0  0  0
 59 67  1  0  0  0  0
 60 79  1  0  0  0  0
 61 62  1  0  0  0  0
 62 77  1  0  0  0  0
 63 67  1  0  0  0  0
 63 86  1  0  0  0  0
 64 66  1  0  0  0  0
 64 76  1  0  0  0  0
 65 79  1  0  0  0  0
 67 69  1  0  0  0  0
 68 70  1  0  0  0  0
M  CHG  2  78   1  79   1
M  ISO  4  36 100  63 101  77 100  86 101
M  END
> <Batch ID>
0106

> <Smiles>
CNC(C)C(=O)NC(C(=O)N1Cc2cc([101O:1][101CH2:1]C(C)(C)n3cc(CC[100NH:0][100C:0](=O)N4CCCC(n5nc(-c6ccc(Oc7ccc(F)cc7F)cc6)c(C(N)=O)c5N)C4)c(C4CCNCC4)c3)ccc2CC1C(=O)NC1CCCc2ccccc21)C(C)(C)C

> <Shape>
0.205

> <Color>
0.063

> <Negative vol penalty>
0.000

$$$$

  -OEChem-04052319483D

 87 95  0     1  0  0  0  0  0999 V2000
  -25.2152  -35.6000   21.6504 C   0  0  0  0  0  0  0  0  0  0  0  0
  -25.9007  -34.3895   21.6348 C   0  0  0  0  0  0  0  0  0  0  0  0
  -25.8682  -12.5382   21.5283 C   0  0  0  0  0  0  0  0  0  0  0  0
  -24.9220  -12.6851   19.3101 C   0  0  0  0  0  0  0  0  0  0  0  0
  -23.9461  -35.6738   22.2229 C   0  0  0  0  0  0  0  0  0  0  0  0
  -25.3177  -33.2523   22.1927 C   0  0  0  0  0  0  0  0  0  0  0  0
  -25.8392  -29.1612   19.2540 C   0  0  0  0  0  0  0  0  0  0  0  0
  -25.2722  -11.2889   21.6998 C   0  0  0  0  0  0  0  0  0  0  0  0
  -24.3260  -11.4357   19.4816 C   0  0  0  0  0  0  0  0  0  0  0  0
  -27.0785  -28.5227   19.2655 C   0  0  0  0  0  0  0  0  0  0  0  0
  -25.8595   -8.0974   20.7499 C   0  0  0  0  0  0  0  0  0  0  0  0
  -26.6369   -7.0784   21.3004 C   0  0  0  0  0  0  0  0  0  0  0  0
  -26.2036  -26.8647   20.7836 C   0  0  0  0  0  0  0  0  0  0  0  0
  -31.0996  -22.8785   20.9555 C   0  0  0  0  0  0  0  0  0  0  0  0
  -25.0766   -6.8788   23.1342 C   0  0  0  0  0  0  0  0  0  0  0  0
  -29.6134  -21.1912   20.8371 C   0  0  0  0  0  0  0  0  0  0  0  0
  -25.6930  -13.2364   20.3334 C   0  0  0  0  0  0  0  0  0  0  0  0
  -27.5854  -14.7951   19.6285 C   0  0  0  0  0  0  0  0  0  0  0  0
  -23.3433  -34.5348   22.7795 C   0  0  0  0  0  0  0  0  0  0  0  0
  -24.7740  -28.6615   20.0171 C   0  0  0  0  0  0  0  0  0  0  0  0
  -24.0399  -33.3112   22.7744 C   0  0  0  0  0  0  0  0  0  0  0  0
  -24.9510  -27.4972   20.7780 C   0  0  0  0  0  0  0  0  0  0  0  0
  -30.8546  -21.5335   21.3267 C   0  0  0  0  0  0  0  0  0  0  0  0
  -24.5011  -10.7376   20.6764 C   0  0  0  0  0  0  0  0  0  0  0  0
  -27.2617  -27.3760   20.0326 C   0  0  0  0  0  0  0  0  0  0  0  0
  -24.6907   -8.5071   21.3916 C   0  0  0  0  0  0  0  0  0  0  0  0
  -26.2454   -6.4691   22.4925 C   0  0  0  0  0  0  0  0  0  0  0  0
  -24.2993   -7.8978   22.5837 C   0  0  0  0  0  0  0  0  0  0  0  0
  -26.3079  -14.5273   20.1559 C   0  0  0  0  0  0  0  0  0  0  0  0
  -30.0006  -23.3174   20.2505 C   0  0  0  0  0  0  0  0  0  0  0  0
  -27.6947  -16.1636   19.6716 C   0  0  0  0  0  0  0  0  0  0  0  0
  -28.5840  -13.8880   19.1430 C   0  0  0  0  0  0  0  0  0  0  0  0
  -23.0204  -29.7772   22.4220 C   0  0  0  0  0  0  0  0  0  0  0  0
  -21.3389  -27.0435   21.9509 C   0  0  0  0  0  0  0  0  0  0  0  0
  -21.2873  -23.8399   20.7756 C   0  0  0  0  0  0  0  0  0  0  0  0
  -25.1251  -21.1051   18.5332 C   0  0  0  0  0  0  0  0  0  0  0  0
  -21.9894  -34.6741   23.4293 C   0  0  0  0  0  0  0  0  0  0  0  0
  -23.4357  -29.3466   19.9729 C   0  0  0  0  0  0  0  0  0  0  0  0
  -23.8335  -26.9088   21.5988 C   0  0  0  0  0  0  0  0  0  0  0  0
  -21.2864  -33.3397   23.6644 C   0  0  0  0  0  0  0  0  0  0  0  0
  -24.8110  -19.6454   21.9202 C   0  0  0  0  0  0  0  0  0  0  0  0
  -22.2488  -32.3310   24.2834 C   0  0  0  0  0  0  0  0  0  0  0  0
  -25.2113  -18.1885   21.6935 C   0  0  0  0  0  0  0  0  0  0  0  0
  -24.2065  -20.2692   20.6660 C   0  0  0  0  0  0  0  0  0  0  0  0
  -25.4723  -18.7006   19.2338 C   0  0  0  0  0  0  0  0  0  0  0  0
  -23.4306  -32.0501   23.3475 C   0  0  1  0  0  0  0  0  0  0  0  0
  -22.5688  -29.0434   21.1910 C   0  0  1  0  0  0  0  0  0  0  0  0
  -26.1276  -18.0562   20.4646 C   0  0  2  0  0  0  0  0  0  0  0  0
  -19.7823  -21.8429   20.5651 C   0  0  0  0  0  0  0  0  0  0  0  0
  -32.0724  -21.2472   23.5132 C   0  0  0  0  0  0  0  0  0  0  0  0
  -33.1351  -20.4638   21.3701 C   0  0  0  0  0  0  0  0  0  0  0  0
  -31.2409  -19.2016   22.3703 C   0  0  0  0  0  0  0  0  0  0  0  0
  -29.4966  -24.6256   18.0794 C   0  0  0  0  0  0  0  0  0  0  0  0
  -30.9366  -25.6154   19.8470 C   0  0  0  0  0  0  0  0  0  0  0  0
  -21.7260  -26.4421   24.9171 C   0  0  0  0  0  0  0  0  0  0  0  0
  -21.0663  -24.0723   24.4513 C   0  0  0  0  0  0  0  0  0  0  0  0
  -19.4441  -25.9213   24.0362 C   0  0  0  0  0  0  0  0  0  0  0  0
  -26.3035  -21.7777   16.4745 C   0  0  0  0  0  0  0  0  0  0  0  0
  -21.4600  -23.8760   17.8214 C   0  0  0  0  0  0  0  0  0  0  0  0
  -27.8133  -22.3209   19.5321 C   0  0  0  0  0  0  0  0  0  0  0  0
  -27.6511  -21.2376   18.4690 C   0  0  0  0  0  0  0  0  0  0  0  0
  -28.4698  -25.3394   20.2541 C   0  0  0  0  0  0  0  0  0  1  0  0
  -21.4192  -25.6336   22.4844 C   0  0  1  0  0  0  0  0  0  0  0  0
  -20.2940  -23.1070   19.8921 C   0  0  2  0  0  0  0  0  0  0  0  0
  -31.7609  -20.6593   22.0955 C   0  0  0  0  0  0  0  0  0  0  0  0
  -29.7213  -24.6897   19.6094 C   0  0  0  0  0  0  0  0  0  0  0  0
  -20.9357  -25.5293   23.9584 C   0  0  0  0  0  0  0  0  0  0  0  0
  -25.6527  -15.6366   20.5083 N   0  0  0  0  0  0  0  0  0  0  0  0
  -29.1035  -22.2834   20.1850 N   0  0  0  0  0  0  0  0  0  0  0  0
  -26.5219  -16.6147   20.2018 N   0  0  0  0  0  0  0  0  0  0  0  0
  -22.5456  -27.6185   21.5277 N   0  0  0  0  0  0  0  0  0  0  0  0
  -25.0781  -20.0913   19.5042 N   0  0  0  0  0  0  0  0  0  0  0  0
  -28.6787  -17.0130   19.3073 N   0  0  0  0  0  0  0  0  0  0  0  0
  -28.3085  -12.5141   19.1703 N   0  0  0  0  0  0  0  0  0  0  0  0
  -23.0315  -31.1522   22.2850 N   0  0  0  0  0  0  0  0  0  0  0  0
  -20.6708  -24.8002   21.5497 N   0  0  0  0  0  0  0  0  0  0  0  0
  -26.3331  -21.2701   17.8388 N   0  0  0  0  0  0  0  0  0  0  0  0
  -20.9323  -22.7263   18.6004 N   0  3  0  0  0  0  0  0  0  0  0  0
  -29.6943  -14.2831   18.7133 O   0  0  0  0  0  0  0  0  0  0  0  0
  -23.3340  -29.1429   23.4225 O   0  0  0  0  0  0  0  0  0  0  0  0
  -20.2447  -27.6111   21.9044 O   0  0  0  0  0  0  0  0  0  0  0  0
  -22.4893  -23.5835   20.7815 O   0  0  0  0  0  0  0  0  0  0  0  0
  -24.1462  -21.8280   18.3068 O   0  0  0  0  0  0  0  0  0  0  0  0
  -23.9196   -9.5183   20.8433 O   0  0  0  0  0  0  0  0  0  0  0  0
  -28.4706  -26.7512   20.0462 O   0  0  0  0  0  0  0  0  0  1  0  0
  -26.9912   -5.4896   23.0203 F   0  0  0  0  0  0  0  0  0  0  0  0
  -23.1768   -8.2864   23.2041 F   0  0  0  0  0  0  0  0  0  0  0  0
  1  2  1  0  0  0  0
  1  5  2  0  0  0  0
  2  6  2  0  0  0  0
  3  8  2  0  0  0  0
  3 17  1  0  0  0  0
  4  9  1  0  0  0  0
  4 17  2  0  0  0  0
  5 19  1  0  0  0  0
  6 21  1  0  0  0  0
  7 10  2  0  0  0  0
  7 20  1  0  0  0  0
  8 24  1  0  0  0  0
  9 24  2  0  0  0  0
 10 25  1  0  0  0  0
 11 12  2  0  0  0  0
 11 26  1  0  0  0  0
 12 27  1  0  0  0  0
 13 22  1  0  0  0  0
 13 25  2  0  0  0  0
 14 23  1  0  0  0  0
 14 30  2  0  0  0  0
 15 27  2  0  0  0  0
 15 28  1  0  0  0  0
 16 23  2  0  0  0  0
 16 69  1  0  0  0  0
 17 29  1  0  0  0  0
 18 29  1  0  0  0  0
 18 31  2  0  0  0  0
 18 32  1  0  0  0  0
 19 21  2  0  0  0  0
 19 37  1  0  0  0  0
 20 22  2  0  0  0  0
 20 38  1  0  0  0  0
 21 46  1  0  0  0  0
 22 39  1  0  0  0  0
 23 65  1  0  0  0  0
 24 84  1  0  0  0  0
 25 85  1  0  0  0  0
 26 28  2  0  0  0  0
 26 84  1  0  0  0  0
 27 86  1  0  0  0  0
 28 87  1  0  0  0  0
 29 68  2  0  0  0  0
 30 66  1  0  0  0  0
 30 69  1  0  0  0  0
 31 70  1  0  0  0  0
 31 73  1  0  0  0  0
 32 74  1  0  0  0  0
 32 79  2  0  0  0  0
 33 47  1  0  0  0  0
 33 75  1  0  0  0  0
 33 80  2  0  0  0  0
 34 63  1  0  0  0  0
 34 71  1  0  0  0  0
 34 81  2  0  0  0  0
 35 64  1  0  0  0  0
 35 76  1  0  0  0  0
 35 82  2  0  0  0  0
 36 72  1  0  0  0  0
 36 77  1  0  0  0  0
 36 83  2  0  0  0  0
 37 40  1  0  0  0  0
 38 47  1  0  0  0  0
 39 71  1  0  0  0  0
 40 42  1  0  0  0  0
 41 43  1  0  0  0  0
 41 44  1  0  0  0  0
 42 46  1  0  0  0  0
 43 48  1  0  0  0  0
 44 72  1  0  0  0  0
 45 48  1  0  0  0  0
 45 72  1  0  0  0  0
 46 75  1  0  0  0  0
 47 71  1  0  0  0  0
 48 70  1  0  0  0  0
 49 64  1  0  0  0  0
 50 65  1  0  0  0  0
 51 65  1  0  0  0  0
 52 65  1  0  0  0  0
 53 66  1  0  0  0  0
 54 66  1  0  0  0  0
 55 67  1  0  0  0  0
 56 67  1  0  0  0  0
 57 67  1  0  0  0  0
 58 77  1  0  0  0  0
 59 78  1  0  0  0  0
 60 61  1  0  0  0  0
 60 69  1  0  0  0  0
 61 77  1  0  0  0  0
 62 66  1  0  0  0  0
 62 85  1  0  0  0  0
 63 67  1  0  0  0  0
 63 76  1  0  0  0  0
 64 78  1  0  0  0  0
 68 70  1  0  0  0  0
M  CHG  1  78   1
M  ISO  4  36 100  62 101  77 100  85 101
M  END
> <Batch ID>
0106

> <Smiles>
CNC(C)C(=O)NC(C(=O)N1Cc2cc([101O:1][101CH2:1]C(C)(C)c3cc(C(C)(C)C)cn3CC[100N:0](C)[100C:0](=O)N3CCCC(n4nc(-c5ccc(Oc6ccc(F)cc6F)cc5)c(C(N)=O)c4N)C3)ccc2CC1C(=O)NC1CCCc2ccccc21)C(C)(C)C

> <Shape>
0.237

> <Color>
0.083

> <Negative vol penalty>
0.000

$$$$

  -OEChem-04052319483D

 82 90  0     1  0  0  0  0  0999 V2000
  -29.6460  -24.2372   21.3677 C   0  0  0  0  0  0  0  0  0  0  0  0
  -28.4252  -23.9111   20.7858 C   0  0  0  0  0  0  0  0  0  0  0  0
  -25.0127  -29.5362   19.4515 C   0  0  0  0  0  0  0  0  0  0  0  0
  -25.7639  -27.6435   20.7516 C   0  0  0  0  0  0  0  0  0  0  0  0
  -30.6743  -23.2963   21.4013 C   0  0  0  0  0  0  0  0  0  0  0  0
  -28.2324  -22.6442   20.2360 C   0  0  0  0  0  0  0  0  0  0  0  0
  -23.7704  -20.6257   21.5247 C   0  0  0  0  0  0  0  0  0  0  0  0
  -26.2877  -30.0965   19.5304 C   0  0  0  0  0  0  0  0  0  0  0  0
  -27.0389  -28.2037   20.8305 C   0  0  0  0  0  0  0  0  0  0  0  0
  -22.6435  -21.0846   20.8440 C   0  0  0  0  0  0  0  0  0  0  0  0
  -29.7594  -28.4892   18.8461 C   0  0  0  0  0  0  0  0  0  0  0  0
  -30.8496  -27.6499   18.6171 C   0  0  0  0  0  0  0  0  0  0  0  0
  -22.7043  -19.1269   19.4358 C   0  0  0  0  0  0  0  0  0  0  0  0
  -17.8660  -20.6108   22.2328 C   0  0  0  0  0  0  0  0  0  0  0  0
  -31.6780  -28.1202   20.8374 C   0  0  0  0  0  0  0  0  0  0  0  0
  -17.8914  -21.9486   20.4219 C   0  0  0  0  0  0  0  0  0  0  0  0
  -24.7508  -28.3098   20.0622 C   0  0  0  0  0  0  0  0  0  0  0  0
  -22.9486  -26.8571   18.9901 C   0  0  0  0  0  0  0  0  0  0  0  0
  -30.4909  -22.0140   20.8603 C   0  0  0  0  0  0  0  0  0  0  0  0
  -24.3801  -19.4172   21.1583 C   0  0  0  0  0  0  0  0  0  0  0  0
  -29.2597  -21.6858   20.2612 C   0  0  0  0  0  0  0  0  0  0  0  0
  -23.8373  -18.6536   20.1151 C   0  0  0  0  0  0  0  0  0  0  0  0
  -17.6269  -21.9295   21.7735 C   0  0  0  0  0  0  0  0  0  0  0  0
  -27.3008  -29.4302   20.2199 C   0  0  0  0  0  0  0  0  0  0  0  0
  -22.1120  -20.3366   19.7975 C   0  0  0  0  0  0  0  0  0  0  0  0
  -29.6285  -29.1441   20.0708 C   0  0  0  0  0  0  0  0  0  0  0  0
  -31.8090  -27.4653   19.6127 C   0  0  0  0  0  0  0  0  0  0  0  0
  -30.5878  -28.9595   21.0664 C   0  0  0  0  0  0  0  0  0  0  0  0
  -23.4338  -27.7308   19.9815 C   0  0  0  0  0  0  0  0  0  0  0  0
  -18.2695  -19.8642   21.1478 C   0  0  0  0  0  0  0  0  0  0  0  0
  -21.6526  -26.5988   19.3645 C   0  0  0  0  0  0  0  0  0  0  0  0
  -23.6102  -26.3262   17.8342 C   0  0  0  0  0  0  0  0  0  0  0  0
  -27.2463  -18.5942   20.0575 C   0  0  0  0  0  0  0  0  0  0  0  0
  -26.0970  -15.5846   20.4364 C   0  0  0  0  0  0  0  0  0  0  0  0
  -23.3846  -13.5242   20.6466 C   0  0  0  0  0  0  0  0  0  0  0  0
  -17.8734  -25.3533   23.2776 C   0  0  0  0  0  0  0  0  0  0  0  0
  -31.6476  -21.0464   20.8778 C   0  0  0  0  0  0  0  0  0  0  0  0
  -25.5792  -18.9228   21.9201 C   0  0  0  0  0  0  0  0  0  0  0  0
  -24.4424  -17.3395   19.6962 C   0  0  0  0  0  0  0  0  0  0  0  0
  -31.2369  -19.6012   20.6078 C   0  0  0  0  0  0  0  0  0  0  0  0
  -18.7437  -28.7827   22.8796 C   0  0  0  0  0  0  0  0  0  0  0  0
  -30.2943  -19.5289   19.4107 C   0  0  0  0  0  0  0  0  0  0  0  0
  -20.0043  -28.7421   22.0140 C   0  0  0  0  0  0  0  0  0  0  0  0
  -18.6964  -27.6153   23.8629 C   0  0  0  0  0  0  0  0  0  0  0  0
  -20.1115  -26.2421   22.3845 C   0  0  0  0  0  0  0  0  0  0  0  0
  -29.0039  -20.3136   19.6764 C   0  0  1  0  0  0  0  0  0  0  0  0
  -26.4242  -17.9312   21.1263 C   0  0  1  0  0  0  0  0  0  0  0  0
  -20.1768  -27.3683   21.3386 C   0  0  2  0  0  0  0  0  0  0  0  0
  -18.6436  -18.4372   21.0653 C   0  0  0  0  0  0  0  0  0  0  0  0
  -22.7622  -11.1084   20.9187 C   0  0  0  0  0  0  0  0  0  0  0  0
  -26.8478  -15.0657   17.5248 C   0  0  0  0  0  0  0  0  0  0  0  0
  -25.3774  -13.0401   17.5794 C   0  0  0  0  0  0  0  0  0  0  0  0
  -27.3605  -13.1806   19.0862 C   0  0  0  0  0  0  0  0  0  0  0  0
  -17.7789  -19.1574   18.0315 C   0  0  0  0  0  0  0  0  0  0  0  0
  -18.5256  -21.5028   17.6869 C   0  0  0  0  0  0  0  0  0  0  0  0
  -21.9382  -14.0612   23.1722 C   0  0  0  0  0  0  0  0  0  0  0  0
  -17.1772  -23.0723   22.5910 C   0  0  0  0  0  0  0  0  0  0  0  0
  -20.1426  -19.7951   18.5792 C   0  0  0  0  0  0  0  0  0  1  0  0
  -25.3342  -14.6142   19.5672 C   0  0  1  0  0  0  0  0  0  0  0  0
  -23.0283  -12.4252   21.6314 C   0  0  2  0  0  0  0  0  0  0  0  0
  -26.2195  -14.0008   18.4458 C   0  0  0  0  0  0  0  0  0  0  0  0
  -18.6698  -20.2781   18.6194 C   0  0  0  0  0  0  0  0  0  0  0  0
  -22.5204  -28.0092   20.9154 N   0  0  0  0  0  0  0  0  0  0  0  0
  -18.2815  -20.6878   20.0525 N   0  0  0  0  0  0  0  0  0  0  0  0
  -21.4482  -27.3063   20.5125 N   0  0  0  0  0  0  0  0  0  0  0  0
  -25.6176  -16.9018   20.4675 N   0  0  0  0  0  0  0  0  0  0  0  0
  -18.8642  -26.3418   23.1585 N   0  0  0  0  0  0  0  0  0  0  0  0
  -20.6792  -25.8379   18.8204 N   0  0  0  0  0  0  0  0  0  0  0  0
  -24.9420  -26.6941   17.5988 N   0  0  0  0  0  0  0  0  0  0  0  0
  -28.1182  -19.5549   20.5333 N   0  0  0  0  0  0  0  0  0  0  0  0
  -24.7481  -13.6304   20.4710 N   0  0  0  0  0  0  0  0  0  0  0  0
  -18.1076  -24.1789   22.5728 N   0  0  0  0  0  0  0  0  0  0  0  0
  -21.8088  -12.7967   22.4032 N   0  3  0  0  0  0  0  0  0  0  0  0
  -23.0322  -25.5618   17.0248 O   0  0  0  0  0  0  0  0  0  0  0  0
  -27.1014  -18.2581   18.8881 O   0  0  0  0  0  0  0  0  0  0  0  0
  -27.0777  -15.1868   21.0702 O   0  0  0  0  0  0  0  0  0  0  0  0
  -22.5378  -14.2165   20.0861 O   0  0  0  0  0  0  0  0  0  0  0  0
  -16.8530  -25.5080   23.9571 O   0  0  0  0  0  0  0  0  0  0  0  0
  -28.5451  -29.9764   20.2969 O   0  0  0  0  0  0  0  0  0  0  0  0
  -21.0126  -20.7826   19.1309 O   0  0  0  0  0  0  0  0  0  1  0  0
  -32.8551  -26.6581   19.3932 F   0  0  0  0  0  0  0  0  0  0  0  0
  -30.4668  -29.5850   22.2453 F   0  0  0  0  0  0  0  0  0  0  0  0
  1  2  1  0  0  0  0
  1  5  2  0  0  0  0
  2  6  2  0  0  0  0
  3  8  2  0  0  0  0
  3 17  1  0  0  0  0
  4  9  1  0  0  0  0
  4 17  2  0  0  0  0
  5 19  1  0  0  0  0
  6 21  1  0  0  0  0
  7 10  2  0  0  0  0
  7 20  1  0  0  0  0
  8 24  1  0  0  0  0
  9 24  2  0  0  0  0
 10 25  1  0  0  0  0
 11 12  2  0  0  0  0
 11 26  1  0  0  0  0
 12 27  1  0  0  0  0
 13 22  1  0  0  0  0
 13 25  2  0  0  0  0
 14 23  1  0  0  0  0
 14 30  2  0  0  0  0
 15 27  2  0  0  0  0
 15 28  1  0  0  0  0
 16 23  2  0  0  0  0
 16 64  1  0  0  0  0
 17 29  1  0  0  0  0
 18 29  1  0  0  0  0
 18 31  2  0  0  0  0
 18 32  1  0  0  0  0
 19 21  2  0  0  0  0
 19 37  1  0  0  0  0
 20 22  2  0  0  0  0
 20 38  1  0  0  0  0
 21 46  1  0  0  0  0
 22 39  1  0  0  0  0
 23 57  1  0  0  0  0
 24 79  1  0  0  0  0
 25 80  1  0  0  0  0
 26 28  2  0  0  0  0
 26 79  1  0  0  0  0
 27 81  1  0  0  0  0
 28 82  1  0  0  0  0
 29 63  2  0  0  0  0
 30 49  1  0  0  0  0
 30 64  1  0  0  0  0
 31 65  1  0  0  0  0
 31 68  1  0  0  0  0
 32 69  1  0  0  0  0
 32 74  2  0  0  0  0
 33 47  1  0  0  0  0
 33 70  1  0  0  0  0
 33 75  2  0  0  0  0
 34 59  1  0  0  0  0
 34 66  1  0  0  0  0
 34 76  2  0  0  0  0
 35 60  1  0  0  0  0
 35 71  1  0  0  0  0
 35 77  2  0  0  0  0
 36 67  1  0  0  0  0
 36 72  1  0  0  0  0
 36 78  2  0  0  0  0
 37 40  1  0  0  0  0
 38 47  1  0  0  0  0
 39 66  1  0  0  0  0
 40 42  1  0  0  0  0
 41 43  1  0  0  0  0
 41 44  1  0  0  0  0
 42 46  1  0  0  0  0
 43 48  1  0  0  0  0
 44 67  1  0  0  0  0
 45 48  1  0  0  0  0
 45 67  1  0  0  0  0
 46 70  1  0  0  0  0
 47 66  1  0  0  0  0
 48 65  1  0  0  0  0
 50 60  1  0  0  0  0
 51 61  1  0  0  0  0
 52 61  1  0  0  0  0
 53 61  1  0  0  0  0
 54 62  1  0  0  0  0
 55 62  1  0  0  0  0
 56 73  1  0  0  0  0
 57 72  1  0  0  0  0
 58 62  1  0  0  0  0
 58 80  1  0  0  0  0
 59 61  1  0  0  0  0
 59 71  1  0  0  0  0
 60 73  1  0  0  0  0
 62 64  1  0  0  0  0
 63 65  1  0  0  0  0
M  CHG  1  73   1
M  ISO  4  36 100  58 101  72 100  80 101
M  END
> <Batch ID>
0106

> <Smiles>
CNC(C)C(=O)NC(C(=O)N1Cc2cc([101O:1][101CH2:1]C(C)(C)n3cc(C[100NH:0][100C:0](=O)N4CCCC(n5nc(-c6ccc(Oc7ccc(F)cc7F)cc6)c(C(N)=O)c5N)C4)cc3C)ccc2CC1C(=O)NC1CCCc2ccccc21)C(C)(C)C

> <Shape>
0.198

> <Color>
0.062

> <Negative vol penalty>
0.000

$$$$

  -OEChem-04052319483D

 83 91  0     1  0  0  0  0  0999 V2000
  -22.2712  -11.6584   20.3056 C   0  0  0  0  0  0  0  0  0  0  0  0
  -21.7864  -12.9319   20.5856 C   0  0  0  0  0  0  0  0  0  0  0  0
  -29.7098  -26.6580   20.8724 C   0  0  0  0  0  0  0  0  0  0  0  0
  -29.2717  -26.6431   18.4966 C   0  0  0  0  0  0  0  0  0  0  0  0
  -23.6428  -11.4114   20.3459 C   0  0  0  0  0  0  0  0  0  0  0  0
  -22.6729  -13.9591   20.9071 C   0  0  0  0  0  0  0  0  0  0  0  0
  -22.1151  -19.8870   19.4735 C   0  0  0  0  0  0  0  0  0  0  0  0
  -31.0774  -26.7650   20.6196 C   0  0  0  0  0  0  0  0  0  0  0  0
  -30.6392  -26.7501   18.2437 C   0  0  0  0  0  0  0  0  0  0  0  0
  -21.6579  -20.9878   20.1965 C   0  0  0  0  0  0  0  0  0  0  0  0
  -34.6557  -27.4054   20.6026 C   0  0  0  0  0  0  0  0  0  0  0  0
  -35.3834  -28.3300   21.3517 C   0  0  0  0  0  0  0  0  0  0  0  0
  -23.9310  -21.5330   20.7923 C   0  0  0  0  0  0  0  0  0  0  0  0
  -20.3900  -25.7795   24.1153 C   0  0  0  0  0  0  0  0  0  0  0  0
  -33.9962  -30.1140   20.4970 C   0  0  0  0  0  0  0  0  0  0  0  0
  -19.8390  -25.4830   21.9523 C   0  0  0  0  0  0  0  0  0  0  0  0
  -28.8070  -26.5970   19.8109 C   0  0  0  0  0  0  0  0  0  0  0  0
  -26.7369  -25.4549   20.7691 C   0  0  0  0  0  0  0  0  0  0  0  0
  -24.5473  -12.4384   20.6586 C   0  0  0  0  0  0  0  0  0  0  0  0
  -23.4851  -19.5940   19.4134 C   0  0  0  0  0  0  0  0  0  0  0  0
  -24.0578  -13.7254   20.9529 C   0  0  0  0  0  0  0  0  0  0  0  0
  -24.4032  -20.4293   20.0658 C   0  0  0  0  0  0  0  0  0  0  0  0
  -19.7851  -26.3890   22.9884 C   0  0  0  0  0  0  0  0  0  0  0  0
  -31.5421  -26.8110   19.3052 C   0  0  0  0  0  0  0  0  0  0  0  0
  -22.5656  -21.8094   20.8585 C   0  0  0  0  0  0  0  0  0  0  0  0
  -33.5984  -27.8350   19.8006 C   0  0  0  0  0  0  0  0  0  0  0  0
  -35.0536  -29.6843   21.2989 C   0  0  0  0  0  0  0  0  0  0  0  0
  -33.2686  -29.1893   19.7478 C   0  0  0  0  0  0  0  0  0  0  0  0
  -27.3942  -26.4859   20.0715 C   0  0  0  0  0  0  0  0  0  0  0  0
  -20.7953  -24.5197   23.7333 C   0  0  0  0  0  0  0  0  0  0  0  0
  -25.4112  -25.8127   20.7418 C   0  0  0  0  0  0  0  0  0  0  0  0
  -27.2766  -24.2788   21.3867 C   0  0  0  0  0  0  0  0  0  0  0  0
  -25.2986  -17.1495   20.3294 C   0  0  0  0  0  0  0  0  0  0  0  0
  -27.6282  -18.8092   18.7995 C   0  0  0  0  0  0  0  0  0  0  0  0
  -29.3390  -21.8519   17.8871 C   0  0  0  0  0  0  0  0  0  0  0  0
  -21.3952  -29.6529   21.2615 C   0  0  0  0  0  0  0  0  0  0  0  0
  -26.0177  -12.1121   20.7361 C   0  0  0  0  0  0  0  0  0  0  0  0
  -23.9644  -18.4182   18.6071 C   0  0  0  0  0  0  0  0  0  0  0  0
  -25.8860  -20.1699   20.0155 C   0  0  0  0  0  0  0  0  0  0  0  0
  -26.9171  -13.3454   20.7187 C   0  0  0  0  0  0  0  0  0  0  0  0
  -23.0260  -29.4112   18.1058 C   0  0  0  0  0  0  0  0  0  0  0  0
  -26.3926  -14.4024   21.6854 C   0  0  0  0  0  0  0  0  0  0  0  0
  -24.2562  -28.5492   18.3949 C   0  0  0  0  0  0  0  0  0  0  0  0
  -22.7018  -30.3413   19.2727 C   0  0  0  0  0  0  0  0  0  0  0  0
  -23.7884  -28.8083   20.8673 C   0  0  0  0  0  0  0  0  0  0  0  0
  -24.9896  -14.8716   21.2816 C   0  0  1  0  0  0  0  0  0  0  0  0
  -25.3395  -17.9182   19.0390 C   0  0  1  0  0  0  0  0  0  0  0  0
  -24.1217  -27.8139   19.7419 C   0  0  2  0  0  0  0  0  0  0  0  0
  -20.6379  -22.9650   25.7112 C   0  0  0  0  0  0  0  0  0  0  0  0
  -22.8747  -23.8955   25.0142 C   0  0  0  0  0  0  0  0  0  0  0  0
  -31.3044  -22.2273   16.3726 C   0  0  0  0  0  0  0  0  0  0  0  0
  -29.2713  -18.6230   21.3637 C   0  0  0  0  0  0  0  0  0  0  0  0
  -30.7394  -20.4448   20.4727 C   0  0  0  0  0  0  0  0  0  0  0  0
  -30.5772  -18.2709   19.2601 C   0  0  0  0  0  0  0  0  0  0  0  0
  -27.8465  -23.8092   16.2439 C   0  0  0  0  0  0  0  0  0  0  0  0
  -20.2090  -28.8629   23.2932 C   0  0  0  0  0  0  0  0  0  0  0  0
  -20.7110  -23.1177   21.5909 C   0  0  0  0  0  0  0  0  0  1  0  0
  -19.2038  -27.7439   22.9336 C   0  0  2  0  0  0  0  0  0  0  0  0
  -21.4768  -23.4660   24.5134 C   0  0  0  0  0  0  0  0  0  0  0  0
  -28.6220  -19.8727   19.1998 C   0  0  1  0  0  0  0  0  0  0  0  0
  -29.7889  -22.2593   16.4957 C   0  0  2  0  0  0  0  0  0  0  0  0
  -29.7745  -19.3069   20.0768 C   0  0  0  0  0  0  0  0  0  0  0  0
  -26.5551  -27.4280   19.6329 N   0  0  0  0  0  0  0  0  0  0  0  0
  -20.4554  -24.3505   22.4165 N   0  0  0  0  0  0  0  0  0  0  0  0
  -25.3570  -26.9903   20.0559 N   0  0  0  0  0  0  0  0  0  0  0  0
  -26.3048  -19.0044   19.2195 N   0  0  0  0  0  0  0  0  0  0  0  0
  -22.5859  -29.5816   20.5198 N   0  0  0  0  0  0  0  0  0  0  0  0
  -24.2981  -25.2318   21.2378 N   0  0  0  0  0  0  0  0  0  0  0  0
  -27.6737  -24.3513   22.7288 N   0  0  0  0  0  0  0  0  0  0  0  0
  -25.0662  -15.7965   20.1711 N   0  0  0  0  0  0  0  0  0  0  0  0
  -29.0674  -20.5021   17.9613 N   0  0  0  0  0  0  0  0  0  0  0  0
  -21.3664  -28.8973   22.4272 N   0  0  0  0  0  0  0  0  0  0  0  0
  -17.9994  -27.9210   23.8306 N   0  3  0  0  0  0  0  0  0  0  0  0
  -29.3211  -23.6394   16.1834 N   0  3  0  0  0  0  0  0  0  0  0  0
  -27.4180  -23.2003   20.7620 O   0  0  0  0  0  0  0  0  0  0  0  0
  -25.4671  -17.7398   21.3899 O   0  0  0  0  0  0  0  0  0  0  0  0
  -28.0106  -17.8446   18.1324 O   0  0  0  0  0  0  0  0  0  0  0  0
  -29.2421  -22.6505   18.8163 O   0  0  0  0  0  0  0  0  0  0  0  0
  -20.4273  -30.3350   20.9080 O   0  0  0  0  0  0  0  0  0  0  0  0
  -32.8765  -26.9157   19.0581 O   0  0  0  0  0  0  0  0  0  0  0  0
  -22.1220  -22.8842   21.5654 O   0  0  0  0  0  0  0  0  0  1  0  0
  -35.7515  -30.5720   22.0195 F   0  0  0  0  0  0  0  0  0  0  0  0
  -32.2531  -29.6079   18.9801 F   0  0  0  0  0  0  0  0  0  0  0  0
  1  2  1  0  0  0  0
  1  5  2  0  0  0  0
  2  6  2  0  0  0  0
  3  8  2  0  0  0  0
  3 17  1  0  0  0  0
  4  9  1  0  0  0  0
  4 17  2  0  0  0  0
  5 19  1  0  0  0  0
  6 21  1  0  0  0  0
  7 10  2  0  0  0  0
  7 20  1  0  0  0  0
  8 24  1  0  0  0  0
  9 24  2  0  0  0  0
 10 25  1  0  0  0  0
 11 12  2  0  0  0  0
 11 26  1  0  0  0  0
 12 27  1  0  0  0  0
 13 22  1  0  0  0  0
 13 25  2  0  0  0  0
 14 23  1  0  0  0  0
 14 30  2  0  0  0  0
 15 27  2  0  0  0  0
 15 28  1  0  0  0  0
 16 23  2  0  0  0  0
 16 64  1  0  0  0  0
 17 29  1  0  0  0  0
 18 29  1  0  0  0  0
 18 31  2  0  0  0  0
 18 32  1  0  0  0  0
 19 21  2  0  0  0  0
 19 37  1  0  0  0  0
 20 22  2  0  0  0  0
 20 38  1  0  0  0  0
 21 46  1  0  0  0  0
 22 39  1  0  0  0  0
 23 58  1  0  0  0  0
 24 80  1  0  0  0  0
 25 81  1  0  0  0  0
 26 28  2  0  0  0  0
 26 80  1  0  0  0  0
 27 82  1  0  0  0  0
 28 83  1  0  0  0  0
 29 63  2  0  0  0  0
 30 59  1  0  0  0  0
 30 64  1  0  0  0  0
 31 65  1  0  0  0  0
 31 68  1  0  0  0  0
 32 69  1  0  0  0  0
 32 75  2  0  0  0  0
 33 47  1  0  0  0  0
 33 70  1  0  0  0  0
 33 76  2  0  0  0  0
 34 60  1  0  0  0  0
 34 66  1  0  0  0  0
 34 77  2  0  0  0  0
 35 61  1  0  0  0  0
 35 71  1  0  0  0  0
 35 78  2  0  0  0  0
 36 67  1  0  0  0  0
 36 72  1  0  0  0  0
 36 79  2  0  0  0  0
 37 40  1  0  0  0  0
 38 47  1  0  0  0  0
 39 66  1  0  0  0  0
 40 42  1  0  0  0  0
 41 43  1  0  0  0  0
 41 44  1  0  0  0  0
 42 46  1  0  0  0  0
 43 48  1  0  0  0  0
 44 67  1  0  0  0  0
 45 48  1  0  0  0  0
 45 67  1  0  0  0  0
 46 70  1  0  0  0  0
 47 66  1  0  0  0  0
 48 65  1  0  0  0  0
 49 59  1  0  0  0  0
 50 59  1  0  0  0  0
 51 61  1  0  0  0  0
 52 62  1  0  0  0  0
 53 62  1  0  0  0  0
 54 62  1  0  0  0  0
 55 74  1  0  0  0  0
 56 58  1  0  0  0  0
 56 72  1  0  0  0  0
 57 64  1  0  0  0  0
 57 81  1  0  0  0  0
 58 73  1  0  0  0  0
 60 62  1  0  0  0  0
 60 71  1  0  0  0  0
 61 74  1  0  0  0  0
 63 65  1  0  0  0  0
M  CHG  2  73   1  74   1
M  ISO  4  36 100  57 101  72 100  81 101
M  END
> <Batch ID>
0106

> <Smiles>
CNC(C)C(=O)NC(C(=O)N1Cc2cc([101O:1][101CH2:1]n3cc(C(N)C[100NH:0][100C:0](=O)N4CCCC(n5nc(-c6ccc(Oc7ccc(F)cc7F)cc6)c(C(N)=O)c5N)C4)cc3C(C)C)ccc2CC1C(=O)NC1CCCc2ccccc21)C(C)(C)C

> <Shape>
0.224

> <Color>
0.050

> <Negative vol penalty>
0.000

$$$$
