
  -OEChem-04052319513D

 83 91  0     1  0  0  0  0  0999 V2000
  -22.2945  -24.1483   19.9889 C   0  0  0  0  0  0  0  0  0  0  0  0
  -23.0978  -23.4186   20.8594 C   0  0  0  0  0  0  0  0  0  0  0  0
  -26.3565  -28.4326   18.9300 C   0  0  0  0  0  0  0  0  0  0  0  0
  -26.2501  -27.6591   21.2163 C   0  0  0  0  0  0  0  0  0  0  0  0
  -21.0098  -23.6993   19.6858 C   0  0  0  0  0  0  0  0  0  0  0  0
  -22.6163  -22.2400   21.4281 C   0  0  0  0  0  0  0  0  0  0  0  0
  -26.0173  -18.4901   21.2988 C   0  0  0  0  0  0  0  0  0  0  0  0
  -25.3210  -29.3314   19.1859 C   0  0  0  0  0  0  0  0  0  0  0  0
  -25.2146  -28.5579   21.4723 C   0  0  0  0  0  0  0  0  0  0  0  0
  -27.0377  -18.5230   22.2483 C   0  0  0  0  0  0  0  0  0  0  0  0
  -21.8863  -28.7498   20.9098 C   0  0  0  0  0  0  0  0  0  0  0  0
  -20.7821  -28.2808   21.6213 C   0  0  0  0  0  0  0  0  0  0  0  0
  -25.8463  -16.8991   23.5761 C   0  0  0  0  0  0  0  0  0  0  0  0
  -30.7577  -15.7924   20.7606 C   0  0  0  0  0  0  0  0  0  0  0  0
  -21.1936  -29.9246   23.3434 C   0  0  0  0  0  0  0  0  0  0  0  0
  -30.6483  -17.6849   21.9757 C   0  0  0  0  0  0  0  0  0  0  0  0
  -26.8211  -27.5964   19.9452 C   0  0  0  0  0  0  0  0  0  0  0  0
  -29.2717  -26.8982   19.8240 C   0  0  0  0  0  0  0  0  0  0  0  0
  -20.5159  -22.5095   20.2435 C   0  0  0  0  0  0  0  0  0  0  0  0
  -24.8966  -17.6683   21.4865 C   0  0  0  0  0  0  0  0  0  0  0  0
  -21.3233  -21.7754   21.1332 C   0  0  0  0  0  0  0  0  0  0  0  0
  -24.8143  -16.8557   22.6263 C   0  0  0  0  0  0  0  0  0  0  0  0
  -30.8706  -17.2035   20.7044 C   0  0  0  0  0  0  0  0  0  0  0  0
  -24.7501  -29.3941   20.4570 C   0  0  0  0  0  0  0  0  0  0  0  0
  -26.9509  -17.7296   23.3885 C   0  0  0  0  0  0  0  0  0  0  0  0
  -22.6443  -29.8062   21.4151 C   0  0  0  0  0  0  0  0  0  0  0  0
  -20.4357  -28.8682   22.8381 C   0  0  0  0  0  0  0  0  0  0  0  0
  -22.2979  -30.3936   22.6319 C   0  0  0  0  0  0  0  0  0  0  0  0
  -27.8903  -26.6673   19.6814 C   0  0  0  0  0  0  0  0  0  0  0  0
  -30.4696  -15.4544   22.0645 C   0  0  0  0  0  0  0  0  0  0  0  0
  -29.8581  -25.7135   19.4513 C   0  0  0  0  0  0  0  0  0  0  0  0
  -29.9629  -28.0782   20.2549 C   0  0  0  0  0  0  0  0  0  0  0  0
  -21.7752  -18.1718   21.8135 C   0  0  0  0  0  0  0  0  0  0  0  0
  -21.6374  -14.9325   21.7114 C   0  0  0  0  0  0  0  0  0  0  0  0
  -23.2266  -11.9489   22.1792 C   0  0  0  0  0  0  0  0  0  0  0  0
  -30.1316  -20.2539   19.7075 C   0  0  0  0  0  0  0  0  0  0  0  0
  -19.1034  -22.0891   19.9230 C   0  0  0  0  0  0  0  0  0  0  0  0
  -23.8172  -17.6242   20.4400 C   0  0  0  0  0  0  0  0  0  0  0  0
  -23.6418  -15.9409   22.8650 C   0  0  0  0  0  0  0  0  0  0  0  0
  -18.8064  -20.6337   20.2751 C   0  0  0  0  0  0  0  0  0  0  0  0
  -27.8910  -21.6233   17.2170 C   0  0  0  0  0  0  0  0  0  0  0  0
  -19.3242  -20.3060   21.6720 C   0  0  0  0  0  0  0  0  0  0  0  0
  -27.8076  -23.0867   17.6547 C   0  0  0  0  0  0  0  0  0  0  0  0
  -27.9521  -20.6886   18.4215 C   0  0  0  0  0  0  0  0  0  0  0  0
  -28.9781  -22.4450   19.8130 C   0  0  0  0  0  0  0  0  0  0  0  0
  -20.8459  -20.4790   21.7509 C   0  0  1  0  0  0  0  0  0  0  0  0
  -22.4780  -17.1353   20.9831 C   0  0  1  0  0  0  0  0  0  0  0  0
  -28.9364  -23.4419   18.6406 C   0  0  2  0  0  0  0  0  0  0  0  0
  -31.4928  -13.2098   22.5825 C   0  0  0  0  0  0  0  0  0  0  0  0
  -29.0279  -13.3867   22.0842 C   0  0  0  0  0  0  0  0  0  0  0  0
  -22.8442   -9.4720   22.0518 C   0  0  0  0  0  0  0  0  0  0  0  0
  -28.4105  -16.1714   26.0478 C   0  0  0  0  0  0  0  0  0  0  0  0
  -20.0764  -15.0412   24.3309 C   0  0  0  0  0  0  0  0  0  0  0  0
  -20.5499  -12.6014   24.6333 C   0  0  0  0  0  0  0  0  0  0  0  0
  -19.2172  -13.3778   22.6727 C   0  0  0  0  0  0  0  0  0  0  0  0
  -25.3164  -11.6156   20.1102 C   0  0  0  0  0  0  0  0  0  0  0  0
  -31.1713  -18.0099   19.5062 C   0  0  0  0  0  0  0  0  0  0  0  0
  -30.1135  -16.7123   24.2728 C   0  0  0  0  0  0  0  0  0  0  0  0
  -30.2511  -14.1260   22.6733 C   0  0  0  0  0  0  0  0  0  0  0  0
  -21.7045  -13.8267   22.7369 C   0  0  1  0  0  0  0  0  0  0  0  0
  -23.3201  -10.7097   21.3072 C   0  0  2  0  0  0  0  0  0  0  0  0
  -28.6235  -16.5332   24.5832 C   0  0  2  0  0  0  0  0  0  1  0  0
  -20.4083  -13.7303   23.5902 C   0  0  0  0  0  0  0  0  0  0  0  0
  -27.6155  -25.4330   19.2515 N   0  0  0  0  0  0  0  0  0  0  0  0
  -30.4053  -16.6127   22.7941 N   0  0  0  0  0  0  0  0  0  0  0  0
  -28.8323  -24.8776   19.1207 N   0  0  0  0  0  0  0  0  0  0  0  0
  -22.6090  -15.9380   21.8158 N   0  0  0  0  0  0  0  0  0  0  0  0
  -29.0589  -21.0695   19.3104 N   0  0  0  0  0  0  0  0  0  0  0  0
  -31.1460  -25.3156   19.3774 N   0  0  0  0  0  0  0  0  0  0  0  0
  -29.2070  -29.2066   20.6007 N   0  0  0  0  0  0  0  0  0  0  0  0
  -21.5152  -19.3503   21.1406 N   0  0  0  0  0  0  0  0  0  0  0  0
  -22.0286  -12.6083   22.0029 N   0  0  0  0  0  0  0  0  0  0  0  0
  -30.1302  -18.9633   19.1928 N   0  0  0  0  0  0  0  0  0  0  0  0
  -24.7285  -10.4856   20.8748 N   0  3  0  0  0  0  0  0  0  0  0  0
  -31.2145  -28.1356   20.3153 O   0  0  0  0  0  0  0  0  0  0  0  0
  -21.4887  -17.9203   22.9782 O   0  0  0  0  0  0  0  0  0  0  0  0
  -20.7598  -14.9014   20.8451 O   0  0  0  0  0  0  0  0  0  0  0  0
  -24.1249  -12.2949   22.9433 O   0  0  0  0  0  0  0  0  0  0  0  0
  -31.0279  -20.6486   20.4611 O   0  0  0  0  0  0  0  0  0  0  0  0
  -23.7398  -30.2712   20.7071 O   0  0  0  0  0  0  0  0  0  0  0  0
  -27.9452  -17.7602   24.3171 O   0  0  0  0  0  0  0  0  0  1  0  0
  -19.3744  -28.4187   23.5206 F   0  0  0  0  0  0  0  0  0  0  0  0
  -23.0215  -31.4096   23.1218 F   0  0  0  0  0  0  0  0  0  0  0  0
  1  2  1  0  0  0  0
  1  5  2  0  0  0  0
  2  6  2  0  0  0  0
  3  8  2  0  0  0  0
  3 17  1  0  0  0  0
  4  9  1  0  0  0  0
  4 17  2  0  0  0  0
  5 19  1  0  0  0  0
  6 21  1  0  0  0  0
  7 10  2  0  0  0  0
  7 20  1  0  0  0  0
  8 24  1  0  0  0  0
  9 24  2  0  0  0  0
 10 25  1  0  0  0  0
 11 12  2  0  0  0  0
 11 26  1  0  0  0  0
 12 27  1  0  0  0  0
 13 22  1  0  0  0  0
 13 25  2  0  0  0  0
 14 23  1  0  0  0  0
 14 30  2  0  0  0  0
 15 27  2  0  0  0  0
 15 28  1  0  0  0  0
 16 23  2  0  0  0  0
 16 65  1  0  0  0  0
 17 29  1  0  0  0  0
 18 29  1  0  0  0  0
 18 31  2  0  0  0  0
 18 32  1  0  0  0  0
 19 21  2  0  0  0  0
 19 37  1  0  0  0  0
 20 22  2  0  0  0  0
 20 38  1  0  0  0  0
 21 46  1  0  0  0  0
 22 39  1  0  0  0  0
 23 57  1  0  0  0  0
 24 80  1  0  0  0  0
 25 81  1  0  0  0  0
 26 28  2  0  0  0  0
 26 80  1  0  0  0  0
 27 82  1  0  0  0  0
 28 83  1  0  0  0  0
 29 64  2  0  0  0  0
 30 59  1  0  0  0  0
 30 65  1  0  0  0  0
 31 66  1  0  0  0  0
 31 69  1  0  0  0  0
 32 70  1  0  0  0  0
 32 75  2  0  0  0  0
 33 47  1  0  0  0  0
 33 71  1  0  0  0  0
 33 76  2  0  0  0  0
 34 60  1  0  0  0  0
 34 67  1  0  0  0  0
 34 77  2  0  0  0  0
 35 61  1  0  0  0  0
 35 72  1  0  0  0  0
 35 78  2  0  0  0  0
 36 68  1  0  0  0  0
 36 73  1  0  0  0  0
 36 79  2  0  0  0  0
 37 40  1  0  0  0  0
 38 47  1  0  0  0  0
 39 67  1  0  0  0  0
 40 42  1  0  0  0  0
 41 43  1  0  0  0  0
 41 44  1  0  0  0  0
 42 46  1  0  0  0  0
 43 48  1  0  0  0  0
 44 68  1  0  0  0  0
 45 48  1  0  0  0  0
 45 68  1  0  0  0  0
 46 71  1  0  0  0  0
 47 67  1  0  0  0  0
 48 66  1  0  0  0  0
 49 59  1  0  0  0  0
 50 59  1  0  0  0  0
 51 61  1  0  0  0  0
 52 62  1  0  0  0  0
 53 63  1  0  0  0  0
 54 63  1  0  0  0  0
 55 63  1  0  0  0  0
 56 74  1  0  0  0  0
 57 73  1  0  0  0  0
 58 62  1  0  0  0  0
 58 65  1  0  0  0  0
 60 63  1  0  0  0  0
 60 72  1  0  0  0  0
 61 74  1  0  0  0  0
 62 81  1  0  0  0  0
 64 66  1  0  0  0  0
M  CHG  1  74   1
M  ISO  4  36 100  62 101  73 100  81 101
M  END
> <Batch ID>
0107

> <Smiles>
CNC(C)C(=O)NC(C(=O)N1Cc2cc([101O:1][101CH:1](C)Cn3cc(C[100NH:0][100C:0](=O)N4CCCC(n5nc(-c6ccc(Oc7ccc(F)cc7F)cc6)c(C(N)=O)c5N)C4)cc3C(C)C)ccc2CC1C(=O)NC1CCCc2ccccc21)C(C)(C)C

> <Shape>
0.225

> <Color>
0.055

> <Negative vol penalty>
0.000

$$$$

  -OEChem-04052319513D

 83 90  0     1  0  0  0  0  0999 V2000
  -28.5620  -20.6500   25.7019 C   0  0  0  0  0  0  0  0  0  0  0  0
  -28.8268  -21.5971   24.7179 C   0  0  0  0  0  0  0  0  0  0  0  0
  -24.1949  -13.5113   20.6498 C   0  0  0  0  0  0  0  0  0  0  0  0
  -26.5762  -13.2484   20.3382 C   0  0  0  0  0  0  0  0  0  0  0  0
  -27.2445  -20.3002   25.9946 C   0  0  0  0  0  0  0  0  0  0  0  0
  -27.7741  -22.1942   24.0252 C   0  0  0  0  0  0  0  0  0  0  0  0
  -28.3489  -27.2039   23.5592 C   0  0  0  0  0  0  0  0  0  0  0  0
  -24.0145  -12.1471   20.4222 C   0  0  0  0  0  0  0  0  0  0  0  0
  -26.3958  -11.8841   20.1107 C   0  0  0  0  0  0  0  0  0  0  0  0
  -29.2371  -27.6549   22.5837 C   0  0  0  0  0  0  0  0  0  0  0  0
  -22.9664   -8.6691   20.2798 C   0  0  0  0  0  0  0  0  0  0  0  0
  -22.1152   -7.9751   21.1397 C   0  0  0  0  0  0  0  0  0  0  0  0
  -27.3810  -28.1032   21.1096 C   0  0  0  0  0  0  0  0  0  0  0  0
  -23.5225   -8.5689   23.0117 C   0  0  0  0  0  0  0  0  0  0  0  0
  -25.4758  -14.0620   20.6078 C   0  0  0  0  0  0  0  0  0  0  0  0
  -25.8945  -16.1041   22.0782 C   0  0  0  0  0  0  0  0  0  0  0  0
  -26.1748  -20.9003   25.3119 C   0  0  0  0  0  0  0  0  0  0  0  0
  -26.9686  -27.1889   23.3127 C   0  0  0  0  0  0  0  0  0  0  0  0
  -26.4411  -21.8511   24.3081 C   0  0  0  0  0  0  0  0  0  0  0  0
  -26.4772  -27.6539   22.0845 C   0  0  0  0  0  0  0  0  0  0  0  0
  -25.1149  -11.3334   20.1527 C   0  0  0  0  0  0  0  0  0  0  0  0
  -28.7534  -28.1019   21.3576 C   0  0  0  0  0  0  0  0  0  0  0  0
  -24.0957   -9.3129   20.7857 C   0  0  0  0  0  0  0  0  0  0  0  0
  -22.3932   -7.9251   22.5057 C   0  0  0  0  0  0  0  0  0  0  0  0
  -24.3737   -9.2628   22.1517 C   0  0  0  0  0  0  0  0  0  0  0  0
  -25.6627  -15.4714   20.8422 C   0  0  0  0  0  0  0  0  0  0  0  0
  -26.0017  -17.4375   21.7665 C   0  0  0  0  0  0  0  0  0  0  0  0
  -26.0031  -15.5373   23.3907 C   0  0  0  0  0  0  0  0  0  0  0  0
  -24.7402  -24.9268   23.1680 C   0  0  0  0  0  0  0  0  0  0  0  0
  -22.7392  -27.4625   22.8711 C   0  0  0  0  0  0  0  0  0  0  0  0
  -22.3137  -30.7283   21.9763 C   0  0  0  0  0  0  0  0  0  0  0  0
  -28.0397  -20.9040   17.6019 C   0  0  0  0  0  0  0  0  0  0  0  0
  -24.7693  -20.4553   25.6302 C   0  0  0  0  0  0  0  0  0  0  0  0
  -26.0218  -26.7245   24.3853 C   0  0  0  0  0  0  0  0  0  0  0  0
  -25.0028  -27.6773   21.7779 C   0  0  0  0  0  0  0  0  0  0  0  0
  -23.6962  -21.4088   25.1110 C   0  0  0  0  0  0  0  0  0  0  0  0
  -24.5582  -20.2551   17.9692 C   0  0  0  0  0  0  0  0  0  0  0  0
  -23.9853  -21.8020   23.6658 C   0  0  0  0  0  0  0  0  0  0  0  0
  -24.5097  -19.0142   18.8624 C   0  0  0  0  0  0  0  0  0  0  0  0
  -25.7391  -20.2084   17.0020 C   0  0  0  0  0  0  0  0  0  0  0  0
  -27.0029  -18.7454   18.5305 C   0  0  0  0  0  0  0  0  0  0  0  0
  -25.3252  -22.5391   23.5521 C   0  0  1  0  0  0  0  0  0  0  0  0
  -24.6727  -26.2710   23.8360 C   0  0  1  0  0  0  0  0  0  0  0  0
  -25.8613  -18.7730   19.5611 C   0  0  2  0  0  0  0  0  0  0  0  0
  -20.5566  -32.5120   21.8086 C   0  0  0  0  0  0  0  0  0  0  0  0
  -31.9521  -29.0555   20.6238 C   0  0  0  0  0  0  0  0  0  0  0  0
  -27.8527  -24.6835   20.0622 C   0  0  0  0  0  0  0  0  0  0  0  0
  -21.6457  -26.1445   20.3458 C   0  0  0  0  0  0  0  0  0  0  0  0
  -20.6234  -28.3438   19.7244 C   0  0  0  0  0  0  0  0  0  0  0  0
  -19.9097  -27.1849   21.8149 C   0  0  0  0  0  0  0  0  0  0  0  0
  -31.0482  -20.8742   20.6613 C   0  0  0  0  0  0  0  0  0  0  0  0
  -32.0543  -22.8411   19.5201 C   0  0  0  0  0  0  0  0  0  0  0  0
  -23.7293  -32.4671   23.9080 C   0  0  0  0  0  0  0  0  0  0  0  0
  -31.1453  -27.2664   19.0455 C   0  0  0  0  0  0  0  0  0  0  0  0
  -29.6240  -22.9118   20.3287 C   0  0  0  0  0  0  0  0  0  0  0  0
  -30.3502  -21.4742   18.3060 C   0  0  0  0  0  0  0  0  0  0  0  0
  -30.0954  -26.1980   18.7598 C   0  0  0  0  0  0  0  0  0  0  0  0
  -22.1938  -28.2643   21.7141 C   0  0  1  0  0  0  0  0  0  0  0  0
  -21.6316  -31.8857   22.6831 C   0  0  2  0  0  0  0  0  0  0  0  0
  -30.9209  -27.9599   20.3894 C   0  0  2  0  0  0  0  0  0  1  0  0
  -29.2043  -24.1786   19.5665 C   0  0  2  0  0  0  0  0  0  0  0  0
  -21.1211  -27.4822   20.9045 C   0  0  0  0  0  0  0  0  0  0  0  0
  -30.7488  -22.0397   19.6905 C   0  0  0  0  0  0  0  0  0  0  0  0
  -25.6247  -16.3320   19.8215 N   0  0  0  0  0  0  0  0  0  0  0  0
  -25.8339  -17.5192   20.4155 N   0  0  0  0  0  0  0  0  0  0  0  0
  -24.1177  -27.2072   22.8564 N   0  0  0  0  0  0  0  0  0  0  0  0
  -26.9905  -19.9787   17.7281 N   0  0  0  0  0  0  0  0  0  0  0  0
  -26.2222  -18.5363   22.5191 N   0  0  0  0  0  0  0  0  0  0  0  0
  -25.8677  -14.1495   23.5324 N   0  0  0  0  0  0  0  0  0  0  0  0
  -25.1862  -23.9109   23.9917 N   0  0  0  0  0  0  0  0  0  0  0  0
  -21.7169  -29.5224   22.2781 N   0  0  0  0  0  0  0  0  0  0  0  0
  -29.1881  -20.6141   18.3285 N   0  0  0  0  0  0  0  0  0  0  0  0
  -22.6268  -32.9390   23.0312 N   0  3  0  0  0  0  0  0  0  0  0  0
  -26.1977  -16.2424   24.4097 O   0  0  0  0  0  0  0  0  0  0  0  0
  -24.4106  -24.8190   21.9926 O   0  0  0  0  0  0  0  0  0  0  0  0
  -21.9715  -27.0830   23.7590 O   0  0  0  0  0  0  0  0  0  0  0  0
  -23.2771  -30.8792   21.2281 O   0  0  0  0  0  0  0  0  0  0  0  0
  -27.9572  -21.9164   16.8982 O   0  0  0  0  0  0  0  0  0  0  0  0
  -24.9393  -10.0021   19.9308 O   0  0  0  0  0  0  0  0  0  0  0  0
  -29.6181  -28.5420   20.4035 O   0  0  0  0  0  0  0  0  0  1  0  0
  -30.1623  -25.2069   19.7767 O   0  0  0  0  0  0  0  0  0  0  0  0
  -21.5750   -7.2599   23.3316 F   0  0  0  0  0  0  0  0  0  0  0  0
  -25.4564   -9.8804   22.6438 F   0  0  0  0  0  0  0  0  0  0  0  0
  1  2  1  0  0  0  0
  1  5  2  0  0  0  0
  2  6  2  0  0  0  0
  3  8  2  0  0  0  0
  3 15  1  0  0  0  0
  4  9  1  0  0  0  0
  4 15  2  0  0  0  0
  5 17  1  0  0  0  0
  6 19  1  0  0  0  0
  7 10  2  0  0  0  0
  7 18  1  0  0  0  0
  8 21  1  0  0  0  0
  9 21  2  0  0  0  0
 10 22  1  0  0  0  0
 11 12  2  0  0  0  0
 11 23  1  0  0  0  0
 12 24  1  0  0  0  0
 13 20  1  0  0  0  0
 13 22  2  0  0  0  0
 14 24  2  0  0  0  0
 14 25  1  0  0  0  0
 15 26  1  0  0  0  0
 16 26  1  0  0  0  0
 16 27  2  0  0  0  0
 16 28  1  0  0  0  0
 17 19  2  0  0  0  0
 17 33  1  0  0  0  0
 18 20  2  0  0  0  0
 18 34  1  0  0  0  0
 19 42  1  0  0  0  0
 20 35  1  0  0  0  0
 21 79  1  0  0  0  0
 22 80  1  0  0  0  0
 23 25  2  0  0  0  0
 23 79  1  0  0  0  0
 24 82  1  0  0  0  0
 25 83  1  0  0  0  0
 26 64  2  0  0  0  0
 27 65  1  0  0  0  0
 27 68  1  0  0  0  0
 28 69  1  0  0  0  0
 28 74  2  0  0  0  0
 29 43  1  0  0  0  0
 29 70  1  0  0  0  0
 29 75  2  0  0  0  0
 30 58  1  0  0  0  0
 30 66  1  0  0  0  0
 30 76  2  0  0  0  0
 31 59  1  0  0  0  0
 31 71  1  0  0  0  0
 31 77  2  0  0  0  0
 32 67  1  0  0  0  0
 32 72  1  0  0  0  0
 32 78  2  0  0  0  0
 33 36  1  0  0  0  0
 34 43  1  0  0  0  0
 35 66  1  0  0  0  0
 36 38  1  0  0  0  0
 37 39  1  0  0  0  0
 37 40  1  0  0  0  0
 38 42  1  0  0  0  0
 39 44  1  0  0  0  0
 40 67  1  0  0  0  0
 41 44  1  0  0  0  0
 41 67  1  0  0  0  0
 42 70  1  0  0  0  0
 43 66  1  0  0  0  0
 44 65  1  0  0  0  0
 45 59  1  0  0  0  0
 46 60  1  0  0  0  0
 47 61  1  0  0  0  0
 48 62  1  0  0  0  0
 49 62  1  0  0  0  0
 50 62  1  0  0  0  0
 51 63  1  0  0  0  0
 52 63  1  0  0  0  0
 53 73  1  0  0  0  0
 54 57  1  0  0  0  0
 54 60  1  0  0  0  0
 55 61  1  0  0  0  0
 55 63  1  0  0  0  0
 56 63  1  0  0  0  0
 56 72  1  0  0  0  0
 57 81  1  0  0  0  0
 58 62  1  0  0  0  0
 58 71  1  0  0  0  0
 59 73  1  0  0  0  0
 60 80  1  0  0  0  0
 61 81  1  0  0  0  0
 64 65  1  0  0  0  0
M  CHG  1  73   1
M  ISO  4  32 100  60 101  72 100  80 101
M  END
> <Batch ID>
0107

> <Smiles>
CNC(C)C(=O)NC(C(=O)N1Cc2cc([101O:1][101CH:1](C)CCOC(C)CC(C)(C)C[100NH:0][100C:0](=O)N3CCCC(n4nc(-c5ccc(Oc6ccc(F)cc6F)cc5)c(C(N)=O)c4N)C3)ccc2CC1C(=O)NC1CCCc2ccccc21)C(C)(C)C

> <Shape>
0.201

> <Color>
0.061

> <Negative vol penalty>
0.000

$$$$

  -OEChem-04052319513D

 80 87  0     1  0  0  0  0  0999 V2000
  -16.9033  -29.1522   24.2465 C   0  0  0  0  0  0  0  0  0  0  0  0
  -17.3204  -28.1948   23.3274 C   0  0  0  0  0  0  0  0  0  0  0  0
  -25.1257  -15.7338   21.6902 C   0  0  0  0  0  0  0  0  0  0  0  0
  -24.7901  -15.8672   19.3013 C   0  0  0  0  0  0  0  0  0  0  0  0
  -17.5999  -30.3542   24.3640 C   0  0  0  0  0  0  0  0  0  0  0  0
  -18.4338  -28.4394   22.5243 C   0  0  0  0  0  0  0  0  0  0  0  0
  -22.5524  -24.3389   20.5933 C   0  0  0  0  0  0  0  0  0  0  0  0
  -24.0004  -14.9174   21.8027 C   0  0  0  0  0  0  0  0  0  0  0  0
  -23.6648  -15.0506   19.4138 C   0  0  0  0  0  0  0  0  0  0  0  0
  -22.6966  -23.6493   19.3902 C   0  0  0  0  0  0  0  0  0  0  0  0
  -21.4257  -12.5031   22.6731 C   0  0  0  0  0  0  0  0  0  0  0  0
  -21.5249  -11.3698   23.4801 C   0  0  0  0  0  0  0  0  0  0  0  0
  -24.2680  -25.3147   18.6309 C   0  0  0  0  0  0  0  0  0  0  0  0
  -23.3152  -10.5356   22.0887 C   0  0  0  0  0  0  0  0  0  0  0  0
  -25.5205  -16.2088   20.4395 C   0  0  0  0  0  0  0  0  0  0  0  0
  -28.0129  -16.6433   20.1128 C   0  0  0  0  0  0  0  0  0  0  0  0
  -18.7282  -30.6096   23.5688 C   0  0  0  0  0  0  0  0  0  0  0  0
  -23.2579  -25.5294   20.8203 C   0  0  0  0  0  0  0  0  0  0  0  0
  -19.1454  -29.6465   22.6304 C   0  0  0  0  0  0  0  0  0  0  0  0
  -24.1330  -26.0161   19.8388 C   0  0  0  0  0  0  0  0  0  0  0  0
  -23.2700  -14.5757   20.6645 C   0  0  0  0  0  0  0  0  0  0  0  0
  -23.5522  -24.1387   18.4076 C   0  0  0  0  0  0  0  0  0  0  0  0
  -22.2712  -12.6527   21.5737 C   0  0  0  0  0  0  0  0  0  0  0  0
  -22.4696  -10.3861   23.1880 C   0  0  0  0  0  0  0  0  0  0  0  0
  -23.2160  -11.6690   21.2816 C   0  0  0  0  0  0  0  0  0  0  0  0
  -26.6825  -17.0528   20.3227 C   0  0  0  0  0  0  0  0  0  0  0  0
  -28.7307  -17.8138   20.0764 C   0  0  0  0  0  0  0  0  0  0  0  0
  -28.5517  -15.3230   19.9638 C   0  0  0  0  0  0  0  0  0  0  0  0
  -22.4401  -28.5523   21.3653 C   0  0  0  0  0  0  0  0  0  0  0  0
  -25.6303  -28.9250   21.8198 C   0  0  0  0  0  0  0  0  0  0  0  0
  -28.7947  -27.8044   21.2056 C   0  0  0  0  0  0  0  0  0  0  0  0
  -27.2597  -23.4588   18.7270 C   0  0  0  0  0  0  0  0  0  0  0  0
  -19.4208  -31.9431   23.6984 C   0  0  0  0  0  0  0  0  0  0  0  0
  -23.1117  -26.2471   22.1341 C   0  0  0  0  0  0  0  0  0  0  0  0
  -24.9285  -27.2789   20.0413 C   0  0  0  0  0  0  0  0  0  0  0  0
  -20.8135  -31.9694   23.0739 C   0  0  0  0  0  0  0  0  0  0  0  0
  -28.6864  -22.2876   21.7716 C   0  0  0  0  0  0  0  0  0  0  0  0
  -20.7884  -31.3363   21.6863 C   0  0  0  0  0  0  0  0  0  0  0  0
  -28.4547  -20.7762   21.7265 C   0  0  0  0  0  0  0  0  0  0  0  0
  -27.5184  -23.0562   21.1575 C   0  0  0  0  0  0  0  0  0  0  0  0
  -26.9195  -21.1262   19.7467 C   0  0  0  0  0  0  0  0  0  0  0  0
  -20.3633  -29.8647   21.7589 C   0  0  1  0  0  0  0  0  0  0  0  0
  -23.4876  -27.7234   22.0535 C   0  0  1  0  0  0  0  0  0  0  0  0
  -28.0956  -20.3062   20.3041 C   0  0  2  0  0  0  0  0  0  0  0  0
  -31.2944  -27.6738   21.3845 C   0  0  0  0  0  0  0  0  0  0  0  0
  -25.8258  -19.9153   15.0619 C   0  0  0  0  0  0  0  0  0  0  0  0
  -25.6648  -21.3097   12.9634 C   0  0  0  0  0  0  0  0  0  0  0  0
  -22.9132  -25.2912   15.8621 C   0  0  0  0  0  0  0  0  0  0  0  0
  -25.5321  -31.1816   19.7684 C   0  0  0  0  0  0  0  0  0  0  0  0
  -28.0240  -31.0268   19.5821 C   0  0  0  0  0  0  0  0  0  0  0  0
  -26.9737  -31.6435   21.7591 C   0  0  0  0  0  0  0  0  0  0  0  0
  -28.6491  -25.9543   23.5110 C   0  0  0  0  0  0  0  0  0  0  0  0
  -26.9793  -23.7012   16.2730 C   0  0  0  0  0  0  0  0  0  0  0  0
  -26.6469  -22.8753   15.0444 C   0  0  0  0  0  0  0  0  0  0  0  0
  -24.1993  -23.3057   14.8886 C   0  0  0  0  0  0  0  0  0  0  0  0
  -26.8046  -29.2602   20.9324 C   0  0  1  0  0  0  0  0  0  0  0  0
  -29.9737  -27.5595   22.1299 C   0  0  2  0  0  0  0  0  0  0  0  0
  -25.1028  -21.0483   14.3515 C   0  0  0  0  0  0  0  0  0  0  0  0
  -23.9988  -24.2442   16.0741 C   0  0  2  0  0  0  0  0  0  1  0  0
  -26.8173  -30.7552   20.5056 C   0  0  0  0  0  0  0  0  0  0  0  0
  -26.5596  -18.3797   20.4135 N   0  0  0  0  0  0  0  0  0  0  0  0
  -27.8220  -18.8141   20.2600 N   0  0  0  0  0  0  0  0  0  0  0  0
  -24.7465  -27.9480   21.3400 N   0  0  0  0  0  0  0  0  0  0  0  0
  -27.2300  -22.5631   19.8086 N   0  0  0  0  0  0  0  0  0  0  0  0
  -30.0442  -18.0745   19.9057 N   0  0  0  0  0  0  0  0  0  0  0  0
  -27.6740  -14.2322   20.0270 N   0  0  0  0  0  0  0  0  0  0  0  0
  -21.4645  -29.0423   22.2123 N   0  0  0  0  0  0  0  0  0  0  0  0
  -27.9978  -28.8354   21.6565 N   0  0  0  0  0  0  0  0  0  0  0  0
  -26.9809  -22.9081   17.4821 N   0  0  0  0  0  0  0  0  0  0  0  0
  -29.8884  -26.1975   22.7286 N   0  3  0  0  0  0  0  0  0  0  0  0
  -25.2564  -22.3040   15.1741 N   0  3  1  0  0  0  0  0  0  0  0  0
  -29.7775  -15.1158   19.7966 O   0  0  0  0  0  0  0  0  0  0  0  0
  -22.5126  -28.7350   20.1558 O   0  0  0  0  0  0  0  0  0  0  0  0
  -25.5057  -29.5035   22.9022 O   0  0  0  0  0  0  0  0  0  0  0  0
  -28.6022  -27.1493   20.1837 O   0  0  0  0  0  0  0  0  0  0  0  0
  -27.5209  -24.6592   18.8601 O   0  0  0  0  0  0  0  0  0  0  0  0
  -22.1720  -13.7788   20.7739 O   0  0  0  0  0  0  0  0  0  0  0  0
  -23.6942  -23.4680   17.2321 O   0  0  0  0  0  0  0  0  0  1  0  0
  -22.5658   -9.2986   23.9640 F   0  0  0  0  0  0  0  0  0  0  0  0
  -24.0318  -11.8076   20.2276 F   0  0  0  0  0  0  0  0  0  0  0  0
  1  2  1  0  0  0  0
  1  5  2  0  0  0  0
  2  6  2  0  0  0  0
  3  8  2  0  0  0  0
  3 15  1  0  0  0  0
  4  9  1  0  0  0  0
  4 15  2  0  0  0  0
  5 17  1  0  0  0  0
  6 19  1  0  0  0  0
  7 10  2  0  0  0  0
  7 18  1  0  0  0  0
  8 21  1  0  0  0  0
  9 21  2  0  0  0  0
 10 22  1  0  0  0  0
 11 12  2  0  0  0  0
 11 23  1  0  0  0  0
 12 24  1  0  0  0  0
 13 20  1  0  0  0  0
 13 22  2  0  0  0  0
 14 24  2  0  0  0  0
 14 25  1  0  0  0  0
 15 26  1  0  0  0  0
 16 26  1  0  0  0  0
 16 27  2  0  0  0  0
 16 28  1  0  0  0  0
 17 19  2  0  0  0  0
 17 33  1  0  0  0  0
 18 20  2  0  0  0  0
 18 34  1  0  0  0  0
 19 42  1  0  0  0  0
 20 35  1  0  0  0  0
 21 77  1  0  0  0  0
 22 78  1  0  0  0  0
 23 25  2  0  0  0  0
 23 77  1  0  0  0  0
 24 79  1  0  0  0  0
 25 80  1  0  0  0  0
 26 61  2  0  0  0  0
 27 62  1  0  0  0  0
 27 65  1  0  0  0  0
 28 66  1  0  0  0  0
 28 72  2  0  0  0  0
 29 43  1  0  0  0  0
 29 67  1  0  0  0  0
 29 73  2  0  0  0  0
 30 56  1  0  0  0  0
 30 63  1  0  0  0  0
 30 74  2  0  0  0  0
 31 57  1  0  0  0  0
 31 68  1  0  0  0  0
 31 75  2  0  0  0  0
 32 64  1  0  0  0  0
 32 69  1  0  0  0  0
 32 76  2  0  0  0  0
 33 36  1  0  0  0  0
 34 43  1  0  0  0  0
 35 63  1  0  0  0  0
 36 38  1  0  0  0  0
 37 39  1  0  0  0  0
 37 40  1  0  0  0  0
 38 42  1  0  0  0  0
 39 44  1  0  0  0  0
 40 64  1  0  0  0  0
 41 44  1  0  0  0  0
 41 64  1  0  0  0  0
 42 67  1  0  0  0  0
 43 63  1  0  0  0  0
 44 62  1  0  0  0  0
 45 57  1  0  0  0  0
 46 58  1  0  0  0  0
 47 58  1  0  0  0  0
 48 59  1  0  0  0  0
 49 60  1  0  0  0  0
 50 60  1  0  0  0  0
 51 60  1  0  0  0  0
 52 70  1  0  0  0  0
 53 54  1  0  0  0  0
 53 69  1  0  0  0  0
 54 71  1  0  0  0  0
 55 59  1  0  0  0  0
 55 71  1  0  0  0  0
 56 60  1  0  0  0  0
 56 68  1  0  0  0  0
 57 70  1  0  0  0  0
 58 71  1  0  0  0  0
 59 78  1  0  0  0  0
 61 62  1  0  0  0  0
M  CHG  2  70   1  71   1
M  ISO  4  32 100  59 101  69 100  78 101
M  END
> <Batch ID>
0107

> <Smiles>
CNC(C)C(=O)NC(C(=O)N1Cc2cc([101O:1][101CH:1](C)CN(CC[100NH:0][100C:0](=O)N3CCCC(n4nc(-c5ccc(Oc6ccc(F)cc6F)cc5)c(C(N)=O)c4N)C3)C(C)C)ccc2CC1C(=O)NC1CCCc2ccccc21)C(C)(C)C

> <Shape>
0.227

> <Color>
0.076

> <Negative vol penalty>
0.000

$$$$

  -OEChem-04052319513D

 84 92  0     1  0  0  0  0  0999 V2000
  -21.0703  -15.3758   24.7550 C   0  0  0  0  0  0  0  0  0  0  0  0
  -22.3640  -15.4149   25.2649 C   0  0  0  0  0  0  0  0  0  0  0  0
  -23.1183   -9.8755   19.9498 C   0  0  0  0  0  0  0  0  0  0  0  0
  -23.9042   -9.9010   22.2343 C   0  0  0  0  0  0  0  0  0  0  0  0
  -20.6006  -16.4260   23.9674 C   0  0  0  0  0  0  0  0  0  0  0  0
  -23.1893  -16.5038   24.9866 C   0  0  0  0  0  0  0  0  0  0  0  0
  -27.3879  -18.9830   28.6923 C   0  0  0  0  0  0  0  0  0  0  0  0
  -32.9011  -19.8253   25.7455 C   0  0  0  0  0  0  0  0  0  0  0  0
  -32.8145  -20.1397   24.3894 C   0  0  0  0  0  0  0  0  0  0  0  0
  -22.4015   -8.7074   20.2094 C   0  0  0  0  0  0  0  0  0  0  0  0
  -23.1874   -8.7329   22.4939 C   0  0  0  0  0  0  0  0  0  0  0  0
  -28.7718  -18.8347   28.7737 C   0  0  0  0  0  0  0  0  0  0  0  0
  -23.0459   -5.4019   20.4969 C   0  0  0  0  0  0  0  0  0  0  0  0
  -23.1234   -4.3728   19.5585 C   0  0  0  0  0  0  0  0  0  0  0  0
  -29.0572  -20.8144   27.4252 C   0  0  0  0  0  0  0  0  0  0  0  0
  -32.4472  -17.5074   25.2371 C   0  0  0  0  0  0  0  0  0  0  0  0
  -20.7320   -4.4887   19.2342 C   0  0  0  0  0  0  0  0  0  0  0  0
  -23.8698  -10.4722   20.9622 C   0  0  0  0  0  0  0  0  0  0  0  0
  -24.1576  -13.0038   20.8359 C   0  0  0  0  0  0  0  0  0  0  0  0
  -21.4173  -17.5330   23.6873 C   0  0  0  0  0  0  0  0  0  0  0  0
  -26.8272  -20.0437   27.9663 C   0  0  0  0  0  0  0  0  0  0  0  0
  -22.7306  -17.5693   24.1935 C   0  0  0  0  0  0  0  0  0  0  0  0
  -27.6660  -20.9754   27.3382 C   0  0  0  0  0  0  0  0  0  0  0  0
  -32.7175  -18.5091   26.1694 C   0  0  0  0  0  0  0  0  0  0  0  0
  -32.5443  -19.1380   23.4571 C   0  0  0  0  0  0  0  0  0  0  0  0
  -32.3606  -17.8218   23.8809 C   0  0  0  0  0  0  0  0  0  0  0  0
  -22.4360   -8.1362   21.4815 C   0  0  0  0  0  0  0  0  0  0  0  0
  -29.6066  -19.7488   28.1377 C   0  0  0  0  0  0  0  0  0  0  0  0
  -21.8115   -5.9744   20.8040 C   0  0  0  0  0  0  0  0  0  0  0  0
  -21.9664   -3.9162   18.9271 C   0  0  0  0  0  0  0  0  0  0  0  0
  -20.6546   -5.5178   20.1726 C   0  0  0  0  0  0  0  0  0  0  0  0
  -24.6109  -11.6785   20.6945 C   0  0  0  0  0  0  0  0  0  0  0  0
  -25.2297  -13.7754   20.4593 C   0  0  0  0  0  0  0  0  0  0  0  0
  -22.8816  -13.4936   21.2689 C   0  0  0  0  0  0  0  0  0  0  0  0
  -24.9357  -20.2678   25.4216 C   0  0  0  0  0  0  0  0  0  0  0  0
  -24.9829  -23.4285   26.1498 C   0  0  0  0  0  0  0  0  0  0  0  0
  -26.5948  -26.0298   27.6604 C   0  0  0  0  0  0  0  0  0  0  0  0
  -30.8264  -14.6051   21.0120 C   0  0  0  0  0  0  0  0  0  0  0  0
  -20.8817  -18.6221   22.7920 C   0  0  0  0  0  0  0  0  0  0  0  0
  -25.3328  -20.2050   27.9104 C   0  0  0  0  0  0  0  0  0  0  0  0
  -27.1142  -22.1432   26.5633 C   0  0  0  0  0  0  0  0  0  0  0  0
  -21.6915  -19.9147   22.8541 C   0  0  0  0  0  0  0  0  0  0  0  0
  -29.5769  -12.5308   18.2124 C   0  0  0  0  0  0  0  0  0  0  0  0
  -23.1841  -19.6147   22.7594 C   0  0  0  0  0  0  0  0  0  0  0  0
  -28.1603  -12.1799   18.6643 C   0  0  0  0  0  0  0  0  0  0  0  0
  -30.5085  -12.7655   19.3976 C   0  0  0  0  0  0  0  0  0  0  0  0
  -28.5949  -13.4330   20.8140 C   0  0  0  0  0  0  0  0  0  0  0  0
  -23.6476  -18.7449   23.9342 C   0  0  1  0  0  0  0  0  0  0  0  0
  -24.8651  -21.0293   26.7150 C   0  0  1  0  0  0  0  0  0  0  0  0
  -27.6195  -13.2359   19.6439 C   0  0  2  0  0  0  0  0  0  0  0  0
  -32.4552  -19.4990   22.0105 C   0  0  0  0  0  0  0  0  0  0  0  0
  -26.4082  -28.5011   28.0541 C   0  0  0  0  0  0  0  0  0  0  0  0
  -29.9198  -15.6965   23.7498 C   0  0  0  0  0  0  0  0  0  0  0  0
  -25.8569  -23.9502   23.2733 C   0  0  0  0  0  0  0  0  0  0  0  0
  -26.5603  -26.2476   23.9774 C   0  0  0  0  0  0  0  0  0  0  0  0
  -24.1673  -25.5670   24.1599 C   0  0  0  0  0  0  0  0  0  0  0  0
  -29.3188  -16.4908   20.5111 C   0  0  0  0  0  0  0  0  0  0  0  0
  -26.4971  -25.6721   30.5967 C   0  0  0  0  0  0  0  0  0  0  0  0
  -32.8107  -18.1692   27.6371 C   0  0  0  0  0  0  0  0  0  0  0  0
  -32.0699  -16.7329   22.9009 C   0  0  0  0  0  0  0  0  0  0  0  0
  -31.4642  -18.2782   28.3442 C   0  0  0  0  0  0  0  0  0  1  0  0
  -25.8575  -24.5996   25.7722 C   0  0  1  0  0  0  0  0  0  0  0  0
  -26.0972  -27.1153   28.5977 C   0  0  2  0  0  0  0  0  0  0  0  0
  -30.5631  -16.5234   22.6410 C   0  0  1  0  0  0  0  0  0  0  0  0
  -25.6212  -25.0681   24.3086 C   0  0  0  0  0  0  0  0  0  0  0  0
  -25.8726  -11.6085   20.2617 N   0  0  0  0  0  0  0  0  0  0  0  0
  -26.2212  -12.8994   20.1279 N   0  0  0  0  0  0  0  0  0  0  0  0
  -25.6465  -22.2542   26.5326 N   0  0  0  0  0  0  0  0  0  0  0  0
  -29.9504  -13.7413   20.3344 N   0  0  0  0  0  0  0  0  0  0  0  0
  -25.4116  -15.1108   20.3826 N   0  0  0  0  0  0  0  0  0  0  0  0
  -21.8928  -12.5640   21.6187 N   0  0  0  0  0  0  0  0  0  0  0  0
  -23.7935  -19.5469   25.1301 N   0  0  0  0  0  0  0  0  0  0  0  0
  -25.6153  -25.6303   26.7760 N   0  0  0  0  0  0  0  0  0  0  0  0
  -30.3370  -15.8757   21.3507 N   0  0  0  0  0  0  0  0  0  0  0  0
  -26.7405  -26.9798   29.9352 N   0  3  0  0  0  0  0  0  0  0  0  0
  -22.6205  -14.7191   21.3278 O   0  0  0  0  0  0  0  0  0  0  0  0
  -25.9508  -20.3310   24.7380 O   0  0  0  0  0  0  0  0  0  0  0  0
  -23.7563  -23.5533   26.1136 O   0  0  0  0  0  0  0  0  0  0  0  0
  -27.7391  -25.5837   27.7058 O   0  0  0  0  0  0  0  0  0  0  0  0
  -31.9834  -14.2638   21.2894 O   0  0  0  0  0  0  0  0  0  0  0  0
  -21.7364   -6.9965   21.7352 O   0  0  0  0  0  0  0  0  0  0  0  0
  -30.9578  -19.6060   28.2150 O   0  0  0  0  0  0  0  0  0  1  0  0
  -22.0411   -2.9290   18.0249 F   0  0  0  0  0  0  0  0  0  0  0  0
  -19.4660   -6.0646   20.4626 F   0  0  0  0  0  0  0  0  0  0  0  0
  1  2  1  0  0  0  0
  1  5  2  0  0  0  0
  2  6  2  0  0  0  0
  3 10  2  0  0  0  0
  3 18  1  0  0  0  0
  4 11  1  0  0  0  0
  4 18  2  0  0  0  0
  5 20  1  0  0  0  0
  6 22  1  0  0  0  0
  7 12  2  0  0  0  0
  7 21  1  0  0  0  0
  8  9  2  0  0  0  0
  8 24  1  0  0  0  0
  9 25  1  0  0  0  0
 10 27  1  0  0  0  0
 11 27  2  0  0  0  0
 12 28  1  0  0  0  0
 13 14  2  0  0  0  0
 13 29  1  0  0  0  0
 14 30  1  0  0  0  0
 15 23  1  0  0  0  0
 15 28  2  0  0  0  0
 16 24  2  0  0  0  0
 16 26  1  0  0  0  0
 17 30  2  0  0  0  0
 17 31  1  0  0  0  0
 18 32  1  0  0  0  0
 19 32  1  0  0  0  0
 19 33  2  0  0  0  0
 19 34  1  0  0  0  0
 20 22  2  0  0  0  0
 20 39  1  0  0  0  0
 21 23  2  0  0  0  0
 21 40  1  0  0  0  0
 22 48  1  0  0  0  0
 23 41  1  0  0  0  0
 24 59  1  0  0  0  0
 25 26  2  0  0  0  0
 25 51  1  0  0  0  0
 26 60  1  0  0  0  0
 27 81  1  0  0  0  0
 28 82  1  0  0  0  0
 29 31  2  0  0  0  0
 29 81  1  0  0  0  0
 30 83  1  0  0  0  0
 31 84  1  0  0  0  0
 32 66  2  0  0  0  0
 33 67  1  0  0  0  0
 33 70  1  0  0  0  0
 34 71  1  0  0  0  0
 34 76  2  0  0  0  0
 35 49  1  0  0  0  0
 35 72  1  0  0  0  0
 35 77  2  0  0  0  0
 36 62  1  0  0  0  0
 36 68  1  0  0  0  0
 36 78  2  0  0  0  0
 37 63  1  0  0  0  0
 37 73  1  0  0  0  0
 37 79  2  0  0  0  0
 38 69  1  0  0  0  0
 38 74  1  0  0  0  0
 38 80  2  0  0  0  0
 39 42  1  0  0  0  0
 40 49  1  0  0  0  0
 41 68  1  0  0  0  0
 42 44  1  0  0  0  0
 43 45  1  0  0  0  0
 43 46  1  0  0  0  0
 44 48  1  0  0  0  0
 45 50  1  0  0  0  0
 46 69  1  0  0  0  0
 47 50  1  0  0  0  0
 47 69  1  0  0  0  0
 48 72  1  0  0  0  0
 49 68  1  0  0  0  0
 50 67  1  0  0  0  0
 52 63  1  0  0  0  0
 53 64  1  0  0  0  0
 54 65  1  0  0  0  0
 55 65  1  0  0  0  0
 56 65  1  0  0  0  0
 57 74  1  0  0  0  0
 58 75  1  0  0  0  0
 59 61  1  0  0  0  0
 60 64  1  0  0  0  0
 61 82  1  0  0  0  0
 62 65  1  0  0  0  0
 62 73  1  0  0  0  0
 63 75  1  0  0  0  0
 64 74  1  0  0  0  0
 66 67  1  0  0  0  0
M  CHG  1  75   1
M  ISO  4  38 100  61 101  74 100  82 101
M  END
> <Batch ID>
0107

> <Smiles>
CNC(C)C(=O)NC(C(=O)N1Cc2cc([101O:1][101CH2:1]Cc3ccc(C)c(CC(C)[100N:0](C)[100C:0](=O)N4CCCC(n5nc(-c6ccc(Oc7ccc(F)cc7F)cc6)c(C(N)=O)c5N)C4)c3)ccc2CC1C(=O)NC1CCCc2ccccc21)C(C)(C)C

> <Shape>
0.150

> <Color>
0.184

> <Negative vol penalty>
0.000

$$$$

  -OEChem-04052319513D

 86 95  0     1  0  0  0  0  0999 V2000
  -28.1130  -29.5083   27.7435 C   0  0  0  0  0  0  0  0  0  0  0  0
  -27.2825  -29.1245   26.6955 C   0  0  0  0  0  0  0  0  0  0  0  0
  -24.5052   -8.7794   21.1329 C   0  0  0  0  0  0  0  0  0  0  0  0
  -22.6613  -10.3232   20.9011 C   0  0  0  0  0  0  0  0  0  0  0  0
  -27.9635  -30.7667   28.3249 C   0  0  0  0  0  0  0  0  0  0  0  0
  -26.3012  -29.9984   26.2289 C   0  0  0  0  0  0  0  0  0  0  0  0
  -26.1352  -30.2122   21.1721 C   0  0  0  0  0  0  0  0  0  0  0  0
  -23.6044   -7.7333   21.3322 C   0  0  0  0  0  0  0  0  0  0  0  0
  -21.7604   -9.2771   21.1002 C   0  0  0  0  0  0  0  0  0  0  0  0
  -25.5026  -29.1604   20.5108 C   0  0  0  0  0  0  0  0  0  0  0  0
  -21.6983   -6.5342   23.8527 C   0  0  0  0  0  0  0  0  0  0  0  0
  -21.9632   -5.6404   24.8903 C   0  0  0  0  0  0  0  0  0  0  0  0
  -23.5217  -30.5148   20.2641 C   0  0  0  0  0  0  0  0  0  0  0  0
  -23.2618  -19.9044   21.5610 C   0  0  0  0  0  0  0  0  0  0  0  0
  -22.0618   -3.8239   23.3003 C   0  0  0  0  0  0  0  0  0  0  0  0
  -21.7864  -19.7102   19.8712 C   0  0  0  0  0  0  0  0  0  0  0  0
  -24.0337  -10.0744   20.9175 C   0  0  0  0  0  0  0  0  0  0  0  0
  -25.9226  -11.2691   19.6877 C   0  0  0  0  0  0  0  0  0  0  0  0
  -26.9862  -31.6603   27.8588 C   0  0  0  0  0  0  0  0  0  0  0  0
  -25.4609  -31.4214   21.3944 C   0  0  0  0  0  0  0  0  0  0  0  0
  -26.1376  -31.2694   26.8055 C   0  0  0  0  0  0  0  0  0  0  0  0
  -24.1488  -31.5813   20.9262 C   0  0  0  0  0  0  0  0  0  0  0  0
  -22.3632  -20.6188   20.7309 C   0  0  0  0  0  0  0  0  0  0  0  0
  -22.2320   -7.9821   21.3158 C   0  0  0  0  0  0  0  0  0  0  0  0
  -24.1947  -29.3106   20.0592 C   0  0  0  0  0  0  0  0  0  0  0  0
  -21.6150   -6.0728   22.5389 C   0  0  0  0  0  0  0  0  0  0  0  0
  -22.1451   -4.2853   24.6141 C   0  0  0  0  0  0  0  0  0  0  0  0
  -21.7968   -4.7177   22.2628 C   0  0  0  0  0  0  0  0  0  0  0  0
  -24.9638  -11.1555   20.7122 C   0  0  0  0  0  0  0  0  0  0  0  0
  -23.2070  -18.5809   21.1832 C   0  0  0  0  0  0  0  0  0  0  0  0
  -26.5472  -12.4675   19.9333 C   0  0  0  0  0  0  0  0  0  0  0  0
  -26.2219  -10.3717   18.6103 C   0  0  0  0  0  0  0  0  0  0  0  0
  -24.5710  -33.0523   23.9735 C   0  0  0  0  0  0  0  0  0  0  0  0
  -23.6976  -35.2810   21.7844 C   0  0  0  0  0  0  0  0  0  0  0  0
  -22.7740  -35.9835   18.5750 C   0  0  0  0  0  0  0  0  0  0  0  0
  -24.8416  -17.4602   22.7384 C   0  0  0  0  0  0  0  0  0  0  0  0
  -26.8311  -32.9917   28.5502 C   0  0  0  0  0  0  0  0  0  0  0  0
  -26.1664  -32.5557   22.0857 C   0  0  0  0  0  0  0  0  0  0  0  0
  -23.3881  -32.8664   21.1217 C   0  0  0  0  0  0  0  0  0  0  0  0
  -26.0142  -34.0024   27.7493 C   0  0  0  0  0  0  0  0  0  0  0  0
  -27.6690  -15.4407   23.5160 C   0  0  0  0  0  0  0  0  0  0  0  0
  -24.7444  -33.3534   27.2079 C   0  0  0  0  0  0  0  0  0  0  0  0
  -27.3863  -14.1251   22.7870 C   0  0  0  0  0  0  0  0  0  0  0  0
  -23.7082  -26.7349   21.2582 C   0  0  0  0  0  0  0  0  0  0  0  0
  -23.1798  -25.9733   18.9185 C   0  0  0  0  0  0  0  0  0  0  0  0
  -26.3930  -16.0603   24.0832 C   0  0  0  0  0  0  0  0  0  0  0  0
  -25.0208  -14.9188   22.3851 C   0  0  0  0  0  0  0  0  0  0  0  0
  -23.9797  -25.2945   21.6628 C   0  0  0  0  0  0  0  0  0  0  0  0
  -23.4530  -24.5345   19.3277 C   0  0  0  0  0  0  0  0  0  0  0  0
  -25.0778  -32.1990   26.2552 C   0  0  1  0  0  0  0  0  0  0  0  0
  -25.2071  -33.5632   22.7118 C   0  0  1  0  0  0  0  0  0  0  0  0
  -26.2668  -14.2899   21.7405 C   0  0  2  0  0  0  0  0  0  0  0  0
  -23.9654  -26.9645   19.7714 C   0  0  0  0  0  0  0  0  0  1  0  0
  -20.8776  -22.4173   21.6754 C   0  0  0  0  0  0  0  0  0  0  0  0
  -22.0870  -37.8904   17.0954 C   0  0  0  0  0  0  0  0  0  0  0  0
  -20.9316  -35.2810   23.0726 C   0  0  0  0  0  0  0  0  0  0  0  0
  -20.0570  -36.4351   21.0302 C   0  0  0  0  0  0  0  0  0  0  0  0
  -21.7888  -37.5442   22.4421 C   0  0  0  0  0  0  0  0  0  0  0  0
  -21.9467  -17.2568   19.4622 C   0  0  0  0  0  0  0  0  0  0  0  0
  -25.0881  -35.5735   16.7762 C   0  0  0  0  0  0  0  0  0  0  0  0
  -23.3007  -22.9339   21.2337 C   0  0  0  0  0  0  0  0  0  0  0  0
  -22.0846  -22.1164   20.7791 C   0  0  1  0  0  0  0  0  0  0  0  0
  -22.4420  -35.5737   20.9991 C   0  0  1  0  0  0  0  0  0  0  0  0
  -23.2473  -37.0468   17.6005 C   0  0  2  0  0  0  0  0  0  0  0  0
  -21.3182  -36.1835   21.8839 C   0  0  0  0  0  0  0  0  0  0  0  0
  -24.9748  -12.1985   21.5466 N   0  0  0  0  0  0  0  0  0  0  0  0
  -22.3071  -18.4746   20.1551 N   0  0  0  0  0  0  0  0  0  0  0  0
  -25.9481  -12.9787   21.0468 N   0  0  0  0  0  0  0  0  0  0  0  0
  -24.1190  -33.9440   21.8089 N   0  0  0  0  0  0  0  0  0  0  0  0
  -25.3793  -16.1897   23.0341 N   0  0  0  0  0  0  0  0  0  0  0  0
  -27.5450  -13.1232   19.3032 N   0  0  0  0  0  0  0  0  0  0  0  0
  -25.5350  -10.5296   17.3988 N   0  0  0  0  0  0  0  0  0  0  0  0
  -23.9102  -17.4648   21.7006 N   0  0  0  0  0  0  0  0  0  0  0  0
  -25.4752  -32.7105   24.9610 N   0  0  0  0  0  0  0  0  0  0  0  0
  -22.8473  -36.4189   19.8813 N   0  0  0  0  0  0  0  0  0  0  0  0
  -23.1574  -24.3667   20.7996 N   0  3  0  0  0  0  0  0  0  0  0  0
  -23.9141  -36.4143   16.4273 N   0  3  0  0  0  0  0  0  0  0  0  0
  -27.0613   -9.4465   18.7240 O   0  0  0  0  0  0  0  0  0  0  0  0
  -23.3501  -32.9753   24.0464 O   0  0  0  0  0  0  0  0  0  0  0  0
  -24.2870  -36.2059   22.3492 O   0  0  0  0  0  0  0  0  0  0  0  0
  -22.3753  -34.8786   18.2135 O   0  0  0  0  0  0  0  0  0  0  0  0
  -25.2025  -18.4740   23.3417 O   0  0  0  0  0  0  0  0  0  0  0  0
  -21.3526   -6.9615   21.5099 O   0  0  0  0  0  0  0  0  0  0  0  0
  -23.5747  -28.2853   19.4140 O   0  0  0  0  0  0  0  0  0  1  0  0
  -22.4011   -3.4274   25.6104 F   0  0  0  0  0  0  0  0  0  0  0  0
  -21.7192   -4.2688   21.0025 F   0  0  0  0  0  0  0  0  0  0  0  0
  1  2  1  0  0  0  0
  1  5  2  0  0  0  0
  2  6  2  0  0  0  0
  3  8  2  0  0  0  0
  3 17  1  0  0  0  0
  4  9  1  0  0  0  0
  4 17  2  0  0  0  0
  5 19  1  0  0  0  0
  6 21  1  0  0  0  0
  7 10  2  0  0  0  0
  7 20  1  0  0  0  0
  8 24  1  0  0  0  0
  9 24  2  0  0  0  0
 10 25  1  0  0  0  0
 11 12  2  0  0  0  0
 11 26  1  0  0  0  0
 12 27  1  0  0  0  0
 13 22  1  0  0  0  0
 13 25  2  0  0  0  0
 14 23  1  0  0  0  0
 14 30  2  0  0  0  0
 15 27  2  0  0  0  0
 15 28  1  0  0  0  0
 16 23  2  0  0  0  0
 16 67  1  0  0  0  0
 17 29  1  0  0  0  0
 18 29  1  0  0  0  0
 18 31  2  0  0  0  0
 18 32  1  0  0  0  0
 19 21  2  0  0  0  0
 19 37  1  0  0  0  0
 20 22  2  0  0  0  0
 20 38  1  0  0  0  0
 21 50  1  0  0  0  0
 22 39  1  0  0  0  0
 23 62  1  0  0  0  0
 24 83  1  0  0  0  0
 25 84  1  0  0  0  0
 26 28  2  0  0  0  0
 26 83  1  0  0  0  0
 27 85  1  0  0  0  0
 28 86  1  0  0  0  0
 29 66  2  0  0  0  0
 30 67  1  0  0  0  0
 30 73  1  0  0  0  0
 31 68  1  0  0  0  0
 31 71  1  0  0  0  0
 32 72  1  0  0  0  0
 32 78  2  0  0  0  0
 33 51  1  0  0  0  0
 33 74  1  0  0  0  0
 33 79  2  0  0  0  0
 34 63  1  0  0  0  0
 34 69  1  0  0  0  0
 34 80  2  0  0  0  0
 35 64  1  0  0  0  0
 35 75  1  0  0  0  0
 35 81  2  0  0  0  0
 36 70  1  0  0  0  0
 36 73  1  0  0  0  0
 36 82  2  0  0  0  0
 37 40  1  0  0  0  0
 38 51  1  0  0  0  0
 39 69  1  0  0  0  0
 40 42  1  0  0  0  0
 41 43  1  0  0  0  0
 41 46  1  0  0  0  0
 42 50  1  0  0  0  0
 43 52  1  0  0  0  0
 44 48  1  0  0  0  0
 44 53  1  0  0  0  0
 45 49  1  0  0  0  0
 45 53  1  0  0  0  0
 46 70  1  0  0  0  0
 47 52  1  0  0  0  0
 47 70  1  0  0  0  0
 48 76  1  0  0  0  0
 49 76  1  0  0  0  0
 50 74  1  0  0  0  0
 51 69  1  0  0  0  0
 52 68  1  0  0  0  0
 53 84  1  0  0  0  0
 54 62  1  0  0  0  0
 55 64  1  0  0  0  0
 56 65  1  0  0  0  0
 57 65  1  0  0  0  0
 58 65  1  0  0  0  0
 59 67  1  0  0  0  0
 60 77  1  0  0  0  0
 61 62  1  0  0  0  0
 61 76  1  0  0  0  0
 63 65  1  0  0  0  0
 63 75  1  0  0  0  0
 64 77  1  0  0  0  0
 66 68  1  0  0  0  0
M  CHG  2  76   1  77   1
M  ISO  4  36 100  53 101  73 100  84 101
M  END
> <Batch ID>
0107

> <Smiles>
CNC(C)C(=O)NC(C(=O)N1Cc2cc([101O:1][101CH:1]3CCN(CC(C)c4cc([100NH:0][100C:0](=O)N5CCCC(n6nc(-c7ccc(Oc8ccc(F)cc8F)cc7)c(C(N)=O)c6N)C5)n(C)c4)CC3)ccc2CC1C(=O)NC1CCCc2ccccc21)C(C)(C)C

> <Shape>
0.206

> <Color>
0.093

> <Negative vol penalty>
0.000

$$$$

  -OEChem-04052319513D

 86 94  0     1  0  0  0  0  0999 V2000
  -29.8181  -32.4449   25.4547 C   0  0  0  0  0  0  0  0  0  0  0  0
  -29.3788  -31.1830   25.0674 C   0  0  0  0  0  0  0  0  0  0  0  0
  -22.9260  -10.2937   21.9911 C   0  0  0  0  0  0  0  0  0  0  0  0
  -23.9831   -9.5018   19.9681 C   0  0  0  0  0  0  0  0  0  0  0  0
  -28.9042  -33.4892   25.5888 C   0  0  0  0  0  0  0  0  0  0  0  0
  -28.0249  -30.9645   24.8151 C   0  0  0  0  0  0  0  0  0  0  0  0
  -27.2438  -28.2902   20.5862 C   0  0  0  0  0  0  0  0  0  0  0  0
  -22.2673   -9.0716   22.1254 C   0  0  0  0  0  0  0  0  0  0  0  0
  -23.3244   -8.2796   20.1024 C   0  0  0  0  0  0  0  0  0  0  0  0
  -27.4455  -26.9126   20.6577 C   0  0  0  0  0  0  0  0  0  0  0  0
  -23.0027   -5.9500   23.1966 C   0  0  0  0  0  0  0  0  0  0  0  0
  -22.9846   -5.3587   24.4597 C   0  0  0  0  0  0  0  0  0  0  0  0
  -25.0652  -26.5810   20.8658 C   0  0  0  0  0  0  0  0  0  0  0  0
  -20.5699   -5.4381   24.4623 C   0  0  0  0  0  0  0  0  0  0  0  0
  -28.2377  -20.1816   17.5742 C   0  0  0  0  0  0  0  0  0  0  0  0
  -29.4877  -19.7928   19.3911 C   0  0  0  0  0  0  0  0  0  0  0  0
  -23.7839  -10.5089   20.9125 C   0  0  0  0  0  0  0  0  0  0  0  0
  -25.7243  -12.1202   21.2946 C   0  0  0  0  0  0  0  0  0  0  0  0
  -27.5398  -33.2858   25.3287 C   0  0  0  0  0  0  0  0  0  0  0  0
  -25.9500  -28.8252   20.6651 C   0  0  0  0  0  0  0  0  0  0  0  0
  -27.0916  -32.0067   24.9472 C   0  0  0  0  0  0  0  0  0  0  0  0
  -24.8496  -27.9656   20.7925 C   0  0  0  0  0  0  0  0  0  0  0  0
  -28.5358  -18.8369   17.5883 C   0  0  0  0  0  0  0  0  0  0  0  0
  -29.3267  -18.5909   18.7376 C   0  0  0  0  0  0  0  0  0  0  0  0
  -22.4665   -8.0645   21.1810 C   0  0  0  0  0  0  0  0  0  0  0  0
  -26.3564  -26.0579   20.8004 C   0  0  0  0  0  0  0  0  0  0  0  0
  -21.8044   -6.2855   22.5662 C   0  0  0  0  0  0  0  0  0  0  0  0
  -21.7682   -5.1027   25.0926 C   0  0  0  0  0  0  0  0  0  0  0  0
  -20.5880   -6.0295   23.1991 C   0  0  0  0  0  0  0  0  0  0  0  0
  -24.4641  -11.7714   20.7729 C   0  0  0  0  0  0  0  0  0  0  0  0
  -25.9176  -13.4174   20.8868 C   0  0  0  0  0  0  0  0  0  0  0  0
  -26.6384  -11.3412   22.0777 C   0  0  0  0  0  0  0  0  0  0  0  0
  -24.4511  -30.7844   22.6698 C   0  0  0  0  0  0  0  0  0  0  0  0
  -22.0675  -30.5715   20.4799 C   0  0  0  0  0  0  0  0  0  0  0  0
  -20.5939  -28.7969   17.9648 C   0  0  0  0  0  0  0  0  0  0  0  0
  -25.6955  -17.3653   16.9485 C   0  0  0  0  0  0  0  0  0  0  0  0
  -26.5828  -34.4334   25.5330 C   0  0  0  0  0  0  0  0  0  0  0  0
  -25.7471  -30.3119   20.5595 C   0  0  0  0  0  0  0  0  0  0  0  0
  -23.4387  -28.4884   20.8615 C   0  0  0  0  0  0  0  0  0  0  0  0
  -25.2190  -34.2121   24.8839 C   0  0  0  0  0  0  0  0  0  0  0  0
  -22.7141  -16.7197   18.7846 C   0  0  0  0  0  0  0  0  0  0  0  0
  -24.6978  -32.8138   25.2001 C   0  0  0  0  0  0  0  0  0  0  0  0
  -23.0054  -15.4011   19.5032 C   0  0  0  0  0  0  0  0  0  0  0  0
  -23.3364  -16.7521   17.3905 C   0  0  0  0  0  0  0  0  0  0  0  0
  -25.0724  -15.1397   18.0687 C   0  0  0  0  0  0  0  0  0  0  0  0
  -25.6345  -31.7364   24.6405 C   0  0  1  0  0  0  0  0  0  0  0  0
  -24.4284  -30.7796   21.1674 C   0  0  1  0  0  0  0  0  0  0  0  0
  -24.5125  -15.0819   19.5003 C   0  0  2  0  0  0  0  0  0  0  0  0
  -31.4174  -17.2792   19.2863 C   0  0  0  0  0  0  0  0  0  0  0  0
  -18.6379  -28.8592   16.3939 C   0  0  0  0  0  0  0  0  0  0  0  0
  -20.2110  -29.7666   22.7636 C   0  0  0  0  0  0  0  0  0  0  0  0
  -18.5807  -28.9383   21.0536 C   0  0  0  0  0  0  0  0  0  0  0  0
  -19.2058  -31.3525   21.1117 C   0  0  0  0  0  0  0  0  0  0  0  0
  -27.1691  -21.8802   21.0283 C   0  0  0  0  0  0  0  0  0  0  0  0
  -22.3558  -28.8175   15.5869 C   0  0  0  0  0  0  0  0  0  0  0  0
  -28.1034  -17.8438   16.5850 C   0  0  0  0  0  0  0  0  0  0  0  0
  -28.7403  -22.2165   19.0440 C   0  0  0  0  0  0  0  0  0  0  0  0
  -26.1758  -22.5824   18.8578 C   0  0  0  0  0  0  0  0  0  0  0  0
  -27.6777  -24.1818   20.1756 C   0  0  0  0  0  0  0  0  0  1  0  0
  -29.8817  -17.2919   19.1662 C   0  0  1  0  0  0  0  0  0  0  0  0
  -20.8840  -29.6575   20.2734 C   0  0  1  0  0  0  0  0  0  0  0  0
  -20.1033  -29.2151   16.5904 C   0  0  2  0  0  0  0  0  0  0  0  0
  -19.7470  -29.9186   21.3012 C   0  0  0  0  0  0  0  0  0  0  0  0
  -27.4359  -22.7074   19.7493 C   0  0  1  0  0  0  0  0  0  0  0  0
  -23.8968  -12.7667   20.0863 N   0  0  0  0  0  0  0  0  0  0  0  0
  -28.8212  -20.7526   18.6750 N   0  0  0  0  0  0  0  0  0  0  0  0
  -24.8047  -13.7538   20.1737 N   0  0  0  0  0  0  0  0  0  0  0  0
  -23.2926  -29.9499   20.7602 N   0  0  0  0  0  0  0  0  0  0  0  0
  -24.7667  -16.4428   17.4578 N   0  0  0  0  0  0  0  0  0  0  0  0
  -26.9292  -14.2918   21.0723 N   0  0  0  0  0  0  0  0  0  0  0  0
  -26.2831  -10.0263   22.4077 N   0  0  0  0  0  0  0  0  0  0  0  0
  -25.4365  -31.5852   23.2149 N   0  0  0  0  0  0  0  0  0  0  0  0
  -20.4800  -29.8209   18.8811 N   0  0  0  0  0  0  0  0  0  0  0  0
  -27.0308  -16.9970   17.0577 N   0  0  0  0  0  0  0  0  0  0  0  0
  -26.3042  -23.3383   17.5882 N   0  3  0  0  0  0  0  0  0  0  0  0
  -29.3400  -16.8004   20.4864 N   0  3  0  0  0  0  0  0  0  0  0  0
  -20.8982  -28.5365   15.5281 N   0  3  0  0  0  0  0  0  0  0  0  0
  -27.7305  -11.8032   22.4870 O   0  0  0  0  0  0  0  0  0  0  0  0
  -23.6342  -30.1125   23.2885 O   0  0  0  0  0  0  0  0  0  0  0  0
  -21.9123  -31.7919   20.3886 O   0  0  0  0  0  0  0  0  0  0  0  0
  -21.0307  -27.6730   18.2026 O   0  0  0  0  0  0  0  0  0  0  0  0
  -25.3598  -18.4400   16.4393 O   0  0  0  0  0  0  0  0  0  0  0  0
  -21.8240   -6.8717   21.3118 O   0  0  0  0  0  0  0  0  0  0  0  0
  -26.5505  -24.7128   20.8711 O   0  0  0  0  0  0  0  0  0  1  0  0
  -21.7509   -4.5334   26.3049 F   0  0  0  0  0  0  0  0  0  0  0  0
  -19.4335   -6.3485   22.5980 F   0  0  0  0  0  0  0  0  0  0  0  0
  1  2  1  0  0  0  0
  1  5  2  0  0  0  0
  2  6  2  0  0  0  0
  3  8  2  0  0  0  0
  3 17  1  0  0  0  0
  4  9  1  0  0  0  0
  4 17  2  0  0  0  0
  5 19  1  0  0  0  0
  6 21  1  0  0  0  0
  7 10  2  0  0  0  0
  7 20  1  0  0  0  0
  8 25  1  0  0  0  0
  9 25  2  0  0  0  0
 10 26  1  0  0  0  0
 11 12  2  0  0  0  0
 11 27  1  0  0  0  0
 12 28  1  0  0  0  0
 13 22  1  0  0  0  0
 13 26  2  0  0  0  0
 14 28  2  0  0  0  0
 14 29  1  0  0  0  0
 15 23  2  0  0  0  0
 15 66  1  0  0  0  0
 16 24  2  0  0  0  0
 16 66  1  0  0  0  0
 17 30  1  0  0  0  0
 18 30  1  0  0  0  0
 18 31  2  0  0  0  0
 18 32  1  0  0  0  0
 19 21  2  0  0  0  0
 19 37  1  0  0  0  0
 20 22  2  0  0  0  0
 20 38  1  0  0  0  0
 21 46  1  0  0  0  0
 22 39  1  0  0  0  0
 23 24  1  0  0  0  0
 23 56  1  0  0  0  0
 24 60  1  0  0  0  0
 25 83  1  0  0  0  0
 26 84  1  0  0  0  0
 27 29  2  0  0  0  0
 27 83  1  0  0  0  0
 28 85  1  0  0  0  0
 29 86  1  0  0  0  0
 30 65  2  0  0  0  0
 31 67  1  0  0  0  0
 31 70  1  0  0  0  0
 32 71  1  0  0  0  0
 32 78  2  0  0  0  0
 33 47  1  0  0  0  0
 33 72  1  0  0  0  0
 33 79  2  0  0  0  0
 34 61  1  0  0  0  0
 34 68  1  0  0  0  0
 34 80  2  0  0  0  0
 35 62  1  0  0  0  0
 35 73  1  0  0  0  0
 35 81  2  0  0  0  0
 36 69  1  0  0  0  0
 36 74  1  0  0  0  0
 36 82  2  0  0  0  0
 37 40  1  0  0  0  0
 38 47  1  0  0  0  0
 39 68  1  0  0  0  0
 40 42  1  0  0  0  0
 41 43  1  0  0  0  0
 41 44  1  0  0  0  0
 42 46  1  0  0  0  0
 43 48  1  0  0  0  0
 44 69  1  0  0  0  0
 45 48  1  0  0  0  0
 45 69  1  0  0  0  0
 46 72  1  0  0  0  0
 47 68  1  0  0  0  0
 48 67  1  0  0  0  0
 49 60  1  0  0  0  0
 50 62  1  0  0  0  0
 51 63  1  0  0  0  0
 52 63  1  0  0  0  0
 53 63  1  0  0  0  0
 54 64  1  0  0  0  0
 55 77  1  0  0  0  0
 56 74  1  0  0  0  0
 57 64  1  0  0  0  0
 57 66  1  0  0  0  0
 58 64  1  0  0  0  0
 58 75  1  0  0  0  0
 59 64  1  0  0  0  0
 59 84  1  0  0  0  0
 60 76  1  0  0  0  0
 61 63  1  0  0  0  0
 61 73  1  0  0  0  0
 62 77  1  0  0  0  0
 65 67  1  0  0  0  0
M  CHG  3  75   1  76   1  77   1
M  ISO  4  36 100  59 101  74 100  84 101
M  END
> <Batch ID>
0107

> <Smiles>
CNC(C)C(=O)NC(C(=O)N1Cc2cc([101O:1][101CH2:1]C(C)(CN)Cn3cc(C[100NH:0][100C:0](=O)N4CCCC(n5nc(-c6ccc(Oc7ccc(F)cc7F)cc6)c(C(N)=O)c5N)C4)c(C(C)N)c3)ccc2CC1C(=O)NC1CCCc2ccccc21)C(C)(C)C

> <Shape>
0.280

> <Color>
0.088

> <Negative vol penalty>
0.000

$$$$

  -OEChem-04052319513D

 76 83  0     1  0  0  0  0  0999 V2000
  -22.1420  -11.6163   19.0973 C   0  0  0  0  0  0  0  0  0  0  0  0
  -21.6951  -12.7208   19.8155 C   0  0  0  0  0  0  0  0  0  0  0  0
  -25.9161  -25.8063   20.4291 C   0  0  0  0  0  0  0  0  0  0  0  0
  -25.1016  -27.9971   19.8177 C   0  0  0  0  0  0  0  0  0  0  0  0
  -23.4981  -11.2928   19.0905 C   0  0  0  0  0  0  0  0  0  0  0  0
  -22.6041  -13.5018   20.5284 C   0  0  0  0  0  0  0  0  0  0  0  0
  -22.3676  -19.5598   21.3945 C   0  0  0  0  0  0  0  0  0  0  0  0
  -27.2291  -26.2656   20.3257 C   0  0  0  0  0  0  0  0  0  0  0  0
  -26.4146  -28.4565   19.7143 C   0  0  0  0  0  0  0  0  0  0  0  0
  -21.9172  -20.3381   22.4599 C   0  0  0  0  0  0  0  0  0  0  0  0
  -29.3867  -28.0823   22.1905 C   0  0  0  0  0  0  0  0  0  0  0  0
  -30.2767  -27.7355   23.2069 C   0  0  0  0  0  0  0  0  0  0  0  0
  -24.1751  -20.4899   23.2956 C   0  0  0  0  0  0  0  0  0  0  0  0
  -31.6807  -26.6111   21.5939 C   0  0  0  0  0  0  0  0  0  0  0  0
  -24.8523  -26.6721   20.1750 C   0  0  0  0  0  0  0  0  0  0  0  0
  -22.9003  -25.1540   19.5482 C   0  0  0  0  0  0  0  0  0  0  0  0
  -24.4255  -12.0758   19.7958 C   0  0  0  0  0  0  0  0  0  0  0  0
  -23.7258  -19.2310   21.2774 C   0  0  0  0  0  0  0  0  0  0  0  0
  -23.9738  -13.1876   20.5322 C   0  0  0  0  0  0  0  0  0  0  0  0
  -24.6405  -19.7094   22.2264 C   0  0  0  0  0  0  0  0  0  0  0  0
  -27.4784  -27.5907   19.9683 C   0  0  0  0  0  0  0  0  0  0  0  0
  -22.8205  -20.8009   23.4122 C   0  0  0  0  0  0  0  0  0  0  0  0
  -29.6436  -27.6935   20.8757 C   0  0  0  0  0  0  0  0  0  0  0  0
  -31.4237  -26.9999   22.9087 C   0  0  0  0  0  0  0  0  0  0  0  0
  -30.7906  -26.9579   20.5775 C   0  0  0  0  0  0  0  0  0  0  0  0
  -23.4958  -26.1981   20.2811 C   0  0  0  0  0  0  0  0  0  0  0  0
  -21.6105  -25.0976   20.0169 C   0  0  0  0  0  0  0  0  0  0  0  0
  -23.4629  -24.3106   18.5344 C   0  0  0  0  0  0  0  0  0  0  0  0
  -25.3855  -16.5201   21.2769 C   0  0  0  0  0  0  0  0  0  0  0  0
  -27.8605  -18.4908   20.5606 C   0  0  0  0  0  0  0  0  0  0  0  0
  -19.1571  -26.8072   25.2294 C   0  0  0  0  0  0  0  0  0  0  0  0
  -29.1895  -21.6320   20.6746 C   0  0  0  0  0  0  0  0  0  0  0  0
  -25.8750  -11.6592   19.7973 C   0  0  0  0  0  0  0  0  0  0  0  0
  -24.1996  -18.4128   20.1076 C   0  0  0  0  0  0  0  0  0  0  0  0
  -26.1120  -19.4015   22.1350 C   0  0  0  0  0  0  0  0  0  0  0  0
  -26.8237  -12.7563   20.2735 C   0  0  0  0  0  0  0  0  0  0  0  0
  -18.1918  -27.8286   21.9332 C   0  0  0  0  0  0  0  0  0  0  0  0
  -26.2911  -13.4073   21.5460 C   0  0  0  0  0  0  0  0  0  0  0  0
  -19.3998  -27.4574   21.0741 C   0  0  0  0  0  0  0  0  0  0  0  0
  -18.6162  -28.2882   23.3245 C   0  0  0  0  0  0  0  0  0  0  0  0
  -20.6818  -26.9323   23.1968 C   0  0  0  0  0  0  0  0  0  0  0  0
  -24.9325  -14.0736   21.2978 C   0  0  1  0  0  0  0  0  0  0  0  0
  -25.5277  -17.7092   20.3694 C   0  0  1  0  0  0  0  0  0  0  0  0
  -20.2957  -26.4332   21.7932 C   0  0  2  0  0  0  0  0  0  0  0  0
  -30.8145  -23.4906   20.2243 C   0  0  0  0  0  0  0  0  0  0  0  0
  -19.5412  -25.3919   27.1992 C   0  0  0  0  0  0  0  0  0  0  0  0
  -21.4795  -26.4234   25.9992 C   0  0  0  0  0  0  0  0  0  0  0  0
  -29.3531  -17.2706   22.9256 C   0  0  0  0  0  0  0  0  0  0  0  0
  -30.9406  -19.2043   22.8318 C   0  0  0  0  0  0  0  0  0  0  0  0
  -30.7557  -17.6494   20.8900 C   0  0  0  0  0  0  0  0  0  0  0  0
  -27.8355  -22.3592   18.1454 C   0  0  0  0  0  0  0  0  0  0  0  0
  -21.3241  -23.6084   25.1223 C   0  0  0  0  0  0  0  0  0  0  0  0
  -20.1272  -24.5413   24.9098 C   0  0  0  0  0  0  0  0  0  0  0  0
  -21.2389  -22.3809   24.2235 C   0  0  0  0  0  0  0  0  0  1  0  0
  -28.8738  -19.2699   21.3638 C   0  0  1  0  0  0  0  0  0  0  0  0
  -29.8559  -22.4831   19.6087 C   0  0  2  0  0  0  0  0  0  0  0  0
  -20.0967  -25.7879   25.8227 C   0  0  0  0  0  0  0  0  0  0  0  0
  -29.9529  -18.3529   22.0059 C   0  0  0  0  0  0  0  0  0  0  0  0
  -22.6534  -26.7643   21.1494 N   0  0  0  0  0  0  0  0  0  0  0  0
  -21.5154  -26.0736   20.9649 N   0  0  0  0  0  0  0  0  0  0  0  0
  -26.5254  -18.5926   20.9764 N   0  0  0  0  0  0  0  0  0  0  0  0
  -19.4839  -27.2984   23.9652 N   0  0  0  0  0  0  0  0  0  0  0  0
  -20.5598  -24.3090   19.7064 N   0  0  0  0  0  0  0  0  0  0  0  0
  -24.0741  -23.1117   18.9260 N   0  0  0  0  0  0  0  0  0  0  0  0
  -25.1069  -15.3386   20.6167 N   0  0  0  0  0  0  0  0  0  0  0  0
  -29.4111  -20.2871   20.4666 N   0  0  0  0  0  0  0  0  0  0  0  0
  -28.8306  -23.2282   18.8249 N   0  3  0  0  0  0  0  0  0  0  0  0
  -23.4390  -24.6190   17.3187 O   0  0  0  0  0  0  0  0  0  0  0  0
  -25.5201  -16.6636   22.4864 O   0  0  0  0  0  0  0  0  0  0  0  0
  -28.2387  -17.8223   19.5953 O   0  0  0  0  0  0  0  0  0  0  0  0
  -18.1614  -27.1532   25.8705 O   0  0  0  0  0  0  0  0  0  0  0  0
  -28.5407  -22.1125   21.6012 O   0  0  0  0  0  0  0  0  0  0  0  0
  -28.7595  -28.0392   19.8676 O   0  0  0  0  0  0  0  0  0  0  0  0
  -22.3835  -21.5603   24.4535 O   0  0  0  0  0  0  0  0  0  1  0  0
  -32.2791  -26.6683   23.8846 F   0  0  0  0  0  0  0  0  0  0  0  0
  -31.0434  -26.5825   19.3161 F   0  0  0  0  0  0  0  0  0  0  0  0
  1  2  1  0  0  0  0
  1  5  2  0  0  0  0
  2  6  2  0  0  0  0
  3  8  2  0  0  0  0
  3 15  1  0  0  0  0
  4  9  1  0  0  0  0
  4 15  2  0  0  0  0
  5 17  1  0  0  0  0
  6 19  1  0  0  0  0
  7 10  2  0  0  0  0
  7 18  1  0  0  0  0
  8 21  1  0  0  0  0
  9 21  2  0  0  0  0
 10 22  1  0  0  0  0
 11 12  2  0  0  0  0
 11 23  1  0  0  0  0
 12 24  1  0  0  0  0
 13 20  1  0  0  0  0
 13 22  2  0  0  0  0
 14 24  2  0  0  0  0
 14 25  1  0  0  0  0
 15 26  1  0  0  0  0
 16 26  1  0  0  0  0
 16 27  2  0  0  0  0
 16 28  1  0  0  0  0
 17 19  2  0  0  0  0
 17 33  1  0  0  0  0
 18 20  2  0  0  0  0
 18 34  1  0  0  0  0
 19 42  1  0  0  0  0
 20 35  1  0  0  0  0
 21 73  1  0  0  0  0
 22 74  1  0  0  0  0
 23 25  2  0  0  0  0
 23 73  1  0  0  0  0
 24 75  1  0  0  0  0
 25 76  1  0  0  0  0
 26 59  2  0  0  0  0
 27 60  1  0  0  0  0
 27 63  1  0  0  0  0
 28 64  1  0  0  0  0
 28 68  2  0  0  0  0
 29 43  1  0  0  0  0
 29 65  1  0  0  0  0
 29 69  2  0  0  0  0
 30 55  1  0  0  0  0
 30 61  1  0  0  0  0
 30 70  2  0  0  0  0
 31 57  1  0  0  0  0
 31 62  1  0  0  0  0
 31 71  2  0  0  0  0
 32 56  1  0  0  0  0
 32 66  1  0  0  0  0
 32 72  2  0  0  0  0
 33 36  1  0  0  0  0
 34 43  1  0  0  0  0
 35 61  1  0  0  0  0
 36 38  1  0  0  0  0
 37 39  1  0  0  0  0
 37 40  1  0  0  0  0
 38 42  1  0  0  0  0
 39 44  1  0  0  0  0
 40 62  1  0  0  0  0
 41 44  1  0  0  0  0
 41 62  1  0  0  0  0
 42 65  1  0  0  0  0
 43 61  1  0  0  0  0
 44 60  1  0  0  0  0
 45 56  1  0  0  0  0
 46 57  1  0  0  0  0
 47 57  1  0  0  0  0
 48 58  1  0  0  0  0
 49 58  1  0  0  0  0
 50 58  1  0  0  0  0
 51 67  1  0  0  0  0
 52 53  1  0  0  0  0
 52 54  1  0  0  0  0
 53 57  1  0  0  0  0
 54 74  1  0  0  0  0
 55 58  1  0  0  0  0
 55 66  1  0  0  0  0
 56 67  1  0  0  0  0
 59 60  1  0  0  0  0
M  CHG  1  67   1
M  ISO  4  31 100  54 101  57 100  74 101
M  END
> <Batch ID>
0107

> <Smiles>
CNC(C)C(=O)NC(C(=O)N1Cc2cc([101O:1][101CH2:1]CC[100C:0](C)(C)[100C:0](=O)N3CCCC(n4nc(-c5ccc(Oc6ccc(F)cc6F)cc5)c(C(N)=O)c4N)C3)ccc2CC1C(=O)NC1CCCc2ccccc21)C(C)(C)C

> <Shape>
0.210

> <Color>
0.063

> <Negative vol penalty>
0.000

$$$$

  -OEChem-04052319513D

 83 91  0     1  0  0  0  0  0999 V2000
  -22.7155  -23.5284   18.6945 C   0  0  0  0  0  0  0  0  0  0  0  0
  -23.8800  -22.8636   19.0652 C   0  0  0  0  0  0  0  0  0  0  0  0
  -23.0909  -27.7774   20.5801 C   0  0  0  0  0  0  0  0  0  0  0  0
  -24.2924  -27.1243   22.5719 C   0  0  0  0  0  0  0  0  0  0  0  0
  -21.4751  -23.0392   19.1018 C   0  0  0  0  0  0  0  0  0  0  0  0
  -23.8047  -21.7097   19.8445 C   0  0  0  0  0  0  0  0  0  0  0  0
  -26.8372  -18.0229   18.1544 C   0  0  0  0  0  0  0  0  0  0  0  0
  -21.8956  -27.3576   21.1635 C   0  0  0  0  0  0  0  0  0  0  0  0
  -23.0970  -26.7045   23.1553 C   0  0  0  0  0  0  0  0  0  0  0  0
  -28.1948  -18.1278   18.4536 C   0  0  0  0  0  0  0  0  0  0  0  0
  -18.4785  -26.7911   22.2672 C   0  0  0  0  0  0  0  0  0  0  0  0
  -17.3702  -27.6297   22.1502 C   0  0  0  0  0  0  0  0  0  0  0  0
  -27.9109  -16.5585   20.2636 C   0  0  0  0  0  0  0  0  0  0  0  0
  -32.5905  -21.4257   20.5052 C   0  0  0  0  0  0  0  0  0  0  0  0
  -18.5695  -29.3766   23.3110 C   0  0  0  0  0  0  0  0  0  0  0  0
  -24.2894  -27.6608   21.2843 C   0  0  0  0  0  0  0  0  0  0  0  0
  -26.1021  -29.3756   20.7542 C   0  0  0  0  0  0  0  0  0  0  0  0
  -21.3841  -21.8733   19.8783 C   0  0  0  0  0  0  0  0  0  0  0  0
  -26.0026  -17.1919   18.9156 C   0  0  0  0  0  0  0  0  0  0  0  0
  -22.5620  -21.2052   20.2637 C   0  0  0  0  0  0  0  0  0  0  0  0
  -26.5435  -16.4428   19.9703 C   0  0  0  0  0  0  0  0  0  0  0  0
  -31.9921  -20.3062   21.1343 C   0  0  0  0  0  0  0  0  0  0  0  0
  -21.8986  -26.8211   22.4511 C   0  0  0  0  0  0  0  0  0  0  0  0
  -28.7313  -17.3978   19.5102 C   0  0  0  0  0  0  0  0  0  0  0  0
  -19.6324  -27.2451   22.9061 C   0  0  0  0  0  0  0  0  0  0  0  0
  -17.4156  -28.9225   22.6721 C   0  0  0  0  0  0  0  0  0  0  0  0
  -19.6779  -28.5379   23.4279 C   0  0  0  0  0  0  0  0  0  0  0  0
  -25.5246  -28.0938   20.6820 C   0  0  0  0  0  0  0  0  0  0  0  0
  -31.9188  -22.5479   20.9372 C   0  0  0  0  0  0  0  0  0  0  0  0
  -30.9727  -20.7784   21.9314 C   0  0  0  0  0  0  0  0  0  0  0  0
  -27.2601  -29.2723   20.0228 C   0  0  0  0  0  0  0  0  0  0  0  0
  -25.6337  -30.5543   21.4227 C   0  0  0  0  0  0  0  0  0  0  0  0
  -23.4552  -17.6543   20.7597 C   0  0  0  0  0  0  0  0  0  0  0  0
  -23.4287  -14.4123   20.8666 C   0  0  0  0  0  0  0  0  0  0  0  0
  -25.1673  -11.4898   20.5792 C   0  0  0  0  0  0  0  0  0  0  0  0
  -30.7964  -24.6493   18.6180 C   0  0  0  0  0  0  0  0  0  0  0  0
  -20.0234  -21.4092   20.3344 C   0  0  0  0  0  0  0  0  0  0  0  0
  -24.5455  -17.0694   18.5631 C   0  0  0  0  0  0  0  0  0  0  0  0
  -25.6942  -15.5209   20.8053 C   0  0  0  0  0  0  0  0  0  0  0  0
  -20.0099  -19.9704   20.8442 C   0  0  0  0  0  0  0  0  0  0  0  0
  -29.1702  -26.8657   16.3553 C   0  0  0  0  0  0  0  0  0  0  0  0
  -21.1765  -19.7309   21.7975 C   0  0  0  0  0  0  0  0  0  0  0  0
  -28.1036  -27.5474   17.2141 C   0  0  0  0  0  0  0  0  0  0  0  0
  -29.3586  -25.4016   16.7463 C   0  0  0  0  0  0  0  0  0  0  0  0
  -28.5674  -25.8549   19.0359 C   0  0  0  0  0  0  0  0  0  0  0  0
  -22.5201  -19.9365   21.0877 C   0  0  1  0  0  0  0  0  0  0  0  0
  -23.6875  -16.5865   19.7284 C   0  0  1  0  0  0  0  0  0  0  0  0
  -28.3814  -27.3481   18.7162 C   0  0  2  0  0  0  0  0  0  0  0  0
  -30.0291  -20.0475   22.8040 C   0  0  0  0  0  0  0  0  0  0  0  0
  -33.8349  -18.6379   21.4674 C   0  0  0  0  0  0  0  0  0  0  0  0
  -24.8834   -9.0029   20.7588 C   0  0  0  0  0  0  0  0  0  0  0  0
  -23.4018  -14.6376   23.9094 C   0  0  0  0  0  0  0  0  0  0  0  0
  -24.0710  -12.2278   24.0241 C   0  0  0  0  0  0  0  0  0  0  0  0
  -21.8976  -12.8685   22.9809 C   0  0  0  0  0  0  0  0  0  0  0  0
  -30.0061  -23.0211   22.4796 C   0  0  0  0  0  0  0  0  0  0  0  0
  -25.9380  -11.0808   17.7512 C   0  0  0  0  0  0  0  0  0  0  0  0
  -32.1329  -23.9692   20.5954 C   0  0  0  0  0  0  0  0  0  0  0  0
  -32.2749  -18.3628   19.5030 C   0  0  0  0  0  0  0  0  0  0  0  0
  -30.8378  -18.3715   18.9904 C   0  0  0  0  0  0  0  0  0  1  0  0
  -32.4052  -18.8552   20.9573 C   0  0  2  0  0  0  0  0  0  0  0  0
  -24.0537  -13.3669   21.7584 C   0  0  1  0  0  0  0  0  0  0  0  0
  -24.8624  -10.2059   19.8287 C   0  0  2  0  0  0  0  0  0  0  0  0
  -23.3719  -13.2940   23.1539 C   0  0  0  0  0  0  0  0  0  0  0  0
  -26.2554  -27.2389   19.9615 N   0  0  0  0  0  0  0  0  0  0  0  0
  -30.9373  -22.1424   21.8035 N   0  0  0  0  0  0  0  0  0  0  0  0
  -27.3039  -27.9850   19.5742 N   0  0  0  0  0  0  0  0  0  0  0  0
  -24.2742  -15.4401   20.4253 N   0  0  0  0  0  0  0  0  0  0  0  0
  -29.6202  -25.2819   18.1826 N   0  0  0  0  0  0  0  0  0  0  0  0
  -28.2348  -30.1578   19.7261 N   0  0  0  0  0  0  0  0  0  0  0  0
  -24.4249  -30.4863   22.1287 N   0  0  0  0  0  0  0  0  0  0  0  0
  -22.8388  -18.7883   20.2664 N   0  0  0  0  0  0  0  0  0  0  0  0
  -24.0164  -12.1158   21.0090 N   0  0  0  0  0  0  0  0  0  0  0  0
  -30.9700  -24.5839   19.9950 N   0  0  0  0  0  0  0  0  0  0  0  0
  -25.8678   -9.9845   18.7512 N   0  3  0  0  0  0  0  0  0  0  0  0
  -26.2601  -31.6404   21.3812 O   0  0  0  0  0  0  0  0  0  0  0  0
  -23.8078  -17.4628   21.9176 O   0  0  0  0  0  0  0  0  0  0  0  0
  -22.2361  -14.3165   20.5665 O   0  0  0  0  0  0  0  0  0  0  0  0
  -26.3122  -11.8947   20.7687 O   0  0  0  0  0  0  0  0  0  0  0  0
  -31.6326  -24.1824   17.8371 O   0  0  0  0  0  0  0  0  0  0  0  0
  -20.7323  -26.4115   23.0207 O   0  0  0  0  0  0  0  0  0  0  0  0
  -30.0560  -17.4988   19.8049 O   0  0  0  0  0  0  0  0  0  1  0  0
  -16.3517  -29.7283   22.5583 F   0  0  0  0  0  0  0  0  0  0  0  0
  -20.7840  -28.9801   24.0417 F   0  0  0  0  0  0  0  0  0  0  0  0
  1  2  1  0  0  0  0
  1  5  2  0  0  0  0
  2  6  2  0  0  0  0
  3  8  2  0  0  0  0
  3 16  1  0  0  0  0
  4  9  1  0  0  0  0
  4 16  2  0  0  0  0
  5 18  1  0  0  0  0
  6 20  1  0  0  0  0
  7 10  2  0  0  0  0
  7 19  1  0  0  0  0
  8 23  1  0  0  0  0
  9 23  2  0  0  0  0
 10 24  1  0  0  0  0
 11 12  2  0  0  0  0
 11 25  1  0  0  0  0
 12 26  1  0  0  0  0
 13 21  1  0  0  0  0
 13 24  2  0  0  0  0
 14 22  1  0  0  0  0
 14 29  2  0  0  0  0
 15 26  2  0  0  0  0
 15 27  1  0  0  0  0
 16 28  1  0  0  0  0
 17 28  1  0  0  0  0
 17 31  2  0  0  0  0
 17 32  1  0  0  0  0
 18 20  2  0  0  0  0
 18 37  1  0  0  0  0
 19 21  2  0  0  0  0
 19 38  1  0  0  0  0
 20 46  1  0  0  0  0
 21 39  1  0  0  0  0
 22 30  2  0  0  0  0
 22 60  1  0  0  0  0
 23 80  1  0  0  0  0
 24 81  1  0  0  0  0
 25 27  2  0  0  0  0
 25 80  1  0  0  0  0
 26 82  1  0  0  0  0
 27 83  1  0  0  0  0
 28 64  2  0  0  0  0
 29 57  1  0  0  0  0
 29 65  1  0  0  0  0
 30 49  1  0  0  0  0
 30 65  1  0  0  0  0
 31 66  1  0  0  0  0
 31 69  1  0  0  0  0
 32 70  1  0  0  0  0
 32 75  2  0  0  0  0
 33 47  1  0  0  0  0
 33 71  1  0  0  0  0
 33 76  2  0  0  0  0
 34 61  1  0  0  0  0
 34 67  1  0  0  0  0
 34 77  2  0  0  0  0
 35 62  1  0  0  0  0
 35 72  1  0  0  0  0
 35 78  2  0  0  0  0
 36 68  1  0  0  0  0
 36 73  1  0  0  0  0
 36 79  2  0  0  0  0
 37 40  1  0  0  0  0
 38 47  1  0  0  0  0
 39 67  1  0  0  0  0
 40 42  1  0  0  0  0
 41 43  1  0  0  0  0
 41 44  1  0  0  0  0
 42 46  1  0  0  0  0
 43 48  1  0  0  0  0
 44 68  1  0  0  0  0
 45 48  1  0  0  0  0
 45 68  1  0  0  0  0
 46 71  1  0  0  0  0
 47 67  1  0  0  0  0
 48 66  1  0  0  0  0
 50 60  1  0  0  0  0
 51 62  1  0  0  0  0
 52 63  1  0  0  0  0
 53 63  1  0  0  0  0
 54 63  1  0  0  0  0
 55 65  1  0  0  0  0
 56 74  1  0  0  0  0
 57 73  1  0  0  0  0
 58 59  1  0  0  0  0
 58 60  1  0  0  0  0
 59 81  1  0  0  0  0
 61 63  1  0  0  0  0
 61 72  1  0  0  0  0
 62 74  1  0  0  0  0
 64 66  1  0  0  0  0
M  CHG  1  74   1
M  ISO  4  36 100  59 101  73 100  81 101
M  END
> <Batch ID>
0107

> <Smiles>
CNC(C)C(=O)NC(C(=O)N1Cc2cc([101O:1][101CH2:1]CC(C)c3cc(C[100NH:0][100C:0](=O)N4CCCC(n5nc(-c6ccc(Oc7ccc(F)cc7F)cc6)c(C(N)=O)c5N)C4)n(C)c3C)ccc2CC1C(=O)NC1CCCc2ccccc21)C(C)(C)C

> <Shape>
0.224

> <Color>
0.075

> <Negative vol penalty>
0.000

$$$$

  -OEChem-04052319513D

 87 96  0     1  0  0  0  0  0999 V2000
  -18.0744  -27.8440   23.4709 C   0  0  0  0  0  0  0  0  0  0  0  0
  -19.4431  -28.0397   23.6257 C   0  0  0  0  0  0  0  0  0  0  0  0
  -26.9240  -18.2541   19.5712 C   0  0  0  0  0  0  0  0  0  0  0  0
  -29.0444  -17.6136   18.6064 C   0  0  0  0  0  0  0  0  0  0  0  0
  -17.6032  -26.9548   22.5060 C   0  0  0  0  0  0  0  0  0  0  0  0
  -20.3414  -27.3452   22.8163 C   0  0  0  0  0  0  0  0  0  0  0  0
  -25.7116  -29.3799   20.6885 C   0  0  0  0  0  0  0  0  0  0  0  0
  -26.4963  -16.9277   19.5120 C   0  0  0  0  0  0  0  0  0  0  0  0
  -28.6168  -16.2872   18.5472 C   0  0  0  0  0  0  0  0  0  0  0  0
  -27.0236  -29.1931   21.1214 C   0  0  0  0  0  0  0  0  0  0  0  0
  -28.2886  -13.6805   20.6728 C   0  0  0  0  0  0  0  0  0  0  0  0
  -29.1791  -12.6945   21.0976 C   0  0  0  0  0  0  0  0  0  0  0  0
  -27.0680  -24.9812   24.5010 C   0  0  0  0  0  0  0  0  0  0  0  0
  -27.7120  -25.4555   23.3317 C   0  0  0  0  0  0  0  0  0  0  0  0
  -27.2840  -27.3934   19.5363 C   0  0  0  0  0  0  0  0  0  0  0  0
  -29.1111  -11.6874   18.9026 C   0  0  0  0  0  0  0  0  0  0  0  0
  -28.1980  -18.5970   19.1183 C   0  0  0  0  0  0  0  0  0  0  0  0
  -28.0505  -21.0791   18.5482 C   0  0  0  0  0  0  0  0  0  0  0  0
  -18.4960  -26.2563   21.6778 C   0  0  0  0  0  0  0  0  0  0  0  0
  -25.1715  -28.5663   19.6821 C   0  0  0  0  0  0  0  0  0  0  0  0
  -19.8818  -26.4448   21.8403 C   0  0  0  0  0  0  0  0  0  0  0  0
  -25.9657  -27.5736   19.0906 C   0  0  0  0  0  0  0  0  0  0  0  0
  -27.3427  -15.9443   19.0000 C   0  0  0  0  0  0  0  0  0  0  0  0
  -27.8091  -28.1978   20.5474 C   0  0  0  0  0  0  0  0  0  0  0  0
  -27.8093  -13.6699   19.3628 C   0  0  0  0  0  0  0  0  0  0  0  0
  -29.5904  -11.6980   20.2125 C   0  0  0  0  0  0  0  0  0  0  0  0
  -28.2206  -12.6733   18.4777 C   0  0  0  0  0  0  0  0  0  0  0  0
  -28.6401  -19.9671   19.1787 C   0  0  0  0  0  0  0  0  0  0  0  0
  -28.0434  -24.7677   25.4499 C   0  0  0  0  0  0  0  0  0  0  0  0
  -29.0613  -25.5173   23.6015 C   0  0  0  0  0  0  0  0  0  0  0  0
  -28.8405  -22.1409   18.9156 C   0  0  0  0  0  0  0  0  0  0  0  0
  -26.8923  -21.1463   17.7057 C   0  0  0  0  0  0  0  0  0  0  0  0
  -22.7545  -26.5085   19.5172 C   0  0  0  0  0  0  0  0  0  0  0  0
  -23.5244  -26.4563   16.3666 C   0  0  0  0  0  0  0  0  0  0  0  0
  -25.8892  -26.9385   13.9536 C   0  0  0  0  0  0  0  0  0  0  0  0
  -32.4321  -23.1202   23.6052 C   0  0  0  0  0  0  0  0  0  0  0  0
  -17.9410  -25.2701   20.6809 C   0  0  0  0  0  0  0  0  0  0  0  0
  -23.7631  -28.7982   19.2076 C   0  0  0  0  0  0  0  0  0  0  0  0
  -25.4397  -26.6869   17.9927 C   0  0  0  0  0  0  0  0  0  0  0  0
  -18.9469  -24.8547   19.6104 C   0  0  0  0  0  0  0  0  0  0  0  0
  -26.4548  -23.2840   29.2536 C   0  0  0  0  0  0  0  0  0  0  0  0
  -27.2704  -22.3337   28.3822 C   0  0  0  0  0  0  0  0  0  0  0  0
  -26.9990  -24.7081   29.1952 C   0  0  0  0  0  0  0  0  0  0  0  0
  -33.3343  -23.2098   20.1622 C   0  0  0  0  0  0  0  0  0  0  0  0
  -20.2911  -24.5125   20.2451 C   0  0  0  0  0  0  0  0  0  0  0  0
  -27.3655  -22.8313   26.9411 C   0  0  0  0  0  0  0  0  0  0  0  0
  -27.0928  -25.2175   27.7580 C   0  0  0  0  0  0  0  0  0  0  0  0
  -32.1803  -22.4892   19.4628 C   0  0  0  0  0  0  0  0  0  0  0  0
  -33.6525  -22.5826   21.5177 C   0  0  0  0  0  0  0  0  0  0  0  0
  -31.3460  -21.7409   21.7306 C   0  0  0  0  0  0  0  0  0  0  0  0
  -20.8869  -25.7285   20.9646 C   0  0  1  0  0  0  0  0  0  0  0  0
  -27.9191  -24.2665   26.8727 C   0  0  0  0  0  0  0  0  0  0  0  0
  -23.1502  -27.5740   18.5345 C   0  0  1  0  0  0  0  0  0  0  0  0
  -30.9514  -22.3723   20.3845 C   0  0  2  0  0  0  0  0  0  0  0  0
  -26.2334  -26.7791   11.4730 C   0  0  0  0  0  0  0  0  0  0  0  0
  -23.7028  -23.4184   16.5889 C   0  0  0  0  0  0  0  0  0  0  0  0
  -24.9439  -23.4018   14.4146 C   0  0  0  0  0  0  0  0  0  0  0  0
  -22.5992  -24.2488   14.5039 C   0  0  0  0  0  0  0  0  0  0  0  0
  -26.4925  -29.8276   13.7348 C   0  0  0  0  0  0  0  0  0  0  0  0
  -30.2041  -25.9507   22.7183 C   0  0  0  0  0  0  0  0  0  0  0  0
  -30.5202  -27.4452   22.8092 C   0  0  0  0  0  0  0  0  0  0  0  0
  -30.5313  -25.0129   25.5628 C   0  0  0  0  0  0  0  0  0  0  0  0
  -31.0770  -23.5889   25.6309 C   0  0  0  0  0  0  0  0  0  0  0  0
  -29.3791  -28.3341   22.3285 C   0  0  0  0  0  0  0  0  0  1  0  0
  -24.4580  -25.6380   15.5076 C   0  0  1  0  0  0  0  0  0  0  0  0
  -25.8421  -27.6831   12.6316 C   0  0  2  0  0  0  0  0  0  0  0  0
  -23.9356  -24.1920   15.2757 C   0  0  0  0  0  0  0  0  0  0  0  0
  -29.7212  -20.2922   19.8924 N   0  0  0  0  0  0  0  0  0  0  0  0
  -29.2512  -25.0967   24.8919 N   0  0  0  0  0  0  0  0  0  0  0  0
  -29.8173  -21.6205   19.7126 N   0  0  0  0  0  0  0  0  0  0  0  0
  -24.0546  -26.9485   17.5676 N   0  0  0  0  0  0  0  0  0  0  0  0
  -32.4455  -22.5023   22.3439 N   0  0  0  0  0  0  0  0  0  0  0  0
  -28.7879  -23.4596   18.6315 N   0  0  0  0  0  0  0  0  0  0  0  0
  -27.0620  -20.9924   16.3230 N   0  0  0  0  0  0  0  0  0  0  0  0
  -21.4703  -26.6455   20.0089 N   0  0  0  0  0  0  0  0  0  0  0  0
  -24.6617  -26.4033   14.2824 N   0  0  0  0  0  0  0  0  0  0  0  0
  -31.2467  -23.0016   24.3206 N   0  0  0  0  0  0  0  0  0  0  0  0
  -26.7757  -28.8444   12.6577 N   0  3  0  0  0  0  0  0  0  0  0  0
  -25.7431  -21.3536   18.1639 O   0  0  0  0  0  0  0  0  0  0  0  0
  -23.5544  -25.6265   19.8068 O   0  0  0  0  0  0  0  0  0  0  0  0
  -22.3696  -26.6575   15.9826 O   0  0  0  0  0  0  0  0  0  0  0  0
  -26.9134  -26.8381   14.6255 O   0  0  0  0  0  0  0  0  0  0  0  0
  -33.4025  -23.7368   24.0580 O   0  0  0  0  0  0  0  0  0  0  0  0
  -26.9259  -14.6499   18.9423 O   0  0  0  0  0  0  0  0  0  0  0  0
  -29.0898  -28.0129   20.9686 O   0  0  0  0  0  0  0  0  0  1  0  0
  -30.4467  -10.7521   20.6202 F   0  0  0  0  0  0  0  0  0  0  0  0
  -27.7645  -12.6586   17.2177 F   0  0  0  0  0  0  0  0  0  0  0  0
  1  2  1  0  0  0  0
  1  5  2  0  0  0  0
  2  6  2  0  0  0  0
  3  8  2  0  0  0  0
  3 17  1  0  0  0  0
  4  9  1  0  0  0  0
  4 17  2  0  0  0  0
  5 19  1  0  0  0  0
  6 21  1  0  0  0  0
  7 10  2  0  0  0  0
  7 20  1  0  0  0  0
  8 23  1  0  0  0  0
  9 23  2  0  0  0  0
 10 24  1  0  0  0  0
 11 12  2  0  0  0  0
 11 25  1  0  0  0  0
 12 26  1  0  0  0  0
 13 14  1  0  0  0  0
 13 29  2  0  0  0  0
 14 30  2  0  0  0  0
 15 22  1  0  0  0  0
 15 24  2  0  0  0  0
 16 26  2  0  0  0  0
 16 27  1  0  0  0  0
 17 28  1  0  0  0  0
 18 28  1  0  0  0  0
 18 31  2  0  0  0  0
 18 32  1  0  0  0  0
 19 21  2  0  0  0  0
 19 37  1  0  0  0  0
 20 22  2  0  0  0  0
 20 38  1  0  0  0  0
 21 51  1  0  0  0  0
 22 39  1  0  0  0  0
 23 84  1  0  0  0  0
 24 85  1  0  0  0  0
 25 27  2  0  0  0  0
 25 84  1  0  0  0  0
 26 86  1  0  0  0  0
 27 87  1  0  0  0  0
 28 68  2  0  0  0  0
 29 52  1  0  0  0  0
 29 69  1  0  0  0  0
 30 60  1  0  0  0  0
 30 69  1  0  0  0  0
 31 70  1  0  0  0  0
 31 73  1  0  0  0  0
 32 74  1  0  0  0  0
 32 79  2  0  0  0  0
 33 53  1  0  0  0  0
 33 75  1  0  0  0  0
 33 80  2  0  0  0  0
 34 65  1  0  0  0  0
 34 71  1  0  0  0  0
 34 81  2  0  0  0  0
 35 66  1  0  0  0  0
 35 76  1  0  0  0  0
 35 82  2  0  0  0  0
 36 72  1  0  0  0  0
 36 77  1  0  0  0  0
 36 83  2  0  0  0  0
 37 40  1  0  0  0  0
 38 53  1  0  0  0  0
 39 71  1  0  0  0  0
 40 45  1  0  0  0  0
 41 42  1  0  0  0  0
 41 43  1  0  0  0  0
 42 46  1  0  0  0  0
 43 47  1  0  0  0  0
 44 48  1  0  0  0  0
 44 49  1  0  0  0  0
 45 51  1  0  0  0  0
 46 52  1  0  0  0  0
 47 52  1  0  0  0  0
 48 54  1  0  0  0  0
 49 72  1  0  0  0  0
 50 54  1  0  0  0  0
 50 72  1  0  0  0  0
 51 75  1  0  0  0  0
 53 71  1  0  0  0  0
 54 70  1  0  0  0  0
 55 66  1  0  0  0  0
 56 67  1  0  0  0  0
 57 67  1  0  0  0  0
 58 67  1  0  0  0  0
 59 78  1  0  0  0  0
 60 61  1  0  0  0  0
 61 64  1  0  0  0  0
 62 63  1  0  0  0  0
 62 69  1  0  0  0  0
 63 77  1  0  0  0  0
 64 85  1  0  0  0  0
 65 67  1  0  0  0  0
 65 76  1  0  0  0  0
 66 78  1  0  0  0  0
 68 70  1  0  0  0  0
M  CHG  1  78   1
M  ISO  4  36 100  64 101  77 100  85 101
M  END
> <Batch ID>
0107

> <Smiles>
CNC(C)C(=O)NC(C(=O)N1Cc2cc([101O:1][101CH2:1]CCc3ccc(C4CCCCC4)n3CC[100NH:0][100C:0](=O)N3CCCC(n4nc(-c5ccc(Oc6ccc(F)cc6F)cc5)c(C(N)=O)c4N)C3)ccc2CC1C(=O)NC1CCCc2ccccc21)C(C)(C)C

> <Shape>
0.191

> <Color>
0.078

> <Negative vol penalty>
0.000

$$$$

  -OEChem-04052319513D

 81 89  0     1  0  0  0  0  0999 V2000
  -19.9829  -19.8982   20.3618 C   0  0  0  0  0  0  0  0  0  0  0  0
  -21.3367  -20.1685   20.5340 C   0  0  0  0  0  0  0  0  0  0  0  0
  -20.2051  -25.2256   18.6475 C   0  0  0  0  0  0  0  0  0  0  0  0
  -22.4829  -24.5934   18.1486 C   0  0  0  0  0  0  0  0  0  0  0  0
  -19.4649  -18.6633   20.7501 C   0  0  0  0  0  0  0  0  0  0  0  0
  -22.1731  -19.2044   21.0956 C   0  0  0  0  0  0  0  0  0  0  0  0
  -26.5445  -18.7240   18.5847 C   0  0  0  0  0  0  0  0  0  0  0  0
  -19.7612  -24.4968   17.5442 C   0  0  0  0  0  0  0  0  0  0  0  0
  -22.0390  -23.8645   17.0453 C   0  0  0  0  0  0  0  0  0  0  0  0
  -27.5201  -19.6933   18.8135 C   0  0  0  0  0  0  0  0  0  0  0  0
  -21.4697  -21.5416   14.3070 C   0  0  0  0  0  0  0  0  0  0  0  0
  -22.0004  -20.2660   14.1153 C   0  0  0  0  0  0  0  0  0  0  0  0
  -28.6500  -18.1907   20.3250 C   0  0  0  0  0  0  0  0  0  0  0  0
  -21.1361  -19.5832   16.2656 C   0  0  0  0  0  0  0  0  0  0  0  0
  -21.5660  -25.2740   18.9497 C   0  0  0  0  0  0  0  0  0  0  0  0
  -21.6711  -25.8303   21.4371 C   0  0  0  0  0  0  0  0  0  0  0  0
  -20.2972  -17.6801   21.3079 C   0  0  0  0  0  0  0  0  0  0  0  0
  -26.6085  -17.4826   19.2338 C   0  0  0  0  0  0  0  0  0  0  0  0
  -21.6655  -17.9558   21.4930 C   0  0  0  0  0  0  0  0  0  0  0  0
  -27.6753  -17.2064   20.1007 C   0  0  0  0  0  0  0  0  0  0  0  0
  -20.6781  -23.8162   16.7431 C   0  0  0  0  0  0  0  0  0  0  0  0
  -28.5715  -19.4278   19.6860 C   0  0  0  0  0  0  0  0  0  0  0  0
  -20.7722  -21.8381   15.4781 C   0  0  0  0  0  0  0  0  0  0  0  0
  -21.8336  -19.2868   15.0946 C   0  0  0  0  0  0  0  0  0  0  0  0
  -20.6053  -20.8589   16.4573 C   0  0  0  0  0  0  0  0  0  0  0  0
  -22.0253  -26.0272   20.0889 C   0  0  0  0  0  0  0  0  0  0  0  0
  -22.3701  -26.7952   22.1202 C   0  0  0  0  0  0  0  0  0  0  0  0
  -20.7891  -24.8617   22.0198 C   0  0  0  0  0  0  0  0  0  0  0  0
  -24.7454  -15.9251   21.2848 C   0  0  0  0  0  0  0  0  0  0  0  0
  -26.8825  -13.5320   20.8071 C   0  0  0  0  0  0  0  0  0  0  0  0
  -30.0363  -12.6042   19.8909 C   0  0  0  0  0  0  0  0  0  0  0  0
  -27.4179  -29.7866   20.9274 C   0  0  0  0  0  0  0  0  0  0  0  0
  -19.6827  -16.3777   21.7560 C   0  0  0  0  0  0  0  0  0  0  0  0
  -25.5628  -16.4378   18.9556 C   0  0  0  0  0  0  0  0  0  0  0  0
  -27.8009  -15.8819   20.8068 C   0  0  0  0  0  0  0  0  0  0  0  0
  -20.7072  -15.2722   21.9981 C   0  0  0  0  0  0  0  0  0  0  0  0
  -24.2063  -31.1797   21.5765 C   0  0  0  0  0  0  0  0  0  0  0  0
  -21.8794  -15.8011   22.8186 C   0  0  0  0  0  0  0  0  0  0  0  0
  -29.0254  -23.8986   21.1097 C   0  0  0  0  0  0  0  0  0  0  0  0
  -29.6281  -23.9225   18.6536 C   0  0  0  0  0  0  0  0  0  0  0  0
  -23.2512  -29.9994   21.3905 C   0  0  0  0  0  0  0  0  0  0  0  0
  -29.3317  -22.4050   21.1665 C   0  0  0  0  0  0  0  0  0  0  0  0
  -29.9321  -22.4286   18.7171 C   0  0  0  0  0  0  0  0  0  0  0  0
  -25.3652  -31.1299   20.5833 C   0  0  0  0  0  0  0  0  0  0  0  0
  -25.1632  -28.6815   20.3875 C   0  0  0  0  0  0  0  0  0  0  0  0
  -22.6095  -16.9266   22.0758 C   0  0  1  0  0  0  0  0  0  0  0  0
  -25.4475  -15.3976   20.0656 C   0  0  1  0  0  0  0  0  0  0  0  0
  -29.8395  -24.6011   20.0142 C   0  0  0  0  0  0  0  0  0  0  0  0
  -24.0084  -28.6579   21.4035 C   0  0  2  0  0  0  0  0  0  0  0  0
  -29.1236  -21.7345   19.8112 C   0  0  0  0  0  0  0  0  0  1  0  0
  -31.4988  -10.5809   19.6365 C   0  0  0  0  0  0  0  0  0  0  0  0
  -30.2462  -26.7471   18.7932 C   0  0  0  0  0  0  0  0  0  0  0  0
  -27.2230  -13.4004   23.8364 C   0  0  0  0  0  0  0  0  0  0  0  0
  -29.3222  -12.0852   23.4734 C   0  0  0  0  0  0  0  0  0  0  0  0
  -27.1326  -11.1749   22.6991 C   0  0  0  0  0  0  0  0  0  0  0  0
  -30.3978  -13.0864   16.9933 C   0  0  0  0  0  0  0  0  0  0  0  0
  -29.7669  -26.8286   21.2585 C   0  0  0  0  0  0  0  0  0  0  0  0
  -29.3822  -28.3066   21.2591 C   0  0  0  0  0  0  0  0  0  0  0  0
  -28.1792  -13.1114   21.4556 C   0  0  1  0  0  0  0  0  0  0  0  0
  -30.5343  -11.5294   18.9416 C   0  0  2  0  0  0  0  0  0  0  0  0
  -29.4772  -26.0831   19.9397 C   0  0  2  0  0  0  0  0  0  0  0  0
  -27.9611  -12.4687   22.8545 C   0  0  0  0  0  0  0  0  0  0  0  0
  -22.8827  -27.0379   19.9234 N   0  0  0  0  0  0  0  0  0  0  0  0
  -23.0729  -27.4848   21.1764 N   0  0  0  0  0  0  0  0  0  0  0  0
  -26.7502  -14.8952   20.5069 N   0  0  0  0  0  0  0  0  0  0  0  0
  -26.0423  -29.8324   20.6470 N   0  0  0  0  0  0  0  0  0  0  0  0
  -22.4460  -27.1127   23.4301 N   0  0  0  0  0  0  0  0  0  0  0  0
  -21.3227  -23.6309   22.4257 N   0  0  0  0  0  0  0  0  0  0  0  0
  -23.4631  -16.3798   21.0430 N   0  0  0  0  0  0  0  0  0  0  0  0
  -28.8519  -12.2417   20.4967 N   0  0  0  0  0  0  0  0  0  0  0  0
  -27.9800  -28.5168   20.9756 N   0  0  0  0  0  0  0  0  0  0  0  0
  -31.2369  -12.1476   17.7818 N   0  3  0  0  0  0  0  0  0  0  0  0
  -19.5610  -25.0748   22.1608 O   0  0  0  0  0  0  0  0  0  0  0  0
  -25.3236  -15.9186   22.3652 O   0  0  0  0  0  0  0  0  0  0  0  0
  -26.0217  -12.6812   20.5689 O   0  0  0  0  0  0  0  0  0  0  0  0
  -30.6397  -13.6583   20.0791 O   0  0  0  0  0  0  0  0  0  0  0  0
  -28.0939  -30.8018   21.1257 O   0  0  0  0  0  0  0  0  0  0  0  0
  -20.2452  -23.1047   15.6666 O   0  0  0  0  0  0  0  0  0  0  0  0
  -29.5247  -20.3724   19.9117 O   0  0  0  0  0  0  0  0  0  1  0  0
  -22.3420  -18.0614   14.9097 F   0  0  0  0  0  0  0  0  0  0  0  0
  -19.9352  -21.1374   17.5839 F   0  0  0  0  0  0  0  0  0  0  0  0
  1  2  1  0  0  0  0
  1  5  2  0  0  0  0
  2  6  2  0  0  0  0
  3  8  2  0  0  0  0
  3 15  1  0  0  0  0
  4  9  1  0  0  0  0
  4 15  2  0  0  0  0
  5 17  1  0  0  0  0
  6 19  1  0  0  0  0
  7 10  2  0  0  0  0
  7 18  1  0  0  0  0
  8 21  1  0  0  0  0
  9 21  2  0  0  0  0
 10 22  1  0  0  0  0
 11 12  2  0  0  0  0
 11 23  1  0  0  0  0
 12 24  1  0  0  0  0
 13 20  1  0  0  0  0
 13 22  2  0  0  0  0
 14 24  2  0  0  0  0
 14 25  1  0  0  0  0
 15 26  1  0  0  0  0
 16 26  1  0  0  0  0
 16 27  2  0  0  0  0
 16 28  1  0  0  0  0
 17 19  2  0  0  0  0
 17 33  1  0  0  0  0
 18 20  2  0  0  0  0
 18 34  1  0  0  0  0
 19 46  1  0  0  0  0
 20 35  1  0  0  0  0
 21 78  1  0  0  0  0
 22 79  1  0  0  0  0
 23 25  2  0  0  0  0
 23 78  1  0  0  0  0
 24 80  1  0  0  0  0
 25 81  1  0  0  0  0
 26 63  2  0  0  0  0
 27 64  1  0  0  0  0
 27 67  1  0  0  0  0
 28 68  1  0  0  0  0
 28 73  2  0  0  0  0
 29 47  1  0  0  0  0
 29 69  1  0  0  0  0
 29 74  2  0  0  0  0
 30 59  1  0  0  0  0
 30 65  1  0  0  0  0
 30 75  2  0  0  0  0
 31 60  1  0  0  0  0
 31 70  1  0  0  0  0
 31 76  2  0  0  0  0
 32 66  1  0  0  0  0
 32 71  1  0  0  0  0
 32 77  2  0  0  0  0
 33 36  1  0  0  0  0
 34 47  1  0  0  0  0
 35 65  1  0  0  0  0
 36 38  1  0  0  0  0
 37 41  1  0  0  0  0
 37 44  1  0  0  0  0
 38 46  1  0  0  0  0
 39 42  1  0  0  0  0
 39 48  1  0  0  0  0
 40 43  1  0  0  0  0
 40 48  1  0  0  0  0
 41 49  1  0  0  0  0
 42 50  1  0  0  0  0
 43 50  1  0  0  0  0
 44 66  1  0  0  0  0
 45 49  1  0  0  0  0
 45 66  1  0  0  0  0
 46 69  1  0  0  0  0
 47 65  1  0  0  0  0
 48 61  1  0  0  0  0
 49 64  1  0  0  0  0
 50 79  1  0  0  0  0
 51 60  1  0  0  0  0
 52 61  1  0  0  0  0
 53 62  1  0  0  0  0
 54 62  1  0  0  0  0
 55 62  1  0  0  0  0
 56 72  1  0  0  0  0
 57 58  1  0  0  0  0
 57 61  1  0  0  0  0
 58 71  1  0  0  0  0
 59 62  1  0  0  0  0
 59 70  1  0  0  0  0
 60 72  1  0  0  0  0
 63 64  1  0  0  0  0
M  CHG  1  72   1
M  ISO  4  32 100  50 101  71 100  79 101
M  END
> <Batch ID>
0107

> <Smiles>
CNC(C)C(=O)NC(C(=O)N1Cc2cc([101O:1][101CH:1]3CCC(C(C)CC[100NH:0][100C:0](=O)N4CCCC(n5nc(-c6ccc(Oc7ccc(F)cc7F)cc6)c(C(N)=O)c5N)C4)CC3)ccc2CC1C(=O)NC1CCCc2ccccc21)C(C)(C)C

> <Shape>
0.219

> <Color>
0.046

> <Negative vol penalty>
0.000

$$$$

  -OEChem-04052319513D

 84 92  0     1  0  0  0  0  0999 V2000
  -20.6277  -21.6783   21.2686 C   0  0  0  0  0  0  0  0  0  0  0  0
  -21.7179  -22.3830   20.7682 C   0  0  0  0  0  0  0  0  0  0  0  0
  -23.0037  -17.3862   24.9994 C   0  0  0  0  0  0  0  0  0  0  0  0
  -22.8813  -19.1422   23.3446 C   0  0  0  0  0  0  0  0  0  0  0  0
  -19.5009  -22.3661   21.7171 C   0  0  0  0  0  0  0  0  0  0  0  0
  -21.6814  -23.7760   20.7150 C   0  0  0  0  0  0  0  0  0  0  0  0
  -25.9772  -25.8960   22.3569 C   0  0  0  0  0  0  0  0  0  0  0  0
  -22.1553  -18.1136   25.8341 C   0  0  0  0  0  0  0  0  0  0  0  0
  -22.0329  -19.8696   24.1792 C   0  0  0  0  0  0  0  0  0  0  0  0
  -27.0617  -25.8982   21.4807 C   0  0  0  0  0  0  0  0  0  0  0  0
  -20.1233  -22.3519   26.0235 C   0  0  0  0  0  0  0  0  0  0  0  0
  -20.3753  -23.7154   26.1748 C   0  0  0  0  0  0  0  0  0  0  0  0
  -26.5842  -28.1916   20.9050 C   0  0  0  0  0  0  0  0  0  0  0  0
  -22.5671  -23.2124   27.0581 C   0  0  0  0  0  0  0  0  0  0  0  0
  -23.3668  -17.9005   23.7546 C   0  0  0  0  0  0  0  0  0  0  0  0
  -23.8724  -16.2050   21.9169 C   0  0  0  0  0  0  0  0  0  0  0  0
  -19.4544  -23.7686   21.6784 C   0  0  0  0  0  0  0  0  0  0  0  0
  -25.1802  -27.0401   22.5059 C   0  0  0  0  0  0  0  0  0  0  0  0
  -20.5523  -24.4831   21.1622 C   0  0  0  0  0  0  0  0  0  0  0  0
  -25.4918  -28.2022   21.7857 C   0  0  0  0  0  0  0  0  0  0  0  0
  -21.6699  -19.3553   25.4240 C   0  0  0  0  0  0  0  0  0  0  0  0
  -27.3635  -27.0452   20.7524 C   0  0  0  0  0  0  0  0  0  0  0  0
  -21.0932  -21.4186   26.3896 C   0  0  0  0  0  0  0  0  0  0  0  0
  -21.5971  -24.1457   26.6921 C   0  0  0  0  0  0  0  0  0  0  0  0
  -22.3151  -21.8488   26.9068 C   0  0  0  0  0  0  0  0  0  0  0  0
  -24.2436  -17.1498   22.8922 C   0  0  0  0  0  0  0  0  0  0  0  0
  -31.5136  -21.0799   17.6788 C   0  0  0  0  0  0  0  0  0  0  0  0
  -30.3134  -21.6781   17.3567 C   0  0  0  0  0  0  0  0  0  0  0  0
  -25.0628  -15.7816   21.3783 C   0  0  0  0  0  0  0  0  0  0  0  0
  -30.2303  -20.0436   19.1241 C   0  0  0  0  0  0  0  0  0  0  0  0
  -22.5680  -15.7508   21.5320 C   0  0  0  0  0  0  0  0  0  0  0  0
  -22.1209  -27.7263   21.9832 C   0  0  0  0  0  0  0  0  0  0  0  0
  -22.9197  -30.5471   23.3715 C   0  0  0  0  0  0  0  0  0  0  0  0
  -25.3566  -32.8069   24.1471 C   0  0  0  0  0  0  0  0  0  0  0  0
  -30.4633  -18.2986   20.9261 C   0  0  0  0  0  0  0  0  0  0  0  0
  -18.1958  -24.4659   22.1305 C   0  0  0  0  0  0  0  0  0  0  0  0
  -24.0301  -27.0300   23.4752 C   0  0  0  0  0  0  0  0  0  0  0  0
  -24.6796  -29.4629   21.9248 C   0  0  0  0  0  0  0  0  0  0  0  0
  -18.3855  -25.9586   22.3879 C   0  0  0  0  0  0  0  0  0  0  0  0
  -29.6828  -15.2003   22.4971 C   0  0  0  0  0  0  0  0  0  0  0  0
  -19.1589  -26.6038   21.2424 C   0  0  0  0  0  0  0  0  0  0  0  0
  -28.1648  -15.2600   22.6824 C   0  0  0  0  0  0  0  0  0  0  0  0
  -30.3336  -16.5669   22.7035 C   0  0  0  0  0  0  0  0  0  0  0  0
  -28.2430  -17.7146   22.0858 C   0  0  0  0  0  0  0  0  0  0  0  0
  -20.5604  -25.9955   21.1113 C   0  0  1  0  0  0  0  0  0  0  0  0
  -22.9769  -28.0888   23.1637 C   0  0  1  0  0  0  0  0  0  0  0  0
  -27.5357  -16.3748   21.8240 C   0  0  2  0  0  0  0  0  0  0  0  0
  -32.8191  -21.3523   17.0437 C   0  0  0  0  0  0  0  0  0  0  0  0
  -28.9597  -22.2605   15.3021 C   0  0  0  0  0  0  0  0  0  0  0  0
  -25.6984  -35.0340   25.2520 C   0  0  0  0  0  0  0  0  0  0  0  0
  -29.6286  -27.0043   17.2291 C   0  0  0  0  0  0  0  0  0  0  0  0
  -21.7611  -31.9401   20.9165 C   0  0  0  0  0  0  0  0  0  0  0  0
  -22.9605  -34.0227   21.6184 C   0  0  0  0  0  0  0  0  0  0  0  0
  -21.2090  -33.0362   23.0955 C   0  0  0  0  0  0  0  0  0  0  0  0
  -27.1554  -31.6470   26.1911 C   0  0  0  0  0  0  0  0  0  0  0  0
  -30.4981  -24.6818   17.7948 C   0  0  0  0  0  0  0  0  0  0  0  0
  -28.7653  -25.8083   19.2823 C   0  0  0  0  0  0  0  0  0  1  0  0
  -29.9973  -22.7301   16.3187 C   0  0  1  0  0  0  0  0  0  0  0  0
  -23.4429  -31.8730   22.8743 C   0  0  1  0  0  0  0  0  0  0  0  0
  -25.6888  -33.5252   25.4425 C   0  0  2  0  0  0  0  0  0  0  0  0
  -29.9632  -26.0087   18.3455 C   0  0  2  0  0  0  0  0  0  0  0  0
  -22.3577  -32.6938   22.1219 C   0  0  0  0  0  0  0  0  0  0  0  0
  -25.5664  -17.3169   22.9710 N   0  0  0  0  0  0  0  0  0  0  0  0
  -31.4680  -20.1427   18.6924 N   0  0  0  0  0  0  0  0  0  0  0  0
  -26.0368  -16.4714   22.0384 N   0  0  0  0  0  0  0  0  0  0  0  0
  -23.5613  -29.4012   22.8803 N   0  0  0  0  0  0  0  0  0  0  0  0
  -29.6891  -17.5717   21.8551 N   0  0  0  0  0  0  0  0  0  0  0  0
  -25.3610  -14.8902   20.4093 N   0  0  0  0  0  0  0  0  0  0  0  0
  -21.4525  -16.2897   22.1874 N   0  0  0  0  0  0  0  0  0  0  0  0
  -29.7365  -19.2027   20.1521 N   0  0  0  0  0  0  0  0  0  0  0  0
  -21.4411  -26.5318   22.1268 N   0  0  0  0  0  0  0  0  0  0  0  0
  -24.0062  -32.5513   24.0367 N   0  0  0  0  0  0  0  0  0  0  0  0
  -27.0302  -33.1056   25.9382 N   0  3  0  0  0  0  0  0  0  0  0  0
  -29.5127  -24.0031   16.9199 N   0  3  0  0  0  0  0  0  0  0  0  0
  -22.3976  -14.8805   20.6449 O   0  0  0  0  0  0  0  0  0  0  0  0
  -22.0790  -28.4756   21.0144 O   0  0  0  0  0  0  0  0  0  0  0  0
  -21.9812  -30.5289   24.1718 O   0  0  0  0  0  0  0  0  0  0  0  0
  -26.2093  -32.5062   23.3146 O   0  0  0  0  0  0  0  0  0  0  0  0
  -31.6768  -18.1121   20.8058 O   0  0  0  0  0  0  0  0  0  0  0  0
  -20.8418  -20.0652   26.2381 O   0  0  0  0  0  0  0  0  0  0  0  0
  -28.4210  -27.0498   19.8959 O   0  0  0  0  0  0  0  0  0  1  0  0
  -21.8396  -25.4551   26.8358 F   0  0  0  0  0  0  0  0  0  0  0  0
  -23.2511  -20.9569   27.2591 F   0  0  0  0  0  0  0  0  0  0  0  0
  -29.0701  -21.0477   18.3557 S   0  0  0  0  0  0  0  0  0  0  0  0
  1  2  1  0  0  0  0
  1  5  2  0  0  0  0
  2  6  2  0  0  0  0
  3  8  2  0  0  0  0
  3 15  1  0  0  0  0
  4  9  1  0  0  0  0
  4 15  2  0  0  0  0
  5 17  1  0  0  0  0
  6 19  1  0  0  0  0
  7 10  2  0  0  0  0
  7 18  1  0  0  0  0
  8 21  1  0  0  0  0
  9 21  2  0  0  0  0
 10 22  1  0  0  0  0
 11 12  2  0  0  0  0
 11 23  1  0  0  0  0
 12 24  1  0  0  0  0
 13 20  1  0  0  0  0
 13 22  2  0  0  0  0
 14 24  2  0  0  0  0
 14 25  1  0  0  0  0
 15 26  1  0  0  0  0
 16 26  1  0  0  0  0
 16 29  2  0  0  0  0
 16 31  1  0  0  0  0
 17 19  2  0  0  0  0
 17 36  1  0  0  0  0
 18 20  2  0  0  0  0
 18 37  1  0  0  0  0
 19 45  1  0  0  0  0
 20 38  1  0  0  0  0
 21 80  1  0  0  0  0
 22 81  1  0  0  0  0
 23 25  2  0  0  0  0
 23 80  1  0  0  0  0
 24 82  1  0  0  0  0
 25 83  1  0  0  0  0
 26 63  2  0  0  0  0
 27 28  2  0  0  0  0
 27 48  1  0  0  0  0
 27 64  1  0  0  0  0
 28 58  1  0  0  0  0
 28 84  1  0  0  0  0
 29 65  1  0  0  0  0
 29 68  1  0  0  0  0
 30 64  2  0  0  0  0
 30 70  1  0  0  0  0
 30 84  1  0  0  0  0
 31 69  1  0  0  0  0
 31 75  2  0  0  0  0
 32 46  1  0  0  0  0
 32 71  1  0  0  0  0
 32 76  2  0  0  0  0
 33 59  1  0  0  0  0
 33 66  1  0  0  0  0
 33 77  2  0  0  0  0
 34 60  1  0  0  0  0
 34 72  1  0  0  0  0
 34 78  2  0  0  0  0
 35 67  1  0  0  0  0
 35 70  1  0  0  0  0
 35 79  2  0  0  0  0
 36 39  1  0  0  0  0
 37 46  1  0  0  0  0
 38 66  1  0  0  0  0
 39 41  1  0  0  0  0
 40 42  1  0  0  0  0
 40 43  1  0  0  0  0
 41 45  1  0  0  0  0
 42 47  1  0  0  0  0
 43 67  1  0  0  0  0
 44 47  1  0  0  0  0
 44 67  1  0  0  0  0
 45 71  1  0  0  0  0
 46 66  1  0  0  0  0
 47 65  1  0  0  0  0
 49 58  1  0  0  0  0
 50 60  1  0  0  0  0
 51 61  1  0  0  0  0
 52 62  1  0  0  0  0
 53 62  1  0  0  0  0
 54 62  1  0  0  0  0
 55 73  1  0  0  0  0
 56 61  1  0  0  0  0
 56 74  1  0  0  0  0
 57 61  1  0  0  0  0
 57 81  1  0  0  0  0
 58 74  1  0  0  0  0
 59 62  1  0  0  0  0
 59 72  1  0  0  0  0
 60 73  1  0  0  0  0
 63 65  1  0  0  0  0
M  CHG  2  73   1  74   1
M  ISO  4  35 100  57 101  70 100  81 101
M  END
> <Batch ID>
0107

> <Smiles>
CNC(C)C(=O)NC(C(=O)N1Cc2cc([101O:1][101CH2:1]C(C)CNC(C)c3sc([100NH:0][100C:0](=O)N4CCCC(n5nc(-c6ccc(Oc7ccc(F)cc7F)cc6)c(C(N)=O)c5N)C4)nc3C)ccc2CC1C(=O)NC1CCCc2ccccc21)C(C)(C)C

> <Shape>
0.196

> <Color>
0.069

> <Negative vol penalty>
0.000

$$$$

  -OEChem-04052319513D

 84 92  0     1  0  0  0  0  0999 V2000
  -33.8880  -26.8054   17.3395 C   0  0  0  0  0  0  0  0  0  0  0  0
  -32.6073  -26.3902   16.9890 C   0  0  0  0  0  0  0  0  0  0  0  0
  -29.4591  -18.5146   21.2272 C   0  0  0  0  0  0  0  0  0  0  0  0
  -28.0855  -17.8106   19.3685 C   0  0  0  0  0  0  0  0  0  0  0  0
  -34.2039  -27.0325   18.6784 C   0  0  0  0  0  0  0  0  0  0  0  0
  -31.6420  -26.2008   17.9773 C   0  0  0  0  0  0  0  0  0  0  0  0
  -25.6308  -27.2729   17.5058 C   0  0  0  0  0  0  0  0  0  0  0  0
  -30.2328  -17.3620   21.0920 C   0  0  0  0  0  0  0  0  0  0  0  0
  -28.8593  -16.6579   19.2333 C   0  0  0  0  0  0  0  0  0  0  0  0
  -24.5454  -26.4348   17.2544 C   0  0  0  0  0  0  0  0  0  0  0  0
  -29.1338  -13.6494   20.7513 C   0  0  0  0  0  0  0  0  0  0  0  0
  -28.4661  -12.4383   20.5699 C   0  0  0  0  0  0  0  0  0  0  0  0
  -20.3644  -21.9808   16.0333 C   0  0  0  0  0  0  0  0  0  0  0  0
  -24.1428  -26.2548   19.6260 C   0  0  0  0  0  0  0  0  0  0  0  0
  -29.5815  -12.1414   18.4474 C   0  0  0  0  0  0  0  0  0  0  0  0
  -20.4578  -23.3341   16.2725 C   0  0  0  0  0  0  0  0  0  0  0  0
  -28.3854  -18.7389   20.3654 C   0  0  0  0  0  0  0  0  0  0  0  0
  -27.7949  -21.1725   19.8788 C   0  0  0  0  0  0  0  0  0  0  0  0
  -33.2392  -26.8551   19.6827 C   0  0  0  0  0  0  0  0  0  0  0  0
  -25.9876  -27.6001   18.8219 C   0  0  0  0  0  0  0  0  0  0  0  0
  -31.9457  -26.4245   19.3310 C   0  0  0  0  0  0  0  0  0  0  0  0
  -25.2316  -27.0993   19.8914 C   0  0  0  0  0  0  0  0  0  0  0  0
  -20.1532  -21.3443   17.2813 C   0  0  0  0  0  0  0  0  0  0  0  0
  -29.9330  -16.4336   20.0951 C   0  0  0  0  0  0  0  0  0  0  0  0
  -23.8030  -25.9232   18.3147 C   0  0  0  0  0  0  0  0  0  0  0  0
  -30.0252  -14.1066   19.7808 C   0  0  0  0  0  0  0  0  0  0  0  0
  -28.6900  -11.6842   19.4179 C   0  0  0  0  0  0  0  0  0  0  0  0
  -30.2491  -13.3526   18.6288 C   0  0  0  0  0  0  0  0  0  0  0  0
  -27.5854  -19.9292   20.5049 C   0  0  0  0  0  0  0  0  0  0  0  0
  -20.1239  -22.3280   18.2450 C   0  0  0  0  0  0  0  0  0  0  0  0
  -26.7696  -21.9641   20.3356 C   0  0  0  0  0  0  0  0  0  0  0  0
  -28.8243  -21.5758   18.9659 C   0  0  0  0  0  0  0  0  0  0  0  0
  -28.5605  -27.1359   20.6299 C   0  0  0  0  0  0  0  0  0  0  0  0
  -26.9447  -29.0096   22.7277 C   0  0  0  0  0  0  0  0  0  0  0  0
  -23.9451  -30.2194   23.8167 C   0  0  0  0  0  0  0  0  0  0  0  0
  -21.1723  -21.6373   21.7770 C   0  0  0  0  0  0  0  0  0  0  0  0
  -33.6410  -27.0673   21.1208 C   0  0  0  0  0  0  0  0  0  0  0  0
  -27.1448  -28.5270   19.0753 C   0  0  0  0  0  0  0  0  0  0  0  0
  -25.5609  -27.4366   21.3219 C   0  0  0  0  0  0  0  0  0  0  0  0
  -32.4541  -27.2050   22.0709 C   0  0  0  0  0  0  0  0  0  0  0  0
  -23.7377  -21.8304   24.2384 C   0  0  0  0  0  0  0  0  0  0  0  0
  -31.4212  -26.1167   21.7959 C   0  0  0  0  0  0  0  0  0  0  0  0
  -25.0108  -21.4754   23.4683 C   0  0  0  0  0  0  0  0  0  0  0  0
  -22.5383  -21.0213   23.7495 C   0  0  0  0  0  0  0  0  0  0  0  0
  -23.5656  -20.7394   21.5271 C   0  0  0  0  0  0  0  0  0  0  0  0
  -30.8642  -26.2319   20.3719 C   0  0  1  0  0  0  0  0  0  0  0  0
  -27.7325  -28.3802   20.4754 C   0  0  1  0  0  0  0  0  0  0  0  0
  -24.7906  -21.5700   21.9466 C   0  0  2  0  0  0  0  0  0  0  0  0
  -16.2741  -19.2871   16.4279 C   0  0  0  0  0  0  0  0  0  0  0  0
  -21.2708  -19.1059   17.1099 C   0  0  0  0  0  0  0  0  0  0  0  0
  -22.9398  -31.7009   25.5751 C   0  0  0  0  0  0  0  0  0  0  0  0
  -27.3368  -26.8079   24.8035 C   0  0  0  0  0  0  0  0  0  0  0  0
  -25.5482  -27.8867   26.1837 C   0  0  0  0  0  0  0  0  0  0  0  0
  -27.6495  -29.1310   25.6750 C   0  0  0  0  0  0  0  0  0  0  0  0
  -22.8401  -32.0712   21.7897 C   0  0  0  0  0  0  0  0  0  0  0  0
  -19.9346  -22.2246   19.7076 C   0  0  0  0  0  0  0  0  0  0  0  0
  -17.4444  -19.8917   17.1886 C   0  0  0  0  0  0  0  0  0  0  0  0
  -18.7730  -19.2544   16.7678 C   0  0  0  0  0  0  0  0  0  0  0  0
  -20.3491  -24.8832   18.2949 C   0  0  0  0  0  0  0  0  0  0  0  0
  -21.6707  -25.1344   19.0126 C   0  0  0  0  0  0  0  0  0  1  0  0
  -19.9948  -19.8929   17.5000 C   0  0  2  0  0  0  0  0  0  0  0  0
  -25.9523  -28.7616   23.8380 C   0  0  1  0  0  0  0  0  0  0  0  0
  -23.4913  -31.6268   24.1598 C   0  0  2  0  0  0  0  0  0  0  0  0
  -26.6164  -28.1387   25.0983 C   0  0  0  0  0  0  0  0  0  0  0  0
  -26.5114  -19.9262   21.2990 N   0  0  0  0  0  0  0  0  0  0  0  0
  -20.3098  -23.5335   17.6203 N   0  0  0  0  0  0  0  0  0  0  0  0
  -26.0370  -21.1775   21.1751 N   0  0  0  0  0  0  0  0  0  0  0  0
  -26.7053  -28.3417   21.5184 N   0  0  0  0  0  0  0  0  0  0  0  0
  -22.3839  -21.1550   22.2989 N   0  0  0  0  0  0  0  0  0  0  0  0
  -26.4323  -23.2493   20.0971 N   0  0  0  0  0  0  0  0  0  0  0  0
  -29.7995  -20.6374   18.6016 N   0  0  0  0  0  0  0  0  0  0  0  0
  -29.8909  -27.3002   20.2947 N   0  0  0  0  0  0  0  0  0  0  0  0
  -25.2858  -30.0362   24.0820 N   0  0  0  0  0  0  0  0  0  0  0  0
  -21.1119  -21.7391   20.3925 N   0  0  0  0  0  0  0  0  0  0  0  0
  -22.4268  -32.0721   23.2167 N   0  3  0  0  0  0  0  0  0  0  0  0
  -28.8871  -22.7388   18.5001 O   0  0  0  0  0  0  0  0  0  0  0  0
  -28.0317  -26.1035   21.0253 O   0  0  0  0  0  0  0  0  0  0  0  0
  -27.8932  -29.7734   22.9239 O   0  0  0  0  0  0  0  0  0  0  0  0
  -23.1854  -29.3667   23.3626 O   0  0  0  0  0  0  0  0  0  0  0  0
  -20.2172  -21.9587   22.4921 O   0  0  0  0  0  0  0  0  0  0  0  0
  -30.6879  -15.3089   19.9628 O   0  0  0  0  0  0  0  0  0  0  0  0
  -22.7435  -25.1044   18.0721 O   0  0  0  0  0  0  0  0  0  1  0  0
  -28.0499  -10.5205   19.2445 F   0  0  0  0  0  0  0  0  0  0  0  0
  -31.1053  -13.7861   17.6935 F   0  0  0  0  0  0  0  0  0  0  0  0
  1  2  1  0  0  0  0
  1  5  2  0  0  0  0
  2  6  2  0  0  0  0
  3  8  2  0  0  0  0
  3 17  1  0  0  0  0
  4  9  1  0  0  0  0
  4 17  2  0  0  0  0
  5 19  1  0  0  0  0
  6 21  1  0  0  0  0
  7 10  2  0  0  0  0
  7 20  1  0  0  0  0
  8 24  1  0  0  0  0
  9 24  2  0  0  0  0
 10 25  1  0  0  0  0
 11 12  2  0  0  0  0
 11 26  1  0  0  0  0
 12 27  1  0  0  0  0
 13 16  2  0  0  0  0
 13 23  1  0  0  0  0
 14 22  1  0  0  0  0
 14 25  2  0  0  0  0
 15 27  2  0  0  0  0
 15 28  1  0  0  0  0
 16 66  1  0  0  0  0
 17 29  1  0  0  0  0
 18 29  1  0  0  0  0
 18 31  2  0  0  0  0
 18 32  1  0  0  0  0
 19 21  2  0  0  0  0
 19 37  1  0  0  0  0
 20 22  2  0  0  0  0
 20 38  1  0  0  0  0
 21 46  1  0  0  0  0
 22 39  1  0  0  0  0
 23 30  2  0  0  0  0
 23 61  1  0  0  0  0
 24 81  1  0  0  0  0
 25 82  1  0  0  0  0
 26 28  2  0  0  0  0
 26 81  1  0  0  0  0
 27 83  1  0  0  0  0
 28 84  1  0  0  0  0
 29 65  2  0  0  0  0
 30 56  1  0  0  0  0
 30 66  1  0  0  0  0
 31 67  1  0  0  0  0
 31 70  1  0  0  0  0
 32 71  1  0  0  0  0
 32 76  2  0  0  0  0
 33 47  1  0  0  0  0
 33 72  1  0  0  0  0
 33 77  2  0  0  0  0
 34 62  1  0  0  0  0
 34 68  1  0  0  0  0
 34 78  2  0  0  0  0
 35 63  1  0  0  0  0
 35 73  1  0  0  0  0
 35 79  2  0  0  0  0
 36 69  1  0  0  0  0
 36 74  1  0  0  0  0
 36 80  2  0  0  0  0
 37 40  1  0  0  0  0
 38 47  1  0  0  0  0
 39 68  1  0  0  0  0
 40 42  1  0  0  0  0
 41 43  1  0  0  0  0
 41 44  1  0  0  0  0
 42 46  1  0  0  0  0
 43 48  1  0  0  0  0
 44 69  1  0  0  0  0
 45 48  1  0  0  0  0
 45 69  1  0  0  0  0
 46 72  1  0  0  0  0
 47 68  1  0  0  0  0
 48 67  1  0  0  0  0
 49 57  1  0  0  0  0
 50 61  1  0  0  0  0
 51 63  1  0  0  0  0
 52 64  1  0  0  0  0
 53 64  1  0  0  0  0
 54 64  1  0  0  0  0
 55 75  1  0  0  0  0
 56 74  1  0  0  0  0
 57 58  1  0  0  0  0
 58 61  1  0  0  0  0
 59 60  1  0  0  0  0
 59 66  1  0  0  0  0
 60 82  1  0  0  0  0
 62 64  1  0  0  0  0
 62 73  1  0  0  0  0
 63 75  1  0  0  0  0
 65 67  1  0  0  0  0
M  CHG  1  75   1
M  ISO  4  36 100  60 101  74 100  82 101
M  END
> <Batch ID>
0107

> <Smiles>
CCCC(C)c1ccn(C[101CH2:1][101O:1]c2ccc3c(c2)CN(C(=O)C(NC(=O)C(C)NC)C(C)(C)C)C(C(=O)NC2CCCc4ccccc42)C3)c1C[100NH:0][100C:0](=O)N1CCCC(n2nc(-c3ccc(Oc4ccc(F)cc4F)cc3)c(C(N)=O)c2N)C1

> <Shape>
0.192

> <Color>
0.069

> <Negative vol penalty>
0.000

$$$$

  -OEChem-04052319513D

 80 87  0     1  0  0  0  0  0999 V2000
  -32.5182  -28.0823   14.8234 C   0  0  0  0  0  0  0  0  0  0  0  0
  -32.0991  -27.3464   15.9272 C   0  0  0  0  0  0  0  0  0  0  0  0
  -22.1340  -10.3656   20.4390 C   0  0  0  0  0  0  0  0  0  0  0  0
  -23.7318   -9.9358   22.1995 C   0  0  0  0  0  0  0  0  0  0  0  0
  -32.3680  -29.4684   14.8134 C   0  0  0  0  0  0  0  0  0  0  0  0
  -31.5306  -27.9964   17.0221 C   0  0  0  0  0  0  0  0  0  0  0  0
  -27.3826  -25.6503   18.7352 C   0  0  0  0  0  0  0  0  0  0  0  0
  -21.8117   -9.0091   20.4004 C   0  0  0  0  0  0  0  0  0  0  0  0
  -23.4095   -8.5792   22.1609 C   0  0  0  0  0  0  0  0  0  0  0  0
  -27.5722  -24.5125   19.5182 C   0  0  0  0  0  0  0  0  0  0  0  0
  -22.7477   -5.0575   22.7753 C   0  0  0  0  0  0  0  0  0  0  0  0
  -22.5532   -4.4015   23.9908 C   0  0  0  0  0  0  0  0  0  0  0  0
  -27.2005  -25.8265   21.5068 C   0  0  0  0  0  0  0  0  0  0  0  0
  -20.7455   -5.9151   24.5185 C   0  0  0  0  0  0  0  0  0  0  0  0
  -23.0941  -10.8290   21.3386 C   0  0  0  0  0  0  0  0  0  0  0  0
  -22.8241  -13.2256   22.1699 C   0  0  0  0  0  0  0  0  0  0  0  0
  -31.7886  -30.1347   15.9047 C   0  0  0  0  0  0  0  0  0  0  0  0
  -27.1108  -26.8891   19.3337 C   0  0  0  0  0  0  0  0  0  0  0  0
  -31.3738  -29.3928   17.0272 C   0  0  0  0  0  0  0  0  0  0  0  0
  -27.0053  -26.9780   20.7290 C   0  0  0  0  0  0  0  0  0  0  0  0
  -22.4494   -8.1159   21.2613 C   0  0  0  0  0  0  0  0  0  0  0  0
  -27.4840  -24.6010   20.9044 C   0  0  0  0  0  0  0  0  0  0  0  0
  -21.9412   -6.1424   22.4314 C   0  0  0  0  0  0  0  0  0  0  0  0
  -21.5521   -4.8303   24.8624 C   0  0  0  0  0  0  0  0  0  0  0  0
  -20.9401   -6.5712   23.3030 C   0  0  0  0  0  0  0  0  0  0  0  0
  -23.4279  -12.2301   21.3786 C   0  0  0  0  0  0  0  0  0  0  0  0
  -23.4956  -14.3783   21.8431 C   0  0  0  0  0  0  0  0  0  0  0  0
  -21.7521  -13.1179   23.1160 C   0  0  0  0  0  0  0  0  0  0  0  0
  -28.5786  -29.7071   19.4232 C   0  0  0  0  0  0  0  0  0  0  0  0
  -25.8802  -30.6254   20.9716 C   0  0  0  0  0  0  0  0  0  0  0  0
  -23.1724  -29.7369   22.8492 C   0  0  0  0  0  0  0  0  0  0  0  0
  -28.2482  -17.1170   20.8146 C   0  0  0  0  0  0  0  0  0  0  0  0
  -31.6904  -31.6392   15.8678 C   0  0  0  0  0  0  0  0  0  0  0  0
  -26.8824  -28.1017   18.4736 C   0  0  0  0  0  0  0  0  0  0  0  0
  -26.6957  -28.2803   21.4195 C   0  0  0  0  0  0  0  0  0  0  0  0
  -30.7357  -32.2131   16.9116 C   0  0  0  0  0  0  0  0  0  0  0  0
  -26.7718  -15.3339   18.1095 C   0  0  0  0  0  0  0  0  0  0  0  0
  -30.9839  -31.5706   18.2726 C   0  0  0  0  0  0  0  0  0  0  0  0
  -25.7254  -14.4456   18.7847 C   0  0  0  0  0  0  0  0  0  0  0  0
  -28.0261  -15.4807   18.9680 C   0  0  0  0  0  0  0  0  0  0  0  0
  -26.7354  -15.0519   21.0232 C   0  0  0  0  0  0  0  0  0  0  0  0
  -30.7299  -30.0591   18.2237 C   0  0  1  0  0  0  0  0  0  0  0  0
  -27.1197  -29.4136   19.2154 C   0  0  1  0  0  0  0  0  0  0  0  0
  -25.4299  -14.9194   20.2205 C   0  0  2  0  0  0  0  0  0  0  0  0
  -21.1647  -30.7124   23.9960 C   0  0  0  0  0  0  0  0  0  0  0  0
  -25.8741  -19.3926   24.4372 C   0  0  0  0  0  0  0  0  0  0  0  0
  -25.1352  -20.9085   22.5856 C   0  0  0  0  0  0  0  0  0  0  0  0
  -29.9976  -22.5905   23.2274 C   0  0  0  0  0  0  0  0  0  0  0  0
  -27.6706  -31.6742   23.2087 C   0  0  0  0  0  0  0  0  0  0  0  0
  -25.6545  -31.7520   24.6911 C   0  0  0  0  0  0  0  0  0  0  0  0
  -25.7422  -33.1589   22.6331 C   0  0  0  0  0  0  0  0  0  0  0  0
  -21.3076  -28.1465   21.1902 C   0  0  0  0  0  0  0  0  0  0  0  0
  -28.3555  -18.6728   22.7452 C   0  0  0  0  0  0  0  0  0  0  0  0
  -28.5468  -22.4890   21.1611 C   0  0  0  0  0  0  0  0  0  1  0  0
  -25.4338  -30.6592   22.4133 C   0  0  1  0  0  0  0  0  0  0  0  0
  -21.6998  -30.0820   22.7196 C   0  0  2  0  0  0  0  0  0  0  0  0
  -26.0114  -19.7025   22.9434 C   0  0  0  0  0  0  0  0  0  0  0  0
  -29.1793  -21.7028   22.3039 C   0  0  2  0  0  0  0  0  0  0  0  0
  -27.4700  -19.8886   22.4645 C   0  0  1  0  0  0  0  0  0  0  0  0
  -26.1330  -31.7868   23.2239 C   0  0  0  0  0  0  0  0  0  0  0  0
  -24.4076  -12.7085   20.6070 N   0  0  0  0  0  0  0  0  0  0  0  0
  -24.4244  -14.0173   20.9118 N   0  0  0  0  0  0  0  0  0  0  0  0
  -26.4868  -29.4389   20.5356 N   0  0  0  0  0  0  0  0  0  0  0  0
  -27.6769  -15.9344   20.3164 N   0  0  0  0  0  0  0  0  0  0  0  0
  -23.3762  -15.6553   22.2642 N   0  0  0  0  0  0  0  0  0  0  0  0
  -21.1750  -11.8590   23.3314 N   0  0  0  0  0  0  0  0  0  0  0  0
  -29.3093  -29.7842   18.2529 N   0  0  0  0  0  0  0  0  0  0  0  0
  -23.9783  -30.7562   22.3878 N   0  0  0  0  0  0  0  0  0  0  0  0
  -27.8587  -17.4788   22.0984 N   0  0  0  0  0  0  0  0  0  0  0  0
  -20.9038  -28.8554   22.4318 N   0  3  0  0  0  0  0  0  0  0  0  0
  -28.0898  -21.0755   23.1067 N   0  3  0  0  0  0  0  0  0  0  0  0
  -21.3079  -14.1116   23.7394 O   0  0  0  0  0  0  0  0  0  0  0  0
  -29.0091  -29.8543   20.5611 O   0  0  0  0  0  0  0  0  0  0  0  0
  -25.6910  -31.6127   20.2567 O   0  0  0  0  0  0  0  0  0  0  0  0
  -23.5683  -28.6714   23.3166 O   0  0  0  0  0  0  0  0  0  0  0  0
  -29.0421  -17.8026   20.1615 O   0  0  0  0  0  0  0  0  0  0  0  0
  -22.1350   -6.7921   21.2240 O   0  0  0  0  0  0  0  0  0  0  0  0
  -27.6693  -23.4921   21.6711 O   0  0  0  0  0  0  0  0  0  1  0  0
  -21.3645   -4.1992   26.0289 F   0  0  0  0  0  0  0  0  0  0  0  0
  -20.1613   -7.6120   22.9776 F   0  0  0  0  0  0  0  0  0  0  0  0
  1  2  1  0  0  0  0
  1  5  2  0  0  0  0
  2  6  2  0  0  0  0
  3  8  2  0  0  0  0
  3 15  1  0  0  0  0
  4  9  1  0  0  0  0
  4 15  2  0  0  0  0
  5 17  1  0  0  0  0
  6 19  1  0  0  0  0
  7 10  2  0  0  0  0
  7 18  1  0  0  0  0
  8 21  1  0  0  0  0
  9 21  2  0  0  0  0
 10 22  1  0  0  0  0
 11 12  2  0  0  0  0
 11 23  1  0  0  0  0
 12 24  1  0  0  0  0
 13 20  1  0  0  0  0
 13 22  2  0  0  0  0
 14 24  2  0  0  0  0
 14 25  1  0  0  0  0
 15 26  1  0  0  0  0
 16 26  1  0  0  0  0
 16 27  2  0  0  0  0
 16 28  1  0  0  0  0
 17 19  2  0  0  0  0
 17 33  1  0  0  0  0
 18 20  2  0  0  0  0
 18 34  1  0  0  0  0
 19 42  1  0  0  0  0
 20 35  1  0  0  0  0
 21 77  1  0  0  0  0
 22 78  1  0  0  0  0
 23 25  2  0  0  0  0
 23 77  1  0  0  0  0
 24 79  1  0  0  0  0
 25 80  1  0  0  0  0
 26 61  2  0  0  0  0
 27 62  1  0  0  0  0
 27 65  1  0  0  0  0
 28 66  1  0  0  0  0
 28 72  2  0  0  0  0
 29 43  1  0  0  0  0
 29 67  1  0  0  0  0
 29 73  2  0  0  0  0
 30 55  1  0  0  0  0
 30 63  1  0  0  0  0
 30 74  2  0  0  0  0
 31 56  1  0  0  0  0
 31 68  1  0  0  0  0
 31 75  2  0  0  0  0
 32 64  1  0  0  0  0
 32 69  1  0  0  0  0
 32 76  2  0  0  0  0
 33 36  1  0  0  0  0
 34 43  1  0  0  0  0
 35 63  1  0  0  0  0
 36 38  1  0  0  0  0
 37 39  1  0  0  0  0
 37 40  1  0  0  0  0
 38 42  1  0  0  0  0
 39 44  1  0  0  0  0
 40 64  1  0  0  0  0
 41 44  1  0  0  0  0
 41 64  1  0  0  0  0
 42 67  1  0  0  0  0
 43 63  1  0  0  0  0
 44 62  1  0  0  0  0
 45 56  1  0  0  0  0
 46 57  1  0  0  0  0
 47 57  1  0  0  0  0
 48 58  1  0  0  0  0
 49 60  1  0  0  0  0
 50 60  1  0  0  0  0
 51 60  1  0  0  0  0
 52 70  1  0  0  0  0
 53 59  1  0  0  0  0
 53 69  1  0  0  0  0
 54 58  1  0  0  0  0
 54 78  1  0  0  0  0
 55 60  1  0  0  0  0
 55 68  1  0  0  0  0
 56 70  1  0  0  0  0
 57 59  1  0  0  0  0
 58 71  1  0  0  0  0
 59 71  1  0  0  0  0
 61 62  1  0  0  0  0
M  CHG  2  70   1  71   1
M  ISO  4  32 100  54 101  69 100  78 101
M  END
> <Batch ID>
0107

> <Smiles>
CNC(C)C(=O)NC(C(=O)N1Cc2cc([101O:1][101CH2:1]C(C)NC(C[100NH:0][100C:0](=O)N3CCCC(n4nc(-c5ccc(Oc6ccc(F)cc6F)cc5)c(C(N)=O)c4N)C3)C(C)C)ccc2CC1C(=O)NC1CCCc2ccccc21)C(C)(C)C

> <Shape>
0.257

> <Color>
0.094

> <Negative vol penalty>
0.000

$$$$

  -OEChem-04052319513D

 81 89  0     1  0  0  0  0  0999 V2000
  -26.3448  -36.5474   15.8328 C   0  0  0  0  0  0  0  0  0  0  0  0
  -25.7900  -35.2741   15.7526 C   0  0  0  0  0  0  0  0  0  0  0  0
  -26.4528  -12.4584   21.7520 C   0  0  0  0  0  0  0  0  0  0  0  0
  -25.8007  -13.7797   19.8372 C   0  0  0  0  0  0  0  0  0  0  0  0
  -27.1297  -36.8966   16.9309 C   0  0  0  0  0  0  0  0  0  0  0  0
  -26.0208  -34.3489   16.7701 C   0  0  0  0  0  0  0  0  0  0  0  0
  -22.1304  -30.0882   18.8237 C   0  0  0  0  0  0  0  0  0  0  0  0
  -25.2300  -11.7888   21.7063 C   0  0  0  0  0  0  0  0  0  0  0  0
  -24.5780  -13.1100   19.7915 C   0  0  0  0  0  0  0  0  0  0  0  0
  -22.0040  -28.7260   18.5552 C   0  0  0  0  0  0  0  0  0  0  0  0
  -23.8188   -9.3000   19.9042 C   0  0  0  0  0  0  0  0  0  0  0  0
  -23.8344   -7.9120   20.0412 C   0  0  0  0  0  0  0  0  0  0  0  0
  -23.3073  -28.2236   20.5220 C   0  0  0  0  0  0  0  0  0  0  0  0
  -22.4416   -8.0904   22.0072 C   0  0  0  0  0  0  0  0  0  0  0  0
  -26.7381  -13.4539   20.8175 C   0  0  0  0  0  0  0  0  0  0  0  0
  -29.1932  -13.7855   20.2091 C   0  0  0  0  0  0  0  0  0  0  0  0
  -27.3622  -35.9785   17.9671 C   0  0  0  0  0  0  0  0  0  0  0  0
  -22.8566  -30.5295   19.9392 C   0  0  0  0  0  0  0  0  0  0  0  0
  -26.8106  -34.6858   17.8825 C   0  0  0  0  0  0  0  0  0  0  0  0
  -23.4392  -29.5919   20.8039 C   0  0  0  0  0  0  0  0  0  0  0  0
  -24.2927  -12.1145   20.7261 C   0  0  0  0  0  0  0  0  0  0  0  0
  -22.5949  -27.7935   19.4028 C   0  0  0  0  0  0  0  0  0  0  0  0
  -23.1147  -10.0833   20.8188 C   0  0  0  0  0  0  0  0  0  0  0  0
  -23.1458   -7.3072   21.0926 C   0  0  0  0  0  0  0  0  0  0  0  0
  -22.4260   -9.4784   21.8703 C   0  0  0  0  0  0  0  0  0  0  0  0
  -28.0008  -14.1464   20.8645 C   0  0  0  0  0  0  0  0  0  0  0  0
  -30.0927  -14.7577   20.5726 C   0  0  0  0  0  0  0  0  0  0  0  0
  -29.4636  -12.6710   19.3486 C   0  0  0  0  0  0  0  0  0  0  0  0
  -25.4606  -32.3025   20.3624 C   0  0  0  0  0  0  0  0  0  0  0  0
  -24.6763  -32.0102   23.4964 C   0  0  0  0  0  0  0  0  0  0  0  0
  -23.0661  -30.2360   25.9267 C   0  0  0  0  0  0  0  0  0  0  0  0
  -29.4572  -20.4334   22.3710 C   0  0  0  0  0  0  0  0  0  0  0  0
  -28.2563  -36.3861   19.1112 C   0  0  0  0  0  0  0  0  0  0  0  0
  -22.9611  -32.0016   20.2298 C   0  0  0  0  0  0  0  0  0  0  0  0
  -24.2122  -30.0133   22.0259 C   0  0  0  0  0  0  0  0  0  0  0  0
  -28.1439  -35.4711   20.3279 C   0  0  0  0  0  0  0  0  0  0  0  0
  -31.0845  -17.7998   24.1297 C   0  0  0  0  0  0  0  0  0  0  0  0
  -28.1924  -34.0074   19.9014 C   0  0  0  0  0  0  0  0  0  0  0  0
  -30.5863  -16.5323   23.4332 C   0  0  0  0  0  0  0  0  0  0  0  0
  -26.3525  -21.8334   20.3299 C   0  0  0  0  0  0  0  0  0  0  0  0
  -27.5852  -24.0196   20.1152 C   0  0  0  0  0  0  0  0  0  0  0  0
  -29.9931  -18.8648   24.2119 C   0  0  0  0  0  0  0  0  0  0  0  0
  -28.8644  -17.9385   22.2264 C   0  0  0  0  0  0  0  0  0  0  0  0
  -25.0608  -22.5950   20.5936 C   0  0  0  0  0  0  0  0  0  0  0  0
  -26.2871  -24.7700   20.3802 C   0  0  0  0  0  0  0  0  0  0  0  0
  -27.0177  -33.6626   18.9781 C   0  0  1  0  0  0  0  0  0  0  0  0
  -24.1574  -32.3537   21.1085 C   0  0  1  0  0  0  0  0  0  0  0  0
  -27.5840  -22.6334   20.7702 C   0  0  0  0  0  0  0  0  0  0  0  0
  -29.9463  -16.8563   22.0698 C   0  0  2  0  0  0  0  0  0  0  0  0
  -22.6362  -30.2237   28.3990 C   0  0  0  0  0  0  0  0  0  0  0  0
  -23.6874  -25.1552   17.5218 C   0  0  0  0  0  0  0  0  0  0  0  0
  -27.5115  -30.9923   23.9820 C   0  0  0  0  0  0  0  0  0  0  0  0
  -26.7439  -30.1199   26.1996 C   0  0  0  0  0  0  0  0  0  0  0  0
  -26.6557  -32.5675   25.7258 C   0  0  0  0  0  0  0  0  0  0  0  0
  -20.1417  -30.4690   25.5366 C   0  0  0  0  0  0  0  0  0  0  0  0
  -28.8685  -21.8766   20.4397 C   0  0  0  0  0  0  0  0  0  0  0  0
  -23.8201  -24.6831   20.0325 C   0  0  0  0  0  0  0  0  0  0  0  0
  -25.0032  -31.0254   24.5929 C   0  0  1  0  0  0  0  0  0  0  0  0
  -22.1278  -30.6718   27.0376 C   0  0  2  0  0  0  0  0  0  0  0  0
  -23.6797  -25.7301   18.9323 C   0  0  2  0  0  0  0  0  0  1  0  0
  -26.4657  -31.1681   25.1010 C   0  0  0  0  0  0  0  0  0  0  0  0
  -28.1279  -15.2609   21.5896 N   0  0  0  0  0  0  0  0  0  0  0  0
  -29.4110  -15.6086   21.3921 N   0  0  0  0  0  0  0  0  0  0  0  0
  -24.2915  -31.4640   22.2638 N   0  0  0  0  0  0  0  0  0  0  0  0
  -29.4286  -19.1267   22.8857 N   0  0  0  0  0  0  0  0  0  0  0  0
  -31.3924  -14.9592   20.2682 N   0  0  0  0  0  0  0  0  0  0  0  0
  -28.4264  -11.7676   19.0793 N   0  0  0  0  0  0  0  0  0  0  0  0
  -25.8038  -33.4912   19.7471 N   0  0  0  0  0  0  0  0  0  0  0  0
  -23.9906  -31.2139   25.6261 N   0  0  0  0  0  0  0  0  0  0  0  0
  -28.9070  -20.5934   21.1051 N   0  0  0  0  0  0  0  0  0  0  0  0
  -25.1202  -23.9378   19.9067 N   0  3  0  0  0  0  0  0  0  0  0  0
  -20.7716  -30.0907   26.8278 N   0  3  0  0  0  0  0  0  0  0  0  0
  -30.5961  -12.4728   18.8468 O   0  0  0  0  0  0  0  0  0  0  0  0
  -26.1077  -31.2619   20.3474 O   0  0  0  0  0  0  0  0  0  0  0  0
  -24.7526  -33.2195   23.7273 O   0  0  0  0  0  0  0  0  0  0  0  0
  -22.9892  -29.1366   25.3828 O   0  0  0  0  0  0  0  0  0  0  0  0
  -29.9422  -21.3857   22.9913 O   0  0  0  0  0  0  0  0  0  0  0  0
  -23.0995  -11.4611   20.6810 O   0  0  0  0  0  0  0  0  0  0  0  0
  -22.4736  -26.4633   19.1427 O   0  0  0  0  0  0  0  0  0  1  0  0
  -23.1595   -5.9742   21.2231 F   0  0  0  0  0  0  0  0  0  0  0  0
  -21.7468  -10.2255   22.7513 F   0  0  0  0  0  0  0  0  0  0  0  0
  1  2  1  0  0  0  0
  1  5  2  0  0  0  0
  2  6  2  0  0  0  0
  3  8  2  0  0  0  0
  3 15  1  0  0  0  0
  4  9  1  0  0  0  0
  4 15  2  0  0  0  0
  5 17  1  0  0  0  0
  6 19  1  0  0  0  0
  7 10  2  0  0  0  0
  7 18  1  0  0  0  0
  8 21  1  0  0  0  0
  9 21  2  0  0  0  0
 10 22  1  0  0  0  0
 11 12  2  0  0  0  0
 11 23  1  0  0  0  0
 12 24  1  0  0  0  0
 13 20  1  0  0  0  0
 13 22  2  0  0  0  0
 14 24  2  0  0  0  0
 14 25  1  0  0  0  0
 15 26  1  0  0  0  0
 16 26  1  0  0  0  0
 16 27  2  0  0  0  0
 16 28  1  0  0  0  0
 17 19  2  0  0  0  0
 17 33  1  0  0  0  0
 18 20  2  0  0  0  0
 18 34  1  0  0  0  0
 19 46  1  0  0  0  0
 20 35  1  0  0  0  0
 21 78  1  0  0  0  0
 22 79  1  0  0  0  0
 23 25  2  0  0  0  0
 23 78  1  0  0  0  0
 24 80  1  0  0  0  0
 25 81  1  0  0  0  0
 26 62  2  0  0  0  0
 27 63  1  0  0  0  0
 27 66  1  0  0  0  0
 28 67  1  0  0  0  0
 28 73  2  0  0  0  0
 29 47  1  0  0  0  0
 29 68  1  0  0  0  0
 29 74  2  0  0  0  0
 30 58  1  0  0  0  0
 30 64  1  0  0  0  0
 30 75  2  0  0  0  0
 31 59  1  0  0  0  0
 31 69  1  0  0  0  0
 31 76  2  0  0  0  0
 32 65  1  0  0  0  0
 32 70  1  0  0  0  0
 32 77  2  0  0  0  0
 33 36  1  0  0  0  0
 34 47  1  0  0  0  0
 35 64  1  0  0  0  0
 36 38  1  0  0  0  0
 37 39  1  0  0  0  0
 37 42  1  0  0  0  0
 38 46  1  0  0  0  0
 39 49  1  0  0  0  0
 40 44  1  0  0  0  0
 40 48  1  0  0  0  0
 41 45  1  0  0  0  0
 41 48  1  0  0  0  0
 42 65  1  0  0  0  0
 43 49  1  0  0  0  0
 43 65  1  0  0  0  0
 44 71  1  0  0  0  0
 45 71  1  0  0  0  0
 46 68  1  0  0  0  0
 47 64  1  0  0  0  0
 48 56  1  0  0  0  0
 49 63  1  0  0  0  0
 50 59  1  0  0  0  0
 51 60  1  0  0  0  0
 52 61  1  0  0  0  0
 53 61  1  0  0  0  0
 54 61  1  0  0  0  0
 55 72  1  0  0  0  0
 56 70  1  0  0  0  0
 57 60  1  0  0  0  0
 57 71  1  0  0  0  0
 58 61  1  0  0  0  0
 58 69  1  0  0  0  0
 59 72  1  0  0  0  0
 60 79  1  0  0  0  0
 62 63  1  0  0  0  0
M  CHG  2  71   1  72   1
M  ISO  4  32 100  60 101  70 100  79 101
M  END
> <Batch ID>
0107

> <Smiles>
CNC(C)C(=O)NC(C(=O)N1Cc2cc([101O:1][101CH:1](C)CN3CCC(C[100NH:0][100C:0](=O)N4CCCC(n5nc(-c6ccc(Oc7ccc(F)cc7F)cc6)c(C(N)=O)c5N)C4)CC3)ccc2CC1C(=O)NC1CCCc2ccccc21)C(C)(C)C

> <Shape>
0.249

> <Color>
0.067

> <Negative vol penalty>
0.000

$$$$

  -OEChem-04052319513D

 82 90  0     1  0  0  0  0  0999 V2000
  -28.7694  -16.8160   39.4330 C   0  0  0  0  0  0  0  0  0  0  0  0
  -27.5779  -16.1893   39.0825 C   0  0  0  0  0  0  0  0  0  0  0  0
  -23.1384  -10.1851   22.1012 C   0  0  0  0  0  0  0  0  0  0  0  0
  -23.7833   -9.4689   19.8858 C   0  0  0  0  0  0  0  0  0  0  0  0
  -29.1684  -17.9744   38.7675 C   0  0  0  0  0  0  0  0  0  0  0  0
  -26.7841  -16.7212   38.0670 C   0  0  0  0  0  0  0  0  0  0  0  0
  -24.1577  -13.3900   31.5071 C   0  0  0  0  0  0  0  0  0  0  0  0
  -22.3973   -9.0147   22.2639 C   0  0  0  0  0  0  0  0  0  0  0  0
  -23.0422   -8.2985   20.0485 C   0  0  0  0  0  0  0  0  0  0  0  0
  -23.7654  -12.9594   30.2395 C   0  0  0  0  0  0  0  0  0  0  0  0
  -20.6288   -6.0494   23.4016 C   0  0  0  0  0  0  0  0  0  0  0  0
  -20.7521   -5.3667   24.6116 C   0  0  0  0  0  0  0  0  0  0  0  0
  -23.7604  -15.2460   29.4525 C   0  0  0  0  0  0  0  0  0  0  0  0
  -23.1183   -5.0860   24.2122 C   0  0  0  0  0  0  0  0  0  0  0  0
  -23.8313  -10.4123   20.9121 C   0  0  0  0  0  0  0  0  0  0  0  0
  -24.1169  -12.9442   20.7872 C   0  0  0  0  0  0  0  0  0  0  0  0
  -28.3839  -18.5155   37.7368 C   0  0  0  0  0  0  0  0  0  0  0  0
  -24.3679  -14.7506   31.7483 C   0  0  0  0  0  0  0  0  0  0  0  0
  -27.1723  -17.8887   37.3880 C   0  0  0  0  0  0  0  0  0  0  0  0
  -24.1654  -15.6821   30.7168 C   0  0  0  0  0  0  0  0  0  0  0  0
  -22.3492   -8.0714   21.2376 C   0  0  0  0  0  0  0  0  0  0  0  0
  -23.5671  -13.8851   29.2148 C   0  0  0  0  0  0  0  0  0  0  0  0
  -21.7502   -6.2503   22.5968 C   0  0  0  0  0  0  0  0  0  0  0  0
  -21.9968   -4.8850   25.0170 C   0  0  0  0  0  0  0  0  0  0  0  0
  -22.9950   -5.7687   23.0021 C   0  0  0  0  0  0  0  0  0  0  0  0
  -24.5966  -11.6214   20.7433 C   0  0  0  0  0  0  0  0  0  0  0  0
  -25.2293  -13.7202   20.5711 C   0  0  0  0  0  0  0  0  0  0  0  0
  -22.7848  -13.4282   21.0041 C   0  0  0  0  0  0  0  0  0  0  0  0
  -25.3528  -17.4065   34.2084 C   0  0  0  0  0  0  0  0  0  0  0  0
  -31.0813  -12.6799   21.4568 C   0  0  0  0  0  0  0  0  0  0  0  0
  -26.6485  -18.1492   31.5289 C   0  0  0  0  0  0  0  0  0  0  0  0
  -28.2369  -18.3852   28.5191 C   0  0  0  0  0  0  0  0  0  0  0  0
  -28.8329  -19.7959   37.0784 C   0  0  0  0  0  0  0  0  0  0  0  0
  -24.7311  -15.2655   33.1146 C   0  0  0  0  0  0  0  0  0  0  0  0
  -24.3699  -17.1388   31.0315 C   0  0  0  0  0  0  0  0  0  0  0  0
  -28.1205  -20.0851   35.7597 C   0  0  0  0  0  0  0  0  0  0  0  0
  -29.4845  -13.6571   18.4015 C   0  0  0  0  0  0  0  0  0  0  0  0
  -26.6169  -19.8754   35.9080 C   0  0  0  0  0  0  0  0  0  0  0  0
  -28.0104  -13.3395   18.6492 C   0  0  0  0  0  0  0  0  0  0  0  0
  -27.7196  -12.0860   24.0439 C   0  0  0  0  0  0  0  0  0  0  0  0
  -28.0008  -14.4072   24.9809 C   0  0  0  0  0  0  0  0  0  0  0  0
  -30.3966  -12.6406   19.0811 C   0  0  0  0  0  0  0  0  0  0  0  0
  -28.6775  -12.1713   20.7975 C   0  0  0  0  0  0  0  0  0  0  0  0
  -26.8134  -11.7302   25.2147 C   0  0  0  0  0  0  0  0  0  0  0  0
  -27.0935  -14.0394   26.1470 C   0  0  0  0  0  0  0  0  0  0  0  0
  -26.2962  -18.4215   36.2750 C   0  0  1  0  0  0  0  0  0  0  0  0
  -25.6725  -16.4825   33.0703 C   0  0  1  0  0  0  0  0  0  0  0  0
  -28.7266  -13.1802   24.4168 C   0  0  0  0  0  0  0  0  0  0  0  0
  -27.7222  -13.1916   20.1537 C   0  0  2  0  0  0  0  0  0  0  0  0
  -31.9168  -12.6987   23.7691 C   0  0  0  0  0  0  0  0  0  0  0  0
  -29.8467  -19.8322   27.2496 C   0  0  0  0  0  0  0  0  0  0  0  0
  -23.2469  -13.9638   25.6223 C   0  0  0  0  0  0  0  0  0  0  0  0
  -24.4304  -20.1863   31.0454 C   0  0  0  0  0  0  0  0  0  0  0  0
  -25.7373  -21.0390   29.0876 C   0  0  0  0  0  0  0  0  0  0  0  0
  -26.7015  -21.1771   31.3841 C   0  0  0  0  0  0  0  0  0  0  0  0
  -30.1988  -16.1836   28.2690 C   0  0  0  0  0  0  0  0  0  0  0  0
  -29.5819  -13.5631   23.2110 C   0  0  0  0  0  0  0  0  0  0  0  0
  -25.1164  -12.6615   26.7853 C   0  0  0  0  0  0  0  0  0  0  0  0
  -30.6739  -12.5370   22.9017 C   0  0  1  0  0  0  0  0  0  0  0  0
  -26.5366  -18.9274   30.2423 C   0  0  1  0  0  0  0  0  0  0  0  0
  -29.6929  -18.6273   28.1646 C   0  0  2  0  0  0  0  0  0  0  0  0
  -24.0630  -13.7594   26.8919 C   0  0  2  0  0  0  0  0  0  1  0  0
  -25.8439  -20.3051   30.4414 C   0  0  0  0  0  0  0  0  0  0  0  0
  -25.9113  -11.5570   20.5168 N   0  0  0  0  0  0  0  0  0  0  0  0
  -26.2672  -12.8490   20.4165 N   0  0  0  0  0  0  0  0  0  0  0  0
  -25.5764  -17.3102   31.8559 N   0  0  0  0  0  0  0  0  0  0  0  0
  -30.0763  -12.5128   20.5039 N   0  0  0  0  0  0  0  0  0  0  0  0
  -25.4111  -15.0560   20.5000 N   0  0  0  0  0  0  0  0  0  0  0  0
  -21.7599  -12.4945   21.2098 N   0  0  0  0  0  0  0  0  0  0  0  0
  -26.3898  -17.5728   35.1064 N   0  0  0  0  0  0  0  0  0  0  0  0
  -27.8872  -19.0110   29.6970 N   0  0  0  0  0  0  0  0  0  0  0  0
  -26.1171  -12.9754   25.7075 N   0  3  0  0  0  0  0  0  0  0  0  0
  -30.2626  -17.4364   27.4732 N   0  3  0  0  0  0  0  0  0  0  0  0
  -22.5086  -14.6518   20.9988 O   0  0  0  0  0  0  0  0  0  0  0  0
  -24.2473  -17.9319   34.2678 O   0  0  0  0  0  0  0  0  0  0  0  0
  -32.2574  -12.9353   21.1854 O   0  0  0  0  0  0  0  0  0  0  0  0
  -27.6555  -18.2840   32.2297 O   0  0  0  0  0  0  0  0  0  0  0  0
  -27.4840  -17.7116   27.8192 O   0  0  0  0  0  0  0  0  0  0  0  0
  -21.6263   -6.9290   21.3960 O   0  0  0  0  0  0  0  0  0  0  0  0
  -23.1886  -13.4574   27.9785 O   0  0  0  0  0  0  0  0  0  1  0  0
  -22.1153   -4.2307   26.1798 F   0  0  0  0  0  0  0  0  0  0  0  0
  -24.0761   -5.9597   22.2337 F   0  0  0  0  0  0  0  0  0  0  0  0
  1  2  1  0  0  0  0
  1  5  2  0  0  0  0
  2  6  2  0  0  0  0
  3  8  2  0  0  0  0
  3 15  1  0  0  0  0
  4  9  1  0  0  0  0
  4 15  2  0  0  0  0
  5 17  1  0  0  0  0
  6 19  1  0  0  0  0
  7 10  2  0  0  0  0
  7 18  1  0  0  0  0
  8 21  1  0  0  0  0
  9 21  2  0  0  0  0
 10 22  1  0  0  0  0
 11 12  2  0  0  0  0
 11 23  1  0  0  0  0
 12 24  1  0  0  0  0
 13 20  1  0  0  0  0
 13 22  2  0  0  0  0
 14 24  2  0  0  0  0
 14 25  1  0  0  0  0
 15 26  1  0  0  0  0
 16 26  1  0  0  0  0
 16 27  2  0  0  0  0
 16 28  1  0  0  0  0
 17 19  2  0  0  0  0
 17 33  1  0  0  0  0
 18 20  2  0  0  0  0
 18 34  1  0  0  0  0
 19 46  1  0  0  0  0
 20 35  1  0  0  0  0
 21 79  1  0  0  0  0
 22 80  1  0  0  0  0
 23 25  2  0  0  0  0
 23 79  1  0  0  0  0
 24 81  1  0  0  0  0
 25 82  1  0  0  0  0
 26 64  2  0  0  0  0
 27 65  1  0  0  0  0
 27 68  1  0  0  0  0
 28 69  1  0  0  0  0
 28 74  2  0  0  0  0
 29 47  1  0  0  0  0
 29 70  1  0  0  0  0
 29 75  2  0  0  0  0
 30 59  1  0  0  0  0
 30 67  1  0  0  0  0
 30 76  2  0  0  0  0
 31 60  1  0  0  0  0
 31 66  1  0  0  0  0
 31 77  2  0  0  0  0
 32 61  1  0  0  0  0
 32 71  1  0  0  0  0
 32 78  2  0  0  0  0
 33 36  1  0  0  0  0
 34 47  1  0  0  0  0
 35 66  1  0  0  0  0
 36 38  1  0  0  0  0
 37 39  1  0  0  0  0
 37 42  1  0  0  0  0
 38 46  1  0  0  0  0
 39 49  1  0  0  0  0
 40 44  1  0  0  0  0
 40 48  1  0  0  0  0
 41 45  1  0  0  0  0
 41 48  1  0  0  0  0
 42 67  1  0  0  0  0
 43 49  1  0  0  0  0
 43 67  1  0  0  0  0
 44 72  1  0  0  0  0
 45 72  1  0  0  0  0
 46 70  1  0  0  0  0
 47 66  1  0  0  0  0
 48 57  1  0  0  0  0
 49 65  1  0  0  0  0
 50 59  1  0  0  0  0
 51 61  1  0  0  0  0
 52 62  1  0  0  0  0
 53 63  1  0  0  0  0
 54 63  1  0  0  0  0
 55 63  1  0  0  0  0
 56 73  1  0  0  0  0
 57 59  1  0  0  0  0
 58 62  1  0  0  0  0
 58 72  1  0  0  0  0
 60 63  1  0  0  0  0
 60 71  1  0  0  0  0
 61 73  1  0  0  0  0
 62 80  1  0  0  0  0
 64 65  1  0  0  0  0
M  CHG  2  72   1  73   1
M  ISO  4  30 100  59 100  62 101  80 101
M  END
> <Batch ID>
0107

> <Smiles>
CNC(C)C(=O)NC(C(=O)N1Cc2cc([101O:1][101CH:1](C)CN3CCC(C[100CH:0](C)[100C:0](=O)N4CCCC(n5nc(-c6ccc(Oc7ccc(F)cc7F)cc6)c(C(N)=O)c5N)C4)CC3)ccc2CC1C(=O)NC1CCCc2ccccc21)C(C)(C)C

> <Shape>
0.140

> <Color>
0.191

> <Negative vol penalty>
0.000

$$$$

  -OEChem-04052319513D

 88 97  0     1  0  0  0  0  0999 V2000
  -30.7220  -25.5978   17.1307 C   0  0  0  0  0  0  0  0  0  0  0  0
  -29.3380  -25.5112   17.2427 C   0  0  0  0  0  0  0  0  0  0  0  0
  -25.2383  -14.3155   20.6393 C   0  0  0  0  0  0  0  0  0  0  0  0
  -25.8415  -14.1098   18.3089 C   0  0  0  0  0  0  0  0  0  0  0  0
  -31.4754  -26.1054   18.1883 C   0  0  0  0  0  0  0  0  0  0  0  0
  -28.7068  -25.9311   18.4131 C   0  0  0  0  0  0  0  0  0  0  0  0
  -23.2168  -28.6047   18.8791 C   0  0  0  0  0  0  0  0  0  0  0  0
  -18.8809  -25.4845   23.3685 C   0  0  0  0  0  0  0  0  0  0  0  0
  -19.4612  -24.9490   24.5183 C   0  0  0  0  0  0  0  0  0  0  0  0
  -24.4052  -13.2030   20.5218 C   0  0  0  0  0  0  0  0  0  0  0  0
  -25.0084  -12.9973   18.1914 C   0  0  0  0  0  0  0  0  0  0  0  0
  -21.9542  -28.1054   19.1958 C   0  0  0  0  0  0  0  0  0  0  0  0
  -24.7380   -9.8391   20.4403 C   0  0  0  0  0  0  0  0  0  0  0  0
  -24.7999   -8.8739   21.4453 C   0  0  0  0  0  0  0  0  0  0  0  0
  -20.5304  -24.3565   22.0106 C   0  0  0  0  0  0  0  0  0  0  0  0
  -22.2724  -28.7736   21.4918 C   0  0  0  0  0  0  0  0  0  0  0  0
  -22.4608   -9.2315   21.9328 C   0  0  0  0  0  0  0  0  0  0  0  0
  -25.9565  -14.7689   19.5328 C   0  0  0  0  0  0  0  0  0  0  0  0
  -28.1799  -15.9269   20.0052 C   0  0  0  0  0  0  0  0  0  0  0  0
  -30.8523  -26.5407   19.3684 C   0  0  0  0  0  0  0  0  0  0  0  0
  -24.0225  -29.1834   19.8703 C   0  0  0  0  0  0  0  0  0  0  0  0
  -29.4528  -26.4437   19.4880 C   0  0  0  0  0  0  0  0  0  0  0  0
  -21.1108  -23.8210   23.1605 C   0  0  0  0  0  0  0  0  0  0  0  0
  -23.5438  -29.2818   21.1845 C   0  0  0  0  0  0  0  0  0  0  0  0
  -19.4155  -25.1882   22.1146 C   0  0  0  0  0  0  0  0  0  0  0  0
  -20.5762  -24.1173   24.4143 C   0  0  0  0  0  0  0  0  0  0  0  0
  -24.2902  -12.5439   19.2979 C   0  0  0  0  0  0  0  0  0  0  0  0
  -21.4830  -28.1872   20.5029 C   0  0  0  0  0  0  0  0  0  0  0  0
  -23.5375  -10.5007   20.1816 C   0  0  0  0  0  0  0  0  0  0  0  0
  -23.6613   -8.5700   22.1915 C   0  0  0  0  0  0  0  0  0  0  0  0
  -22.3989  -10.1968   20.9278 C   0  0  0  0  0  0  0  0  0  0  0  0
  -26.8169  -15.9184   19.6534 C   0  0  0  0  0  0  0  0  0  0  0  0
  -28.5332  -17.2539   19.9787 C   0  0  0  0  0  0  0  0  0  0  0  0
  -29.0491  -14.8329   20.3272 C   0  0  0  0  0  0  0  0  0  0  0  0
  -26.8655  -28.5132   21.1239 C   0  0  0  0  0  0  0  0  0  0  0  0
  -26.4129  -31.3283   22.6708 C   0  0  0  0  0  0  0  0  0  0  0  0
  -24.2250  -33.6673   23.8495 C   0  0  0  0  0  0  0  0  0  0  0  0
  -25.6259  -22.3053   20.6688 C   0  0  0  0  0  0  0  0  0  0  0  0
  -31.7128  -27.0381   20.5028 C   0  0  0  0  0  0  0  0  0  0  0  0
  -25.3712  -29.7414   19.5070 C   0  0  0  0  0  0  0  0  0  0  0  0
  -24.3615  -29.9121   22.2812 C   0  0  0  0  0  0  0  0  0  0  0  0
  -30.9341  -27.8102   21.5648 C   0  0  0  0  0  0  0  0  0  0  0  0
  -27.4262  -21.3913   17.8631 C   0  0  0  0  0  0  0  0  0  0  0  0
  -29.6595  -27.0617   21.9418 C   0  0  0  0  0  0  0  0  0  0  0  0
  -27.6156  -19.8836   18.0281 C   0  0  0  0  0  0  0  0  0  0  0  0
  -22.2848  -22.0960   21.7225 C   0  0  0  0  0  0  0  0  0  0  0  0
  -23.6423  -23.7056   23.1281 C   0  0  0  0  0  0  0  0  0  0  0  0
  -26.0204  -21.8129   18.2745 C   0  0  0  0  0  0  0  0  0  0  0  0
  -23.5267  -21.2125   21.5742 C   0  0  0  0  0  0  0  0  0  0  0  0
  -24.8408  -22.7745   22.9692 C   0  0  0  0  0  0  0  0  0  0  0  0
  -25.8409  -19.9149   19.8503 C   0  0  0  0  0  0  0  0  0  0  0  0
  -22.3230  -22.9193   23.0225 C   0  0  0  0  0  0  0  0  0  0  0  0
  -28.7293  -26.9121   20.7319 C   0  0  1  0  0  0  0  0  0  0  0  0
  -26.3158  -29.8459   20.7004 C   0  0  1  0  0  0  0  0  0  0  0  0
  -27.2514  -19.4333   19.4540 C   0  0  1  0  0  0  0  0  0  0  0  0
  -20.2056  -22.6456   26.4268 C   0  0  0  0  0  0  0  0  0  0  0  0
  -21.7198  -24.6539   26.5956 C   0  0  0  0  0  0  0  0  0  0  0  0
  -24.1502  -35.8392   25.1042 C   0  0  0  0  0  0  0  0  0  0  0  0
  -26.9457  -29.8371   25.2790 C   0  0  0  0  0  0  0  0  0  0  0  0
  -25.9423  -31.7729   26.5095 C   0  0  0  0  0  0  0  0  0  0  0  0
  -27.9996  -32.1006   25.1374 C   0  0  0  0  0  0  0  0  0  0  0  0
  -22.9715  -35.0756   21.5682 C   0  0  0  0  0  0  0  0  0  0  0  0
  -19.7721  -26.5996   20.0466 C   0  0  0  0  0  0  0  0  0  1  0  0
  -21.1810  -23.5567   25.6595 C   0  0  0  0  0  0  0  0  0  0  0  0
  -18.7951  -25.7612   20.8854 C   0  0  1  0  0  0  0  0  0  0  0  0
  -25.7816  -31.7399   23.9789 C   0  0  1  0  0  0  0  0  0  0  0  0
  -24.2101  -35.1809   23.7346 C   0  0  2  0  0  0  0  0  0  0  0  0
  -26.6524  -31.3489   25.2062 C   0  0  0  0  0  0  0  0  0  0  0  0
  -26.3368  -17.1429   19.4206 N   0  0  0  0  0  0  0  0  0  0  0  0
  -27.4041  -17.9332   19.6266 N   0  0  0  0  0  0  0  0  0  0  0  0
  -25.6762  -30.4375   21.8773 N   0  0  0  0  0  0  0  0  0  0  0  0
  -25.7114  -21.3640   19.6320 N   0  0  0  0  0  0  0  0  0  0  0  0
  -24.7519  -22.0096   21.7257 N   0  0  0  0  0  0  0  0  0  0  0  0
  -29.6963  -17.8943   20.2225 N   0  0  0  0  0  0  0  0  0  0  0  0
  -28.5237  -13.5338   20.3066 N   0  0  0  0  0  0  0  0  0  0  0  0
  -28.0311  -28.1534   20.4747 N   0  0  0  0  0  0  0  0  0  0  0  0
  -25.5106  -33.1692   23.8695 N   0  0  0  0  0  0  0  0  0  0  0  0
  -23.0278  -35.6289   22.9457 N   0  3  0  0  0  0  0  0  0  0  0  0
  -30.2517  -15.0040   20.6402 O   0  0  0  0  0  0  0  0  0  0  0  0
  -26.2767  -27.8605   21.9777 O   0  0  0  0  0  0  0  0  0  0  0  0
  -27.5157  -31.7860   22.3612 O   0  0  0  0  0  0  0  0  0  0  0  0
  -23.1989  -32.9944   23.9186 O   0  0  0  0  0  0  0  0  0  0  0  0
  -26.2915  -23.3484   20.6523 O   0  0  0  0  0  0  0  0  0  0  0  0
  -18.2839  -24.7005   20.0685 O   0  0  0  0  0  0  0  0  0  0  0  0
  -23.4775  -11.4582   19.1830 O   0  0  0  0  0  0  0  0  0  0  0  0
  -20.2420  -27.6964   20.8172 O   0  0  0  0  0  0  0  0  0  1  0  0
  -23.7205   -7.6420   23.1556 F   0  0  0  0  0  0  0  0  0  0  0  0
  -21.2425  -10.8281   20.6831 F   0  0  0  0  0  0  0  0  0  0  0  0
  1  2  1  0  0  0  0
  1  5  2  0  0  0  0
  2  6  2  0  0  0  0
  3 10  2  0  0  0  0
  3 18  1  0  0  0  0
  4 11  1  0  0  0  0
  4 18  2  0  0  0  0
  5 20  1  0  0  0  0
  6 22  1  0  0  0  0
  7 12  2  0  0  0  0
  7 21  1  0  0  0  0
  8  9  2  0  0  0  0
  8 25  1  0  0  0  0
  9 26  1  0  0  0  0
 10 27  1  0  0  0  0
 11 27  2  0  0  0  0
 12 28  1  0  0  0  0
 13 14  2  0  0  0  0
 13 29  1  0  0  0  0
 14 30  1  0  0  0  0
 15 23  1  0  0  0  0
 15 25  2  0  0  0  0
 16 24  1  0  0  0  0
 16 28  2  0  0  0  0
 17 30  2  0  0  0  0
 17 31  1  0  0  0  0
 18 32  1  0  0  0  0
 19 32  1  0  0  0  0
 19 33  2  0  0  0  0
 19 34  1  0  0  0  0
 20 22  2  0  0  0  0
 20 39  1  0  0  0  0
 21 24  2  0  0  0  0
 21 40  1  0  0  0  0
 22 53  1  0  0  0  0
 23 26  2  0  0  0  0
 23 52  1  0  0  0  0
 24 41  1  0  0  0  0
 25 65  1  0  0  0  0
 26 64  1  0  0  0  0
 27 85  1  0  0  0  0
 28 86  1  0  0  0  0
 29 31  2  0  0  0  0
 29 85  1  0  0  0  0
 30 87  1  0  0  0  0
 31 88  1  0  0  0  0
 32 69  2  0  0  0  0
 33 70  1  0  0  0  0
 33 74  1  0  0  0  0
 34 75  1  0  0  0  0
 34 79  2  0  0  0  0
 35 54  1  0  0  0  0
 35 76  1  0  0  0  0
 35 80  2  0  0  0  0
 36 66  1  0  0  0  0
 36 71  1  0  0  0  0
 36 81  2  0  0  0  0
 37 67  1  0  0  0  0
 37 77  1  0  0  0  0
 37 82  2  0  0  0  0
 38 72  1  0  0  0  0
 38 73  1  0  0  0  0
 38 83  2  0  0  0  0
 39 42  1  0  0  0  0
 40 54  1  0  0  0  0
 41 71  1  0  0  0  0
 42 44  1  0  0  0  0
 43 45  1  0  0  0  0
 43 48  1  0  0  0  0
 44 53  1  0  0  0  0
 45 55  1  0  0  0  0
 46 49  1  0  0  0  0
 46 52  1  0  0  0  0
 47 50  1  0  0  0  0
 47 52  1  0  0  0  0
 48 72  1  0  0  0  0
 49 73  1  0  0  0  0
 50 73  1  0  0  0  0
 51 55  1  0  0  0  0
 51 72  1  0  0  0  0
 53 76  1  0  0  0  0
 54 71  1  0  0  0  0
 55 70  1  0  0  0  0
 56 64  1  0  0  0  0
 57 64  1  0  0  0  0
 58 67  1  0  0  0  0
 59 68  1  0  0  0  0
 60 68  1  0  0  0  0
 61 68  1  0  0  0  0
 62 78  1  0  0  0  0
 63 65  1  0  0  0  0
 63 86  1  0  0  0  0
 65 84  1  0  0  0  0
 66 68  1  0  0  0  0
 66 77  1  0  0  0  0
 67 78  1  0  0  0  0
 69 70  1  0  0  0  0
M  CHG  1  78   1
M  ISO  4  38 100  63 101  73 100  86 101
M  END
> <Batch ID>
0107

> <Smiles>
CNC(C)C(=O)NC(C(=O)N1Cc2cc([101O:1][101CH2:1]C(O)c3ccc(C(C)C)c(C4CC[100N:0]([100C:0](=O)N5CCCC(n6nc(-c7ccc(Oc8ccc(F)cc8F)cc7)c(C(N)=O)c6N)C5)CC4)c3)ccc2CC1C(=O)NC1CCCc2ccccc21)C(C)(C)C

> <Shape>
0.305

> <Color>
0.079

> <Negative vol penalty>
0.000

$$$$

  -OEChem-04052319513D

 85 93  0     1  0  0  0  0  0999 V2000
  -18.3308  -33.0024   23.2425 C   0  0  0  0  0  0  0  0  0  0  0  0
  -19.4977  -33.0257   22.4853 C   0  0  0  0  0  0  0  0  0  0  0  0
  -25.9348  -15.2354   22.7250 C   0  0  0  0  0  0  0  0  0  0  0  0
  -25.4496  -14.8685   20.3868 C   0  0  0  0  0  0  0  0  0  0  0  0
  -18.1448  -32.0101   24.2040 C   0  0  0  0  0  0  0  0  0  0  0  0
  -20.4798  -32.0571   22.6901 C   0  0  0  0  0  0  0  0  0  0  0  0
  -25.4700  -28.3309   19.1505 C   0  0  0  0  0  0  0  0  0  0  0  0
  -24.9963  -14.2637   23.0723 C   0  0  0  0  0  0  0  0  0  0  0  0
  -24.5112  -13.8967   20.7341 C   0  0  0  0  0  0  0  0  0  0  0  0
  -26.8286  -28.0235   19.2097 C   0  0  0  0  0  0  0  0  0  0  0  0
  -24.5223  -10.6584   21.7006 C   0  0  0  0  0  0  0  0  0  0  0  0
  -24.5347   -9.4621   20.9834 C   0  0  0  0  0  0  0  0  0  0  0  0
  -26.3637  -26.3107   20.8435 C   0  0  0  0  0  0  0  0  0  0  0  0
  -22.2613   -9.8651   20.2719 C   0  0  0  0  0  0  0  0  0  0  0  0
  -31.2794  -25.0802   17.9509 C   0  0  0  0  0  0  0  0  0  0  0  0
  -26.1614  -15.5379   21.3823 C   0  0  0  0  0  0  0  0  0  0  0  0
  -28.5013  -16.3480   20.7687 C   0  0  0  0  0  0  0  0  0  0  0  0
  -19.1208  -31.0233   24.4140 C   0  0  0  0  0  0  0  0  0  0  0  0
  -24.5478  -27.6367   19.9468 C   0  0  0  0  0  0  0  0  0  0  0  0
  -20.3072  -31.0515   23.6563 C   0  0  0  0  0  0  0  0  0  0  0  0
  -24.9936  -26.6095   20.7907 C   0  0  0  0  0  0  0  0  0  0  0  0
  -31.4819  -23.7221   18.0594 C   0  0  0  0  0  0  0  0  0  0  0  0
  -24.2846  -13.5943   22.0768 C   0  0  0  0  0  0  0  0  0  0  0  0
  -27.2760  -27.0152   20.0584 C   0  0  0  0  0  0  0  0  0  0  0  0
  -23.3794  -11.4580   21.7035 C   0  0  0  0  0  0  0  0  0  0  0  0
  -31.4789  -23.4029   19.4396 C   0  0  0  0  0  0  0  0  0  0  0  0
  -23.4043   -9.0655   20.2691 C   0  0  0  0  0  0  0  0  0  0  0  0
  -22.2489  -11.0614   20.9891 C   0  0  0  0  0  0  0  0  0  0  0  0
  -27.1303  -16.5420   21.0229 C   0  0  0  0  0  0  0  0  0  0  0  0
  -31.2746  -24.5756   20.1326 C   0  0  0  0  0  0  0  0  0  0  0  0
  -28.9763  -17.6022   20.4724 C   0  0  0  0  0  0  0  0  0  0  0  0
  -29.2760  -15.1419   20.7977 C   0  0  0  0  0  0  0  0  0  0  0  0
  -22.5265  -28.4468   22.2623 C   0  0  0  0  0  0  0  0  0  0  0  0
  -21.5854  -25.3545   21.9898 C   0  0  0  0  0  0  0  0  0  0  0  0
  -22.3530  -22.1645   21.0508 C   0  0  0  0  0  0  0  0  0  0  0  0
  -28.4818  -22.4965   17.8368 C   0  0  0  0  0  0  0  0  0  0  0  0
  -18.8958  -29.9987   25.4976 C   0  0  0  0  0  0  0  0  0  0  0  0
  -23.0824  -27.9622   19.8515 C   0  0  0  0  0  0  0  0  0  0  0  0
  -24.0417  -25.8206   21.6510 C   0  0  0  0  0  0  0  0  0  0  0  0
  -19.8202  -28.7884   25.3930 C   0  0  0  0  0  0  0  0  0  0  0  0
  -26.8049  -22.1448   20.9579 C   0  0  0  0  0  0  0  0  0  0  0  0
  -21.2589  -29.2347   25.1527 C   0  0  0  0  0  0  0  0  0  0  0  0
  -26.8478  -20.6399   21.2286 C   0  0  0  0  0  0  0  0  0  0  0  0
  -26.6217  -22.4460   19.4720 C   0  0  0  0  0  0  0  0  0  0  0  0
  -27.6456  -20.2912   18.8536 C   0  0  0  0  0  0  0  0  0  0  0  0
  -21.3848  -30.0036   23.8320 C   0  0  1  0  0  0  0  0  0  0  0  0
  -22.2948  -27.5391   21.0876 C   0  0  1  0  0  0  0  0  0  0  0  0
  -27.8851  -19.9381   20.3315 C   0  0  2  0  0  0  0  0  0  0  0  0
  -31.1860  -24.8193   21.5882 C   0  0  0  0  0  0  0  0  0  0  0  0
  -21.3951  -19.8460   20.9847 C   0  0  0  0  0  0  0  0  0  0  0  0
  -32.3717  -21.0075   21.9715 C   0  0  0  0  0  0  0  0  0  0  0  0
  -33.9719  -21.5900   20.1136 C   0  0  0  0  0  0  0  0  0  0  0  0
  -22.0530  -25.0784   24.9923 C   0  0  0  0  0  0  0  0  0  0  0  0
  -22.0111  -22.5922   24.6996 C   0  0  0  0  0  0  0  0  0  0  0  0
  -19.9890  -23.9453   24.1494 C   0  0  0  0  0  0  0  0  0  0  0  0
  -22.5677  -22.0348   18.1019 C   0  0  0  0  0  0  0  0  0  0  0  0
  -31.6687  -22.7805   16.9386 C   0  0  0  0  0  0  0  0  0  0  0  0
  -30.9213  -27.0456   19.5352 C   0  0  0  0  0  0  0  0  0  0  0  0
  -30.3637  -22.3866   16.2226 C   0  0  0  0  0  0  0  0  0  0  0  0
  -29.4783  -27.4701   19.2847 C   0  0  0  0  0  0  0  0  0  1  0  0
  -22.0030  -24.0500   22.6246 C   0  0  1  0  0  0  0  0  0  0  0  0
  -21.5898  -21.1472   20.2220 C   0  0  2  0  0  0  0  0  0  0  0  0
  -32.7476  -22.0246   20.9048 C   0  0  0  0  0  0  0  0  0  0  0  0
  -21.5325  -23.9325   24.1018 C   0  0  0  0  0  0  0  0  0  0  0  0
  -26.7585  -17.8189   20.8991 N   0  0  0  0  0  0  0  0  0  0  0  0
  -31.1545  -25.5886   19.2174 N   0  0  0  0  0  0  0  0  0  0  0  0
  -27.9029  -18.4386   20.5640 N   0  0  0  0  0  0  0  0  0  0  0  0
  -22.6195  -26.1806   21.5271 N   0  0  0  0  0  0  0  0  0  0  0  0
  -27.6376  -21.7519   18.6770 N   0  0  0  0  0  0  0  0  0  0  0  0
  -30.2034  -18.0601   20.1452 N   0  0  0  0  0  0  0  0  0  0  0  0
  -28.6304  -13.9407   21.1210 N   0  0  0  0  0  0  0  0  0  0  0  0
  -21.3875  -29.0871   22.7119 N   0  0  0  0  0  0  0  0  0  0  0  0
  -21.5028  -22.9930   21.7522 N   0  0  0  0  0  0  0  0  0  0  0  0
  -29.4208  -21.7617   17.1234 N   0  0  0  0  0  0  0  0  0  0  0  0
  -22.3271  -20.8476   18.9620 N   0  3  0  0  0  0  0  0  0  0  0  0
  -30.5077  -15.1324   20.5605 O   0  0  0  0  0  0  0  0  0  0  0  0
  -23.6549  -28.5570   22.7274 O   0  0  0  0  0  0  0  0  0  0  0  0
  -20.3857  -25.6271   21.9010 O   0  0  0  0  0  0  0  0  0  0  0  0
  -23.5807  -22.2164   21.0766 O   0  0  0  0  0  0  0  0  0  0  0  0
  -28.4080  -23.7258   17.7345 O   0  0  0  0  0  0  0  0  0  0  0  0
  -23.3689  -12.6458   22.4153 O   0  0  0  0  0  0  0  0  0  0  0  0
  -28.6016  -26.7136   20.1186 O   0  0  0  0  0  0  0  0  0  1  0  0
  -31.6411  -22.1979   20.0063 O   0  0  0  0  0  0  0  0  0  0  0  0
  -23.4168   -7.9174   19.5792 F   0  0  0  0  0  0  0  0  0  0  0  0
  -21.1484  -11.8260   20.9872 F   0  0  0  0  0  0  0  0  0  0  0  0
  1  2  1  0  0  0  0
  1  5  2  0  0  0  0
  2  6  2  0  0  0  0
  3  8  2  0  0  0  0
  3 16  1  0  0  0  0
  4  9  1  0  0  0  0
  4 16  2  0  0  0  0
  5 18  1  0  0  0  0
  6 20  1  0  0  0  0
  7 10  2  0  0  0  0
  7 19  1  0  0  0  0
  8 23  1  0  0  0  0
  9 23  2  0  0  0  0
 10 24  1  0  0  0  0
 11 12  2  0  0  0  0
 11 25  1  0  0  0  0
 12 27  1  0  0  0  0
 13 21  1  0  0  0  0
 13 24  2  0  0  0  0
 14 27  2  0  0  0  0
 14 28  1  0  0  0  0
 15 22  2  0  0  0  0
 15 66  1  0  0  0  0
 16 29  1  0  0  0  0
 17 29  1  0  0  0  0
 17 31  2  0  0  0  0
 17 32  1  0  0  0  0
 18 20  2  0  0  0  0
 18 37  1  0  0  0  0
 19 21  2  0  0  0  0
 19 38  1  0  0  0  0
 20 46  1  0  0  0  0
 21 39  1  0  0  0  0
 22 26  1  0  0  0  0
 22 57  1  0  0  0  0
 23 81  1  0  0  0  0
 24 82  1  0  0  0  0
 25 28  2  0  0  0  0
 25 81  1  0  0  0  0
 26 30  2  0  0  0  0
 26 83  1  0  0  0  0
 27 84  1  0  0  0  0
 28 85  1  0  0  0  0
 29 65  2  0  0  0  0
 30 49  1  0  0  0  0
 30 66  1  0  0  0  0
 31 67  1  0  0  0  0
 31 70  1  0  0  0  0
 32 71  1  0  0  0  0
 32 76  2  0  0  0  0
 33 47  1  0  0  0  0
 33 72  1  0  0  0  0
 33 77  2  0  0  0  0
 34 61  1  0  0  0  0
 34 68  1  0  0  0  0
 34 78  2  0  0  0  0
 35 62  1  0  0  0  0
 35 73  1  0  0  0  0
 35 79  2  0  0  0  0
 36 69  1  0  0  0  0
 36 74  1  0  0  0  0
 36 80  2  0  0  0  0
 37 40  1  0  0  0  0
 38 47  1  0  0  0  0
 39 68  1  0  0  0  0
 40 42  1  0  0  0  0
 41 43  1  0  0  0  0
 41 44  1  0  0  0  0
 42 46  1  0  0  0  0
 43 48  1  0  0  0  0
 44 69  1  0  0  0  0
 45 48  1  0  0  0  0
 45 69  1  0  0  0  0
 46 72  1  0  0  0  0
 47 68  1  0  0  0  0
 48 67  1  0  0  0  0
 50 62  1  0  0  0  0
 51 63  1  0  0  0  0
 52 63  1  0  0  0  0
 53 64  1  0  0  0  0
 54 64  1  0  0  0  0
 55 64  1  0  0  0  0
 56 75  1  0  0  0  0
 57 59  1  0  0  0  0
 58 60  1  0  0  0  0
 58 66  1  0  0  0  0
 59 74  1  0  0  0  0
 60 82  1  0  0  0  0
 61 64  1  0  0  0  0
 61 73  1  0  0  0  0
 62 75  1  0  0  0  0
 63 83  1  0  0  0  0
 65 67  1  0  0  0  0
M  CHG  1  75   1
M  ISO  4  36 100  60 101  74 100  82 101
M  END
> <Batch ID>
0107

> <Smiles>
CNC(C)C(=O)NC(C(=O)N1Cc2cc([101O:1][101CH2:1]Cn3cc(CC[100NH:0][100C:0](=O)N4CCCC(n5nc(-c6ccc(Oc7ccc(F)cc7F)cc6)c(C(N)=O)c5N)C4)c(OC(C)C)c3C)ccc2CC1C(=O)NC1CCCc2ccccc21)C(C)(C)C

> <Shape>
0.232

> <Color>
0.081

> <Negative vol penalty>
0.000

$$$$

  -OEChem-04052319513D

 81 89  0     1  0  0  0  0  0999 V2000
  -25.8710  -32.1455   25.9582 C   0  0  0  0  0  0  0  0  0  0  0  0
  -25.9845  -31.0614   25.0938 C   0  0  0  0  0  0  0  0  0  0  0  0
  -23.0793   -9.8601   19.9473 C   0  0  0  0  0  0  0  0  0  0  0  0
  -23.8371   -9.8807   22.2413 C   0  0  0  0  0  0  0  0  0  0  0  0
  -26.9492  -32.5089   26.7640 C   0  0  0  0  0  0  0  0  0  0  0  0
  -27.1767  -30.3407   25.0339 C   0  0  0  0  0  0  0  0  0  0  0  0
  -27.7971  -24.3231   24.0801 C   0  0  0  0  0  0  0  0  0  0  0  0
  -22.3379   -8.7066   20.2026 C   0  0  0  0  0  0  0  0  0  0  0  0
  -23.0956   -8.7271   22.4966 C   0  0  0  0  0  0  0  0  0  0  0  0
  -28.0940  -23.5800   22.9384 C   0  0  0  0  0  0  0  0  0  0  0  0
  -19.8688   -7.9250   23.1003 C   0  0  0  0  0  0  0  0  0  0  0  0
  -19.1108   -7.8893   24.2707 C   0  0  0  0  0  0  0  0  0  0  0  0
  -28.5937  -19.3969   23.5301 C   0  0  0  0  0  0  0  0  0  0  0  0
  -30.4188  -23.5336   23.5807 C   0  0  0  0  0  0  0  0  0  0  0  0
  -20.3560   -5.9586   25.0183 C   0  0  0  0  0  0  0  0  0  0  0  0
  -28.8650  -18.4983   24.5382 C   0  0  0  0  0  0  0  0  0  0  0  0
  -23.8290  -10.4472   20.9667 C   0  0  0  0  0  0  0  0  0  0  0  0
  -24.1651  -12.9724   20.8339 C   0  0  0  0  0  0  0  0  0  0  0  0
  -28.1520  -31.7864   26.7210 C   0  0  0  0  0  0  0  0  0  0  0  0
  -28.8122  -24.6869   24.9766 C   0  0  0  0  0  0  0  0  0  0  0  0
  -28.2725  -30.6956   25.8389 C   0  0  0  0  0  0  0  0  0  0  0  0
  -30.1317  -24.2790   24.7343 C   0  0  0  0  0  0  0  0  0  0  0  0
  -29.2732  -18.9494   22.3703 C   0  0  0  0  0  0  0  0  0  0  0  0
  -22.3460   -8.1401   21.4772 C   0  0  0  0  0  0  0  0  0  0  0  0
  -29.4055  -23.1876   22.6870 C   0  0  0  0  0  0  0  0  0  0  0  0
  -20.8703   -6.9774   22.8888 C   0  0  0  0  0  0  0  0  0  0  0  0
  -19.3545   -6.9062   25.2297 C   0  0  0  0  0  0  0  0  0  0  0  0
  -21.1140   -5.9942   23.8478 C   0  0  0  0  0  0  0  0  0  0  0  0
  -24.5956  -11.6385   20.7035 C   0  0  0  0  0  0  0  0  0  0  0  0
  -29.9390  -17.7909   22.7050 C   0  0  0  0  0  0  0  0  0  0  0  0
  -25.2559  -13.7225   20.4678 C   0  0  0  0  0  0  0  0  0  0  0  0
  -22.8931  -13.4875   21.2491 C   0  0  0  0  0  0  0  0  0  0  0  0
  -30.0194  -27.4436   25.9998 C   0  0  0  0  0  0  0  0  0  0  0  0
  -31.7051  -25.5179   27.9928 C   0  0  0  0  0  0  0  0  0  0  0  0
  -33.0068  -22.4262   28.6200 C   0  0  0  0  0  0  0  0  0  0  0  0
  -30.7371  -14.7552   20.6558 C   0  0  0  0  0  0  0  0  0  0  0  0
  -29.3060  -32.2459   27.5765 C   0  0  0  0  0  0  0  0  0  0  0  0
  -28.4712  -25.4657   26.2173 C   0  0  0  0  0  0  0  0  0  0  0  0
  -31.2546  -24.6266   25.6760 C   0  0  0  0  0  0  0  0  0  0  0  0
  -30.4080  -31.2002   27.7257 C   0  0  0  0  0  0  0  0  0  0  0  0
  -29.6072  -12.3558   18.2804 C   0  0  0  0  0  0  0  0  0  0  0  0
  -30.7529  -30.5911   26.3704 C   0  0  0  0  0  0  0  0  0  0  0  0
  -28.1700  -12.0610   18.7135 C   0  0  0  0  0  0  0  0  0  0  0  0
  -30.5227  -12.5849   19.4809 C   0  0  0  0  0  0  0  0  0  0  0  0
  -28.6180  -13.3188   20.8620 C   0  0  0  0  0  0  0  0  0  0  0  0
  -29.5410  -29.8738   25.7633 C   0  0  1  0  0  0  0  0  0  0  0  0
  -29.6644  -26.2199   26.7961 C   0  0  1  0  0  0  0  0  0  0  0  0
  -27.6453  -13.1358   19.6844 C   0  0  2  0  0  0  0  0  0  0  0  0
  -34.3675  -21.1678   30.3119 C   0  0  0  0  0  0  0  0  0  0  0  0
  -34.2343  -26.8869   26.9734 C   0  0  0  0  0  0  0  0  0  0  0  0
  -35.5630  -24.9994   27.9430 C   0  0  0  0  0  0  0  0  0  0  0  0
  -34.2001  -26.4596   29.4373 C   0  0  0  0  0  0  0  0  0  0  0  0
  -30.1905  -16.4000   24.7778 C   0  0  0  0  0  0  0  0  0  0  0  0
  -30.8030  -20.5227   29.1481 C   0  0  0  0  0  0  0  0  0  0  0  0
  -29.2641  -19.6233   21.0215 C   0  0  0  0  0  0  0  0  0  0  0  0
  -30.7969  -16.9123   21.8817 C   0  0  0  0  0  0  0  0  0  0  0  0
  -30.5492  -20.3929   20.7088 C   0  0  0  0  0  0  0  0  0  0  0  0
  -30.8000  -21.5599   21.6566 C   0  0  0  0  0  0  0  0  0  1  0  0
  -33.0345  -24.8062   27.9208 C   0  0  1  0  0  0  0  0  0  0  0  0
  -32.9669  -21.5486   29.8580 C   0  0  2  0  0  0  0  0  0  0  0  0
  -34.2374  -25.7830   28.0497 C   0  0  0  0  0  0  0  0  0  0  0  0
  -25.8610  -11.5434   20.2869 N   0  0  0  0  0  0  0  0  0  0  0  0
  -29.6835  -17.5261   24.0251 N   0  0  0  0  0  0  0  0  0  0  0  0
  -26.2351  -12.8271   20.1523 N   0  0  0  0  0  0  0  0  0  0  0  0
  -30.8717  -25.3948   26.8721 N   0  0  0  0  0  0  0  0  0  0  0  0
  -29.9689  -13.6167   20.3611 N   0  0  0  0  0  0  0  0  0  0  0  0
  -25.4633  -15.0541   20.3881 N   0  0  0  0  0  0  0  0  0  0  0  0
  -21.8829  -12.5777   21.5901 N   0  0  0  0  0  0  0  0  0  0  0  0
  -29.3483  -28.5855   26.3937 N   0  0  0  0  0  0  0  0  0  0  0  0
  -32.9968  -23.7665   28.9435 N   0  0  0  0  0  0  0  0  0  0  0  0
  -30.1350  -15.6870   21.4925 N   0  0  0  0  0  0  0  0  0  0  0  0
  -32.2060  -20.2974   29.5817 N   0  3  0  0  0  0  0  0  0  0  0  0
  -22.6539  -14.7178   21.2998 O   0  0  0  0  0  0  0  0  0  0  0  0
  -30.8423  -27.3584   25.0958 O   0  0  0  0  0  0  0  0  0  0  0  0
  -31.4138  -26.1536   29.0091 O   0  0  0  0  0  0  0  0  0  0  0  0
  -33.0469  -21.9684   27.4801 O   0  0  0  0  0  0  0  0  0  0  0  0
  -31.8730  -14.9310   20.2023 O   0  0  0  0  0  0  0  0  0  0  0  0
  -21.6224   -7.0146   21.7267 O   0  0  0  0  0  0  0  0  0  0  0  0
  -29.6982  -22.4629   21.5731 O   0  0  0  0  0  0  0  0  0  1  0  0
  -18.6276   -6.8730   26.3543 F   0  0  0  0  0  0  0  0  0  0  0  0
  -22.0756   -5.0819   23.6508 F   0  0  0  0  0  0  0  0  0  0  0  0
  1  2  1  0  0  0  0
  1  5  2  0  0  0  0
  2  6  2  0  0  0  0
  3  8  2  0  0  0  0
  3 17  1  0  0  0  0
  4  9  1  0  0  0  0
  4 17  2  0  0  0  0
  5 19  1  0  0  0  0
  6 21  1  0  0  0  0
  7 10  2  0  0  0  0
  7 20  1  0  0  0  0
  8 24  1  0  0  0  0
  9 24  2  0  0  0  0
 10 25  1  0  0  0  0
 11 12  2  0  0  0  0
 11 26  1  0  0  0  0
 12 27  1  0  0  0  0
 13 16  2  0  0  0  0
 13 23  1  0  0  0  0
 14 22  1  0  0  0  0
 14 25  2  0  0  0  0
 15 27  2  0  0  0  0
 15 28  1  0  0  0  0
 16 63  1  0  0  0  0
 17 29  1  0  0  0  0
 18 29  1  0  0  0  0
 18 31  2  0  0  0  0
 18 32  1  0  0  0  0
 19 21  2  0  0  0  0
 19 37  1  0  0  0  0
 20 22  2  0  0  0  0
 20 38  1  0  0  0  0
 21 46  1  0  0  0  0
 22 39  1  0  0  0  0
 23 30  2  0  0  0  0
 23 55  1  0  0  0  0
 24 78  1  0  0  0  0
 25 79  1  0  0  0  0
 26 28  2  0  0  0  0
 26 78  1  0  0  0  0
 27 80  1  0  0  0  0
 28 81  1  0  0  0  0
 29 62  2  0  0  0  0
 30 56  1  0  0  0  0
 30 63  1  0  0  0  0
 31 64  1  0  0  0  0
 31 67  1  0  0  0  0
 32 68  1  0  0  0  0
 32 73  2  0  0  0  0
 33 47  1  0  0  0  0
 33 69  1  0  0  0  0
 33 74  2  0  0  0  0
 34 59  1  0  0  0  0
 34 65  1  0  0  0  0
 34 75  2  0  0  0  0
 35 60  1  0  0  0  0
 35 70  1  0  0  0  0
 35 76  2  0  0  0  0
 36 66  1  0  0  0  0
 36 71  1  0  0  0  0
 36 77  2  0  0  0  0
 37 40  1  0  0  0  0
 38 47  1  0  0  0  0
 39 65  1  0  0  0  0
 40 42  1  0  0  0  0
 41 43  1  0  0  0  0
 41 44  1  0  0  0  0
 42 46  1  0  0  0  0
 43 48  1  0  0  0  0
 44 66  1  0  0  0  0
 45 48  1  0  0  0  0
 45 66  1  0  0  0  0
 46 69  1  0  0  0  0
 47 65  1  0  0  0  0
 48 64  1  0  0  0  0
 49 60  1  0  0  0  0
 50 61  1  0  0  0  0
 51 61  1  0  0  0  0
 52 61  1  0  0  0  0
 53 63  1  0  0  0  0
 54 72  1  0  0  0  0
 55 57  1  0  0  0  0
 56 71  1  0  0  0  0
 57 58  1  0  0  0  0
 58 79  1  0  0  0  0
 59 61  1  0  0  0  0
 59 70  1  0  0  0  0
 60 72  1  0  0  0  0
 62 64  1  0  0  0  0
M  CHG  1  72   1
M  ISO  4  36 100  58 101  71 100  79 101
M  END
> <Batch ID>
0107

> <Smiles>
CNC(C)C(=O)NC(C(=O)N1Cc2cc([101O:1][101CH2:1]CCc3ccn(C)c3C[100NH:0][100C:0](=O)N3CCCC(n4nc(-c5ccc(Oc6ccc(F)cc6F)cc5)c(C(N)=O)c4N)C3)ccc2CC1C(=O)NC1CCCc2ccccc21)C(C)(C)C

> <Shape>
0.228

> <Color>
0.200

> <Negative vol penalty>
0.000

$$$$

  -OEChem-04052319513D

 92101  0     1  0  0  0  0  0999 V2000
  -26.2221  -34.2464   19.4888 C   0  0  0  0  0  0  0  0  0  0  0  0
  -26.8839  -33.0583   19.1958 C   0  0  0  0  0  0  0  0  0  0  0  0
  -22.9445   -9.9354   20.0662 C   0  0  0  0  0  0  0  0  0  0  0  0
  -23.5377  -10.1634   22.3971 C   0  0  0  0  0  0  0  0  0  0  0  0
  -25.7662  -34.4880   20.7840 C   0  0  0  0  0  0  0  0  0  0  0  0
  -27.0912  -32.1116   20.1984 C   0  0  0  0  0  0  0  0  0  0  0  0
  -27.5318  -25.0299   21.1845 C   0  0  0  0  0  0  0  0  0  0  0  0
  -22.1114   -8.8625   20.3832 C   0  0  0  0  0  0  0  0  0  0  0  0
  -22.7046   -9.0906   22.7141 C   0  0  0  0  0  0  0  0  0  0  0  0
  -28.3747  -24.0708   21.7444 C   0  0  0  0  0  0  0  0  0  0  0  0
  -22.8183   -5.7154   22.5519 C   0  0  0  0  0  0  0  0  0  0  0  0
  -23.3132   -4.7465   23.4247 C   0  0  0  0  0  0  0  0  0  0  0  0
  -27.4733  -24.5617   23.9274 C   0  0  0  0  0  0  0  0  0  0  0  0
  -26.1823  -20.1811   23.7461 C   0  0  0  0  0  0  0  0  0  0  0  0
  -21.5092   -5.2111   24.9633 C   0  0  0  0  0  0  0  0  0  0  0  0
  -26.3000  -18.4280   22.3379 C   0  0  0  0  0  0  0  0  0  0  0  0
  -23.6577  -10.5858   21.0732 C   0  0  0  0  0  0  0  0  0  0  0  0
  -24.1704  -13.0571   20.7018 C   0  0  0  0  0  0  0  0  0  0  0  0
  -25.9595  -33.5396   21.8007 C   0  0  0  0  0  0  0  0  0  0  0  0
  -26.6597  -25.7711   21.9947 C   0  0  0  0  0  0  0  0  0  0  0  0
  -26.6387  -32.3413   21.5088 C   0  0  0  0  0  0  0  0  0  0  0  0
  -26.6186  -25.5279   23.3750 C   0  0  0  0  0  0  0  0  0  0  0  0
  -25.4490  -19.3973   22.8213 C   0  0  0  0  0  0  0  0  0  0  0  0
  -21.9914   -8.4401   21.7071 C   0  0  0  0  0  0  0  0  0  0  0  0
  -28.3476  -23.8386   23.1164 C   0  0  0  0  0  0  0  0  0  0  0  0
  -21.6689   -6.4323   22.8848 C   0  0  0  0  0  0  0  0  0  0  0  0
  -22.6586   -4.4943   24.6304 C   0  0  0  0  0  0  0  0  0  0  0  0
  -21.0144   -6.1801   24.0904 C   0  0  0  0  0  0  0  0  0  0  0  0
  -24.5188  -11.6938   20.7463 C   0  0  0  0  0  0  0  0  0  0  0  0
  -27.4591  -19.6669   23.7995 C   0  0  0  0  0  0  0  0  0  0  0  0
  -25.3320  -13.6969   20.3445 C   0  0  0  0  0  0  0  0  0  0  0  0
  -22.9094  -13.6885   20.9605 C   0  0  0  0  0  0  0  0  0  0  0  0
  -26.3169  -28.8542   22.6877 C   0  0  0  0  0  0  0  0  0  0  0  0
  -23.6768  -27.8081   24.2555 C   0  0  0  0  0  0  0  0  0  0  0  0
  -22.0552  -25.2337   25.8014 C   0  0  0  0  0  0  0  0  0  0  0  0
  -30.7328  -14.4960   20.6671 C   0  0  0  0  0  0  0  0  0  0  0  0
  -25.4906  -33.8658   23.1966 C   0  0  0  0  0  0  0  0  0  0  0  0
  -25.7378  -26.7832   21.3718 C   0  0  0  0  0  0  0  0  0  0  0  0
  -25.6860  -26.2824   24.2858 C   0  0  0  0  0  0  0  0  0  0  0  0
  -25.4196  -32.6488   24.1153 C   0  0  0  0  0  0  0  0  0  0  0  0
  -29.7275  -11.8733   18.6502 C   0  0  0  0  0  0  0  0  0  0  0  0
  -26.6885  -31.8114   23.9912 C   0  0  0  0  0  0  0  0  0  0  0  0
  -28.2510  -11.6915   19.0019 C   0  0  0  0  0  0  0  0  0  0  0  0
  -29.2050  -17.8209   21.2164 C   0  0  0  0  0  0  0  0  0  0  0  0
  -28.5014  -16.2716   23.0887 C   0  0  0  0  0  0  0  0  0  0  0  0
  -30.5571  -12.1477   19.8996 C   0  0  0  0  0  0  0  0  0  0  0  0
  -30.4156  -16.9261   20.9618 C   0  0  0  0  0  0  0  0  0  0  0  0
  -29.7283  -15.4135   22.7935 C   0  0  0  0  0  0  0  0  0  0  0  0
  -28.6135  -13.1587   21.0464 C   0  0  0  0  0  0  0  0  0  0  0  0
  -26.8608  -31.2790   22.5635 C   0  0  1  0  0  0  0  0  0  0  0  0
  -25.2567  -27.8412   22.3601 C   0  0  1  0  0  0  0  0  0  0  0  0
  -27.7263  -12.8882   19.8149 C   0  0  2  0  0  0  0  0  0  0  0  0
  -28.7379  -17.7362   22.6799 C   0  0  0  0  0  0  0  0  0  0  0  0
  -23.0475  -18.0638   24.2577 C   0  0  0  0  0  0  0  0  0  0  0  0
  -23.8752  -19.9417   20.9458 C   0  0  0  0  0  0  0  0  0  0  0  0
  -19.9283  -24.6929   27.0184 C   0  0  0  0  0  0  0  0  0  0  0  0
  -28.7671  -17.5078   27.5699 C   0  0  0  0  0  0  0  0  0  0  0  0
  -27.6549  -19.7471   27.5272 C   0  0  0  0  0  0  0  0  0  0  0  0
  -24.7315  -29.2446   26.7322 C   0  0  0  0  0  0  0  0  0  0  0  0
  -23.1193  -27.9107   28.1069 C   0  0  0  0  0  0  0  0  0  0  0  0
  -22.2693  -29.4766   26.3610 C   0  0  0  0  0  0  0  0  0  0  0  0
  -21.2794  -23.2111   23.7850 C   0  0  0  0  0  0  0  0  0  0  0  0
  -23.1110  -18.3681   22.7659 C   0  0  0  0  0  0  0  0  0  0  0  0
  -29.8345  -20.5716   23.7210 C   0  0  0  0  0  0  0  0  0  0  0  0
  -29.1479  -19.0088   25.5900 C   0  0  0  0  0  0  0  0  0  0  0  0
  -29.5251  -21.7894   22.8516 C   0  0  0  0  0  0  0  0  0  1  0  0
  -24.0348  -19.5836   22.4448 C   0  0  1  0  0  0  0  0  0  0  0  0
  -28.6237  -20.1023   24.5978 C   0  0  2  0  0  0  0  0  0  0  0  0
  -23.3871  -27.3216   25.6549 C   0  0  1  0  0  0  0  0  0  0  0  0
  -20.6343  -24.7155   25.6717 C   0  0  2  0  0  0  0  0  0  0  0  0
  -28.1340  -18.5742   26.6708 C   0  0  0  0  0  0  0  0  0  0  0  0
  -23.3959  -28.4753   26.6971 C   0  0  0  0  0  0  0  0  0  0  0  0
  -25.8014  -11.4793   20.4414 N   0  0  0  0  0  0  0  0  0  0  0  0
  -27.5192  -18.6018   22.9392 N   0  0  0  0  0  0  0  0  0  0  0  0
  -26.2690  -12.7162   20.2018 N   0  0  0  0  0  0  0  0  0  0  0  0
  -24.8086  -27.2661   23.6301 N   0  0  0  0  0  0  0  0  0  0  0  0
  -30.0231  -13.2858   20.6476 N   0  0  0  0  0  0  0  0  0  0  0  0
  -30.1647  -15.5528   21.3975 N   0  0  0  0  0  0  0  0  0  0  0  0
  -25.6330  -14.9971   20.1414 N   0  0  0  0  0  0  0  0  0  0  0  0
  -21.8191  -12.8828   21.3161 N   0  0  0  0  0  0  0  0  0  0  0  0
  -25.9856  -30.1490   22.3364 N   0  0  0  0  0  0  0  0  0  0  0  0
  -22.1253  -26.5930   25.5807 N   0  0  0  0  0  0  0  0  0  0  0  0
  -20.6362  -23.3316   25.1187 N   0  3  0  0  0  0  0  0  0  0  0  0
  -22.7500  -14.9289   20.8628 O   0  0  0  0  0  0  0  0  0  0  0  0
  -27.3578  -28.4885   23.2211 O   0  0  0  0  0  0  0  0  0  0  0  0
  -22.9226  -28.6330   23.7337 O   0  0  0  0  0  0  0  0  0  0  0  0
  -23.0072  -24.5062   26.0752 O   0  0  0  0  0  0  0  0  0  0  0  0
  -31.8055  -14.6289   20.0650 O   0  0  0  0  0  0  0  0  0  0  0  0
  -21.1784   -7.3934   22.0168 O   0  0  0  0  0  0  0  0  0  0  0  0
  -29.1760  -22.8963   23.6697 O   0  0  0  0  0  0  0  0  0  1  0  0
  -23.1331   -3.5627   25.4678 F   0  0  0  0  0  0  0  0  0  0  0  0
  -19.9091   -6.8647   24.4151 F   0  0  0  0  0  0  0  0  0  0  0  0
  1  2  1  0  0  0  0
  1  5  2  0  0  0  0
  2  6  2  0  0  0  0
  3  8  2  0  0  0  0
  3 17  1  0  0  0  0
  4  9  1  0  0  0  0
  4 17  2  0  0  0  0
  5 19  1  0  0  0  0
  6 21  1  0  0  0  0
  7 10  2  0  0  0  0
  7 20  1  0  0  0  0
  8 24  1  0  0  0  0
  9 24  2  0  0  0  0
 10 25  1  0  0  0  0
 11 12  2  0  0  0  0
 11 26  1  0  0  0  0
 12 27  1  0  0  0  0
 13 22  1  0  0  0  0
 13 25  2  0  0  0  0
 14 23  1  0  0  0  0
 14 30  2  0  0  0  0
 15 27  2  0  0  0  0
 15 28  1  0  0  0  0
 16 23  2  0  0  0  0
 16 74  1  0  0  0  0
 17 29  1  0  0  0  0
 18 29  1  0  0  0  0
 18 31  2  0  0  0  0
 18 32  1  0  0  0  0
 19 21  2  0  0  0  0
 19 37  1  0  0  0  0
 20 22  2  0  0  0  0
 20 38  1  0  0  0  0
 21 50  1  0  0  0  0
 22 39  1  0  0  0  0
 23 67  1  0  0  0  0
 24 89  1  0  0  0  0
 25 90  1  0  0  0  0
 26 28  2  0  0  0  0
 26 89  1  0  0  0  0
 27 91  1  0  0  0  0
 28 92  1  0  0  0  0
 29 73  2  0  0  0  0
 30 68  1  0  0  0  0
 30 74  1  0  0  0  0
 31 75  1  0  0  0  0
 31 79  1  0  0  0  0
 32 80  1  0  0  0  0
 32 84  2  0  0  0  0
 33 51  1  0  0  0  0
 33 81  1  0  0  0  0
 33 85  2  0  0  0  0
 34 69  1  0  0  0  0
 34 76  1  0  0  0  0
 34 86  2  0  0  0  0
 35 70  1  0  0  0  0
 35 82  1  0  0  0  0
 35 87  2  0  0  0  0
 36 77  1  0  0  0  0
 36 78  1  0  0  0  0
 36 88  2  0  0  0  0
 37 40  1  0  0  0  0
 38 51  1  0  0  0  0
 39 76  1  0  0  0  0
 40 42  1  0  0  0  0
 41 43  1  0  0  0  0
 41 46  1  0  0  0  0
 42 50  1  0  0  0  0
 43 52  1  0  0  0  0
 44 47  1  0  0  0  0
 44 53  1  0  0  0  0
 45 48  1  0  0  0  0
 45 53  1  0  0  0  0
 46 77  1  0  0  0  0
 47 78  1  0  0  0  0
 48 78  1  0  0  0  0
 49 52  1  0  0  0  0
 49 77  1  0  0  0  0
 50 81  1  0  0  0  0
 51 76  1  0  0  0  0
 52 75  1  0  0  0  0
 53 74  1  0  0  0  0
 54 63  1  0  0  0  0
 55 67  1  0  0  0  0
 56 70  1  0  0  0  0
 57 71  1  0  0  0  0
 58 71  1  0  0  0  0
 59 72  1  0  0  0  0
 60 72  1  0  0  0  0
 61 72  1  0  0  0  0
 62 83  1  0  0  0  0
 63 67  1  0  0  0  0
 64 66  1  0  0  0  0
 64 68  1  0  0  0  0
 65 68  1  0  0  0  0
 65 71  1  0  0  0  0
 66 90  1  0  0  0  0
 69 72  1  0  0  0  0
 69 82  1  0  0  0  0
 70 83  1  0  0  0  0
 73 75  1  0  0  0  0
M  CHG  1  83   1
M  ISO  4  36 100  66 101  78 100  90 101
M  END
> <Batch ID>
0107

> <Smiles>
CCC(C)c1cc(C(CC(C)C)C[101CH2:1][101O:1]c2ccc3c(c2)CN(C(=O)C(NC(=O)C(C)NC)C(C)(C)C)C(C(=O)NC2CCCc4ccccc42)C3)n(C2CC[100N:0]([100C:0](=O)N3CCCC(n4nc(-c5ccc(Oc6ccc(F)cc6F)cc5)c(C(N)=O)c4N)C3)CC2)c1

> <Shape>
0.237

> <Color>
0.192

> <Negative vol penalty>
0.000

$$$$

  -OEChem-04052319513D

 88 96  0     1  0  0  0  0  0999 V2000
  -17.2502  -12.0765   22.0407 C   0  0  0  0  0  0  0  0  0  0  0  0
  -17.8971  -13.2820   22.2933 C   0  0  0  0  0  0  0  0  0  0  0  0
  -21.4931  -27.9898   19.7470 C   0  0  0  0  0  0  0  0  0  0  0  0
  -22.0351  -26.7099   21.7232 C   0  0  0  0  0  0  0  0  0  0  0  0
  -17.9421  -10.8737   22.1760 C   0  0  0  0  0  0  0  0  0  0  0  0
  -19.2362  -13.2851   22.6825 C   0  0  0  0  0  0  0  0  0  0  0  0
  -23.4770  -17.4640   21.2479 C   0  0  0  0  0  0  0  0  0  0  0  0
  -20.2557  -27.3504   19.6722 C   0  0  0  0  0  0  0  0  0  0  0  0
  -20.7977  -26.0705   21.6484 C   0  0  0  0  0  0  0  0  0  0  0  0
  -23.9877  -18.5591   21.9434 C   0  0  0  0  0  0  0  0  0  0  0  0
  -19.3914  -23.5658   19.8652 C   0  0  0  0  0  0  0  0  0  0  0  0
  -19.3649  -22.1826   20.0429 C   0  0  0  0  0  0  0  0  0  0  0  0
  -25.8370  -17.2080   22.7009 C   0  0  0  0  0  0  0  0  0  0  0  0
  -26.9998  -21.7274   21.1386 C   0  0  0  0  0  0  0  0  0  0  0  0
  -17.9031  -22.4552   21.9472 C   0  0  0  0  0  0  0  0  0  0  0  0
  -28.7429  -22.2646   23.1680 C   0  0  0  0  0  0  0  0  0  0  0  0
  -22.3829  -27.6695   20.7725 C   0  0  0  0  0  0  0  0  0  0  0  0
  -23.9636  -29.5196   21.5382 C   0  0  0  0  0  0  0  0  0  0  0  0
  -19.2929  -10.8626   22.5576 C   0  0  0  0  0  0  0  0  0  0  0  0
  -24.1378  -16.2276   21.2827 C   0  0  0  0  0  0  0  0  0  0  0  0
  -19.9464  -12.0809   22.8243 C   0  0  0  0  0  0  0  0  0  0  0  0
  -25.3339  -16.0994   22.0030 C   0  0  0  0  0  0  0  0  0  0  0  0
  -29.1180  -22.5956   21.8759 C   0  0  0  0  0  0  0  0  0  0  0  0
  -19.9080  -26.3908   20.6229 C   0  0  0  0  0  0  0  0  0  0  0  0
  -25.1663  -18.4304   22.6724 C   0  0  0  0  0  0  0  0  0  0  0  0
  -18.6738  -24.3938   20.7286 C   0  0  0  0  0  0  0  0  0  0  0  0
  -28.2242  -22.3186   20.8476 C   0  0  0  0  0  0  0  0  0  0  0  0
  -18.6207  -21.6273   21.0839 C   0  0  0  0  0  0  0  0  0  0  0  0
  -17.9297  -23.8385   21.7695 C   0  0  0  0  0  0  0  0  0  0  0  0
  -23.6615  -28.3293   20.8499 C   0  0  0  0  0  0  0  0  0  0  0  0
  -26.7195  -21.4351   22.4637 C   0  0  0  0  0  0  0  0  0  0  0  0
  -25.3016  -29.7219   21.3033 C   0  0  0  0  0  0  0  0  0  0  0  0
  -23.1109  -30.3666   22.3201 C   0  0  0  0  0  0  0  0  0  0  0  0
  -23.3915  -13.3136   22.3097 C   0  0  0  0  0  0  0  0  0  0  0  0
  -26.2346  -12.5323   20.9574 C   0  0  0  0  0  0  0  0  0  0  0  0
  -29.3270  -13.5422   19.9259 C   0  0  0  0  0  0  0  0  0  0  0  0
  -29.8060  -26.0224   19.9338 C   0  0  0  0  0  0  0  0  0  0  0  0
  -19.9859   -9.5350   22.7365 C   0  0  0  0  0  0  0  0  0  0  0  0
  -23.5881  -15.0632   20.5053 C   0  0  0  0  0  0  0  0  0  0  0  0
  -26.0924  -14.7992   22.0557 C   0  0  0  0  0  0  0  0  0  0  0  0
  -21.5076   -9.6445   22.7897 C   0  0  0  0  0  0  0  0  0  0  0  0
  -28.7086  -28.8445   18.0609 C   0  0  0  0  0  0  0  0  0  0  0  0
  -21.9292  -10.7747   23.7233 C   0  0  0  0  0  0  0  0  0  0  0  0
  -27.3179  -29.1399   18.6254 C   0  0  0  0  0  0  0  0  0  0  0  0
  -28.9881  -27.3443   18.0051 C   0  0  0  0  0  0  0  0  0  0  0  0
  -27.4033  -26.9256   19.8454 C   0  0  0  0  0  0  0  0  0  0  0  0
  -21.4051  -12.1268   23.2244 C   0  0  1  0  0  0  0  0  0  0  0  0
  -24.0694  -13.7139   21.0300 C   0  0  1  0  0  0  0  0  0  0  0  0
  -27.0971  -28.4277   19.9734 C   0  0  2  0  0  0  0  0  0  0  0  0
  -24.1495  -22.9623   23.3209 C   0  0  0  0  0  0  0  0  0  0  0  0
  -31.4418  -12.6698   18.8946 C   0  0  0  0  0  0  0  0  0  0  0  0
  -30.3761  -23.3781   15.7118 C   0  0  0  0  0  0  0  0  0  0  0  0
  -27.9183  -23.1223   16.1063 C   0  0  0  0  0  0  0  0  0  0  0  0
  -27.0216  -11.2879   23.6298 C   0  0  0  0  0  0  0  0  0  0  0  0
  -29.4023  -11.2999   22.8551 C   0  0  0  0  0  0  0  0  0  0  0  0
  -27.6978   -9.9601   21.6213 C   0  0  0  0  0  0  0  0  0  0  0  0
  -29.0459  -15.3124   17.5708 C   0  0  0  0  0  0  0  0  0  0  0  0
  -30.4405  -23.2279   21.6146 C   0  0  0  0  0  0  0  0  0  0  0  0
  -24.5720  -21.5937   23.8338 C   0  0  0  0  0  0  0  0  0  0  0  0
  -29.5939  -21.8534   17.5467 C   0  0  0  0  0  0  0  0  0  0  0  0
  -30.4823  -24.7269   21.9397 C   0  0  0  0  0  0  0  0  0  0  0  0
  -28.5681  -21.5363   18.6282 C   0  0  0  0  0  0  0  0  0  0  0  0
  -25.3983  -20.7929   22.8174 C   0  0  2  0  0  0  0  0  0  1  0  0
  -27.6665  -12.4811   21.4329 C   0  0  1  0  0  0  0  0  0  0  0  0
  -30.0849  -13.3042   18.6323 C   0  0  2  0  0  0  0  0  0  0  0  0
  -29.2955  -23.1463   16.7706 C   0  0  0  0  0  0  0  0  0  0  0  0
  -27.9319  -11.2813   22.3856 C   0  0  0  0  0  0  0  0  0  0  0  0
  -27.5625  -21.6894   23.4895 N   0  0  0  0  0  0  0  0  0  0  0  0
  -24.7222  -27.8119   20.2245 N   0  0  0  0  0  0  0  0  0  0  0  0
  -25.7039  -28.6812   20.5188 N   0  0  0  0  0  0  0  0  0  0  0  0
  -25.5112  -13.6881   21.2843 N   0  0  0  0  0  0  0  0  0  0  0  0
  -28.7617  -26.7293   19.3152 N   0  0  0  0  0  0  0  0  0  0  0  0
  -26.1615  -30.6867   21.6932 N   0  0  0  0  0  0  0  0  0  0  0  0
  -21.7623  -30.0116   22.4591 N   0  0  0  0  0  0  0  0  0  0  0  0
  -22.2163  -12.6098   22.1276 N   0  0  0  0  0  0  0  0  0  0  0  0
  -28.4956  -12.4858   20.2325 N   0  0  0  0  0  0  0  0  0  0  0  0
  -29.5093  -25.4764   21.1767 N   0  0  0  0  0  0  0  0  0  0  0  0
  -30.2992  -14.5918   17.9131 N   0  3  0  0  0  0  0  0  0  0  0  0
  -23.5289  -31.4161   22.8653 O   0  0  0  0  0  0  0  0  0  0  0  0
  -23.8979  -13.6192   23.3830 O   0  0  0  0  0  0  0  0  0  0  0  0
  -25.7770  -11.5850   20.3133 O   0  0  0  0  0  0  0  0  0  0  0  0
  -29.4620  -14.5615   20.5991 O   0  0  0  0  0  0  0  0  0  0  0  0
  -30.9219  -25.8922   19.4193 O   0  0  0  0  0  0  0  0  0  0  0  0
  -18.7005  -25.7668   20.5504 O   0  0  0  0  0  0  0  0  0  0  0  0
  -28.5317  -22.6196   19.5556 O   0  0  0  0  0  0  0  0  0  0  0  0
  -25.6666  -19.4976   23.3527 O   0  0  0  0  0  0  0  0  0  1  0  0
  -18.5941  -20.2989   21.2534 F   0  0  0  0  0  0  0  0  0  0  0  0
  -17.2374  -24.6287   22.6014 F   0  0  0  0  0  0  0  0  0  0  0  0
  1  2  1  0  0  0  0
  1  5  2  0  0  0  0
  2  6  2  0  0  0  0
  3  8  2  0  0  0  0
  3 17  1  0  0  0  0
  4  9  1  0  0  0  0
  4 17  2  0  0  0  0
  5 19  1  0  0  0  0
  6 21  1  0  0  0  0
  7 10  2  0  0  0  0
  7 20  1  0  0  0  0
  8 24  1  0  0  0  0
  9 24  2  0  0  0  0
 10 25  1  0  0  0  0
 11 12  2  0  0  0  0
 11 26  1  0  0  0  0
 12 28  1  0  0  0  0
 13 22  1  0  0  0  0
 13 25  2  0  0  0  0
 14 27  2  0  0  0  0
 14 31  1  0  0  0  0
 15 28  2  0  0  0  0
 15 29  1  0  0  0  0
 16 23  2  0  0  0  0
 16 68  1  0  0  0  0
 17 30  1  0  0  0  0
 18 30  1  0  0  0  0
 18 32  2  0  0  0  0
 18 33  1  0  0  0  0
 19 21  2  0  0  0  0
 19 38  1  0  0  0  0
 20 22  2  0  0  0  0
 20 39  1  0  0  0  0
 21 47  1  0  0  0  0
 22 40  1  0  0  0  0
 23 27  1  0  0  0  0
 23 58  1  0  0  0  0
 24 84  1  0  0  0  0
 25 86  1  0  0  0  0
 26 29  2  0  0  0  0
 26 84  1  0  0  0  0
 27 85  1  0  0  0  0
 28 87  1  0  0  0  0
 29 88  1  0  0  0  0
 30 69  2  0  0  0  0
 31 63  1  0  0  0  0
 31 68  2  0  0  0  0
 32 70  1  0  0  0  0
 32 73  1  0  0  0  0
 33 74  1  0  0  0  0
 33 79  2  0  0  0  0
 34 48  1  0  0  0  0
 34 75  1  0  0  0  0
 34 80  2  0  0  0  0
 35 64  1  0  0  0  0
 35 71  1  0  0  0  0
 35 81  2  0  0  0  0
 36 65  1  0  0  0  0
 36 76  1  0  0  0  0
 36 82  2  0  0  0  0
 37 72  1  0  0  0  0
 37 77  1  0  0  0  0
 37 83  2  0  0  0  0
 38 41  1  0  0  0  0
 39 48  1  0  0  0  0
 40 71  1  0  0  0  0
 41 43  1  0  0  0  0
 42 44  1  0  0  0  0
 42 45  1  0  0  0  0
 43 47  1  0  0  0  0
 44 49  1  0  0  0  0
 45 72  1  0  0  0  0
 46 49  1  0  0  0  0
 46 72  1  0  0  0  0
 47 75  1  0  0  0  0
 48 71  1  0  0  0  0
 49 70  1  0  0  0  0
 50 59  1  0  0  0  0
 51 65  1  0  0  0  0
 52 66  1  0  0  0  0
 53 66  1  0  0  0  0
 54 67  1  0  0  0  0
 55 67  1  0  0  0  0
 56 67  1  0  0  0  0
 57 78  1  0  0  0  0
 58 61  1  0  0  0  0
 59 63  1  0  0  0  0
 60 62  1  0  0  0  0
 60 66  1  0  0  0  0
 61 77  1  0  0  0  0
 62 85  1  0  0  0  0
 63 86  1  0  0  0  0
 64 67  1  0  0  0  0
 64 76  1  0  0  0  0
 65 78  1  0  0  0  0
 69 70  1  0  0  0  0
M  CHG  1  78   1
M  ISO  4  37 100  63 101  77 100  86 101
M  END
> <Batch ID>
0107

> <Smiles>
CC[101CH:1](c1cc(OCCC(C)C)c(CC[100NH:0][100C:0](=O)N2CCCC(n3nc(-c4ccc(Oc5ccc(F)cc5F)cc4)c(C(N)=O)c3N)C2)cn1)[101O:1]c1ccc2c(c1)CN(C(=O)C(NC(=O)C(C)NC)C(C)(C)C)C(C(=O)NC1CCCc3ccccc31)C2

> <Shape>
0.222

> <Color>
0.075

> <Negative vol penalty>
0.000

$$$$

  -OEChem-04052319513D

 85 93  0     1  0  0  0  0  0999 V2000
  -29.3970  -30.7285   20.2578 C   0  0  0  0  0  0  0  0  0  0  0  0
  -28.9576  -29.5481   20.8485 C   0  0  0  0  0  0  0  0  0  0  0  0
  -22.9791   -9.9883   19.9748 C   0  0  0  0  0  0  0  0  0  0  0  0
  -23.9501   -9.6861   22.1663 C   0  0  0  0  0  0  0  0  0  0  0  0
  -28.5179  -31.4923   19.4911 C   0  0  0  0  0  0  0  0  0  0  0  0
  -27.6385  -29.1313   20.6737 C   0  0  0  0  0  0  0  0  0  0  0  0
  -27.2864  -24.1928   19.6095 C   0  0  0  0  0  0  0  0  0  0  0  0
  -22.2601   -8.8032   20.1299 C   0  0  0  0  0  0  0  0  0  0  0  0
  -23.2310   -8.5010   22.3215 C   0  0  0  0  0  0  0  0  0  0  0  0
  -27.4196  -23.3012   20.6730 C   0  0  0  0  0  0  0  0  0  0  0  0
  -21.3754   -5.5826   23.4430 C   0  0  0  0  0  0  0  0  0  0  0  0
  -20.7319   -5.3685   24.6618 C   0  0  0  0  0  0  0  0  0  0  0  0
  -25.0203  -23.0727   20.7740 C   0  0  0  0  0  0  0  0  0  0  0  0
  -26.9541  -18.5151   20.8883 C   0  0  0  0  0  0  0  0  0  0  0  0
  -19.4274   -7.3741   24.3254 C   0  0  0  0  0  0  0  0  0  0  0  0
  -23.8242  -10.4298   20.9929 C   0  0  0  0  0  0  0  0  0  0  0  0
  -24.1573  -12.9509   21.1940 C   0  0  0  0  0  0  0  0  0  0  0  0
  -27.1900  -31.0796   19.2988 C   0  0  0  0  0  0  0  0  0  0  0  0
  -26.0166  -24.5400   19.1265 C   0  0  0  0  0  0  0  0  0  0  0  0
  -26.7404  -29.8909   19.9047 C   0  0  0  0  0  0  0  0  0  0  0  0
  -24.8738  -23.9669   19.7025 C   0  0  0  0  0  0  0  0  0  0  0  0
  -27.1147  -19.0298   22.1984 C   0  0  0  0  0  0  0  0  0  0  0  0
  -22.3860   -8.0596   21.3033 C   0  0  0  0  0  0  0  0  0  0  0  0
  -26.2863  -22.7432   21.2573 C   0  0  0  0  0  0  0  0  0  0  0  0
  -21.0450   -6.6925   22.6653 C   0  0  0  0  0  0  0  0  0  0  0  0
  -19.7579   -6.2642   25.1030 C   0  0  0  0  0  0  0  0  0  0  0  0
  -20.0710   -7.5882   23.1065 C   0  0  0  0  0  0  0  0  0  0  0  0
  -24.5677  -11.6536   20.8330 C   0  0  0  0  0  0  0  0  0  0  0  0
  -28.1920  -18.0912   20.4582 C   0  0  0  0  0  0  0  0  0  0  0  0
  -28.4460  -18.9049   22.5290 C   0  0  0  0  0  0  0  0  0  0  0  0
  -25.2119  -13.7560   20.8386 C   0  0  0  0  0  0  0  0  0  0  0  0
  -22.9323  -13.3891   21.7966 C   0  0  0  0  0  0  0  0  0  0  0  0
  -24.3599  -27.2444   18.9138 C   0  0  0  0  0  0  0  0  0  0  0  0
  -22.2651  -25.3769   17.2870 C   0  0  0  0  0  0  0  0  0  0  0  0
  -21.0479  -22.2493   16.6677 C   0  0  0  0  0  0  0  0  0  0  0  0
  -30.6908  -14.8018   20.6572 C   0  0  0  0  0  0  0  0  0  0  0  0
  -26.2638  -31.9627   18.5007 C   0  0  0  0  0  0  0  0  0  0  0  0
  -25.8910  -25.4826   17.9611 C   0  0  0  0  0  0  0  0  0  0  0  0
  -23.4887  -24.2913   19.2078 C   0  0  0  0  0  0  0  0  0  0  0  0
  -24.9848  -31.2586   18.0549 C   0  0  0  0  0  0  0  0  0  0  0  0
  -29.3313  -12.7582   18.0780 C   0  0  0  0  0  0  0  0  0  0  0  0
  -24.3698  -30.4834   19.2158 C   0  0  0  0  0  0  0  0  0  0  0  0
  -27.9402  -12.3908   18.5974 C   0  0  0  0  0  0  0  0  0  0  0  0
  -30.3570  -12.8209   19.2076 C   0  0  0  0  0  0  0  0  0  0  0  0
  -28.5944  -13.3310   20.8528 C   0  0  0  0  0  0  0  0  0  0  0  0
  -25.3237  -29.3928   19.7178 C   0  0  1  0  0  0  0  0  0  0  0  0
  -24.5268  -26.1613   17.8858 C   0  0  1  0  0  0  0  0  0  0  0  0
  -27.5141  -13.3101   19.7579 C   0  0  2  0  0  0  0  0  0  0  0  0
  -28.5888  -17.4767   19.1746 C   0  0  0  0  0  0  0  0  0  0  0  0
  -29.1592  -19.2809   23.7684 C   0  0  0  0  0  0  0  0  0  0  0  0
  -24.2608  -16.4536   24.5714 C   0  0  0  0  0  0  0  0  0  0  0  0
  -19.3103  -21.0435   15.3172 C   0  0  0  0  0  0  0  0  0  0  0  0
  -20.1029  -26.3424   19.2113 C   0  0  0  0  0  0  0  0  0  0  0  0
  -18.6684  -24.4392   18.4443 C   0  0  0  0  0  0  0  0  0  0  0  0
  -19.3817  -26.1941   16.8212 C   0  0  0  0  0  0  0  0  0  0  0  0
  -23.0953  -20.6664   15.2320 C   0  0  0  0  0  0  0  0  0  0  0  0
  -25.4025  -17.3879   24.2006 C   0  0  0  0  0  0  0  0  0  0  0  0
  -24.9008  -18.5873   23.3890 C   0  0  0  0  0  0  0  0  0  0  0  0
  -30.5063  -18.0312   21.4080 C   0  0  0  0  0  0  0  0  0  0  0  0
  -30.8754  -16.7608   22.1695 C   0  0  0  0  0  0  0  0  0  0  0  0
  -25.4072  -20.8703   22.4300 C   0  0  0  0  0  0  0  0  0  1  0  0
  -26.0129  -19.6114   23.0734 C   0  0  2  0  0  0  0  0  0  0  0  0
  -21.0799  -24.5212   17.6638 C   0  0  1  0  0  0  0  0  0  0  0  0
  -20.7528  -21.5224   15.3682 C   0  0  2  0  0  0  0  0  0  0  0  0
  -19.8341  -25.3694   18.0460 C   0  0  0  0  0  0  0  0  0  0  0  0
  -25.7878  -11.6311   20.2899 N   0  0  0  0  0  0  0  0  0  0  0  0
  -29.0914  -18.3334   21.4636 N   0  0  0  0  0  0  0  0  0  0  0  0
  -26.1530  -12.9243   20.3069 N   0  0  0  0  0  0  0  0  0  0  0  0
  -23.4178  -25.2231   18.0702 N   0  0  0  0  0  0  0  0  0  0  0  0
  -29.8933  -13.7104   20.2752 N   0  0  0  0  0  0  0  0  0  0  0  0
  -25.4166  -15.0870   20.9322 N   0  0  0  0  0  0  0  0  0  0  0  0
  -21.9550  -12.4305   22.0966 N   0  0  0  0  0  0  0  0  0  0  0  0
  -25.3011  -28.2523   18.8271 N   0  0  0  0  0  0  0  0  0  0  0  0
  -20.8622  -23.6101   16.5453 N   0  0  0  0  0  0  0  0  0  0  0  0
  -30.1745  -15.5981   21.6721 N   0  0  0  0  0  0  0  0  0  0  0  0
  -21.6464  -20.3386   15.2223 N   0  3  0  0  0  0  0  0  0  0  0  0
  -22.7044  -14.5972   22.0461 O   0  0  0  0  0  0  0  0  0  0  0  0
  -23.4439  -27.1718   19.7247 O   0  0  0  0  0  0  0  0  0  0  0  0
  -22.1739  -26.1480   16.3285 O   0  0  0  0  0  0  0  0  0  0  0  0
  -21.4037  -21.6677   17.6903 O   0  0  0  0  0  0  0  0  0  0  0  0
  -31.7796  -15.0514   20.1289 O   0  0  0  0  0  0  0  0  0  0  0  0
  -21.6843   -6.9032   21.4551 O   0  0  0  0  0  0  0  0  0  0  0  0
  -26.4135  -21.8732   22.2959 O   0  0  0  0  0  0  0  0  0  1  0  0
  -19.1389   -6.0576   26.2728 F   0  0  0  0  0  0  0  0  0  0  0  0
  -19.7485   -8.6556   22.3633 F   0  0  0  0  0  0  0  0  0  0  0  0
  1  2  1  0  0  0  0
  1  5  2  0  0  0  0
  2  6  2  0  0  0  0
  3  8  2  0  0  0  0
  3 16  1  0  0  0  0
  4  9  1  0  0  0  0
  4 16  2  0  0  0  0
  5 18  1  0  0  0  0
  6 20  1  0  0  0  0
  7 10  2  0  0  0  0
  7 19  1  0  0  0  0
  8 23  1  0  0  0  0
  9 23  2  0  0  0  0
 10 24  1  0  0  0  0
 11 12  2  0  0  0  0
 11 25  1  0  0  0  0
 12 26  1  0  0  0  0
 13 21  1  0  0  0  0
 13 24  2  0  0  0  0
 14 22  1  0  0  0  0
 14 29  2  0  0  0  0
 15 26  2  0  0  0  0
 15 27  1  0  0  0  0
 16 28  1  0  0  0  0
 17 28  1  0  0  0  0
 17 31  2  0  0  0  0
 17 32  1  0  0  0  0
 18 20  2  0  0  0  0
 18 37  1  0  0  0  0
 19 21  2  0  0  0  0
 19 38  1  0  0  0  0
 20 46  1  0  0  0  0
 21 39  1  0  0  0  0
 22 30  2  0  0  0  0
 22 62  1  0  0  0  0
 23 82  1  0  0  0  0
 24 83  1  0  0  0  0
 25 27  2  0  0  0  0
 25 82  1  0  0  0  0
 26 84  1  0  0  0  0
 27 85  1  0  0  0  0
 28 66  2  0  0  0  0
 29 49  1  0  0  0  0
 29 67  1  0  0  0  0
 30 50  1  0  0  0  0
 30 67  1  0  0  0  0
 31 68  1  0  0  0  0
 31 71  1  0  0  0  0
 32 72  1  0  0  0  0
 32 77  2  0  0  0  0
 33 47  1  0  0  0  0
 33 73  1  0  0  0  0
 33 78  2  0  0  0  0
 34 63  1  0  0  0  0
 34 69  1  0  0  0  0
 34 79  2  0  0  0  0
 35 64  1  0  0  0  0
 35 74  1  0  0  0  0
 35 80  2  0  0  0  0
 36 70  1  0  0  0  0
 36 75  1  0  0  0  0
 36 81  2  0  0  0  0
 37 40  1  0  0  0  0
 38 47  1  0  0  0  0
 39 69  1  0  0  0  0
 40 42  1  0  0  0  0
 41 43  1  0  0  0  0
 41 44  1  0  0  0  0
 42 46  1  0  0  0  0
 43 48  1  0  0  0  0
 44 70  1  0  0  0  0
 45 48  1  0  0  0  0
 45 70  1  0  0  0  0
 46 73  1  0  0  0  0
 47 69  1  0  0  0  0
 48 68  1  0  0  0  0
 51 57  1  0  0  0  0
 52 64  1  0  0  0  0
 53 65  1  0  0  0  0
 54 65  1  0  0  0  0
 55 65  1  0  0  0  0
 56 76  1  0  0  0  0
 57 58  1  0  0  0  0
 58 62  1  0  0  0  0
 59 60  1  0  0  0  0
 59 67  1  0  0  0  0
 60 75  1  0  0  0  0
 61 62  1  0  0  0  0
 61 83  1  0  0  0  0
 63 65  1  0  0  0  0
 63 74  1  0  0  0  0
 64 76  1  0  0  0  0
 66 68  1  0  0  0  0
M  CHG  1  76   1
M  ISO  4  36 100  61 101  75 100  83 101
M  END
> <Batch ID>
0107

> <Smiles>
CCCC(c1cc(C)n(CC[100NH:0][100C:0](=O)N2CCCC(n3nc(-c4ccc(Oc5ccc(F)cc5F)cc4)c(C(N)=O)c3N)C2)c1C)[101CH2:1][101O:1]c1ccc2c(c1)CN(C(=O)C(NC(=O)C(C)NC)C(C)(C)C)C(C(=O)NC1CCCc3ccccc31)C2

> <Shape>
0.237

> <Color>
0.175

> <Negative vol penalty>
0.000

$$$$

  -OEChem-04052319513D

 80 88  0     1  0  0  0  0  0999 V2000
  -27.6511  -33.6408   26.0980 C   0  0  0  0  0  0  0  0  0  0  0  0
  -27.8738  -32.4400   25.4319 C   0  0  0  0  0  0  0  0  0  0  0  0
  -24.4241  -14.1017   20.5597 C   0  0  0  0  0  0  0  0  0  0  0  0
  -26.7891  -13.7882   20.9412 C   0  0  0  0  0  0  0  0  0  0  0  0
  -26.3541  -34.0099   26.4524 C   0  0  0  0  0  0  0  0  0  0  0  0
  -26.7997  -31.6069   25.1208 C   0  0  0  0  0  0  0  0  0  0  0  0
  -27.0375  -29.8153   20.3902 C   0  0  0  0  0  0  0  0  0  0  0  0
  -24.2857  -12.7388   20.2972 C   0  0  0  0  0  0  0  0  0  0  0  0
  -26.6507  -12.4252   20.6787 C   0  0  0  0  0  0  0  0  0  0  0  0
  -27.9161  -28.7591   20.1527 C   0  0  0  0  0  0  0  0  0  0  0  0
  -23.2447   -9.2809   19.8800 C   0  0  0  0  0  0  0  0  0  0  0  0
  -22.1687   -8.6137   20.4652 C   0  0  0  0  0  0  0  0  0  0  0  0
  -26.0704  -27.2091   20.2526 C   0  0  0  0  0  0  0  0  0  0  0  0
  -22.9973   -9.2005   22.6575 C   0  0  0  0  0  0  0  0  0  0  0  0
  -25.6758  -14.6264   20.8817 C   0  0  0  0  0  0  0  0  0  0  0  0
  -25.1812  -16.7746   22.1656 C   0  0  0  0  0  0  0  0  0  0  0  0
  -25.2626  -33.1855   26.1369 C   0  0  0  0  0  0  0  0  0  0  0  0
  -25.6680  -29.5747   20.5717 C   0  0  0  0  0  0  0  0  0  0  0  0
  -25.4871  -31.9646   25.4725 C   0  0  0  0  0  0  0  0  0  0  0  0
  -25.1761  -28.2642   20.4896 C   0  0  0  0  0  0  0  0  0  0  0  0
  -25.3990  -11.9006   20.3567 C   0  0  0  0  0  0  0  0  0  0  0  0
  -27.4330  -27.4555   20.0868 C   0  0  0  0  0  0  0  0  0  0  0  0
  -24.1971   -9.9079   20.6834 C   0  0  0  0  0  0  0  0  0  0  0  0
  -22.0449   -8.5735   21.8540 C   0  0  0  0  0  0  0  0  0  0  0  0
  -24.0733   -9.8677   22.0722 C   0  0  0  0  0  0  0  0  0  0  0  0
  -25.8194  -16.0343   21.1524 C   0  0  0  0  0  0  0  0  0  0  0  0
  -25.6488  -18.0556   22.0012 C   0  0  0  0  0  0  0  0  0  0  0  0
  -24.2492  -16.3430   23.1659 C   0  0  0  0  0  0  0  0  0  0  0  0
  -23.6060  -30.0313   22.9473 C   0  0  0  0  0  0  0  0  0  0  0  0
  -21.4420  -29.0538   20.7373 C   0  0  0  0  0  0  0  0  0  0  0  0
  -30.6855  -20.0823   19.5930 C   0  0  0  0  0  0  0  0  0  0  0  0
  -20.8136  -27.3124   17.8704 C   0  0  0  0  0  0  0  0  0  0  0  0
  -23.8839  -33.6043   26.5824 C   0  0  0  0  0  0  0  0  0  0  0  0
  -24.7295  -30.7277   20.8005 C   0  0  0  0  0  0  0  0  0  0  0  0
  -23.7117  -27.9549   20.6574 C   0  0  0  0  0  0  0  0  0  0  0  0
  -22.7604  -32.8425   25.8840 C   0  0  0  0  0  0  0  0  0  0  0  0
  -27.3041  -21.0465   18.6638 C   0  0  0  0  0  0  0  0  0  0  0  0
  -23.0573  -31.3464   25.8716 C   0  0  0  0  0  0  0  0  0  0  0  0
  -30.3140  -24.5130   20.6568 C   0  0  0  0  0  0  0  0  0  0  0  0
  -30.0048  -24.7724   18.1640 C   0  0  0  0  0  0  0  0  0  0  0  0
  -31.0544  -23.1965   20.4279 C   0  0  0  0  0  0  0  0  0  0  0  0
  -30.7451  -23.4559   17.9352 C   0  0  0  0  0  0  0  0  0  0  0  0
  -26.4839  -19.9100   19.2728 C   0  0  0  0  0  0  0  0  0  0  0  0
  -28.6506  -20.5505   18.1432 C   0  0  0  0  0  0  0  0  0  0  0  0
  -28.6464  -18.6934   19.7789 C   0  0  0  0  0  0  0  0  0  0  0  0
  -24.3453  -31.0458   25.0956 C   0  0  1  0  0  0  0  0  0  0  0  0
  -23.4290  -30.3134   21.4821 C   0  0  1  0  0  0  0  0  0  0  0  0
  -30.4575  -25.4598   19.4585 C   0  0  0  0  0  0  0  0  0  0  0  0
  -30.6016  -22.5092   19.1336 C   0  0  0  0  0  0  0  0  0  0  0  0
  -27.2934  -19.1575   20.3434 C   0  0  2  0  0  0  0  0  0  0  0  0
  -18.9418  -26.6625   16.3304 C   0  0  0  0  0  0  0  0  0  0  0  0
  -32.7946  -21.3388   19.5010 C   0  0  0  0  0  0  0  0  0  0  0  0
  -31.4768  -20.9126   17.4042 C   0  0  0  0  0  0  0  0  0  0  0  0
  -20.5052  -26.9697   22.7595 C   0  0  0  0  0  0  0  0  0  0  0  0
  -19.3487  -25.7750   20.8877 C   0  0  0  0  0  0  0  0  0  0  0  0
  -18.6656  -28.0963   21.4942 C   0  0  0  0  0  0  0  0  0  0  0  0
  -22.0572  -28.7134   15.5792 C   0  0  0  0  0  0  0  0  0  0  0  0
  -29.6684  -26.7469   19.6903 C   0  0  0  0  0  0  0  0  0  1  0  0
  -20.8711  -27.7211   20.3166 C   0  0  1  0  0  0  0  0  0  0  0  0
  -20.0358  -27.6787   16.6193 C   0  0  2  0  0  0  0  0  0  0  0  0
  -31.3907  -21.2219   18.9017 C   0  0  0  0  0  0  0  0  0  0  0  0
  -19.8756  -27.1458   21.3632 C   0  0  0  0  0  0  0  0  0  0  0  0
  -26.6304  -16.7827   20.4000 N   0  0  0  0  0  0  0  0  0  0  0  0
  -26.5050  -18.0066   20.9406 N   0  0  0  0  0  0  0  0  0  0  0  0
  -22.8349  -29.1154   20.8854 N   0  0  0  0  0  0  0  0  0  0  0  0
  -29.3785  -19.8155   19.1845 N   0  0  0  0  0  0  0  0  0  0  0  0
  -25.4068  -19.2078   22.6617 N   0  0  0  0  0  0  0  0  0  0  0  0
  -24.7491  -15.8992   24.3978 N   0  0  0  0  0  0  0  0  0  0  0  0
  -24.1008  -31.1000   23.6702 N   0  0  0  0  0  0  0  0  0  0  0  0
  -20.2945  -27.9239   18.9919 N   0  0  0  0  0  0  0  0  0  0  0  0
  -20.9467  -27.7363   15.4412 N   0  3  0  0  0  0  0  0  0  0  0  0
  -23.0107  -16.3351   22.9671 O   0  0  0  0  0  0  0  0  0  0  0  0
  -23.3137  -28.9265   23.3895 O   0  0  0  0  0  0  0  0  0  0  0  0
  -20.6808  -30.0070   20.9207 O   0  0  0  0  0  0  0  0  0  0  0  0
  -31.2791  -19.4512   20.4713 O   0  0  0  0  0  0  0  0  0  0  0  0
  -21.7824  -26.5562   17.8548 O   0  0  0  0  0  0  0  0  0  0  0  0
  -25.2644  -10.5705   20.1008 O   0  0  0  0  0  0  0  0  0  0  0  0
  -28.2886  -26.4228   19.8558 O   0  0  0  0  0  0  0  0  0  1  0  0
  -21.0107   -7.9340   22.4159 F   0  0  0  0  0  0  0  0  0  0  0  0
  -24.9845  -10.4692   22.8493 F   0  0  0  0  0  0  0  0  0  0  0  0
  1  2  1  0  0  0  0
  1  5  2  0  0  0  0
  2  6  2  0  0  0  0
  3  8  2  0  0  0  0
  3 15  1  0  0  0  0
  4  9  1  0  0  0  0
  4 15  2  0  0  0  0
  5 17  1  0  0  0  0
  6 19  1  0  0  0  0
  7 10  2  0  0  0  0
  7 18  1  0  0  0  0
  8 21  1  0  0  0  0
  9 21  2  0  0  0  0
 10 22  1  0  0  0  0
 11 12  2  0  0  0  0
 11 23  1  0  0  0  0
 12 24  1  0  0  0  0
 13 20  1  0  0  0  0
 13 22  2  0  0  0  0
 14 24  2  0  0  0  0
 14 25  1  0  0  0  0
 15 26  1  0  0  0  0
 16 26  1  0  0  0  0
 16 27  2  0  0  0  0
 16 28  1  0  0  0  0
 17 19  2  0  0  0  0
 17 33  1  0  0  0  0
 18 20  2  0  0  0  0
 18 34  1  0  0  0  0
 19 46  1  0  0  0  0
 20 35  1  0  0  0  0
 21 77  1  0  0  0  0
 22 78  1  0  0  0  0
 23 25  2  0  0  0  0
 23 77  1  0  0  0  0
 24 79  1  0  0  0  0
 25 80  1  0  0  0  0
 26 63  2  0  0  0  0
 27 64  1  0  0  0  0
 27 67  1  0  0  0  0
 28 68  1  0  0  0  0
 28 72  2  0  0  0  0
 29 47  1  0  0  0  0
 29 69  1  0  0  0  0
 29 73  2  0  0  0  0
 30 59  1  0  0  0  0
 30 65  1  0  0  0  0
 30 74  2  0  0  0  0
 31 61  1  0  0  0  0
 31 66  1  0  0  0  0
 31 75  2  0  0  0  0
 32 60  1  0  0  0  0
 32 70  1  0  0  0  0
 32 76  2  0  0  0  0
 33 36  1  0  0  0  0
 34 47  1  0  0  0  0
 35 65  1  0  0  0  0
 36 38  1  0  0  0  0
 37 43  1  0  0  0  0
 37 44  1  0  0  0  0
 38 46  1  0  0  0  0
 39 41  1  0  0  0  0
 39 48  1  0  0  0  0
 40 42  1  0  0  0  0
 40 48  1  0  0  0  0
 41 49  1  0  0  0  0
 42 49  1  0  0  0  0
 43 50  1  0  0  0  0
 44 66  1  0  0  0  0
 45 50  1  0  0  0  0
 45 66  1  0  0  0  0
 46 69  1  0  0  0  0
 47 65  1  0  0  0  0
 48 58  1  0  0  0  0
 49 61  1  0  0  0  0
 50 64  1  0  0  0  0
 51 60  1  0  0  0  0
 52 61  1  0  0  0  0
 53 61  1  0  0  0  0
 54 62  1  0  0  0  0
 55 62  1  0  0  0  0
 56 62  1  0  0  0  0
 57 71  1  0  0  0  0
 58 78  1  0  0  0  0
 59 62  1  0  0  0  0
 59 70  1  0  0  0  0
 60 71  1  0  0  0  0
 63 64  1  0  0  0  0
M  CHG  1  71   1
M  ISO  4  31 100  58 101  61 100  78 101
M  END
> <Batch ID>
0107

> <Smiles>
CNC(C)C(=O)NC(C(=O)N1Cc2cc([101O:1][101CH2:1]C3CCC([100C:0](C)(C)[100C:0](=O)N4CCCC(n5nc(-c6ccc(Oc7ccc(F)cc7F)cc6)c(C(N)=O)c5N)C4)CC3)ccc2CC1C(=O)NC1CCCc2ccccc21)C(C)(C)C

> <Shape>
0.303

> <Color>
0.097

> <Negative vol penalty>
0.000

$$$$

  -OEChem-04052319513D

 77 84  0     1  0  0  0  0  0999 V2000
  -26.1723  -35.1917   24.2778 C   0  0  0  0  0  0  0  0  0  0  0  0
  -26.6728  -33.9295   23.9747 C   0  0  0  0  0  0  0  0  0  0  0  0
  -22.2713  -18.2247   20.3321 C   0  0  0  0  0  0  0  0  0  0  0  0
  -24.3803  -17.6129   21.3396 C   0  0  0  0  0  0  0  0  0  0  0  0
  -24.8216  -35.3493   24.5853 C   0  0  0  0  0  0  0  0  0  0  0  0
  -25.8230  -32.8239   23.9802 C   0  0  0  0  0  0  0  0  0  0  0  0
  -26.5167  -29.8205   19.9623 C   0  0  0  0  0  0  0  0  0  0  0  0
  -21.9110  -16.8786   20.2690 C   0  0  0  0  0  0  0  0  0  0  0  0
  -24.0200  -16.2669   21.2765 C   0  0  0  0  0  0  0  0  0  0  0  0
  -27.6176  -28.9654   19.9891 C   0  0  0  0  0  0  0  0  0  0  0  0
  -23.5050  -12.6943   21.7117 C   0  0  0  0  0  0  0  0  0  0  0  0
  -23.7392  -11.9060   22.8383 C   0  0  0  0  0  0  0  0  0  0  0  0
  -26.1779  -27.1422   20.6390 C   0  0  0  0  0  0  0  0  0  0  0  0
  -22.2950  -13.3392   24.1411 C   0  0  0  0  0  0  0  0  0  0  0  0
  -23.5060  -18.5918   20.8674 C   0  0  0  0  0  0  0  0  0  0  0  0
  -23.6346  -20.8793   21.9892 C   0  0  0  0  0  0  0  0  0  0  0  0
  -23.9528  -34.2466   24.5851 C   0  0  0  0  0  0  0  0  0  0  0  0
  -25.2377  -29.3446   20.2848 C   0  0  0  0  0  0  0  0  0  0  0  0
  -24.4596  -32.9667   24.2893 C   0  0  0  0  0  0  0  0  0  0  0  0
  -25.0621  -27.9927   20.6131 C   0  0  0  0  0  0  0  0  0  0  0  0
  -22.7853  -15.8998   20.7412 C   0  0  0  0  0  0  0  0  0  0  0  0
  -27.4487  -27.6267   20.3303 C   0  0  0  0  0  0  0  0  0  0  0  0
  -22.6660  -13.8051   21.7997 C   0  0  0  0  0  0  0  0  0  0  0  0
  -23.1341  -12.2284   24.0531 C   0  0  0  0  0  0  0  0  0  0  0  0
  -22.0609  -14.1275   23.0144 C   0  0  0  0  0  0  0  0  0  0  0  0
  -23.8790  -19.9821   20.9323 C   0  0  0  0  0  0  0  0  0  0  0  0
  -24.1819  -22.0658   21.5658 C   0  0  0  0  0  0  0  0  0  0  0  0
  -22.9721  -20.6599   23.2416 C   0  0  0  0  0  0  0  0  0  0  0  0
  -23.1013  -30.0072   22.5432 C   0  0  0  0  0  0  0  0  0  0  0  0
  -21.2441  -27.9655   20.8389 C   0  0  0  0  0  0  0  0  0  0  0  0
  -20.6948  -24.9668   18.9092 C   0  0  0  0  0  0  0  0  0  0  0  0
  -28.5558  -23.2511   17.7816 C   0  0  0  0  0  0  0  0  0  0  0  0
  -22.5101  -34.4590   24.9701 C   0  0  0  0  0  0  0  0  0  0  0  0
  -24.0564  -30.2737   20.2253 C   0  0  0  0  0  0  0  0  0  0  0  0
  -23.7067  -27.4276   20.9478 C   0  0  0  0  0  0  0  0  0  0  0  0
  -21.5999  -33.2947   24.5877 C   0  0  0  0  0  0  0  0  0  0  0  0
  -25.1729  -24.5210   17.5787 C   0  0  0  0  0  0  0  0  0  0  0  0
  -22.2337  -31.9670   24.9904 C   0  0  0  0  0  0  0  0  0  0  0  0
  -24.4351  -23.5737   18.5265 C   0  0  0  0  0  0  0  0  0  0  0  0
  -26.2492  -23.7837   16.7873 C   0  0  0  0  0  0  0  0  0  0  0  0
  -26.5055  -22.1071   18.5754 C   0  0  0  0  0  0  0  0  0  0  0  0
  -23.5643  -31.7470   24.2606 C   0  0  1  0  0  0  0  0  0  0  0  0
  -22.8794  -29.7988   21.0718 C   0  0  1  0  0  0  0  0  0  0  0  0
  -25.4194  -22.7969   19.4208 C   0  0  2  0  0  0  0  0  0  0  0  0
  -19.0962  -23.5999   17.5406 C   0  0  0  0  0  0  0  0  0  0  0  0
  -30.9076  -25.6263   21.4796 C   0  0  0  0  0  0  0  0  0  0  0  0
  -20.7919  -26.4144   23.4272 C   0  0  0  0  0  0  0  0  0  0  0  0
  -19.9615  -24.4953   22.0503 C   0  0  0  0  0  0  0  0  0  0  0  0
  -18.7554  -26.6783   21.9998 C   0  0  0  0  0  0  0  0  0  0  0  0
  -21.7976  -26.0090   16.3683 C   0  0  0  0  0  0  0  0  0  0  0  0
  -30.5183  -24.4764   16.8849 C   0  0  0  0  0  0  0  0  0  0  0  0
  -30.8832  -25.5978   17.8410 C   0  0  0  0  0  0  0  0  0  0  0  0
  -29.7912  -27.3507   20.0260 C   0  0  0  0  0  0  0  0  0  1  0  0
  -21.0002  -26.4758   20.8545 C   0  0  1  0  0  0  0  0  0  0  0  0
  -19.9489  -24.8580   17.5915 C   0  0  2  0  0  0  0  0  0  0  0  0
  -30.8471  -26.2546   20.0971 C   0  0  2  0  0  0  0  0  0  0  0  0
  -20.1532  -26.0267   22.0786 C   0  0  0  0  0  0  0  0  0  0  0  0
  -24.5307  -20.5499   19.9141 N   0  0  0  0  0  0  0  0  0  0  0  0
  -24.7004  -21.8168   20.3291 N   0  0  0  0  0  0  0  0  0  0  0  0
  -22.5837  -28.3773   20.8817 N   0  0  0  0  0  0  0  0  0  0  0  0
  -27.1639  -23.0806   17.6979 N   0  0  0  0  0  0  0  0  0  0  0  0
  -24.2654  -23.2873   22.1344 N   0  0  0  0  0  0  0  0  0  0  0  0
  -22.4691  -19.3809   23.5164 N   0  0  0  0  0  0  0  0  0  0  0  0
  -23.3288  -31.3235   22.8969 N   0  0  0  0  0  0  0  0  0  0  0  0
  -20.4063  -26.1458   19.5635 N   0  0  0  0  0  0  0  0  0  0  0  0
  -29.1018  -24.1868   16.9116 N   0  0  0  0  0  0  0  0  0  0  0  0
  -20.9106  -24.8204   16.4536 N   0  3  0  0  0  0  0  0  0  0  0  0
  -22.8160  -21.5752   24.0851 O   0  0  0  0  0  0  0  0  0  0  0  0
  -23.0670  -29.0453   23.3016 O   0  0  0  0  0  0  0  0  0  0  0  0
  -20.2818  -28.7352   20.7833 O   0  0  0  0  0  0  0  0  0  0  0  0
  -21.4542  -24.0917   19.3191 O   0  0  0  0  0  0  0  0  0  0  0  0
  -29.2598  -22.6197   18.5772 O   0  0  0  0  0  0  0  0  0  0  0  0
  -22.4339  -14.5862   20.6801 O   0  0  0  0  0  0  0  0  0  0  0  0
  -28.5216  -26.7900   20.3578 O   0  0  0  0  0  0  0  0  0  1  0  0
  -30.5214  -25.2271   19.1623 O   0  0  0  0  0  0  0  0  0  0  0  0
  -23.3578  -11.4705   25.1346 F   0  0  0  0  0  0  0  0  0  0  0  0
  -21.2529  -15.1927   23.1049 F   0  0  0  0  0  0  0  0  0  0  0  0
  1  2  1  0  0  0  0
  1  5  2  0  0  0  0
  2  6  2  0  0  0  0
  3  8  2  0  0  0  0
  3 15  1  0  0  0  0
  4  9  1  0  0  0  0
  4 15  2  0  0  0  0
  5 17  1  0  0  0  0
  6 19  1  0  0  0  0
  7 10  2  0  0  0  0
  7 18  1  0  0  0  0
  8 21  1  0  0  0  0
  9 21  2  0  0  0  0
 10 22  1  0  0  0  0
 11 12  2  0  0  0  0
 11 23  1  0  0  0  0
 12 24  1  0  0  0  0
 13 20  1  0  0  0  0
 13 22  2  0  0  0  0
 14 24  2  0  0  0  0
 14 25  1  0  0  0  0
 15 26  1  0  0  0  0
 16 26  1  0  0  0  0
 16 27  2  0  0  0  0
 16 28  1  0  0  0  0
 17 19  2  0  0  0  0
 17 33  1  0  0  0  0
 18 20  2  0  0  0  0
 18 34  1  0  0  0  0
 19 42  1  0  0  0  0
 20 35  1  0  0  0  0
 21 73  1  0  0  0  0
 22 74  1  0  0  0  0
 23 25  2  0  0  0  0
 23 73  1  0  0  0  0
 24 76  1  0  0  0  0
 25 77  1  0  0  0  0
 26 58  2  0  0  0  0
 27 59  1  0  0  0  0
 27 62  1  0  0  0  0
 28 63  1  0  0  0  0
 28 68  2  0  0  0  0
 29 43  1  0  0  0  0
 29 64  1  0  0  0  0
 29 69  2  0  0  0  0
 30 54  1  0  0  0  0
 30 60  1  0  0  0  0
 30 70  2  0  0  0  0
 31 55  1  0  0  0  0
 31 65  1  0  0  0  0
 31 71  2  0  0  0  0
 32 61  1  0  0  0  0
 32 66  1  0  0  0  0
 32 72  2  0  0  0  0
 33 36  1  0  0  0  0
 34 43  1  0  0  0  0
 35 60  1  0  0  0  0
 36 38  1  0  0  0  0
 37 39  1  0  0  0  0
 37 40  1  0  0  0  0
 38 42  1  0  0  0  0
 39 44  1  0  0  0  0
 40 61  1  0  0  0  0
 41 44  1  0  0  0  0
 41 61  1  0  0  0  0
 42 64  1  0  0  0  0
 43 60  1  0  0  0  0
 44 59  1  0  0  0  0
 45 55  1  0  0  0  0
 46 56  1  0  0  0  0
 47 57  1  0  0  0  0
 48 57  1  0  0  0  0
 49 57  1  0  0  0  0
 50 67  1  0  0  0  0
 51 52  1  0  0  0  0
 51 66  1  0  0  0  0
 52 75  1  0  0  0  0
 53 56  1  0  0  0  0
 53 74  1  0  0  0  0
 54 57  1  0  0  0  0
 54 65  1  0  0  0  0
 55 67  1  0  0  0  0
 56 75  1  0  0  0  0
 58 59  1  0  0  0  0
M  CHG  1  67   1
M  ISO  4  32 100  53 101  66 100  74 101
M  END
> <Batch ID>
0107

> <Smiles>
CNC(C)C(=O)NC(C(=O)N1Cc2cc([101O:1][101CH2:1]C(C)OCC[100NH:0][100C:0](=O)N3CCCC(n4nc(-c5ccc(Oc6ccc(F)cc6F)cc5)c(C(N)=O)c4N)C3)ccc2CC1C(=O)NC1CCCc2ccccc21)C(C)(C)C

> <Shape>
0.204

> <Color>
0.108

> <Negative vol penalty>
0.000

$$$$

  -OEChem-04052319513D

 89 98  0     1  0  0  0  0  0999 V2000
  -27.4356  -37.2676   26.3385 C   0  0  0  0  0  0  0  0  0  0  0  0
  -28.1140  -36.6444   25.2960 C   0  0  0  0  0  0  0  0  0  0  0  0
  -23.8010   -8.8896   22.2044 C   0  0  0  0  0  0  0  0  0  0  0  0
  -23.8428   -9.9298   20.0242 C   0  0  0  0  0  0  0  0  0  0  0  0
  -26.5828  -36.5264   27.1554 C   0  0  0  0  0  0  0  0  0  0  0  0
  -27.9408  -35.2793   25.0704 C   0  0  0  0  0  0  0  0  0  0  0  0
  -27.7718  -30.4760   19.7585 C   0  0  0  0  0  0  0  0  0  0  0  0
  -22.5250   -8.3910   21.9421 C   0  0  0  0  0  0  0  0  0  0  0  0
  -22.5668   -9.4311   19.7619 C   0  0  0  0  0  0  0  0  0  0  0  0
  -28.3445  -29.2603   19.3870 C   0  0  0  0  0  0  0  0  0  0  0  0
  -19.4040   -6.5421   21.7053 C   0  0  0  0  0  0  0  0  0  0  0  0
  -19.1476   -5.2111   22.0343 C   0  0  0  0  0  0  0  0  0  0  0  0
  -26.7849  -28.0968   20.8128 C   0  0  0  0  0  0  0  0  0  0  0  0
  -30.6939  -24.8446   19.2876 C   0  0  0  0  0  0  0  0  0  0  0  0
  -20.9015   -4.5019   20.5316 C   0  0  0  0  0  0  0  0  0  0  0  0
  -30.0070  -23.7535   16.8827 C   0  0  0  0  0  0  0  0  0  0  0  0
  -24.4599   -9.6591   21.2455 C   0  0  0  0  0  0  0  0  0  0  0  0
  -26.9383   -9.4326   21.8056 C   0  0  0  0  0  0  0  0  0  0  0  0
  -26.3916  -35.1534   26.9337 C   0  0  0  0  0  0  0  0  0  0  0  0
  -26.7066  -30.5120   20.6699 C   0  0  0  0  0  0  0  0  0  0  0  0
  -27.0856  -34.5187   25.8859 C   0  0  0  0  0  0  0  0  0  0  0  0
  -26.1987  -29.3139   21.1923 C   0  0  0  0  0  0  0  0  0  0  0  0
  -31.0988  -23.5491   18.9857 C   0  0  0  0  0  0  0  0  0  0  0  0
  -30.7529  -22.9858   17.7625 C   0  0  0  0  0  0  0  0  0  0  0  0
  -21.9079   -8.6617   20.7208 C   0  0  0  0  0  0  0  0  0  0  0  0
  -27.8530  -28.0707   19.9164 C   0  0  0  0  0  0  0  0  0  0  0  0
  -20.4091   -6.8531   20.7894 C   0  0  0  0  0  0  0  0  0  0  0  0
  -19.8964   -4.1910   21.4474 C   0  0  0  0  0  0  0  0  0  0  0  0
  -21.1578   -5.8330   20.2026 C   0  0  0  0  0  0  0  0  0  0  0  0
  -25.7777  -10.1749   21.5161 C   0  0  0  0  0  0  0  0  0  0  0  0
  -29.9507  -25.5291   18.3394 C   0  0  0  0  0  0  0  0  0  0  0  0
  -27.9168  -10.3802   21.9822 C   0  0  0  0  0  0  0  0  0  0  0  0
  -27.1160   -8.0134   21.9059 C   0  0  0  0  0  0  0  0  0  0  0  0
  -26.2637  -31.7730   23.5538 C   0  0  0  0  0  0  0  0  0  0  0  0
  -23.2160  -30.7585   23.1014 C   0  0  0  0  0  0  0  0  0  0  0  0
  -21.0800  -28.6159   21.5222 C   0  0  0  0  0  0  0  0  0  0  0  0
  -28.2082  -16.0340   19.9321 C   0  0  0  0  0  0  0  0  0  0  0  0
  -25.4961  -34.3843   27.8724 C   0  0  0  0  0  0  0  0  0  0  0  0
  -26.0824  -31.8295   21.0399 C   0  0  0  0  0  0  0  0  0  0  0  0
  -25.0436  -29.2969   22.1587 C   0  0  0  0  0  0  0  0  0  0  0  0
  -25.0789  -33.0183   27.3337 C   0  0  0  0  0  0  0  0  0  0  0  0
  -27.1729  -14.8341   23.4346 C   0  0  0  0  0  0  0  0  0  0  0  0
  -26.2855  -32.2764   26.7676 C   0  0  0  0  0  0  0  0  0  0  0  0
  -27.9448  -13.5233   23.3167 C   0  0  0  0  0  0  0  0  0  0  0  0
  -28.6034  -19.6903   19.4850 C   0  0  0  0  0  0  0  0  0  0  0  0
  -30.5413  -18.1598   19.0353 C   0  0  0  0  0  0  0  0  0  0  0  0
  -27.6572  -15.8477   22.4024 C   0  0  0  0  0  0  0  0  0  0  0  0
  -27.2993  -13.9192   20.8611 C   0  0  0  0  0  0  0  0  0  0  0  0
  -29.1258  -20.6541   18.4316 C   0  0  0  0  0  0  0  0  0  0  0  0
  -26.9048  -33.0449   25.5940 C   0  0  1  0  0  0  0  0  0  0  0  0
  -25.3377  -31.7850   22.3706 C   0  0  1  0  0  0  0  0  0  0  0  0
  -27.9450  -12.9616   21.8782 C   0  0  2  0  0  0  0  0  0  0  0  0
  -29.0235  -18.2555   19.1808 C   0  0  1  0  0  0  0  0  0  0  0  0
  -31.0857  -19.1314   17.9785 C   0  0  2  0  0  0  0  0  0  0  0  0
  -31.9011  -22.7847   19.9859 C   0  0  0  0  0  0  0  0  0  0  0  0
  -34.5924  -17.5509   17.5481 C   0  0  0  0  0  0  0  0  0  0  0  0
  -18.6509  -28.0009   21.3851 C   0  0  0  0  0  0  0  0  0  0  0  0
  -23.4352  -29.3059   25.7758 C   0  0  0  0  0  0  0  0  0  0  0  0
  -21.4099  -27.9779   25.1413 C   0  0  0  0  0  0  0  0  0  0  0  0
  -21.2478  -30.4549   25.3889 C   0  0  0  0  0  0  0  0  0  0  0  0
  -20.9488  -29.3037   18.6467 C   0  0  0  0  0  0  0  0  0  0  0  0
  -31.1598  -21.6028   17.3885 C   0  0  0  0  0  0  0  0  0  0  0  0
  -29.4963  -26.9290   18.6310 C   0  0  0  0  0  0  0  0  0  1  0  0
  -32.6103  -19.0467   17.9347 C   0  0  0  0  0  0  0  0  0  0  0  0
  -33.0757  -17.6299   17.6174 C   0  0  0  0  0  0  0  0  0  0  0  0
  -22.4587  -29.4853   23.3924 C   0  0  1  0  0  0  0  0  0  0  0  0
  -19.7660  -28.8537   20.8001 C   0  0  2  0  0  0  0  0  0  0  0  0
  -22.1609  -29.3061   24.9079 C   0  0  0  0  0  0  0  0  0  0  0  0
  -29.5955  -25.0152   17.1406 N   0  0  0  0  0  0  0  0  0  0  0  0
  -25.9969  -11.4925   21.5084 N   0  0  0  0  0  0  0  0  0  0  0  0
  -27.3066  -11.5855   21.7953 N   0  0  0  0  0  0  0  0  0  0  0  0
  -24.4713  -30.6111   22.4945 N   0  0  0  0  0  0  0  0  0  0  0  0
  -27.7621  -15.2959   21.0456 N   0  0  0  0  0  0  0  0  0  0  0  0
  -29.2311  -10.2916   22.2777 N   0  0  0  0  0  0  0  0  0  0  0  0
  -27.4657   -7.3006   20.7510 N   0  0  0  0  0  0  0  0  0  0  0  0
  -26.1154  -32.8590   24.3953 N   0  0  0  0  0  0  0  0  0  0  0  0
  -21.2686  -29.5165   22.5492 N   0  0  0  0  0  0  0  0  0  0  0  0
  -28.5499  -17.3560   20.2058 N   0  0  0  0  0  0  0  0  0  0  0  0
  -30.6342  -20.5462   18.3304 N   0  3  1  0  0  0  0  0  0  0  0  0
  -19.9023  -28.5214   19.3538 N   0  3  0  0  0  0  0  0  0  0  0  0
  -26.9530   -7.3935   22.9842 O   0  0  0  0  0  0  0  0  0  0  0  0
  -27.0531  -30.8463   23.6938 O   0  0  0  0  0  0  0  0  0  0  0  0
  -22.7092  -31.8441   23.3951 O   0  0  0  0  0  0  0  0  0  0  0  0
  -21.8592  -27.7186   21.2091 O   0  0  0  0  0  0  0  0  0  0  0  0
  -28.2917  -15.5577   18.7961 O   0  0  0  0  0  0  0  0  0  0  0  0
  -20.6629   -8.1750   20.4644 O   0  0  0  0  0  0  0  0  0  0  0  0
  -28.4106  -26.8828   19.5560 O   0  0  0  0  0  0  0  0  0  1  0  0
  -19.6511   -2.9129   21.7646 F   0  0  0  0  0  0  0  0  0  0  0  0
  -22.1255   -6.1256   19.3229 F   0  0  0  0  0  0  0  0  0  0  0  0
  1  2  1  0  0  0  0
  1  5  2  0  0  0  0
  2  6  2  0  0  0  0
  3  8  2  0  0  0  0
  3 17  1  0  0  0  0
  4  9  1  0  0  0  0
  4 17  2  0  0  0  0
  5 19  1  0  0  0  0
  6 21  1  0  0  0  0
  7 10  2  0  0  0  0
  7 20  1  0  0  0  0
  8 25  1  0  0  0  0
  9 25  2  0  0  0  0
 10 26  1  0  0  0  0
 11 12  2  0  0  0  0
 11 27  1  0  0  0  0
 12 28  1  0  0  0  0
 13 22  1  0  0  0  0
 13 26  2  0  0  0  0
 14 23  1  0  0  0  0
 14 31  2  0  0  0  0
 15 28  2  0  0  0  0
 15 29  1  0  0  0  0
 16 24  1  0  0  0  0
 16 69  2  0  0  0  0
 17 30  1  0  0  0  0
 18 30  1  0  0  0  0
 18 32  2  0  0  0  0
 18 33  1  0  0  0  0
 19 21  2  0  0  0  0
 19 38  1  0  0  0  0
 20 22  2  0  0  0  0
 20 39  1  0  0  0  0
 21 50  1  0  0  0  0
 22 40  1  0  0  0  0
 23 24  2  0  0  0  0
 23 55  1  0  0  0  0
 24 62  1  0  0  0  0
 25 86  1  0  0  0  0
 26 87  1  0  0  0  0
 27 29  2  0  0  0  0
 27 86  1  0  0  0  0
 28 88  1  0  0  0  0
 29 89  1  0  0  0  0
 30 70  2  0  0  0  0
 31 63  1  0  0  0  0
 31 69  1  0  0  0  0
 32 71  1  0  0  0  0
 32 74  1  0  0  0  0
 33 75  1  0  0  0  0
 33 81  2  0  0  0  0
 34 51  1  0  0  0  0
 34 76  1  0  0  0  0
 34 82  2  0  0  0  0
 35 66  1  0  0  0  0
 35 72  1  0  0  0  0
 35 83  2  0  0  0  0
 36 67  1  0  0  0  0
 36 77  1  0  0  0  0
 36 84  2  0  0  0  0
 37 73  1  0  0  0  0
 37 78  1  0  0  0  0
 37 85  2  0  0  0  0
 38 41  1  0  0  0  0
 39 51  1  0  0  0  0
 40 72  1  0  0  0  0
 41 43  1  0  0  0  0
 42 44  1  0  0  0  0
 42 47  1  0  0  0  0
 43 50  1  0  0  0  0
 44 52  1  0  0  0  0
 45 49  1  0  0  0  0
 45 53  1  0  0  0  0
 46 53  1  0  0  0  0
 46 54  1  0  0  0  0
 47 73  1  0  0  0  0
 48 52  1  0  0  0  0
 48 73  1  0  0  0  0
 49 79  1  0  0  0  0
 50 76  1  0  0  0  0
 51 72  1  0  0  0  0
 52 71  1  0  0  0  0
 53 78  1  0  0  0  0
 54 64  1  0  0  0  0
 54 79  1  0  0  0  0
 56 65  1  0  0  0  0
 57 67  1  0  0  0  0
 58 68  1  0  0  0  0
 59 68  1  0  0  0  0
 60 68  1  0  0  0  0
 61 80  1  0  0  0  0
 62 79  1  0  0  0  0
 63 87  1  0  0  0  0
 64 65  1  0  0  0  0
 66 68  1  0  0  0  0
 66 77  1  0  0  0  0
 67 80  1  0  0  0  0
 70 71  1  0  0  0  0
M  CHG  2  79   1  80   1
M  ISO  4  37 100  63 101  78 100  87 101
M  END
> <Batch ID>
0107

> <Smiles>
CCCC1CC([100NH:0][100C:0](=O)N2CCCC(n3nc(-c4ccc(Oc5ccc(F)cc5F)cc4)c(C(N)=O)c3N)C2)CCN1Cc1cnc([101CH2:1][101O:1]c2ccc3c(c2)CN(C(=O)C(NC(=O)C(C)NC)C(C)(C)C)C(C(=O)NC2CCCc4ccccc42)C3)cc1C

> <Shape>
0.278

> <Color>
0.074

> <Negative vol penalty>
0.000

$$$$

  -OEChem-04052319513D

 88 96  0     1  0  0  0  0  0999 V2000
  -30.1372  -34.1088   26.2304 C   0  0  0  0  0  0  0  0  0  0  0  0
  -30.3647  -33.5288   24.9865 C   0  0  0  0  0  0  0  0  0  0  0  0
  -29.9782  -18.6680   21.3730 C   0  0  0  0  0  0  0  0  0  0  0  0
  -28.5626  -18.1943   19.4733 C   0  0  0  0  0  0  0  0  0  0  0  0
  -29.2097  -33.5418   27.1035 C   0  0  0  0  0  0  0  0  0  0  0  0
  -29.6655  -32.3808   24.6154 C   0  0  0  0  0  0  0  0  0  0  0  0
  -26.9019  -29.1458   18.8523 C   0  0  0  0  0  0  0  0  0  0  0  0
  -22.1624  -24.8895   15.4916 C   0  0  0  0  0  0  0  0  0  0  0  0
  -30.5637  -17.4079   21.2509 C   0  0  0  0  0  0  0  0  0  0  0  0
  -29.1481  -16.9342   19.3512 C   0  0  0  0  0  0  0  0  0  0  0  0
  -26.9183  -27.9158   18.1961 C   0  0  0  0  0  0  0  0  0  0  0  0
  -30.0168  -13.4547   18.7606 C   0  0  0  0  0  0  0  0  0  0  0  0
  -29.1721  -12.3650   18.5495 C   0  0  0  0  0  0  0  0  0  0  0  0
  -21.0164  -25.6708   15.3931 C   0  0  0  0  0  0  0  0  0  0  0  0
  -25.2825  -27.0696   19.7541 C   0  0  0  0  0  0  0  0  0  0  0  0
  -28.0558  -12.8247   20.6423 C   0  0  0  0  0  0  0  0  0  0  0  0
  -28.9776  -19.0612   20.4842 C   0  0  0  0  0  0  0  0  0  0  0  0
  -28.7924  -21.5586   19.9982 C   0  0  0  0  0  0  0  0  0  0  0  0
  -28.4918  -32.3919   26.7390 C   0  0  0  0  0  0  0  0  0  0  0  0
  -26.0824  -29.3438   19.9728 C   0  0  0  0  0  0  0  0  0  0  0  0
  -28.7285  -31.7972   25.4850 C   0  0  0  0  0  0  0  0  0  0  0  0
  -25.2556  -28.3038   20.4212 C   0  0  0  0  0  0  0  0  0  0  0  0
  -22.3272  -24.0414   16.5810 C   0  0  0  0  0  0  0  0  0  0  0  0
  -30.1487  -16.5410   20.2401 C   0  0  0  0  0  0  0  0  0  0  0  0
  -26.1107  -26.8765   18.6487 C   0  0  0  0  0  0  0  0  0  0  0  0
  -29.8811  -14.2294   19.9127 C   0  0  0  0  0  0  0  0  0  0  0  0
  -28.1916  -12.0500   19.4902 C   0  0  0  0  0  0  0  0  0  0  0  0
  -28.9006  -13.9144   20.8535 C   0  0  0  0  0  0  0  0  0  0  0  0
  -28.3720  -20.3625   20.6101 C   0  0  0  0  0  0  0  0  0  0  0  0
  -20.0727  -25.5681   16.4023 C   0  0  0  0  0  0  0  0  0  0  0  0
  -21.3249  -24.0118   17.5372 C   0  0  0  0  0  0  0  0  0  0  0  0
  -27.8928  -22.5012   20.4326 C   0  0  0  0  0  0  0  0  0  0  0  0
  -29.8974  -21.7964   19.1161 C   0  0  0  0  0  0  0  0  0  0  0  0
  -26.5947  -30.0427   23.0311 C   0  0  0  0  0  0  0  0  0  0  0  0
  -23.3576  -30.2279   23.1274 C   0  0  0  0  0  0  0  0  0  0  0  0
  -20.3616  -29.3091   21.7759 C   0  0  0  0  0  0  0  0  0  0  0  0
  -22.2410  -22.1514   22.3785 C   0  0  0  0  0  0  0  0  0  0  0  0
  -27.5339  -31.7880   27.7353 C   0  0  0  0  0  0  0  0  0  0  0  0
  -26.0563  -30.6850   20.6533 C   0  0  0  0  0  0  0  0  0  0  0  0
  -24.3427  -28.4718   21.6073 C   0  0  0  0  0  0  0  0  0  0  0  0
  -26.5619  -30.7869   27.1160 C   0  0  0  0  0  0  0  0  0  0  0  0
  -25.0258  -23.5195   24.1250 C   0  0  0  0  0  0  0  0  0  0  0  0
  -27.3037  -29.8205   26.1981 C   0  0  0  0  0  0  0  0  0  0  0  0
  -26.2371  -22.9734   23.3671 C   0  0  0  0  0  0  0  0  0  0  0  0
  -23.8936  -22.4968   24.1913 C   0  0  0  0  0  0  0  0  0  0  0  0
  -24.6859  -21.4053   22.1287 C   0  0  0  0  0  0  0  0  0  0  0  0
  -27.9717  -30.5659   25.0363 C   0  0  1  0  0  0  0  0  0  0  0  0
  -25.5661  -30.6134   22.0962 C   0  0  1  0  0  0  0  0  0  0  0  0
  -25.8326  -22.4209   21.9871 C   0  0  2  0  0  0  0  0  0  0  0  0
  -22.5258  -21.2324   15.4053 C   0  0  0  0  0  0  0  0  0  0  0  0
  -18.7107  -27.3797   17.5053 C   0  0  0  0  0  0  0  0  0  0  0  0
  -17.5575  -25.5303   16.2384 C   0  0  0  0  0  0  0  0  0  0  0  0
  -17.8882  -29.5875   22.0955 C   0  0  0  0  0  0  0  0  0  0  0  0
  -23.4390  -28.2571   25.4554 C   0  0  0  0  0  0  0  0  0  0  0  0
  -20.9936  -27.8502   25.1054 C   0  0  0  0  0  0  0  0  0  0  0  0
  -21.8007  -30.1269   25.7282 C   0  0  0  0  0  0  0  0  0  0  0  0
  -20.0462  -30.5905   19.1269 C   0  0  0  0  0  0  0  0  0  0  0  0
  -23.7054  -22.1923   15.5084 C   0  0  0  0  0  0  0  0  0  0  0  0
  -24.8609  -24.0482   16.7784 C   0  0  0  0  0  0  0  0  0  0  0  0
  -20.5191  -23.0427   19.6906 C   0  0  0  0  0  0  0  0  0  0  0  0
  -20.7075  -21.7495   20.4691 C   0  0  0  0  0  0  0  0  0  0  0  0
  -24.9199  -24.9112   18.0358 C   0  0  0  0  0  0  0  0  0  1  0  0
  -23.5817  -23.1880   16.6842 C   0  0  1  0  0  0  0  0  0  0  0  0
  -18.8307  -26.3921   16.3296 C   0  0  0  0  0  0  0  0  0  0  0  0
  -22.2384  -29.2513   23.3972 C   0  0  1  0  0  0  0  0  0  0  0  0
  -19.1334  -30.1200   21.4037 C   0  0  2  0  0  0  0  0  0  0  0  0
  -22.1365  -28.8673   24.9004 C   0  0  0  0  0  0  0  0  0  0  0  0
  -27.2895  -20.5275   21.3750 N   0  0  0  0  0  0  0  0  0  0  0  0
  -20.1978  -24.7558   17.4757 N   0  0  0  0  0  0  0  0  0  0  0  0
  -27.0222  -21.8383   21.2468 N   0  0  0  0  0  0  0  0  0  0  0  0
  -24.3576  -29.7997   22.2428 N   0  0  0  0  0  0  0  0  0  0  0  0
  -23.5570  -22.0137   22.8499 N   0  0  0  0  0  0  0  0  0  0  0  0
  -27.7693  -23.8241   20.1937 N   0  0  0  0  0  0  0  0  0  0  0  0
  -30.7219  -20.7166   18.7719 N   0  0  0  0  0  0  0  0  0  0  0  0
  -21.4891  -23.1498   18.6504 N   0  0  0  0  0  0  0  0  0  0  0  0
  -26.9925  -30.9124   24.0285 N   0  0  0  0  0  0  0  0  0  0  0  0
  -21.0283  -29.8565   22.8517 N   0  0  0  0  0  0  0  0  0  0  0  0
  -22.0089  -21.6732   21.0947 N   0  0  0  0  0  0  0  0  0  0  0  0
  -18.9090  -30.0740   19.9312 N   0  3  0  0  0  0  0  0  0  0  0  0
  -30.1559  -22.9360   18.6600 O   0  0  0  0  0  0  0  0  0  0  0  0
  -26.9965  -28.8976   22.8610 O   0  0  0  0  0  0  0  0  0  0  0  0
  -23.3413  -31.3328   23.6756 O   0  0  0  0  0  0  0  0  0  0  0  0
  -20.6940  -28.2899   21.1750 O   0  0  0  0  0  0  0  0  0  0  0  0
  -21.3410  -22.6674   23.0498 O   0  0  0  0  0  0  0  0  0  0  0  0
  -30.7200  -15.3114   20.1205 O   0  0  0  0  0  0  0  0  0  0  0  0
  -26.1252  -25.6747   18.0104 O   0  0  0  0  0  0  0  0  0  1  0  0
  -27.3795  -11.0045   19.2866 F   0  0  0  0  0  0  0  0  0  0  0  0
  -28.7647  -14.6557   21.9616 F   0  0  0  0  0  0  0  0  0  0  0  0
  1  2  1  0  0  0  0
  1  5  2  0  0  0  0
  2  6  2  0  0  0  0
  3  9  2  0  0  0  0
  3 17  1  0  0  0  0
  4 10  1  0  0  0  0
  4 17  2  0  0  0  0
  5 19  1  0  0  0  0
  6 21  1  0  0  0  0
  7 11  2  0  0  0  0
  7 20  1  0  0  0  0
  8 14  2  0  0  0  0
  8 23  1  0  0  0  0
  9 24  1  0  0  0  0
 10 24  2  0  0  0  0
 11 25  1  0  0  0  0
 12 13  2  0  0  0  0
 12 26  1  0  0  0  0
 13 27  1  0  0  0  0
 14 30  1  0  0  0  0
 15 22  1  0  0  0  0
 15 25  2  0  0  0  0
 16 27  2  0  0  0  0
 16 28  1  0  0  0  0
 17 29  1  0  0  0  0
 18 29  1  0  0  0  0
 18 32  2  0  0  0  0
 18 33  1  0  0  0  0
 19 21  2  0  0  0  0
 19 38  1  0  0  0  0
 20 22  2  0  0  0  0
 20 39  1  0  0  0  0
 21 47  1  0  0  0  0
 22 40  1  0  0  0  0
 23 31  2  0  0  0  0
 23 63  1  0  0  0  0
 24 85  1  0  0  0  0
 25 86  1  0  0  0  0
 26 28  2  0  0  0  0
 26 85  1  0  0  0  0
 27 87  1  0  0  0  0
 28 88  1  0  0  0  0
 29 68  2  0  0  0  0
 30 64  1  0  0  0  0
 30 69  2  0  0  0  0
 31 69  1  0  0  0  0
 31 75  1  0  0  0  0
 32 70  1  0  0  0  0
 32 73  1  0  0  0  0
 33 74  1  0  0  0  0
 33 80  2  0  0  0  0
 34 48  1  0  0  0  0
 34 76  1  0  0  0  0
 34 81  2  0  0  0  0
 35 65  1  0  0  0  0
 35 71  1  0  0  0  0
 35 82  2  0  0  0  0
 36 66  1  0  0  0  0
 36 77  1  0  0  0  0
 36 83  2  0  0  0  0
 37 72  1  0  0  0  0
 37 78  1  0  0  0  0
 37 84  2  0  0  0  0
 38 41  1  0  0  0  0
 39 48  1  0  0  0  0
 40 71  1  0  0  0  0
 41 43  1  0  0  0  0
 42 44  1  0  0  0  0
 42 45  1  0  0  0  0
 43 47  1  0  0  0  0
 44 49  1  0  0  0  0
 45 72  1  0  0  0  0
 46 49  1  0  0  0  0
 46 72  1  0  0  0  0
 47 76  1  0  0  0  0
 48 71  1  0  0  0  0
 49 70  1  0  0  0  0
 50 58  1  0  0  0  0
 51 64  1  0  0  0  0
 52 64  1  0  0  0  0
 53 66  1  0  0  0  0
 54 67  1  0  0  0  0
 55 67  1  0  0  0  0
 56 67  1  0  0  0  0
 57 79  1  0  0  0  0
 58 63  1  0  0  0  0
 59 62  1  0  0  0  0
 59 63  1  0  0  0  0
 60 61  1  0  0  0  0
 60 75  1  0  0  0  0
 61 78  1  0  0  0  0
 62 86  1  0  0  0  0
 65 67  1  0  0  0  0
 65 77  1  0  0  0  0
 66 79  1  0  0  0  0
 68 70  1  0  0  0  0
M  CHG  1  79   1
M  ISO  4  37 100  62 101  78 100  86 101
M  END
> <Batch ID>
0107

> <Smiles>
CCC(C[101CH2:1][101O:1]c1ccc2c(c1)CN(C(=O)C(NC(=O)C(C)NC)C(C)(C)C)C(C(=O)NC1CCCc3ccccc31)C2)c1ccc(C(C)C)nc1NCC[100NH:0][100C:0](=O)N1CCCC(n2nc(-c3ccc(Oc4ccc(F)cc4F)cc3)c(C(N)=O)c2N)C1

> <Shape>
0.238

> <Color>
0.063

> <Negative vol penalty>
0.000

$$$$

  -OEChem-04052319513D

 87 95  0     1  0  0  0  0  0999 V2000
  -27.1010  -30.0757   27.1999 C   0  0  0  0  0  0  0  0  0  0  0  0
  -26.7276  -28.9452   26.4803 C   0  0  0  0  0  0  0  0  0  0  0  0
  -23.0013   -9.8505   20.0065 C   0  0  0  0  0  0  0  0  0  0  0  0
  -23.6947   -9.9701   22.3178 C   0  0  0  0  0  0  0  0  0  0  0  0
  -27.7827  -31.1121   26.5633 C   0  0  0  0  0  0  0  0  0  0  0  0
  -27.0348  -28.8508   25.1234 C   0  0  0  0  0  0  0  0  0  0  0  0
  -28.8813  -24.3076   23.8609 C   0  0  0  0  0  0  0  0  0  0  0  0
  -22.2333   -8.7225   20.2952 C   0  0  0  0  0  0  0  0  0  0  0  0
  -22.9266   -8.8421   22.6065 C   0  0  0  0  0  0  0  0  0  0  0  0
  -27.9662  -23.2654   23.7188 C   0  0  0  0  0  0  0  0  0  0  0  0
  -21.4344   -5.7820   23.8791 C   0  0  0  0  0  0  0  0  0  0  0  0
  -22.0119   -4.7900   24.6715 C   0  0  0  0  0  0  0  0  0  0  0  0
  -28.0282  -23.5455   21.3236 C   0  0  0  0  0  0  0  0  0  0  0  0
  -28.3535  -18.7503   21.6990 C   0  0  0  0  0  0  0  0  0  0  0  0
  -23.7615   -4.4981   23.0311 C   0  0  0  0  0  0  0  0  0  0  0  0
  -26.4816  -18.9482   20.2452 C   0  0  0  0  0  0  0  0  0  0  0  0
  -23.7321  -10.4742   21.0177 C   0  0  0  0  0  0  0  0  0  0  0  0
  -24.1151  -12.9845   20.7738 C   0  0  0  0  0  0  0  0  0  0  0  0
  -28.1068  -31.0262   25.2002 C   0  0  0  0  0  0  0  0  0  0  0  0
  -29.3693  -24.9849   22.7341 C   0  0  0  0  0  0  0  0  0  0  0  0
  -27.7202  -29.8876   24.4677 C   0  0  0  0  0  0  0  0  0  0  0  0
  -28.9514  -24.5942   21.4539 C   0  0  0  0  0  0  0  0  0  0  0  0
  -27.0114  -19.0667   21.5200 C   0  0  0  0  0  0  0  0  0  0  0  0
  -29.1140  -18.3311   20.6131 C   0  0  0  0  0  0  0  0  0  0  0  0
  -22.1959   -8.2183   21.5952 C   0  0  0  0  0  0  0  0  0  0  0  0
  -27.5373  -22.8861   22.4502 C   0  0  0  0  0  0  0  0  0  0  0  0
  -22.0204   -6.1321   22.6626 C   0  0  0  0  0  0  0  0  0  0  0  0
  -23.1754   -4.1480   24.2475 C   0  0  0  0  0  0  0  0  0  0  0  0
  -23.1840   -5.4902   22.2386 C   0  0  0  0  0  0  0  0  0  0  0  0
  -24.5261  -11.6391   20.7200 C   0  0  0  0  0  0  0  0  0  0  0  0
  -28.4901  -18.2454   19.3790 C   0  0  0  0  0  0  0  0  0  0  0  0
  -25.2285  -13.6987   20.4038 C   0  0  0  0  0  0  0  0  0  0  0  0
  -22.8410  -13.5391   21.1269 C   0  0  0  0  0  0  0  0  0  0  0  0
  -29.2392  -27.9839   21.6889 C   0  0  0  0  0  0  0  0  0  0  0  0
  -31.2475  -26.8624   19.4017 C   0  0  0  0  0  0  0  0  0  0  0  0
  -32.4149  -24.1909   17.6278 C   0  0  0  0  0  0  0  0  0  0  0  0
  -30.7192  -14.6524   20.7002 C   0  0  0  0  0  0  0  0  0  0  0  0
  -28.8030  -32.1925   24.5446 C   0  0  0  0  0  0  0  0  0  0  0  0
  -30.3764  -26.0893   22.9027 C   0  0  0  0  0  0  0  0  0  0  0  0
  -29.4605  -25.2759   20.2111 C   0  0  0  0  0  0  0  0  0  0  0  0
  -29.4205  -31.8508   23.1911 C   0  0  0  0  0  0  0  0  0  0  0  0
  -29.6153  -12.1590   18.4109 C   0  0  0  0  0  0  0  0  0  0  0  0
  -28.4302  -31.0678   22.3349 C   0  0  0  0  0  0  0  0  0  0  0  0
  -28.1617  -11.9082   18.8160 C   0  0  0  0  0  0  0  0  0  0  0  0
  -30.5006  -12.4314   19.6250 C   0  0  0  0  0  0  0  0  0  0  0  0
  -28.5708  -13.2613   20.9138 C   0  0  0  0  0  0  0  0  0  0  0  0
  -28.0572  -29.7374   23.0001 C   0  0  1  0  0  0  0  0  0  0  0  0
  -30.4149  -27.0488   21.7172 C   0  0  1  0  0  0  0  0  0  0  0  0
  -27.6285  -13.0370   19.7187 C   0  0  2  0  0  0  0  0  0  0  0  0
  -26.0447  -18.4401   23.7571 C   0  0  0  0  0  0  0  0  0  0  0  0
  -34.0277  -23.5924   15.8008 C   0  0  0  0  0  0  0  0  0  0  0  0
  -27.9259  -18.1654   16.2798 C   0  0  0  0  0  0  0  0  0  0  0  0
  -29.4055  -16.1488   16.5892 C   0  0  0  0  0  0  0  0  0  0  0  0
  -29.3107  -27.9842   17.3279 C   0  0  0  0  0  0  0  0  0  0  0  0
  -30.4422  -26.5634   15.6047 C   0  0  0  0  0  0  0  0  0  0  0  0
  -31.7287  -28.3379   16.7960 C   0  0  0  0  0  0  0  0  0  0  0  0
  -33.9733  -22.4273   19.4224 C   0  0  0  0  0  0  0  0  0  0  0  0
  -30.7816  -16.8650   21.8224 C   0  0  0  0  0  0  0  0  0  0  0  0
  -26.6698  -20.8397   23.2962 C   0  0  0  0  0  0  0  0  0  1  0  0
  -26.1527  -19.5295   22.6865 C   0  0  1  0  0  0  0  0  0  0  0  0
  -30.5521  -17.9884   20.7927 C   0  0  2  0  0  0  0  0  0  0  0  0
  -31.0728  -26.2363   18.0391 C   0  0  1  0  0  0  0  0  0  0  0  0
  -33.8265  -23.7379   17.3012 C   0  0  2  0  0  0  0  0  0  0  0  0
  -28.4847  -17.1521   17.2670 C   0  0  0  0  0  0  0  0  0  0  0  0
  -30.6274  -27.2687   16.9653 C   0  0  0  0  0  0  0  0  0  0  0  0
  -27.1889  -18.5443   19.1662 N   0  0  0  0  0  0  0  0  0  0  0  0
  -25.8009  -11.5040   20.3451 N   0  0  0  0  0  0  0  0  0  0  0  0
  -26.2006  -12.7737   20.1599 N   0  0  0  0  0  0  0  0  0  0  0  0
  -30.4391  -26.3542   20.4284 N   0  0  0  0  0  0  0  0  0  0  0  0
  -29.9402  -13.5133   20.4383 N   0  0  0  0  0  0  0  0  0  0  0  0
  -25.4609  -15.0214   20.2664 N   0  0  0  0  0  0  0  0  0  0  0  0
  -21.8062  -12.6630   21.4819 N   0  0  0  0  0  0  0  0  0  0  0  0
  -29.1166  -28.7680   22.8202 N   0  0  0  0  0  0  0  0  0  0  0  0
  -32.3308  -25.5630   17.7351 N   0  0  0  0  0  0  0  0  0  0  0  0
  -30.1100  -15.6330   21.4735 N   0  0  0  0  0  0  0  0  0  0  0  0
  -31.3926  -19.1684   21.2065 N   0  3  0  0  0  0  0  0  0  0  0  0
  -34.1103  -22.4232   17.9431 N   0  3  0  0  0  0  0  0  0  0  0  0
  -22.6217  -14.7741   21.1117 O   0  0  0  0  0  0  0  0  0  0  0  0
  -28.4990  -27.9945   20.7124 O   0  0  0  0  0  0  0  0  0  0  0  0
  -32.0758  -27.7642   19.5512 O   0  0  0  0  0  0  0  0  0  0  0  0
  -31.4797  -23.4062   17.7697 O   0  0  0  0  0  0  0  0  0  0  0  0
  -31.8703  -14.7880   20.2718 O   0  0  0  0  0  0  0  0  0  0  0  0
  -21.4464   -7.1178   21.8774 O   0  0  0  0  0  0  0  0  0  0  0  0
  -26.6436  -21.8696   22.3088 O   0  0  0  0  0  0  0  0  0  1  0  0
  -29.2060  -17.8374   18.2835 O   0  0  0  0  0  0  0  0  0  0  0  0
  -23.7307   -3.1964   25.0093 F   0  0  0  0  0  0  0  0  0  0  0  0
  -23.7522   -5.8231   21.0715 F   0  0  0  0  0  0  0  0  0  0  0  0
  1  2  1  0  0  0  0
  1  5  2  0  0  0  0
  2  6  2  0  0  0  0
  3  8  2  0  0  0  0
  3 17  1  0  0  0  0
  4  9  1  0  0  0  0
  4 17  2  0  0  0  0
  5 19  1  0  0  0  0
  6 21  1  0  0  0  0
  7 10  2  0  0  0  0
  7 20  1  0  0  0  0
  8 25  1  0  0  0  0
  9 25  2  0  0  0  0
 10 26  1  0  0  0  0
 11 12  2  0  0  0  0
 11 27  1  0  0  0  0
 12 28  1  0  0  0  0
 13 22  1  0  0  0  0
 13 26  2  0  0  0  0
 14 23  2  0  0  0  0
 14 24  1  0  0  0  0
 15 28  2  0  0  0  0
 15 29  1  0  0  0  0
 16 23  1  0  0  0  0
 16 66  2  0  0  0  0
 17 30  1  0  0  0  0
 18 30  1  0  0  0  0
 18 32  2  0  0  0  0
 18 33  1  0  0  0  0
 19 21  2  0  0  0  0
 19 38  1  0  0  0  0
 20 22  2  0  0  0  0
 20 39  1  0  0  0  0
 21 47  1  0  0  0  0
 22 40  1  0  0  0  0
 23 60  1  0  0  0  0
 24 31  2  0  0  0  0
 24 61  1  0  0  0  0
 25 83  1  0  0  0  0
 26 84  1  0  0  0  0
 27 29  2  0  0  0  0
 27 83  1  0  0  0  0
 28 86  1  0  0  0  0
 29 87  1  0  0  0  0
 30 67  2  0  0  0  0
 31 66  1  0  0  0  0
 31 85  1  0  0  0  0
 32 68  1  0  0  0  0
 32 71  1  0  0  0  0
 33 72  1  0  0  0  0
 33 78  2  0  0  0  0
 34 48  1  0  0  0  0
 34 73  1  0  0  0  0
 34 79  2  0  0  0  0
 35 62  1  0  0  0  0
 35 69  1  0  0  0  0
 35 80  2  0  0  0  0
 36 63  1  0  0  0  0
 36 74  1  0  0  0  0
 36 81  2  0  0  0  0
 37 70  1  0  0  0  0
 37 75  1  0  0  0  0
 37 82  2  0  0  0  0
 38 41  1  0  0  0  0
 39 48  1  0  0  0  0
 40 69  1  0  0  0  0
 41 43  1  0  0  0  0
 42 44  1  0  0  0  0
 42 45  1  0  0  0  0
 43 47  1  0  0  0  0
 44 49  1  0  0  0  0
 45 70  1  0  0  0  0
 46 49  1  0  0  0  0
 46 70  1  0  0  0  0
 47 73  1  0  0  0  0
 48 69  1  0  0  0  0
 49 68  1  0  0  0  0
 50 60  1  0  0  0  0
 51 63  1  0  0  0  0
 52 64  1  0  0  0  0
 53 64  1  0  0  0  0
 54 65  1  0  0  0  0
 55 65  1  0  0  0  0
 56 65  1  0  0  0  0
 57 77  1  0  0  0  0
 58 61  1  0  0  0  0
 58 75  1  0  0  0  0
 59 60  1  0  0  0  0
 59 84  1  0  0  0  0
 61 76  1  0  0  0  0
 62 65  1  0  0  0  0
 62 74  1  0  0  0  0
 63 77  1  0  0  0  0
 64 85  1  0  0  0  0
 67 68  1  0  0  0  0
M  CHG  2  76   1  77   1
M  ISO  4  37 100  59 101  75 100  84 101
M  END
> <Batch ID>
0107

> <Smiles>
CNC(C)C(=O)NC(C(=O)N1Cc2cc([101O:1][101CH2:1]C(C)c3cnc(OC(C)C)c(C(N)C[100NH:0][100C:0](=O)N4CCCC(n5nc(-c6ccc(Oc7ccc(F)cc7F)cc6)c(C(N)=O)c5N)C4)c3)ccc2CC1C(=O)NC1CCCc2ccccc21)C(C)(C)C

> <Shape>
0.306

> <Color>
0.184

> <Negative vol penalty>
0.000

$$$$

  -OEChem-04052319513D

 80 87  0     1  0  0  0  0  0999 V2000
  -25.6817  -35.6121   21.9677 C   0  0  0  0  0  0  0  0  0  0  0  0
  -26.2914  -34.3626   21.9180 C   0  0  0  0  0  0  0  0  0  0  0  0
  -22.7089  -14.5855   19.4749 C   0  0  0  0  0  0  0  0  0  0  0  0
  -24.0842  -14.0298   21.3820 C   0  0  0  0  0  0  0  0  0  0  0  0
  -24.4053  -35.7425   22.5134 C   0  0  0  0  0  0  0  0  0  0  0  0
  -25.6254  -33.2429   22.4150 C   0  0  0  0  0  0  0  0  0  0  0  0
  -25.9686  -29.2471   19.3230 C   0  0  0  0  0  0  0  0  0  0  0  0
  -22.0215  -13.3804   19.6195 C   0  0  0  0  0  0  0  0  0  0  0  0
  -23.3968  -12.8247   21.5265 C   0  0  0  0  0  0  0  0  0  0  0  0
  -27.1655  -28.5323   19.3367 C   0  0  0  0  0  0  0  0  0  0  0  0
  -23.3898   -9.7710   20.0754 C   0  0  0  0  0  0  0  0  0  0  0  0
  -24.1425   -8.6188   20.3017 C   0  0  0  0  0  0  0  0  0  0  0  0
  -26.1516  -26.8734   20.7646 C   0  0  0  0  0  0  0  0  0  0  0  0
  -22.9993   -8.2848   22.4038 C   0  0  0  0  0  0  0  0  0  0  0  0
  -23.7403  -14.9102   20.3561 C   0  0  0  0  0  0  0  0  0  0  0  0
  -24.1320  -17.3919   20.7978 C   0  0  0  0  0  0  0  0  0  0  0  0
  -23.7194  -34.6222   23.0086 C   0  0  0  0  0  0  0  0  0  0  0  0
  -24.8555  -28.7852   20.0401 C   0  0  0  0  0  0  0  0  0  0  0  0
  -24.3392  -33.3586   22.9691 C   0  0  0  0  0  0  0  0  0  0  0  0
  -24.9409  -27.5828   20.7563 C   0  0  0  0  0  0  0  0  0  0  0  0
  -22.3655  -12.5000   20.6453 C   0  0  0  0  0  0  0  0  0  0  0  0
  -27.2581  -27.3468   20.0599 C   0  0  0  0  0  0  0  0  0  0  0  0
  -22.4419  -10.1803   21.0133 C   0  0  0  0  0  0  0  0  0  0  0  0
  -23.9473   -7.8756   21.4658 C   0  0  0  0  0  0  0  0  0  0  0  0
  -22.2466   -9.4372   22.1774 C   0  0  0  0  0  0  0  0  0  0  0  0
  -24.4510  -16.1546   20.2070 C   0  0  0  0  0  0  0  0  0  0  0  0
  -25.1056  -18.2491   20.3465 C   0  0  0  0  0  0  0  0  0  0  0  0
  -23.0522  -17.7356   21.6762 C   0  0  0  0  0  0  0  0  0  0  0  0
  -23.1131  -29.9121   22.4479 C   0  0  0  0  0  0  0  0  0  0  0  0
  -21.2789  -27.3100   21.8260 C   0  0  0  0  0  0  0  0  0  0  0  0
  -21.0600  -24.1651   20.5188 C   0  0  0  0  0  0  0  0  0  0  0  0
  -30.4552  -19.3856   19.2349 C   0  0  0  0  0  0  0  0  0  0  0  0
  -22.3606  -34.8201   23.6322 C   0  0  0  0  0  0  0  0  0  0  0  0
  -23.5635  -29.5540   19.9934 C   0  0  0  0  0  0  0  0  0  0  0  0
  -23.7687  -27.0334   21.5262 C   0  0  0  0  0  0  0  0  0  0  0  0
  -21.5708  -33.5241   23.7959 C   0  0  0  0  0  0  0  0  0  0  0  0
  -28.5993  -17.6557   16.7370 C   0  0  0  0  0  0  0  0  0  0  0  0
  -22.4531  -32.4333   24.3947 C   0  0  0  0  0  0  0  0  0  0  0  0
  -27.3320  -17.2080   17.4673 C   0  0  0  0  0  0  0  0  0  0  0  0
  -29.8256  -17.5935   17.6448 C   0  0  0  0  0  0  0  0  0  0  0  0
  -28.4218  -17.8728   19.6511 C   0  0  0  0  0  0  0  0  0  0  0  0
  -23.6389  -32.1163   23.4755 C   0  0  1  0  0  0  0  0  0  0  0  0
  -22.6487  -29.2575   21.1777 C   0  0  1  0  0  0  0  0  0  0  0  0
  -27.1491  -17.9716   18.7927 C   0  0  2  0  0  0  0  0  0  0  0  0
  -19.4407  -22.2762   20.1915 C   0  0  0  0  0  0  0  0  0  0  0  0
  -29.5364  -24.9330   18.0466 C   0  0  0  0  0  0  0  0  0  0  0  0
  -28.2344  -22.3435   19.3221 C   0  0  0  0  0  0  0  0  0  0  0  0
  -21.5524  -26.5682   24.7730 C   0  0  0  0  0  0  0  0  0  0  0  0
  -20.7600  -24.2647   24.1949 C   0  0  0  0  0  0  0  0  0  0  0  0
  -19.2659  -26.2267   23.8191 C   0  0  0  0  0  0  0  0  0  0  0  0
  -29.0199  -22.2423   22.0900 C   0  0  0  0  0  0  0  0  0  0  0  0
  -31.1359  -23.4955   21.7174 C   0  0  0  0  0  0  0  0  0  0  0  0
  -21.3100  -24.3075   17.5733 C   0  0  0  0  0  0  0  0  0  0  0  0
  -30.9505  -21.1463   20.9123 C   0  0  0  0  0  0  0  0  0  0  0  0
  -28.3301  -25.2303   20.2252 C   0  0  0  0  0  0  0  0  0  1  0  0
  -21.2586  -25.8777   22.3026 C   0  0  1  0  0  0  0  0  0  0  0  0
  -20.0463  -23.5315   19.5832 C   0  0  2  0  0  0  0  0  0  0  0  0
  -29.5291  -24.5526   19.5396 C   0  0  1  0  0  0  0  0  0  0  0  0
  -29.5806  -22.9938   19.6949 C   0  0  1  0  0  0  0  0  0  0  0  0
  -20.7321  -25.7454   23.7596 C   0  0  0  0  0  0  0  0  0  0  0  0
  -30.1665  -22.4823   21.0763 C   0  0  0  0  0  0  0  0  0  0  0  0
  -25.5419  -16.2161   19.4388 N   0  0  0  0  0  0  0  0  0  0  0  0
  -25.9168  -17.5024   19.5437 N   0  0  0  0  0  0  0  0  0  0  0  0
  -22.5292  -27.8246   21.4548 N   0  0  0  0  0  0  0  0  0  0  0  0
  -29.5875  -18.3384   18.8835 N   0  0  0  0  0  0  0  0  0  0  0  0
  -25.3384  -19.5613   20.5619 N   0  0  0  0  0  0  0  0  0  0  0  0
  -22.1420  -16.7338   22.0398 N   0  0  0  0  0  0  0  0  0  0  0  0
  -23.2125  -31.2881   22.3680 N   0  0  0  0  0  0  0  0  0  0  0  0
  -20.4843  -25.1306   21.3173 N   0  0  0  0  0  0  0  0  0  0  0  0
  -30.1543  -20.0438   20.4210 N   0  0  0  0  0  0  0  0  0  0  0  0
  -20.6927  -23.1631   18.2919 N   0  3  0  0  0  0  0  0  0  0  0  0
  -22.8896  -18.9005   22.1122 O   0  0  0  0  0  0  0  0  0  0  0  0
  -23.3614  -29.2202   23.4284 O   0  0  0  0  0  0  0  0  0  0  0  0
  -20.2233  -27.9463   21.7778 O   0  0  0  0  0  0  0  0  0  0  0  0
  -22.2434  -23.8339   20.5418 O   0  0  0  0  0  0  0  0  0  0  0  0
  -31.4231  -19.7134   18.5401 O   0  0  0  0  0  0  0  0  0  0  0  0
  -21.6948  -11.3241   20.7868 O   0  0  0  0  0  0  0  0  0  0  0  0
  -28.4326  -26.6432   20.0756 O   0  0  0  0  0  0  0  0  0  1  0  0
  -24.6691   -6.7683   21.6823 F   0  0  0  0  0  0  0  0  0  0  0  0
  -21.3366   -9.8247   23.0816 F   0  0  0  0  0  0  0  0  0  0  0  0
  1  2  1  0  0  0  0
  1  5  2  0  0  0  0
  2  6  2  0  0  0  0
  3  8  2  0  0  0  0
  3 15  1  0  0  0  0
  4  9  1  0  0  0  0
  4 15  2  0  0  0  0
  5 17  1  0  0  0  0
  6 19  1  0  0  0  0
  7 10  2  0  0  0  0
  7 18  1  0  0  0  0
  8 21  1  0  0  0  0
  9 21  2  0  0  0  0
 10 22  1  0  0  0  0
 11 12  2  0  0  0  0
 11 23  1  0  0  0  0
 12 24  1  0  0  0  0
 13 20  1  0  0  0  0
 13 22  2  0  0  0  0
 14 24  2  0  0  0  0
 14 25  1  0  0  0  0
 15 26  1  0  0  0  0
 16 26  1  0  0  0  0
 16 27  2  0  0  0  0
 16 28  1  0  0  0  0
 17 19  2  0  0  0  0
 17 33  1  0  0  0  0
 18 20  2  0  0  0  0
 18 34  1  0  0  0  0
 19 42  1  0  0  0  0
 20 35  1  0  0  0  0
 21 77  1  0  0  0  0
 22 78  1  0  0  0  0
 23 25  2  0  0  0  0
 23 77  1  0  0  0  0
 24 79  1  0  0  0  0
 25 80  1  0  0  0  0
 26 62  2  0  0  0  0
 27 63  1  0  0  0  0
 27 66  1  0  0  0  0
 28 67  1  0  0  0  0
 28 72  2  0  0  0  0
 29 43  1  0  0  0  0
 29 68  1  0  0  0  0
 29 73  2  0  0  0  0
 30 56  1  0  0  0  0
 30 64  1  0  0  0  0
 30 74  2  0  0  0  0
 31 57  1  0  0  0  0
 31 69  1  0  0  0  0
 31 75  2  0  0  0  0
 32 65  1  0  0  0  0
 32 70  1  0  0  0  0
 32 76  2  0  0  0  0
 33 36  1  0  0  0  0
 34 43  1  0  0  0  0
 35 64  1  0  0  0  0
 36 38  1  0  0  0  0
 37 39  1  0  0  0  0
 37 40  1  0  0  0  0
 38 42  1  0  0  0  0
 39 44  1  0  0  0  0
 40 65  1  0  0  0  0
 41 44  1  0  0  0  0
 41 65  1  0  0  0  0
 42 68  1  0  0  0  0
 43 64  1  0  0  0  0
 44 63  1  0  0  0  0
 45 57  1  0  0  0  0
 46 58  1  0  0  0  0
 47 59  1  0  0  0  0
 48 60  1  0  0  0  0
 49 60  1  0  0  0  0
 50 60  1  0  0  0  0
 51 61  1  0  0  0  0
 52 61  1  0  0  0  0
 53 71  1  0  0  0  0
 54 61  1  0  0  0  0
 54 70  1  0  0  0  0
 55 58  1  0  0  0  0
 55 78  1  0  0  0  0
 56 60  1  0  0  0  0
 56 69  1  0  0  0  0
 57 71  1  0  0  0  0
 58 59  1  0  0  0  0
 59 61  1  0  0  0  0
 62 63  1  0  0  0  0
M  CHG  1  71   1
M  ISO  4  32 100  55 101  70 100  78 101
M  END
> <Batch ID>
0107

> <Smiles>
CNC(C)C(=O)NC(C(=O)N1Cc2cc([101O:1][101CH2:1]C(C)C(C)C(C)(C)C[100NH:0][100C:0](=O)N3CCCC(n4nc(-c5ccc(Oc6ccc(F)cc6F)cc5)c(C(N)=O)c4N)C3)ccc2CC1C(=O)NC1CCCc2ccccc21)C(C)(C)C

> <Shape>
0.243

> <Color>
0.075

> <Negative vol penalty>
0.000

$$$$

  -OEChem-04052319513D

 77 84  0     1  0  0  0  0  0999 V2000
  -37.1751  -24.9344   32.8497 C   0  0  0  0  0  0  0  0  0  0  0  0
  -36.1154  -24.3506   32.1629 C   0  0  0  0  0  0  0  0  0  0  0  0
  -23.0008   -9.8940   19.9816 C   0  0  0  0  0  0  0  0  0  0  0  0
  -23.7311   -9.9433   22.2840 C   0  0  0  0  0  0  0  0  0  0  0  0
  -38.2966  -25.3792   32.1509 C   0  0  0  0  0  0  0  0  0  0  0  0
  -36.1762  -24.2122   30.7767 C   0  0  0  0  0  0  0  0  0  0  0  0
  -34.0529  -19.8539   25.5029 C   0  0  0  0  0  0  0  0  0  0  0  0
  -22.2360   -8.7584   20.2484 C   0  0  0  0  0  0  0  0  0  0  0  0
  -22.9663   -8.8077   22.5509 C   0  0  0  0  0  0  0  0  0  0  0  0
  -33.3773  -19.8878   24.2838 C   0  0  0  0  0  0  0  0  0  0  0  0
  -23.2130   -5.4695   22.0750 C   0  0  0  0  0  0  0  0  0  0  0  0
  -23.8033   -4.4522   22.8247 C   0  0  0  0  0  0  0  0  0  0  0  0
  -35.3989  -20.6207   23.1906 C   0  0  0  0  0  0  0  0  0  0  0  0
  -22.0829   -4.6915   24.5040 C   0  0  0  0  0  0  0  0  0  0  0  0
  -23.7483  -10.4864   20.9994 C   0  0  0  0  0  0  0  0  0  0  0  0
  -24.1306  -13.0026   20.8252 C   0  0  0  0  0  0  0  0  0  0  0  0
  -38.3753  -25.2374   30.7565 C   0  0  0  0  0  0  0  0  0  0  0  0
  -35.4061  -20.2141   25.5769 C   0  0  0  0  0  0  0  0  0  0  0  0
  -37.2993  -24.6567   30.0585 C   0  0  0  0  0  0  0  0  0  0  0  0
  -36.0901  -20.5879   24.4114 C   0  0  0  0  0  0  0  0  0  0  0  0
  -22.2187   -8.2153   21.5331 C   0  0  0  0  0  0  0  0  0  0  0  0
  -34.0495  -20.2741   23.1280 C   0  0  0  0  0  0  0  0  0  0  0  0
  -22.0577   -6.0980   22.5398 C   0  0  0  0  0  0  0  0  0  0  0  0
  -23.2383   -4.0631   24.0392 C   0  0  0  0  0  0  0  0  0  0  0  0
  -21.4927   -5.7089   23.7543 C   0  0  0  0  0  0  0  0  0  0  0  0
  -24.5390  -11.6591   20.7242 C   0  0  0  0  0  0  0  0  0  0  0  0
  -25.2388  -13.7267   20.4591 C   0  0  0  0  0  0  0  0  0  0  0  0
  -22.8630  -13.5472   21.2151 C   0  0  0  0  0  0  0  0  0  0  0  0
  -37.0431  -22.4884   27.0776 C   0  0  0  0  0  0  0  0  0  0  0  0
  -39.6024  -20.8830   25.8965 C   0  0  0  0  0  0  0  0  0  0  0  0
  -40.8556  -18.7688   23.5288 C   0  0  0  0  0  0  0  0  0  0  0  0
  -30.7347  -14.6668   20.6963 C   0  0  0  0  0  0  0  0  0  0  0  0
  -39.5877  -25.7763   30.0394 C   0  0  0  0  0  0  0  0  0  0  0  0
  -36.1276  -20.1465   26.8950 C   0  0  0  0  0  0  0  0  0  0  0  0
  -37.5483  -20.9646   24.4339 C   0  0  0  0  0  0  0  0  0  0  0  0
  -39.7346  -25.2524   28.6131 C   0  0  0  0  0  0  0  0  0  0  0  0
  -29.5913  -12.2444   18.3508 C   0  0  0  0  0  0  0  0  0  0  0  0
  -38.4024  -25.3343   27.8745 C   0  0  0  0  0  0  0  0  0  0  0  0
  -28.1441  -11.9827   18.7714 C   0  0  0  0  0  0  0  0  0  0  0  0
  -30.4962  -12.4795   19.5583 C   0  0  0  0  0  0  0  0  0  0  0  0
  -28.5883  -13.2716   20.9022 C   0  0  0  0  0  0  0  0  0  0  0  0
  -37.3386  -24.4665   28.5577 C   0  0  1  0  0  0  0  0  0  0  0  0
  -37.3715  -21.0285   26.9413 C   0  0  1  0  0  0  0  0  0  0  0  0
  -27.6268  -13.0842   19.7161 C   0  0  2  0  0  0  0  0  0  0  0  0
  -42.9911  -17.6703   22.8006 C   0  0  0  0  0  0  0  0  0  0  0  0
  -33.4853  -18.7130   20.1462 C   0  0  0  0  0  0  0  0  0  0  0  0
  -40.5536  -23.5266   24.7065 C   0  0  0  0  0  0  0  0  0  0  0  0
  -42.1117  -22.2260   23.2406 C   0  0  0  0  0  0  0  0  0  0  0  0
  -42.3621  -22.1283   25.7206 C   0  0  0  0  0  0  0  0  0  0  0  0
  -39.7391  -16.0594   23.9432 C   0  0  0  0  0  0  0  0  0  0  0  0
  -31.3129  -19.2568   21.3043 C   0  0  0  0  0  0  0  0  0  0  0  0
  -30.8178  -16.8446   21.8836 C   0  0  0  0  0  0  0  0  0  0  0  0
  -40.4123  -20.9499   24.6244 C   0  0  1  0  0  0  0  0  0  0  0  0
  -41.7322  -17.5346   23.6428 C   0  0  2  0  0  0  0  0  0  0  0  0
  -30.5657  -17.9796   20.8907 C   0  0  1  0  0  0  0  0  0  0  0  0
  -32.8284  -19.0837   21.4703 C   0  0  2  0  0  0  0  0  0  1  0  0
  -41.3320  -22.2026   24.5726 C   0  0  0  0  0  0  0  0  0  0  0  0
  -25.8075  -11.5344   20.3251 N   0  0  0  0  0  0  0  0  0  0  0  0
  -26.2058  -12.8087   20.1719 N   0  0  0  0  0  0  0  0  0  0  0  0
  -38.2082  -20.8887   25.7477 N   0  0  0  0  0  0  0  0  0  0  0  0
  -29.9502  -13.5367   20.4127 N   0  0  0  0  0  0  0  0  0  0  0  0
  -25.4707  -15.0528   20.3579 N   0  0  0  0  0  0  0  0  0  0  0  0
  -21.8329  -12.6617   21.5600 N   0  0  0  0  0  0  0  0  0  0  0  0
  -37.5372  -23.0711   28.2289 N   0  0  0  0  0  0  0  0  0  0  0  0
  -41.1253  -19.6808   24.5271 N   0  0  0  0  0  0  0  0  0  0  0  0
  -30.1392  -15.6241   21.5085 N   0  0  0  0  0  0  0  0  0  0  0  0
  -29.0990  -18.2508   20.8513 N   0  3  0  0  0  0  0  0  0  0  0  0
  -40.9885  -16.3270   23.1852 N   0  3  0  0  0  0  0  0  0  0  0  0
  -22.6450  -14.7823   21.2407 O   0  0  0  0  0  0  0  0  0  0  0  0
  -36.3909  -23.0453   26.2022 O   0  0  0  0  0  0  0  0  0  0  0  0
  -40.1852  -20.8204   26.9819 O   0  0  0  0  0  0  0  0  0  0  0  0
  -40.0181  -18.9112   22.6405 O   0  0  0  0  0  0  0  0  0  0  0  0
  -31.8790  -14.8144   20.2538 O   0  0  0  0  0  0  0  0  0  0  0  0
  -21.4724   -7.1073   21.7939 O   0  0  0  0  0  0  0  0  0  0  0  0
  -33.3922  -20.3087   21.9369 O   0  0  0  0  0  0  0  0  0  1  0  0
  -23.8044   -3.0851   24.7583 F   0  0  0  0  0  0  0  0  0  0  0  0
  -20.3822   -6.3082   24.2054 F   0  0  0  0  0  0  0  0  0  0  0  0
  1  2  1  0  0  0  0
  1  5  2  0  0  0  0
  2  6  2  0  0  0  0
  3  8  2  0  0  0  0
  3 15  1  0  0  0  0
  4  9  1  0  0  0  0
  4 15  2  0  0  0  0
  5 17  1  0  0  0  0
  6 19  1  0  0  0  0
  7 10  2  0  0  0  0
  7 18  1  0  0  0  0
  8 21  1  0  0  0  0
  9 21  2  0  0  0  0
 10 22  1  0  0  0  0
 11 12  2  0  0  0  0
 11 23  1  0  0  0  0
 12 24  1  0  0  0  0
 13 20  1  0  0  0  0
 13 22  2  0  0  0  0
 14 24  2  0  0  0  0
 14 25  1  0  0  0  0
 15 26  1  0  0  0  0
 16 26  1  0  0  0  0
 16 27  2  0  0  0  0
 16 28  1  0  0  0  0
 17 19  2  0  0  0  0
 17 33  1  0  0  0  0
 18 20  2  0  0  0  0
 18 34  1  0  0  0  0
 19 42  1  0  0  0  0
 20 35  1  0  0  0  0
 21 74  1  0  0  0  0
 22 75  1  0  0  0  0
 23 25  2  0  0  0  0
 23 74  1  0  0  0  0
 24 76  1  0  0  0  0
 25 77  1  0  0  0  0
 26 58  2  0  0  0  0
 27 59  1  0  0  0  0
 27 62  1  0  0  0  0
 28 63  1  0  0  0  0
 28 69  2  0  0  0  0
 29 43  1  0  0  0  0
 29 64  1  0  0  0  0
 29 70  2  0  0  0  0
 30 53  1  0  0  0  0
 30 60  1  0  0  0  0
 30 71  2  0  0  0  0
 31 54  1  0  0  0  0
 31 65  1  0  0  0  0
 31 72  2  0  0  0  0
 32 61  1  0  0  0  0
 32 66  1  0  0  0  0
 32 73  2  0  0  0  0
 33 36  1  0  0  0  0
 34 43  1  0  0  0  0
 35 60  1  0  0  0  0
 36 38  1  0  0  0  0
 37 39  1  0  0  0  0
 37 40  1  0  0  0  0
 38 42  1  0  0  0  0
 39 44  1  0  0  0  0
 40 61  1  0  0  0  0
 41 44  1  0  0  0  0
 41 61  1  0  0  0  0
 42 64  1  0  0  0  0
 43 60  1  0  0  0  0
 44 59  1  0  0  0  0
 45 54  1  0  0  0  0
 46 56  1  0  0  0  0
 47 57  1  0  0  0  0
 48 57  1  0  0  0  0
 49 57  1  0  0  0  0
 50 68  1  0  0  0  0
 51 55  1  0  0  0  0
 51 56  1  0  0  0  0
 52 55  1  0  0  0  0
 52 66  1  0  0  0  0
 53 57  1  0  0  0  0
 53 65  1  0  0  0  0
 54 68  1  0  0  0  0
 55 67  1  0  0  0  0
 56 75  1  0  0  0  0
 58 59  1  0  0  0  0
M  CHG  2  67   1  68   1
M  ISO  4  32 100  56 101  66 100  75 101
M  END
> <Batch ID>
0107

> <Smiles>
CNC(C)C(=O)NC(C(=O)N1Cc2cc([101O:1][101CH:1](C)CC(N)C[100NH:0][100C:0](=O)N3CCCC(n4nc(-c5ccc(Oc6ccc(F)cc6F)cc5)c(C(N)=O)c4N)C3)ccc2CC1C(=O)NC1CCCc2ccccc21)C(C)(C)C

> <Shape>
0.183

> <Color>
0.202

> <Negative vol penalty>
0.000

$$$$

  -OEChem-04052319513D

 89 97  0     1  0  0  0  0  0999 V2000
  -25.8048  -19.5705   17.7439 C   0  0  0  0  0  0  0  0  0  0  0  0
  -26.8345  -18.7509   18.1950 C   0  0  0  0  0  0  0  0  0  0  0  0
  -26.4470  -28.9744   19.1471 C   0  0  0  0  0  0  0  0  0  0  0  0
  -26.0895  -28.2742   21.4316 C   0  0  0  0  0  0  0  0  0  0  0  0
  -24.5458  -19.4973   18.3383 C   0  0  0  0  0  0  0  0  0  0  0  0
  -26.6059  -17.8583   19.2416 C   0  0  0  0  0  0  0  0  0  0  0  0
  -28.5493  -13.2695   18.3408 C   0  0  0  0  0  0  0  0  0  0  0  0
  -25.2048  -29.6087   19.1471 C   0  0  0  0  0  0  0  0  0  0  0  0
  -24.8472  -28.9085   21.4316 C   0  0  0  0  0  0  0  0  0  0  0  0
  -29.9234  -13.1140   18.5179 C   0  0  0  0  0  0  0  0  0  0  0  0
  -21.7307  -28.2834   20.2793 C   0  0  0  0  0  0  0  0  0  0  0  0
  -20.6484  -27.5888   20.8194 C   0  0  0  0  0  0  0  0  0  0  0  0
  -29.5261  -12.1152   20.6774 C   0  0  0  0  0  0  0  0  0  0  0  0
  -29.6823  -18.9271   25.1090 C   0  0  0  0  0  0  0  0  0  0  0  0
  -20.3413  -29.3396   22.4557 C   0  0  0  0  0  0  0  0  0  0  0  0
  -26.8894  -28.3071   20.2894 C   0  0  0  0  0  0  0  0  0  0  0  0
  -29.4121  -28.2090   20.6551 C   0  0  0  0  0  0  0  0  0  0  0  0
  -24.2991  -18.5965   19.3864 C   0  0  0  0  0  0  0  0  0  0  0  0
  -27.6522  -12.8583   19.3371 C   0  0  0  0  0  0  0  0  0  0  0  0
  -25.3428  -17.7739   19.8516 C   0  0  0  0  0  0  0  0  0  0  0  0
  -28.1409  -12.2643   20.5095 C   0  0  0  0  0  0  0  0  0  0  0  0
  -29.1781  -20.2093   25.2967 C   0  0  0  0  0  0  0  0  0  0  0  0
  -29.0868  -21.0795   24.2161 C   0  0  0  0  0  0  0  0  0  0  0  0
  -24.4049  -29.5758   20.2893 C   0  0  0  0  0  0  0  0  0  0  0  0
  -30.4121  -12.5395   19.6875 C   0  0  0  0  0  0  0  0  0  0  0  0
  -22.1184  -29.5061   20.8275 C   0  0  0  0  0  0  0  0  0  0  0  0
  -19.9537  -28.1169   21.9075 C   0  0  0  0  0  0  0  0  0  0  0  0
  -21.4237  -30.0342   21.9157 C   0  0  0  0  0  0  0  0  0  0  0  0
  -28.1723  -27.6511   20.2898 C   0  0  0  0  0  0  0  0  0  0  0  0
  -29.5096  -20.6228   22.9781 C   0  0  0  0  0  0  0  0  0  0  0  0
  -30.0781  -18.5667   23.8310 C   0  0  0  0  0  0  0  0  0  0  0  0
  -30.3127  -27.1863   20.4834 C   0  0  0  0  0  0  0  0  0  0  0  0
  -29.7220  -29.5332   21.1090 C   0  0  0  0  0  0  0  0  0  0  0  0
  -25.5028  -14.3235   21.1638 C   0  0  0  0  0  0  0  0  0  0  0  0
  -24.7915  -11.2944   22.0809 C   0  0  0  0  0  0  0  0  0  0  0  0
  -25.8128   -8.0564   22.4256 C   0  0  0  0  0  0  0  0  0  0  0  0
  -29.7917  -21.2340   20.5505 C   0  0  0  0  0  0  0  0  0  0  0  0
  -22.9347  -18.5868   20.0292 C   0  0  0  0  0  0  0  0  0  0  0  0
  -26.1715  -13.0085   19.1194 C   0  0  0  0  0  0  0  0  0  0  0  0
  -27.2188  -11.7876   21.6008 C   0  0  0  0  0  0  0  0  0  0  0  0
  -22.6726  -17.3489   20.8830 C   0  0  0  0  0  0  0  0  0  0  0  0
  -31.0378  -23.2325   17.8803 C   0  0  0  0  0  0  0  0  0  0  0  0
  -23.8653  -17.0636   21.7902 C   0  0  0  0  0  0  0  0  0  0  0  0
  -30.5624  -24.6442   18.2315 C   0  0  0  0  0  0  0  0  0  0  0  0
  -30.0032  -22.1747   18.2603 C   0  0  0  0  0  0  0  0  0  0  0  0
  -29.0672  -23.6408   20.0048 C   0  0  0  0  0  0  0  0  0  0  0  0
  -25.1272  -16.7753   20.9680 C   0  0  1  0  0  0  0  0  0  0  0  0
  -25.3748  -13.0241   20.4203 C   0  0  1  0  0  0  0  0  0  0  0  0
  -30.1032  -24.7351   19.7000 C   0  0  2  0  0  0  0  0  0  0  0  0
  -28.7436  -20.6254   26.6632 C   0  0  0  0  0  0  0  0  0  0  0  0
  -27.2638  -22.7014   23.5841 C   0  0  0  0  0  0  0  0  0  0  0  0
  -29.5898  -23.5450   24.0672 C   0  0  0  0  0  0  0  0  0  0  0  0
  -25.0233   -5.8179   23.2401 C   0  0  0  0  0  0  0  0  0  0  0  0
  -25.1769  -12.2108   24.9656 C   0  0  0  0  0  0  0  0  0  0  0  0
  -25.3201   -9.8034   25.6379 C   0  0  0  0  0  0  0  0  0  0  0  0
  -23.2271  -10.6863   24.6070 C   0  0  0  0  0  0  0  0  0  0  0  0
  -26.1343   -6.8389   19.7473 C   0  0  0  0  0  0  0  0  0  0  0  0
  -34.4945  -13.8079   22.4691 C   0  0  0  0  0  0  0  0  0  0  0  0
  -31.9797  -15.7099   22.5170 C   0  0  0  0  0  0  0  0  0  0  0  0
  -32.9943  -15.4885   21.4083 C   0  0  0  0  0  0  0  0  0  0  0  0
  -33.8408  -13.5606   20.0789 C   0  0  0  0  0  0  0  0  0  0  0  0
  -31.5339  -17.1637   22.5787 C   0  0  0  0  0  0  0  0  0  0  0  0
  -32.6036  -13.3424   19.2305 C   0  0  0  0  0  0  0  0  0  1  0  0
  -28.5483  -22.4603   24.3982 C   0  0  0  0  0  0  0  0  0  0  0  0
  -25.2785  -10.3634   23.1649 C   0  0  1  0  0  0  0  0  0  0  0  0
  -25.1511   -6.7452   22.0415 C   0  0  2  0  0  0  0  0  0  0  0  0
  -24.7684  -10.7766   24.5743 C   0  0  0  0  0  0  0  0  0  0  0  0
  -28.2724  -26.3733   19.9143 N   0  0  0  0  0  0  0  0  0  0  0  0
  -30.0046  -19.3844   22.7570 N   0  0  0  0  0  0  0  0  0  0  0  0
  -29.5859  -26.1196   20.0427 N   0  0  0  0  0  0  0  0  0  0  0  0
  -25.7797  -11.9622   21.3437 N   0  0  0  0  0  0  0  0  0  0  0  0
  -29.6188  -22.3196   19.6660 N   0  0  0  0  0  0  0  0  0  0  0  0
  -31.6475  -27.1043   20.6680 N   0  0  0  0  0  0  0  0  0  0  0  0
  -28.6775  -30.4600   21.2288 N   0  0  0  0  0  0  0  0  0  0  0  0
  -29.4217  -21.4996   21.8685 N   0  0  0  0  0  0  0  0  0  0  0  0
  -25.0908  -15.4275   20.4421 N   0  0  0  0  0  0  0  0  0  0  0  0
  -24.8834   -9.0196   22.7567 N   0  0  0  0  0  0  0  0  0  0  0  0
  -25.9494   -6.0500   20.9925 N   0  3  0  0  0  0  0  0  0  0  0  0
  -33.4347  -14.0456   21.4221 N   0  3  1  0  0  0  0  0  0  0  0  0
  -30.8930  -29.8890   21.3841 O   0  0  0  0  0  0  0  0  0  0  0  0
  -25.9414  -14.3243   22.3081 O   0  0  0  0  0  0  0  0  0  0  0  0
  -23.5791  -11.4190   21.8904 O   0  0  0  0  0  0  0  0  0  0  0  0
  -27.0322   -8.2096   22.4348 O   0  0  0  0  0  0  0  0  0  0  0  0
  -30.2609  -20.1574   20.1727 O   0  0  0  0  0  0  0  0  0  0  0  0
  -23.1927  -30.1948   20.2897 O   0  0  0  0  0  0  0  0  0  0  0  0
  -31.7530  -12.3871   19.8631 O   0  0  0  0  0  0  0  0  0  1  0  0
  -30.5783  -17.3080   23.6204 O   0  0  0  0  0  0  0  0  0  0  0  0
  -18.9133  -27.4505   22.4251 F   0  0  0  0  0  0  0  0  0  0  0  0
  -21.7907  -31.2089   22.4458 F   0  0  0  0  0  0  0  0  0  0  0  0
  1  2  1  0  0  0  0
  1  5  2  0  0  0  0
  2  6  2  0  0  0  0
  3  8  2  0  0  0  0
  3 16  1  0  0  0  0
  4  9  1  0  0  0  0
  4 16  2  0  0  0  0
  5 18  1  0  0  0  0
  6 20  1  0  0  0  0
  7 10  2  0  0  0  0
  7 19  1  0  0  0  0
  8 24  1  0  0  0  0
  9 24  2  0  0  0  0
 10 25  1  0  0  0  0
 11 12  2  0  0  0  0
 11 26  1  0  0  0  0
 12 27  1  0  0  0  0
 13 21  1  0  0  0  0
 13 25  2  0  0  0  0
 14 22  2  0  0  0  0
 14 31  1  0  0  0  0
 15 27  2  0  0  0  0
 15 28  1  0  0  0  0
 16 29  1  0  0  0  0
 17 29  1  0  0  0  0
 17 32  2  0  0  0  0
 17 33  1  0  0  0  0
 18 20  2  0  0  0  0
 18 38  1  0  0  0  0
 19 21  2  0  0  0  0
 19 39  1  0  0  0  0
 20 47  1  0  0  0  0
 21 40  1  0  0  0  0
 22 23  1  0  0  0  0
 22 50  1  0  0  0  0
 23 30  2  0  0  0  0
 23 64  1  0  0  0  0
 24 85  1  0  0  0  0
 25 86  1  0  0  0  0
 26 28  2  0  0  0  0
 26 85  1  0  0  0  0
 27 88  1  0  0  0  0
 28 89  1  0  0  0  0
 29 68  2  0  0  0  0
 30 69  1  0  0  0  0
 30 75  1  0  0  0  0
 31 69  2  0  0  0  0
 31 87  1  0  0  0  0
 32 70  1  0  0  0  0
 32 73  1  0  0  0  0
 33 74  1  0  0  0  0
 33 80  2  0  0  0  0
 34 48  1  0  0  0  0
 34 76  1  0  0  0  0
 34 81  2  0  0  0  0
 35 65  1  0  0  0  0
 35 71  1  0  0  0  0
 35 82  2  0  0  0  0
 36 66  1  0  0  0  0
 36 77  1  0  0  0  0
 36 83  2  0  0  0  0
 37 72  1  0  0  0  0
 37 75  1  0  0  0  0
 37 84  2  0  0  0  0
 38 41  1  0  0  0  0
 39 48  1  0  0  0  0
 40 71  1  0  0  0  0
 41 43  1  0  0  0  0
 42 44  1  0  0  0  0
 42 45  1  0  0  0  0
 43 47  1  0  0  0  0
 44 49  1  0  0  0  0
 45 72  1  0  0  0  0
 46 49  1  0  0  0  0
 46 72  1  0  0  0  0
 47 76  1  0  0  0  0
 48 71  1  0  0  0  0
 49 70  1  0  0  0  0
 51 64  1  0  0  0  0
 52 64  1  0  0  0  0
 53 66  1  0  0  0  0
 54 67  1  0  0  0  0
 55 67  1  0  0  0  0
 56 67  1  0  0  0  0
 57 78  1  0  0  0  0
 58 79  1  0  0  0  0
 59 60  1  0  0  0  0
 59 62  1  0  0  0  0
 60 79  1  0  0  0  0
 61 63  1  0  0  0  0
 61 79  1  0  0  0  0
 62 87  1  0  0  0  0
 63 86  1  0  0  0  0
 65 67  1  0  0  0  0
 65 77  1  0  0  0  0
 66 78  1  0  0  0  0
 68 70  1  0  0  0  0
M  CHG  2  78   1  79   1
M  ISO  4  37 100  63 101  75 100  86 101
M  END
> <Batch ID>
0107

> <Smiles>
CNC(C)C(=O)NC(C(=O)N1Cc2cc([101O:1][101CH2:1]CN(C)CCCOc3cc(C)c(C(C)C)c([100NH:0][100C:0](=O)N4CCCC(n5nc(-c6ccc(Oc7ccc(F)cc7F)cc6)c(C(N)=O)c5N)C4)n3)ccc2CC1C(=O)NC1CCCc2ccccc21)C(C)(C)C

> <Shape>
0.269

> <Color>
0.069

> <Negative vol penalty>
0.000

$$$$

  -OEChem-04052319513D

 83 90  0     1  0  0  0  0  0999 V2000
  -21.7331  -14.2543   20.3680 C   0  0  0  0  0  0  0  0  0  0  0  0
  -22.5059  -15.3179   20.8230 C   0  0  0  0  0  0  0  0  0  0  0  0
  -23.8434  -30.1564   22.2163 C   0  0  0  0  0  0  0  0  0  0  0  0
  -23.0287  -27.8916   22.0070 C   0  0  0  0  0  0  0  0  0  0  0  0
  -22.3070  -12.9931   20.2137 C   0  0  0  0  0  0  0  0  0  0  0  0
  -23.8528  -15.1205   21.1251 C   0  0  0  0  0  0  0  0  0  0  0  0
  -26.8151  -18.7917   19.2831 C   0  0  0  0  0  0  0  0  0  0  0  0
  -22.7344  -30.4833   22.9965 C   0  0  0  0  0  0  0  0  0  0  0  0
  -21.9196  -28.2184   22.7873 C   0  0  0  0  0  0  0  0  0  0  0  0
  -26.8427  -19.9981   19.9814 C   0  0  0  0  0  0  0  0  0  0  0  0
  -18.9597  -29.7987   22.3717 C   0  0  0  0  0  0  0  0  0  0  0  0
  -17.7095  -29.3582   21.9377 C   0  0  0  0  0  0  0  0  0  0  0  0
  -28.9230  -19.3458   21.0139 C   0  0  0  0  0  0  0  0  0  0  0  0
  -17.4380  -28.1087   23.9876 C   0  0  0  0  0  0  0  0  0  0  0  0
  -23.9906  -28.8605   21.7215 C   0  0  0  0  0  0  0  0  0  0  0  0
  -26.3773  -28.0340   21.3640 C   0  0  0  0  0  0  0  0  0  0  0  0
  -23.6640  -12.7823   20.5048 C   0  0  0  0  0  0  0  0  0  0  0  0
  -27.8374  -17.8470   19.4535 C   0  0  0  0  0  0  0  0  0  0  0  0
  -24.4451  -13.8550   20.9758 C   0  0  0  0  0  0  0  0  0  0  0  0
  -28.9073  -18.1293   20.3147 C   0  0  0  0  0  0  0  0  0  0  0  0
  -21.7725  -29.5143   23.2820 C   0  0  0  0  0  0  0  0  0  0  0  0
  -27.8953  -20.2741   20.8492 C   0  0  0  0  0  0  0  0  0  0  0  0
  -19.4492  -29.3941   23.6137 C   0  0  0  0  0  0  0  0  0  0  0  0
  -16.9486  -28.5133   22.7456 C   0  0  0  0  0  0  0  0  0  0  0  0
  -18.6883  -28.5492   24.4216 C   0  0  0  0  0  0  0  0  0  0  0  0
  -25.1357  -28.5224   20.9150 C   0  0  0  0  0  0  0  0  0  0  0  0
  -27.1175  -27.8727   20.2183 C   0  0  0  0  0  0  0  0  0  0  0  0
  -26.8219  -27.7513   22.6975 C   0  0  0  0  0  0  0  0  0  0  0  0
  -27.9727  -14.8564   20.5219 C   0  0  0  0  0  0  0  0  0  0  0  0
  -31.0611  -15.0621   19.5515 C   0  0  0  0  0  0  0  0  0  0  0  0
  -33.7500  -17.0411   18.8443 C   0  0  0  0  0  0  0  0  0  0  0  0
  -27.5858  -26.1594   14.9277 C   0  0  0  0  0  0  0  0  0  0  0  0
  -24.2282  -11.3904   20.3675 C   0  0  0  0  0  0  0  0  0  0  0  0
  -27.8066  -16.5619   18.6726 C   0  0  0  0  0  0  0  0  0  0  0  0
  -30.0397  -17.1572   20.5175 C   0  0  0  0  0  0  0  0  0  0  0  0
  -25.7542  -11.3505   20.3522 C   0  0  0  0  0  0  0  0  0  0  0  0
  -26.2262  -29.4033   15.4802 C   0  0  0  0  0  0  0  0  0  0  0  0
  -26.3221  -12.2186   21.4705 C   0  0  0  0  0  0  0  0  0  0  0  0
  -25.9182  -29.4205   16.9785 C   0  0  0  0  0  0  0  0  0  0  0  0
  -25.9633  -28.0303   14.8657 C   0  0  0  0  0  0  0  0  0  0  0  0
  -26.3377  -26.9266   17.0372 C   0  0  0  0  0  0  0  0  0  0  0  0
  -25.9157  -13.6862   21.2902 C   0  0  1  0  0  0  0  0  0  0  0  0
  -28.6363  -15.4535   19.3133 C   0  0  1  0  0  0  0  0  0  0  0  0
  -26.6408  -28.2750   17.7127 C   0  0  2  0  0  0  0  0  0  0  0  0
  -36.1469  -16.9194   18.1110 C   0  0  0  0  0  0  0  0  0  0  0  0
  -27.9822  -24.0857   22.8295 C   0  0  0  0  0  0  0  0  0  0  0  0
  -32.7196  -23.3567   17.0389 C   0  0  0  0  0  0  0  0  0  0  0  0
  -31.8703  -14.1658   22.3536 C   0  0  0  0  0  0  0  0  0  0  0  0
  -34.1910  -14.9679   21.8644 C   0  0  0  0  0  0  0  0  0  0  0  0
  -33.1958  -13.1294   20.5034 C   0  0  0  0  0  0  0  0  0  0  0  0
  -33.2001  -18.6035   16.3917 C   0  0  0  0  0  0  0  0  0  0  0  0
  -32.1544  -26.0240   16.7450 C   0  0  0  0  0  0  0  0  0  0  0  0
  -29.6095  -23.8232   19.2928 C   0  0  0  0  0  0  0  0  0  0  0  0
  -29.4701  -23.9419   20.8147 C   0  0  0  0  0  0  0  0  0  0  0  0
  -31.0751  -23.9586   18.8616 C   0  0  0  0  0  0  0  0  0  0  0  0
  -29.1910  -24.2800   15.1518 C   0  0  0  0  0  0  0  0  0  0  0  0
  -30.6054  -24.8264   15.2064 C   0  0  0  0  0  0  0  0  0  0  0  0
  -27.3132  -22.5792   20.9092 C   0  0  0  0  0  0  0  0  0  1  0  0
  -32.3570  -15.4943   20.1939 C   0  0  1  0  0  0  0  0  0  0  0  0
  -34.7012  -17.0630   17.6614 C   0  0  2  0  0  0  0  0  0  0  0  0
  -28.0108  -23.8872   21.3086 C   0  0  1  0  0  0  0  0  0  0  0  0
  -31.2884  -23.7703   17.3556 C   0  0  1  0  0  0  0  0  0  0  0  0
  -32.8814  -14.4571   21.2267 C   0  0  0  0  0  0  0  0  0  0  0  0
  -25.0861  -28.6623   19.5876 N   0  0  0  0  0  0  0  0  0  0  0  0
  -26.3059  -28.2595   19.1927 N   0  0  0  0  0  0  0  0  0  0  0  0
  -29.9612  -15.9117   19.7363 N   0  0  0  0  0  0  0  0  0  0  0  0
  -26.6785  -26.9889   15.6072 N   0  0  0  0  0  0  0  0  0  0  0  0
  -28.3769  -27.4392   19.9982 N   0  0  0  0  0  0  0  0  0  0  0  0
  -25.9340  -27.9734   23.7589 N   0  0  0  0  0  0  0  0  0  0  0  0
  -26.7272  -14.3136   20.2694 N   0  0  0  0  0  0  0  0  0  0  0  0
  -33.2829  -15.7693   19.1005 N   0  0  0  0  0  0  0  0  0  0  0  0
  -28.2256  -25.2028   15.7062 N   0  0  0  0  0  0  0  0  0  0  0  0
  -34.5670  -18.3445   16.9125 N   0  3  0  0  0  0  0  0  0  0  0  0
  -31.0116  -25.0474   16.6405 N   0  3  1  0  0  0  0  0  0  0  0  0
  -27.9779  -27.3302   22.9419 O   0  0  0  0  0  0  0  0  0  0  0  0
  -28.5486  -14.8847   21.6032 O   0  0  0  0  0  0  0  0  0  0  0  0
  -31.0278  -14.0131   18.9034 O   0  0  0  0  0  0  0  0  0  0  0  0
  -33.4542  -18.0505   19.4799 O   0  0  0  0  0  0  0  0  0  0  0  0
  -27.8130  -26.2671   13.7178 O   0  0  0  0  0  0  0  0  0  0  0  0
  -20.6903  -29.8329   24.0435 O   0  0  0  0  0  0  0  0  0  0  0  0
  -27.9246  -21.4585   21.5371 O   0  0  0  0  0  0  0  0  0  1  0  0
  -15.7473  -28.0916   22.3293 F   0  0  0  0  0  0  0  0  0  0  0  0
  -19.1527  -28.1581   25.6163 F   0  0  0  0  0  0  0  0  0  0  0  0
  1  2  1  0  0  0  0
  1  5  2  0  0  0  0
  2  6  2  0  0  0  0
  3  8  2  0  0  0  0
  3 15  1  0  0  0  0
  4  9  1  0  0  0  0
  4 15  2  0  0  0  0
  5 17  1  0  0  0  0
  6 19  1  0  0  0  0
  7 10  2  0  0  0  0
  7 18  1  0  0  0  0
  8 21  1  0  0  0  0
  9 21  2  0  0  0  0
 10 22  1  0  0  0  0
 11 12  2  0  0  0  0
 11 23  1  0  0  0  0
 12 24  1  0  0  0  0
 13 20  1  0  0  0  0
 13 22  2  0  0  0  0
 14 24  2  0  0  0  0
 14 25  1  0  0  0  0
 15 26  1  0  0  0  0
 16 26  1  0  0  0  0
 16 27  2  0  0  0  0
 16 28  1  0  0  0  0
 17 19  2  0  0  0  0
 17 33  1  0  0  0  0
 18 20  2  0  0  0  0
 18 34  1  0  0  0  0
 19 42  1  0  0  0  0
 20 35  1  0  0  0  0
 21 80  1  0  0  0  0
 22 81  1  0  0  0  0
 23 25  2  0  0  0  0
 23 80  1  0  0  0  0
 24 82  1  0  0  0  0
 25 83  1  0  0  0  0
 26 64  2  0  0  0  0
 27 65  1  0  0  0  0
 27 68  1  0  0  0  0
 28 69  1  0  0  0  0
 28 75  2  0  0  0  0
 29 43  1  0  0  0  0
 29 70  1  0  0  0  0
 29 76  2  0  0  0  0
 30 59  1  0  0  0  0
 30 66  1  0  0  0  0
 30 77  2  0  0  0  0
 31 60  1  0  0  0  0
 31 71  1  0  0  0  0
 31 78  2  0  0  0  0
 32 67  1  0  0  0  0
 32 72  1  0  0  0  0
 32 79  2  0  0  0  0
 33 36  1  0  0  0  0
 34 43  1  0  0  0  0
 35 66  1  0  0  0  0
 36 38  1  0  0  0  0
 37 39  1  0  0  0  0
 37 40  1  0  0  0  0
 38 42  1  0  0  0  0
 39 44  1  0  0  0  0
 40 67  1  0  0  0  0
 41 44  1  0  0  0  0
 41 67  1  0  0  0  0
 42 70  1  0  0  0  0
 43 66  1  0  0  0  0
 44 65  1  0  0  0  0
 45 60  1  0  0  0  0
 46 61  1  0  0  0  0
 47 62  1  0  0  0  0
 48 63  1  0  0  0  0
 49 63  1  0  0  0  0
 50 63  1  0  0  0  0
 51 73  1  0  0  0  0
 52 74  1  0  0  0  0
 53 54  1  0  0  0  0
 53 55  1  0  0  0  0
 54 61  1  0  0  0  0
 55 62  1  0  0  0  0
 56 57  1  0  0  0  0
 56 72  1  0  0  0  0
 57 74  1  0  0  0  0
 58 61  1  0  0  0  0
 58 81  1  0  0  0  0
 59 63  1  0  0  0  0
 59 71  1  0  0  0  0
 60 73  1  0  0  0  0
 62 74  1  0  0  0  0
 64 65  1  0  0  0  0
M  CHG  2  73   1  74   1
M  ISO  4  32 100  58 101  72 100  81 101
M  END
> <Batch ID>
0107

> <Smiles>
CNC(C)C(=O)NC(C(=O)N1Cc2cc([101O:1][101CH2:1]C(C)CCCC(C)N(C)CC[100NH:0][100C:0](=O)N3CCCC(n4nc(-c5ccc(Oc6ccc(F)cc6F)cc5)c(C(N)=O)c4N)C3)ccc2CC1C(=O)NC1CCCc2ccccc21)C(C)(C)C

> <Shape>
0.235

> <Color>
0.063

> <Negative vol penalty>
0.000

$$$$

  -OEChem-04052319513D

 80 87  0     1  0  0  0  0  0999 V2000
  -24.8222  -20.8151   25.1430 C   0  0  0  0  0  0  0  0  0  0  0  0
  -25.9940  -20.0654   25.1271 C   0  0  0  0  0  0  0  0  0  0  0  0
  -23.0743   -9.8692   19.9422 C   0  0  0  0  0  0  0  0  0  0  0  0
  -23.8388   -9.8751   22.2340 C   0  0  0  0  0  0  0  0  0  0  0  0
  -24.8579  -22.1693   24.8135 C   0  0  0  0  0  0  0  0  0  0  0  0
  -27.2021  -20.6693   24.7805 C   0  0  0  0  0  0  0  0  0  0  0  0
  -30.9846  -19.3718   27.8875 C   0  0  0  0  0  0  0  0  0  0  0  0
  -22.3318   -8.7154   20.1928 C   0  0  0  0  0  0  0  0  0  0  0  0
  -23.0962   -8.7213   22.4847 C   0  0  0  0  0  0  0  0  0  0  0  0
  -31.5645  -18.1185   27.6959 C   0  0  0  0  0  0  0  0  0  0  0  0
  -21.1158   -5.9820   23.8235 C   0  0  0  0  0  0  0  0  0  0  0  0
  -20.3619   -5.9371   24.9961 C   0  0  0  0  0  0  0  0  0  0  0  0
  -33.3903  -19.1520   26.5054 C   0  0  0  0  0  0  0  0  0  0  0  0
  -19.1146   -7.8740   24.2684 C   0  0  0  0  0  0  0  0  0  0  0  0
  -23.8279  -10.4491   20.9627 C   0  0  0  0  0  0  0  0  0  0  0  0
  -24.1678  -12.9745   20.8437 C   0  0  0  0  0  0  0  0  0  0  0  0
  -26.0686  -22.7924   24.4720 C   0  0  0  0  0  0  0  0  0  0  0  0
  -31.5987  -20.5254   27.3792 C   0  0  0  0  0  0  0  0  0  0  0  0
  -27.2538  -22.0329   24.4447 C   0  0  0  0  0  0  0  0  0  0  0  0
  -32.8175  -20.4190   26.6941 C   0  0  0  0  0  0  0  0  0  0  0  0
  -22.3427   -8.1414   21.4641 C   0  0  0  0  0  0  0  0  0  0  0  0
  -32.7661  -18.0081   27.0023 C   0  0  0  0  0  0  0  0  0  0  0  0
  -20.8692   -6.9729   22.8732 C   0  0  0  0  0  0  0  0  0  0  0  0
  -19.3613   -6.8830   25.2186 C   0  0  0  0  0  0  0  0  0  0  0  0
  -19.8685   -7.9189   23.0957 C   0  0  0  0  0  0  0  0  0  0  0  0
  -24.5957  -11.6406   20.7043 C   0  0  0  0  0  0  0  0  0  0  0  0
  -25.2587  -13.7250   20.4788 C   0  0  0  0  0  0  0  0  0  0  0  0
  -22.8978  -13.4892   21.2656 C   0  0  0  0  0  0  0  0  0  0  0  0
  -30.7845  -22.7527   25.2626 C   0  0  0  0  0  0  0  0  0  0  0  0
  -33.5384  -24.1496   26.2562 C   0  0  0  0  0  0  0  0  0  0  0  0
  -36.6224  -23.7899   27.6727 C   0  0  0  0  0  0  0  0  0  0  0  0
  -30.7421  -14.7477   20.6568 C   0  0  0  0  0  0  0  0  0  0  0  0
  -26.0499  -24.2480   24.0774 C   0  0  0  0  0  0  0  0  0  0  0  0
  -30.9739  -21.8728   27.6175 C   0  0  0  0  0  0  0  0  0  0  0  0
  -33.5274  -21.6290   26.1460 C   0  0  0  0  0  0  0  0  0  0  0  0
  -27.4306  -24.8990   24.0850 C   0  0  0  0  0  0  0  0  0  0  0  0
  -29.6014  -12.3640   18.2707 C   0  0  0  0  0  0  0  0  0  0  0  0
  -28.4460  -24.0054   23.3799 C   0  0  0  0  0  0  0  0  0  0  0  0
  -28.1650  -12.0690   18.7063 C   0  0  0  0  0  0  0  0  0  0  0  0
  -30.5208  -12.5846   19.4699 C   0  0  0  0  0  0  0  0  0  0  0  0
  -28.6213  -13.3135   20.8608 C   0  0  0  0  0  0  0  0  0  0  0  0
  -28.5877  -22.6579   24.0981 C   0  0  1  0  0  0  0  0  0  0  0  0
  -31.4245  -22.9268   26.6108 C   0  0  1  0  0  0  0  0  0  0  0  0
  -27.6449  -13.1390   19.6850 C   0  0  2  0  0  0  0  0  0  0  0  0
  -38.6588  -25.1061   28.3193 C   0  0  0  0  0  0  0  0  0  0  0  0
  -34.3857  -24.2730   23.3276 C   0  0  0  0  0  0  0  0  0  0  0  0
  -36.7316  -24.6903   24.0962 C   0  0  0  0  0  0  0  0  0  0  0  0
  -34.9284  -26.3200   24.6578 C   0  0  0  0  0  0  0  0  0  0  0  0
  -31.1287  -17.7264   20.6433 C   0  0  0  0  0  0  0  0  0  0  0  0
  -29.8530  -17.6993   22.7922 C   0  0  0  0  0  0  0  0  0  0  0  0
  -36.3132  -23.0847   30.5303 C   0  0  0  0  0  0  0  0  0  0  0  0
  -34.2465  -14.5004   23.6087 C   0  0  0  0  0  0  0  0  0  0  0  0
  -32.0901  -16.5682   22.7002 C   0  0  0  0  0  0  0  0  0  0  0  0
  -31.9343  -15.4206   23.6950 C   0  0  0  0  0  0  0  0  0  0  0  0
  -33.0395  -14.6332   25.7829 C   0  0  0  0  0  0  0  0  0  0  0  0
  -32.4526  -15.6672   26.7235 C   0  0  0  0  0  0  0  0  0  1  0  0
  -34.9854  -24.0815   25.8315 C   0  0  1  0  0  0  0  0  0  0  0  0
  -37.3173  -24.5589   28.7818 C   0  0  2  0  0  0  0  0  0  0  0  0
  -35.2437  -24.8180   24.4868 C   0  0  0  0  0  0  0  0  0  0  0  0
  -30.8090  -16.8974   21.8950 C   0  0  0  0  0  0  0  0  0  0  0  0
  -25.8598  -11.5459   20.2834 N   0  0  0  0  0  0  0  0  0  0  0  0
  -26.2355  -12.8299   20.1552 N   0  0  0  0  0  0  0  0  0  0  0  0
  -32.8734  -22.9235   26.3993 N   0  0  0  0  0  0  0  0  0  0  0  0
  -29.9713  -13.6122   20.3577 N   0  0  0  0  0  0  0  0  0  0  0  0
  -25.4681  -15.0566   20.4062 N   0  0  0  0  0  0  0  0  0  0  0  0
  -21.8872  -12.5791   21.6042 N   0  0  0  0  0  0  0  0  0  0  0  0
  -29.4037  -22.8010   25.2848 N   0  0  0  0  0  0  0  0  0  0  0  0
  -35.7646  -24.5947   26.9531 N   0  0  0  0  0  0  0  0  0  0  0  0
  -30.1440  -15.6755   21.5007 N   0  0  0  0  0  0  0  0  0  0  0  0
  -37.5510  -23.6739   29.9579 N   0  3  0  0  0  0  0  0  0  0  0  0
  -33.2324  -15.2431   24.4431 N   0  3  1  0  0  0  0  0  0  0  0  0
  -22.6608  -14.7196   21.3242 O   0  0  0  0  0  0  0  0  0  0  0  0
  -31.4912  -22.5883   24.2750 O   0  0  0  0  0  0  0  0  0  0  0  0
  -33.0192  -25.2497   26.4606 O   0  0  0  0  0  0  0  0  0  0  0  0
  -36.8234  -22.5957   27.4630 O   0  0  0  0  0  0  0  0  0  0  0  0
  -31.8770  -14.9242   20.2010 O   0  0  0  0  0  0  0  0  0  0  0  0
  -21.6180   -7.0157   21.7091 O   0  0  0  0  0  0  0  0  0  0  0  0
  -33.3339  -16.7860   26.8133 O   0  0  0  0  0  0  0  0  0  1  0  0
  -18.6364   -6.8389   26.3441 F   0  0  0  0  0  0  0  0  0  0  0  0
  -19.6262   -8.8725   22.1860 F   0  0  0  0  0  0  0  0  0  0  0  0
  1  2  1  0  0  0  0
  1  5  2  0  0  0  0
  2  6  2  0  0  0  0
  3  8  2  0  0  0  0
  3 15  1  0  0  0  0
  4  9  1  0  0  0  0
  4 15  2  0  0  0  0
  5 17  1  0  0  0  0
  6 19  1  0  0  0  0
  7 10  2  0  0  0  0
  7 18  1  0  0  0  0
  8 21  1  0  0  0  0
  9 21  2  0  0  0  0
 10 22  1  0  0  0  0
 11 12  2  0  0  0  0
 11 23  1  0  0  0  0
 12 24  1  0  0  0  0
 13 20  1  0  0  0  0
 13 22  2  0  0  0  0
 14 24  2  0  0  0  0
 14 25  1  0  0  0  0
 15 26  1  0  0  0  0
 16 26  1  0  0  0  0
 16 27  2  0  0  0  0
 16 28  1  0  0  0  0
 17 19  2  0  0  0  0
 17 33  1  0  0  0  0
 18 20  2  0  0  0  0
 18 34  1  0  0  0  0
 19 42  1  0  0  0  0
 20 35  1  0  0  0  0
 21 77  1  0  0  0  0
 22 78  1  0  0  0  0
 23 25  2  0  0  0  0
 23 77  1  0  0  0  0
 24 79  1  0  0  0  0
 25 80  1  0  0  0  0
 26 61  2  0  0  0  0
 27 62  1  0  0  0  0
 27 65  1  0  0  0  0
 28 66  1  0  0  0  0
 28 72  2  0  0  0  0
 29 43  1  0  0  0  0
 29 67  1  0  0  0  0
 29 73  2  0  0  0  0
 30 57  1  0  0  0  0
 30 63  1  0  0  0  0
 30 74  2  0  0  0  0
 31 58  1  0  0  0  0
 31 68  1  0  0  0  0
 31 75  2  0  0  0  0
 32 64  1  0  0  0  0
 32 69  1  0  0  0  0
 32 76  2  0  0  0  0
 33 36  1  0  0  0  0
 34 43  1  0  0  0  0
 35 63  1  0  0  0  0
 36 38  1  0  0  0  0
 37 39  1  0  0  0  0
 37 40  1  0  0  0  0
 38 42  1  0  0  0  0
 39 44  1  0  0  0  0
 40 64  1  0  0  0  0
 41 44  1  0  0  0  0
 41 64  1  0  0  0  0
 42 67  1  0  0  0  0
 43 63  1  0  0  0  0
 44 62  1  0  0  0  0
 45 58  1  0  0  0  0
 46 59  1  0  0  0  0
 47 59  1  0  0  0  0
 48 59  1  0  0  0  0
 49 60  1  0  0  0  0
 50 60  1  0  0  0  0
 51 70  1  0  0  0  0
 52 71  1  0  0  0  0
 53 54  1  0  0  0  0
 53 60  1  0  0  0  0
 54 71  1  0  0  0  0
 55 56  1  0  0  0  0
 55 71  1  0  0  0  0
 56 78  1  0  0  0  0
 57 59  1  0  0  0  0
 57 68  1  0  0  0  0
 58 70  1  0  0  0  0
 60 69  1  0  0  0  0
 61 62  1  0  0  0  0
M  CHG  2  70   1  71   1
M  ISO  4  32 100  56 101  69 100  78 101
M  END
> <Batch ID>
0107

> <Smiles>
CNC(C)C(=O)NC(C(=O)N1Cc2cc([101O:1][101CH2:1]CN(C)CCC(C)(C)[100NH:0][100C:0](=O)N3CCCC(n4nc(-c5ccc(Oc6ccc(F)cc6F)cc5)c(C(N)=O)c4N)C3)ccc2CC1C(=O)NC1CCCc2ccccc21)C(C)(C)C

> <Shape>
0.169

> <Color>
0.191

> <Negative vol penalty>
0.000

$$$$

  -OEChem-04052319513D

 76 83  0     1  0  0  0  0  0999 V2000
  -19.9697  -20.7159   22.5475 C   0  0  0  0  0  0  0  0  0  0  0  0
  -21.3199  -20.6803   22.2144 C   0  0  0  0  0  0  0  0  0  0  0  0
  -26.9217  -13.0577   21.0046 C   0  0  0  0  0  0  0  0  0  0  0  0
  -26.8318  -13.3216   18.6048 C   0  0  0  0  0  0  0  0  0  0  0  0
  -19.2257  -21.8718   22.3146 C   0  0  0  0  0  0  0  0  0  0  0  0
  -21.9268  -21.8004   21.6472 C   0  0  0  0  0  0  0  0  0  0  0  0
  -27.6839  -23.7017   22.5106 C   0  0  0  0  0  0  0  0  0  0  0  0
  -26.3334  -11.7984   20.8882 C   0  0  0  0  0  0  0  0  0  0  0  0
  -26.2436  -12.0622   18.4883 C   0  0  0  0  0  0  0  0  0  0  0  0
  -28.8463  -23.5455   21.7568 C   0  0  0  0  0  0  0  0  0  0  0  0
  -24.5256   -8.6640   21.2506 C   0  0  0  0  0  0  0  0  0  0  0  0
  -23.4941   -8.3442   22.1333 C   0  0  0  0  0  0  0  0  0  0  0  0
  -28.4765  -25.7062   20.7499 C   0  0  0  0  0  0  0  0  0  0  0  0
  -22.2029  -10.2083   21.2996 C   0  0  0  0  0  0  0  0  0  0  0  0
  -27.1708  -13.8194   19.8629 C   0  0  0  0  0  0  0  0  0  0  0  0
  -29.1530  -15.4221   19.9641 C   0  0  0  0  0  0  0  0  0  0  0  0
  -19.8259  -23.0099   21.7532 C   0  0  0  0  0  0  0  0  0  0  0  0
  -26.9019  -24.8585   22.3815 C   0  0  0  0  0  0  0  0  0  0  0  0
  -21.1898  -22.9722   21.4054 C   0  0  0  0  0  0  0  0  0  0  0  0
  -27.3060  -25.8758   21.5051 C   0  0  0  0  0  0  0  0  0  0  0  0
  -25.9944  -11.3006   19.6300 C   0  0  0  0  0  0  0  0  0  0  0  0
  -29.2412  -24.5466   20.8742 C   0  0  0  0  0  0  0  0  0  0  0  0
  -24.3959   -9.7560   20.3924 C   0  0  0  0  0  0  0  0  0  0  0  0
  -22.3327   -9.1164   22.1578 C   0  0  0  0  0  0  0  0  0  0  0  0
  -23.2345  -10.5281   20.4169 C   0  0  0  0  0  0  0  0  0  0  0  0
  -27.7780  -15.1206   19.9826 C   0  0  0  0  0  0  0  0  0  0  0  0
  -29.2073  -16.7866   20.1113 C   0  0  0  0  0  0  0  0  0  0  0  0
  -30.2803  -14.5470   19.8261 C   0  0  0  0  0  0  0  0  0  0  0  0
  -23.9219  -25.4594   21.4531 C   0  0  0  0  0  0  0  0  0  0  0  0
  -24.6477  -28.4745   22.4041 C   0  0  0  0  0  0  0  0  0  0  0  0
  -27.0494  -30.8220   23.0108 C   0  0  0  0  0  0  0  0  0  0  0  0
  -27.3731  -21.8974   18.8226 C   0  0  0  0  0  0  0  0  0  0  0  0
  -18.9699  -24.2204   21.4765 C   0  0  0  0  0  0  0  0  0  0  0  0
  -25.6651  -25.0234   23.2214 C   0  0  0  0  0  0  0  0  0  0  0  0
  -26.5124  -27.1458   21.3445 C   0  0  0  0  0  0  0  0  0  0  0  0
  -19.7763  -25.4905   21.2179 C   0  0  0  0  0  0  0  0  0  0  0  0
  -25.5991  -20.1116   21.3406 C   0  0  0  0  0  0  0  0  0  0  0  0
  -20.9135  -25.2110   20.2405 C   0  0  0  0  0  0  0  0  0  0  0  0
  -26.1165  -18.6784   21.2060 C   0  0  0  0  0  0  0  0  0  0  0  0
  -25.4797  -20.7985   19.9820 C   0  0  0  0  0  0  0  0  0  0  0  0
  -27.2256  -19.3418   19.0315 C   0  0  0  0  0  0  0  0  0  0  0  0
  -21.8896  -24.1752   20.8113 C   0  0  1  0  0  0  0  0  0  0  0  0
  -24.6698  -26.0174   22.6307 C   0  0  1  0  0  0  0  0  0  0  0  0
  -27.4159  -18.6267   20.3800 C   0  0  2  0  0  0  0  0  0  0  0  0
  -27.3341  -33.2055   23.7422 C   0  0  0  0  0  0  0  0  0  0  0  0
  -32.0911  -22.7362   20.4277 C   0  0  0  0  0  0  0  0  0  0  0  0
  -23.7582  -29.4250   19.6445 C   0  0  0  0  0  0  0  0  0  0  0  0
  -24.9314  -31.5915   20.0893 C   0  0  0  0  0  0  0  0  0  0  0  0
  -23.0263  -30.8866   21.5372 C   0  0  0  0  0  0  0  0  0  0  0  0
  -28.6202  -30.0262   25.3896 C   0  0  0  0  0  0  0  0  0  0  0  0
  -29.3385  -22.8508   17.6448 C   0  0  0  0  0  0  0  0  0  0  0  0
  -25.2448  -29.6909   21.7386 C   0  0  1  0  0  0  0  0  0  0  0  0
  -27.2731  -31.7531   24.1887 C   0  0  2  0  0  0  0  0  0  0  0  0
  -30.7422  -22.9062   18.2521 C   0  0  2  0  0  0  0  0  0  0  0  0
  -30.7483  -23.0652   19.7832 C   0  0  2  0  0  0  0  0  0  1  0  0
  -24.2543  -30.3738   20.7538 C   0  0  0  0  0  0  0  0  0  0  0  0
  -27.0140  -16.2062   20.1301 N   0  0  0  0  0  0  0  0  0  0  0  0
  -27.9120  -17.2032   20.2057 N   0  0  0  0  0  0  0  0  0  0  0  0
  -25.3074  -27.2573   22.1831 N   0  0  0  0  0  0  0  0  0  0  0  0
  -26.7460  -20.7155   19.2502 N   0  0  0  0  0  0  0  0  0  0  0  0
  -30.2362  -17.6587   20.1680 N   0  0  0  0  0  0  0  0  0  0  0  0
  -30.0457  -13.1725   19.6845 N   0  0  0  0  0  0  0  0  0  0  0  0
  -22.7619  -24.7883   21.7900 N   0  0  0  0  0  0  0  0  0  0  0  0
  -25.7102  -30.5582   22.8154 N   0  0  0  0  0  0  0  0  0  0  0  0
  -28.5726  -21.7295   18.1416 N   0  0  0  0  0  0  0  0  0  0  0  0
  -31.4520  -24.0601   17.6218 N   0  3  0  0  0  0  0  0  0  0  0  0
  -28.5518  -31.4190   24.8775 N   0  3  0  0  0  0  0  0  0  0  0  0
  -31.4612  -14.9695   19.8448 O   0  0  0  0  0  0  0  0  0  0  0  0
  -24.3636  -25.6267   20.3223 O   0  0  0  0  0  0  0  0  0  0  0  0
  -23.6373  -28.6010   23.1004 O   0  0  0  0  0  0  0  0  0  0  0  0
  -27.9703  -30.3764   22.3297 O   0  0  0  0  0  0  0  0  0  0  0  0
  -26.9018  -23.0194   19.0370 O   0  0  0  0  0  0  0  0  0  0  0  0
  -25.4205  -10.0717   19.5160 O   0  0  0  0  0  0  0  0  0  0  0  0
  -30.3750  -24.3964   20.1367 O   0  0  0  0  0  0  0  0  0  1  0  0
  -21.3415   -8.8083   23.0045 F   0  0  0  0  0  0  0  0  0  0  0  0
  -23.1035  -11.5776   19.5940 F   0  0  0  0  0  0  0  0  0  0  0  0
  1  2  1  0  0  0  0
  1  5  2  0  0  0  0
  2  6  2  0  0  0  0
  3  8  2  0  0  0  0
  3 15  1  0  0  0  0
  4  9  1  0  0  0  0
  4 15  2  0  0  0  0
  5 17  1  0  0  0  0
  6 19  1  0  0  0  0
  7 10  2  0  0  0  0
  7 18  1  0  0  0  0
  8 21  1  0  0  0  0
  9 21  2  0  0  0  0
 10 22  1  0  0  0  0
 11 12  2  0  0  0  0
 11 23  1  0  0  0  0
 12 24  1  0  0  0  0
 13 20  1  0  0  0  0
 13 22  2  0  0  0  0
 14 24  2  0  0  0  0
 14 25  1  0  0  0  0
 15 26  1  0  0  0  0
 16 26  1  0  0  0  0
 16 27  2  0  0  0  0
 16 28  1  0  0  0  0
 17 19  2  0  0  0  0
 17 33  1  0  0  0  0
 18 20  2  0  0  0  0
 18 34  1  0  0  0  0
 19 42  1  0  0  0  0
 20 35  1  0  0  0  0
 21 73  1  0  0  0  0
 22 74  1  0  0  0  0
 23 25  2  0  0  0  0
 23 73  1  0  0  0  0
 24 75  1  0  0  0  0
 25 76  1  0  0  0  0
 26 57  2  0  0  0  0
 27 58  1  0  0  0  0
 27 61  1  0  0  0  0
 28 62  1  0  0  0  0
 28 68  2  0  0  0  0
 29 43  1  0  0  0  0
 29 63  1  0  0  0  0
 29 69  2  0  0  0  0
 30 52  1  0  0  0  0
 30 59  1  0  0  0  0
 30 70  2  0  0  0  0
 31 53  1  0  0  0  0
 31 64  1  0  0  0  0
 31 71  2  0  0  0  0
 32 60  1  0  0  0  0
 32 65  1  0  0  0  0
 32 72  2  0  0  0  0
 33 36  1  0  0  0  0
 34 43  1  0  0  0  0
 35 59  1  0  0  0  0
 36 38  1  0  0  0  0
 37 39  1  0  0  0  0
 37 40  1  0  0  0  0
 38 42  1  0  0  0  0
 39 44  1  0  0  0  0
 40 60  1  0  0  0  0
 41 44  1  0  0  0  0
 41 60  1  0  0  0  0
 42 63  1  0  0  0  0
 43 59  1  0  0  0  0
 44 58  1  0  0  0  0
 45 53  1  0  0  0  0
 46 55  1  0  0  0  0
 47 56  1  0  0  0  0
 48 56  1  0  0  0  0
 49 56  1  0  0  0  0
 50 67  1  0  0  0  0
 51 54  1  0  0  0  0
 51 65  1  0  0  0  0
 52 56  1  0  0  0  0
 52 64  1  0  0  0  0
 53 67  1  0  0  0  0
 54 55  1  0  0  0  0
 54 66  1  0  0  0  0
 55 74  1  0  0  0  0
 57 58  1  0  0  0  0
M  CHG  2  66   1  67   1
M  ISO  4  32 100  55 101  65 100  74 101
M  END
> <Batch ID>
0107

> <Smiles>
CNC(C)C(=O)NC(C(=O)N1Cc2cc([101O:1][101CH:1](C)C(N)C[100NH:0][100C:0](=O)N3CCCC(n4nc(-c5ccc(Oc6ccc(F)cc6F)cc5)c(C(N)=O)c4N)C3)ccc2CC1C(=O)NC1CCCc2ccccc21)C(C)(C)C

> <Shape>
0.229

> <Color>
0.076

> <Negative vol penalty>
0.000

$$$$

  -OEChem-04052319513D

 86 94  0     1  0  0  0  0  0999 V2000
  -25.1899  -11.8599   25.1754 C   0  0  0  0  0  0  0  0  0  0  0  0
  -26.4238  -11.3395   24.8019 C   0  0  0  0  0  0  0  0  0  0  0  0
  -23.1604   -9.8507   19.9163 C   0  0  0  0  0  0  0  0  0  0  0  0
  -23.8280   -9.9034   22.2376 C   0  0  0  0  0  0  0  0  0  0  0  0
  -25.1049  -13.1647   25.6566 C   0  0  0  0  0  0  0  0  0  0  0  0
  -27.5747  -12.1194   24.9207 C   0  0  0  0  0  0  0  0  0  0  0  0
  -33.3303  -10.9614   23.2900 C   0  0  0  0  0  0  0  0  0  0  0  0
  -22.4319   -8.6849   20.1522 C   0  0  0  0  0  0  0  0  0  0  0  0
  -23.0994   -8.7376   22.4736 C   0  0  0  0  0  0  0  0  0  0  0  0
  -34.1446  -11.1620   22.1762 C   0  0  0  0  0  0  0  0  0  0  0  0
  -23.0626   -5.3837   20.5106 C   0  0  0  0  0  0  0  0  0  0  0  0
  -23.1887   -4.3439   19.5894 C   0  0  0  0  0  0  0  0  0  0  0  0
  -35.0252  -13.1667   23.1886 C   0  0  0  0  0  0  0  0  0  0  0  0
  -33.0784  -18.6666   18.7007 C   0  0  0  0  0  0  0  0  0  0  0  0
  -20.8171   -4.4532   19.1414 C   0  0  0  0  0  0  0  0  0  0  0  0
  -31.9860  -18.4403   20.6565 C   0  0  0  0  0  0  0  0  0  0  0  0
  -23.8585  -10.4600   20.9590 C   0  0  0  0  0  0  0  0  0  0  0  0
  -24.1511  -12.9902   20.8183 C   0  0  0  0  0  0  0  0  0  0  0  0
  -26.2540  -13.9646   25.7693 C   0  0  0  0  0  0  0  0  0  0  0  0
  -33.3495  -11.8694   24.3585 C   0  0  0  0  0  0  0  0  0  0  0  0
  -27.5129  -13.4304   25.4267 C   0  0  0  0  0  0  0  0  0  0  0  0
  -34.2121  -12.9740   24.3159 C   0  0  0  0  0  0  0  0  0  0  0  0
  -32.1943  -19.3052   19.6049 C   0  0  0  0  0  0  0  0  0  0  0  0
  -22.4013   -8.1283   21.4309 C   0  0  0  0  0  0  0  0  0  0  0  0
  -34.9900  -12.2664   22.1241 C   0  0  0  0  0  0  0  0  0  0  0  0
  -21.8137   -5.9582   20.7473 C   0  0  0  0  0  0  0  0  0  0  0  0
  -22.0660   -3.8787   18.9048 C   0  0  0  0  0  0  0  0  0  0  0  0
  -20.6910   -5.4930   20.0627 C   0  0  0  0  0  0  0  0  0  0  0  0
  -24.6118  -11.6640   20.7157 C   0  0  0  0  0  0  0  0  0  0  0  0
  -33.3833  -17.4307   19.2271 C   0  0  0  0  0  0  0  0  0  0  0  0
  -25.2406  -13.7587   20.4884 C   0  0  0  0  0  0  0  0  0  0  0  0
  -22.8542  -13.4835   21.1796 C   0  0  0  0  0  0  0  0  0  0  0  0
  -31.2079  -13.7937   25.7055 C   0  0  0  0  0  0  0  0  0  0  0  0
  -33.5898  -14.3037   27.8476 C   0  0  0  0  0  0  0  0  0  0  0  0
  -36.9352  -14.2760   28.5215 C   0  0  0  0  0  0  0  0  0  0  0  0
  -30.6057  -14.8470   21.1791 C   0  0  0  0  0  0  0  0  0  0  0  0
  -26.1057  -15.3673   26.3036 C   0  0  0  0  0  0  0  0  0  0  0  0
  -32.4846  -11.6243   25.5645 C   0  0  0  0  0  0  0  0  0  0  0  0
  -34.2850  -13.9672   25.4458 C   0  0  0  0  0  0  0  0  0  0  0  0
  -27.3003  -16.2574   25.9767 C   0  0  0  0  0  0  0  0  0  0  0  0
  -29.6830  -12.5040   18.4692 C   0  0  0  0  0  0  0  0  0  0  0  0
  -28.5940  -15.5482   26.3480 C   0  0  0  0  0  0  0  0  0  0  0  0
  -28.2553  -12.1441   18.8679 C   0  0  0  0  0  0  0  0  0  0  0  0
  -30.5718  -12.7617   19.6852 C   0  0  0  0  0  0  0  0  0  0  0  0
  -28.5865  -13.4255   21.0168 C   0  0  0  0  0  0  0  0  0  0  0  0
  -28.7739  -14.2705   25.5185 C   0  0  1  0  0  0  0  0  0  0  0  0
  -32.2088  -12.8907   26.3692 C   0  0  1  0  0  0  0  0  0  0  0  0
  -27.6697  -13.2128   19.8029 C   0  0  2  0  0  0  0  0  0  0  0  0
  -32.0292  -21.6279   20.5700 C   0  0  0  0  0  0  0  0  0  0  0  0
  -30.0616  -20.6253   19.3540 C   0  0  0  0  0  0  0  0  0  0  0  0
  -38.5811  -14.7800   30.3476 C   0  0  0  0  0  0  0  0  0  0  0  0
  -36.7287  -15.3088   17.1272 C   0  0  0  0  0  0  0  0  0  0  0  0
  -33.2469  -17.2909   27.3289 C   0  0  0  0  0  0  0  0  0  0  0  0
  -35.4762  -17.6629   28.4060 C   0  0  0  0  0  0  0  0  0  0  0  0
  -33.6019  -16.6828   29.7286 C   0  0  0  0  0  0  0  0  0  0  0  0
  -37.9005  -11.4789   28.5824 C   0  0  0  0  0  0  0  0  0  0  0  0
  -34.2741  -16.3408   18.6850 C   0  0  0  0  0  0  0  0  0  0  0  0
  -35.7374  -16.4470   19.1363 C   0  0  0  0  0  0  0  0  0  0  0  0
  -36.2821  -13.9125   19.1936 C   0  0  0  0  0  0  0  0  0  0  0  0
  -36.1044  -13.8153   20.7046 C   0  0  0  0  0  0  0  0  0  1  0  0
  -32.7579  -16.1098   21.3299 C   0  0  0  0  0  0  0  0  0  0  0  0
  -31.6051  -20.6489   19.4502 C   0  0  0  0  0  0  0  0  0  0  0  0
  -34.7370  -15.2787   27.9588 C   0  0  1  0  0  0  0  0  0  0  0  0
  -37.7228  -13.7107   29.6897 C   0  0  2  0  0  0  0  0  0  0  0  0
  -36.6615  -15.3064   18.6590 C   0  0  1  0  0  0  0  0  0  0  0  0
  -34.2629  -16.7113   28.3333 C   0  0  0  0  0  0  0  0  0  0  0  0
  -25.8940  -11.5904   20.3491 N   0  0  0  0  0  0  0  0  0  0  0  0
  -32.7134  -17.3040   20.4160 N   0  0  0  0  0  0  0  0  0  0  0  0
  -26.2484  -12.8801   20.2184 N   0  0  0  0  0  0  0  0  0  0  0  0
  -33.4154  -13.6875   26.6003 N   0  0  0  0  0  0  0  0  0  0  0  0
  -29.9631  -13.7320   20.6089 N   0  0  0  0  0  0  0  0  0  0  0  0
  -25.4254  -15.0934   20.4057 N   0  0  0  0  0  0  0  0  0  0  0  0
  -21.8492  -12.5569   21.4889 N   0  0  0  0  0  0  0  0  0  0  0  0
  -29.8954  -13.5220   26.0416 N   0  0  0  0  0  0  0  0  0  0  0  0
  -35.6791  -14.6941   28.9070 N   0  0  0  0  0  0  0  0  0  0  0  0
  -31.9398  -15.0176   20.8265 N   0  0  0  0  0  0  0  0  0  0  0  0
  -38.6151  -12.6098   29.2286 N   0  3  0  0  0  0  0  0  0  0  0  0
  -22.5897  -14.7093   21.2109 O   0  0  0  0  0  0  0  0  0  0  0  0
  -31.5976  -14.6728   24.9460 O   0  0  0  0  0  0  0  0  0  0  0  0
  -32.8792  -14.0911   28.8333 O   0  0  0  0  0  0  0  0  0  0  0  0
  -37.3903  -14.3436   27.3818 O   0  0  0  0  0  0  0  0  0  0  0  0
  -30.0335  -15.6246   21.9503 O   0  0  0  0  0  0  0  0  0  0  0  0
  -21.6903   -6.9909   21.6616 O   0  0  0  0  0  0  0  0  0  0  0  0
  -35.7854  -12.4649   21.0379 O   0  0  0  0  0  0  0  0  0  1  0  0
  -22.1875   -2.8813   18.0190 F   0  0  0  0  0  0  0  0  0  0  0  0
  -19.4888   -6.0417   20.2849 F   0  0  0  0  0  0  0  0  0  0  0  0
  1  2  1  0  0  0  0
  1  5  2  0  0  0  0
  2  6  2  0  0  0  0
  3  8  2  0  0  0  0
  3 17  1  0  0  0  0
  4  9  1  0  0  0  0
  4 17  2  0  0  0  0
  5 19  1  0  0  0  0
  6 21  1  0  0  0  0
  7 10  2  0  0  0  0
  7 20  1  0  0  0  0
  8 24  1  0  0  0  0
  9 24  2  0  0  0  0
 10 25  1  0  0  0  0
 11 12  2  0  0  0  0
 11 26  1  0  0  0  0
 12 27  1  0  0  0  0
 13 22  1  0  0  0  0
 13 25  2  0  0  0  0
 14 23  1  0  0  0  0
 14 30  2  0  0  0  0
 15 27  2  0  0  0  0
 15 28  1  0  0  0  0
 16 23  2  0  0  0  0
 16 68  1  0  0  0  0
 17 29  1  0  0  0  0
 18 29  1  0  0  0  0
 18 31  2  0  0  0  0
 18 32  1  0  0  0  0
 19 21  2  0  0  0  0
 19 37  1  0  0  0  0
 20 22  2  0  0  0  0
 20 38  1  0  0  0  0
 21 46  1  0  0  0  0
 22 39  1  0  0  0  0
 23 62  1  0  0  0  0
 24 83  1  0  0  0  0
 25 84  1  0  0  0  0
 26 28  2  0  0  0  0
 26 83  1  0  0  0  0
 27 85  1  0  0  0  0
 28 86  1  0  0  0  0
 29 67  2  0  0  0  0
 30 57  1  0  0  0  0
 30 68  1  0  0  0  0
 31 69  1  0  0  0  0
 31 72  1  0  0  0  0
 32 73  1  0  0  0  0
 32 78  2  0  0  0  0
 33 47  1  0  0  0  0
 33 74  1  0  0  0  0
 33 79  2  0  0  0  0
 34 63  1  0  0  0  0
 34 70  1  0  0  0  0
 34 80  2  0  0  0  0
 35 64  1  0  0  0  0
 35 75  1  0  0  0  0
 35 81  2  0  0  0  0
 36 71  1  0  0  0  0
 36 76  1  0  0  0  0
 36 82  2  0  0  0  0
 37 40  1  0  0  0  0
 38 47  1  0  0  0  0
 39 70  1  0  0  0  0
 40 42  1  0  0  0  0
 41 43  1  0  0  0  0
 41 44  1  0  0  0  0
 42 46  1  0  0  0  0
 43 48  1  0  0  0  0
 44 71  1  0  0  0  0
 45 48  1  0  0  0  0
 45 71  1  0  0  0  0
 46 74  1  0  0  0  0
 47 70  1  0  0  0  0
 48 69  1  0  0  0  0
 49 62  1  0  0  0  0
 50 62  1  0  0  0  0
 51 64  1  0  0  0  0
 52 65  1  0  0  0  0
 53 66  1  0  0  0  0
 54 66  1  0  0  0  0
 55 66  1  0  0  0  0
 56 77  1  0  0  0  0
 57 58  1  0  0  0  0
 58 65  1  0  0  0  0
 59 60  1  0  0  0  0
 59 65  1  0  0  0  0
 60 84  1  0  0  0  0
 61 68  1  0  0  0  0
 61 76  1  0  0  0  0
 63 66  1  0  0  0  0
 63 75  1  0  0  0  0
 64 77  1  0  0  0  0
 67 69  1  0  0  0  0
M  CHG  1  77   1
M  ISO  4  36 100  60 101  76 100  84 101
M  END
> <Batch ID>
0107

> <Smiles>
CNC(C)C(=O)NC(C(=O)N1Cc2cc([101O:1][101CH2:1]CC(C)CCc3cc(C(C)C)cn3C[100NH:0][100C:0](=O)N3CCCC(n4nc(-c5ccc(Oc6ccc(F)cc6F)cc5)c(C(N)=O)c4N)C3)ccc2CC1C(=O)NC1CCCc2ccccc21)C(C)(C)C

> <Shape>
0.143

> <Color>
0.167

> <Negative vol penalty>
0.000

$$$$

  -OEChem-04052319513D

 82 90  0     1  0  0  0  0  0999 V2000
  -22.6287  -26.9660   22.0319 C   0  0  0  0  0  0  0  0  0  0  0  0
  -23.5138  -25.9344   22.3281 C   0  0  0  0  0  0  0  0  0  0  0  0
  -23.0560   -9.8589   20.6583 C   0  0  0  0  0  0  0  0  0  0  0  0
  -23.7775  -10.3804   22.9043 C   0  0  0  0  0  0  0  0  0  0  0  0
  -23.0569  -28.0538   21.2720 C   0  0  0  0  0  0  0  0  0  0  0  0
  -24.8275  -25.9895   21.8637 C   0  0  0  0  0  0  0  0  0  0  0  0
  -28.2002  -24.7127   25.4189 C   0  0  0  0  0  0  0  0  0  0  0  0
  -22.2965   -8.7968   21.1488 C   0  0  0  0  0  0  0  0  0  0  0  0
  -23.0180   -9.3182   23.3948 C   0  0  0  0  0  0  0  0  0  0  0  0
  -28.3595  -23.3538   25.6867 C   0  0  0  0  0  0  0  0  0  0  0  0
  -19.3166   -8.3670   22.6878 C   0  0  0  0  0  0  0  0  0  0  0  0
  -18.0176   -8.2200   22.2014 C   0  0  0  0  0  0  0  0  0  0  0  0
  -30.3449  -23.3227   24.3168 C   0  0  0  0  0  0  0  0  0  0  0  0
  -18.5798   -6.0247   21.3637 C   0  0  0  0  0  0  0  0  0  0  0  0
  -28.5774  -20.0739   21.5731 C   0  0  0  0  0  0  0  0  0  0  0  0
  -23.7965  -10.6507   21.5360 C   0  0  0  0  0  0  0  0  0  0  0  0
  -24.1656  -13.0810   20.8541 C   0  0  0  0  0  0  0  0  0  0  0  0
  -24.3791  -28.1268   20.8061 C   0  0  0  0  0  0  0  0  0  0  0  0
  -29.1075  -25.3855   24.5878 C   0  0  0  0  0  0  0  0  0  0  0  0
  -25.2734  -27.0785   21.0957 C   0  0  0  0  0  0  0  0  0  0  0  0
  -30.1963  -24.6907   24.0421 C   0  0  0  0  0  0  0  0  0  0  0  0
  -29.3805  -19.1304   20.9529 C   0  0  0  0  0  0  0  0  0  0  0  0
  -29.9527  -18.1411   21.7448 C   0  0  0  0  0  0  0  0  0  0  0  0
  -29.7077  -18.1257   23.1134 C   0  0  0  0  0  0  0  0  0  0  0  0
  -22.2775   -8.5264   22.5171 C   0  0  0  0  0  0  0  0  0  0  0  0
  -29.4303  -22.6579   25.1334 C   0  0  0  0  0  0  0  0  0  0  0  0
  -20.2473   -7.3430   22.5120 C   0  0  0  0  0  0  0  0  0  0  0  0
  -17.6492   -7.0488   21.5394 C   0  0  0  0  0  0  0  0  0  0  0  0
  -19.8789   -6.1718   21.8500 C   0  0  0  0  0  0  0  0  0  0  0  0
  -24.5817  -11.7477   21.0298 C   0  0  0  0  0  0  0  0  0  0  0  0
  -28.8901  -19.1143   23.6369 C   0  0  0  0  0  0  0  0  0  0  0  0
  -25.2711  -13.7223   20.3510 C   0  0  0  0  0  0  0  0  0  0  0  0
  -22.8935  -13.6859   21.1219 C   0  0  0  0  0  0  0  0  0  0  0  0
  -28.8950  -26.9163   21.8101 C   0  0  0  0  0  0  0  0  0  0  0  0
  -31.9937  -27.6536   22.4237 C   0  0  0  0  0  0  0  0  0  0  0  0
  -34.8948  -26.8637   24.0382 C   0  0  0  0  0  0  0  0  0  0  0  0
  -30.7609  -14.7247   20.4056 C   0  0  0  0  0  0  0  0  0  0  0  0
  -24.7828  -29.2998   19.9483 C   0  0  0  0  0  0  0  0  0  0  0  0
  -28.9368  -26.8575   24.3302 C   0  0  0  0  0  0  0  0  0  0  0  0
  -31.2097  -25.3713   23.1598 C   0  0  0  0  0  0  0  0  0  0  0  0
  -26.2944  -29.4620   19.8107 C   0  0  0  0  0  0  0  0  0  0  0  0
  -29.6395  -11.8686   18.5995 C   0  0  0  0  0  0  0  0  0  0  0  0
  -26.9491  -28.1203   19.4980 C   0  0  0  0  0  0  0  0  0  0  0  0
  -28.1921  -11.6891   19.0609 C   0  0  0  0  0  0  0  0  0  0  0  0
  -30.5386  -12.3501   19.7361 C   0  0  0  0  0  0  0  0  0  0  0  0
  -28.6214  -13.3874   20.8858 C   0  0  0  0  0  0  0  0  0  0  0  0
  -26.7131  -27.1139   20.6307 C   0  0  1  0  0  0  0  0  0  0  0  0
  -29.6308  -27.3254   23.0547 C   0  0  1  0  0  0  0  0  0  0  0  0
  -27.6653  -12.9566   19.7604 C   0  0  2  0  0  0  0  0  0  0  0  0
  -29.6081  -19.1962   19.4821 C   0  0  0  0  0  0  0  0  0  0  0  0
  -30.3055  -17.0765   23.9895 C   0  0  0  0  0  0  0  0  0  0  0  0
  -37.2676  -27.6324   24.3146 C   0  0  0  0  0  0  0  0  0  0  0  0
  -32.6758  -26.5301   19.6701 C   0  0  0  0  0  0  0  0  0  0  0  0
  -35.0760  -26.4429   20.3771 C   0  0  0  0  0  0  0  0  0  0  0  0
  -33.8885  -28.6340   20.2680 C   0  0  0  0  0  0  0  0  0  0  0  0
  -34.5433  -27.2804   26.9471 C   0  0  0  0  0  0  0  0  0  0  0  0
  -30.8276  -17.0990   21.1249 C   0  0  0  0  0  0  0  0  0  0  0  0
  -28.5884  -19.1503   25.1154 C   0  0  0  0  0  0  0  0  0  0  0  0
  -28.4041  -20.5720   25.6351 C   0  0  0  0  0  0  0  0  0  1  0  0
  -33.3257  -27.0101   22.1223 C   0  0  1  0  0  0  0  0  0  0  0  0
  -35.8509  -27.7072   24.8622 C   0  0  2  0  0  0  0  0  0  0  0  0
  -33.7215  -27.1407   20.6244 C   0  0  0  0  0  0  0  0  0  0  0  0
  -28.3165  -20.0914   22.8994 N   0  0  0  0  0  0  0  0  0  0  0  0
  -25.8523  -11.5521   20.6676 N   0  0  0  0  0  0  0  0  0  0  0  0
  -26.2442  -12.7710   20.2592 N   0  0  0  0  0  0  0  0  0  0  0  0
  -30.9960  -26.8101   22.9325 N   0  0  0  0  0  0  0  0  0  0  0  0
  -29.9836  -13.5558   20.3560 N   0  0  0  0  0  0  0  0  0  0  0  0
  -25.4960  -15.0014   19.9826 N   0  0  0  0  0  0  0  0  0  0  0  0
  -21.8671  -12.8827   21.6373 N   0  0  0  0  0  0  0  0  0  0  0  0
  -27.5979  -27.3879   21.7427 N   0  0  0  0  0  0  0  0  0  0  0  0
  -34.2846  -27.6038   23.0477 N   0  0  0  0  0  0  0  0  0  0  0  0
  -30.1571  -15.8236   21.0044 N   0  0  0  0  0  0  0  0  0  0  0  0
  -35.8683  -27.2380   26.2766 N   0  3  0  0  0  0  0  0  0  0  0  0
  -22.6687  -14.8989   20.8949 O   0  0  0  0  0  0  0  0  0  0  0  0
  -29.4626  -26.2252   20.9723 O   0  0  0  0  0  0  0  0  0  0  0  0
  -31.8463  -28.8616   22.2221 O   0  0  0  0  0  0  0  0  0  0  0  0
  -34.7108  -25.6671   24.2496 O   0  0  0  0  0  0  0  0  0  0  0  0
  -31.9060  -14.7861   19.9452 O   0  0  0  0  0  0  0  0  0  0  0  0
  -21.5363   -7.4902   22.9961 O   0  0  0  0  0  0  0  0  0  0  0  0
  -29.5877  -21.3313   25.3926 O   0  0  0  0  0  0  0  0  0  1  0  0
  -16.4013   -6.9071   21.0737 F   0  0  0  0  0  0  0  0  0  0  0  0
  -20.7682   -5.1840   21.6792 F   0  0  0  0  0  0  0  0  0  0  0  0
  1  2  1  0  0  0  0
  1  5  2  0  0  0  0
  2  6  2  0  0  0  0
  3  8  2  0  0  0  0
  3 16  1  0  0  0  0
  4  9  1  0  0  0  0
  4 16  2  0  0  0  0
  5 18  1  0  0  0  0
  6 20  1  0  0  0  0
  7 10  2  0  0  0  0
  7 19  1  0  0  0  0
  8 25  1  0  0  0  0
  9 25  2  0  0  0  0
 10 26  1  0  0  0  0
 11 12  2  0  0  0  0
 11 27  1  0  0  0  0
 12 28  1  0  0  0  0
 13 21  1  0  0  0  0
 13 26  2  0  0  0  0
 14 28  2  0  0  0  0
 14 29  1  0  0  0  0
 15 22  1  0  0  0  0
 15 63  2  0  0  0  0
 16 30  1  0  0  0  0
 17 30  1  0  0  0  0
 17 32  2  0  0  0  0
 17 33  1  0  0  0  0
 18 20  2  0  0  0  0
 18 38  1  0  0  0  0
 19 21  2  0  0  0  0
 19 39  1  0  0  0  0
 20 47  1  0  0  0  0
 21 40  1  0  0  0  0
 22 23  2  0  0  0  0
 22 50  1  0  0  0  0
 23 24  1  0  0  0  0
 23 57  1  0  0  0  0
 24 31  2  0  0  0  0
 24 51  1  0  0  0  0
 25 79  1  0  0  0  0
 26 80  1  0  0  0  0
 27 29  2  0  0  0  0
 27 79  1  0  0  0  0
 28 81  1  0  0  0  0
 29 82  1  0  0  0  0
 30 64  2  0  0  0  0
 31 58  1  0  0  0  0
 31 63  1  0  0  0  0
 32 65  1  0  0  0  0
 32 68  1  0  0  0  0
 33 69  1  0  0  0  0
 33 74  2  0  0  0  0
 34 48  1  0  0  0  0
 34 70  1  0  0  0  0
 34 75  2  0  0  0  0
 35 60  1  0  0  0  0
 35 66  1  0  0  0  0
 35 76  2  0  0  0  0
 36 61  1  0  0  0  0
 36 71  1  0  0  0  0
 36 77  2  0  0  0  0
 37 67  1  0  0  0  0
 37 72  1  0  0  0  0
 37 78  2  0  0  0  0
 38 41  1  0  0  0  0
 39 48  1  0  0  0  0
 40 66  1  0  0  0  0
 41 43  1  0  0  0  0
 42 44  1  0  0  0  0
 42 45  1  0  0  0  0
 43 47  1  0  0  0  0
 44 49  1  0  0  0  0
 45 67  1  0  0  0  0
 46 49  1  0  0  0  0
 46 67  1  0  0  0  0
 47 70  1  0  0  0  0
 48 66  1  0  0  0  0
 49 65  1  0  0  0  0
 52 61  1  0  0  0  0
 53 62  1  0  0  0  0
 54 62  1  0  0  0  0
 55 62  1  0  0  0  0
 56 73  1  0  0  0  0
 57 72  1  0  0  0  0
 58 59  1  0  0  0  0
 59 80  1  0  0  0  0
 60 62  1  0  0  0  0
 60 71  1  0  0  0  0
 61 73  1  0  0  0  0
 64 65  1  0  0  0  0
M  CHG  1  73   1
M  ISO  4  37 100  59 101  72 100  80 101
M  END
> <Batch ID>
0107

> <Smiles>
CNC(C)C(=O)NC(C(=O)N1Cc2cc([101O:1][101CH2:1]Cc3ncc(C)c(C[100NH:0][100C:0](=O)N4CCCC(n5nc(-c6ccc(Oc7ccc(F)cc7F)cc6)c(C(N)=O)c5N)C4)c3C)ccc2CC1C(=O)NC1CCCc2ccccc21)C(C)(C)C

> <Shape>
0.217

> <Color>
0.185

> <Negative vol penalty>
0.000

$$$$

  -OEChem-04052319513D

 89 97  0     1  0  0  0  0  0999 V2000
  -25.6614  -19.0878   35.9832 C   0  0  0  0  0  0  0  0  0  0  0  0
  -25.7331  -18.8126   34.6214 C   0  0  0  0  0  0  0  0  0  0  0  0
  -23.1909   -9.8191   19.9318 C   0  0  0  0  0  0  0  0  0  0  0  0
  -23.5688   -9.9995   22.3112 C   0  0  0  0  0  0  0  0  0  0  0  0
  -25.9833  -18.0982   36.9111 C   0  0  0  0  0  0  0  0  0  0  0  0
  -26.1278  -17.5478   34.1867 C   0  0  0  0  0  0  0  0  0  0  0  0
  -23.1962  -15.7726   30.4586 C   0  0  0  0  0  0  0  0  0  0  0  0
  -22.4247   -8.6723   20.1403 C   0  0  0  0  0  0  0  0  0  0  0  0
  -22.8026   -8.8527   22.5198 C   0  0  0  0  0  0  0  0  0  0  0  0
  -23.4210  -16.2750   29.1776 C   0  0  0  0  0  0  0  0  0  0  0  0
  -23.2042   -5.5061   22.2557 C   0  0  0  0  0  0  0  0  0  0  0  0
  -23.7026   -4.5448   23.1349 C   0  0  0  0  0  0  0  0  0  0  0  0
  -24.6828  -14.2937   28.6284 C   0  0  0  0  0  0  0  0  0  0  0  0
  -28.4520  -15.4814   25.9037 C   0  0  0  0  0  0  0  0  0  0  0  0
  -21.7458   -4.8045   24.5280 C   0  0  0  0  0  0  0  0  0  0  0  0
  -29.4709  -15.7559   23.9146 C   0  0  0  0  0  0  0  0  0  0  0  0
  -23.7630  -10.4827   21.0172 C   0  0  0  0  0  0  0  0  0  0  0  0
  -24.1013  -12.9994   20.7735 C   0  0  0  0  0  0  0  0  0  0  0  0
  -26.3728  -16.8178   36.4877 C   0  0  0  0  0  0  0  0  0  0  0  0
  -23.7231  -14.5297   30.8382 C   0  0  0  0  0  0  0  0  0  0  0  0
  -26.4565  -16.5406   35.1098 C   0  0  0  0  0  0  0  0  0  0  0  0
  -24.4611  -13.7766   29.9139 C   0  0  0  0  0  0  0  0  0  0  0  0
  -28.3283  -16.0654   24.6189 C   0  0  0  0  0  0  0  0  0  0  0  0
  -22.2306   -8.1892   21.4344 C   0  0  0  0  0  0  0  0  0  0  0  0
  -24.1668  -15.5369   28.2633 C   0  0  0  0  0  0  0  0  0  0  0  0
  -21.9766   -6.1167   22.5126 C   0  0  0  0  0  0  0  0  0  0  0  0
  -22.9734   -4.1940   24.2711 C   0  0  0  0  0  0  0  0  0  0  0  0
  -21.2474   -5.7658   23.6488 C   0  0  0  0  0  0  0  0  0  0  0  0
  -24.5550  -11.6670   20.8023 C   0  0  0  0  0  0  0  0  0  0  0  0
  -29.6666  -14.8329   25.9455 C   0  0  0  0  0  0  0  0  0  0  0  0
  -25.2324  -13.7422   20.5384 C   0  0  0  0  0  0  0  0  0  0  0  0
  -22.7760  -13.5191   20.9442 C   0  0  0  0  0  0  0  0  0  0  0  0
  -25.7877  -13.5488   33.0470 C   0  0  0  0  0  0  0  0  0  0  0  0
  -24.9052  -10.6059   32.0063 C   0  0  0  0  0  0  0  0  0  0  0  0
  -23.6261   -8.6851   29.4921 C   0  0  0  0  0  0  0  0  0  0  0  0
  -31.0472  -12.7531   21.5684 C   0  0  0  0  0  0  0  0  0  0  0  0
  -26.7567  -15.7949   37.5274 C   0  0  0  0  0  0  0  0  0  0  0  0
  -23.4490  -13.9896   32.2150 C   0  0  0  0  0  0  0  0  0  0  0  0
  -25.0314  -12.4276   30.2654 C   0  0  0  0  0  0  0  0  0  0  0  0
  -26.8046  -14.3673   36.9888 C   0  0  0  0  0  0  0  0  0  0  0  0
  -29.5202  -13.4703   18.4331 C   0  0  0  0  0  0  0  0  0  0  0  0
  -27.5589  -14.3217   35.6638 C   0  0  0  0  0  0  0  0  0  0  0  0
  -28.0336  -13.2097   18.6822 C   0  0  0  0  0  0  0  0  0  0  0  0
  -30.4015  -12.4810   19.1924 C   0  0  0  0  0  0  0  0  0  0  0  0
  -28.6478  -12.1380   20.8896 C   0  0  0  0  0  0  0  0  0  0  0  0
  -26.8564  -15.1732   34.5994 C   0  0  1  0  0  0  0  0  0  0  0  0
  -24.4673  -12.9447   32.6606 C   0  0  1  0  0  0  0  0  0  0  0  0
  -27.7203  -13.1456   20.1892 C   0  0  2  0  0  0  0  0  0  0  0  0
  -28.4472  -12.2976   27.2441 C   0  0  0  0  0  0  0  0  0  0  0  0
  -31.2284  -14.9453   27.9049 C   0  0  0  0  0  0  0  0  0  0  0  0
  -23.0597   -6.3077   28.9227 C   0  0  0  0  0  0  0  0  0  0  0  0
  -27.8669  -10.0029   31.5887 C   0  0  0  0  0  0  0  0  0  0  0  0
  -27.1980   -8.0531   30.1677 C   0  0  0  0  0  0  0  0  0  0  0  0
  -26.5480   -8.1208   32.5751 C   0  0  0  0  0  0  0  0  0  0  0  0
  -23.0826  -15.3535   24.4951 C   0  0  0  0  0  0  0  0  0  0  0  0
  -22.2607  -17.7096   24.3701 C   0  0  0  0  0  0  0  0  0  0  0  0
  -20.7625   -9.3342   29.1215 C   0  0  0  0  0  0  0  0  0  0  0  0
  -27.1674  -16.8721   24.1165 C   0  0  0  0  0  0  0  0  0  0  0  0
  -29.2850  -13.3358   27.9807 C   0  0  0  0  0  0  0  0  0  0  0  0
  -31.5726  -14.4864   24.3517 C   0  0  0  0  0  0  0  0  0  0  0  0
  -31.5370  -13.0042   23.9884 C   0  0  0  0  0  0  0  0  0  0  0  0
  -24.7130  -17.2962   24.3033 C   0  0  0  0  0  0  0  0  0  0  0  0
  -23.3856  -16.8780   26.4613 C   0  0  0  0  0  0  0  0  0  1  0  0
  -30.2934  -14.0639   27.0405 C   0  0  1  0  0  0  0  0  0  0  0  0
  -25.3926   -9.6600   30.9356 C   0  0  1  0  0  0  0  0  0  0  0  0
  -22.5431   -7.6214   29.4884 C   0  0  2  0  0  0  0  0  0  0  0  0
  -26.7424   -8.9854   31.3105 C   0  0  0  0  0  0  0  0  0  0  0  0
  -23.3833  -16.8032   24.9183 C   0  0  0  0  0  0  0  0  0  0  0  0
  -25.8716  -11.5661   20.6013 N   0  0  0  0  0  0  0  0  0  0  0  0
  -30.2774  -15.0067   24.7311 N   0  0  0  0  0  0  0  0  0  0  0  0
  -26.2549  -12.8446   20.4440 N   0  0  0  0  0  0  0  0  0  0  0  0
  -24.7414  -11.9454   31.6259 N   0  0  0  0  0  0  0  0  0  0  0  0
  -30.0548  -12.4698   20.6156 N   0  0  0  0  0  0  0  0  0  0  0  0
  -25.4422  -15.0691   20.4052 N   0  0  0  0  0  0  0  0  0  0  0  0
  -21.7294  -12.6167   21.1781 N   0  0  0  0  0  0  0  0  0  0  0  0
  -25.7054  -14.4731   34.0709 N   0  0  0  0  0  0  0  0  0  0  0  0
  -24.3025   -8.7212   30.6931 N   0  0  0  0  0  0  0  0  0  0  0  0
  -30.6328  -12.7276   22.8944 N   0  0  0  0  0  0  0  0  0  0  0  0
  -21.3841   -8.0650   28.6633 N   0  3  0  0  0  0  0  0  0  0  0  0
  -25.8718  -16.4763   24.7333 N   0  3  0  0  0  0  0  0  0  0  0  0
  -22.5246  -14.7461   20.8745 O   0  0  0  0  0  0  0  0  0  0  0  0
  -26.8060  -13.2009   32.4608 O   0  0  0  0  0  0  0  0  0  0  0  0
  -24.6712  -10.1710   33.1367 O   0  0  0  0  0  0  0  0  0  0  0  0
  -23.8522   -9.4089   28.5249 O   0  0  0  0  0  0  0  0  0  0  0  0
  -32.2148  -13.0149   21.2599 O   0  0  0  0  0  0  0  0  0  0  0  0
  -21.4828   -7.0703   21.6383 O   0  0  0  0  0  0  0  0  0  0  0  0
  -24.3883  -16.0253   27.0126 O   0  0  0  0  0  0  0  0  0  1  0  0
  -23.4514   -3.2697   25.1146 F   0  0  0  0  0  0  0  0  0  0  0  0
  -20.0670   -6.3481   23.9003 F   0  0  0  0  0  0  0  0  0  0  0  0
  1  2  1  0  0  0  0
  1  5  2  0  0  0  0
  2  6  2  0  0  0  0
  3  8  2  0  0  0  0
  3 17  1  0  0  0  0
  4  9  1  0  0  0  0
  4 17  2  0  0  0  0
  5 19  1  0  0  0  0
  6 21  1  0  0  0  0
  7 10  2  0  0  0  0
  7 20  1  0  0  0  0
  8 24  1  0  0  0  0
  9 24  2  0  0  0  0
 10 25  1  0  0  0  0
 11 12  2  0  0  0  0
 11 26  1  0  0  0  0
 12 27  1  0  0  0  0
 13 22  1  0  0  0  0
 13 25  2  0  0  0  0
 14 23  1  0  0  0  0
 14 30  2  0  0  0  0
 15 27  2  0  0  0  0
 15 28  1  0  0  0  0
 16 23  2  0  0  0  0
 16 70  1  0  0  0  0
 17 29  1  0  0  0  0
 18 29  1  0  0  0  0
 18 31  2  0  0  0  0
 18 32  1  0  0  0  0
 19 21  2  0  0  0  0
 19 37  1  0  0  0  0
 20 22  2  0  0  0  0
 20 38  1  0  0  0  0
 21 46  1  0  0  0  0
 22 39  1  0  0  0  0
 23 58  1  0  0  0  0
 24 86  1  0  0  0  0
 25 87  1  0  0  0  0
 26 28  2  0  0  0  0
 26 86  1  0  0  0  0
 27 88  1  0  0  0  0
 28 89  1  0  0  0  0
 29 69  2  0  0  0  0
 30 64  1  0  0  0  0
 30 70  1  0  0  0  0
 31 71  1  0  0  0  0
 31 74  1  0  0  0  0
 32 75  1  0  0  0  0
 32 81  2  0  0  0  0
 33 47  1  0  0  0  0
 33 76  1  0  0  0  0
 33 82  2  0  0  0  0
 34 65  1  0  0  0  0
 34 72  1  0  0  0  0
 34 83  2  0  0  0  0
 35 66  1  0  0  0  0
 35 77  1  0  0  0  0
 35 84  2  0  0  0  0
 36 73  1  0  0  0  0
 36 78  1  0  0  0  0
 36 85  2  0  0  0  0
 37 40  1  0  0  0  0
 38 47  1  0  0  0  0
 39 72  1  0  0  0  0
 40 42  1  0  0  0  0
 41 43  1  0  0  0  0
 41 44  1  0  0  0  0
 42 46  1  0  0  0  0
 43 48  1  0  0  0  0
 44 73  1  0  0  0  0
 45 48  1  0  0  0  0
 45 73  1  0  0  0  0
 46 76  1  0  0  0  0
 47 72  1  0  0  0  0
 48 71  1  0  0  0  0
 49 59  1  0  0  0  0
 50 64  1  0  0  0  0
 51 66  1  0  0  0  0
 52 67  1  0  0  0  0
 53 67  1  0  0  0  0
 54 67  1  0  0  0  0
 55 68  1  0  0  0  0
 56 68  1  0  0  0  0
 57 79  1  0  0  0  0
 58 80  1  0  0  0  0
 59 64  1  0  0  0  0
 60 61  1  0  0  0  0
 60 70  1  0  0  0  0
 61 78  1  0  0  0  0
 62 68  1  0  0  0  0
 62 80  1  0  0  0  0
 63 68  1  0  0  0  0
 63 87  1  0  0  0  0
 65 67  1  0  0  0  0
 65 77  1  0  0  0  0
 66 79  1  0  0  0  0
 69 71  1  0  0  0  0
M  CHG  2  79   1  80   1
M  ISO  4  36 100  63 101  78 100  87 101
M  END
> <Batch ID>
0107

> <Smiles>
CCC(C)c1cc(CNCC(C)(C)[101CH2:1][101O:1]c2ccc3c(c2)CN(C(=O)C(NC(=O)C(C)NC)C(C)(C)C)C(C(=O)NC2CCCc4ccccc42)C3)cn1CC[100NH:0][100C:0](=O)N1CCCC(n2nc(-c3ccc(Oc4ccc(F)cc4F)cc3)c(C(N)=O)c2N)C1

> <Shape>
0.139

> <Color>
0.171

> <Negative vol penalty>
0.000

$$$$

  -OEChem-04052319513D

 85 93  0     1  0  0  0  0  0999 V2000
  -21.6486  -34.9804   15.8996 C   0  0  0  0  0  0  0  0  0  0  0  0
  -22.4441  -33.8397   15.8606 C   0  0  0  0  0  0  0  0  0  0  0  0
  -27.1027  -13.3661   21.3547 C   0  0  0  0  0  0  0  0  0  0  0  0
  -26.8901  -14.5149   19.2400 C   0  0  0  0  0  0  0  0  0  0  0  0
  -21.7490  -35.8624   16.9747 C   0  0  0  0  0  0  0  0  0  0  0  0
  -23.3413  -33.5811   16.8962 C   0  0  0  0  0  0  0  0  0  0  0  0
  -24.9117  -28.0963   19.1226 C   0  0  0  0  0  0  0  0  0  0  0  0
  -26.2470  -12.3644   20.8965 C   0  0  0  0  0  0  0  0  0  0  0  0
  -26.0343  -13.5132   18.7818 C   0  0  0  0  0  0  0  0  0  0  0  0
  -26.0094  -27.2688   18.8900 C   0  0  0  0  0  0  0  0  0  0  0  0
  -22.9210  -11.9271   20.4832 C   0  0  0  0  0  0  0  0  0  0  0  0
  -21.9145  -11.4914   21.3450 C   0  0  0  0  0  0  0  0  0  0  0  0
  -31.5988  -24.3461   21.0262 C   0  0  0  0  0  0  0  0  0  0  0  0
  -31.4852  -25.4113   20.0992 C   0  0  0  0  0  0  0  0  0  0  0  0
  -27.0966  -28.1714   20.8450 C   0  0  0  0  0  0  0  0  0  0  0  0
  -22.8237   -9.2541   21.2758 C   0  0  0  0  0  0  0  0  0  0  0  0
  -27.4243  -14.4414   20.5264 C   0  0  0  0  0  0  0  0  0  0  0  0
  -29.7099  -15.5177   20.8803 C   0  0  0  0  0  0  0  0  0  0  0  0
  -22.6410  -35.6095   18.0288 C   0  0  0  0  0  0  0  0  0  0  0  0
  -24.9028  -28.9769   20.2139 C   0  0  0  0  0  0  0  0  0  0  0  0
  -23.4547  -34.4612   17.9858 C   0  0  0  0  0  0  0  0  0  0  0  0
  -25.9965  -29.0072   21.0908 C   0  0  0  0  0  0  0  0  0  0  0  0
  -25.7128  -12.4379   19.6101 C   0  0  0  0  0  0  0  0  0  0  0  0
  -27.1033  -27.3083   19.7496 C   0  0  0  0  0  0  0  0  0  0  0  0
  -23.8788  -11.0263   20.0176 C   0  0  0  0  0  0  0  0  0  0  0  0
  -21.8659  -10.1549   21.7414 C   0  0  0  0  0  0  0  0  0  0  0  0
  -23.8302   -9.6898   20.4139 C   0  0  0  0  0  0  0  0  0  0  0  0
  -28.3077  -15.4767   20.9993 C   0  0  0  0  0  0  0  0  0  0  0  0
  -30.6826  -23.3843   20.6620 C   0  0  0  0  0  0  0  0  0  0  0  0
  -30.5028  -25.0681   19.1967 C   0  0  0  0  0  0  0  0  0  0  0  0
  -30.0714  -16.6973   21.4838 C   0  0  0  0  0  0  0  0  0  0  0  0
  -30.6054  -14.5738   20.2780 C   0  0  0  0  0  0  0  0  0  0  0  0
  -24.7500  -32.1343   20.5471 C   0  0  0  0  0  0  0  0  0  0  0  0
  -29.2340  -22.1742   22.2530 C   0  0  0  0  0  0  0  0  0  0  0  0
  -24.5522  -31.4010   23.7008 C   0  0  0  0  0  0  0  0  0  0  0  0
  -25.1929  -29.1696   26.2021 C   0  0  0  0  0  0  0  0  0  0  0  0
  -22.7482  -36.6164   19.1465 C   0  0  0  0  0  0  0  0  0  0  0  0
  -23.6998  -29.8438   20.4663 C   0  0  0  0  0  0  0  0  0  0  0  0
  -26.0278  -29.9203   22.2882 C   0  0  0  0  0  0  0  0  0  0  0  0
  -23.4549  -36.0762   20.3871 C   0  0  0  0  0  0  0  0  0  0  0  0
  -27.4014  -19.9022   24.3313 C   0  0  0  0  0  0  0  0  0  0  0  0
  -24.7324  -35.3402   19.9959 C   0  0  0  0  0  0  0  0  0  0  0  0
  -27.5639  -18.5576   23.6236 C   0  0  0  0  0  0  0  0  0  0  0  0
  -27.3133  -21.0519   23.3326 C   0  0  0  0  0  0  0  0  0  0  0  0
  -28.6261  -19.7739   21.6698 C   0  0  0  0  0  0  0  0  0  0  0  0
  -24.4221  -34.1333   19.1023 C   0  0  1  0  0  0  0  0  0  0  0  0
  -24.0156  -31.0717   21.3147 C   0  0  1  0  0  0  0  0  0  0  0  0
  -28.7500  -18.5886   22.6435 C   0  0  2  0  0  0  0  0  0  0  0  0
  -29.5274  -22.0011   17.9791 C   0  0  0  0  0  0  0  0  0  0  0  0
  -24.9496  -28.8660   28.6813 C   0  0  0  0  0  0  0  0  0  0  0  0
  -30.1386  -25.0981   16.6383 C   0  0  0  0  0  0  0  0  0  0  0  0
  -30.7318  -27.1822   17.8558 C   0  0  0  0  0  0  0  0  0  0  0  0
  -26.8976  -33.2978   24.1607 C   0  0  0  0  0  0  0  0  0  0  0  0
  -27.2134  -32.2497   26.4124 C   0  0  0  0  0  0  0  0  0  0  0  0
  -25.0873  -33.4411   25.8802 C   0  0  0  0  0  0  0  0  0  0  0  0
  -33.6342  -20.0650   21.6551 C   0  0  0  0  0  0  0  0  0  0  0  0
  -23.4684  -26.7890   25.8585 C   0  0  0  0  0  0  0  0  0  0  0  0
  -28.9760  -23.1157   18.8514 C   0  0  0  0  0  0  0  0  0  0  0  0
  -31.5672  -21.4167   22.0280 C   0  0  0  0  0  0  0  0  0  0  0  0
  -28.4561  -26.1571   18.1683 C   0  0  0  0  0  0  0  0  0  1  0  0
  -30.3846  -22.0772   21.2831 C   0  0  2  0  0  0  0  0  0  0  0  0
  -25.5496  -31.1953   24.8151 C   0  0  1  0  0  0  0  0  0  0  0  0
  -24.3176  -28.6291   27.3185 C   0  0  2  0  0  0  0  0  0  0  0  0
  -29.9637  -25.8463   17.9817 C   0  0  0  0  0  0  0  0  0  0  0  0
  -26.1875  -32.5301   25.2935 C   0  0  0  0  0  0  0  0  0  0  0  0
  -27.8123  -16.5453   21.6291 N   0  0  0  0  0  0  0  0  0  0  0  0
  -30.0218  -23.8341   19.5488 N   0  0  0  0  0  0  0  0  0  0  0  0
  -28.9091  -17.2688   21.9113 N   0  0  0  0  0  0  0  0  0  0  0  0
  -24.8305  -30.7531   22.4889 N   0  0  0  0  0  0  0  0  0  0  0  0
  -28.4460  -21.0332   22.4053 N   0  0  0  0  0  0  0  0  0  0  0  0
  -31.2669  -17.2910   21.6854 N   0  0  0  0  0  0  0  0  0  0  0  0
  -30.0668  -13.4146   19.7032 N   0  0  0  0  0  0  0  0  0  0  0  0
  -23.9239  -33.0310   19.8968 N   0  0  0  0  0  0  0  0  0  0  0  0
  -24.8470  -30.4601   25.8612 N   0  0  0  0  0  0  0  0  0  0  0  0
  -32.4811  -20.7809   21.0455 N   0  3  0  0  0  0  0  0  0  0  0  0
  -24.1054  -27.1640   27.1472 N   0  3  0  0  0  0  0  0  0  0  0  0
  -31.8480  -14.7452   20.2648 O   0  0  0  0  0  0  0  0  0  0  0  0
  -25.9754  -32.1411   20.5462 O   0  0  0  0  0  0  0  0  0  0  0  0
  -29.0446  -23.2324   22.8584 O   0  0  0  0  0  0  0  0  0  0  0  0
  -23.5590  -32.1048   23.9005 O   0  0  0  0  0  0  0  0  0  0  0  0
  -26.0958  -28.5140   25.6868 O   0  0  0  0  0  0  0  0  0  0  0  0
  -24.8779  -11.4605   19.1627 O   0  0  0  0  0  0  0  0  0  0  0  0
  -28.1762  -26.5022   19.5244 O   0  0  0  0  0  0  0  0  0  1  0  0
  -20.9002   -9.7370   22.5702 F   0  0  0  0  0  0  0  0  0  0  0  0
  -24.7483   -8.8200   19.9709 F   0  0  0  0  0  0  0  0  0  0  0  0
  1  2  1  0  0  0  0
  1  5  2  0  0  0  0
  2  6  2  0  0  0  0
  3  8  2  0  0  0  0
  3 17  1  0  0  0  0
  4  9  1  0  0  0  0
  4 17  2  0  0  0  0
  5 19  1  0  0  0  0
  6 21  1  0  0  0  0
  7 10  2  0  0  0  0
  7 20  1  0  0  0  0
  8 23  1  0  0  0  0
  9 23  2  0  0  0  0
 10 24  1  0  0  0  0
 11 12  2  0  0  0  0
 11 25  1  0  0  0  0
 12 26  1  0  0  0  0
 13 14  1  0  0  0  0
 13 29  2  0  0  0  0
 14 30  2  0  0  0  0
 15 22  1  0  0  0  0
 15 24  2  0  0  0  0
 16 26  2  0  0  0  0
 16 27  1  0  0  0  0
 17 28  1  0  0  0  0
 18 28  1  0  0  0  0
 18 31  2  0  0  0  0
 18 32  1  0  0  0  0
 19 21  2  0  0  0  0
 19 37  1  0  0  0  0
 20 22  2  0  0  0  0
 20 38  1  0  0  0  0
 21 46  1  0  0  0  0
 22 39  1  0  0  0  0
 23 82  1  0  0  0  0
 24 83  1  0  0  0  0
 25 27  2  0  0  0  0
 25 82  1  0  0  0  0
 26 84  1  0  0  0  0
 27 85  1  0  0  0  0
 28 66  2  0  0  0  0
 29 61  1  0  0  0  0
 29 67  1  0  0  0  0
 30 64  1  0  0  0  0
 30 67  1  0  0  0  0
 31 68  1  0  0  0  0
 31 71  1  0  0  0  0
 32 72  1  0  0  0  0
 32 77  2  0  0  0  0
 33 47  1  0  0  0  0
 33 73  1  0  0  0  0
 33 78  2  0  0  0  0
 34 61  1  0  0  0  0
 34 70  1  0  0  0  0
 34 79  2  0  0  0  0
 35 62  1  0  0  0  0
 35 69  1  0  0  0  0
 35 80  2  0  0  0  0
 36 63  1  0  0  0  0
 36 74  1  0  0  0  0
 36 81  2  0  0  0  0
 37 40  1  0  0  0  0
 38 47  1  0  0  0  0
 39 69  1  0  0  0  0
 40 42  1  0  0  0  0
 41 43  1  0  0  0  0
 41 44  1  0  0  0  0
 42 46  1  0  0  0  0
 43 48  1  0  0  0  0
 44 70  1  0  0  0  0
 45 48  1  0  0  0  0
 45 70  1  0  0  0  0
 46 73  1  0  0  0  0
 47 69  1  0  0  0  0
 48 68  1  0  0  0  0
 49 58  1  0  0  0  0
 50 63  1  0  0  0  0
 51 64  1  0  0  0  0
 52 64  1  0  0  0  0
 53 65  1  0  0  0  0
 54 65  1  0  0  0  0
 55 65  1  0  0  0  0
 56 75  1  0  0  0  0
 57 76  1  0  0  0  0
 58 67  1  0  0  0  0
 59 61  1  0  0  0  0
 59 75  1  0  0  0  0
 60 64  1  0  0  0  0
 60 83  1  0  0  0  0
 62 65  1  0  0  0  0
 62 74  1  0  0  0  0
 63 76  1  0  0  0  0
 66 68  1  0  0  0  0
M  CHG  2  75   1  76   1
M  ISO  4  34 100  60 101  61 100  83 101
M  END
> <Batch ID>
0107

> <Smiles>
CCn1c([100CH:0](CNC)[100C:0](=O)N2CCCC(n3nc(-c4ccc(Oc5ccc(F)cc5F)cc4)c(C(N)=O)c3N)C2)ccc1C(C)(C)[101CH2:1][101O:1]c1ccc2c(c1)CN(C(=O)C(NC(=O)C(C)NC)C(C)(C)C)C(C(=O)NC1CCCc3ccccc31)C2

> <Shape>
0.280

> <Color>
0.095

> <Negative vol penalty>
0.000

$$$$

  -OEChem-04052319513D

 77 84  0     1  0  0  0  0  0999 V2000
  -16.4898  -28.8843   23.5075 C   0  0  0  0  0  0  0  0  0  0  0  0
  -17.2631  -27.9178   22.8724 C   0  0  0  0  0  0  0  0  0  0  0  0
  -26.4834  -12.8839   21.5420 C   0  0  0  0  0  0  0  0  0  0  0  0
  -26.0980  -13.6623   19.2875 C   0  0  0  0  0  0  0  0  0  0  0  0
  -16.9934  -30.1722   23.6850 C   0  0  0  0  0  0  0  0  0  0  0  0
  -18.5401  -28.2390   22.4136 C   0  0  0  0  0  0  0  0  0  0  0  0
  -23.4387  -24.5656   22.2874 C   0  0  0  0  0  0  0  0  0  0  0  0
  -25.2110  -12.3127   21.5623 C   0  0  0  0  0  0  0  0  0  0  0  0
  -24.8256  -13.0910   19.3078 C   0  0  0  0  0  0  0  0  0  0  0  0
  -24.0149  -23.8051   21.2708 C   0  0  0  0  0  0  0  0  0  0  0  0
  -23.7136   -9.5232   20.3750 C   0  0  0  0  0  0  0  0  0  0  0  0
  -23.5916   -8.2302   20.8836 C   0  0  0  0  0  0  0  0  0  0  0  0
  -25.5708  -25.5934   20.8232 C   0  0  0  0  0  0  0  0  0  0  0  0
  -22.0802   -9.0420   22.5848 C   0  0  0  0  0  0  0  0  0  0  0  0
  -26.9268  -13.5587   20.4046 C   0  0  0  0  0  0  0  0  0  0  0  0
  -29.4401  -13.5404   19.9677 C   0  0  0  0  0  0  0  0  0  0  0  0
  -18.2809  -30.5067   23.2368 C   0  0  0  0  0  0  0  0  0  0  0  0
  -23.9180  -25.8522   22.5727 C   0  0  0  0  0  0  0  0  0  0  0  0
  -19.0608  -29.5330   22.5841 C   0  0  0  0  0  0  0  0  0  0  0  0
  -25.0006  -26.3672   21.8456 C   0  0  0  0  0  0  0  0  0  0  0  0
  -24.3821  -12.4162   20.4452 C   0  0  0  0  0  0  0  0  0  0  0  0
  -25.0792  -24.3201   20.5366 C   0  0  0  0  0  0  0  0  0  0  0  0
  -23.0190  -10.5757   20.9712 C   0  0  0  0  0  0  0  0  0  0  0  0
  -22.7749   -7.9896   21.9885 C   0  0  0  0  0  0  0  0  0  0  0  0
  -22.2023  -10.3351   22.0761 C   0  0  0  0  0  0  0  0  0  0  0  0
  -28.2409  -14.1495   20.3832 C   0  0  0  0  0  0  0  0  0  0  0  0
  -30.3958  -14.5119   20.1388 C   0  0  0  0  0  0  0  0  0  0  0  0
  -29.6696  -12.2150   19.4713 C   0  0  0  0  0  0  0  0  0  0  0  0
  -22.6766  -28.7773   22.4923 C   0  0  0  0  0  0  0  0  0  0  0  0
  -25.5170  -29.5976   23.8271 C   0  0  0  0  0  0  0  0  0  0  0  0
  -28.8111  -28.8518   24.3164 C   0  0  0  0  0  0  0  0  0  0  0  0
  -30.1535  -20.4933   20.2628 C   0  0  0  0  0  0  0  0  0  0  0  0
  -18.7639  -31.9251   23.4091 C   0  0  0  0  0  0  0  0  0  0  0  0
  -23.3029  -26.6493   23.6902 C   0  0  0  0  0  0  0  0  0  0  0  0
  -25.5655  -27.7350   22.1260 C   0  0  0  0  0  0  0  0  0  0  0  0
  -20.2716  -32.0813   23.2280 C   0  0  0  0  0  0  0  0  0  0  0  0
  -31.3985  -18.3477   22.8169 C   0  0  0  0  0  0  0  0  0  0  0  0
  -20.7391  -31.3396   21.9798 C   0  0  0  0  0  0  0  0  0  0  0  0
  -30.8386  -16.9735   22.4453 C   0  0  0  0  0  0  0  0  0  0  0  0
  -30.4063  -19.4652   22.5024 C   0  0  0  0  0  0  0  0  0  0  0  0
  -29.3464  -18.1028   20.7433 C   0  0  0  0  0  0  0  0  0  0  0  0
  -20.4603  -29.8361   22.0946 C   0  0  1  0  0  0  0  0  0  0  0  0
  -23.5370  -28.1505   23.5526 C   0  0  1  0  0  0  0  0  0  0  0  0
  -30.3330  -16.9487   20.9903 C   0  0  2  0  0  0  0  0  0  0  0  0
  -30.8871  -29.7307   25.4186 C   0  0  0  0  0  0  0  0  0  0  0  0
  -25.8339  -31.6479   21.5898 C   0  0  0  0  0  0  0  0  0  0  0  0
  -28.2640  -31.8038   22.1716 C   0  0  0  0  0  0  0  0  0  0  0  0
  -26.5371  -32.4536   23.8505 C   0  0  0  0  0  0  0  0  0  0  0  0
  -29.2676  -20.8888   16.6302 C   0  0  0  0  0  0  0  0  0  0  0  0
  -31.3382  -21.6855   17.7794 C   0  0  0  0  0  0  0  0  0  0  0  0
  -29.0293  -26.4738   26.0646 C   0  0  0  0  0  0  0  0  0  0  0  0
  -27.6340  -22.5032   18.7432 C   0  0  0  0  0  0  0  0  0  0  0  0
  -29.1308  -22.6641   18.4562 C   0  0  0  0  0  0  0  0  0  0  0  0
  -27.0293  -23.7943   19.2810 C   0  0  0  0  0  0  0  0  0  1  0  0
  -26.8687  -30.0093   23.2958 C   0  0  1  0  0  0  0  0  0  0  0  0
  -29.6652  -28.8383   25.5713 C   0  0  2  0  0  0  0  0  0  0  0  0
  -26.8643  -31.4536   22.7201 C   0  0  0  0  0  0  0  0  0  0  0  0
  -29.8435  -21.3796   17.9656 C   0  0  0  0  0  0  0  0  0  0  0  0
  -28.4161  -15.4102   20.7880 N   0  0  0  0  0  0  0  0  0  0  0  0
  -29.7367  -15.6012   20.6278 N   0  0  0  0  0  0  0  0  0  0  0  0
  -24.9259  -28.4781   23.2243 N   0  0  0  0  0  0  0  0  0  0  0  0
  -29.9673  -19.3862   21.1070 N   0  0  0  0  0  0  0  0  0  0  0  0
  -31.7274  -14.5320   19.9174 N   0  0  0  0  0  0  0  0  0  0  0  0
  -28.5765  -11.3452   19.3586 N   0  0  0  0  0  0  0  0  0  0  0  0
  -21.4435  -29.2035   22.9477 N   0  0  0  0  0  0  0  0  0  0  0  0
  -27.8158  -29.8036   24.3862 N   0  0  0  0  0  0  0  0  0  0  0  0
  -29.7150  -20.3323   18.9542 N   0  0  0  0  0  0  0  0  0  0  0  0
  -30.1287  -27.4533   25.8675 N   0  3  0  0  0  0  0  0  0  0  0  0
  -30.8129  -11.8087   19.1531 O   0  0  0  0  0  0  0  0  0  0  0  0
  -23.1006  -28.8689   21.3462 O   0  0  0  0  0  0  0  0  0  0  0  0
  -25.0076  -30.2410   24.7481 O   0  0  0  0  0  0  0  0  0  0  0  0
  -29.0094  -28.0963   23.3675 O   0  0  0  0  0  0  0  0  0  0  0  0
  -30.6770  -21.5452   20.6455 O   0  0  0  0  0  0  0  0  0  0  0  0
  -23.1406  -11.8587   20.4646 O   0  0  0  0  0  0  0  0  0  0  0  0
  -25.6431  -23.5802   19.5434 O   0  0  0  0  0  0  0  0  0  1  0  0
  -22.6566   -6.7475   22.4759 F   0  0  0  0  0  0  0  0  0  0  0  0
  -21.5316  -11.3420   22.6524 F   0  0  0  0  0  0  0  0  0  0  0  0
  1  2  1  0  0  0  0
  1  5  2  0  0  0  0
  2  6  2  0  0  0  0
  3  8  2  0  0  0  0
  3 15  1  0  0  0  0
  4  9  1  0  0  0  0
  4 15  2  0  0  0  0
  5 17  1  0  0  0  0
  6 19  1  0  0  0  0
  7 10  2  0  0  0  0
  7 18  1  0  0  0  0
  8 21  1  0  0  0  0
  9 21  2  0  0  0  0
 10 22  1  0  0  0  0
 11 12  2  0  0  0  0
 11 23  1  0  0  0  0
 12 24  1  0  0  0  0
 13 20  1  0  0  0  0
 13 22  2  0  0  0  0
 14 24  2  0  0  0  0
 14 25  1  0  0  0  0
 15 26  1  0  0  0  0
 16 26  1  0  0  0  0
 16 27  2  0  0  0  0
 16 28  1  0  0  0  0
 17 19  2  0  0  0  0
 17 33  1  0  0  0  0
 18 20  2  0  0  0  0
 18 34  1  0  0  0  0
 19 42  1  0  0  0  0
 20 35  1  0  0  0  0
 21 74  1  0  0  0  0
 22 75  1  0  0  0  0
 23 25  2  0  0  0  0
 23 74  1  0  0  0  0
 24 76  1  0  0  0  0
 25 77  1  0  0  0  0
 26 59  2  0  0  0  0
 27 60  1  0  0  0  0
 27 63  1  0  0  0  0
 28 64  1  0  0  0  0
 28 69  2  0  0  0  0
 29 43  1  0  0  0  0
 29 65  1  0  0  0  0
 29 70  2  0  0  0  0
 30 55  1  0  0  0  0
 30 61  1  0  0  0  0
 30 71  2  0  0  0  0
 31 56  1  0  0  0  0
 31 66  1  0  0  0  0
 31 72  2  0  0  0  0
 32 62  1  0  0  0  0
 32 67  1  0  0  0  0
 32 73  2  0  0  0  0
 33 36  1  0  0  0  0
 34 43  1  0  0  0  0
 35 61  1  0  0  0  0
 36 38  1  0  0  0  0
 37 39  1  0  0  0  0
 37 40  1  0  0  0  0
 38 42  1  0  0  0  0
 39 44  1  0  0  0  0
 40 62  1  0  0  0  0
 41 44  1  0  0  0  0
 41 62  1  0  0  0  0
 42 65  1  0  0  0  0
 43 61  1  0  0  0  0
 44 60  1  0  0  0  0
 45 56  1  0  0  0  0
 46 57  1  0  0  0  0
 47 57  1  0  0  0  0
 48 57  1  0  0  0  0
 49 58  1  0  0  0  0
 50 58  1  0  0  0  0
 51 68  1  0  0  0  0
 52 53  1  0  0  0  0
 52 54  1  0  0  0  0
 53 58  1  0  0  0  0
 54 75  1  0  0  0  0
 55 57  1  0  0  0  0
 55 66  1  0  0  0  0
 56 68  1  0  0  0  0
 58 67  1  0  0  0  0
 59 60  1  0  0  0  0
M  CHG  1  68   1
M  ISO  4  32 100  54 101  67 100  75 101
M  END
> <Batch ID>
0107

> <Smiles>
CNC(C)C(=O)NC(C(=O)N1Cc2cc([101O:1][101CH2:1]CCC(C)(C)[100NH:0][100C:0](=O)N3CCCC(n4nc(-c5ccc(Oc6ccc(F)cc6F)cc5)c(C(N)=O)c4N)C3)ccc2CC1C(=O)NC1CCCc2ccccc21)C(C)(C)C

> <Shape>
0.281

> <Color>
0.082

> <Negative vol penalty>
0.000

$$$$

  -OEChem-04052319513D

 88 96  0     1  0  0  0  0  0999 V2000
  -25.5609  -35.8620   22.9344 C   0  0  0  0  0  0  0  0  0  0  0  0
  -26.1942  -34.6442   22.7076 C   0  0  0  0  0  0  0  0  0  0  0  0
  -26.9961  -12.1467   21.0550 C   0  0  0  0  0  0  0  0  0  0  0  0
  -26.8559  -12.6481   18.6958 C   0  0  0  0  0  0  0  0  0  0  0  0
  -24.2926  -35.8898   23.5127 C   0  0  0  0  0  0  0  0  0  0  0  0
  -25.5599  -33.4535   23.0600 C   0  0  0  0  0  0  0  0  0  0  0  0
  -25.9245  -29.9169   19.4538 C   0  0  0  0  0  0  0  0  0  0  0  0
  -26.4202  -10.8975   20.8238 C   0  0  0  0  0  0  0  0  0  0  0  0
  -26.2800  -11.3988   18.4645 C   0  0  0  0  0  0  0  0  0  0  0  0
  -27.1354  -29.2334   19.3525 C   0  0  0  0  0  0  0  0  0  0  0  0
  -24.6563   -7.7185   20.9034 C   0  0  0  0  0  0  0  0  0  0  0  0
  -23.6461   -7.2982   21.7685 C   0  0  0  0  0  0  0  0  0  0  0  0
  -26.1811  -27.3760   20.5602 C   0  0  0  0  0  0  0  0  0  0  0  0
  -26.5129  -23.2371   17.3926 C   0  0  0  0  0  0  0  0  0  0  0  0
  -22.3173   -9.2188   21.1500 C   0  0  0  0  0  0  0  0  0  0  0  0
  -28.2680  -22.4815   16.2016 C   0  0  0  0  0  0  0  0  0  0  0  0
  -27.2139  -13.0220   19.9910 C   0  0  0  0  0  0  0  0  0  0  0  0
  -29.1790  -14.6331   20.2157 C   0  0  0  0  0  0  0  0  0  0  0  0
  -23.6383  -34.6983   23.8636 C   0  0  0  0  0  0  0  0  0  0  0  0
  -24.8343  -29.3386   20.1198 C   0  0  0  0  0  0  0  0  0  0  0  0
  -24.2821  -33.4654   23.6448 C   0  0  0  0  0  0  0  0  0  0  0  0
  -24.9567  -28.0532   20.6664 C   0  0  0  0  0  0  0  0  0  0  0  0
  -27.7700  -23.5931   16.8447 C   0  0  0  0  0  0  0  0  0  0  0  0
  -26.0622  -10.5235   19.5285 C   0  0  0  0  0  0  0  0  0  0  0  0
  -27.2648  -27.9639   19.9082 C   0  0  0  0  0  0  0  0  0  0  0  0
  -24.4970   -8.8890   20.1616 C   0  0  0  0  0  0  0  0  0  0  0  0
  -22.4766   -8.0483   21.8918 C   0  0  0  0  0  0  0  0  0  0  0  0
  -23.3275   -9.6391   20.2848 C   0  0  0  0  0  0  0  0  0  0  0  0
  -27.8082  -14.3128   20.2293 C   0  0  0  0  0  0  0  0  0  0  0  0
  -26.2811  -21.9187   17.0677 C   0  0  0  0  0  0  0  0  0  0  0  0
  -29.2204  -15.9766   20.4979 C   0  0  0  0  0  0  0  0  0  0  0  0
  -30.3134  -13.7914   19.9699 C   0  0  0  0  0  0  0  0  0  0  0  0
  -23.1150  -30.0937   22.6844 C   0  0  0  0  0  0  0  0  0  0  0  0
  -21.3214  -27.5585   21.7473 C   0  0  0  0  0  0  0  0  0  0  0  0
  -21.1405  -24.6133   20.0329 C   0  0  0  0  0  0  0  0  0  0  0  0
  -25.2684  -20.4173   19.7819 C   0  0  0  0  0  0  0  0  0  0  0  0
  -22.2876  -34.7808   24.5295 C   0  0  0  0  0  0  0  0  0  0  0  0
  -23.5267  -30.0779   20.1972 C   0  0  0  0  0  0  0  0  0  0  0  0
  -23.8102  -27.3798   21.3739 C   0  0  0  0  0  0  0  0  0  0  0  0
  -21.5269  -33.4574   24.5299 C   0  0  0  0  0  0  0  0  0  0  0  0
  -26.8068  -19.3904   22.8241 C   0  0  0  0  0  0  0  0  0  0  0  0
  -22.4416  -32.3159   24.9627 C   0  0  0  0  0  0  0  0  0  0  0  0
  -27.3615  -18.0015   22.5029 C   0  0  0  0  0  0  0  0  0  0  0  0
  -25.4722  -19.6406   22.1253 C   0  0  0  0  0  0  0  0  0  0  0  0
  -26.0413  -18.0337   20.3454 C   0  0  0  0  0  0  0  0  0  0  0  0
  -23.6161  -32.1513   23.9906 C   0  0  1  0  0  0  0  0  0  0  0  0
  -22.6401  -29.6052   21.3452 C   0  0  1  0  0  0  0  0  0  0  0  0
  -27.4135  -17.7563   20.9829 C   0  0  2  0  0  0  0  0  0  0  0  0
  -19.5530  -22.7499   19.4802 C   0  0  0  0  0  0  0  0  0  0  0  0
  -27.3600  -17.0819   16.0553 C   0  0  0  0  0  0  0  0  0  0  0  0
  -29.6941  -17.1179   16.9561 C   0  0  0  0  0  0  0  0  0  0  0  0
  -21.6642  -26.4346   24.5632 C   0  0  0  0  0  0  0  0  0  0  0  0
  -20.9069  -24.2125   23.6932 C   0  0  0  0  0  0  0  0  0  0  0  0
  -19.3676  -26.1736   23.6082 C   0  0  0  0  0  0  0  0  0  0  0  0
  -30.9876  -26.6338   17.1085 C   0  0  0  0  0  0  0  0  0  0  0  0
  -21.3327  -25.1548   17.1296 C   0  0  0  0  0  0  0  0  0  0  0  0
  -28.4405  -24.9409   16.9458 C   0  0  0  0  0  0  0  0  0  0  0  0
  -25.1275  -21.0525   17.3869 C   0  0  0  0  0  0  0  0  0  0  0  0
  -29.3308  -25.0310   18.1883 C   0  0  0  0  0  0  0  0  0  0  0  0
  -28.4814  -19.2953   16.6420 C   0  0  0  0  0  0  0  0  0  0  0  0
  -27.5159  -20.1370   15.8051 C   0  0  0  0  0  0  0  0  0  0  0  0
  -29.2519  -27.5629   18.6646 C   0  0  0  0  0  0  0  0  0  1  0  0
  -21.3382  -26.0752   22.0273 C   0  0  1  0  0  0  0  0  0  0  0  0
  -20.1223  -24.0886   19.0366 C   0  0  2  0  0  0  0  0  0  0  0  0
  -28.6713  -17.8676   16.0992 C   0  0  0  0  0  0  0  0  0  0  0  0
  -20.8416  -25.7372   23.4614 C   0  0  0  0  0  0  0  0  0  0  0  0
  -30.1167  -26.3457   18.3294 C   0  0  2  0  0  0  0  0  0  0  0  0
  -27.0348  -15.3678   20.4990 N   0  0  0  0  0  0  0  0  0  0  0  0
  -27.3548  -21.4696   16.3440 N   0  0  0  0  0  0  0  0  0  0  0  0
  -27.9226  -16.3642   20.6575 N   0  0  0  0  0  0  0  0  0  0  0  0
  -22.5541  -28.1458   21.4290 N   0  0  0  0  0  0  0  0  0  0  0  0
  -25.5900  -19.3920   20.6864 N   0  0  0  0  0  0  0  0  0  0  0  0
  -30.2401  -16.8525   20.6227 N   0  0  0  0  0  0  0  0  0  0  0  0
  -30.0919  -12.4350   19.6955 N   0  0  0  0  0  0  0  0  0  0  0  0
  -23.1857  -31.4698   22.7887 N   0  0  0  0  0  0  0  0  0  0  0  0
  -20.5607  -25.4500   20.9629 N   0  0  0  0  0  0  0  0  0  0  0  0
  -25.4137  -20.1003   18.4368 N   0  0  0  0  0  0  0  0  0  0  0  0
  -20.7517  -23.9111   17.6975 N   0  3  0  0  0  0  0  0  0  0  0  0
  -31.4895  -14.2258   20.0090 O   0  0  0  0  0  0  0  0  0  0  0  0
  -23.3951  -29.2823   23.5590 O   0  0  0  0  0  0  0  0  0  0  0  0
  -20.2527  -28.1722   21.8018 O   0  0  0  0  0  0  0  0  0  0  0  0
  -22.3303  -24.3082   19.9924 O   0  0  0  0  0  0  0  0  0  0  0  0
  -24.8855  -21.5343   20.1461 O   0  0  0  0  0  0  0  0  0  0  0  0
  -25.5005   -9.3046   19.3025 O   0  0  0  0  0  0  0  0  0  0  0  0
  -28.4458  -27.2949   19.8112 O   0  0  0  0  0  0  0  0  0  1  0  0
  -21.5060   -7.6438   22.7215 F   0  0  0  0  0  0  0  0  0  0  0  0
  -23.1682  -10.7639   19.5739 F   0  0  0  0  0  0  0  0  0  0  0  0
  -30.9770  -26.1687   19.3850 F   0  0  0  0  0  0  0  0  0  0  0  0
  1  2  1  0  0  0  0
  1  5  2  0  0  0  0
  2  6  2  0  0  0  0
  3  8  2  0  0  0  0
  3 17  1  0  0  0  0
  4  9  1  0  0  0  0
  4 17  2  0  0  0  0
  5 19  1  0  0  0  0
  6 21  1  0  0  0  0
  7 10  2  0  0  0  0
  7 20  1  0  0  0  0
  8 24  1  0  0  0  0
  9 24  2  0  0  0  0
 10 25  1  0  0  0  0
 11 12  2  0  0  0  0
 11 26  1  0  0  0  0
 12 27  1  0  0  0  0
 13 22  1  0  0  0  0
 13 25  2  0  0  0  0
 14 23  1  0  0  0  0
 14 30  2  0  0  0  0
 15 27  2  0  0  0  0
 15 28  1  0  0  0  0
 16 23  2  0  0  0  0
 16 69  1  0  0  0  0
 17 29  1  0  0  0  0
 18 29  1  0  0  0  0
 18 31  2  0  0  0  0
 18 32  1  0  0  0  0
 19 21  2  0  0  0  0
 19 37  1  0  0  0  0
 20 22  2  0  0  0  0
 20 38  1  0  0  0  0
 21 46  1  0  0  0  0
 22 39  1  0  0  0  0
 23 57  1  0  0  0  0
 24 84  1  0  0  0  0
 25 85  1  0  0  0  0
 26 28  2  0  0  0  0
 26 84  1  0  0  0  0
 27 86  1  0  0  0  0
 28 87  1  0  0  0  0
 29 68  2  0  0  0  0
 30 58  1  0  0  0  0
 30 69  1  0  0  0  0
 31 70  1  0  0  0  0
 31 73  1  0  0  0  0
 32 74  1  0  0  0  0
 32 79  2  0  0  0  0
 33 47  1  0  0  0  0
 33 75  1  0  0  0  0
 33 80  2  0  0  0  0
 34 63  1  0  0  0  0
 34 71  1  0  0  0  0
 34 81  2  0  0  0  0
 35 64  1  0  0  0  0
 35 76  1  0  0  0  0
 35 82  2  0  0  0  0
 36 72  1  0  0  0  0
 36 77  1  0  0  0  0
 36 83  2  0  0  0  0
 37 40  1  0  0  0  0
 38 47  1  0  0  0  0
 39 71  1  0  0  0  0
 40 42  1  0  0  0  0
 41 43  1  0  0  0  0
 41 44  1  0  0  0  0
 42 46  1  0  0  0  0
 43 48  1  0  0  0  0
 44 72  1  0  0  0  0
 45 48  1  0  0  0  0
 45 72  1  0  0  0  0
 46 75  1  0  0  0  0
 47 71  1  0  0  0  0
 48 70  1  0  0  0  0
 49 64  1  0  0  0  0
 50 65  1  0  0  0  0
 51 65  1  0  0  0  0
 52 66  1  0  0  0  0
 53 66  1  0  0  0  0
 54 66  1  0  0  0  0
 55 67  1  0  0  0  0
 56 78  1  0  0  0  0
 57 59  1  0  0  0  0
 58 77  1  0  0  0  0
 59 67  1  0  0  0  0
 60 61  1  0  0  0  0
 60 65  1  0  0  0  0
 61 69  1  0  0  0  0
 62 67  1  0  0  0  0
 62 85  1  0  0  0  0
 63 66  1  0  0  0  0
 63 76  1  0  0  0  0
 64 78  1  0  0  0  0
 67 88  1  0  0  0  0
 68 70  1  0  0  0  0
M  CHG  1  78   1
M  ISO  4  36 100  62 101  77 100  85 101
M  END
> <Batch ID>
0107

> <Smiles>
CNC(C)C(=O)NC(C(=O)N1Cc2cc([101O:1][101CH2:1]C(C)(F)CCc3cc(C[100NH:0][100C:0](=O)N4CCCC(n5nc(-c6ccc(Oc7ccc(F)cc7F)cc6)c(C(N)=O)c5N)C4)n(CCC(C)C)c3)ccc2CC1C(=O)NC1CCCc2ccccc21)C(C)(C)C

> <Shape>
0.258

> <Color>
0.079

> <Negative vol penalty>
0.000

$$$$

  -OEChem-04052319513D

 88 97  0     1  0  0  0  0  0999 V2000
  -18.6702  -31.1467   22.9795 C   0  0  0  0  0  0  0  0  0  0  0  0
  -20.0442  -31.0232   22.7994 C   0  0  0  0  0  0  0  0  0  0  0  0
  -24.6853  -14.0067   21.5468 C   0  0  0  0  0  0  0  0  0  0  0  0
  -26.8153  -13.6332   20.4695 C   0  0  0  0  0  0  0  0  0  0  0  0
  -17.8684  -30.0068   23.0203 C   0  0  0  0  0  0  0  0  0  0  0  0
  -20.6173  -29.7595   22.6609 C   0  0  0  0  0  0  0  0  0  0  0  0
  -25.4250  -28.2592   19.1766 C   0  0  0  0  0  0  0  0  0  0  0  0
  -24.1858  -12.8425   20.9629 C   0  0  0  0  0  0  0  0  0  0  0  0
  -26.3159  -12.4690   19.8856 C   0  0  0  0  0  0  0  0  0  0  0  0
  -26.7766  -28.0821   19.4691 C   0  0  0  0  0  0  0  0  0  0  0  0
  -22.4621   -9.7765   20.0445 C   0  0  0  0  0  0  0  0  0  0  0  0
  -21.7272   -8.9094   20.8529 C   0  0  0  0  0  0  0  0  0  0  0  0
  -26.4145  -25.7059   19.6743 C   0  0  0  0  0  0  0  0  0  0  0  0
  -30.4713  -25.5868   17.0229 C   0  0  0  0  0  0  0  0  0  0  0  0
  -23.6402   -8.6408   22.3039 C   0  0  0  0  0  0  0  0  0  0  0  0
  -30.9830  -23.5210   17.7581 C   0  0  0  0  0  0  0  0  0  0  0  0
  -26.0000  -14.4020   21.3000 C   0  0  0  0  0  0  0  0  0  0  0  0
  -27.1659  -15.7216   23.1459 C   0  0  0  0  0  0  0  0  0  0  0  0
  -18.4308  -28.7290   22.8726 C   0  0  0  0  0  0  0  0  0  0  0  0
  -24.5544  -27.1605   19.1413 C   0  0  0  0  0  0  0  0  0  0  0  0
  -19.8224  -28.6014   22.7011 C   0  0  0  0  0  0  0  0  0  0  0  0
  -25.0528  -25.8715   19.3785 C   0  0  0  0  0  0  0  0  0  0  0  0
  -30.5761  -24.2250   16.6464 C   0  0  0  0  0  0  0  0  0  0  0  0
  -25.0011  -12.0737   20.1324 C   0  0  0  0  0  0  0  0  0  0  0  0
  -27.2710  -26.8056   19.7209 C   0  0  0  0  0  0  0  0  0  0  0  0
  -23.7861  -10.0758   20.3658 C   0  0  0  0  0  0  0  0  0  0  0  0
  -22.3162   -8.3415   21.9826 C   0  0  0  0  0  0  0  0  0  0  0  0
  -24.3751   -9.5080   21.4955 C   0  0  0  0  0  0  0  0  0  0  0  0
  -26.5163  -15.6048   21.9024 C   0  0  0  0  0  0  0  0  0  0  0  0
  -30.8175  -25.6734   18.3534 C   0  0  0  0  0  0  0  0  0  0  0  0
  -27.4575  -17.0592   23.2567 C   0  0  0  0  0  0  0  0  0  0  0  0
  -27.4780  -14.7112   24.1141 C   0  0  0  0  0  0  0  0  0  0  0  0
  -21.9717  -26.2916   20.7779 C   0  0  0  0  0  0  0  0  0  0  0  0
  -21.8747  -23.8923   18.5970 C   0  0  0  0  0  0  0  0  0  0  0  0
  -23.5585  -21.9392   16.3617 C   0  0  0  0  0  0  0  0  0  0  0  0
  -29.4287  -21.6915   21.1114 C   0  0  0  0  0  0  0  0  0  0  0  0
  -17.5297  -27.5236   22.9709 C   0  0  0  0  0  0  0  0  0  0  0  0
  -23.1044  -27.3652   18.7979 C   0  0  0  0  0  0  0  0  0  0  0  0
  -24.1637  -24.6566   19.3329 C   0  0  0  0  0  0  0  0  0  0  0  0
  -18.1674  -26.2417   22.4412 C   0  0  0  0  0  0  0  0  0  0  0  0
  -25.9316  -21.0046   20.4824 C   0  0  0  0  0  0  0  0  0  0  0  0
  -19.5861  -26.0890   22.9803 C   0  0  0  0  0  0  0  0  0  0  0  0
  -28.0139  -22.5799   16.1627 C   0  0  0  0  0  0  0  0  0  0  0  0
  -27.6697  -23.9532   15.6572 C   0  0  0  0  0  0  0  0  0  0  0  0
  -25.8294  -19.5373   20.9028 C   0  0  0  0  0  0  0  0  0  0  0  0
  -27.2623  -21.2907   19.7928 C   0  0  0  0  0  0  0  0  0  0  0  0
  -28.3633  -19.4559   21.0154 C   0  0  0  0  0  0  0  0  0  0  0  0
  -20.4781  -27.2493   22.5224 C   0  0  1  0  0  0  0  0  0  0  0  0
  -22.2074  -26.2358   19.2950 C   0  0  1  0  0  0  0  0  0  0  0  0
  -28.8188  -23.1956   15.0520 C   0  0  0  0  0  0  0  0  0  0  0  0
  -27.0497  -19.1076   21.7387 C   0  0  2  0  0  0  0  0  0  0  0  0
  -32.1355  -25.0553   14.0789 C   0  0  0  0  0  0  0  0  0  0  0  0
  -31.9204  -27.8958   18.7736 C   0  0  0  0  0  0  0  0  0  0  0  0
  -23.8983  -20.2273   14.5585 C   0  0  0  0  0  0  0  0  0  0  0  0
  -31.1549  -22.3677   15.0689 C   0  0  0  0  0  0  0  0  0  0  0  0
  -21.7761  -21.9373   20.9376 C   0  0  0  0  0  0  0  0  0  0  0  0
  -22.3916  -20.1069   19.3441 C   0  0  0  0  0  0  0  0  0  0  0  0
  -20.2589  -21.3632   19.0341 C   0  0  0  0  0  0  0  0  0  0  0  0
  -23.1608  -23.9447   14.2219 C   0  0  0  0  0  0  0  0  0  0  0  0
  -30.6655  -24.6480   14.1240 C   0  0  0  0  0  0  0  0  0  0  0  0
  -31.5423  -24.0561   20.1289 C   0  0  0  0  0  0  0  0  0  0  0  0
  -30.3793  -23.9836   21.1148 C   0  0  0  0  0  0  0  0  0  0  0  0
  -29.5088  -27.5561   19.4295 C   0  0  0  0  0  0  0  0  0  1  0  0
  -30.8804  -26.8865   19.2681 C   0  0  1  0  0  0  0  0  0  0  0  0
  -22.4551  -22.5014   18.5113 C   0  0  1  0  0  0  0  0  0  0  0  0
  -23.2457  -21.5503   14.9280 C   0  0  2  0  0  0  0  0  0  0  0  0
  -30.3002  -23.6632   15.3104 C   0  0  2  0  0  0  0  0  0  0  0  0
  -21.7371  -21.5001   19.4596 C   0  0  0  0  0  0  0  0  0  0  0  0
  -26.4016  -16.7750   21.2687 N   0  0  0  0  0  0  0  0  0  0  0  0
  -31.1269  -24.4117   18.7897 N   0  0  0  0  0  0  0  0  0  0  0  0
  -26.9830  -17.6397   22.1174 N   0  0  0  0  0  0  0  0  0  0  0  0
  -22.7523  -24.9092   18.9990 N   0  0  0  0  0  0  0  0  0  0  0  0
  -28.3828  -20.8758   20.6486 N   0  0  0  0  0  0  0  0  0  0  0  0
  -28.0708  -17.7836   24.2166 N   0  0  0  0  0  0  0  0  0  0  0  0
  -27.1072  -13.3874   23.8416 N   0  0  0  0  0  0  0  0  0  0  0  0
  -20.8848  -27.0615   21.1462 N   0  0  0  0  0  0  0  0  0  0  0  0
  -22.4105  -22.1266   17.1021 N   0  0  0  0  0  0  0  0  0  0  0  0
  -29.3769  -23.0218   20.7133 N   0  0  0  0  0  0  0  0  0  0  0  0
  -23.7391  -22.5964   13.9882 N   0  3  0  0  0  0  0  0  0  0  0  0
  -28.0535  -14.9772   25.1965 O   0  0  0  0  0  0  0  0  0  0  0  0
  -22.7195  -25.6803   21.5320 O   0  0  0  0  0  0  0  0  0  0  0  0
  -20.6882  -24.0712   18.3107 O   0  0  0  0  0  0  0  0  0  0  0  0
  -24.7064  -22.0606   16.7836 O   0  0  0  0  0  0  0  0  0  0  0  0
  -30.3391  -21.2669   21.8311 O   0  0  0  0  0  0  0  0  0  0  0  0
  -24.5142  -10.9375   19.5626 O   0  0  0  0  0  0  0  0  0  0  0  0
  -28.5897  -26.6300   20.0074 O   0  0  0  0  0  0  0  0  0  1  0  0
  -21.6098   -7.5100   22.7597 F   0  0  0  0  0  0  0  0  0  0  0  0
  -25.6463   -9.7926   21.8099 F   0  0  0  0  0  0  0  0  0  0  0  0
  1  2  1  0  0  0  0
  1  5  2  0  0  0  0
  2  6  2  0  0  0  0
  3  8  2  0  0  0  0
  3 17  1  0  0  0  0
  4  9  1  0  0  0  0
  4 17  2  0  0  0  0
  5 19  1  0  0  0  0
  6 21  1  0  0  0  0
  7 10  2  0  0  0  0
  7 20  1  0  0  0  0
  8 24  1  0  0  0  0
  9 24  2  0  0  0  0
 10 25  1  0  0  0  0
 11 12  2  0  0  0  0
 11 26  1  0  0  0  0
 12 27  1  0  0  0  0
 13 22  1  0  0  0  0
 13 25  2  0  0  0  0
 14 23  1  0  0  0  0
 14 30  2  0  0  0  0
 15 27  2  0  0  0  0
 15 28  1  0  0  0  0
 16 23  2  0  0  0  0
 16 70  1  0  0  0  0
 17 29  1  0  0  0  0
 18 29  1  0  0  0  0
 18 31  2  0  0  0  0
 18 32  1  0  0  0  0
 19 21  2  0  0  0  0
 19 37  1  0  0  0  0
 20 22  2  0  0  0  0
 20 38  1  0  0  0  0
 21 48  1  0  0  0  0
 22 39  1  0  0  0  0
 23 67  1  0  0  0  0
 24 85  1  0  0  0  0
 25 86  1  0  0  0  0
 26 28  2  0  0  0  0
 26 85  1  0  0  0  0
 27 87  1  0  0  0  0
 28 88  1  0  0  0  0
 29 69  2  0  0  0  0
 30 64  1  0  0  0  0
 30 70  1  0  0  0  0
 31 71  1  0  0  0  0
 31 74  1  0  0  0  0
 32 75  1  0  0  0  0
 32 80  2  0  0  0  0
 33 49  1  0  0  0  0
 33 76  1  0  0  0  0
 33 81  2  0  0  0  0
 34 65  1  0  0  0  0
 34 72  1  0  0  0  0
 34 82  2  0  0  0  0
 35 66  1  0  0  0  0
 35 77  1  0  0  0  0
 35 83  2  0  0  0  0
 36 73  1  0  0  0  0
 36 78  1  0  0  0  0
 36 84  2  0  0  0  0
 37 40  1  0  0  0  0
 38 49  1  0  0  0  0
 39 72  1  0  0  0  0
 40 42  1  0  0  0  0
 41 45  1  0  0  0  0
 41 46  1  0  0  0  0
 42 48  1  0  0  0  0
 43 44  1  0  0  0  0
 43 50  1  0  0  0  0
 44 50  1  0  0  0  0
 45 51  1  0  0  0  0
 46 73  1  0  0  0  0
 47 51  1  0  0  0  0
 47 73  1  0  0  0  0
 48 76  1  0  0  0  0
 49 72  1  0  0  0  0
 50 67  1  0  0  0  0
 51 71  1  0  0  0  0
 52 60  1  0  0  0  0
 53 64  1  0  0  0  0
 54 66  1  0  0  0  0
 55 67  1  0  0  0  0
 56 68  1  0  0  0  0
 57 68  1  0  0  0  0
 58 68  1  0  0  0  0
 59 79  1  0  0  0  0
 60 67  1  0  0  0  0
 61 62  1  0  0  0  0
 61 70  1  0  0  0  0
 62 78  1  0  0  0  0
 63 64  1  0  0  0  0
 63 86  1  0  0  0  0
 65 68  1  0  0  0  0
 65 77  1  0  0  0  0
 66 79  1  0  0  0  0
 69 71  1  0  0  0  0
M  CHG  1  79   1
M  ISO  4  36 100  63 101  78 100  86 101
M  END
> <Batch ID>
0107

> <Smiles>
CCC(C)(c1cc(C(C)[101CH2:1][101O:1]c2ccc3c(c2)CN(C(=O)C(NC(=O)C(C)NC)C(C)(C)C)C(C(=O)NC2CCCc4ccccc42)C3)n(CC[100NH:0][100C:0](=O)N2CCCC(n3nc(-c4ccc(Oc5ccc(F)cc5F)cc4)c(C(N)=O)c3N)C2)c1)C1CC1

> <Shape>
0.246

> <Color>
0.069

> <Negative vol penalty>
0.000

$$$$

  -OEChem-04052319513D

 81 89  0     1  0  0  0  0  0999 V2000
  -16.5868  -30.6533   22.3352 C   0  0  0  0  0  0  0  0  0  0  0  0
  -17.5592  -31.4337   21.7181 C   0  0  0  0  0  0  0  0  0  0  0  0
  -26.2504  -12.8564   20.0123 C   0  0  0  0  0  0  0  0  0  0  0  0
  -26.1193  -13.7277   22.2619 C   0  0  0  0  0  0  0  0  0  0  0  0
  -16.9200  -29.8713   23.4404 C   0  0  0  0  0  0  0  0  0  0  0  0
  -18.8652  -31.4334   22.2066 C   0  0  0  0  0  0  0  0  0  0  0  0
  -24.3925  -29.4961   18.0129 C   0  0  0  0  0  0  0  0  0  0  0  0
  -25.0695  -12.1435   20.2196 C   0  0  0  0  0  0  0  0  0  0  0  0
  -24.9384  -13.0149   22.4692 C   0  0  0  0  0  0  0  0  0  0  0  0
  -25.5247  -29.3415   17.2126 C   0  0  0  0  0  0  0  0  0  0  0  0
  -22.2807   -9.8106   20.2787 C   0  0  0  0  0  0  0  0  0  0  0  0
  -22.2394   -8.4831   19.8524 C   0  0  0  0  0  0  0  0  0  0  0  0
  -26.9455  -29.6391   19.1468 C   0  0  0  0  0  0  0  0  0  0  0  0
  -24.0804   -7.9531   21.3245 C   0  0  0  0  0  0  0  0  0  0  0  0
  -26.7753  -13.6485   21.0335 C   0  0  0  0  0  0  0  0  0  0  0  0
  -29.2602  -13.8584   20.4957 C   0  0  0  0  0  0  0  0  0  0  0  0
  -18.2330  -29.8541   23.9367 C   0  0  0  0  0  0  0  0  0  0  0  0
  -24.5324  -29.7077   19.3873 C   0  0  0  0  0  0  0  0  0  0  0  0
  -19.2160  -30.6516   23.3203 C   0  0  0  0  0  0  0  0  0  0  0  0
  -25.8148  -29.7823   19.9554 C   0  0  0  0  0  0  0  0  0  0  0  0
  -24.4135  -12.2228   21.4480 C   0  0  0  0  0  0  0  0  0  0  0  0
  -26.7980  -29.4131   17.7782 C   0  0  0  0  0  0  0  0  0  0  0  0
  -23.2219  -10.2094   21.2278 C   0  0  0  0  0  0  0  0  0  0  0  0
  -23.1392   -7.5544   20.3753 C   0  0  0  0  0  0  0  0  0  0  0  0
  -24.1217   -9.2806   21.7507 C   0  0  0  0  0  0  0  0  0  0  0  0
  -27.9954  -14.3847   20.8201 C   0  0  0  0  0  0  0  0  0  0  0  0
  -30.0762  -14.9591   20.4016 C   0  0  0  0  0  0  0  0  0  0  0  0
  -29.6614  -12.4963   20.2971 C   0  0  0  0  0  0  0  0  0  0  0  0
  -22.8334  -30.2391   22.6899 C   0  0  0  0  0  0  0  0  0  0  0  0
  -25.2066  -28.3635   23.2003 C   0  0  0  0  0  0  0  0  0  0  0  0
  -27.6577  -25.9918   23.2642 C   0  0  0  0  0  0  0  0  0  0  0  0
  -28.9306  -20.6067   19.1179 C   0  0  0  0  0  0  0  0  0  0  0  0
  -18.5348  -29.0293   25.1629 C   0  0  0  0  0  0  0  0  0  0  0  0
  -23.3421  -29.9410   20.2776 C   0  0  0  0  0  0  0  0  0  0  0  0
  -25.9177  -30.0460   21.4328 C   0  0  0  0  0  0  0  0  0  0  0  0
  -20.0265  -28.7967   25.3885 C   0  0  0  0  0  0  0  0  0  0  0  0
  -30.5811  -19.4032   22.1053 C   0  0  0  0  0  0  0  0  0  0  0  0
  -20.8008  -30.1009   25.2259 C   0  0  0  0  0  0  0  0  0  0  0  0
  -30.2179  -17.9175   22.0759 C   0  0  0  0  0  0  0  0  0  0  0  0
  -28.0050  -23.5527   18.0177 C   0  0  0  0  0  0  0  0  0  0  0  0
  -30.4922  -23.8587   18.2999 C   0  0  0  0  0  0  0  0  0  0  0  0
  -29.4217  -20.2655   21.6149 C   0  0  0  0  0  0  0  0  0  0  0  0
  -28.5542  -18.4227   20.2274 C   0  0  0  0  0  0  0  0  0  0  0  0
  -28.0142  -24.5729   16.8869 C   0  0  0  0  0  0  0  0  0  0  0  0
  -30.4885  -24.8784   17.1685 C   0  0  0  0  0  0  0  0  0  0  0  0
  -20.6494  -30.6589   23.8056 C   0  0  1  0  0  0  0  0  0  0  0  0
  -23.5213  -29.3566   21.6902 C   0  0  1  0  0  0  0  0  0  0  0  0
  -29.6932  -17.4962   20.6905 C   0  0  2  0  0  0  0  0  0  0  0  0
  -29.3555  -22.8477   18.1491 C   0  0  0  0  0  0  0  0  0  0  0  0
  -28.8701  -24.4539   24.8335 C   0  0  0  0  0  0  0  0  0  0  0  0
  -30.2903  -28.8098   15.3995 C   0  0  0  0  0  0  0  0  0  0  0  0
  -26.8166  -30.7253   24.2651 C   0  0  0  0  0  0  0  0  0  0  0  0
  -28.5562  -29.0995   25.0387 C   0  0  0  0  0  0  0  0  0  0  0  0
  -26.2474  -28.9936   25.9773 C   0  0  0  0  0  0  0  0  0  0  0  0
  -26.7360  -23.5875   21.8051 C   0  0  0  0  0  0  0  0  0  0  0  0
  -29.1211  -26.6555   16.0791 C   0  0  0  0  0  0  0  0  0  0  0  0
  -29.0585  -28.6937   17.6041 C   0  0  0  0  0  0  0  0  0  1  0  0
  -26.6548  -28.2359   23.5999 C   0  0  1  0  0  0  0  0  0  0  0  0
  -27.6995  -24.6022   23.8741 C   0  0  2  0  0  0  0  0  0  0  0  0
  -29.8633  -27.9068   16.5622 C   0  0  2  0  0  0  0  0  0  0  0  0
  -27.0609  -29.2644   24.6929 C   0  0  0  0  0  0  0  0  0  0  0  0
  -28.0025  -15.7162   20.9252 N   0  0  0  0  0  0  0  0  0  0  0  0
  -29.2817  -16.0358   20.6654 N   0  0  0  0  0  0  0  0  0  0  0  0
  -24.9143  -29.2497   22.1564 N   0  0  0  0  0  0  0  0  0  0  0  0
  -28.9821  -19.8245   20.2836 N   0  0  0  0  0  0  0  0  0  0  0  0
  -31.3888  -15.1014   20.1198 N   0  0  0  0  0  0  0  0  0  0  0  0
  -30.1160  -11.7656   21.4034 N   0  0  0  0  0  0  0  0  0  0  0  0
  -21.4996  -29.9350   22.8849 N   0  0  0  0  0  0  0  0  0  0  0  0
  -26.8499  -26.8431   23.9881 N   0  0  0  0  0  0  0  0  0  0  0  0
  -29.3463  -21.9251   19.2578 N   0  0  0  0  0  0  0  0  0  0  0  0
  -29.1404  -25.5548   17.1040 N   0  3  0  0  0  0  0  0  0  0  0  0
  -27.8337  -23.5716   22.8061 N   0  3  0  0  0  0  0  0  0  0  0  0
  -29.6337  -11.9486   19.1690 O   0  0  0  0  0  0  0  0  0  0  0  0
  -23.4656  -31.1299   23.2453 O   0  0  0  0  0  0  0  0  0  0  0  0
  -24.3549  -27.7010   23.7994 O   0  0  0  0  0  0  0  0  0  0  0  0
  -28.2824  -26.2929   22.2495 O   0  0  0  0  0  0  0  0  0  0  0  0
  -28.5473  -20.1615   18.0307 O   0  0  0  0  0  0  0  0  0  0  0  0
  -23.2611  -11.5275   21.6506 O   0  0  0  0  0  0  0  0  0  0  0  0
  -27.8990  -29.2568   16.9919 O   0  0  0  0  0  0  0  0  0  1  0  0
  -23.0984   -6.2793   19.9670 F   0  0  0  0  0  0  0  0  0  0  0  0
  -25.0273   -9.6576   22.6637 F   0  0  0  0  0  0  0  0  0  0  0  0
  1  2  1  0  0  0  0
  1  5  2  0  0  0  0
  2  6  2  0  0  0  0
  3  8  2  0  0  0  0
  3 15  1  0  0  0  0
  4  9  1  0  0  0  0
  4 15  2  0  0  0  0
  5 17  1  0  0  0  0
  6 19  1  0  0  0  0
  7 10  2  0  0  0  0
  7 18  1  0  0  0  0
  8 21  1  0  0  0  0
  9 21  2  0  0  0  0
 10 22  1  0  0  0  0
 11 12  2  0  0  0  0
 11 23  1  0  0  0  0
 12 24  1  0  0  0  0
 13 20  1  0  0  0  0
 13 22  2  0  0  0  0
 14 24  2  0  0  0  0
 14 25  1  0  0  0  0
 15 26  1  0  0  0  0
 16 26  1  0  0  0  0
 16 27  2  0  0  0  0
 16 28  1  0  0  0  0
 17 19  2  0  0  0  0
 17 33  1  0  0  0  0
 18 20  2  0  0  0  0
 18 34  1  0  0  0  0
 19 46  1  0  0  0  0
 20 35  1  0  0  0  0
 21 78  1  0  0  0  0
 22 79  1  0  0  0  0
 23 25  2  0  0  0  0
 23 78  1  0  0  0  0
 24 80  1  0  0  0  0
 25 81  1  0  0  0  0
 26 62  2  0  0  0  0
 27 63  1  0  0  0  0
 27 66  1  0  0  0  0
 28 67  1  0  0  0  0
 28 73  2  0  0  0  0
 29 47  1  0  0  0  0
 29 68  1  0  0  0  0
 29 74  2  0  0  0  0
 30 58  1  0  0  0  0
 30 64  1  0  0  0  0
 30 75  2  0  0  0  0
 31 59  1  0  0  0  0
 31 69  1  0  0  0  0
 31 76  2  0  0  0  0
 32 65  1  0  0  0  0
 32 70  1  0  0  0  0
 32 77  2  0  0  0  0
 33 36  1  0  0  0  0
 34 47  1  0  0  0  0
 35 64  1  0  0  0  0
 36 38  1  0  0  0  0
 37 39  1  0  0  0  0
 37 42  1  0  0  0  0
 38 46  1  0  0  0  0
 39 48  1  0  0  0  0
 40 44  1  0  0  0  0
 40 49  1  0  0  0  0
 41 45  1  0  0  0  0
 41 49  1  0  0  0  0
 42 65  1  0  0  0  0
 43 48  1  0  0  0  0
 43 65  1  0  0  0  0
 44 71  1  0  0  0  0
 45 71  1  0  0  0  0
 46 68  1  0  0  0  0
 47 64  1  0  0  0  0
 48 63  1  0  0  0  0
 49 70  1  0  0  0  0
 50 59  1  0  0  0  0
 51 60  1  0  0  0  0
 52 61  1  0  0  0  0
 53 61  1  0  0  0  0
 54 61  1  0  0  0  0
 55 72  1  0  0  0  0
 56 60  1  0  0  0  0
 56 71  1  0  0  0  0
 57 60  1  0  0  0  0
 57 79  1  0  0  0  0
 58 61  1  0  0  0  0
 58 69  1  0  0  0  0
 59 72  1  0  0  0  0
 62 63  1  0  0  0  0
M  CHG  2  71   1  72   1
M  ISO  4  32 100  57 101  70 100  79 101
M  END
> <Batch ID>
0107

> <Smiles>
CNC(C)C(=O)NC(C(=O)N1Cc2cc([101O:1][101CH2:1]C(C)CN3CCC([100NH:0][100C:0](=O)N4CCCC(n5nc(-c6ccc(Oc7ccc(F)cc7F)cc6)c(C(N)=O)c5N)C4)CC3)ccc2CC1C(=O)NC1CCCc2ccccc21)C(C)(C)C

> <Shape>
0.289

> <Color>
0.075

> <Negative vol penalty>
0.000

$$$$

  -OEChem-04052319513D

 89 98  0     1  0  0  0  0  0999 V2000
  -17.9361  -29.2572   24.8784 C   0  0  0  0  0  0  0  0  0  0  0  0
  -19.0952  -28.5280   24.6331 C   0  0  0  0  0  0  0  0  0  0  0  0
  -23.0014   -9.8985   20.2803 C   0  0  0  0  0  0  0  0  0  0  0  0
  -23.6305  -10.2646   22.5841 C   0  0  0  0  0  0  0  0  0  0  0  0
  -16.7657  -28.9589   24.1819 C   0  0  0  0  0  0  0  0  0  0  0  0
  -19.0843  -27.4993   23.6918 C   0  0  0  0  0  0  0  0  0  0  0  0
  -23.6678  -25.8619   19.9748 C   0  0  0  0  0  0  0  0  0  0  0  0
  -22.2083   -8.8188   20.6685 C   0  0  0  0  0  0  0  0  0  0  0  0
  -22.8374   -9.1848   22.9723 C   0  0  0  0  0  0  0  0  0  0  0  0
  -24.6226  -24.8490   20.0530 C   0  0  0  0  0  0  0  0  0  0  0  0
  -19.1590   -8.3366   22.0477 C   0  0  0  0  0  0  0  0  0  0  0  0
  -17.8808   -8.2405   21.4977 C   0  0  0  0  0  0  0  0  0  0  0  0
  -23.2372  -23.4442   18.6651 C   0  0  0  0  0  0  0  0  0  0  0  0
  -18.4520   -6.0949   20.5451 C   0  0  0  0  0  0  0  0  0  0  0  0
  -23.7126  -10.6214   21.2381 C   0  0  0  0  0  0  0  0  0  0  0  0
  -24.1409  -13.0845   20.7307 C   0  0  0  0  0  0  0  0  0  0  0  0
  -16.7430  -27.9324   23.2246 C   0  0  0  0  0  0  0  0  0  0  0  0
  -22.4835  -25.6692   19.2489 C   0  0  0  0  0  0  0  0  0  0  0  0
  -17.9122  -27.1861   22.9827 C   0  0  0  0  0  0  0  0  0  0  0  0
  -22.2701  -24.4571   18.5771 C   0  0  0  0  0  0  0  0  0  0  0  0
  -27.9833  -21.1610   19.0080 C   0  0  0  0  0  0  0  0  0  0  0  0
  -27.4187  -21.7239   20.1782 C   0  0  0  0  0  0  0  0  0  0  0  0
  -22.1262   -8.4619   22.0144 C   0  0  0  0  0  0  0  0  0  0  0  0
  -24.4061  -23.6389   19.4005 C   0  0  0  0  0  0  0  0  0  0  0  0
  -20.0838   -7.3119   21.8463 C   0  0  0  0  0  0  0  0  0  0  0  0
  -17.5272   -7.1196   20.7465 C   0  0  0  0  0  0  0  0  0  0  0  0
  -19.7303   -6.1911   21.0950 C   0  0  0  0  0  0  0  0  0  0  0  0
  -24.5326  -11.7365   20.8377 C   0  0  0  0  0  0  0  0  0  0  0  0
  -28.7488  -20.0832   19.3984 C   0  0  0  0  0  0  0  0  0  0  0  0
  -27.8529  -20.9772   21.2522 C   0  0  0  0  0  0  0  0  0  0  0  0
  -25.2752  -13.7398   20.3177 C   0  0  0  0  0  0  0  0  0  0  0  0
  -29.5502  -19.1291   18.7099 C   0  0  0  0  0  0  0  0  0  0  0  0
  -30.1898  -18.1698   19.4061 C   0  0  0  0  0  0  0  0  0  0  0  0
  -29.3273  -18.9802   21.5082 C   0  0  0  0  0  0  0  0  0  0  0  0
  -30.0864  -18.0757   20.8608 C   0  0  0  0  0  0  0  0  0  0  0  0
  -22.8659  -13.6901   20.9822 C   0  0  0  0  0  0  0  0  0  0  0  0
  -19.3891  -25.6298   19.9745 C   0  0  0  0  0  0  0  0  0  0  0  0
  -19.0370  -25.3893   16.7588 C   0  0  0  0  0  0  0  0  0  0  0  0
  -20.3837  -24.4843   13.7565 C   0  0  0  0  0  0  0  0  0  0  0  0
  -30.7692  -14.6539   20.6715 C   0  0  0  0  0  0  0  0  0  0  0  0
  -15.4419  -27.6155   22.5308 C   0  0  0  0  0  0  0  0  0  0  0  0
  -21.4756  -26.7815   19.1522 C   0  0  0  0  0  0  0  0  0  0  0  0
  -21.0246  -24.2075   17.7679 C   0  0  0  0  0  0  0  0  0  0  0  0
  -15.6120  -26.7571   21.2799 C   0  0  0  0  0  0  0  0  0  0  0  0
  -29.6927  -11.9361   18.6389 C   0  0  0  0  0  0  0  0  0  0  0  0
  -16.5486  -25.5860   21.5594 C   0  0  0  0  0  0  0  0  0  0  0  0
  -28.2245  -11.7494   19.0254 C   0  0  0  0  0  0  0  0  0  0  0  0
  -30.5472  -12.3305   19.8415 C   0  0  0  0  0  0  0  0  0  0  0  0
  -28.5945  -13.3211   20.9726 C   0  0  0  0  0  0  0  0  0  0  0  0
  -17.9467  -26.0792   21.9514 C   0  0  1  0  0  0  0  0  0  0  0  0
  -20.0730  -26.2886   18.8101 C   0  0  1  0  0  0  0  0  0  0  0  0
  -27.6833  -12.9774   19.7819 C   0  0  2  0  0  0  0  0  0  0  0  0
  -26.5218  -20.1424   23.2061 C   0  0  0  0  0  0  0  0  0  0  0  0
  -19.8420  -24.3698   11.3089 C   0  0  0  0  0  0  0  0  0  0  0  0
  -25.5425  -20.2975   14.7013 C   0  0  0  0  0  0  0  0  0  0  0  0
  -25.9982  -22.6734   15.3399 C   0  0  0  0  0  0  0  0  0  0  0  0
  -17.3163  -22.9194   17.2577 C   0  0  0  0  0  0  0  0  0  0  0  0
  -17.6005  -22.3196   14.8436 C   0  0  0  0  0  0  0  0  0  0  0  0
  -16.4576  -24.4459   15.4725 C   0  0  0  0  0  0  0  0  0  0  0  0
  -22.5787  -26.3452   13.0651 C   0  0  0  0  0  0  0  0  0  0  0  0
  -27.7873  -21.6414   17.6241 C   0  0  0  0  0  0  0  0  0  0  0  0
  -26.5107  -22.9169   20.2404 C   0  0  0  0  0  0  0  0  0  1  0  0
  -27.5545  -21.1486   22.6924 C   0  0  0  0  0  0  0  0  0  0  0  0
  -30.8336  -16.9762   21.5445 C   0  0  0  0  0  0  0  0  0  0  0  0
  -26.7976  -20.7614   16.8279 C   0  0  0  0  0  0  0  0  0  0  0  0
  -18.9599  -24.2476   15.7742 C   0  0  1  0  0  0  0  0  0  0  0  0
  -20.4499  -25.2072   12.4233 C   0  0  2  0  0  0  0  0  0  0  0  0
  -26.5324  -21.2412   15.3887 C   0  0  0  0  0  0  0  0  0  0  0  0
  -17.6063  -23.4868   15.8537 C   0  0  0  0  0  0  0  0  0  0  0  0
  -25.8153  -11.5453   20.5183 N   0  0  0  0  0  0  0  0  0  0  0  0
  -28.6672  -19.9718   20.7817 N   0  0  0  0  0  0  0  0  0  0  0  0
  -26.2395  -12.7818   20.2065 N   0  0  0  0  0  0  0  0  0  0  0  0
  -20.0660  -25.3234   17.7089 N   0  0  0  0  0  0  0  0  0  0  0  0
  -29.9806  -13.5023   20.5136 N   0  0  0  0  0  0  0  0  0  0  0  0
  -25.5316  -15.0363   20.0424 N   0  0  0  0  0  0  0  0  0  0  0  0
  -21.8081  -12.8712   21.4004 N   0  0  0  0  0  0  0  0  0  0  0  0
  -18.6807  -26.5025   20.7782 N   0  0  0  0  0  0  0  0  0  0  0  0
  -19.2480  -24.8191   14.4632 N   0  0  0  0  0  0  0  0  0  0  0  0
  -30.1534  -15.7213   21.3135 N   0  0  0  0  0  0  0  0  0  0  0  0
  -21.8653  -25.5078   12.0667 N   0  3  0  0  0  0  0  0  0  0  0  0
  -22.6661  -14.9184   20.8244 O   0  0  0  0  0  0  0  0  0  0  0  0
  -19.4950  -24.4190   20.1313 O   0  0  0  0  0  0  0  0  0  0  0  0
  -18.2189  -26.3094   16.6832 O   0  0  0  0  0  0  0  0  0  0  0  0
  -21.2507  -23.6982   14.1317 O   0  0  0  0  0  0  0  0  0  0  0  0
  -31.9340  -14.7273   20.2654 O   0  0  0  0  0  0  0  0  0  0  0  0
  -21.3522   -7.4085   22.3936 O   0  0  0  0  0  0  0  0  0  0  0  0
  -25.3362  -22.6483   19.4757 O   0  0  0  0  0  0  0  0  0  1  0  0
  -16.2992   -7.0267   20.2197 F   0  0  0  0  0  0  0  0  0  0  0  0
  -20.6140   -5.2030   20.8991 F   0  0  0  0  0  0  0  0  0  0  0  0
  1  2  1  0  0  0  0
  1  5  2  0  0  0  0
  2  6  2  0  0  0  0
  3  8  2  0  0  0  0
  3 15  1  0  0  0  0
  4  9  1  0  0  0  0
  4 15  2  0  0  0  0
  5 17  1  0  0  0  0
  6 19  1  0  0  0  0
  7 10  2  0  0  0  0
  7 18  1  0  0  0  0
  8 23  1  0  0  0  0
  9 23  2  0  0  0  0
 10 24  1  0  0  0  0
 11 12  2  0  0  0  0
 11 25  1  0  0  0  0
 12 26  1  0  0  0  0
 13 20  1  0  0  0  0
 13 24  2  0  0  0  0
 14 26  2  0  0  0  0
 14 27  1  0  0  0  0
 15 28  1  0  0  0  0
 16 28  1  0  0  0  0
 16 31  2  0  0  0  0
 16 36  1  0  0  0  0
 17 19  2  0  0  0  0
 17 41  1  0  0  0  0
 18 20  2  0  0  0  0
 18 42  1  0  0  0  0
 19 50  1  0  0  0  0
 20 43  1  0  0  0  0
 21 22  1  0  0  0  0
 21 29  2  0  0  0  0
 21 61  1  0  0  0  0
 22 30  2  0  0  0  0
 22 62  1  0  0  0  0
 23 86  1  0  0  0  0
 24 87  1  0  0  0  0
 25 27  2  0  0  0  0
 25 86  1  0  0  0  0
 26 88  1  0  0  0  0
 27 89  1  0  0  0  0
 28 70  2  0  0  0  0
 29 32  1  0  0  0  0
 29 71  1  0  0  0  0
 30 63  1  0  0  0  0
 30 71  1  0  0  0  0
 31 72  1  0  0  0  0
 31 75  1  0  0  0  0
 32 33  2  0  0  0  0
 33 35  1  0  0  0  0
 34 35  2  0  0  0  0
 34 71  1  0  0  0  0
 35 64  1  0  0  0  0
 36 76  1  0  0  0  0
 36 81  2  0  0  0  0
 37 51  1  0  0  0  0
 37 77  1  0  0  0  0
 37 82  2  0  0  0  0
 38 66  1  0  0  0  0
 38 73  1  0  0  0  0
 38 83  2  0  0  0  0
 39 67  1  0  0  0  0
 39 78  1  0  0  0  0
 39 84  2  0  0  0  0
 40 74  1  0  0  0  0
 40 79  1  0  0  0  0
 40 85  2  0  0  0  0
 41 44  1  0  0  0  0
 42 51  1  0  0  0  0
 43 73  1  0  0  0  0
 44 46  1  0  0  0  0
 45 47  1  0  0  0  0
 45 48  1  0  0  0  0
 46 50  1  0  0  0  0
 47 52  1  0  0  0  0
 48 74  1  0  0  0  0
 49 52  1  0  0  0  0
 49 74  1  0  0  0  0
 50 77  1  0  0  0  0
 51 73  1  0  0  0  0
 52 72  1  0  0  0  0
 53 63  1  0  0  0  0
 54 67  1  0  0  0  0
 55 68  1  0  0  0  0
 56 68  1  0  0  0  0
 57 69  1  0  0  0  0
 58 69  1  0  0  0  0
 59 69  1  0  0  0  0
 60 80  1  0  0  0  0
 61 65  1  0  0  0  0
 62 87  1  0  0  0  0
 64 79  1  0  0  0  0
 65 68  1  0  0  0  0
 66 69  1  0  0  0  0
 66 78  1  0  0  0  0
 67 80  1  0  0  0  0
 70 72  1  0  0  0  0
M  CHG  1  80   1
M  ISO  4  40 100  62 101  79 100  87 101
M  END
> <Batch ID>
0107

> <Smiles>
CCc1c([101CH2:1][101O:1]c2ccc3c(c2)CN(C(=O)C(NC(=O)C(C)NC)C(C)(C)C)C(C(=O)NC2CCCc4ccccc42)C3)c(CCC(C)C)c2ccc(C[100NH:0][100C:0](=O)N3CCCC(n4nc(-c5ccc(Oc6ccc(F)cc6F)cc5)c(C(N)=O)c4N)C3)cn12

> <Shape>
0.236

> <Color>
0.167

> <Negative vol penalty>
0.000

$$$$

  -OEChem-04052319513D

 81 89  0     1  0  0  0  0  0999 V2000
  -18.1819  -32.8183   24.1504 C   0  0  0  0  0  0  0  0  0  0  0  0
  -19.4281  -33.0410   23.5735 C   0  0  0  0  0  0  0  0  0  0  0  0
  -24.4031  -13.5226   19.7045 C   0  0  0  0  0  0  0  0  0  0  0  0
  -26.0144  -13.9029   21.4640 C   0  0  0  0  0  0  0  0  0  0  0  0
  -17.8841  -31.5744   24.7052 C   0  0  0  0  0  0  0  0  0  0  0  0
  -20.3777  -32.0202   23.5522 C   0  0  0  0  0  0  0  0  0  0  0  0
  -25.7325  -29.4594   19.5415 C   0  0  0  0  0  0  0  0  0  0  0  0
  -24.4854  -12.1480   19.9262 C   0  0  0  0  0  0  0  0  0  0  0  0
  -26.0967  -12.5282   21.6858 C   0  0  0  0  0  0  0  0  0  0  0  0
  -27.0745  -29.0952   19.6420 C   0  0  0  0  0  0  0  0  0  0  0  0
  -24.0004   -8.5618   20.2718 C   0  0  0  0  0  0  0  0  0  0  0  0
  -22.8078   -7.8401   20.3194 C   0  0  0  0  0  0  0  0  0  0  0  0
  -26.4206  -26.9623   20.5599 C   0  0  0  0  0  0  0  0  0  0  0  0
  -22.0707   -9.1814   22.1888 C   0  0  0  0  0  0  0  0  0  0  0  0
  -25.1677  -14.4001   20.4733 C   0  0  0  0  0  0  0  0  0  0  0  0
  -24.2002  -16.7291   20.8571 C   0  0  0  0  0  0  0  0  0  0  0  0
  -18.8271  -30.5347   24.6820 C   0  0  0  0  0  0  0  0  0  0  0  0
  -24.7232  -28.5806   19.9603 C   0  0  0  0  0  0  0  0  0  0  0  0
  -20.0927  -30.7615   24.1084 C   0  0  0  0  0  0  0  0  0  0  0  0
  -25.0665  -27.3168   20.4612 C   0  0  0  0  0  0  0  0  0  0  0  0
  -25.3321  -11.6508   20.9168 C   0  0  0  0  0  0  0  0  0  0  0  0
  -27.4189  -27.8476   20.1540 C   0  0  0  0  0  0  0  0  0  0  0  0
  -24.2283   -9.5933   21.1827 C   0  0  0  0  0  0  0  0  0  0  0  0
  -21.8429   -8.1499   21.2779 C   0  0  0  0  0  0  0  0  0  0  0  0
  -23.2634   -9.9031   22.1412 C   0  0  0  0  0  0  0  0  0  0  0  0
  -25.0835  -15.8202   20.2444 C   0  0  0  0  0  0  0  0  0  0  0  0
  -24.5196  -17.9447   20.3030 C   0  0  0  0  0  0  0  0  0  0  0  0
  -23.1822  -16.4956   21.8392 C   0  0  0  0  0  0  0  0  0  0  0  0
  -22.4511  -28.6692   22.1814 C   0  0  0  0  0  0  0  0  0  0  0  0
  -21.5399  -25.8767   20.8052 C   0  0  0  0  0  0  0  0  0  0  0  0
  -22.4024  -23.1413   18.9557 C   0  0  0  0  0  0  0  0  0  0  0  0
  -29.7678  -19.6271   17.6159 C   0  0  0  0  0  0  0  0  0  0  0  0
  -18.4764  -29.2219   25.3364 C   0  0  0  0  0  0  0  0  0  0  0  0
  -23.2793  -28.9781   19.8203 C   0  0  0  0  0  0  0  0  0  0  0  0
  -24.0200  -26.3289   20.9057 C   0  0  0  0  0  0  0  0  0  0  0  0
  -19.4037  -28.0763   24.9389 C   0  0  0  0  0  0  0  0  0  0  0  0
  -26.3020  -19.9131   16.3325 C   0  0  0  0  0  0  0  0  0  0  0  0
  -20.8616  -28.5184   25.0157 C   0  0  0  0  0  0  0  0  0  0  0  0
  -25.5448  -18.9095   17.2003 C   0  0  0  0  0  0  0  0  0  0  0  0
  -31.7385  -21.8751   19.3763 C   0  0  0  0  0  0  0  0  0  0  0  0
  -29.3798  -21.8988   20.2807 C   0  0  0  0  0  0  0  0  0  0  0  0
  -27.7693  -19.5288   16.1709 C   0  0  0  0  0  0  0  0  0  0  0  0
  -31.5891  -20.3784   19.1171 C   0  0  0  0  0  0  0  0  0  0  0  0
  -29.2674  -20.4017   19.9778 C   0  0  0  0  0  0  0  0  0  0  0  0
  -27.7264  -18.3241   18.3318 C   0  0  0  0  0  0  0  0  0  0  0  0
  -21.1404  -29.6714   24.0438 C   0  0  1  0  0  0  0  0  0  0  0  0
  -22.3537  -28.2059   20.7554 C   0  0  1  0  0  0  0  0  0  0  0  0
  -26.2549  -18.7076   18.5500 C   0  0  2  0  0  0  0  0  0  0  0  0
  -30.8316  -22.3028   20.5284 C   0  0  0  0  0  0  0  0  0  0  0  0
  -21.4527  -21.0126   18.0264 C   0  0  0  0  0  0  0  0  0  0  0  0
  -21.6586  -24.6149   23.5808 C   0  0  0  0  0  0  0  0  0  0  0  0
  -21.6445  -22.3652   22.4823 C   0  0  0  0  0  0  0  0  0  0  0  0
  -19.7023  -23.9040   22.1943 C   0  0  0  0  0  0  0  0  0  0  0  0
  -22.9544  -23.9749   16.1702 C   0  0  0  0  0  0  0  0  0  0  0  0
  -32.0929  -24.2158   21.5030 C   0  0  0  0  0  0  0  0  0  0  0  0
  -30.4323  -25.9483   19.5530 C   0  0  0  0  0  0  0  0  0  0  0  0
  -30.8594  -24.5012   19.3588 C   0  0  0  0  0  0  0  0  0  0  0  0
  -29.0334  -26.1015   20.1374 C   0  0  0  0  0  0  0  0  0  1  0  0
  -21.8785  -24.4207   21.0156 C   0  0  1  0  0  0  0  0  0  0  0  0
  -21.7370  -22.4827   17.7608 C   0  0  2  0  0  0  0  0  0  0  0  0
  -21.2410  -23.8453   22.3118 C   0  0  0  0  0  0  0  0  0  0  0  0
  -25.9025  -16.4080   19.3681 N   0  0  0  0  0  0  0  0  0  0  0  0
  -25.5350  -17.6994   19.4261 N   0  0  0  0  0  0  0  0  0  0  0  0
  -22.6224  -26.7664   20.7549 N   0  0  0  0  0  0  0  0  0  0  0  0
  -28.4108  -19.2957   17.4650 N   0  0  0  0  0  0  0  0  0  0  0  0
  -30.1871  -20.0181   18.8965 N   0  0  0  0  0  0  0  0  0  0  0  0
  -24.0281  -19.1887   20.4853 N   0  0  0  0  0  0  0  0  0  0  0  0
  -22.9863  -15.1867   22.3004 N   0  0  0  0  0  0  0  0  0  0  0  0
  -21.2696  -29.1725   22.6915 N   0  0  0  0  0  0  0  0  0  0  0  0
  -21.4793  -23.7283   19.7951 N   0  0  0  0  0  0  0  0  0  0  0  0
  -22.6136  -22.5824   16.5597 N   0  3  0  0  0  0  0  0  0  0  0  0
  -30.9056  -23.7788   20.6819 N   0  3  1  0  0  0  0  0  0  0  0  0
  -22.4562  -17.4177   22.2823 O   0  0  0  0  0  0  0  0  0  0  0  0
  -23.5188  -28.5757   22.7755 O   0  0  0  0  0  0  0  0  0  0  0  0
  -20.3590  -26.2114   20.6826 O   0  0  0  0  0  0  0  0  0  0  0  0
  -23.6191  -23.1326   19.1292 O   0  0  0  0  0  0  0  0  0  0  0  0
  -30.5552  -19.5782   16.6626 O   0  0  0  0  0  0  0  0  0  0  0  0
  -25.4125  -10.3095   21.1336 O   0  0  0  0  0  0  0  0  0  0  0  0
  -28.7372  -27.4874   20.2545 O   0  0  0  0  0  0  0  0  0  1  0  0
  -20.6970   -7.4577   21.3225 F   0  0  0  0  0  0  0  0  0  0  0  0
  -23.4761  -10.8938   23.0182 F   0  0  0  0  0  0  0  0  0  0  0  0
  1  2  1  0  0  0  0
  1  5  2  0  0  0  0
  2  6  2  0  0  0  0
  3  8  2  0  0  0  0
  3 15  1  0  0  0  0
  4  9  1  0  0  0  0
  4 15  2  0  0  0  0
  5 17  1  0  0  0  0
  6 19  1  0  0  0  0
  7 10  2  0  0  0  0
  7 18  1  0  0  0  0
  8 21  1  0  0  0  0
  9 21  2  0  0  0  0
 10 22  1  0  0  0  0
 11 12  2  0  0  0  0
 11 23  1  0  0  0  0
 12 24  1  0  0  0  0
 13 20  1  0  0  0  0
 13 22  2  0  0  0  0
 14 24  2  0  0  0  0
 14 25  1  0  0  0  0
 15 26  1  0  0  0  0
 16 26  1  0  0  0  0
 16 27  2  0  0  0  0
 16 28  1  0  0  0  0
 17 19  2  0  0  0  0
 17 33  1  0  0  0  0
 18 20  2  0  0  0  0
 18 34  1  0  0  0  0
 19 46  1  0  0  0  0
 20 35  1  0  0  0  0
 21 78  1  0  0  0  0
 22 79  1  0  0  0  0
 23 25  2  0  0  0  0
 23 78  1  0  0  0  0
 24 80  1  0  0  0  0
 25 81  1  0  0  0  0
 26 62  2  0  0  0  0
 27 63  1  0  0  0  0
 27 67  1  0  0  0  0
 28 68  1  0  0  0  0
 28 73  2  0  0  0  0
 29 47  1  0  0  0  0
 29 69  1  0  0  0  0
 29 74  2  0  0  0  0
 30 59  1  0  0  0  0
 30 64  1  0  0  0  0
 30 75  2  0  0  0  0
 31 60  1  0  0  0  0
 31 70  1  0  0  0  0
 31 76  2  0  0  0  0
 32 65  1  0  0  0  0
 32 66  1  0  0  0  0
 32 77  2  0  0  0  0
 33 36  1  0  0  0  0
 34 47  1  0  0  0  0
 35 64  1  0  0  0  0
 36 38  1  0  0  0  0
 37 39  1  0  0  0  0
 37 42  1  0  0  0  0
 38 46  1  0  0  0  0
 39 48  1  0  0  0  0
 40 43  1  0  0  0  0
 40 49  1  0  0  0  0
 41 44  1  0  0  0  0
 41 49  1  0  0  0  0
 42 65  1  0  0  0  0
 43 66  1  0  0  0  0
 44 66  1  0  0  0  0
 45 48  1  0  0  0  0
 45 65  1  0  0  0  0
 46 69  1  0  0  0  0
 47 64  1  0  0  0  0
 48 63  1  0  0  0  0
 49 72  1  0  0  0  0
 50 60  1  0  0  0  0
 51 61  1  0  0  0  0
 52 61  1  0  0  0  0
 53 61  1  0  0  0  0
 54 71  1  0  0  0  0
 55 72  1  0  0  0  0
 56 57  1  0  0  0  0
 56 58  1  0  0  0  0
 57 72  1  0  0  0  0
 58 79  1  0  0  0  0
 59 61  1  0  0  0  0
 59 70  1  0  0  0  0
 60 71  1  0  0  0  0
 62 63  1  0  0  0  0
M  CHG  2  71   1  72   1
M  ISO  4  32 100  58 101  66 100  79 101
M  END
> <Batch ID>
0107

> <Smiles>
CNC(C)C(=O)NC(C(=O)N1Cc2cc([101O:1][101CH2:1]CCN(C)C3CC[100N:0]([100C:0](=O)N4CCCC(n5nc(-c6ccc(Oc7ccc(F)cc7F)cc6)c(C(N)=O)c5N)C4)CC3)ccc2CC1C(=O)NC1CCCc2ccccc21)C(C)(C)C

> <Shape>
0.211

> <Color>
0.098

> <Negative vol penalty>
0.000

$$$$

  -OEChem-04052319513D

 88 96  0     1  0  0  0  0  0999 V2000
  -33.7880  -32.5359   15.0645 C   0  0  0  0  0  0  0  0  0  0  0  0
  -33.9482  -31.7462   16.1986 C   0  0  0  0  0  0  0  0  0  0  0  0
  -23.0005   -9.8994   19.9769 C   0  0  0  0  0  0  0  0  0  0  0  0
  -23.7342   -9.9385   22.2785 C   0  0  0  0  0  0  0  0  0  0  0  0
  -32.5225  -32.6977   14.5022 C   0  0  0  0  0  0  0  0  0  0  0  0
  -32.8426  -31.1187   16.7717 C   0  0  0  0  0  0  0  0  0  0  0  0
  -32.7293  -25.6464   19.5188 C   0  0  0  0  0  0  0  0  0  0  0  0
  -30.7131  -21.2159   19.8390 C   0  0  0  0  0  0  0  0  0  0  0  0
  -22.2353   -8.7633   20.2401 C   0  0  0  0  0  0  0  0  0  0  0  0
  -22.9689   -8.8024   22.5417 C   0  0  0  0  0  0  0  0  0  0  0  0
  -32.7724  -25.2692   20.8603 C   0  0  0  0  0  0  0  0  0  0  0  0
  -23.2125   -5.4661   22.0514 C   0  0  0  0  0  0  0  0  0  0  0  0
  -30.8547  -22.0551   18.7339 C   0  0  0  0  0  0  0  0  0  0  0  0
  -23.8032   -4.4451   22.7960 C   0  0  0  0  0  0  0  0  0  0  0  0
  -30.3641  -25.1327   20.8929 C   0  0  0  0  0  0  0  0  0  0  0  0
  -32.8180  -20.8239   18.0506 C   0  0  0  0  0  0  0  0  0  0  0  0
  -22.0854   -4.6787   24.4789 C   0  0  0  0  0  0  0  0  0  0  0  0
  -23.7500  -10.4870   20.9961 C   0  0  0  0  0  0  0  0  0  0  0  0
  -24.1339  -13.0036   20.8318 C   0  0  0  0  0  0  0  0  0  0  0  0
  -31.4024  -32.0640   15.0630 C   0  0  0  0  0  0  0  0  0  0  0  0
  -31.5008  -25.7804   18.8561 C   0  0  0  0  0  0  0  0  0  0  0  0
  -31.5607  -31.2733   16.2172 C   0  0  0  0  0  0  0  0  0  0  0  0
  -30.3084  -25.5092   19.5422 C   0  0  0  0  0  0  0  0  0  0  0  0
  -31.6239  -20.1807   20.0500 C   0  0  0  0  0  0  0  0  0  0  0  0
  -32.6763  -19.9847   19.1558 C   0  0  0  0  0  0  0  0  0  0  0  0
  -22.2195   -8.2148   21.5225 C   0  0  0  0  0  0  0  0  0  0  0  0
  -31.5895  -25.0151   21.5484 C   0  0  0  0  0  0  0  0  0  0  0  0
  -22.0584   -6.0934   22.5206 C   0  0  0  0  0  0  0  0  0  0  0  0
  -31.9071  -21.8591   17.8397 C   0  0  0  0  0  0  0  0  0  0  0  0
  -23.2396   -4.0514   24.0097 C   0  0  0  0  0  0  0  0  0  0  0  0
  -21.4948   -5.6997   23.7342 C   0  0  0  0  0  0  0  0  0  0  0  0
  -24.5411  -11.6603   20.7247 C   0  0  0  0  0  0  0  0  0  0  0  0
  -25.2421  -13.7285   20.4671 C   0  0  0  0  0  0  0  0  0  0  0  0
  -22.8672  -13.5476   21.2259 C   0  0  0  0  0  0  0  0  0  0  0  0
  -29.9608  -28.1790   17.4494 C   0  0  0  0  0  0  0  0  0  0  0  0
  -27.8861  -25.8344   16.6003 C   0  0  0  0  0  0  0  0  0  0  0  0
  -26.5863  -22.7444   17.2400 C   0  0  0  0  0  0  0  0  0  0  0  0
  -30.7390  -14.6635   20.7003 C   0  0  0  0  0  0  0  0  0  0  0  0
  -30.0471  -32.3068   14.4475 C   0  0  0  0  0  0  0  0  0  0  0  0
  -31.4727  -26.1621   17.4015 C   0  0  0  0  0  0  0  0  0  0  0  0
  -28.9646  -25.6190   18.8709 C   0  0  0  0  0  0  0  0  0  0  0  0
  -28.9861  -31.3050   14.8961 C   0  0  0  0  0  0  0  0  0  0  0  0
  -29.5904  -12.2518   18.3464 C   0  0  0  0  0  0  0  0  0  0  0  0
  -29.0339  -31.1186   16.4093 C   0  0  0  0  0  0  0  0  0  0  0  0
  -28.1436  -11.9894   18.7679 C   0  0  0  0  0  0  0  0  0  0  0  0
  -30.4972  -12.4811   19.5535 C   0  0  0  0  0  0  0  0  0  0  0  0
  -28.5918  -13.2690   20.9034 C   0  0  0  0  0  0  0  0  0  0  0  0
  -30.3897  -30.5563   16.8533 C   0  0  1  0  0  0  0  0  0  0  0  0
  -30.1410  -26.7671   16.9681 C   0  0  1  0  0  0  0  0  0  0  0  0
  -27.6285  -13.0873   19.7180 C   0  0  2  0  0  0  0  0  0  0  0  0
  -33.6650  -18.8844   19.3617 C   0  0  0  0  0  0  0  0  0  0  0  0
  -25.2144  -20.6748   16.8773 C   0  0  0  0  0  0  0  0  0  0  0  0
  -29.0908  -18.3255   20.8424 C   0  0  0  0  0  0  0  0  0  0  0  0
  -25.6631  -27.5328   17.8183 C   0  0  0  0  0  0  0  0  0  0  0  0
  -24.2004  -25.5009   17.8083 C   0  0  0  0  0  0  0  0  0  0  0  0
  -25.0643  -26.4243   15.6580 C   0  0  0  0  0  0  0  0  0  0  0  0
  -28.7398  -21.4511   15.6751 C   0  0  0  0  0  0  0  0  0  0  0  0
  -32.3634  -22.9864   24.4247 C   0  0  0  0  0  0  0  0  0  0  0  0
  -30.8255  -16.8362   21.8965 C   0  0  0  0  0  0  0  0  0  0  0  0
  -31.3154  -21.9612   24.0184 C   0  0  0  0  0  0  0  0  0  0  0  0
  -30.8640  -20.0633   22.4587 C   0  0  0  0  0  0  0  0  0  0  0  0
  -32.7769  -23.9213   23.2947 C   0  0  0  0  0  0  0  0  0  1  0  0
  -31.4485  -19.2764   21.2670 C   0  0  1  0  0  0  0  0  0  0  0  0
  -26.6512  -25.2243   17.2181 C   0  0  1  0  0  0  0  0  0  0  0  0
  -26.3332  -21.5513   16.3363 C   0  0  2  0  0  0  0  0  0  0  0  0
  -30.5931  -18.0110   20.9206 C   0  0  2  0  0  0  0  0  0  0  0  0
  -25.4198  -26.1703   17.1392 C   0  0  0  0  0  0  0  0  0  0  0  0
  -25.8089  -11.5363   20.3232 N   0  0  0  0  0  0  0  0  0  0  0  0
  -26.2080  -12.8110   20.1747 N   0  0  0  0  0  0  0  0  0  0  0  0
  -28.9892  -26.0016   17.4495 N   0  0  0  0  0  0  0  0  0  0  0  0
  -29.9533  -13.5352   20.4131 N   0  0  0  0  0  0  0  0  0  0  0  0
  -25.4748  -15.0547   20.3711 N   0  0  0  0  0  0  0  0  0  0  0  0
  -21.8370  -12.6613   21.5686 N   0  0  0  0  0  0  0  0  0  0  0  0
  -30.4597  -29.1357   16.5861 N   0  0  0  0  0  0  0  0  0  0  0  0
  -26.4588  -23.9368   16.5595 N   0  0  0  0  0  0  0  0  0  0  0  0
  -30.1454  -15.6178   21.5173 N   0  0  0  0  0  0  0  0  0  0  0  0
  -27.5650  -20.7210   16.2173 N   0  3  0  0  0  0  0  0  0  0  0  0
  -31.8036  -21.1355   22.8891 N   0  3  0  0  0  0  0  0  0  0  0  0
  -22.6502  -14.7827   21.2569 O   0  0  0  0  0  0  0  0  0  0  0  0
  -29.4086  -28.3853   18.5238 O   0  0  0  0  0  0  0  0  0  0  0  0
  -27.8749  -26.1445   15.4064 O   0  0  0  0  0  0  0  0  0  0  0  0
  -26.8654  -22.6302   18.4315 O   0  0  0  0  0  0  0  0  0  0  0  0
  -31.8828  -14.8121   20.2567 O   0  0  0  0  0  0  0  0  0  0  0  0
  -21.4727   -7.1063   21.7798 O   0  0  0  0  0  0  0  0  0  0  0  0
  -31.6286  -24.6474   22.8580 O   0  0  0  0  0  0  0  0  0  1  0  0
  -32.0430  -22.6645   16.7781 F   0  0  0  0  0  0  0  0  0  0  0  0
  -23.8060   -3.0700   24.7239 F   0  0  0  0  0  0  0  0  0  0  0  0
  -20.3854   -6.2979   24.1895 F   0  0  0  0  0  0  0  0  0  0  0  0
  1  2  1  0  0  0  0
  1  5  2  0  0  0  0
  2  6  2  0  0  0  0
  3  9  2  0  0  0  0
  3 18  1  0  0  0  0
  4 10  1  0  0  0  0
  4 18  2  0  0  0  0
  5 20  1  0  0  0  0
  6 22  1  0  0  0  0
  7 11  2  0  0  0  0
  7 21  1  0  0  0  0
  8 13  2  0  0  0  0
  8 24  1  0  0  0  0
  9 26  1  0  0  0  0
 10 26  2  0  0  0  0
 11 27  1  0  0  0  0
 12 14  2  0  0  0  0
 12 28  1  0  0  0  0
 13 29  1  0  0  0  0
 14 30  1  0  0  0  0
 15 23  1  0  0  0  0
 15 27  2  0  0  0  0
 16 25  1  0  0  0  0
 16 29  2  0  0  0  0
 17 30  2  0  0  0  0
 17 31  1  0  0  0  0
 18 32  1  0  0  0  0
 19 32  1  0  0  0  0
 19 33  2  0  0  0  0
 19 34  1  0  0  0  0
 20 22  2  0  0  0  0
 20 39  1  0  0  0  0
 21 23  2  0  0  0  0
 21 40  1  0  0  0  0
 22 48  1  0  0  0  0
 23 41  1  0  0  0  0
 24 25  2  0  0  0  0
 24 63  1  0  0  0  0
 25 51  1  0  0  0  0
 26 84  1  0  0  0  0
 27 85  1  0  0  0  0
 28 31  2  0  0  0  0
 28 84  1  0  0  0  0
 29 86  1  0  0  0  0
 30 87  1  0  0  0  0
 31 88  1  0  0  0  0
 32 68  2  0  0  0  0
 33 69  1  0  0  0  0
 33 72  1  0  0  0  0
 34 73  1  0  0  0  0
 34 79  2  0  0  0  0
 35 49  1  0  0  0  0
 35 74  1  0  0  0  0
 35 80  2  0  0  0  0
 36 64  1  0  0  0  0
 36 70  1  0  0  0  0
 36 81  2  0  0  0  0
 37 65  1  0  0  0  0
 37 75  1  0  0  0  0
 37 82  2  0  0  0  0
 38 71  1  0  0  0  0
 38 76  1  0  0  0  0
 38 83  2  0  0  0  0
 39 42  1  0  0  0  0
 40 49  1  0  0  0  0
 41 70  1  0  0  0  0
 42 44  1  0  0  0  0
 43 45  1  0  0  0  0
 43 46  1  0  0  0  0
 44 48  1  0  0  0  0
 45 50  1  0  0  0  0
 46 71  1  0  0  0  0
 47 50  1  0  0  0  0
 47 71  1  0  0  0  0
 48 74  1  0  0  0  0
 49 70  1  0  0  0  0
 50 69  1  0  0  0  0
 52 65  1  0  0  0  0
 53 66  1  0  0  0  0
 54 67  1  0  0  0  0
 55 67  1  0  0  0  0
 56 67  1  0  0  0  0
 57 77  1  0  0  0  0
 58 60  1  0  0  0  0
 58 62  1  0  0  0  0
 59 66  1  0  0  0  0
 59 76  1  0  0  0  0
 60 78  1  0  0  0  0
 61 63  1  0  0  0  0
 61 78  1  0  0  0  0
 62 85  1  0  0  0  0
 63 66  1  0  0  0  0
 64 67  1  0  0  0  0
 64 75  1  0  0  0  0
 65 77  1  0  0  0  0
 68 69  1  0  0  0  0
M  CHG  2  77   1  78   1
M  ISO  4  38 100  62 101  76 100  85 101
M  END
> <Batch ID>
0107

> <Smiles>
CNC(C)C(=O)NC(C(=O)N1Cc2cc([101O:1][101CH2:1]CCNCC(c3ccc(F)cc3C)C(C)C[100NH:0][100C:0](=O)N3CCCC(n4nc(-c5ccc(Oc6ccc(F)cc6F)cc5)c(C(N)=O)c4N)C3)ccc2CC1C(=O)NC1CCCc2ccccc21)C(C)(C)C

> <Shape>
0.228

> <Color>
0.194

> <Negative vol penalty>
0.000

$$$$

  -OEChem-04052319513D

 87 95  0     1  0  0  0  0  0999 V2000
  -26.1981  -24.4473   16.7982 C   0  0  0  0  0  0  0  0  0  0  0  0
  -25.1323  -24.8426   17.6002 C   0  0  0  0  0  0  0  0  0  0  0  0
  -24.5208  -13.2814   19.7455 C   0  0  0  0  0  0  0  0  0  0  0  0
  -24.6532  -14.4702   21.8447 C   0  0  0  0  0  0  0  0  0  0  0  0
  -27.5041  -24.7617   17.1717 C   0  0  0  0  0  0  0  0  0  0  0  0
  -25.3720  -25.5515   18.7768 C   0  0  0  0  0  0  0  0  0  0  0  0
  -22.2355  -29.4863   19.3472 C   0  0  0  0  0  0  0  0  0  0  0  0
  -25.6953  -12.5972   20.0589 C   0  0  0  0  0  0  0  0  0  0  0  0
  -25.8276  -13.7859   22.1581 C   0  0  0  0  0  0  0  0  0  0  0  0
  -20.9411  -29.2104   19.7857 C   0  0  0  0  0  0  0  0  0  0  0  0
  -29.0195  -13.2074   20.0177 C   0  0  0  0  0  0  0  0  0  0  0  0
  -29.9860  -13.0892   19.0190 C   0  0  0  0  0  0  0  0  0  0  0  0
  -21.5672  -29.8593   22.0231 C   0  0  0  0  0  0  0  0  0  0  0  0
  -29.8226  -10.6821   19.1456 C   0  0  0  0  0  0  0  0  0  0  0  0
  -19.5381  -23.7854   20.8618 C   0  0  0  0  0  0  0  0  0  0  0  0
  -23.9998  -14.2179   20.6384 C   0  0  0  0  0  0  0  0  0  0  0  0
  -21.4688  -14.5359   20.6189 C   0  0  0  0  0  0  0  0  0  0  0  0
  -27.7593  -25.4833   18.3485 C   0  0  0  0  0  0  0  0  0  0  0  0
  -23.2100  -29.9411   20.2471 C   0  0  0  0  0  0  0  0  0  0  0  0
  -26.6827  -25.8747   19.1670 C   0  0  0  0  0  0  0  0  0  0  0  0
  -22.8725  -30.1426   21.5931 C   0  0  0  0  0  0  0  0  0  0  0  0
  -20.4028  -22.8783   21.4334 C   0  0  0  0  0  0  0  0  0  0  0  0
  -19.7124  -22.2491   22.4986 C   0  0  0  0  0  0  0  0  0  0  0  0
  -26.3486  -12.8495   21.2652 C   0  0  0  0  0  0  0  0  0  0  0  0
  -20.6076  -29.3941   21.1243 C   0  0  0  0  0  0  0  0  0  0  0  0
  -28.4545  -12.0629   20.5805 C   0  0  0  0  0  0  0  0  0  0  0  0
  -30.3875  -11.8266   18.5829 C   0  0  0  0  0  0  0  0  0  0  0  0
  -28.8561  -10.8002   20.1444 C   0  0  0  0  0  0  0  0  0  0  0  0
  -22.7870  -14.9254   20.3150 C   0  0  0  0  0  0  0  0  0  0  0  0
  -18.4467  -22.7906   22.5452 C   0  0  0  0  0  0  0  0  0  0  0  0
  -20.6863  -15.5390   20.1012 C   0  0  0  0  0  0  0  0  0  0  0  0
  -20.9940  -13.3715   21.3077 C   0  0  0  0  0  0  0  0  0  0  0  0
  -26.0041  -28.8302   21.2782 C   0  0  0  0  0  0  0  0  0  0  0  0
  -26.1592  -31.7099   22.7634 C   0  0  0  0  0  0  0  0  0  0  0  0
  -24.4988  -34.4025   24.0439 C   0  0  0  0  0  0  0  0  0  0  0  0
  -21.7260  -21.3111   18.8962 C   0  0  0  0  0  0  0  0  0  0  0  0
  -29.1909  -25.7587   18.7351 C   0  0  0  0  0  0  0  0  0  0  0  0
  -24.5946  -30.2597   19.7531 C   0  0  0  0  0  0  0  0  0  0  0  0
  -23.8766  -30.6484   22.5953 C   0  0  0  0  0  0  0  0  0  0  0  0
  -29.3360  -26.8380   19.8048 C   0  0  0  0  0  0  0  0  0  0  0  0
  -20.6189  -18.8133   16.6133 C   0  0  0  0  0  0  0  0  0  0  0  0
  -28.3475  -26.5992   20.9417 C   0  0  0  0  0  0  0  0  0  0  0  0
  -20.9301  -17.4985   17.3305 C   0  0  0  0  0  0  0  0  0  0  0  0
  -21.6885  -19.8696   16.8820 C   0  0  0  0  0  0  0  0  0  0  0  0
  -22.2774  -18.8060   19.0258 C   0  0  0  0  0  0  0  0  0  0  0  0
  -26.9007  -26.6667   20.4380 C   0  0  1  0  0  0  0  0  0  0  0  0
  -25.6455  -30.2277   20.8585 C   0  0  1  0  0  0  0  0  0  0  0  0
  -21.1980  -17.7276   18.8302 C   0  0  2  0  0  0  0  0  0  0  0  0
  -17.3161  -22.5030   23.4545 C   0  0  0  0  0  0  0  0  0  0  0  0
  -24.8935  -36.5798   25.2276 C   0  0  0  0  0  0  0  0  0  0  0  0
  -21.5494  -22.2483   25.1042 C   0  0  0  0  0  0  0  0  0  0  0  0
  -20.3900  -20.0296   25.3854 C   0  0  0  0  0  0  0  0  0  0  0  0
  -26.6687  -30.2001   25.3654 C   0  0  0  0  0  0  0  0  0  0  0  0
  -26.1103  -32.2988   26.6112 C   0  0  0  0  0  0  0  0  0  0  0  0
  -28.0636  -32.2533   25.0604 C   0  0  0  0  0  0  0  0  0  0  0  0
  -23.2966  -35.9569   21.8309 C   0  0  0  0  0  0  0  0  0  0  0  0
  -21.7921  -22.6212   21.0030 C   0  0  0  0  0  0  0  0  0  0  0  0
  -17.1784  -24.5347   21.2408 C   0  0  0  0  0  0  0  0  0  0  0  0
  -16.9613  -25.6859   22.2140 C   0  0  0  0  0  0  0  0  0  0  0  0
  -17.9606  -27.8247   23.0299 C   0  0  0  0  0  0  0  0  0  0  0  0
  -19.1986  -28.6910   22.9065 C   0  0  0  0  0  0  0  0  0  1  0  0
  -25.7226  -32.2455   24.1056 C   0  0  1  0  0  0  0  0  0  0  0  0
  -24.7227  -35.8950   23.8805 C   0  0  2  0  0  0  0  0  0  0  0  0
  -20.3157  -21.4209   24.7736 C   0  0  0  0  0  0  0  0  0  0  0  0
  -26.6227  -31.7380   25.2674 C   0  0  0  0  0  0  0  0  0  0  0  0
  -22.8427  -16.0854   19.6551 N   0  0  0  0  0  0  0  0  0  0  0  0
  -18.3520  -23.7232   21.5455 N   0  0  0  0  0  0  0  0  0  0  0  0
  -21.5498  -16.4333   19.5401 N   0  0  0  0  0  0  0  0  0  0  0  0
  -25.2187  -30.9396   22.0648 N   0  0  0  0  0  0  0  0  0  0  0  0
  -21.8933  -20.0400   18.3225 N   0  0  0  0  0  0  0  0  0  0  0  0
  -19.3508  -15.7343   20.0755 N   0  0  0  0  0  0  0  0  0  0  0  0
  -21.9334  -12.4417   21.7742 N   0  0  0  0  0  0  0  0  0  0  0  0
  -20.1991  -21.2940   23.3203 N   0  0  0  0  0  0  0  0  0  0  0  0
  -26.4934  -28.0431   20.2533 N   0  0  0  0  0  0  0  0  0  0  0  0
  -25.6817  -33.6977   23.9720 N   0  0  0  0  0  0  0  0  0  0  0  0
  -21.9330  -21.3838   20.2683 N   0  0  0  0  0  0  0  0  0  0  0  0
  -23.5649  -36.5189   23.1796 N   0  3  0  0  0  0  0  0  0  0  0  0
  -18.1075  -26.6329   22.1568 N   0  3  0  0  0  0  0  0  0  0  0  0
  -19.7721  -13.1536   21.4894 O   0  0  0  0  0  0  0  0  0  0  0  0
  -25.8497  -28.4917   22.4458 O   0  0  0  0  0  0  0  0  0  0  0  0
  -27.2904  -31.9716   22.3468 O   0  0  0  0  0  0  0  0  0  0  0  0
  -23.3862  -33.9114   24.2216 O   0  0  0  0  0  0  0  0  0  0  0  0
  -21.4100  -22.3064   18.2355 O   0  0  0  0  0  0  0  0  0  0  0  0
  -27.4945  -12.1818   21.5714 O   0  0  0  0  0  0  0  0  0  0  0  0
  -19.3451  -29.1250   21.5551 O   0  0  0  0  0  0  0  0  0  1  0  0
  -31.3145  -11.7133   17.6227 F   0  0  0  0  0  0  0  0  0  0  0  0
  -28.3161   -9.6971   20.6804 F   0  0  0  0  0  0  0  0  0  0  0  0
  1  2  1  0  0  0  0
  1  5  2  0  0  0  0
  2  6  2  0  0  0  0
  3  8  2  0  0  0  0
  3 16  1  0  0  0  0
  4  9  1  0  0  0  0
  4 16  2  0  0  0  0
  5 18  1  0  0  0  0
  6 20  1  0  0  0  0
  7 10  2  0  0  0  0
  7 19  1  0  0  0  0
  8 24  1  0  0  0  0
  9 24  2  0  0  0  0
 10 25  1  0  0  0  0
 11 12  2  0  0  0  0
 11 26  1  0  0  0  0
 12 27  1  0  0  0  0
 13 21  1  0  0  0  0
 13 25  2  0  0  0  0
 14 27  2  0  0  0  0
 14 28  1  0  0  0  0
 15 22  2  0  0  0  0
 15 67  1  0  0  0  0
 16 29  1  0  0  0  0
 17 29  1  0  0  0  0
 17 31  2  0  0  0  0
 17 32  1  0  0  0  0
 18 20  2  0  0  0  0
 18 37  1  0  0  0  0
 19 21  2  0  0  0  0
 19 38  1  0  0  0  0
 20 46  1  0  0  0  0
 21 39  1  0  0  0  0
 22 23  1  0  0  0  0
 22 57  1  0  0  0  0
 23 30  2  0  0  0  0
 23 73  1  0  0  0  0
 24 84  1  0  0  0  0
 25 85  1  0  0  0  0
 26 28  2  0  0  0  0
 26 84  1  0  0  0  0
 27 86  1  0  0  0  0
 28 87  1  0  0  0  0
 29 66  2  0  0  0  0
 30 49  1  0  0  0  0
 30 67  1  0  0  0  0
 31 68  1  0  0  0  0
 31 71  1  0  0  0  0
 32 72  1  0  0  0  0
 32 79  2  0  0  0  0
 33 47  1  0  0  0  0
 33 74  1  0  0  0  0
 33 80  2  0  0  0  0
 34 62  1  0  0  0  0
 34 69  1  0  0  0  0
 34 81  2  0  0  0  0
 35 63  1  0  0  0  0
 35 75  1  0  0  0  0
 35 82  2  0  0  0  0
 36 70  1  0  0  0  0
 36 76  1  0  0  0  0
 36 83  2  0  0  0  0
 37 40  1  0  0  0  0
 38 47  1  0  0  0  0
 39 69  1  0  0  0  0
 40 42  1  0  0  0  0
 41 43  1  0  0  0  0
 41 44  1  0  0  0  0
 42 46  1  0  0  0  0
 43 48  1  0  0  0  0
 44 70  1  0  0  0  0
 45 48  1  0  0  0  0
 45 70  1  0  0  0  0
 46 74  1  0  0  0  0
 47 69  1  0  0  0  0
 48 68  1  0  0  0  0
 50 63  1  0  0  0  0
 51 64  1  0  0  0  0
 52 64  1  0  0  0  0
 53 65  1  0  0  0  0
 54 65  1  0  0  0  0
 55 65  1  0  0  0  0
 56 77  1  0  0  0  0
 57 76  1  0  0  0  0
 58 59  1  0  0  0  0
 58 67  1  0  0  0  0
 59 78  1  0  0  0  0
 60 61  1  0  0  0  0
 60 78  1  0  0  0  0
 61 85  1  0  0  0  0
 62 65  1  0  0  0  0
 62 75  1  0  0  0  0
 63 77  1  0  0  0  0
 64 73  1  0  0  0  0
 66 68  1  0  0  0  0
M  CHG  2  77   1  78   1
M  ISO  4  36 100  61 101  76 100  85 101
M  END
> <Batch ID>
0107

> <Smiles>
CNC(C)C(=O)NC(C(=O)N1Cc2cc([101O:1][101CH2:1]CNCCn3cc(C[100NH:0][100C:0](=O)N4CCCC(n5nc(-c6ccc(Oc7ccc(F)cc7F)cc6)c(C(N)=O)c5N)C4)c(NC(C)C)c3C)ccc2CC1C(=O)NC1CCCc2ccccc21)C(C)(C)C

> <Shape>
0.278

> <Color>
0.079

> <Negative vol penalty>
0.000

$$$$

  -OEChem-04052319513D

 89 98  0     1  0  0  0  0  0999 V2000
  -18.0394  -30.6518   28.3773 C   0  0  0  0  0  0  0  0  0  0  0  0
  -18.5201  -29.4421   28.8681 C   0  0  0  0  0  0  0  0  0  0  0  0
  -23.1327   -9.8161   20.0956 C   0  0  0  0  0  0  0  0  0  0  0  0
  -23.7713  -10.0798   22.4107 C   0  0  0  0  0  0  0  0  0  0  0  0
  -17.9180  -30.8460   27.0020 C   0  0  0  0  0  0  0  0  0  0  0  0
  -18.8787  -28.4253   27.9838 C   0  0  0  0  0  0  0  0  0  0  0  0
  -23.5385  -23.0312   27.2724 C   0  0  0  0  0  0  0  0  0  0  0  0
  -22.3918   -8.6823   20.4290 C   0  0  0  0  0  0  0  0  0  0  0  0
  -23.0304   -8.9460   22.7442 C   0  0  0  0  0  0  0  0  0  0  0  0
  -23.5705  -21.6648   26.9972 C   0  0  0  0  0  0  0  0  0  0  0  0
  -19.7859   -8.1567   23.2640 C   0  0  0  0  0  0  0  0  0  0  0  0
  -18.9692   -8.2269   24.3926 C   0  0  0  0  0  0  0  0  0  0  0  0
  -23.3931  -22.1416   24.6392 C   0  0  0  0  0  0  0  0  0  0  0  0
  -30.3465  -19.0355   19.9448 C   0  0  0  0  0  0  0  0  0  0  0  0
  -20.1955   -6.4016   25.3934 C   0  0  0  0  0  0  0  0  0  0  0  0
  -28.3946  -19.8415   20.7260 C   0  0  0  0  0  0  0  0  0  0  0  0
  -23.8225  -10.5148   21.0864 C   0  0  0  0  0  0  0  0  0  0  0  0
  -24.1372  -13.0190   20.7153 C   0  0  0  0  0  0  0  0  0  0  0  0
  -18.2845  -29.8346   26.1001 C   0  0  0  0  0  0  0  0  0  0  0  0
  -23.4224  -23.9642   26.2320 C   0  0  0  0  0  0  0  0  0  0  0  0
  -18.7609  -28.6057   26.5951 C   0  0  0  0  0  0  0  0  0  0  0  0
  -23.3624  -23.5194   24.9036 C   0  0  0  0  0  0  0  0  0  0  0  0
  -29.3435  -20.0155   19.7429 C   0  0  0  0  0  0  0  0  0  0  0  0
  -22.3407   -8.2472   21.7533 C   0  0  0  0  0  0  0  0  0  0  0  0
  -23.4949  -21.2197   25.6807 C   0  0  0  0  0  0  0  0  0  0  0  0
  -20.8073   -7.2089   23.2000 C   0  0  0  0  0  0  0  0  0  0  0  0
  -19.1741   -7.3494   25.4573 C   0  0  0  0  0  0  0  0  0  0  0  0
  -21.0121   -6.3314   24.2647 C   0  0  0  0  0  0  0  0  0  0  0  0
  -24.5884  -11.6858   20.7424 C   0  0  0  0  0  0  0  0  0  0  0  0
  -29.9798  -18.2923   21.0451 C   0  0  0  0  0  0  0  0  0  0  0  0
  -25.2370  -13.7459   20.3300 C   0  0  0  0  0  0  0  0  0  0  0  0
  -22.8399  -13.5526   21.0119 C   0  0  0  0  0  0  0  0  0  0  0  0
  -21.2791  -26.1682   25.4244 C   0  0  0  0  0  0  0  0  0  0  0  0
  -23.4839  -26.9259   23.1690 C   0  0  0  0  0  0  0  0  0  0  0  0
  -26.1288  -25.9333   21.2542 C   0  0  0  0  0  0  0  0  0  0  0  0
  -30.6896  -14.8806   20.6861 C   0  0  0  0  0  0  0  0  0  0  0  0
  -18.0910  -30.0737   24.6236 C   0  0  0  0  0  0  0  0  0  0  0  0
  -23.4161  -25.4357   26.5435 C   0  0  0  0  0  0  0  0  0  0  0  0
  -23.2574  -24.4811   23.7492 C   0  0  0  0  0  0  0  0  0  0  0  0
  -18.8458  -29.0821   23.7420 C   0  0  0  0  0  0  0  0  0  0  0  0
  -29.7097  -12.2363   18.5127 C   0  0  0  0  0  0  0  0  0  0  0  0
  -18.6385  -27.6565   24.2436 C   0  0  0  0  0  0  0  0  0  0  0  0
  -28.2555  -11.9634   18.9011 C   0  0  0  0  0  0  0  0  0  0  0  0
  -26.6562  -17.7129   22.2648 C   0  0  0  0  0  0  0  0  0  0  0  0
  -30.5597  -12.5999   19.7281 C   0  0  0  0  0  0  0  0  0  0  0  0
  -28.5786  -13.4382   20.9307 C   0  0  0  0  0  0  0  0  0  0  0  0
  -25.8474  -17.1733   23.4340 C   0  0  0  0  0  0  0  0  0  0  0  0
  -26.9980  -18.7600   24.9898 C   0  0  0  0  0  0  0  0  0  0  0  0
  -19.1836  -27.4877   25.6669 C   0  0  1  0  0  0  0  0  0  0  0  0
  -22.7776  -26.2768   25.4426 C   0  0  1  0  0  0  0  0  0  0  0  0
  -27.8411  -19.3248   23.8393 C   0  0  2  0  0  0  0  0  0  0  0  0
  -27.6698  -13.1220   19.7306 C   0  0  2  0  0  0  0  0  0  0  0  0
  -28.0182  -18.2725   22.7142 C   0  0  2  0  0  0  0  0  0  0  0  0
  -29.1886  -19.7973   24.3983 C   0  0  0  0  0  0  0  0  0  0  0  0
  -29.3635  -22.4818   19.2226 C   0  0  0  0  0  0  0  0  0  0  0  0
  -28.1077  -20.8881   17.7266 C   0  0  0  0  0  0  0  0  0  0  0  0
  -27.6947  -26.7617   19.4768 C   0  0  0  0  0  0  0  0  0  0  0  0
  -21.2714  -26.6360   21.0879 C   0  0  0  0  0  0  0  0  0  0  0  0
  -23.0425  -26.5282   19.3217 C   0  0  0  0  0  0  0  0  0  0  0  0
  -22.8013  -28.5798   20.7200 C   0  0  0  0  0  0  0  0  0  0  0  0
  -28.4944  -25.5253   22.9851 C   0  0  0  0  0  0  0  0  0  0  0  0
  -30.6626  -17.1508   21.6884 C   0  0  0  0  0  0  0  0  0  0  0  0
  -24.7615  -17.8307   25.5764 C   0  0  0  0  0  0  0  0  0  0  0  0
  -24.2564  -19.0567   26.3112 C   0  0  0  0  0  0  0  0  0  1  0  0
  -29.3190  -21.0352   18.6770 C   0  0  0  0  0  0  0  0  0  0  0  0
  -23.7612  -26.4814   21.7532 C   0  0  1  0  0  0  0  0  0  0  0  0
  -27.4688  -26.5878   20.9706 C   0  0  2  0  0  0  0  0  0  0  0  0
  -22.7191  -27.0379   20.7424 C   0  0  0  0  0  0  0  0  0  0  0  0
  -25.8746  -11.5697   20.4014 N   0  0  0  0  0  0  0  0  0  0  0  0
  -28.7916  -18.7910   21.5115 N   0  0  0  0  0  0  0  0  0  0  0  0
  -26.2409  -12.8392   20.1562 N   0  0  0  0  0  0  0  0  0  0  0  0
  -23.2486  -25.9095   24.1056 N   0  0  0  0  0  0  0  0  0  0  0  0
  -29.9502  -13.7060   20.4703 N   0  0  0  0  0  0  0  0  0  0  0  0
  -25.4336  -15.0659   20.1261 N   0  0  0  0  0  0  0  0  0  0  0  0
  -21.8236  -12.6657   21.3925 N   0  0  0  0  0  0  0  0  0  0  0  0
  -20.6255  -27.3657   25.6447 N   0  0  0  0  0  0  0  0  0  0  0  0
  -25.1381  -26.8688   21.4660 N   0  0  0  0  0  0  0  0  0  0  0  0
  -30.0351  -15.8820   21.3929 N   0  0  0  0  0  0  0  0  0  0  0  0
  -25.6761  -18.2612   24.4623 N   0  3  2  0  0  0  0  0  0  0  0  0
  -28.5775  -25.7572   21.5201 N   0  3  0  0  0  0  0  0  0  0  0  0
  -22.5849  -14.7778   20.9257 O   0  0  0  0  0  0  0  0  0  0  0  0
  -20.7546  -25.0790   25.2238 O   0  0  0  0  0  0  0  0  0  0  0  0
  -23.4834  -28.1303   23.4355 O   0  0  0  0  0  0  0  0  0  0  0  0
  -25.9753  -24.7142   21.2811 O   0  0  0  0  0  0  0  0  0  0  0  0
  -31.8454  -15.0281   20.2745 O   0  0  0  0  0  0  0  0  0  0  0  0
  -21.6177   -7.1410   22.0791 O   0  0  0  0  0  0  0  0  0  0  0  0
  -23.5253  -19.8865   25.4094 O   0  0  0  0  0  0  0  0  0  1  0  0
  -18.3908   -7.4179   26.5417 F   0  0  0  0  0  0  0  0  0  0  0  0
  -21.9926   -5.4195   24.2095 F   0  0  0  0  0  0  0  0  0  0  0  0
  1  2  1  0  0  0  0
  1  5  2  0  0  0  0
  2  6  2  0  0  0  0
  3  8  2  0  0  0  0
  3 17  1  0  0  0  0
  4  9  1  0  0  0  0
  4 17  2  0  0  0  0
  5 19  1  0  0  0  0
  6 21  1  0  0  0  0
  7 10  2  0  0  0  0
  7 20  1  0  0  0  0
  8 24  1  0  0  0  0
  9 24  2  0  0  0  0
 10 25  1  0  0  0  0
 11 12  2  0  0  0  0
 11 26  1  0  0  0  0
 12 27  1  0  0  0  0
 13 22  1  0  0  0  0
 13 25  2  0  0  0  0
 14 23  1  0  0  0  0
 14 30  2  0  0  0  0
 15 27  2  0  0  0  0
 15 28  1  0  0  0  0
 16 23  2  0  0  0  0
 16 70  1  0  0  0  0
 17 29  1  0  0  0  0
 18 29  1  0  0  0  0
 18 31  2  0  0  0  0
 18 32  1  0  0  0  0
 19 21  2  0  0  0  0
 19 37  1  0  0  0  0
 20 22  2  0  0  0  0
 20 38  1  0  0  0  0
 21 49  1  0  0  0  0
 22 39  1  0  0  0  0
 23 65  1  0  0  0  0
 24 86  1  0  0  0  0
 25 87  1  0  0  0  0
 26 28  2  0  0  0  0
 26 86  1  0  0  0  0
 27 88  1  0  0  0  0
 28 89  1  0  0  0  0
 29 69  2  0  0  0  0
 30 62  1  0  0  0  0
 30 70  1  0  0  0  0
 31 71  1  0  0  0  0
 31 74  1  0  0  0  0
 32 75  1  0  0  0  0
 32 81  2  0  0  0  0
 33 50  1  0  0  0  0
 33 76  1  0  0  0  0
 33 82  2  0  0  0  0
 34 66  1  0  0  0  0
 34 72  1  0  0  0  0
 34 83  2  0  0  0  0
 35 67  1  0  0  0  0
 35 77  1  0  0  0  0
 35 84  2  0  0  0  0
 36 73  1  0  0  0  0
 36 78  1  0  0  0  0
 36 85  2  0  0  0  0
 37 40  1  0  0  0  0
 38 50  1  0  0  0  0
 39 72  1  0  0  0  0
 40 42  1  0  0  0  0
 41 43  1  0  0  0  0
 41 45  1  0  0  0  0
 42 49  1  0  0  0  0
 43 52  1  0  0  0  0
 44 47  1  0  0  0  0
 44 53  1  0  0  0  0
 45 73  1  0  0  0  0
 46 52  1  0  0  0  0
 46 73  1  0  0  0  0
 47 79  1  0  0  0  0
 48 51  1  0  0  0  0
 48 79  1  0  0  0  0
 49 76  1  0  0  0  0
 50 72  1  0  0  0  0
 51 53  1  0  0  0  0
 51 54  1  0  0  0  0
 52 71  1  0  0  0  0
 53 70  1  0  0  0  0
 55 65  1  0  0  0  0
 56 65  1  0  0  0  0
 57 67  1  0  0  0  0
 58 68  1  0  0  0  0
 59 68  1  0  0  0  0
 60 68  1  0  0  0  0
 61 80  1  0  0  0  0
 62 78  1  0  0  0  0
 63 64  1  0  0  0  0
 63 79  1  0  0  0  0
 64 87  1  0  0  0  0
 66 68  1  0  0  0  0
 66 77  1  0  0  0  0
 67 80  1  0  0  0  0
 69 71  1  0  0  0  0
M  CHG  2  79   1  80   1
M  ISO  4  36 100  64 101  78 100  87 101
M  END
> <Batch ID>
0107

> <Smiles>
CNC(C)C(=O)NC(C(=O)N1Cc2cc([101O:1][101CH2:1]CN3CCC(n4cc(C(C)C)cc4C[100NH:0][100C:0](=O)N4CCCC(n5nc(-c6ccc(Oc7ccc(F)cc7F)cc6)c(C(N)=O)c5N)C4)C(C)C3)ccc2CC1C(=O)NC1CCCc2ccccc21)C(C)(C)C

> <Shape>
0.245

> <Color>
0.189

> <Negative vol penalty>
0.000

$$$$

  -OEChem-04052319513D

 77 85  0     1  0  0  0  0  0999 V2000
  -25.5318  -30.7932   28.0607 C   0  0  0  0  0  0  0  0  0  0  0  0
  -25.3487  -29.4204   27.9293 C   0  0  0  0  0  0  0  0  0  0  0  0
  -22.6376  -10.2137   20.2313 C   0  0  0  0  0  0  0  0  0  0  0  0
  -24.2448   -9.5173   21.8953 C   0  0  0  0  0  0  0  0  0  0  0  0
  -25.7423  -31.5788   26.9283 C   0  0  0  0  0  0  0  0  0  0  0  0
  -25.3751  -28.8325   26.6651 C   0  0  0  0  0  0  0  0  0  0  0  0
  -30.1238  -23.6520   25.0829 C   0  0  0  0  0  0  0  0  0  0  0  0
  -21.8911   -9.0598   20.4692 C   0  0  0  0  0  0  0  0  0  0  0  0
  -23.4982   -8.3633   22.1333 C   0  0  0  0  0  0  0  0  0  0  0  0
  -30.8609  -22.5100   24.7688 C   0  0  0  0  0  0  0  0  0  0  0  0
  -23.0345   -5.3504   20.6710 C   0  0  0  0  0  0  0  0  0  0  0  0
  -23.7231   -4.1412   20.7660 C   0  0  0  0  0  0  0  0  0  0  0  0
  -29.9672  -22.5381   22.5220 C   0  0  0  0  0  0  0  0  0  0  0  0
  -22.8965   -3.8472   23.0171 C   0  0  0  0  0  0  0  0  0  0  0  0
  -23.8145  -10.4425   20.9443 C   0  0  0  0  0  0  0  0  0  0  0  0
  -24.1629  -12.9679   20.8515 C   0  0  0  0  0  0  0  0  0  0  0  0
  -25.7809  -30.9989   25.6504 C   0  0  0  0  0  0  0  0  0  0  0  0
  -29.3165  -24.2510   24.1120 C   0  0  0  0  0  0  0  0  0  0  0  0
  -25.5850  -29.6112   25.5144 C   0  0  0  0  0  0  0  0  0  0  0  0
  -29.2362  -23.6893   22.8271 C   0  0  0  0  0  0  0  0  0  0  0  0
  -22.3214   -8.1345   21.4203 C   0  0  0  0  0  0  0  0  0  0  0  0
  -30.7826  -21.9543   23.4916 C   0  0  0  0  0  0  0  0  0  0  0  0
  -22.2768   -5.8081   21.7491 C   0  0  0  0  0  0  0  0  0  0  0  0
  -23.6541   -3.3895   21.9390 C   0  0  0  0  0  0  0  0  0  0  0  0
  -22.2078   -5.0565   22.9221 C   0  0  0  0  0  0  0  0  0  0  0  0
  -24.5864  -11.6341   20.6985 C   0  0  0  0  0  0  0  0  0  0  0  0
  -25.2565  -13.7184   20.4949 C   0  0  0  0  0  0  0  0  0  0  0  0
  -22.8944  -13.4824   21.2780 C   0  0  0  0  0  0  0  0  0  0  0  0
  -26.9542  -27.0346   23.2475 C   0  0  0  0  0  0  0  0  0  0  0  0
  -28.7887  -26.6369   20.8212 C   0  0  0  0  0  0  0  0  0  0  0  0
  -30.6881  -27.0179   18.0133 C   0  0  0  0  0  0  0  0  0  0  0  0
  -30.7432  -14.7207   20.6863 C   0  0  0  0  0  0  0  0  0  0  0  0
  -25.9644  -31.8954   24.4516 C   0  0  0  0  0  0  0  0  0  0  0  0
  -28.4576  -25.4463   24.4239 C   0  0  0  0  0  0  0  0  0  0  0  0
  -28.3279  -24.3476   21.8248 C   0  0  0  0  0  0  0  0  0  0  0  0
  -26.3516  -31.1424   23.1814 C   0  0  0  0  0  0  0  0  0  0  0  0
  -29.5958  -12.3656   18.2752 C   0  0  0  0  0  0  0  0  0  0  0  0
  -25.4643  -29.9155   22.9967 C   0  0  0  0  0  0  0  0  0  0  0  0
  -28.1582  -12.0710   18.7070 C   0  0  0  0  0  0  0  0  0  0  0  0
  -30.3911  -17.2576   23.3611 C   0  0  0  0  0  0  0  0  0  0  0  0
  -30.5468  -17.9767   20.9392 C   0  0  0  0  0  0  0  0  0  0  0  0
  -31.0508  -18.5662   23.7878 C   0  0  0  0  0  0  0  0  0  0  0  0
  -31.2050  -19.2835   21.3735 C   0  0  0  0  0  0  0  0  0  0  0  0
  -30.5153  -12.5708   19.4770 C   0  0  0  0  0  0  0  0  0  0  0  0
  -28.6175  -13.2917   20.8744 C   0  0  0  0  0  0  0  0  0  0  0  0
  -25.6316  -28.9331   24.1623 C   0  0  1  0  0  0  0  0  0  0  0  0
  -28.3222  -26.4181   23.2380 C   0  0  1  0  0  0  0  0  0  0  0  0
  -27.6412  -13.1326   19.6964 C   0  0  2  0  0  0  0  0  0  0  0  0
  -30.8152  -16.8549   21.9458 C   0  0  0  0  0  0  0  0  0  0  0  0
  -30.7828  -19.6863   22.7853 C   0  0  0  0  0  0  0  0  0  1  0  0
  -30.5602  -27.8375   15.6449 C   0  0  0  0  0  0  0  0  0  0  0  0
  -27.2900  -24.1012   20.0286 C   0  0  0  0  0  0  0  0  0  0  0  0
  -28.0199  -24.4933   17.6660 C   0  0  0  0  0  0  0  0  0  0  0  0
  -26.5661  -26.1641   18.8140 C   0  0  0  0  0  0  0  0  0  0  0  0
  -32.7492  -29.0864   18.4952 C   0  0  0  0  0  0  0  0  0  0  0  0
  -28.9946  -25.9635   19.4880 C   0  0  1  0  0  0  0  0  0  0  0  0
  -30.8872  -28.2021   17.0846 C   0  0  2  0  0  0  0  0  0  0  0  0
  -27.7368  -25.1783   19.0200 C   0  0  0  0  0  0  0  0  0  0  0  0
  -25.8504  -11.5395   20.2773 N   0  0  0  0  0  0  0  0  0  0  0  0
  -26.2305  -12.8234   20.1625 N   0  0  0  0  0  0  0  0  0  0  0  0
  -28.4677  -25.8100   21.9046 N   0  0  0  0  0  0  0  0  0  0  0  0
  -29.9687  -13.5910   20.3751 N   0  0  0  0  0  0  0  0  0  0  0  0
  -25.4704  -15.0500   20.4362 N   0  0  0  0  0  0  0  0  0  0  0  0
  -22.6920  -13.7115   22.6457 N   0  0  0  0  0  0  0  0  0  0  0  0
  -26.8581  -28.1791   24.0157 N   0  0  0  0  0  0  0  0  0  0  0  0
  -29.4244  -27.0083   18.5649 N   0  0  0  0  0  0  0  0  0  0  0  0
  -30.1478  -15.6418   21.5394 N   0  0  0  0  0  0  0  0  0  0  0  0
  -32.3001  -28.6727   17.1409 N   0  3  0  0  0  0  0  0  0  0  0  0
  -21.9622  -13.7162   20.4718 O   0  0  0  0  0  0  0  0  0  0  0  0
  -26.0516  -26.5120   22.6041 O   0  0  0  0  0  0  0  0  0  0  0  0
  -28.9031  -27.8632   20.9015 O   0  0  0  0  0  0  0  0  0  0  0  0
  -31.5645  -26.1827   18.2250 O   0  0  0  0  0  0  0  0  0  0  0  0
  -31.8790  -14.8982   20.2329 O   0  0  0  0  0  0  0  0  0  0  0  0
  -21.5931   -7.0085   21.6529 O   0  0  0  0  0  0  0  0  0  0  0  0
  -31.5083  -20.8420   23.1903 O   0  0  0  0  0  0  0  0  0  1  0  0
  -24.3143   -2.2276   22.0296 F   0  0  0  0  0  0  0  0  0  0  0  0
  -21.4806   -5.4905   23.9607 F   0  0  0  0  0  0  0  0  0  0  0  0
  1  2  1  0  0  0  0
  1  5  2  0  0  0  0
  2  6  2  0  0  0  0
  3  8  2  0  0  0  0
  3 15  1  0  0  0  0
  4  9  1  0  0  0  0
  4 15  2  0  0  0  0
  5 17  1  0  0  0  0
  6 19  1  0  0  0  0
  7 10  2  0  0  0  0
  7 18  1  0  0  0  0
  8 21  1  0  0  0  0
  9 21  2  0  0  0  0
 10 22  1  0  0  0  0
 11 12  2  0  0  0  0
 11 23  1  0  0  0  0
 12 24  1  0  0  0  0
 13 20  1  0  0  0  0
 13 22  2  0  0  0  0
 14 24  2  0  0  0  0
 14 25  1  0  0  0  0
 15 26  1  0  0  0  0
 16 26  1  0  0  0  0
 16 27  2  0  0  0  0
 16 28  1  0  0  0  0
 17 19  2  0  0  0  0
 17 33  1  0  0  0  0
 18 20  2  0  0  0  0
 18 34  1  0  0  0  0
 19 46  1  0  0  0  0
 20 35  1  0  0  0  0
 21 74  1  0  0  0  0
 22 75  1  0  0  0  0
 23 25  2  0  0  0  0
 23 74  1  0  0  0  0
 24 76  1  0  0  0  0
 25 77  1  0  0  0  0
 26 59  2  0  0  0  0
 27 60  1  0  0  0  0
 27 63  1  0  0  0  0
 28 64  1  0  0  0  0
 28 69  2  0  0  0  0
 29 47  1  0  0  0  0
 29 65  1  0  0  0  0
 29 70  2  0  0  0  0
 30 56  1  0  0  0  0
 30 61  1  0  0  0  0
 30 71  2  0  0  0  0
 31 57  1  0  0  0  0
 31 66  1  0  0  0  0
 31 72  2  0  0  0  0
 32 62  1  0  0  0  0
 32 67  1  0  0  0  0
 32 73  2  0  0  0  0
 33 36  1  0  0  0  0
 34 47  1  0  0  0  0
 35 61  1  0  0  0  0
 36 38  1  0  0  0  0
 37 39  1  0  0  0  0
 37 44  1  0  0  0  0
 38 46  1  0  0  0  0
 39 48  1  0  0  0  0
 40 42  1  0  0  0  0
 40 49  1  0  0  0  0
 41 43  1  0  0  0  0
 41 49  1  0  0  0  0
 42 50  1  0  0  0  0
 43 50  1  0  0  0  0
 44 62  1  0  0  0  0
 45 48  1  0  0  0  0
 45 62  1  0  0  0  0
 46 65  1  0  0  0  0
 47 61  1  0  0  0  0
 48 60  1  0  0  0  0
 49 67  1  0  0  0  0
 50 75  1  0  0  0  0
 51 57  1  0  0  0  0
 52 58  1  0  0  0  0
 53 58  1  0  0  0  0
 54 58  1  0  0  0  0
 55 68  1  0  0  0  0
 56 58  1  0  0  0  0
 56 66  1  0  0  0  0
 57 68  1  0  0  0  0
 59 60  1  0  0  0  0
M  CHG  1  68   1
M  ISO  4  32 100  50 101  67 100  75 101
M  END
> <Batch ID>
0107

> <Smiles>
CNC(C)C(=O)NC(C(=O)N1Cc2cc([101O:1][101CH:1]3CCC([100NH:0][100C:0](=O)N4CCCC(n5nc(-c6ccc(Oc7ccc(F)cc7F)cc6)c(C(N)=O)c5N)C4)CC3)ccc2CC1C(=O)NC1CCCc2ccccc21)C(C)(C)C

> <Shape>
0.284

> <Color>
0.184

> <Negative vol penalty>
0.000

$$$$

  -OEChem-04052319513D

 85 93  0     1  0  0  0  0  0999 V2000
  -31.3571  -25.8629   15.8655 C   0  0  0  0  0  0  0  0  0  0  0  0
  -30.0187  -25.4902   15.7927 C   0  0  0  0  0  0  0  0  0  0  0  0
  -25.1627  -11.2618   21.0195 C   0  0  0  0  0  0  0  0  0  0  0  0
  -25.3155  -12.2263   23.2293 C   0  0  0  0  0  0  0  0  0  0  0  0
  -31.8973  -26.2834   17.0801 C   0  0  0  0  0  0  0  0  0  0  0  0
  -29.2201  -25.5368   16.9348 C   0  0  0  0  0  0  0  0  0  0  0  0
  -22.4704  -26.7925   18.9798 C   0  0  0  0  0  0  0  0  0  0  0  0
  -25.1616   -9.9835   21.5775 C   0  0  0  0  0  0  0  0  0  0  0  0
  -25.3144  -10.9480   23.7874 C   0  0  0  0  0  0  0  0  0  0  0  0
  -21.4456  -26.2126   19.7262 C   0  0  0  0  0  0  0  0  0  0  0  0
  -24.7548   -6.4758   22.4411 C   0  0  0  0  0  0  0  0  0  0  0  0
  -23.8286   -5.5551   21.9512 C   0  0  0  0  0  0  0  0  0  0  0  0
  -22.4668  -27.0310   21.7527 C   0  0  0  0  0  0  0  0  0  0  0  0
  -24.8216  -22.2544   22.0189 C   0  0  0  0  0  0  0  0  0  0  0  0
  -22.0235   -7.0146   22.6209 C   0  0  0  0  0  0  0  0  0  0  0  0
  -24.6435  -22.8521   24.3141 C   0  0  0  0  0  0  0  0  0  0  0  0
  -25.2397  -12.3833   21.8454 C   0  0  0  0  0  0  0  0  0  0  0  0
  -24.1226  -14.5128   20.9941 C   0  0  0  0  0  0  0  0  0  0  0  0
  -31.1024  -26.3443   18.2356 C   0  0  0  0  0  0  0  0  0  0  0  0
  -23.5087  -27.4879   19.6160 C   0  0  0  0  0  0  0  0  0  0  0  0
  -29.7505  -25.9572   18.1663 C   0  0  0  0  0  0  0  0  0  0  0  0
  -23.5023  -27.6210   21.0119 C   0  0  0  0  0  0  0  0  0  0  0  0
  -24.0239  -22.6256   23.0956 C   0  0  0  0  0  0  0  0  0  0  0  0
  -26.1950  -22.1229   22.1912 C   0  0  0  0  0  0  0  0  0  0  0  0
  -25.2374   -9.8265   22.9615 C   0  0  0  0  0  0  0  0  0  0  0  0
  -21.4452  -26.3293   21.1131 C   0  0  0  0  0  0  0  0  0  0  0  0
  -24.3153   -7.6659   23.0211 C   0  0  0  0  0  0  0  0  0  0  0  0
  -22.4629   -5.8245   22.0410 C   0  0  0  0  0  0  0  0  0  0  0  0
  -22.9497   -7.9353   23.1109 C   0  0  0  0  0  0  0  0  0  0  0  0
  -25.2415  -13.7041   21.2696 C   0  0  0  0  0  0  0  0  0  0  0  0
  -26.7174  -22.3720   23.4501 C   0  0  0  0  0  0  0  0  0  0  0  0
  -24.6525  -15.6607   20.4574 C   0  0  0  0  0  0  0  0  0  0  0  0
  -22.7290  -14.2501   21.2048 C   0  0  0  0  0  0  0  0  0  0  0  0
  -26.6588  -27.1173   19.8242 C   0  0  0  0  0  0  0  0  0  0  0  0
  -26.5009  -29.9691   21.3619 C   0  0  0  0  0  0  0  0  0  0  0  0
  -24.6396  -32.1884   23.1666 C   0  0  0  0  0  0  0  0  0  0  0  0
  -28.4530  -19.7473   20.4951 C   0  0  0  0  0  0  0  0  0  0  0  0
  -31.7428  -26.7602   19.5362 C   0  0  0  0  0  0  0  0  0  0  0  0
  -24.5926  -28.1305   18.7946 C   0  0  0  0  0  0  0  0  0  0  0  0
  -24.5830  -28.3745   21.7416 C   0  0  0  0  0  0  0  0  0  0  0  0
  -30.7345  -27.1384   20.6181 C   0  0  0  0  0  0  0  0  0  0  0  0
  -29.3478  -16.6988   18.8881 C   0  0  0  0  0  0  0  0  0  0  0  0
  -29.6219  -26.0979   20.6979 C   0  0  0  0  0  0  0  0  0  0  0  0
  -28.2710  -15.7138   19.3466 C   0  0  0  0  0  0  0  0  0  0  0  0
  -29.7236  -17.6802   19.9961 C   0  0  0  0  0  0  0  0  0  0  0  0
  -27.5101  -17.4233   21.0487 C   0  0  0  0  0  0  0  0  0  0  0  0
  -28.8457  -26.0177   19.3778 C   0  0  1  0  0  0  0  0  0  0  0  0
  -25.8745  -28.3762   19.5842 C   0  0  1  0  0  0  0  0  0  0  0  0
  -27.0579  -16.4490   19.9476 C   0  0  2  0  0  0  0  0  0  0  0  0
  -28.1860  -22.2471   23.6936 C   0  0  0  0  0  0  0  0  0  0  0  0
  -26.5040  -22.1983   19.6891 C   0  0  0  0  0  0  0  0  0  0  0  0
  -24.7953  -34.4140   24.3155 C   0  0  0  0  0  0  0  0  0  0  0  0
  -28.0326  -28.6727   23.6604 C   0  0  0  0  0  0  0  0  0  0  0  0
  -27.3342  -30.5879   25.1138 C   0  0  0  0  0  0  0  0  0  0  0  0
  -28.7565  -31.0016   23.1067 C   0  0  0  0  0  0  0  0  0  0  0  0
  -20.0954  -23.4742   21.2134 C   0  0  0  0  0  0  0  0  0  0  0  0
  -19.8688  -24.2349   23.5924 C   0  0  0  0  0  0  0  0  0  0  0  0
  -22.5540  -33.3630   21.4261 C   0  0  0  0  0  0  0  0  0  0  0  0
  -22.5306  -22.7780   22.9420 C   0  0  0  0  0  0  0  0  0  0  0  0
  -22.1499  -24.2100   22.5397 C   0  0  0  0  0  0  0  0  0  0  0  0
  -27.0553  -21.7237   21.0423 C   0  0  2  0  0  0  0  0  0  0  0  0
  -26.3202  -30.4013   22.7970 C   0  0  1  0  0  0  0  0  0  0  0  0
  -24.4441  -33.6872   23.0266 C   0  0  2  0  0  0  0  0  0  0  0  0
  -27.5914  -30.1500   23.6562 C   0  0  0  0  0  0  0  0  0  0  0  0
  -20.6438  -24.4205   22.2836 C   0  0  0  0  0  0  0  0  0  1  0  0
  -25.9744  -22.7344   24.5198 N   0  0  0  0  0  0  0  0  0  0  0  0
  -26.3950  -14.2885   20.9352 N   0  0  0  0  0  0  0  0  0  0  0  0
  -26.0038  -15.4767   20.4441 N   0  0  0  0  0  0  0  0  0  0  0  0
  -25.6242  -28.9797   20.8948 N   0  0  0  0  0  0  0  0  0  0  0  0
  -28.5288  -18.3450   20.5220 N   0  0  0  0  0  0  0  0  0  0  0  0
  -24.0896  -16.7994   20.0001 N   0  0  0  0  0  0  0  0  0  0  0  0
  -22.3583  -13.0206   21.7662 N   0  0  0  0  0  0  0  0  0  0  0  0
  -27.9228  -27.1269   19.2659 N   0  0  0  0  0  0  0  0  0  0  0  0
  -25.8951  -31.7962   22.7527 N   0  0  0  0  0  0  0  0  0  0  0  0
  -27.2837  -20.2964   21.0071 N   0  0  0  0  0  0  0  0  0  0  0  0
  -23.0265  -33.9949   22.6849 N   0  3  0  0  0  0  0  0  0  0  0  0
  -21.8377  -15.0743   20.8888 O   0  0  0  0  0  0  0  0  0  0  0  0
  -26.1551  -26.2053   20.4693 O   0  0  0  0  0  0  0  0  0  0  0  0
  -27.3827  -30.4953   20.6783 O   0  0  0  0  0  0  0  0  0  0  0  0
  -23.7674  -31.4407   23.6033 O   0  0  0  0  0  0  0  0  0  0  0  0
  -29.3578  -20.4572   20.0431 O   0  0  0  0  0  0  0  0  0  0  0  0
  -25.2361   -8.5793   23.5064 O   0  0  0  0  0  0  0  0  0  0  0  0
  -20.4464  -25.7637   21.8442 O   0  0  0  0  0  0  0  0  0  1  0  0
  -21.5737   -4.9409   21.5691 F   0  0  0  0  0  0  0  0  0  0  0  0
  -22.5215   -9.0774   23.6660 F   0  0  0  0  0  0  0  0  0  0  0  0
  1  2  1  0  0  0  0
  1  5  2  0  0  0  0
  2  6  2  0  0  0  0
  3  8  2  0  0  0  0
  3 17  1  0  0  0  0
  4  9  1  0  0  0  0
  4 17  2  0  0  0  0
  5 19  1  0  0  0  0
  6 21  1  0  0  0  0
  7 10  2  0  0  0  0
  7 20  1  0  0  0  0
  8 25  1  0  0  0  0
  9 25  2  0  0  0  0
 10 26  1  0  0  0  0
 11 12  2  0  0  0  0
 11 27  1  0  0  0  0
 12 28  1  0  0  0  0
 13 22  1  0  0  0  0
 13 26  2  0  0  0  0
 14 23  2  0  0  0  0
 14 24  1  0  0  0  0
 15 28  2  0  0  0  0
 15 29  1  0  0  0  0
 16 23  1  0  0  0  0
 16 66  2  0  0  0  0
 17 30  1  0  0  0  0
 18 30  1  0  0  0  0
 18 32  2  0  0  0  0
 18 33  1  0  0  0  0
 19 21  2  0  0  0  0
 19 38  1  0  0  0  0
 20 22  2  0  0  0  0
 20 39  1  0  0  0  0
 21 47  1  0  0  0  0
 22 40  1  0  0  0  0
 23 59  1  0  0  0  0
 24 31  2  0  0  0  0
 24 61  1  0  0  0  0
 25 82  1  0  0  0  0
 26 83  1  0  0  0  0
 27 29  2  0  0  0  0
 27 82  1  0  0  0  0
 28 84  1  0  0  0  0
 29 85  1  0  0  0  0
 30 67  2  0  0  0  0
 31 50  1  0  0  0  0
 31 66  1  0  0  0  0
 32 68  1  0  0  0  0
 32 71  1  0  0  0  0
 33 72  1  0  0  0  0
 33 77  2  0  0  0  0
 34 48  1  0  0  0  0
 34 73  1  0  0  0  0
 34 78  2  0  0  0  0
 35 62  1  0  0  0  0
 35 69  1  0  0  0  0
 35 79  2  0  0  0  0
 36 63  1  0  0  0  0
 36 74  1  0  0  0  0
 36 80  2  0  0  0  0
 37 70  1  0  0  0  0
 37 75  1  0  0  0  0
 37 81  2  0  0  0  0
 38 41  1  0  0  0  0
 39 48  1  0  0  0  0
 40 69  1  0  0  0  0
 41 43  1  0  0  0  0
 42 44  1  0  0  0  0
 42 45  1  0  0  0  0
 43 47  1  0  0  0  0
 44 49  1  0  0  0  0
 45 70  1  0  0  0  0
 46 49  1  0  0  0  0
 46 70  1  0  0  0  0
 47 73  1  0  0  0  0
 48 69  1  0  0  0  0
 49 68  1  0  0  0  0
 51 61  1  0  0  0  0
 52 63  1  0  0  0  0
 53 64  1  0  0  0  0
 54 64  1  0  0  0  0
 55 64  1  0  0  0  0
 56 65  1  0  0  0  0
 57 65  1  0  0  0  0
 58 76  1  0  0  0  0
 59 60  1  0  0  0  0
 60 65  1  0  0  0  0
 61 75  1  0  0  0  0
 62 64  1  0  0  0  0
 62 74  1  0  0  0  0
 63 76  1  0  0  0  0
 65 83  1  0  0  0  0
 67 68  1  0  0  0  0
M  CHG  1  76   1
M  ISO  4  37 100  65 101  75 100  83 101
M  END
> <Batch ID>
0107

> <Smiles>
CNC(C)C(=O)NC(C(=O)N1Cc2cc([101O:1][101C:1](C)(C)CCc3cnc(C)c(C(C)[100NH:0][100C:0](=O)N4CCCC(n5nc(-c6ccc(Oc7ccc(F)cc7F)cc6)c(C(N)=O)c5N)C4)c3)ccc2CC1C(=O)NC1CCCc2ccccc21)C(C)(C)C

> <Shape>
0.279

> <Color>
0.061

> <Negative vol penalty>
0.000

$$$$

  -OEChem-04052319512D

  0  0  0     0  0  0  0  0  0999 V2000
M  END
$$$$

  -OEChem-04052319513D

 79 87  0     1  0  0  0  0  0999 V2000
  -30.6812  -25.2796    9.6226 C   0  0  0  0  0  0  0  0  0  0  0  0
  -30.8411  -24.6993   10.8768 C   0  0  0  0  0  0  0  0  0  0  0  0
  -23.1197   -9.8757   19.9486 C   0  0  0  0  0  0  0  0  0  0  0  0
  -23.8854   -9.9049   22.2399 C   0  0  0  0  0  0  0  0  0  0  0  0
  -31.0410  -26.6115    9.4211 C   0  0  0  0  0  0  0  0  0  0  0  0
  -31.3620  -25.4502   11.9300 C   0  0  0  0  0  0  0  0  0  0  0  0
  -28.7735  -24.8141   16.2358 C   0  0  0  0  0  0  0  0  0  0  0  0
  -31.3811  -18.6024   20.0119 C   0  0  0  0  0  0  0  0  0  0  0  0
  -22.3981   -8.7097   20.2046 C   0  0  0  0  0  0  0  0  0  0  0  0
  -23.1638   -8.7390   22.4959 C   0  0  0  0  0  0  0  0  0  0  0  0
  -29.0160  -23.6464   16.9580 C   0  0  0  0  0  0  0  0  0  0  0  0
  -19.4691   -7.8635   21.6666 C   0  0  0  0  0  0  0  0  0  0  0  0
  -18.1620   -7.7912   21.1851 C   0  0  0  0  0  0  0  0  0  0  0  0
  -31.0755  -19.6479   19.1477 C   0  0  0  0  0  0  0  0  0  0  0  0
  -30.4661  -24.8741   18.4444 C   0  0  0  0  0  0  0  0  0  0  0  0
  -18.7544   -5.8542   19.8681 C   0  0  0  0  0  0  0  0  0  0  0  0
  -29.2010  -18.8022   20.9412 C   0  0  0  0  0  0  0  0  0  0  0  0
  -23.8634  -10.4733   20.9662 C   0  0  0  0  0  0  0  0  0  0  0  0
  -24.1577  -13.0039   20.8365 C   0  0  0  0  0  0  0  0  0  0  0  0
  -31.5574  -27.3820   10.4748 C   0  0  0  0  0  0  0  0  0  0  0  0
  -29.3850  -26.0203   16.6067 C   0  0  0  0  0  0  0  0  0  0  0  0
  -31.7302  -26.7933   11.7421 C   0  0  0  0  0  0  0  0  0  0  0  0
  -30.2276  -26.0562   17.7269 C   0  0  0  0  0  0  0  0  0  0  0  0
  -30.4315  -18.1655   20.9288 C   0  0  0  0  0  0  0  0  0  0  0  0
  -22.4201   -8.1414   21.4782 C   0  0  0  0  0  0  0  0  0  0  0  0
  -29.8647  -23.6757   18.0607 C   0  0  0  0  0  0  0  0  0  0  0  0
  -20.4189   -6.9312   21.2489 C   0  0  0  0  0  0  0  0  0  0  0  0
  -17.8046   -6.7865   20.2858 C   0  0  0  0  0  0  0  0  0  0  0  0
  -20.0615   -5.9265   20.3496 C   0  0  0  0  0  0  0  0  0  0  0  0
  -24.6094  -11.6773   20.7023 C   0  0  0  0  0  0  0  0  0  0  0  0
  -29.8160  -20.2181   19.2397 C   0  0  0  0  0  0  0  0  0  0  0  0
  -25.2347  -13.7723   20.4676 C   0  0  0  0  0  0  0  0  0  0  0  0
  -22.8789  -13.4974   21.2570 C   0  0  0  0  0  0  0  0  0  0  0  0
  -31.4171  -28.0269   15.2109 C   0  0  0  0  0  0  0  0  0  0  0  0
  -30.8381  -29.8300   17.8445 C   0  0  0  0  0  0  0  0  0  0  0  0
  -29.8485  -29.9576   21.1081 C   0  0  0  0  0  0  0  0  0  0  0  0
  -30.6990  -14.8941   20.6376 C   0  0  0  0  0  0  0  0  0  0  0  0
  -31.9764  -28.8039   10.1969 C   0  0  0  0  0  0  0  0  0  0  0  0
  -29.0921  -27.2767   15.8333 C   0  0  0  0  0  0  0  0  0  0  0  0
  -30.8928  -27.3298   18.1784 C   0  0  0  0  0  0  0  0  0  0  0  0
  -32.1708  -29.6395   11.4595 C   0  0  0  0  0  0  0  0  0  0  0  0
  -29.5998  -12.4804   18.2623 C   0  0  0  0  0  0  0  0  0  0  0  0
  -32.9890  -28.8674   12.4898 C   0  0  0  0  0  0  0  0  0  0  0  0
  -28.1692  -12.1614   18.7001 C   0  0  0  0  0  0  0  0  0  0  0  0
  -30.5158  -12.7225   19.4599 C   0  0  0  0  0  0  0  0  0  0  0  0
  -28.6044  -13.4229   20.8491 C   0  0  0  0  0  0  0  0  0  0  0  0
  -32.2687  -27.5824   12.9157 C   0  0  1  0  0  0  0  0  0  0  0  0
  -30.1727  -28.3417   15.9920 C   0  0  1  0  0  0  0  0  0  0  0  0
  -27.6306  -13.2260   19.6747 C   0  0  2  0  0  0  0  0  0  0  0  0
  -29.5136  -31.5678   23.0035 C   0  0  0  0  0  0  0  0  0  0  0  0
  -33.8569  -29.9520   18.2711 C   0  0  0  0  0  0  0  0  0  0  0  0
  -33.4245  -30.7204   20.6144 C   0  0  0  0  0  0  0  0  0  0  0  0
  -32.6566  -32.1062   18.6876 C   0  0  0  0  0  0  0  0  0  0  0  0
  -26.9612  -29.3315   21.2829 C   0  0  0  0  0  0  0  0  0  0  0  0
  -30.7280  -17.0499   21.8668 C   0  0  0  0  0  0  0  0  0  0  0  0
  -29.4517  -21.3483   18.3224 C   0  0  0  0  0  0  0  0  0  1  0  0
  -31.4548  -29.9459   19.2176 C   0  0  1  0  0  0  0  0  0  0  0  0
  -28.8610  -30.8592   21.8268 C   0  0  2  0  0  0  0  0  0  0  0  0
  -32.8373  -30.6566   19.1883 C   0  0  0  0  0  0  0  0  0  0  0  0
  -28.8676  -19.8209   20.1174 N   0  0  0  0  0  0  0  0  0  0  0  0
  -25.8747  -11.6036   20.2809 N   0  0  0  0  0  0  0  0  0  0  0  0
  -26.2273  -12.8936   20.1471 N   0  0  0  0  0  0  0  0  0  0  0  0
  -30.5799  -28.5305   17.3859 N   0  0  0  0  0  0  0  0  0  0  0  0
  -29.9485  -13.7437   20.3438 N   0  0  0  0  0  0  0  0  0  0  0  0
  -25.4201  -15.1072   20.3894 N   0  0  0  0  0  0  0  0  0  0  0  0
  -21.8850  -12.5707   21.6002 N   0  0  0  0  0  0  0  0  0  0  0  0
  -31.2077  -27.8845   13.8525 N   0  0  0  0  0  0  0  0  0  0  0  0
  -30.4610  -30.6065   20.0569 N   0  0  0  0  0  0  0  0  0  0  0  0
  -30.0848  -15.8146   21.4780 N   0  0  0  0  0  0  0  0  0  0  0  0
  -27.7094  -30.0629   22.3375 N   0  3  0  0  0  0  0  0  0  0  0  0
  -22.6199  -14.7236   21.3107 O   0  0  0  0  0  0  0  0  0  0  0  0
  -32.4882  -27.9224   15.7971 O   0  0  0  0  0  0  0  0  0  0  0  0
  -30.5880  -30.8551   17.2055 O   0  0  0  0  0  0  0  0  0  0  0  0
  -30.0585  -28.7952   21.4478 O   0  0  0  0  0  0  0  0  0  0  0  0
  -31.8303  -15.0891   20.1803 O   0  0  0  0  0  0  0  0  0  0  0  0
  -21.7159   -7.0039   21.7285 O   0  0  0  0  0  0  0  0  0  0  0  0
  -30.1037  -22.5373   18.7669 O   0  0  0  0  0  0  0  0  0  1  0  0
  -16.5490   -6.7163   19.8247 F   0  0  0  0  0  0  0  0  0  0  0  0
  -20.9693   -5.0274   19.9456 F   0  0  0  0  0  0  0  0  0  0  0  0
  1  2  1  0  0  0  0
  1  5  2  0  0  0  0
  2  6  2  0  0  0  0
  3  9  2  0  0  0  0
  3 18  1  0  0  0  0
  4 10  1  0  0  0  0
  4 18  2  0  0  0  0
  5 20  1  0  0  0  0
  6 22  1  0  0  0  0
  7 11  2  0  0  0  0
  7 21  1  0  0  0  0
  8 14  2  0  0  0  0
  8 24  1  0  0  0  0
  9 25  1  0  0  0  0
 10 25  2  0  0  0  0
 11 26  1  0  0  0  0
 12 13  2  0  0  0  0
 12 27  1  0  0  0  0
 13 28  1  0  0  0  0
 14 31  1  0  0  0  0
 15 23  1  0  0  0  0
 15 26  2  0  0  0  0
 16 28  2  0  0  0  0
 16 29  1  0  0  0  0
 17 24  2  0  0  0  0
 17 60  1  0  0  0  0
 18 30  1  0  0  0  0
 19 30  1  0  0  0  0
 19 32  2  0  0  0  0
 19 33  1  0  0  0  0
 20 22  2  0  0  0  0
 20 38  1  0  0  0  0
 21 23  2  0  0  0  0
 21 39  1  0  0  0  0
 22 47  1  0  0  0  0
 23 40  1  0  0  0  0
 24 55  1  0  0  0  0
 25 76  1  0  0  0  0
 26 77  1  0  0  0  0
 27 29  2  0  0  0  0
 27 76  1  0  0  0  0
 28 78  1  0  0  0  0
 29 79  1  0  0  0  0
 30 61  2  0  0  0  0
 31 56  1  0  0  0  0
 31 60  2  0  0  0  0
 32 62  1  0  0  0  0
 32 65  1  0  0  0  0
 33 66  1  0  0  0  0
 33 71  2  0  0  0  0
 34 48  1  0  0  0  0
 34 67  1  0  0  0  0
 34 72  2  0  0  0  0
 35 57  1  0  0  0  0
 35 63  1  0  0  0  0
 35 73  2  0  0  0  0
 36 58  1  0  0  0  0
 36 68  1  0  0  0  0
 36 74  2  0  0  0  0
 37 64  1  0  0  0  0
 37 69  1  0  0  0  0
 37 75  2  0  0  0  0
 38 41  1  0  0  0  0
 39 48  1  0  0  0  0
 40 63  1  0  0  0  0
 41 43  1  0  0  0  0
 42 44  1  0  0  0  0
 42 45  1  0  0  0  0
 43 47  1  0  0  0  0
 44 49  1  0  0  0  0
 45 64  1  0  0  0  0
 46 49  1  0  0  0  0
 46 64  1  0  0  0  0
 47 67  1  0  0  0  0
 48 63  1  0  0  0  0
 49 62  1  0  0  0  0
 50 58  1  0  0  0  0
 51 59  1  0  0  0  0
 52 59  1  0  0  0  0
 53 59  1  0  0  0  0
 54 70  1  0  0  0  0
 55 69  1  0  0  0  0
 56 77  1  0  0  0  0
 57 59  1  0  0  0  0
 57 68  1  0  0  0  0
 58 70  1  0  0  0  0
 61 62  1  0  0  0  0
M  CHG  1  70   1
M  ISO  4  37 100  56 101  69 100  77 101
M  END
> <Batch ID>
0107

> <Smiles>
CNC(C)C(=O)NC(C(=O)N1Cc2cc([101O:1][101CH2:1]c3ccc(C[100NH:0][100C:0](=O)N4CCCC(n5nc(-c6ccc(Oc7ccc(F)cc7F)cc6)c(C(N)=O)c5N)C4)cn3)ccc2CC1C(=O)NC1CCCc2ccccc21)C(C)(C)C

> <Shape>
0.230

> <Color>
0.214

> <Negative vol penalty>
0.000

$$$$

  -OEChem-04052319513D

 84 92  0     1  0  0  0  0  0999 V2000
  -29.6058  -33.7415   23.6368 C   0  0  0  0  0  0  0  0  0  0  0  0
  -29.8934  -32.4241   23.2948 C   0  0  0  0  0  0  0  0  0  0  0  0
  -27.0800  -14.0127   22.2794 C   0  0  0  0  0  0  0  0  0  0  0  0
  -26.9735  -13.0431   20.0691 C   0  0  0  0  0  0  0  0  0  0  0  0
  -28.3186  -34.0897   24.0440 C   0  0  0  0  0  0  0  0  0  0  0  0
  -28.8942  -31.4537   23.3610 C   0  0  0  0  0  0  0  0  0  0  0  0
  -28.8471  -28.4334   19.2964 C   0  0  0  0  0  0  0  0  0  0  0  0
  -26.4424  -12.8883   22.8034 C   0  0  0  0  0  0  0  0  0  0  0  0
  -26.3359  -11.9186   20.5931 C   0  0  0  0  0  0  0  0  0  0  0  0
  -29.8105  -27.4272   19.2397 C   0  0  0  0  0  0  0  0  0  0  0  0
  -23.2256  -11.0642   21.6066 C   0  0  0  0  0  0  0  0  0  0  0  0
  -22.1140  -10.5720   20.9228 C   0  0  0  0  0  0  0  0  0  0  0  0
  -28.1717  -25.8242   19.9908 C   0  0  0  0  0  0  0  0  0  0  0  0
  -23.2426   -8.4589   20.6091 C   0  0  0  0  0  0  0  0  0  0  0  0
  -32.7722  -20.1173   17.8056 C   0  0  0  0  0  0  0  0  0  0  0  0
  -27.3455  -14.0901   20.9122 C   0  0  0  0  0  0  0  0  0  0  0  0
  -29.3890  -15.4495   20.2164 C   0  0  0  0  0  0  0  0  0  0  0  0
  -27.3007  -33.1250   24.1059 C   0  0  0  0  0  0  0  0  0  0  0  0
  -27.5394  -28.1442   19.7119 C   0  0  0  0  0  0  0  0  0  0  0  0
  -27.5925  -31.7891   23.7707 C   0  0  0  0  0  0  0  0  0  0  0  0
  -27.1929  -26.8281   20.0495 C   0  0  0  0  0  0  0  0  0  0  0  0
  -26.0703  -11.8412   21.9603 C   0  0  0  0  0  0  0  0  0  0  0  0
  -29.4736  -26.1229   19.5897 C   0  0  0  0  0  0  0  0  0  0  0  0
  -24.3458  -10.2538   21.7916 C   0  0  0  0  0  0  0  0  0  0  0  0
  -22.1225   -9.2693   20.4241 C   0  0  0  0  0  0  0  0  0  0  0  0
  -24.3543   -8.9512   21.2929 C   0  0  0  0  0  0  0  0  0  0  0  0
  -28.0037  -15.2517   20.3701 C   0  0  0  0  0  0  0  0  0  0  0  0
  -31.7317  -20.8929   17.3781 C   0  0  0  0  0  0  0  0  0  0  0  0
  -29.4975  -16.7011   19.6611 C   0  0  0  0  0  0  0  0  0  0  0  0
  -32.8297  -20.1788   15.5935 C   0  0  0  0  0  0  0  0  0  0  0  0
  -30.4801  -14.5797   20.5458 C   0  0  0  0  0  0  0  0  0  0  0  0
  -25.6932  -29.0810   22.1239 C   0  0  0  0  0  0  0  0  0  0  0  0
  -23.4387  -27.3528   20.5578 C   0  0  0  0  0  0  0  0  0  0  0  0
  -22.7208  -24.8332   18.3708 C   0  0  0  0  0  0  0  0  0  0  0  0
  -27.8473  -20.5473   15.9694 C   0  0  0  0  0  0  0  0  0  0  0  0
  -25.9364  -33.5398   24.5973 C   0  0  0  0  0  0  0  0  0  0  0  0
  -26.5050  -29.2358   19.7421 C   0  0  0  0  0  0  0  0  0  0  0  0
  -25.7978  -26.4615   20.4826 C   0  0  0  0  0  0  0  0  0  0  0  0
  -24.8407  -32.5251   24.2810 C   0  0  0  0  0  0  0  0  0  0  0  0
  -26.0341  -20.3327   19.0261 C   0  0  0  0  0  0  0  0  0  0  0  0
  -25.3018  -31.1143   24.6328 C   0  0  0  0  0  0  0  0  0  0  0  0
  -26.4944  -19.0056   19.6320 C   0  0  0  0  0  0  0  0  0  0  0  0
  -25.9261  -20.2512   17.5050 C   0  0  0  0  0  0  0  0  0  0  0  0
  -27.6038  -18.4475   17.4282 C   0  0  0  0  0  0  0  0  0  0  0  0
  -26.5292  -30.7128   23.8059 C   0  0  1  0  0  0  0  0  0  0  0  0
  -25.3364  -28.9260   20.6726 C   0  0  1  0  0  0  0  0  0  0  0  0
  -27.7815  -18.4968   18.9554 C   0  0  2  0  0  0  0  0  0  0  0  0
  -33.1810  -18.4483   13.7948 C   0  0  0  0  0  0  0  0  0  0  0  0
  -34.6620  -20.4861   13.8899 C   0  0  0  0  0  0  0  0  0  0  0  0
  -20.7865  -23.6297   17.3183 C   0  0  0  0  0  0  0  0  0  0  0  0
  -22.9554  -25.8506   23.1693 C   0  0  0  0  0  0  0  0  0  0  0  0
  -21.7557  -24.0905   21.8537 C   0  0  0  0  0  0  0  0  0  0  0  0
  -20.8804  -26.4260   21.8974 C   0  0  0  0  0  0  0  0  0  0  0  0
  -23.5568  -25.6312   15.6463 C   0  0  0  0  0  0  0  0  0  0  0  0
  -30.6723  -21.6257   18.1618 C   0  0  0  0  0  0  0  0  0  0  0  0
  -31.0623  -23.0575   18.5354 C   0  0  0  0  0  0  0  0  0  0  0  0
  -30.8755  -21.6212   15.1305 C   0  0  0  0  0  0  0  0  0  0  0  0
  -29.8346  -20.7056   14.4914 C   0  0  0  0  0  0  0  0  0  0  0  0
  -29.9527  -23.8180   19.2522 C   0  0  0  0  0  0  0  0  0  1  0  0
  -33.2511  -19.9382   14.1910 C   0  0  0  0  0  0  0  0  0  0  0  0
  -22.9820  -25.9142   20.5883 C   0  0  1  0  0  0  0  0  0  0  0  0
  -21.7825  -24.7706   17.1791 C   0  0  2  0  0  0  0  0  0  0  0  0
  -22.1702  -25.5773   21.8709 C   0  0  0  0  0  0  0  0  0  0  0  0
  -27.2838  -16.2941   19.9470 N   0  0  0  0  0  0  0  0  0  0  0  0
  -31.7918  -20.9140   16.0055 N   0  0  0  0  0  0  0  0  0  0  0  0
  -28.2204  -17.1591   19.5219 N   0  0  0  0  0  0  0  0  0  0  0  0
  -33.4343  -19.6886   16.6805 N   0  3  0  0  0  0  0  0  0  0  0  0
  -24.8234  -27.5651   20.5020 N   0  0  0  0  0  0  0  0  0  0  0  0
  -27.1799  -19.7637   16.9252 N   0  0  0  0  0  0  0  0  0  0  0  0
  -30.5598  -17.4436   19.2834 N   0  0  0  0  0  0  0  0  0  0  0  0
  -30.1911  -13.3293   21.1091 N   0  0  0  0  0  0  0  0  0  0  0  0
  -26.1355  -30.3456   22.4626 N   0  0  0  0  0  0  0  0  0  0  0  0
  -22.2535  -25.6907   19.3442 N   0  0  0  0  0  0  0  0  0  0  0  0
  -29.0317  -20.0145   15.4755 N   0  0  0  0  0  0  0  0  0  0  0  0
  -22.5556  -24.5687   15.9211 N   0  3  0  0  0  0  0  0  0  0  0  0
  -31.6766  -14.9084   20.3618 O   0  0  0  0  0  0  0  0  0  0  0  0
  -25.5745  -28.1246   22.8808 O   0  0  0  0  0  0  0  0  0  0  0  0
  -22.5974  -28.2549   20.5753 O   0  0  0  0  0  0  0  0  0  0  0  0
  -23.7621  -24.1833   18.4336 O   0  0  0  0  0  0  0  0  0  0  0  0
  -27.4220  -21.6433   15.5887 O   0  0  0  0  0  0  0  0  0  0  0  0
  -25.4483  -10.7437   22.4714 O   0  0  0  0  0  0  0  0  0  0  0  0
  -30.4121  -25.1390   19.5358 O   0  0  0  0  0  0  0  0  0  1  0  0
  -21.0543   -8.7963   19.7688 F   0  0  0  0  0  0  0  0  0  0  0  0
  -25.4270   -8.1675   21.4686 F   0  0  0  0  0  0  0  0  0  0  0  0
  1  2  1  0  0  0  0
  1  5  2  0  0  0  0
  2  6  2  0  0  0  0
  3  8  2  0  0  0  0
  3 16  1  0  0  0  0
  4  9  1  0  0  0  0
  4 16  2  0  0  0  0
  5 18  1  0  0  0  0
  6 20  1  0  0  0  0
  7 10  2  0  0  0  0
  7 19  1  0  0  0  0
  8 22  1  0  0  0  0
  9 22  2  0  0  0  0
 10 23  1  0  0  0  0
 11 12  2  0  0  0  0
 11 24  1  0  0  0  0
 12 25  1  0  0  0  0
 13 21  1  0  0  0  0
 13 23  2  0  0  0  0
 14 25  2  0  0  0  0
 14 26  1  0  0  0  0
 15 28  2  0  0  0  0
 15 67  1  0  0  0  0
 16 27  1  0  0  0  0
 17 27  1  0  0  0  0
 17 29  2  0  0  0  0
 17 31  1  0  0  0  0
 18 20  2  0  0  0  0
 18 36  1  0  0  0  0
 19 21  2  0  0  0  0
 19 37  1  0  0  0  0
 20 45  1  0  0  0  0
 21 38  1  0  0  0  0
 22 81  1  0  0  0  0
 23 82  1  0  0  0  0
 24 26  2  0  0  0  0
 24 81  1  0  0  0  0
 25 83  1  0  0  0  0
 26 84  1  0  0  0  0
 27 64  2  0  0  0  0
 28 55  1  0  0  0  0
 28 65  1  0  0  0  0
 29 66  1  0  0  0  0
 29 70  1  0  0  0  0
 30 60  1  0  0  0  0
 30 65  1  0  0  0  0
 30 67  2  0  0  0  0
 31 71  1  0  0  0  0
 31 76  2  0  0  0  0
 32 46  1  0  0  0  0
 32 72  1  0  0  0  0
 32 77  2  0  0  0  0
 33 61  1  0  0  0  0
 33 68  1  0  0  0  0
 33 78  2  0  0  0  0
 34 62  1  0  0  0  0
 34 73  1  0  0  0  0
 34 79  2  0  0  0  0
 35 69  1  0  0  0  0
 35 74  1  0  0  0  0
 35 80  2  0  0  0  0
 36 39  1  0  0  0  0
 37 46  1  0  0  0  0
 38 68  1  0  0  0  0
 39 41  1  0  0  0  0
 40 42  1  0  0  0  0
 40 43  1  0  0  0  0
 41 45  1  0  0  0  0
 42 47  1  0  0  0  0
 43 69  1  0  0  0  0
 44 47  1  0  0  0  0
 44 69  1  0  0  0  0
 45 72  1  0  0  0  0
 46 68  1  0  0  0  0
 47 66  1  0  0  0  0
 48 60  1  0  0  0  0
 49 60  1  0  0  0  0
 50 62  1  0  0  0  0
 51 63  1  0  0  0  0
 52 63  1  0  0  0  0
 53 63  1  0  0  0  0
 54 75  1  0  0  0  0
 55 56  1  0  0  0  0
 56 59  1  0  0  0  0
 57 58  1  0  0  0  0
 57 65  1  0  0  0  0
 58 74  1  0  0  0  0
 59 82  1  0  0  0  0
 61 63  1  0  0  0  0
 61 73  1  0  0  0  0
 62 75  1  0  0  0  0
 64 66  1  0  0  0  0
M  CHG  2  67   1  75   1
M  ISO  4  35 100  59 101  74 100  82 101
M  END
> <Batch ID>
0107

> <Smiles>
CNC(C)C(=O)NC(C(=O)N1Cc2cc([101O:1][101CH2:1]CCc3cnc(C(C)C)n3CC[100NH:0][100C:0](=O)N3CCCC(n4nc(-c5ccc(Oc6ccc(F)cc6F)cc5)c(C(N)=O)c4N)C3)ccc2CC1C(=O)NC1CCCc2ccccc21)C(C)(C)C

> <Shape>
0.231

> <Color>
0.074

> <Negative vol penalty>
0.000

$$$$

  -OEChem-04052319513D

 84 92  0     1  0  0  0  0  0999 V2000
  -25.2094  -31.0107   28.3718 C   0  0  0  0  0  0  0  0  0  0  0  0
  -25.4912  -30.0705   27.3859 C   0  0  0  0  0  0  0  0  0  0  0  0
  -24.0572   -9.6013   21.8044 C   0  0  0  0  0  0  0  0  0  0  0  0
  -22.0274  -10.4435   20.8004 C   0  0  0  0  0  0  0  0  0  0  0  0
  -24.1060  -31.8521   28.2361 C   0  0  0  0  0  0  0  0  0  0  0  0
  -24.6691  -29.9705   26.2640 C   0  0  0  0  0  0  0  0  0  0  0  0
  -27.3010  -29.5818   21.9551 C   0  0  0  0  0  0  0  0  0  0  0  0
  -23.5111   -8.3181   21.8320 C   0  0  0  0  0  0  0  0  0  0  0  0
  -21.4814   -9.1602   20.8279 C   0  0  0  0  0  0  0  0  0  0  0  0
  -27.8503  -28.3361   21.6547 C   0  0  0  0  0  0  0  0  0  0  0  0
  -21.3196   -6.5846   23.7337 C   0  0  0  0  0  0  0  0  0  0  0  0
  -21.4713   -5.8416   24.9044 C   0  0  0  0  0  0  0  0  0  0  0  0
  -26.0210  -27.9006   20.1436 C   0  0  0  0  0  0  0  0  0  0  0  0
  -25.3377  -22.0009   21.3432 C   0  0  0  0  0  0  0  0  0  0  0  0
  -27.6382  -21.3748   20.9977 C   0  0  0  0  0  0  0  0  0  0  0  0
  -22.6658   -4.1420   23.6709 C   0  0  0  0  0  0  0  0  0  0  0  0
  -23.3153  -10.6641   21.2886 C   0  0  0  0  0  0  0  0  0  0  0  0
  -24.6326  -12.5713   20.2234 C   0  0  0  0  0  0  0  0  0  0  0  0
  -23.2755  -31.7689   27.1074 C   0  0  0  0  0  0  0  0  0  0  0  0
  -26.0999  -29.9925   21.3593 C   0  0  0  0  0  0  0  0  0  0  0  0
  -23.5528  -30.8107   26.1137 C   0  0  0  0  0  0  0  0  0  0  0  0
  -25.4599  -29.1531   20.4362 C   0  0  0  0  0  0  0  0  0  0  0  0
  -26.6800  -22.3539   21.2426 C   0  0  0  0  0  0  0  0  0  0  0  0
  -22.2233   -8.0976   21.3438 C   0  0  0  0  0  0  0  0  0  0  0  0
  -27.2088  -27.4941   20.7510 C   0  0  0  0  0  0  0  0  0  0  0  0
  -21.8409   -6.1063   22.5316 C   0  0  0  0  0  0  0  0  0  0  0  0
  -22.1444   -4.6203   24.8730 C   0  0  0  0  0  0  0  0  0  0  0  0
  -22.5141   -4.8850   22.5002 C   0  0  0  0  0  0  0  0  0  0  0  0
  -23.8786  -11.9899   21.2604 C   0  0  0  0  0  0  0  0  0  0  0  0
  -24.9846  -20.6671   21.1954 C   0  0  0  0  0  0  0  0  0  0  0  0
  -27.2268  -20.0569   20.8588 C   0  0  0  0  0  0  0  0  0  0  0  0
  -24.9290  -13.8324   20.6798 C   0  0  0  0  0  0  0  0  0  0  0  0
  -25.0294  -12.0207   18.9604 C   0  0  0  0  0  0  0  0  0  0  0  0
  -23.2069  -30.7516   22.4354 C   0  0  0  0  0  0  0  0  0  0  0  0
  -22.6885  -31.5473   19.3337 C   0  0  0  0  0  0  0  0  0  0  0  0
  -23.5419  -31.1345   16.0553 C   0  0  0  0  0  0  0  0  0  0  0  0
  -23.4057  -18.5920   23.1639 C   0  0  0  0  0  0  0  0  0  0  0  0
  -22.0670  -32.6677   27.0275 C   0  0  0  0  0  0  0  0  0  0  0  0
  -25.5344  -31.3503   21.6737 C   0  0  0  0  0  0  0  0  0  0  0  0
  -24.1789  -29.5554   19.7539 C   0  0  0  0  0  0  0  0  0  0  0  0
  -21.4617  -32.7515   25.6286 C   0  0  0  0  0  0  0  0  0  0  0  0
  -24.3738  -15.8880   25.2681 C   0  0  0  0  0  0  0  0  0  0  0  0
  -21.3279  -31.3590   25.0205 C   0  0  0  0  0  0  0  0  0  0  0  0
  -24.3873  -14.6805   24.3291 C   0  0  0  0  0  0  0  0  0  0  0  0
  -23.2447  -16.8572   24.9249 C   0  0  0  0  0  0  0  0  0  0  0  0
  -23.2316  -16.0968   22.5807 C   0  0  0  0  0  0  0  0  0  0  0  0
  -22.6988  -30.6886   24.8703 C   0  0  1  0  0  0  0  0  0  0  0  0
  -24.0375  -31.4527   21.3979 C   0  0  1  0  0  0  0  0  0  0  0  0
  -24.3873  -15.1186   22.8522 C   0  0  2  0  0  0  0  0  0  0  0  0
  -27.9357  -18.2525   19.2477 C   0  0  0  0  0  0  0  0  0  0  0  0
  -28.2103  -17.9054   21.7295 C   0  0  0  0  0  0  0  0  0  0  0  0
  -22.9141  -31.8904   13.7461 C   0  0  0  0  0  0  0  0  0  0  0  0
  -20.2394  -29.7290   19.4070 C   0  0  0  0  0  0  0  0  0  0  0  0
  -20.2203  -29.7703   16.9037 C   0  0  0  0  0  0  0  0  0  0  0  0
  -19.9014  -31.8857   18.1868 C   0  0  0  0  0  0  0  0  0  0  0  0
  -26.2199  -32.3029   15.5841 C   0  0  0  0  0  0  0  0  0  0  0  0
  -23.5745  -20.2097   21.2894 C   0  0  0  0  0  0  0  0  0  0  0  0
  -28.4317  -24.1300   21.2955 C   0  0  0  0  0  0  0  0  0  0  0  0
  -28.5027  -25.6366   21.4801 C   0  0  0  0  0  0  0  0  0  1  0  0
  -28.1875  -18.9543   20.5984 C   0  0  0  0  0  0  0  0  0  0  0  0
  -22.1905  -30.8151   18.1111 C   0  0  1  0  0  0  0  0  0  0  0  0
  -23.8095  -32.1399   14.9498 C   0  0  2  0  0  0  0  0  0  0  0  0
  -20.6610  -30.5414   18.1663 C   0  0  0  0  0  0  0  0  0  0  0  0
  -23.7069  -12.8139   22.2975 N   0  0  0  0  0  0  0  0  0  0  0  0
  -24.3572  -13.9259   21.9145 N   0  0  0  0  0  0  0  0  0  0  0  0
  -25.9277  -19.7446   20.9603 N   0  3  0  0  0  0  0  0  0  0  0  0
  -23.6623  -30.8901   20.0991 N   0  0  0  0  0  0  0  0  0  0  0  0
  -23.3024  -17.2348   23.5107 N   0  0  0  0  0  0  0  0  0  0  0  0
  -25.6205  -14.8593   20.1415 N   0  0  0  0  0  0  0  0  0  0  0  0
  -24.6398  -10.7105   18.6507 N   0  0  0  0  0  0  0  0  0  0  0  0
  -27.0623  -23.6775   21.3853 N   0  0  0  0  0  0  0  0  0  0  0  0
  -23.3986  -31.2210   23.7209 N   0  0  0  0  0  0  0  0  0  0  0  0
  -22.6149  -31.6058   16.9607 N   0  0  0  0  0  0  0  0  0  0  0  0
  -23.4612  -18.8624   21.8021 N   0  0  0  0  0  0  0  0  0  0  0  0
  -25.2293  -32.0550   14.5050 N   0  3  0  0  0  0  0  0  0  0  0  0
  -25.7232  -12.6656   18.1380 O   0  0  0  0  0  0  0  0  0  0  0  0
  -22.4472  -29.8525   22.0947 O   0  0  0  0  0  0  0  0  0  0  0  0
  -22.2356  -32.6643   19.5960 O   0  0  0  0  0  0  0  0  0  0  0  0
  -24.0966  -30.0391   16.1080 O   0  0  0  0  0  0  0  0  0  0  0  0
  -23.4508  -19.4955   24.0058 O   0  0  0  0  0  0  0  0  0  0  0  0
  -21.6902   -6.8455   21.3703 O   0  0  0  0  0  0  0  0  0  0  0  0
  -27.7424  -26.2774   20.4565 O   0  0  0  0  0  0  0  0  0  1  0  0
  -22.2913   -3.9076   25.9976 F   0  0  0  0  0  0  0  0  0  0  0  0
  -23.0181   -4.4209   21.3485 F   0  0  0  0  0  0  0  0  0  0  0  0
  1  2  1  0  0  0  0
  1  5  2  0  0  0  0
  2  6  2  0  0  0  0
  3  8  2  0  0  0  0
  3 17  1  0  0  0  0
  4  9  1  0  0  0  0
  4 17  2  0  0  0  0
  5 19  1  0  0  0  0
  6 21  1  0  0  0  0
  7 10  2  0  0  0  0
  7 20  1  0  0  0  0
  8 24  1  0  0  0  0
  9 24  2  0  0  0  0
 10 25  1  0  0  0  0
 11 12  2  0  0  0  0
 11 26  1  0  0  0  0
 12 27  1  0  0  0  0
 13 22  1  0  0  0  0
 13 25  2  0  0  0  0
 14 23  1  0  0  0  0
 14 30  2  0  0  0  0
 15 23  2  0  0  0  0
 15 31  1  0  0  0  0
 16 27  2  0  0  0  0
 16 28  1  0  0  0  0
 17 29  1  0  0  0  0
 18 29  1  0  0  0  0
 18 32  2  0  0  0  0
 18 33  1  0  0  0  0
 19 21  2  0  0  0  0
 19 38  1  0  0  0  0
 20 22  2  0  0  0  0
 20 39  1  0  0  0  0
 21 47  1  0  0  0  0
 22 40  1  0  0  0  0
 23 71  1  0  0  0  0
 24 81  1  0  0  0  0
 25 82  1  0  0  0  0
 26 28  2  0  0  0  0
 26 81  1  0  0  0  0
 27 83  1  0  0  0  0
 28 84  1  0  0  0  0
 29 64  2  0  0  0  0
 30 57  1  0  0  0  0
 30 66  1  0  0  0  0
 31 60  1  0  0  0  0
 31 66  2  0  0  0  0
 32 65  1  0  0  0  0
 32 69  1  0  0  0  0
 33 70  1  0  0  0  0
 33 76  2  0  0  0  0
 34 48  1  0  0  0  0
 34 72  1  0  0  0  0
 34 77  2  0  0  0  0
 35 61  1  0  0  0  0
 35 67  1  0  0  0  0
 35 78  2  0  0  0  0
 36 62  1  0  0  0  0
 36 73  1  0  0  0  0
 36 79  2  0  0  0  0
 37 68  1  0  0  0  0
 37 74  1  0  0  0  0
 37 80  2  0  0  0  0
 38 41  1  0  0  0  0
 39 48  1  0  0  0  0
 40 67  1  0  0  0  0
 41 43  1  0  0  0  0
 42 44  1  0  0  0  0
 42 45  1  0  0  0  0
 43 47  1  0  0  0  0
 44 49  1  0  0  0  0
 45 68  1  0  0  0  0
 46 49  1  0  0  0  0
 46 68  1  0  0  0  0
 47 72  1  0  0  0  0
 48 67  1  0  0  0  0
 49 65  1  0  0  0  0
 50 60  1  0  0  0  0
 51 60  1  0  0  0  0
 52 62  1  0  0  0  0
 53 63  1  0  0  0  0
 54 63  1  0  0  0  0
 55 63  1  0  0  0  0
 56 75  1  0  0  0  0
 57 74  1  0  0  0  0
 58 59  1  0  0  0  0
 58 71  1  0  0  0  0
 59 82  1  0  0  0  0
 61 63  1  0  0  0  0
 61 73  1  0  0  0  0
 62 75  1  0  0  0  0
 64 65  1  0  0  0  0
M  CHG  2  66   1  75   1
M  ISO  4  37 100  59 101  74 100  82 101
M  END
> <Batch ID>
0107

> <Smiles>
CNC(C)C(=O)NC(C(=O)N1Cc2cc([101O:1][101CH2:1]CNc3cc(C[100NH:0][100C:0](=O)N4CCCC(n5nc(-c6ccc(Oc7ccc(F)cc7F)cc6)c(C(N)=O)c5N)C4)nc(C(C)C)c3)ccc2CC1C(=O)NC1CCCc2ccccc21)C(C)(C)C

> <Shape>
0.225

> <Color>
0.119

> <Negative vol penalty>
0.000

$$$$

  -OEChem-04052319513D

 82 90  0     1  0  0  0  0  0999 V2000
  -21.7050  -11.7138   21.3250 C   0  0  0  0  0  0  0  0  0  0  0  0
  -21.7662  -12.9855   21.8859 C   0  0  0  0  0  0  0  0  0  0  0  0
  -25.0824  -27.1273   19.3785 C   0  0  0  0  0  0  0  0  0  0  0  0
  -25.6374  -25.7222   21.2639 C   0  0  0  0  0  0  0  0  0  0  0  0
  -22.8440  -11.1511   20.7505 C   0  0  0  0  0  0  0  0  0  0  0  0
  -22.9667  -13.6947   21.8737 C   0  0  0  0  0  0  0  0  0  0  0  0
  -22.3502  -18.5345   20.5167 C   0  0  0  0  0  0  0  0  0  0  0  0
  -26.4264  -27.4741   19.2413 C   0  0  0  0  0  0  0  0  0  0  0  0
  -26.9815  -26.0690   21.1267 C   0  0  0  0  0  0  0  0  0  0  0  0
  -21.8523  -19.4081   21.4825 C   0  0  0  0  0  0  0  0  0  0  0  0
  -29.6632  -29.0105   18.6196 C   0  0  0  0  0  0  0  0  0  0  0  0
  -29.9696  -30.3554   18.4124 C   0  0  0  0  0  0  0  0  0  0  0  0
  -20.1607  -22.5794   28.8179 C   0  0  0  0  0  0  0  0  0  0  0  0
  -20.4594  -21.8516   27.6713 C   0  0  0  0  0  0  0  0  0  0  0  0
  -24.0904  -20.1991   21.9120 C   0  0  0  0  0  0  0  0  0  0  0  0
  -28.9307  -30.9168   20.5202 C   0  0  0  0  0  0  0  0  0  0  0  0
  -24.6879  -26.2514   20.3899 C   0  0  0  0  0  0  0  0  0  0  0  0
  -22.6335  -24.8127   19.9236 C   0  0  0  0  0  0  0  0  0  0  0  0
  -24.0566  -11.8577   20.7226 C   0  0  0  0  0  0  0  0  0  0  0  0
  -23.7255  -18.4788   20.2486 C   0  0  0  0  0  0  0  0  0  0  0  0
  -24.1233  -13.1403   21.2994 C   0  0  0  0  0  0  0  0  0  0  0  0
  -24.6029  -19.3258   20.9405 C   0  0  0  0  0  0  0  0  0  0  0  0
  -27.3760  -26.9450   20.1153 C   0  0  0  0  0  0  0  0  0  0  0  0
  -22.7228  -20.2385   22.1824 C   0  0  0  0  0  0  0  0  0  0  0  0
  -28.9905  -28.6187   19.7770 C   0  0  0  0  0  0  0  0  0  0  0  0
  -29.6034  -31.3086   19.3627 C   0  0  0  0  0  0  0  0  0  0  0  0
  -28.6243  -29.5718   20.7273 C   0  0  0  0  0  0  0  0  0  0  0  0
  -19.7943  -23.9163   28.7102 C   0  0  0  0  0  0  0  0  0  0  0  0
  -23.2996  -25.8932   20.5325 C   0  0  0  0  0  0  0  0  0  0  0  0
  -19.7418  -24.4744   27.4431 C   0  0  0  0  0  0  0  0  0  0  0  0
  -20.3769  -22.5021   26.4507 C   0  0  0  0  0  0  0  0  0  0  0  0
  -21.3402  -24.9076   20.3762 C   0  0  0  0  0  0  0  0  0  0  0  0
  -23.1387  -23.8127   19.0290 C   0  0  0  0  0  0  0  0  0  0  0  0
  -25.9656  -16.2349   20.4736 C   0  0  0  0  0  0  0  0  0  0  0  0
  -27.8103  -18.4824   19.0354 C   0  0  0  0  0  0  0  0  0  0  0  0
  -28.3668  -21.7837   18.3735 C   0  0  0  0  0  0  0  0  0  0  0  0
  -18.9026  -27.3376   25.2756 C   0  0  0  0  0  0  0  0  0  0  0  0
  -25.2730  -11.1890   20.1326 C   0  0  0  0  0  0  0  0  0  0  0  0
  -24.2435  -17.5500   19.1848 C   0  0  0  0  0  0  0  0  0  0  0  0
  -26.0856  -19.3189   20.6757 C   0  0  0  0  0  0  0  0  0  0  0  0
  -26.4123  -12.1578   19.8264 C   0  0  0  0  0  0  0  0  0  0  0  0
  -18.1281  -28.1148   21.8884 C   0  0  0  0  0  0  0  0  0  0  0  0
  -26.6446  -13.0982   21.0047 C   0  0  0  0  0  0  0  0  0  0  0  0
  -19.3055  -27.5361   21.1019 C   0  0  0  0  0  0  0  0  0  0  0  0
  -18.5750  -28.6941   23.2289 C   0  0  0  0  0  0  0  0  0  0  0  0
  -20.5255  -27.1889   23.2905 C   0  0  0  0  0  0  0  0  0  0  0  0
  -25.4010  -13.9510   21.2834 C   0  0  1  0  0  0  0  0  0  0  0  0
  -25.7207  -17.2096   19.3566 C   0  0  1  0  0  0  0  0  0  0  0  0
  -20.1162  -26.5427   21.9559 C   0  0  2  0  0  0  0  0  0  0  0  0
  -29.4472  -23.8029   17.3474 C   0  0  0  0  0  0  0  0  0  0  0  0
  -29.8050  -18.1250   21.3164 C   0  0  0  0  0  0  0  0  0  0  0  0
  -30.8718  -20.2831   20.6288 C   0  0  0  0  0  0  0  0  0  0  0  0
  -30.8403  -18.3511   19.0511 C   0  0  0  0  0  0  0  0  0  0  0  0
  -26.6034  -21.6646   15.9997 C   0  0  0  0  0  0  0  0  0  0  0  0
  -19.3560  -25.9052   27.2509 C   0  0  0  0  0  0  0  0  0  0  0  0
  -20.9156  -21.5887   22.9353 C   0  0  0  0  0  0  0  0  0  1  0  0
  -20.5666  -22.5199   24.0801 C   0  0  0  0  0  0  0  0  0  0  0  0
  -28.6957  -19.6065   19.5163 C   0  0  1  0  0  0  0  0  0  0  0  0
  -28.6896  -22.5115   17.0810 C   0  0  2  0  0  0  0  0  0  0  0  0
  -30.0255  -19.0904   20.1348 C   0  0  0  0  0  0  0  0  0  0  0  0
  -22.4957  -26.6211   21.3123 N   0  0  0  0  0  0  0  0  0  0  0  0
  -20.0247  -23.7993   26.3065 N   0  0  0  0  0  0  0  0  0  0  0  0
  -21.3112  -25.9969   21.1964 N   0  0  0  0  0  0  0  0  0  0  0  0
  -26.5443  -18.3889   19.6307 N   0  0  0  0  0  0  0  0  0  0  0  0
  -19.3370  -27.7014   23.9903 N   0  0  0  0  0  0  0  0  0  0  0  0
  -20.2362  -24.1647   20.1484 N   0  0  0  0  0  0  0  0  0  0  0  0
  -24.4917  -23.8624   18.6668 N   0  0  0  0  0  0  0  0  0  0  0  0
  -25.3037  -15.0311   20.3251 N   0  0  0  0  0  0  0  0  0  0  0  0
  -28.8737  -20.5015   18.3780 N   0  0  0  0  0  0  0  0  0  0  0  0
  -19.6784  -26.3857   25.9258 N   0  0  0  0  0  0  0  0  0  0  0  0
  -27.4360  -22.8448   16.3473 N   0  3  0  0  0  0  0  0  0  0  0  0
  -22.4081  -22.9116   18.5517 O   0  0  0  0  0  0  0  0  0  0  0  0
  -26.7019  -16.5511   21.4008 O   0  0  0  0  0  0  0  0  0  0  0  0
  -28.2239  -17.7197   18.1585 O   0  0  0  0  0  0  0  0  0  0  0  0
  -27.7318  -22.3023   19.2892 O   0  0  0  0  0  0  0  0  0  0  0  0
  -17.8948  -27.8211   25.8024 O   0  0  0  0  0  0  0  0  0  0  0  0
  -28.6877  -27.2830   19.9816 O   0  0  0  0  0  0  0  0  0  0  0  0
  -22.2396  -21.0916   23.1261 O   0  0  0  0  0  0  0  0  0  1  0  0
  -20.6663  -21.8062   25.3065 O   0  0  0  0  0  0  0  0  0  0  0  0
  -29.8991  -32.5998   19.1644 F   0  0  0  0  0  0  0  0  0  0  0  0
  -27.9789  -29.2013   21.8418 F   0  0  0  0  0  0  0  0  0  0  0  0
  -19.4255  -24.8138   30.1307 Cl  0  0  0  0  0  0  0  0  0  0  0  0
  1  2  1  0  0  0  0
  1  5  2  0  0  0  0
  2  6  2  0  0  0  0
  3  8  2  0  0  0  0
  3 17  1  0  0  0  0
  4  9  1  0  0  0  0
  4 17  2  0  0  0  0
  5 19  1  0  0  0  0
  6 21  1  0  0  0  0
  7 10  2  0  0  0  0
  7 20  1  0  0  0  0
  8 23  1  0  0  0  0
  9 23  2  0  0  0  0
 10 24  1  0  0  0  0
 11 12  2  0  0  0  0
 11 25  1  0  0  0  0
 12 26  1  0  0  0  0
 13 14  2  0  0  0  0
 13 28  1  0  0  0  0
 14 31  1  0  0  0  0
 15 22  1  0  0  0  0
 15 24  2  0  0  0  0
 16 26  2  0  0  0  0
 16 27  1  0  0  0  0
 17 29  1  0  0  0  0
 18 29  1  0  0  0  0
 18 32  2  0  0  0  0
 18 33  1  0  0  0  0
 19 21  2  0  0  0  0
 19 38  1  0  0  0  0
 20 22  2  0  0  0  0
 20 39  1  0  0  0  0
 21 47  1  0  0  0  0
 22 40  1  0  0  0  0
 23 77  1  0  0  0  0
 24 78  1  0  0  0  0
 25 27  2  0  0  0  0
 25 77  1  0  0  0  0
 26 80  1  0  0  0  0
 27 81  1  0  0  0  0
 28 30  2  0  0  0  0
 28 82  1  0  0  0  0
 29 61  2  0  0  0  0
 30 55  1  0  0  0  0
 30 62  1  0  0  0  0
 31 62  2  0  0  0  0
 31 79  1  0  0  0  0
 32 63  1  0  0  0  0
 32 66  1  0  0  0  0
 33 67  1  0  0  0  0
 33 72  2  0  0  0  0
 34 48  1  0  0  0  0
 34 68  1  0  0  0  0
 34 73  2  0  0  0  0
 35 58  1  0  0  0  0
 35 64  1  0  0  0  0
 35 74  2  0  0  0  0
 36 59  1  0  0  0  0
 36 69  1  0  0  0  0
 36 75  2  0  0  0  0
 37 65  1  0  0  0  0
 37 70  1  0  0  0  0
 37 76  2  0  0  0  0
 38 41  1  0  0  0  0
 39 48  1  0  0  0  0
 40 64  1  0  0  0  0
 41 43  1  0  0  0  0
 42 44  1  0  0  0  0
 42 45  1  0  0  0  0
 43 47  1  0  0  0  0
 44 49  1  0  0  0  0
 45 65  1  0  0  0  0
 46 49  1  0  0  0  0
 46 65  1  0  0  0  0
 47 68  1  0  0  0  0
 48 64  1  0  0  0  0
 49 63  1  0  0  0  0
 50 59  1  0  0  0  0
 51 60  1  0  0  0  0
 52 60  1  0  0  0  0
 53 60  1  0  0  0  0
 54 71  1  0  0  0  0
 55 70  1  0  0  0  0
 56 57  1  0  0  0  0
 56 78  1  0  0  0  0
 57 79  1  0  0  0  0
 58 60  1  0  0  0  0
 58 69  1  0  0  0  0
 59 71  1  0  0  0  0
 61 63  1  0  0  0  0
M  CHG  1  71   1
M  ISO  4  37 100  56 101  70 100  78 101
M  END
> <Batch ID>
0107

> <Smiles>
CNC(C)C(=O)NC(C(=O)N1Cc2cc([101O:1][101CH2:1]COc3ccc(Cl)c(C[100NH:0][100C:0](=O)N4CCCC(n5nc(-c6ccc(Oc7ccc(F)cc7F)cc6)c(C(N)=O)c5N)C4)n3)ccc2CC1C(=O)NC1CCCc2ccccc21)C(C)(C)C

> <Shape>
0.186

> <Color>
0.073

> <Negative vol penalty>
0.000

$$$$

  -OEChem-04052319512D

  0  0  0     0  0  0  0  0  0999 V2000
M  END
$$$$

  -OEChem-04052319513D

 89 97  0     1  0  0  0  0  0999 V2000
  -30.4158  -26.9923   26.2068 C   0  0  0  0  0  0  0  0  0  0  0  0
  -31.2251  -25.8618   26.1575 C   0  0  0  0  0  0  0  0  0  0  0  0
  -23.2812   -9.8181   19.9050 C   0  0  0  0  0  0  0  0  0  0  0  0
  -23.6707   -9.9808   22.2838 C   0  0  0  0  0  0  0  0  0  0  0  0
  -29.1815  -26.9935   25.5583 C   0  0  0  0  0  0  0  0  0  0  0  0
  -30.8001  -24.7313   25.4604 C   0  0  0  0  0  0  0  0  0  0  0  0
  -34.3018  -20.8131   22.3154 C   0  0  0  0  0  0  0  0  0  0  0  0
  -22.5634   -8.6387   20.1032 C   0  0  0  0  0  0  0  0  0  0  0  0
  -22.9529   -8.8014   22.4820 C   0  0  0  0  0  0  0  0  0  0  0  0
  -34.8362  -19.5663   22.6372 C   0  0  0  0  0  0  0  0  0  0  0  0
  -23.4863   -5.4776   22.1678 C   0  0  0  0  0  0  0  0  0  0  0  0
  -24.0299   -4.5251   23.0297 C   0  0  0  0  0  0  0  0  0  0  0  0
  -32.9717  -18.4923   21.5466 C   0  0  0  0  0  0  0  0  0  0  0  0
  -22.0756   -4.6866   24.4409 C   0  0  0  0  0  0  0  0  0  0  0  0
  -34.2368  -11.0337   18.9277 C   0  0  0  0  0  0  0  0  0  0  0  0
  -23.8349  -10.4892   20.9953 C   0  0  0  0  0  0  0  0  0  0  0  0
  -24.0701  -13.0206   20.7846 C   0  0  0  0  0  0  0  0  0  0  0  0
  -28.7455  -25.8659   24.8448 C   0  0  0  0  0  0  0  0  0  0  0  0
  -33.0907  -20.9091   21.6150 C   0  0  0  0  0  0  0  0  0  0  0  0
  -29.5583  -24.7170   24.8028 C   0  0  0  0  0  0  0  0  0  0  0  0
  -32.4253  -19.7415   21.2149 C   0  0  0  0  0  0  0  0  0  0  0  0
  -33.9349  -12.2865   19.4142 C   0  0  0  0  0  0  0  0  0  0  0  0
  -32.9761  -12.1207   20.4439 C   0  0  0  0  0  0  0  0  0  0  0  0
  -22.3992   -8.1303   21.3917 C   0  0  0  0  0  0  0  0  0  0  0  0
  -34.1697  -18.4057   22.2554 C   0  0  0  0  0  0  0  0  0  0  0  0
  -22.2373   -6.0347   22.4425 C   0  0  0  0  0  0  0  0  0  0  0  0
  -23.3246   -4.1296   24.1662 C   0  0  0  0  0  0  0  0  0  0  0  0
  -21.5320   -5.6392   23.5790 C   0  0  0  0  0  0  0  0  0  0  0  0
  -24.5770  -11.7072   20.7912 C   0  0  0  0  0  0  0  0  0  0  0  0
  -32.7213  -10.7715   20.5553 C   0  0  0  0  0  0  0  0  0  0  0  0
  -25.1686  -13.8114   20.5515 C   0  0  0  0  0  0  0  0  0  0  0  0
  -22.7264  -13.4841   20.9725 C   0  0  0  0  0  0  0  0  0  0  0  0
  -30.2268  -22.1363   22.2443 C   0  0  0  0  0  0  0  0  0  0  0  0
  -30.9350  -12.8798   21.6264 C   0  0  0  0  0  0  0  0  0  0  0  0
  -29.6464  -21.3641   19.1477 C   0  0  0  0  0  0  0  0  0  0  0  0
  -30.4256  -19.4235   16.4506 C   0  0  0  0  0  0  0  0  0  0  0  0
  -27.3828  -25.8976   24.1993 C   0  0  0  0  0  0  0  0  0  0  0  0
  -32.5411  -22.2614   21.2522 C   0  0  0  0  0  0  0  0  0  0  0  0
  -31.1324  -19.7902   20.4438 C   0  0  0  0  0  0  0  0  0  0  0  0
  -27.1712  -24.7917   23.1685 C   0  0  0  0  0  0  0  0  0  0  0  0
  -29.4470  -13.7592   18.4264 C   0  0  0  0  0  0  0  0  0  0  0  0
  -27.6428  -23.4501   23.7204 C   0  0  0  0  0  0  0  0  0  0  0  0
  -27.9769  -13.4207   18.6697 C   0  0  0  0  0  0  0  0  0  0  0  0
  -30.3742  -12.7852   19.1488 C   0  0  0  0  0  0  0  0  0  0  0  0
  -28.6440  -12.3429   20.8620 C   0  0  0  0  0  0  0  0  0  0  0  0
  -29.1431  -23.4801   24.0361 C   0  0  1  0  0  0  0  0  0  0  0  0
  -31.0392  -22.2439   20.9849 C   0  0  1  0  0  0  0  0  0  0  0  0
  -27.6754  -13.3203   20.1752 C   0  0  2  0  0  0  0  0  0  0  0  0
  -31.8097  -10.0448   21.4642 C   0  0  0  0  0  0  0  0  0  0  0  0
  -33.1419  -13.5314   22.5355 C   0  0  0  0  0  0  0  0  0  0  0  0
  -29.7528  -18.9962   14.0711 C   0  0  0  0  0  0  0  0  0  0  0  0
  -32.4268   -6.6420   18.3799 C   0  0  0  0  0  0  0  0  0  0  0  0
  -32.3000   -8.8617   17.2297 C   0  0  0  0  0  0  0  0  0  0  0  0
  -36.6129  -14.6835   18.0709 C   0  0  0  0  0  0  0  0  0  0  0  0
  -27.1875  -19.8408   20.1190 C   0  0  0  0  0  0  0  0  0  0  0  0
  -27.1143  -18.6832   17.9002 C   0  0  0  0  0  0  0  0  0  0  0  0
  -26.8373  -21.1592   18.0229 C   0  0  0  0  0  0  0  0  0  0  0  0
  -33.1003  -20.1822   15.4362 C   0  0  0  0  0  0  0  0  0  0  0  0
  -34.5210  -13.5833   18.9328 C   0  0  0  0  0  0  0  0  0  0  0  0
  -33.5311   -8.6913   19.4101 C   0  0  0  0  0  0  0  0  0  0  0  0
  -36.5462  -15.6771   22.3419 C   0  0  0  0  0  0  0  0  0  0  0  0
  -36.5378  -13.9818   20.5075 C   0  0  0  0  0  0  0  0  0  0  0  0
  -36.1093  -17.0921   22.6657 C   0  0  0  0  0  0  0  0  0  1  0  0
  -32.3611  -13.1948   21.2508 C   0  0  1  0  0  0  0  0  0  0  0  0
  -29.1171  -20.1454   18.4309 C   0  0  1  0  0  0  0  0  0  0  0  0
  -30.6757  -19.7753   14.9953 C   0  0  2  0  0  0  0  0  0  0  0  0
  -32.3462   -8.1561   18.5866 C   0  0  0  0  0  0  0  0  0  0  0  0
  -36.0561  -13.6731   19.0814 C   0  0  2  0  0  0  0  0  0  0  0  0
  -27.5874  -19.9559   18.6345 C   0  0  0  0  0  0  0  0  0  0  0  0
  -25.8950  -11.6622   20.5790 N   0  0  0  0  0  0  0  0  0  0  0  0
  -33.4935  -10.1206   19.6290 N   0  0  0  0  0  0  0  0  0  0  0  0
  -26.2254  -12.9570   20.4368 N   0  0  0  0  0  0  0  0  0  0  0  0
  -30.6322  -21.1360   20.1182 N   0  0  0  0  0  0  0  0  0  0  0  0
  -30.0368  -12.6974   20.5746 N   0  0  0  0  0  0  0  0  0  0  0  0
  -25.3238  -15.1474   20.4354 N   0  0  0  0  0  0  0  0  0  0  0  0
  -21.7188  -12.5372   21.2015 N   0  0  0  0  0  0  0  0  0  0  0  0
  -29.9180  -23.3538   22.8204 N   0  0  0  0  0  0  0  0  0  0  0  0
  -29.5216  -20.2846   17.0361 N   0  0  0  0  0  0  0  0  0  0  0  0
  -32.0850  -19.4655   14.6224 N   0  3  0  0  0  0  0  0  0  0  0  0
  -36.1367  -15.3432   20.9544 N   0  3  0  0  0  0  0  0  0  0  0  0
  -22.4254  -14.7008   20.9220 O   0  0  0  0  0  0  0  0  0  0  0  0
  -29.9027  -21.0306   22.6616 O   0  0  0  0  0  0  0  0  0  0  0  0
  -30.6299  -12.8014   22.8192 O   0  0  0  0  0  0  0  0  0  0  0  0
  -29.2066  -22.4780   18.8521 O   0  0  0  0  0  0  0  0  0  0  0  0
  -30.9742  -18.4772   17.0110 O   0  0  0  0  0  0  0  0  0  0  0  0
  -21.6986   -6.9796   21.5854 O   0  0  0  0  0  0  0  0  0  0  0  0
  -34.6888  -17.1874   22.5688 O   0  0  0  0  0  0  0  0  0  1  0  0
  -23.8461   -3.2138   24.9930 F   0  0  0  0  0  0  0  0  0  0  0  0
  -20.3311   -6.1699   23.8476 F   0  0  0  0  0  0  0  0  0  0  0  0
  1  2  1  0  0  0  0
  1  5  2  0  0  0  0
  2  6  2  0  0  0  0
  3  8  2  0  0  0  0
  3 16  1  0  0  0  0
  4  9  1  0  0  0  0
  4 16  2  0  0  0  0
  5 18  1  0  0  0  0
  6 20  1  0  0  0  0
  7 10  2  0  0  0  0
  7 19  1  0  0  0  0
  8 24  1  0  0  0  0
  9 24  2  0  0  0  0
 10 25  1  0  0  0  0
 11 12  2  0  0  0  0
 11 26  1  0  0  0  0
 12 27  1  0  0  0  0
 13 21  1  0  0  0  0
 13 25  2  0  0  0  0
 14 27  2  0  0  0  0
 14 28  1  0  0  0  0
 15 22  2  0  0  0  0
 15 71  1  0  0  0  0
 16 29  1  0  0  0  0
 17 29  1  0  0  0  0
 17 31  2  0  0  0  0
 17 32  1  0  0  0  0
 18 20  2  0  0  0  0
 18 37  1  0  0  0  0
 19 21  2  0  0  0  0
 19 38  1  0  0  0  0
 20 46  1  0  0  0  0
 21 39  1  0  0  0  0
 22 23  1  0  0  0  0
 22 59  1  0  0  0  0
 23 30  2  0  0  0  0
 23 64  1  0  0  0  0
 24 86  1  0  0  0  0
 25 87  1  0  0  0  0
 26 28  2  0  0  0  0
 26 86  1  0  0  0  0
 27 88  1  0  0  0  0
 28 89  1  0  0  0  0
 29 70  2  0  0  0  0
 30 49  1  0  0  0  0
 30 71  1  0  0  0  0
 31 72  1  0  0  0  0
 31 75  1  0  0  0  0
 32 76  1  0  0  0  0
 32 81  2  0  0  0  0
 33 47  1  0  0  0  0
 33 77  1  0  0  0  0
 33 82  2  0  0  0  0
 34 64  1  0  0  0  0
 34 74  1  0  0  0  0
 34 83  2  0  0  0  0
 35 65  1  0  0  0  0
 35 73  1  0  0  0  0
 35 84  2  0  0  0  0
 36 66  1  0  0  0  0
 36 78  1  0  0  0  0
 36 85  2  0  0  0  0
 37 40  1  0  0  0  0
 38 47  1  0  0  0  0
 39 73  1  0  0  0  0
 40 42  1  0  0  0  0
 41 43  1  0  0  0  0
 41 44  1  0  0  0  0
 42 46  1  0  0  0  0
 43 48  1  0  0  0  0
 44 74  1  0  0  0  0
 45 48  1  0  0  0  0
 45 74  1  0  0  0  0
 46 77  1  0  0  0  0
 47 73  1  0  0  0  0
 48 72  1  0  0  0  0
 50 64  1  0  0  0  0
 51 66  1  0  0  0  0
 52 67  1  0  0  0  0
 53 67  1  0  0  0  0
 54 68  1  0  0  0  0
 55 69  1  0  0  0  0
 56 69  1  0  0  0  0
 57 69  1  0  0  0  0
 58 79  1  0  0  0  0
 59 68  1  0  0  0  0
 60 67  1  0  0  0  0
 60 71  1  0  0  0  0
 61 63  1  0  0  0  0
 61 80  1  0  0  0  0
 62 68  1  0  0  0  0
 62 80  1  0  0  0  0
 63 87  1  0  0  0  0
 65 69  1  0  0  0  0
 65 78  1  0  0  0  0
 66 79  1  0  0  0  0
 70 72  1  0  0  0  0
M  CHG  2  79   1  80   1
M  ISO  4  34 100  63 101  64 100  87 101
M  END
> <Batch ID>
0107

> <Smiles>
CNC(C)C(=O)NC(C(=O)N1Cc2cc([101O:1][101CH2:1]CNCC(C)Cc3cn(CC(C)C)c(C)c3[100CH:0](C)[100C:0](=O)N3CCCC(n4nc(-c5ccc(Oc6ccc(F)cc6F)cc5)c(C(N)=O)c4N)C3)ccc2CC1C(=O)NC1CCCc2ccccc21)C(C)(C)C

> <Shape>
0.175

> <Color>
0.188

> <Negative vol penalty>
0.000

$$$$

  -OEChem-04052319513D

 87 95  0     1  0  0  0  0  0999 V2000
  -27.5025  -31.6527   20.9281 C   0  0  0  0  0  0  0  0  0  0  0  0
  -27.4613  -30.3010   20.6016 C   0  0  0  0  0  0  0  0  0  0  0  0
  -23.1380   -9.8005   20.0171 C   0  0  0  0  0  0  0  0  0  0  0  0
  -23.8630   -9.9512   22.3168 C   0  0  0  0  0  0  0  0  0  0  0  0
  -28.2087  -32.5427   20.1200 C   0  0  0  0  0  0  0  0  0  0  0  0
  -28.1256  -29.8386   19.4661 C   0  0  0  0  0  0  0  0  0  0  0  0
  -30.7343  -25.5866   20.3379 C   0  0  0  0  0  0  0  0  0  0  0  0
  -22.4239   -8.6408   20.3182 C   0  0  0  0  0  0  0  0  0  0  0  0
  -23.1488   -8.7914   22.6179 C   0  0  0  0  0  0  0  0  0  0  0  0
  -30.0114  -24.3957   20.3911 C   0  0  0  0  0  0  0  0  0  0  0  0
  -19.4783   -7.8357   21.7702 C   0  0  0  0  0  0  0  0  0  0  0  0
  -18.1807   -7.7254   21.2706 C   0  0  0  0  0  0  0  0  0  0  0  0
  -32.4252  -21.1329   21.2832 C   0  0  0  0  0  0  0  0  0  0  0  0
  -31.1693  -21.5944   21.7487 C   0  0  0  0  0  0  0  0  0  0  0  0
  -30.6743  -23.8991   18.1255 C   0  0  0  0  0  0  0  0  0  0  0  0
  -18.8156   -5.7325   20.0614 C   0  0  0  0  0  0  0  0  0  0  0  0
  -23.8577  -10.4557   21.0164 C   0  0  0  0  0  0  0  0  0  0  0  0
  -24.1287  -12.9799   20.7666 C   0  0  0  0  0  0  0  0  0  0  0  0
  -28.8900  -32.0895   18.9793 C   0  0  0  0  0  0  0  0  0  0  0  0
  -31.4249  -25.9486   19.1723 C   0  0  0  0  0  0  0  0  0  0  0  0
  -28.8405  -30.7236   18.6412 C   0  0  0  0  0  0  0  0  0  0  0  0
  -31.4074  -25.0939   18.0609 C   0  0  0  0  0  0  0  0  0  0  0  0
  -22.4292   -8.1363   21.6186 C   0  0  0  0  0  0  0  0  0  0  0  0
  -29.9790  -23.5531   19.2838 C   0  0  0  0  0  0  0  0  0  0  0  0
  -20.4446   -6.8944   21.4153 C   0  0  0  0  0  0  0  0  0  0  0  0
  -17.8493   -6.6738   20.4162 C   0  0  0  0  0  0  0  0  0  0  0  0
  -20.1133   -5.8428   20.5610 C   0  0  0  0  0  0  0  0  0  0  0  0
  -24.5961  -11.6534   20.7059 C   0  0  0  0  0  0  0  0  0  0  0  0
  -32.2498  -19.8409   20.8391 C   0  0  0  0  0  0  0  0  0  0  0  0
  -30.2647  -20.5703   21.5752 C   0  0  0  0  0  0  0  0  0  0  0  0
  -25.2042  -13.7410   20.3786 C   0  0  0  0  0  0  0  0  0  0  0  0
  -22.8378  -13.4796   21.1403 C   0  0  0  0  0  0  0  0  0  0  0  0
  -31.2436  -28.3666   17.1171 C   0  0  0  0  0  0  0  0  0  0  0  0
  -33.8980  -26.9882   15.8616 C   0  0  0  0  0  0  0  0  0  0  0  0
  -35.7836  -24.1731   15.4534 C   0  0  0  0  0  0  0  0  0  0  0  0
  -30.6531  -14.9295   20.5859 C   0  0  0  0  0  0  0  0  0  0  0  0
  -29.6007  -33.0966   18.1102 C   0  0  0  0  0  0  0  0  0  0  0  0
  -32.2220  -27.2238   19.1401 C   0  0  0  0  0  0  0  0  0  0  0  0
  -32.1485  -25.4269   16.7927 C   0  0  0  0  0  0  0  0  0  0  0  0
  -30.5889  -32.4670   17.1318 C   0  0  0  0  0  0  0  0  0  0  0  0
  -29.6202  -12.3896   18.3146 C   0  0  0  0  0  0  0  0  0  0  0  0
  -29.9543  -31.2724   16.4267 C   0  0  0  0  0  0  0  0  0  0  0  0
  -28.1854  -12.0770   18.7432 C   0  0  0  0  0  0  0  0  0  0  0  0
  -30.5125  -12.7005   19.5142 C   0  0  0  0  0  0  0  0  0  0  0  0
  -28.5700  -13.4476   20.8342 C   0  0  0  0  0  0  0  0  0  0  0  0
  -29.5689  -30.1798   17.4313 C   0  0  1  0  0  0  0  0  0  0  0  0
  -32.4663  -27.7401   17.7255 C   0  0  1  0  0  0  0  0  0  0  0  0
  -27.6190  -13.1824   19.6546 C   0  0  2  0  0  0  0  0  0  0  0  0
  -34.3713  -18.5379   21.2334 C   0  0  0  0  0  0  0  0  0  0  0  0
  -33.8335  -19.4030   18.9275 C   0  0  0  0  0  0  0  0  0  0  0  0
  -37.8791  -23.3492   14.3455 C   0  0  0  0  0  0  0  0  0  0  0  0
  -26.9229  -22.8523   19.3695 C   0  0  0  0  0  0  0  0  0  0  0  0
  -28.4712  -21.4267   23.1057 C   0  0  0  0  0  0  0  0  0  0  0  0
  -32.4677  -26.9820   13.1664 C   0  0  0  0  0  0  0  0  0  0  0  0
  -34.1662  -25.3350   12.3474 C   0  0  0  0  0  0  0  0  0  0  0  0
  -34.8852  -27.6139   13.0630 C   0  0  0  0  0  0  0  0  0  0  0  0
  -36.9968  -23.4207   18.0459 C   0  0  0  0  0  0  0  0  0  0  0  0
  -27.8869  -20.9350   20.6957 C   0  0  0  0  0  0  0  0  0  0  0  0
  -30.3380  -18.2338   20.6821 C   0  0  0  0  0  0  0  0  0  0  0  0
  -30.6387  -17.1434   21.7072 C   0  0  0  0  0  0  0  0  0  0  0  0
  -33.2281  -18.8988   20.2575 C   0  0  0  0  0  0  0  0  0  0  0  0
  -34.1615  -25.9367   14.8109 C   0  0  1  0  0  0  0  0  0  0  0  0
  -37.2725  -23.9258   15.6153 C   0  0  2  0  0  0  0  0  0  0  0  0
  -28.1218  -22.3645   20.1749 C   0  0  1  0  0  0  0  0  0  1  0  0
  -28.7725  -20.5160   21.9022 C   0  0  1  0  0  0  0  0  0  0  0  0
  -33.9045  -26.4613   13.3700 C   0  0  0  0  0  0  0  0  0  0  0  0
  -25.8693  -11.5728   20.3104 N   0  0  0  0  0  0  0  0  0  0  0  0
  -30.9327  -19.5093   21.0218 N   0  0  0  0  0  0  0  0  0  0  0  0
  -26.2111  -12.8583   20.1189 N   0  0  0  0  0  0  0  0  0  0  0  0
  -32.9083  -26.6878   16.8082 N   0  0  0  0  0  0  0  0  0  0  0  0
  -29.9195  -13.7578   20.3366 N   0  0  0  0  0  0  0  0  0  0  0  0
  -25.3774  -15.0723   20.2375 N   0  0  0  0  0  0  0  0  0  0  0  0
  -21.8475  -12.5601   21.5120 N   0  0  0  0  0  0  0  0  0  0  0  0
  -30.7391  -29.4319   17.8384 N   0  0  0  0  0  0  0  0  0  0  0  0
  -35.5219  -25.4623   15.0403 N   0  0  0  0  0  0  0  0  0  0  0  0
  -30.0150  -15.8835   21.3691 N   0  0  0  0  0  0  0  0  0  0  0  0
  -37.5205  -22.9693   16.7310 N   0  3  0  0  0  0  0  0  0  0  0  0
  -22.5656  -14.7040   21.1288 O   0  0  0  0  0  0  0  0  0  0  0  0
  -30.7922  -27.9178   16.0700 O   0  0  0  0  0  0  0  0  0  0  0  0
  -34.5514  -28.0344   15.8474 O   0  0  0  0  0  0  0  0  0  0  0  0
  -34.9374  -23.3079   15.6681 O   0  0  0  0  0  0  0  0  0  0  0  0
  -31.7902  -15.1141   20.1389 O   0  0  0  0  0  0  0  0  0  0  0  0
  -28.3960  -19.1938   22.3054 O   0  0  0  0  0  0  0  0  0  0  0  0
  -21.7323   -7.0048   21.9128 O   0  0  0  0  0  0  0  0  0  0  0  0
  -29.2736  -22.3904   19.3329 O   0  0  0  0  0  0  0  0  0  1  0  0
  -16.6028   -6.5672   19.9378 F   0  0  0  0  0  0  0  0  0  0  0  0
  -21.0370   -4.9347   20.2175 F   0  0  0  0  0  0  0  0  0  0  0  0
  1  2  1  0  0  0  0
  1  5  2  0  0  0  0
  2  6  2  0  0  0  0
  3  8  2  0  0  0  0
  3 17  1  0  0  0  0
  4  9  1  0  0  0  0
  4 17  2  0  0  0  0
  5 19  1  0  0  0  0
  6 21  1  0  0  0  0
  7 10  2  0  0  0  0
  7 20  1  0  0  0  0
  8 23  1  0  0  0  0
  9 23  2  0  0  0  0
 10 24  1  0  0  0  0
 11 12  2  0  0  0  0
 11 25  1  0  0  0  0
 12 26  1  0  0  0  0
 13 14  1  0  0  0  0
 13 29  2  0  0  0  0
 14 30  2  0  0  0  0
 15 22  1  0  0  0  0
 15 24  2  0  0  0  0
 16 26  2  0  0  0  0
 16 27  1  0  0  0  0
 17 28  1  0  0  0  0
 18 28  1  0  0  0  0
 18 31  2  0  0  0  0
 18 32  1  0  0  0  0
 19 21  2  0  0  0  0
 19 37  1  0  0  0  0
 20 22  2  0  0  0  0
 20 38  1  0  0  0  0
 21 46  1  0  0  0  0
 22 39  1  0  0  0  0
 23 84  1  0  0  0  0
 24 85  1  0  0  0  0
 25 27  2  0  0  0  0
 25 84  1  0  0  0  0
 26 86  1  0  0  0  0
 27 87  1  0  0  0  0
 28 67  2  0  0  0  0
 29 61  1  0  0  0  0
 29 68  1  0  0  0  0
 30 65  1  0  0  0  0
 30 68  1  0  0  0  0
 31 69  1  0  0  0  0
 31 72  1  0  0  0  0
 32 73  1  0  0  0  0
 32 78  2  0  0  0  0
 33 47  1  0  0  0  0
 33 74  1  0  0  0  0
 33 79  2  0  0  0  0
 34 62  1  0  0  0  0
 34 70  1  0  0  0  0
 34 80  2  0  0  0  0
 35 63  1  0  0  0  0
 35 75  1  0  0  0  0
 35 81  2  0  0  0  0
 36 71  1  0  0  0  0
 36 76  1  0  0  0  0
 36 82  2  0  0  0  0
 37 40  1  0  0  0  0
 38 47  1  0  0  0  0
 39 70  1  0  0  0  0
 40 42  1  0  0  0  0
 41 43  1  0  0  0  0
 41 44  1  0  0  0  0
 42 46  1  0  0  0  0
 43 48  1  0  0  0  0
 44 71  1  0  0  0  0
 45 48  1  0  0  0  0
 45 71  1  0  0  0  0
 46 74  1  0  0  0  0
 47 70  1  0  0  0  0
 48 69  1  0  0  0  0
 49 61  1  0  0  0  0
 50 61  1  0  0  0  0
 51 63  1  0  0  0  0
 52 64  1  0  0  0  0
 53 65  1  0  0  0  0
 54 66  1  0  0  0  0
 55 66  1  0  0  0  0
 56 66  1  0  0  0  0
 57 77  1  0  0  0  0
 58 64  1  0  0  0  0
 58 65  1  0  0  0  0
 59 60  1  0  0  0  0
 59 68  1  0  0  0  0
 60 76  1  0  0  0  0
 62 66  1  0  0  0  0
 62 75  1  0  0  0  0
 63 77  1  0  0  0  0
 64 85  1  0  0  0  0
 65 83  1  0  0  0  0
 67 69  1  0  0  0  0
M  CHG  1  77   1
M  ISO  4  36 100  64 101  76 100  85 101
M  END
> <Batch ID>
0107

> <Smiles>
CNC(C)C(=O)NC(C(=O)N1Cc2cc([101O:1][101CH:1](C)CC(C)(O)c3ccc(C(C)C)n3CC[100NH:0][100C:0](=O)N3CCCC(n4nc(-c5ccc(Oc6ccc(F)cc6F)cc5)c(C(N)=O)c4N)C3)ccc2CC1C(=O)NC1CCCc2ccccc21)C(C)(C)C

> <Shape>
0.227

> <Color>
0.196

> <Negative vol penalty>
0.000

$$$$

  -OEChem-04052319513D

 82 89  0     1  0  0  0  0  0999 V2000
  -23.6759   -6.5683   24.4015 C   0  0  0  0  0  0  0  0  0  0  0  0
  -24.8141   -7.3667   24.4528 C   0  0  0  0  0  0  0  0  0  0  0  0
  -25.1110  -30.5863   22.8828 C   0  0  0  0  0  0  0  0  0  0  0  0
  -27.5186  -30.3919   22.9367 C   0  0  0  0  0  0  0  0  0  0  0  0
  -22.7756   -6.7070   23.3460 C   0  0  0  0  0  0  0  0  0  0  0  0
  -25.0531   -8.3035   23.4480 C   0  0  0  0  0  0  0  0  0  0  0  0
  -27.6916  -13.7933   24.0853 C   0  0  0  0  0  0  0  0  0  0  0  0
  -25.1404  -31.2846   24.0899 C   0  0  0  0  0  0  0  0  0  0  0  0
  -27.5479  -31.0903   24.1438 C   0  0  0  0  0  0  0  0  0  0  0  0
  -28.9924  -14.2409   23.8586 C   0  0  0  0  0  0  0  0  0  0  0  0
  -28.2866  -33.1358   27.0573 C   0  0  0  0  0  0  0  0  0  0  0  0
  -29.2415  -34.1422   27.2021 C   0  0  0  0  0  0  0  0  0  0  0  0
  -28.3392  -15.0111   21.6679 C   0  0  0  0  0  0  0  0  0  0  0  0
  -28.2943  -35.3127   25.3128 C   0  0  0  0  0  0  0  0  0  0  0  0
  -26.3002  -30.1399   22.3062 C   0  0  0  0  0  0  0  0  0  0  0  0
  -26.3434  -29.9591   19.7620 C   0  0  0  0  0  0  0  0  0  0  0  0
  -22.9988   -7.6527   22.3328 C   0  0  0  0  0  0  0  0  0  0  0  0
  -26.7058  -13.9418   23.0991 C   0  0  0  0  0  0  0  0  0  0  0  0
  -24.1556   -8.4541   22.3773 C   0  0  0  0  0  0  0  0  0  0  0  0
  -27.0260  -14.5670   21.8855 C   0  0  0  0  0  0  0  0  0  0  0  0
  -26.3588  -31.5366   24.7204 C   0  0  0  0  0  0  0  0  0  0  0  0
  -29.3171  -14.8472   22.6487 C   0  0  0  0  0  0  0  0  0  0  0  0
  -27.3356  -33.2178   26.0402 C   0  0  0  0  0  0  0  0  0  0  0  0
  -29.2453  -35.2307   26.3299 C   0  0  0  0  0  0  0  0  0  0  0  0
  -27.3394  -34.3063   25.1679 C   0  0  0  0  0  0  0  0  0  0  0  0
  -26.2705  -29.4180   21.0596 C   0  0  0  0  0  0  0  0  0  0  0  0
  -26.2748  -28.8679   18.9307 C   0  0  0  0  0  0  0  0  0  0  0  0
  -26.4627  -31.3258   19.3454 C   0  0  0  0  0  0  0  0  0  0  0  0
  -24.9027  -11.9413   21.4108 C   0  0  0  0  0  0  0  0  0  0  0  0
  -23.5142  -14.6838   20.3749 C   0  0  0  0  0  0  0  0  0  0  0  0
  -23.7786  -18.0451   19.8471 C   0  0  0  0  0  0  0  0  0  0  0  0
  -27.6480  -23.0868   19.6687 C   0  0  0  0  0  0  0  0  0  0  0  0
  -22.0214   -7.7335   21.1870 C   0  0  0  0  0  0  0  0  0  0  0  0
  -25.3008  -13.4778   23.3695 C   0  0  0  0  0  0  0  0  0  0  0  0
  -25.9993  -14.7686   20.8022 C   0  0  0  0  0  0  0  0  0  0  0  0
  -22.1563   -9.0095   20.3601 C   0  0  0  0  0  0  0  0  0  0  0  0
  -24.4935  -24.4328   18.7127 C   0  0  0  0  0  0  0  0  0  0  0  0
  -23.6218   -9.2847   20.0383 C   0  0  0  0  0  0  0  0  0  0  0  0
  -24.5978  -25.9119   19.0887 C   0  0  0  0  0  0  0  0  0  0  0  0
  -25.2136  -23.5417   19.7224 C   0  0  0  0  0  0  0  0  0  0  0  0
  -26.7246  -25.3839   20.3522 C   0  0  0  0  0  0  0  0  0  0  0  0
  -24.4371   -9.4988   21.3193 C   0  0  1  0  0  0  0  0  0  0  0  0
  -24.5022  -13.2171   22.0960 C   0  0  1  0  0  0  0  0  0  0  0  0
  -26.0612  -26.3264   19.3335 C   0  0  2  0  0  0  0  0  0  0  0  0
  -22.4928  -20.0060   18.9533 C   0  0  0  0  0  0  0  0  0  0  0  0
  -29.8632  -21.9317   22.0787 C   0  0  0  0  0  0  0  0  0  0  0  0
  -24.0376  -13.7253   17.5259 C   0  0  0  0  0  0  0  0  0  0  0  0
  -23.6257  -16.0655   16.7372 C   0  0  0  0  0  0  0  0  0  0  0  0
  -21.8039  -14.7950   17.8728 C   0  0  0  0  0  0  0  0  0  0  0  0
  -31.3367  -23.6763   19.9591 C   0  0  0  0  0  0  0  0  0  0  0  0
  -23.8727  -19.4430   22.4540 C   0  0  0  0  0  0  0  0  0  0  0  0
  -31.9917  -17.1759   21.9775 C   0  0  0  0  0  0  0  0  0  0  0  0
  -32.2565  -18.4171   21.1388 C   0  0  0  0  0  0  0  0  0  0  0  0
  -31.2944  -20.6174   20.4517 C   0  0  0  0  0  0  0  0  0  0  0  0
  -30.7426  -16.4092   21.5606 C   0  0  0  0  0  0  0  0  0  1  0  0
  -30.1844  -22.4334   18.1493 C   0  0  0  0  0  0  0  0  0  0  0  0
  -23.7592  -15.6414   19.2339 C   0  0  1  0  0  0  0  0  0  0  0  0
  -22.8483  -19.1948   20.1896 C   0  0  2  0  0  0  0  0  0  0  0  0
  -30.0639  -21.5328   20.6020 C   0  0  2  0  0  0  0  0  0  0  0  0
  -23.3266  -15.0514   17.8619 C   0  0  0  0  0  0  0  0  0  0  0  0
  -30.1118  -22.7889   19.6499 C   0  0  1  0  0  0  0  0  0  0  0  0
  -26.1635  -28.0866   21.0578 N   0  0  0  0  0  0  0  0  0  0  0  0
  -26.1687  -27.7819   19.7489 N   0  0  0  0  0  0  0  0  0  0  0  0
  -24.6410  -14.2923   21.1117 N   0  0  0  0  0  0  0  0  0  0  0  0
  -26.5967  -23.9872   19.9077 N   0  0  0  0  0  0  0  0  0  0  0  0
  -26.2954  -28.7410   17.5868 N   0  0  0  0  0  0  0  0  0  0  0  0
  -26.5203  -32.3217   20.3298 N   0  0  0  0  0  0  0  0  0  0  0  0
  -24.2105  -10.8274   21.8464 N   0  0  0  0  0  0  0  0  0  0  0  0
  -23.0818  -16.8833   19.5906 N   0  0  0  0  0  0  0  0  0  0  0  0
  -28.9281  -23.5918   19.8618 N   0  0  0  0  0  0  0  0  0  0  0  0
  -23.4915  -20.1043   21.1795 N   0  3  0  0  0  0  0  0  0  0  0  0
  -31.1021  -19.3441   21.1996 N   0  3  0  0  0  0  0  0  0  0  0  0
  -26.5000  -31.6554   18.1356 O   0  0  0  0  0  0  0  0  0  0  0  0
  -25.7740  -11.9659   20.5495 O   0  0  0  0  0  0  0  0  0  0  0  0
  -22.3644  -14.3030   20.6086 O   0  0  0  0  0  0  0  0  0  0  0  0
  -25.0010  -18.1666   19.8073 O   0  0  0  0  0  0  0  0  0  0  0  0
  -27.4601  -21.9211   19.3045 O   0  0  0  0  0  0  0  0  0  0  0  0
  -26.3878  -32.2182   25.8982 O   0  0  0  0  0  0  0  0  0  0  0  0
  -30.5862  -15.2844   22.4246 O   0  0  0  0  0  0  0  0  0  1  0  0
  -30.1613  -36.1978   26.4701 F   0  0  0  0  0  0  0  0  0  0  0  0
  -26.4276  -34.3912   24.1896 F   0  0  0  0  0  0  0  0  0  0  0  0
  -30.2243  -23.9957   16.9804 Br  0  0  0  0  0  0  0  0  0  0  0  0
  1  2  1  0  0  0  0
  1  5  2  0  0  0  0
  2  6  2  0  0  0  0
  3  8  2  0  0  0  0
  3 15  1  0  0  0  0
  4  9  1  0  0  0  0
  4 15  2  0  0  0  0
  5 17  1  0  0  0  0
  6 19  1  0  0  0  0
  7 10  2  0  0  0  0
  7 18  1  0  0  0  0
  8 21  1  0  0  0  0
  9 21  2  0  0  0  0
 10 22  1  0  0  0  0
 11 12  2  0  0  0  0
 11 23  1  0  0  0  0
 12 24  1  0  0  0  0
 13 20  1  0  0  0  0
 13 22  2  0  0  0  0
 14 24  2  0  0  0  0
 14 25  1  0  0  0  0
 15 26  1  0  0  0  0
 16 26  1  0  0  0  0
 16 27  2  0  0  0  0
 16 28  1  0  0  0  0
 17 19  2  0  0  0  0
 17 33  1  0  0  0  0
 18 20  2  0  0  0  0
 18 34  1  0  0  0  0
 19 42  1  0  0  0  0
 20 35  1  0  0  0  0
 21 78  1  0  0  0  0
 22 79  1  0  0  0  0
 23 25  2  0  0  0  0
 23 78  1  0  0  0  0
 24 80  1  0  0  0  0
 25 81  1  0  0  0  0
 26 62  2  0  0  0  0
 27 63  1  0  0  0  0
 27 66  1  0  0  0  0
 28 67  1  0  0  0  0
 28 73  2  0  0  0  0
 29 43  1  0  0  0  0
 29 68  1  0  0  0  0
 29 74  2  0  0  0  0
 30 57  1  0  0  0  0
 30 64  1  0  0  0  0
 30 75  2  0  0  0  0
 31 58  1  0  0  0  0
 31 69  1  0  0  0  0
 31 76  2  0  0  0  0
 32 65  1  0  0  0  0
 32 70  1  0  0  0  0
 32 77  2  0  0  0  0
 33 36  1  0  0  0  0
 34 43  1  0  0  0  0
 35 64  1  0  0  0  0
 36 38  1  0  0  0  0
 37 39  1  0  0  0  0
 37 40  1  0  0  0  0
 38 42  1  0  0  0  0
 39 44  1  0  0  0  0
 40 65  1  0  0  0  0
 41 44  1  0  0  0  0
 41 65  1  0  0  0  0
 42 68  1  0  0  0  0
 43 64  1  0  0  0  0
 44 63  1  0  0  0  0
 45 58  1  0  0  0  0
 46 59  1  0  0  0  0
 47 60  1  0  0  0  0
 48 60  1  0  0  0  0
 49 60  1  0  0  0  0
 50 61  1  0  0  0  0
 51 71  1  0  0  0  0
 52 53  1  0  0  0  0
 52 55  1  0  0  0  0
 53 72  1  0  0  0  0
 54 59  1  0  0  0  0
 54 72  1  0  0  0  0
 55 79  1  0  0  0  0
 56 61  1  0  0  0  0
 56 82  1  0  0  0  0
 57 60  1  0  0  0  0
 57 69  1  0  0  0  0
 58 71  1  0  0  0  0
 59 61  1  0  0  0  0
 61 70  1  0  0  0  0
 62 63  1  0  0  0  0
M  CHG  2  71   1  72   1
M  ISO  4  32 100  55 101  70 100  79 101
M  END
> <Batch ID>
0107

> <Smiles>
CNC(C)C(=O)NC(C(=O)N1Cc2cc([101O:1][101CH2:1]CCNCC(C)C(C)(CBr)[100NH:0][100C:0](=O)N3CCCC(n4nc(-c5ccc(Oc6ccc(F)cc6F)cc5)c(C(N)=O)c4N)C3)ccc2CC1C(=O)NC1CCCc2ccccc21)C(C)(C)C

> <Shape>
0.246

> <Color>
0.060

> <Negative vol penalty>
0.000

$$$$

  -OEChem-04052319513D

 85 93  0     1  0  0  0  0  0999 V2000
  -38.4653  -25.0629   21.7797 C   0  0  0  0  0  0  0  0  0  0  0  0
  -37.2833  -24.4525   21.3727 C   0  0  0  0  0  0  0  0  0  0  0  0
  -23.0713   -9.8213   20.0166 C   0  0  0  0  0  0  0  0  0  0  0  0
  -23.7650   -9.9835   22.3251 C   0  0  0  0  0  0  0  0  0  0  0  0
  -38.6861  -25.3196   23.1322 C   0  0  0  0  0  0  0  0  0  0  0  0
  -36.3219  -24.0973   22.3181 C   0  0  0  0  0  0  0  0  0  0  0  0
  -31.6311  -25.3603   20.8877 C   0  0  0  0  0  0  0  0  0  0  0  0
  -22.3411   -8.6714   20.3167 C   0  0  0  0  0  0  0  0  0  0  0  0
  -23.0347   -8.8336   22.6253 C   0  0  0  0  0  0  0  0  0  0  0  0
  -31.0065  -24.5353   19.9533 C   0  0  0  0  0  0  0  0  0  0  0  0
  -21.6458   -5.7376   23.9275 C   0  0  0  0  0  0  0  0  0  0  0  0
  -22.2569   -4.7719   24.7271 C   0  0  0  0  0  0  0  0  0  0  0  0
  -29.7779  -23.4625   21.7306 C   0  0  0  0  0  0  0  0  0  0  0  0
  -24.0118   -4.5231   23.0853 C   0  0  0  0  0  0  0  0  0  0  0  0
  -29.2010  -18.7760   20.5835 C   0  0  0  0  0  0  0  0  0  0  0  0
  -23.7833  -10.4774   21.0207 C   0  0  0  0  0  0  0  0  0  0  0  0
  -24.0837  -12.9966   20.7544 C   0  0  0  0  0  0  0  0  0  0  0  0
  -37.7227  -24.9762   24.0937 C   0  0  0  0  0  0  0  0  0  0  0  0
  -31.3413  -25.2350   22.2540 C   0  0  0  0  0  0  0  0  0  0  0  0
  -36.5306  -24.3484   23.6849 C   0  0  0  0  0  0  0  0  0  0  0  0
  -30.3982  -24.2888   22.6800 C   0  0  0  0  0  0  0  0  0  0  0  0
  -22.3227   -8.1776   21.6211 C   0  0  0  0  0  0  0  0  0  0  0  0
  -30.0819  -23.5843   20.3749 C   0  0  0  0  0  0  0  0  0  0  0  0
  -22.2176   -6.0961   22.7068 C   0  0  0  0  0  0  0  0  0  0  0  0
  -23.4399   -4.1646   24.3061 C   0  0  0  0  0  0  0  0  0  0  0  0
  -23.4006   -5.4888   22.2857 C   0  0  0  0  0  0  0  0  0  0  0  0
  -24.5382  -11.6649   20.7112 C   0  0  0  0  0  0  0  0  0  0  0  0
  -30.4164  -18.1397   20.7076 C   0  0  0  0  0  0  0  0  0  0  0  0
  -30.0220  -20.0038   18.8376 C   0  0  0  0  0  0  0  0  0  0  0  0
  -31.2377  -19.3681   18.9622 C   0  0  0  0  0  0  0  0  0  0  0  0
  -25.1724  -13.7435   20.3757 C   0  0  0  0  0  0  0  0  0  0  0  0
  -22.7928  -13.5123   21.1056 C   0  0  0  0  0  0  0  0  0  0  0  0
  -33.0252  -24.4899   24.8449 C   0  0  0  0  0  0  0  0  0  0  0  0
  -30.2711  -25.2549   26.3785 C   0  0  0  0  0  0  0  0  0  0  0  0
  -26.8775  -25.5900   26.2451 C   0  0  0  0  0  0  0  0  0  0  0  0
  -30.6296  -14.8784   20.6514 C   0  0  0  0  0  0  0  0  0  0  0  0
  -38.0266  -25.2307   25.5489 C   0  0  0  0  0  0  0  0  0  0  0  0
  -32.0038  -26.1506   23.2466 C   0  0  0  0  0  0  0  0  0  0  0  0
  -30.0371  -24.1281   24.1334 C   0  0  0  0  0  0  0  0  0  0  0  0
  -36.7955  -25.1633   26.4491 C   0  0  0  0  0  0  0  0  0  0  0  0
  -29.6031  -12.3305   18.3861 C   0  0  0  0  0  0  0  0  0  0  0  0
  -35.9631  -23.9272   26.1234 C   0  0  0  0  0  0  0  0  0  0  0  0
  -28.1593  -12.0360   18.7967 C   0  0  0  0  0  0  0  0  0  0  0  0
  -30.4815  -12.6422   19.5958 C   0  0  0  0  0  0  0  0  0  0  0  0
  -28.5282  -13.4198   20.8818 C   0  0  0  0  0  0  0  0  0  0  0  0
  -35.4529  -23.9708   24.6780 C   0  0  1  0  0  0  0  0  0  0  0  0
  -32.0148  -25.5872   24.6643 C   0  0  1  0  0  0  0  0  0  0  0  0
  -27.5914  -13.1545   19.6909 C   0  0  2  0  0  0  0  0  0  0  0  0
  -27.8668  -19.7768   16.6804 C   0  0  0  0  0  0  0  0  0  0  0  0
  -32.8241  -18.4857   17.2133 C   0  0  0  0  0  0  0  0  0  0  0  0
  -33.5894  -20.2656   18.8262 C   0  0  0  0  0  0  0  0  0  0  0  0
  -24.9003  -26.1945   27.6672 C   0  0  0  0  0  0  0  0  0  0  0  0
  -30.4137  -22.5245   27.7330 C   0  0  0  0  0  0  0  0  0  0  0  0
  -28.0066  -22.7913   28.3678 C   0  0  0  0  0  0  0  0  0  0  0  0
  -29.7082  -24.3974   29.2327 C   0  0  0  0  0  0  0  0  0  0  0  0
  -26.1860  -27.8868   24.5114 C   0  0  0  0  0  0  0  0  0  0  0  0
  -30.6220  -17.1015   21.7544 C   0  0  0  0  0  0  0  0  0  0  0  0
  -28.3267  -21.1003   17.2799 C   0  0  0  0  0  0  0  0  0  0  0  0
  -30.2060  -22.4577   18.2842 C   0  0  0  0  0  0  0  0  0  1  0  0
  -29.7880  -21.0681   17.7745 C   0  0  1  0  0  0  0  0  0  0  0  0
  -32.3804  -19.6928   18.0618 C   0  0  0  0  0  0  0  0  0  0  0  0
  -29.0348  -24.4968   26.7978 C   0  0  1  0  0  0  0  0  0  0  0  0
  -25.9569  -26.7075   26.7013 C   0  0  2  0  0  0  0  0  0  0  0  0
  -29.2989  -23.5540   28.0056 C   0  0  0  0  0  0  0  0  0  0  0  0
  -28.9820  -19.7195   19.6462 N   0  0  0  0  0  0  0  0  0  0  0  0
  -25.8161  -11.5682   20.3345 N   0  0  0  0  0  0  0  0  0  0  0  0
  -31.4566  -18.4244   19.8992 N   0  0  0  0  0  0  0  0  0  0  0  0
  -26.1737  -12.8486   20.1376 N   0  0  0  0  0  0  0  0  0  0  0  0
  -30.7164  -25.0424   25.0661 N   0  0  0  0  0  0  0  0  0  0  0  0
  -29.8877  -13.7122   20.4011 N   0  0  0  0  0  0  0  0  0  0  0  0
  -25.3612  -15.0718   20.2264 N   0  0  0  0  0  0  0  0  0  0  0  0
  -21.7879  -12.6061   21.4704 N   0  0  0  0  0  0  0  0  0  0  0  0
  -34.3244  -24.8701   24.5672 N   0  0  0  0  0  0  0  0  0  0  0  0
  -28.0026  -25.4997   27.0371 N   0  0  0  0  0  0  0  0  0  0  0  0
  -29.9903  -15.8452   21.4176 N   0  0  0  0  0  0  0  0  0  0  0  0
  -25.2664  -27.3200   25.5313 N   0  3  0  0  0  0  0  0  0  0  0  0
  -22.5333  -14.7393   21.0803 O   0  0  0  0  0  0  0  0  0  0  0  0
  -32.6539  -23.3808   25.2107 O   0  0  0  0  0  0  0  0  0  0  0  0
  -30.8174  -26.0134   27.1835 O   0  0  0  0  0  0  0  0  0  0  0  0
  -26.6222  -24.8669   25.2846 O   0  0  0  0  0  0  0  0  0  0  0  0
  -31.7748  -15.0477   20.2192 O   0  0  0  0  0  0  0  0  0  0  0  0
  -21.6101   -7.0557   21.9144 O   0  0  0  0  0  0  0  0  0  0  0  0
  -29.4713  -22.7774   19.4650 O   0  0  0  0  0  0  0  0  0  1  0  0
  -24.0275   -3.2383   25.0747 F   0  0  0  0  0  0  0  0  0  0  0  0
  -23.9554   -5.8300   21.1145 F   0  0  0  0  0  0  0  0  0  0  0  0
  1  2  1  0  0  0  0
  1  5  2  0  0  0  0
  2  6  2  0  0  0  0
  3  8  2  0  0  0  0
  3 16  1  0  0  0  0
  4  9  1  0  0  0  0
  4 16  2  0  0  0  0
  5 18  1  0  0  0  0
  6 20  1  0  0  0  0
  7 10  2  0  0  0  0
  7 19  1  0  0  0  0
  8 22  1  0  0  0  0
  9 22  2  0  0  0  0
 10 23  1  0  0  0  0
 11 12  2  0  0  0  0
 11 24  1  0  0  0  0
 12 25  1  0  0  0  0
 13 21  1  0  0  0  0
 13 23  2  0  0  0  0
 14 25  2  0  0  0  0
 14 26  1  0  0  0  0
 15 28  1  0  0  0  0
 15 65  2  0  0  0  0
 16 27  1  0  0  0  0
 17 27  1  0  0  0  0
 17 31  2  0  0  0  0
 17 32  1  0  0  0  0
 18 20  2  0  0  0  0
 18 37  1  0  0  0  0
 19 21  2  0  0  0  0
 19 38  1  0  0  0  0
 20 46  1  0  0  0  0
 21 39  1  0  0  0  0
 22 82  1  0  0  0  0
 23 83  1  0  0  0  0
 24 26  2  0  0  0  0
 24 82  1  0  0  0  0
 25 84  1  0  0  0  0
 26 85  1  0  0  0  0
 27 66  2  0  0  0  0
 28 57  1  0  0  0  0
 28 67  2  0  0  0  0
 29 30  2  0  0  0  0
 29 60  1  0  0  0  0
 29 65  1  0  0  0  0
 30 61  1  0  0  0  0
 30 67  1  0  0  0  0
 31 68  1  0  0  0  0
 31 71  1  0  0  0  0
 32 72  1  0  0  0  0
 32 77  2  0  0  0  0
 33 47  1  0  0  0  0
 33 73  1  0  0  0  0
 33 78  2  0  0  0  0
 34 62  1  0  0  0  0
 34 69  1  0  0  0  0
 34 79  2  0  0  0  0
 35 63  1  0  0  0  0
 35 74  1  0  0  0  0
 35 80  2  0  0  0  0
 36 70  1  0  0  0  0
 36 75  1  0  0  0  0
 36 81  2  0  0  0  0
 37 40  1  0  0  0  0
 38 47  1  0  0  0  0
 39 69  1  0  0  0  0
 40 42  1  0  0  0  0
 41 43  1  0  0  0  0
 41 44  1  0  0  0  0
 42 46  1  0  0  0  0
 43 48  1  0  0  0  0
 44 70  1  0  0  0  0
 45 48  1  0  0  0  0
 45 70  1  0  0  0  0
 46 73  1  0  0  0  0
 47 69  1  0  0  0  0
 48 68  1  0  0  0  0
 49 58  1  0  0  0  0
 50 61  1  0  0  0  0
 51 61  1  0  0  0  0
 52 63  1  0  0  0  0
 53 64  1  0  0  0  0
 54 64  1  0  0  0  0
 55 64  1  0  0  0  0
 56 76  1  0  0  0  0
 57 75  1  0  0  0  0
 58 60  1  0  0  0  0
 59 60  1  0  0  0  0
 59 83  1  0  0  0  0
 62 64  1  0  0  0  0
 62 74  1  0  0  0  0
 63 76  1  0  0  0  0
 66 68  1  0  0  0  0
M  CHG  1  76   1
M  ISO  4  36 100  59 101  75 100  83 101
M  END
> <Batch ID>
0107

> <Smiles>
CCC(c1ncc(C[100NH:0][100C:0](=O)N2CCCC(n3nc(-c4ccc(Oc5ccc(F)cc5F)cc4)c(C(N)=O)c3N)C2)nc1C(C)C)[101CH2:1][101O:1]c1ccc2c(c1)CN(C(=O)C(NC(=O)C(C)NC)C(C)(C)C)C(C(=O)NC1CCCc3ccccc31)C2

> <Shape>
0.218

> <Color>
0.214

> <Negative vol penalty>
0.000

$$$$

  -OEChem-04052319513D

 81 89  0     1  0  0  0  0  0999 V2000
  -31.2265  -19.1660   12.7428 C   0  0  0  0  0  0  0  0  0  0  0  0
  -31.1353  -19.2701   14.1270 C   0  0  0  0  0  0  0  0  0  0  0  0
  -23.0835   -9.8227   19.9980 C   0  0  0  0  0  0  0  0  0  0  0  0
  -23.8092   -9.9253   22.3001 C   0  0  0  0  0  0  0  0  0  0  0  0
  -31.6036  -20.2738   11.9848 C   0  0  0  0  0  0  0  0  0  0  0  0
  -31.4223  -20.4820   14.7543 C   0  0  0  0  0  0  0  0  0  0  0  0
  -28.0209  -21.6829   18.3087 C   0  0  0  0  0  0  0  0  0  0  0  0
  -22.3350   -8.6812   20.2848 C   0  0  0  0  0  0  0  0  0  0  0  0
  -23.0607   -8.7838   22.5870 C   0  0  0  0  0  0  0  0  0  0  0  0
  -28.1258  -21.0308   19.5366 C   0  0  0  0  0  0  0  0  0  0  0  0
  -21.0536   -6.1055   24.0071 C   0  0  0  0  0  0  0  0  0  0  0  0
  -20.2800   -6.1111   25.1677 C   0  0  0  0  0  0  0  0  0  0  0  0
  -29.2288  -22.9657   20.4632 C   0  0  0  0  0  0  0  0  0  0  0  0
  -31.8414  -17.5212   21.5201 C   0  0  0  0  0  0  0  0  0  0  0  0
  -19.0482   -8.0165   24.3374 C   0  0  0  0  0  0  0  0  0  0  0  0
  -29.8787  -17.8828   22.5628 C   0  0  0  0  0  0  0  0  0  0  0  0
  -23.8207  -10.4447   21.0056 C   0  0  0  0  0  0  0  0  0  0  0  0
  -24.1665  -12.9626   20.7853 C   0  0  0  0  0  0  0  0  0  0  0  0
  -31.8860  -21.5025   12.6023 C   0  0  0  0  0  0  0  0  0  0  0  0
  -28.5298  -22.9793   18.1457 C   0  0  0  0  0  0  0  0  0  0  0  0
  -31.8048  -21.6069   14.0041 C   0  0  0  0  0  0  0  0  0  0  0  0
  -29.1268  -23.6330   19.2330 C   0  0  0  0  0  0  0  0  0  0  0  0
  -30.5686  -16.9658   21.8009 C   0  0  0  0  0  0  0  0  0  0  0  0
  -22.3235   -8.1618   21.5793 C   0  0  0  0  0  0  0  0  0  0  0  0
  -28.7324  -21.6710   20.6132 C   0  0  0  0  0  0  0  0  0  0  0  0
  -20.8246   -7.0554   23.0116 C   0  0  0  0  0  0  0  0  0  0  0  0
  -19.2773   -7.0666   25.3329 C   0  0  0  0  0  0  0  0  0  0  0  0
  -19.8219   -8.0109   23.1768 C   0  0  0  0  0  0  0  0  0  0  0  0
  -24.5946  -11.6236   20.7099 C   0  0  0  0  0  0  0  0  0  0  0  0
  -31.8906  -18.7605   22.1192 C   0  0  0  0  0  0  0  0  0  0  0  0
  -25.2646  -13.6959   20.4073 C   0  0  0  0  0  0  0  0  0  0  0  0
  -22.8904  -13.4958   21.1634 C   0  0  0  0  0  0  0  0  0  0  0  0
  -30.7787  -24.2937   16.3239 C   0  0  0  0  0  0  0  0  0  0  0  0
  -29.6551  -27.0536   17.6055 C   0  0  0  0  0  0  0  0  0  0  0  0
  -28.0217  -28.6027   20.1704 C   0  0  0  0  0  0  0  0  0  0  0  0
  -30.7285  -14.7466   20.6195 C   0  0  0  0  0  0  0  0  0  0  0  0
  -32.3355  -22.6593   11.7454 C   0  0  0  0  0  0  0  0  0  0  0  0
  -28.3849  -23.6792   16.8222 C   0  0  0  0  0  0  0  0  0  0  0  0
  -29.6710  -25.0325   19.1156 C   0  0  0  0  0  0  0  0  0  0  0  0
  -32.2593  -24.0087   12.4550 C   0  0  0  0  0  0  0  0  0  0  0  0
  -29.6474  -12.2360   18.3380 C   0  0  0  0  0  0  0  0  0  0  0  0
  -32.8603  -23.9111   13.8536 C   0  0  0  0  0  0  0  0  0  0  0  0
  -28.2012  -11.9630   18.7579 C   0  0  0  0  0  0  0  0  0  0  0  0
  -30.5447  -12.5147   19.5425 C   0  0  0  0  0  0  0  0  0  0  0  0
  -28.6180  -13.2968   20.8636 C   0  0  0  0  0  0  0  0  0  0  0  0
  -32.0841  -22.9111   14.7191 C   0  0  1  0  0  0  0  0  0  0  0  0
  -29.3979  -24.8031   16.6265 C   0  0  1  0  0  0  0  0  0  0  0  0
  -27.6627  -13.0746   19.6797 C   0  0  2  0  0  0  0  0  0  0  0  0
  -33.3375  -20.2914   20.7349 C   0  0  0  0  0  0  0  0  0  0  0  0
  -34.2600  -19.2411   22.8327 C   0  0  0  0  0  0  0  0  0  0  0  0
  -27.2893  -30.8711   20.9551 C   0  0  0  0  0  0  0  0  0  0  0  0
  -32.5226  -27.6914   18.4305 C   0  0  0  0  0  0  0  0  0  0  0  0
  -31.6140  -29.4255   19.9912 C   0  0  0  0  0  0  0  0  0  0  0  0
  -31.2368  -29.6404   17.5347 C   0  0  0  0  0  0  0  0  0  0  0  0
  -25.1669  -27.8235   20.1282 C   0  0  0  0  0  0  0  0  0  0  0  0
  -30.3078  -20.2002   23.5354 C   0  0  0  0  0  0  0  0  0  0  0  0
  -29.9539  -21.3769   22.6325 C   0  0  0  0  0  0  0  0  0  1  0  0
  -32.9782  -19.7599   22.1414 C   0  0  0  0  0  0  0  0  0  0  0  0
  -29.9785  -27.8723   18.8319 C   0  0  1  0  0  0  0  0  0  0  0  0
  -26.8980  -29.6233   20.1787 C   0  0  2  0  0  0  0  0  0  0  0  0
  -31.3296  -28.6303   18.6991 C   0  0  0  0  0  0  0  0  0  0  0  0
  -25.8655  -11.5100   20.3148 N   0  0  0  0  0  0  0  0  0  0  0  0
  -30.6922  -18.9697   22.7503 N   0  0  0  0  0  0  0  0  0  0  0  0
  -26.2454  -12.7870   20.1386 N   0  0  0  0  0  0  0  0  0  0  0  0
  -29.5111  -25.6725   17.7993 N   0  0  0  0  0  0  0  0  0  0  0  0
  -29.9736  -13.5815   20.3675 N   0  0  0  0  0  0  0  0  0  0  0  0
  -25.4773  -15.0231   20.2819 N   0  0  0  0  0  0  0  0  0  0  0  0
  -21.8728  -12.6018   21.5232 N   0  0  0  0  0  0  0  0  0  0  0  0
  -30.0698  -15.7052   21.3887 N   0  0  0  0  0  0  0  0  0  0  0  0
  -30.8514  -23.5031   15.1929 N   0  0  0  0  0  0  0  0  0  0  0  0
  -28.8271  -28.7388   19.0596 N   0  0  0  0  0  0  0  0  0  0  0  0
  -25.6764  -29.0437   20.8053 N   0  3  0  0  0  0  0  0  0  0  0  0
  -22.6545  -14.7278   21.1657 O   0  0  0  0  0  0  0  0  0  0  0  0
  -31.7095  -24.5967   17.0611 O   0  0  0  0  0  0  0  0  0  0  0  0
  -29.5277  -27.6196   16.5169 O   0  0  0  0  0  0  0  0  0  0  0  0
  -28.1723  -27.7706   21.0623 O   0  0  0  0  0  0  0  0  0  0  0  0
  -31.8646  -14.8953   20.1621 O   0  0  0  0  0  0  0  0  0  0  0  0
  -21.5930   -7.0481   21.8596 O   0  0  0  0  0  0  0  0  0  0  0  0
  -28.8366  -21.0366   21.8126 O   0  0  0  0  0  0  0  0  0  1  0  0
  -18.5334   -7.0709   26.4468 F   0  0  0  0  0  0  0  0  0  0  0  0
  -19.5964   -8.9252   22.2234 F   0  0  0  0  0  0  0  0  0  0  0  0
  1  2  1  0  0  0  0
  1  5  2  0  0  0  0
  2  6  2  0  0  0  0
  3  8  2  0  0  0  0
  3 17  1  0  0  0  0
  4  9  1  0  0  0  0
  4 17  2  0  0  0  0
  5 19  1  0  0  0  0
  6 21  1  0  0  0  0
  7 10  2  0  0  0  0
  7 20  1  0  0  0  0
  8 24  1  0  0  0  0
  9 24  2  0  0  0  0
 10 25  1  0  0  0  0
 11 12  2  0  0  0  0
 11 26  1  0  0  0  0
 12 27  1  0  0  0  0
 13 22  1  0  0  0  0
 13 25  2  0  0  0  0
 14 23  1  0  0  0  0
 14 30  2  0  0  0  0
 15 27  2  0  0  0  0
 15 28  1  0  0  0  0
 16 23  2  0  0  0  0
 16 63  1  0  0  0  0
 17 29  1  0  0  0  0
 18 29  1  0  0  0  0
 18 31  2  0  0  0  0
 18 32  1  0  0  0  0
 19 21  2  0  0  0  0
 19 37  1  0  0  0  0
 20 22  2  0  0  0  0
 20 38  1  0  0  0  0
 21 46  1  0  0  0  0
 22 39  1  0  0  0  0
 23 69  1  0  0  0  0
 24 78  1  0  0  0  0
 25 79  1  0  0  0  0
 26 28  2  0  0  0  0
 26 78  1  0  0  0  0
 27 80  1  0  0  0  0
 28 81  1  0  0  0  0
 29 62  2  0  0  0  0
 30 58  1  0  0  0  0
 30 63  1  0  0  0  0
 31 64  1  0  0  0  0
 31 67  1  0  0  0  0
 32 68  1  0  0  0  0
 32 73  2  0  0  0  0
 33 47  1  0  0  0  0
 33 70  1  0  0  0  0
 33 74  2  0  0  0  0
 34 59  1  0  0  0  0
 34 65  1  0  0  0  0
 34 75  2  0  0  0  0
 35 60  1  0  0  0  0
 35 71  1  0  0  0  0
 35 76  2  0  0  0  0
 36 66  1  0  0  0  0
 36 69  1  0  0  0  0
 36 77  2  0  0  0  0
 37 40  1  0  0  0  0
 38 47  1  0  0  0  0
 39 65  1  0  0  0  0
 40 42  1  0  0  0  0
 41 43  1  0  0  0  0
 41 44  1  0  0  0  0
 42 46  1  0  0  0  0
 43 48  1  0  0  0  0
 44 66  1  0  0  0  0
 45 48  1  0  0  0  0
 45 66  1  0  0  0  0
 46 70  1  0  0  0  0
 47 65  1  0  0  0  0
 48 64  1  0  0  0  0
 49 58  1  0  0  0  0
 50 58  1  0  0  0  0
 51 60  1  0  0  0  0
 52 61  1  0  0  0  0
 53 61  1  0  0  0  0
 54 61  1  0  0  0  0
 55 72  1  0  0  0  0
 56 57  1  0  0  0  0
 56 63  1  0  0  0  0
 57 79  1  0  0  0  0
 59 61  1  0  0  0  0
 59 71  1  0  0  0  0
 60 72  1  0  0  0  0
 62 64  1  0  0  0  0
M  CHG  1  72   1
M  ISO  4  36 100  57 101  69 100  79 101
M  END
> <Batch ID>
0107

> <Smiles>
CNC(C)C(=O)NC(C(=O)N1Cc2cc([101O:1][101CH2:1]Cn3cc([100NH:0][100C:0](=O)N4CCCC(n5nc(-c6ccc(Oc7ccc(F)cc7F)cc6)c(C(N)=O)c5N)C4)cc3C(C)C)ccc2CC1C(=O)NC1CCCc2ccccc21)C(C)(C)C

> <Shape>
0.282

> <Color>
0.197

> <Negative vol penalty>
0.000

$$$$

  -OEChem-04052319513D

 85 93  0     1  0  0  0  0  0999 V2000
  -27.1206  -37.3083   24.3747 C   0  0  0  0  0  0  0  0  0  0  0  0
  -27.8498  -36.1778   24.0201 C   0  0  0  0  0  0  0  0  0  0  0  0
  -23.8986   -9.6219   20.7635 C   0  0  0  0  0  0  0  0  0  0  0  0
  -24.4983  -10.3293   22.9945 C   0  0  0  0  0  0  0  0  0  0  0  0
  -25.7678  -37.1927   24.6916 C   0  0  0  0  0  0  0  0  0  0  0  0
  -27.2267  -34.9309   23.9831 C   0  0  0  0  0  0  0  0  0  0  0  0
  -27.3974  -28.7075   20.4395 C   0  0  0  0  0  0  0  0  0  0  0  0
  -23.4373   -8.4079   21.2724 C   0  0  0  0  0  0  0  0  0  0  0  0
  -24.0370   -9.1153   23.5034 C   0  0  0  0  0  0  0  0  0  0  0  0
  -27.4889  -27.3364   20.6747 C   0  0  0  0  0  0  0  0  0  0  0  0
  -20.6833   -7.2588   22.8624 C   0  0  0  0  0  0  0  0  0  0  0  0
  -19.4560   -6.7857   22.3982 C   0  0  0  0  0  0  0  0  0  0  0  0
  -25.1279  -27.2690   21.1650 C   0  0  0  0  0  0  0  0  0  0  0  0
  -20.5393   -4.7939   21.5638 C   0  0  0  0  0  0  0  0  0  0  0  0
  -24.4291  -10.5826   21.6245 C   0  0  0  0  0  0  0  0  0  0  0  0
  -24.1662  -13.0212   20.9230 C   0  0  0  0  0  0  0  0  0  0  0  0
  -25.1255  -35.9452   24.6492 C   0  0  0  0  0  0  0  0  0  0  0  0
  -26.1705  -29.3728   20.5762 C   0  0  0  0  0  0  0  0  0  0  0  0
  -25.8644  -34.7983   24.3010 C   0  0  0  0  0  0  0  0  0  0  0  0
  -25.0230  -28.6482   20.9285 C   0  0  0  0  0  0  0  0  0  0  0  0
  -23.5065   -8.1546   22.6424 C   0  0  0  0  0  0  0  0  0  0  0  0
  -26.3546  -26.6174   21.0403 C   0  0  0  0  0  0  0  0  0  0  0  0
  -21.8387   -6.4995   22.6772 C   0  0  0  0  0  0  0  0  0  0  0  0
  -19.3840   -5.5533   21.7489 C   0  0  0  0  0  0  0  0  0  0  0  0
  -21.7667   -5.2670   22.0279 C   0  0  0  0  0  0  0  0  0  0  0  0
  -24.9063  -11.8367   21.0994 C   0  0  0  0  0  0  0  0  0  0  0  0
  -25.0679  -13.9145   20.3983 C   0  0  0  0  0  0  0  0  0  0  0  0
  -25.2900  -22.4520   21.7830 C   0  0  0  0  0  0  0  0  0  0  0  0
  -22.7870  -13.2899   21.2081 C   0  0  0  0  0  0  0  0  0  0  0  0
  -26.7963  -22.4473   21.8439 C   0  0  0  0  0  0  0  0  0  0  0  0
  -25.0785  -31.7041   22.4406 C   0  0  0  0  0  0  0  0  0  0  0  0
  -22.4533  -31.4559   20.5514 C   0  0  0  0  0  0  0  0  0  0  0  0
  -20.5604  -29.5356   18.4594 C   0  0  0  0  0  0  0  0  0  0  0  0
  -30.1302  -16.2632   20.3573 C   0  0  0  0  0  0  0  0  0  0  0  0
  -23.6728  -35.8628   25.0458 C   0  0  0  0  0  0  0  0  0  0  0  0
  -26.0832  -30.8475   20.2929 C   0  0  0  0  0  0  0  0  0  0  0  0
  -23.6781  -29.3117   21.0688 C   0  0  0  0  0  0  0  0  0  0  0  0
  -22.9977  -34.5618   24.6191 C   0  0  0  0  0  0  0  0  0  0  0  0
  -29.7360  -13.1999   18.5860 C   0  0  0  0  0  0  0  0  0  0  0  0
  -23.8773  -33.3650   24.9666 C   0  0  0  0  0  0  0  0  0  0  0  0
  -29.2883  -20.6793   22.4517 C   0  0  0  0  0  0  0  0  0  0  0  0
  -28.3869  -12.6673   19.0721 C   0  0  0  0  0  0  0  0  0  0  0  0
  -29.0175  -19.1787   22.3405 C   0  0  0  0  0  0  0  0  0  0  0  0
  -29.1331  -19.3373   19.8138 C   0  0  0  0  0  0  0  0  0  0  0  0
  -30.5017  -13.9025   19.7050 C   0  0  0  0  0  0  0  0  0  0  0  0
  -28.4022  -14.4364   20.8801 C   0  0  0  0  0  0  0  0  0  0  0  0
  -25.2181  -33.4321   24.2254 C   0  0  1  0  0  0  0  0  0  0  0  0
  -24.8858  -31.5146   20.9626 C   0  0  1  0  0  0  0  0  0  0  0  0
  -28.8454  -21.4594   21.2077 C   0  0  1  0  0  0  0  0  0  0  0  0
  -27.5689  -13.7687   19.7729 C   0  0  2  0  0  0  0  0  0  0  0  0
  -29.6089  -18.5851   21.0619 C   0  0  2  0  0  0  0  0  0  0  0  0
  -29.3928  -20.8634   19.8814 C   0  0  0  0  0  0  0  0  0  0  0  0
  -30.9106  -21.1412   19.7802 C   0  0  0  0  0  0  0  0  0  0  0  0
  -28.7303  -21.5380   18.6609 C   0  0  0  0  0  0  0  0  0  0  0  0
  -18.4517  -29.5940   17.1002 C   0  0  0  0  0  0  0  0  0  0  0  0
  -20.8054  -31.1280   23.0984 C   0  0  0  0  0  0  0  0  0  0  0  0
  -18.9283  -30.2577   21.6887 C   0  0  0  0  0  0  0  0  0  0  0  0
  -19.7575  -32.5871   21.3585 C   0  0  0  0  0  0  0  0  0  0  0  0
  -22.0378  -29.0867   15.9346 C   0  0  0  0  0  0  0  0  0  0  0  0
  -27.4376  -23.5628   22.6406 C   0  0  0  0  0  0  0  0  0  0  0  0
  -27.6844  -24.7848   21.7676 C   0  0  0  0  0  0  0  0  0  1  0  0
  -21.1811  -30.6441   20.5903 C   0  0  1  0  0  0  0  0  0  0  0  0
  -19.9548  -29.8257   17.0980 C   0  0  2  0  0  0  0  0  0  0  0  0
  -20.1936  -31.1418   21.6833 C   0  0  0  0  0  0  0  0  0  0  0  0
  -26.1800  -11.9628   20.7175 N   0  0  0  0  0  0  0  0  0  0  0  0
  -27.3926  -21.5081   21.1955 N   0  0  0  0  0  0  0  0  0  0  0  0
  -26.2472  -13.2371   20.2959 N   0  0  0  0  0  0  0  0  0  0  0  0
  -23.6453  -30.7565   20.7874 N   0  0  0  0  0  0  0  0  0  0  0  0
  -29.6708  -14.9362   20.3271 N   0  0  0  0  0  0  0  0  0  0  0  0
  -24.9591  -15.2055   20.0190 N   0  0  0  0  0  0  0  0  0  0  0  0
  -22.0026  -12.2598   21.7448 N   0  0  0  0  0  0  0  0  0  0  0  0
  -25.0542  -33.0248   22.8464 N   0  0  0  0  0  0  0  0  0  0  0  0
  -20.6376  -30.6719   19.2366 N   0  0  0  0  0  0  0  0  0  0  0  0
  -29.2785  -17.1811   20.9597 N   0  0  0  0  0  0  0  0  0  0  0  0
  -20.5644  -28.9453   16.0616 N   0  3  0  0  0  0  0  0  0  0  0  0
  -24.6925  -21.5882   21.1645 O   0  0  0  0  0  0  0  0  0  0  0  0
  -22.2615  -14.4054   20.9780 O   0  0  0  0  0  0  0  0  0  0  0  0
  -25.2360  -30.7245   23.1599 O   0  0  0  0  0  0  0  0  0  0  0  0
  -22.3923  -32.6647   20.3132 O   0  0  0  0  0  0  0  0  0  0  0  0
  -20.9249  -28.4126   18.8007 O   0  0  0  0  0  0  0  0  0  0  0  0
  -31.2164  -16.6057   19.8779 O   0  0  0  0  0  0  0  0  0  0  0  0
  -23.0563   -6.9701   23.1393 O   0  0  0  0  0  0  0  0  0  0  0  0
  -26.4413  -25.2791   21.2710 O   0  0  0  0  0  0  0  0  0  1  0  0
  -18.2051   -5.0984   21.3046 F   0  0  0  0  0  0  0  0  0  0  0  0
  -22.8730   -4.5325   21.8482 F   0  0  0  0  0  0  0  0  0  0  0  0
  1  2  1  0  0  0  0
  1  5  2  0  0  0  0
  2  6  2  0  0  0  0
  3  8  2  0  0  0  0
  3 15  1  0  0  0  0
  4  9  1  0  0  0  0
  4 15  2  0  0  0  0
  5 17  1  0  0  0  0
  6 19  1  0  0  0  0
  7 10  2  0  0  0  0
  7 18  1  0  0  0  0
  8 21  1  0  0  0  0
  9 21  2  0  0  0  0
 10 22  1  0  0  0  0
 11 12  2  0  0  0  0
 11 23  1  0  0  0  0
 12 24  1  0  0  0  0
 13 20  1  0  0  0  0
 13 22  2  0  0  0  0
 14 24  2  0  0  0  0
 14 25  1  0  0  0  0
 15 26  1  0  0  0  0
 16 26  1  0  0  0  0
 16 27  2  0  0  0  0
 16 29  1  0  0  0  0
 17 19  2  0  0  0  0
 17 35  1  0  0  0  0
 18 20  2  0  0  0  0
 18 36  1  0  0  0  0
 19 47  1  0  0  0  0
 20 37  1  0  0  0  0
 21 82  1  0  0  0  0
 22 83  1  0  0  0  0
 23 25  2  0  0  0  0
 23 82  1  0  0  0  0
 24 84  1  0  0  0  0
 25 85  1  0  0  0  0
 26 65  2  0  0  0  0
 27 67  1  0  0  0  0
 27 70  1  0  0  0  0
 28 30  1  0  0  0  0
 28 76  2  0  0  0  0
 29 71  1  0  0  0  0
 29 77  2  0  0  0  0
 30 60  1  0  0  0  0
 30 66  2  0  0  0  0
 31 48  1  0  0  0  0
 31 72  1  0  0  0  0
 31 78  2  0  0  0  0
 32 62  1  0  0  0  0
 32 68  1  0  0  0  0
 32 79  2  0  0  0  0
 33 63  1  0  0  0  0
 33 73  1  0  0  0  0
 33 80  2  0  0  0  0
 34 69  1  0  0  0  0
 34 74  1  0  0  0  0
 34 81  2  0  0  0  0
 35 38  1  0  0  0  0
 36 48  1  0  0  0  0
 37 68  1  0  0  0  0
 38 40  1  0  0  0  0
 39 42  1  0  0  0  0
 39 45  1  0  0  0  0
 40 47  1  0  0  0  0
 41 43  1  0  0  0  0
 41 49  1  0  0  0  0
 42 50  1  0  0  0  0
 43 51  1  0  0  0  0
 44 51  1  0  0  0  0
 44 52  1  0  0  0  0
 45 69  1  0  0  0  0
 46 50  1  0  0  0  0
 46 69  1  0  0  0  0
 47 72  1  0  0  0  0
 48 68  1  0  0  0  0
 49 52  1  0  0  0  0
 49 66  1  0  0  0  0
 50 67  1  0  0  0  0
 51 74  1  0  0  0  0
 52 53  1  0  0  0  0
 52 54  1  0  0  0  0
 55 63  1  0  0  0  0
 56 64  1  0  0  0  0
 57 64  1  0  0  0  0
 58 64  1  0  0  0  0
 59 75  1  0  0  0  0
 60 61  1  0  0  0  0
 61 83  1  0  0  0  0
 62 64  1  0  0  0  0
 62 73  1  0  0  0  0
 63 75  1  0  0  0  0
 65 67  1  0  0  0  0
M  CHG  1  75   1
M  ISO  4  34 100  61 101  74 100  83 101
M  END
> <Batch ID>
0107

> <Smiles>
CNC(C)C(=O)NC(C(=O)N1Cc2cc([101O:1][101CH2:1]C=C(C=O)NC3CCC([100NH:0][100C:0](=O)N4CCCC(n5nc(-c6ccc(Oc7ccc(F)cc7F)cc6)c(C(N)=O)c5N)C4)CC3(C)C)ccc2CC1C(=O)NC1CCCc2ccccc21)C(C)(C)C

> <Shape>
0.333

> <Color>
0.142

> <Negative vol penalty>
0.000

$$$$

  -OEChem-04052319513D

 77 84  0     1  0  0  0  0  0999 V2000
  -19.3316  -30.7603   16.2240 C   0  0  0  0  0  0  0  0  0  0  0  0
  -20.6192  -30.3401   15.9066 C   0  0  0  0  0  0  0  0  0  0  0  0
  -25.6908  -14.4004   21.1540 C   0  0  0  0  0  0  0  0  0  0  0  0
  -25.6047  -14.7023   18.7585 C   0  0  0  0  0  0  0  0  0  0  0  0
  -19.0891  -31.4062   17.4356 C   0  0  0  0  0  0  0  0  0  0  0  0
  -21.6655  -30.5666   16.8002 C   0  0  0  0  0  0  0  0  0  0  0  0
  -26.4918  -26.9356   17.8143 C   0  0  0  0  0  0  0  0  0  0  0  0
  -24.6973  -13.4253   21.0669 C   0  0  0  0  0  0  0  0  0  0  0  0
  -24.6112  -13.7270   18.6714 C   0  0  0  0  0  0  0  0  0  0  0  0
  -27.8036  -26.9655   17.3429 C   0  0  0  0  0  0  0  0  0  0  0  0
  -24.4789  -10.1612   20.2116 C   0  0  0  0  0  0  0  0  0  0  0  0
  -24.6616   -8.9833   20.9359 C   0  0  0  0  0  0  0  0  0  0  0  0
  -28.4889  -28.1292   19.3418 C   0  0  0  0  0  0  0  0  0  0  0  0
  -22.6234   -9.4187   22.1580 C   0  0  0  0  0  0  0  0  0  0  0  0
  -26.1444  -15.0390   19.9999 C   0  0  0  0  0  0  0  0  0  0  0  0
  -28.5625  -15.8518   20.0145 C   0  0  0  0  0  0  0  0  0  0  0  0
  -20.1311  -31.6320   18.3488 C   0  0  0  0  0  0  0  0  0  0  0  0
  -26.1662  -27.5129   19.0501 C   0  0  0  0  0  0  0  0  0  0  0  0
  -21.4370  -31.2172   18.0246 C   0  0  0  0  0  0  0  0  0  0  0  0
  -27.1728  -28.1031   19.8277 C   0  0  0  0  0  0  0  0  0  0  0  0
  -24.1575  -13.0885   19.8256 C   0  0  0  0  0  0  0  0  0  0  0  0
  -28.8018  -27.5650   18.1054 C   0  0  0  0  0  0  0  0  0  0  0  0
  -23.3686  -10.9680   20.4606 C   0  0  0  0  0  0  0  0  0  0  0  0
  -23.7338   -8.6119   21.9091 C   0  0  0  0  0  0  0  0  0  0  0  0
  -22.4408  -10.5967   21.4337 C   0  0  0  0  0  0  0  0  0  0  0  0
  -27.1703  -16.0468   20.0893 C   0  0  0  0  0  0  0  0  0  0  0  0
  -29.0935  -17.1108   20.1532 C   0  0  0  0  0  0  0  0  0  0  0  0
  -29.3089  -14.6408   19.8355 C   0  0  0  0  0  0  0  0  0  0  0  0
  -24.2702  -29.8856   19.9874 C   0  0  0  0  0  0  0  0  0  0  0  0
  -25.0960  -28.8550   22.9502 C   0  0  0  0  0  0  0  0  0  0  0  0
  -27.3429  -27.2113   24.9242 C   0  0  0  0  0  0  0  0  0  0  0  0
  -29.1579  -22.4191   18.8244 C   0  0  0  0  0  0  0  0  0  0  0  0
  -19.8291  -32.3764   19.6253 C   0  0  0  0  0  0  0  0  0  0  0  0
  -24.7514  -27.4487   19.5565 C   0  0  0  0  0  0  0  0  0  0  0  0
  -26.8790  -28.7190   21.1704 C   0  0  0  0  0  0  0  0  0  0  0  0
  -20.9236  -32.2438   20.6812 C   0  0  0  0  0  0  0  0  0  0  0  0
  -26.9183  -21.4734   21.5054 C   0  0  0  0  0  0  0  0  0  0  0  0
  -22.2971  -32.4710   20.0578 C   0  0  0  0  0  0  0  0  0  0  0  0
  -26.9022  -19.9501   21.3651 C   0  0  0  0  0  0  0  0  0  0  0  0
  -26.9693  -22.1536   20.1405 C   0  0  0  0  0  0  0  0  0  0  0  0
  -28.0940  -20.2028   19.1390 C   0  0  0  0  0  0  0  0  0  0  0  0
  -22.5935  -31.4226   18.9787 C   0  0  1  0  0  0  0  0  0  0  0  0
  -24.4392  -28.5218   20.5950 C   0  0  1  0  0  0  0  0  0  0  0  0
  -28.0656  -19.4561   20.4850 C   0  0  2  0  0  0  0  0  0  0  0  0
  -27.7639  -26.5643   27.3119 C   0  0  0  0  0  0  0  0  0  0  0  0
  -25.9397  -31.7198   23.5752 C   0  0  0  0  0  0  0  0  0  0  0  0
  -27.1971  -30.8437   25.5550 C   0  0  0  0  0  0  0  0  0  0  0  0
  -24.7217  -30.5633   25.4281 C   0  0  0  0  0  0  0  0  0  0  0  0
  -30.1909  -26.9349   15.3625 C   0  0  0  0  0  0  0  0  0  0  0  0
  -32.0089  -26.3419   16.9761 C   0  0  0  0  0  0  0  0  0  0  0  0
  -27.2941  -24.3249   24.2721 C   0  0  0  0  0  0  0  0  0  0  0  0
  -30.1039  -24.7011   18.5916 C   0  0  0  0  0  0  0  0  0  0  0  0
  -26.2050  -29.1753   23.9230 C   0  0  1  0  0  0  0  0  0  0  0  0
  -27.1584  -26.1394   25.9832 C   0  0  2  0  0  0  0  0  0  0  0  0
  -29.7505  -25.2361   17.2072 C   0  0  1  0  0  0  0  0  0  0  0  0
  -26.0214  -30.5657   24.5942 C   0  0  0  0  0  0  0  0  0  0  0  0
  -30.4973  -26.5224   16.8037 C   0  0  0  0  0  0  0  0  0  1  0  0
  -26.8378  -17.3288   20.2623 N   0  0  0  0  0  0  0  0  0  0  0  0
  -28.0286  -17.9507   20.2974 N   0  0  0  0  0  0  0  0  0  0  0  0
  -25.4793  -28.6367   21.6193 N   0  0  0  0  0  0  0  0  0  0  0  0
  -28.1095  -21.6527   19.3602 N   0  0  0  0  0  0  0  0  0  0  0  0
  -30.3628  -17.5704   20.1648 N   0  0  0  0  0  0  0  0  0  0  0  0
  -28.6057  -13.4349   19.7096 N   0  0  0  0  0  0  0  0  0  0  0  0
  -22.9780  -30.1667   19.5864 N   0  0  0  0  0  0  0  0  0  0  0  0
  -26.2584  -28.0606   24.8627 N   0  0  0  0  0  0  0  0  0  0  0  0
  -29.0944  -23.7846   19.0732 N   0  0  0  0  0  0  0  0  0  0  0  0
  -27.8102  -24.8698   25.5542 N   0  3  0  0  0  0  0  0  0  0  0  0
  -30.5628  -14.6263   19.8051 O   0  0  0  0  0  0  0  0  0  0  0  0
  -25.2399  -30.6286   19.8911 O   0  0  0  0  0  0  0  0  0  0  0  0
  -23.9333  -28.7934   23.3576 O   0  0  0  0  0  0  0  0  0  0  0  0
  -28.3501  -27.2897   24.2242 O   0  0  0  0  0  0  0  0  0  0  0  0
  -30.0855  -21.9222   18.1764 O   0  0  0  0  0  0  0  0  0  0  0  0
  -23.1882  -12.1368   19.7401 O   0  0  0  0  0  0  0  0  0  0  0  0
  -30.0829  -27.5961   17.6473 O   0  0  0  0  0  0  0  0  0  1  0  0
  -23.9085   -7.4799   22.6034 F   0  0  0  0  0  0  0  0  0  0  0  0
  -21.3715  -11.3671   21.6765 F   0  0  0  0  0  0  0  0  0  0  0  0
  -30.0808  -24.2608   16.3050 F   0  0  0  0  0  0  0  0  0  0  0  0
  1  2  1  0  0  0  0
  1  5  2  0  0  0  0
  2  6  2  0  0  0  0
  3  8  2  0  0  0  0
  3 15  1  0  0  0  0
  4  9  1  0  0  0  0
  4 15  2  0  0  0  0
  5 17  1  0  0  0  0
  6 19  1  0  0  0  0
  7 10  2  0  0  0  0
  7 18  1  0  0  0  0
  8 21  1  0  0  0  0
  9 21  2  0  0  0  0
 10 22  1  0  0  0  0
 11 12  2  0  0  0  0
 11 23  1  0  0  0  0
 12 24  1  0  0  0  0
 13 20  1  0  0  0  0
 13 22  2  0  0  0  0
 14 24  2  0  0  0  0
 14 25  1  0  0  0  0
 15 26  1  0  0  0  0
 16 26  1  0  0  0  0
 16 27  2  0  0  0  0
 16 28  1  0  0  0  0
 17 19  2  0  0  0  0
 17 33  1  0  0  0  0
 18 20  2  0  0  0  0
 18 34  1  0  0  0  0
 19 42  1  0  0  0  0
 20 35  1  0  0  0  0
 21 73  1  0  0  0  0
 22 74  1  0  0  0  0
 23 25  2  0  0  0  0
 23 73  1  0  0  0  0
 24 75  1  0  0  0  0
 25 76  1  0  0  0  0
 26 58  2  0  0  0  0
 27 59  1  0  0  0  0
 27 62  1  0  0  0  0
 28 63  1  0  0  0  0
 28 68  2  0  0  0  0
 29 43  1  0  0  0  0
 29 64  1  0  0  0  0
 29 69  2  0  0  0  0
 30 53  1  0  0  0  0
 30 60  1  0  0  0  0
 30 70  2  0  0  0  0
 31 54  1  0  0  0  0
 31 65  1  0  0  0  0
 31 71  2  0  0  0  0
 32 61  1  0  0  0  0
 32 66  1  0  0  0  0
 32 72  2  0  0  0  0
 33 36  1  0  0  0  0
 34 43  1  0  0  0  0
 35 60  1  0  0  0  0
 36 38  1  0  0  0  0
 37 39  1  0  0  0  0
 37 40  1  0  0  0  0
 38 42  1  0  0  0  0
 39 44  1  0  0  0  0
 40 61  1  0  0  0  0
 41 44  1  0  0  0  0
 41 61  1  0  0  0  0
 42 64  1  0  0  0  0
 43 60  1  0  0  0  0
 44 59  1  0  0  0  0
 45 54  1  0  0  0  0
 46 56  1  0  0  0  0
 47 56  1  0  0  0  0
 48 56  1  0  0  0  0
 49 57  1  0  0  0  0
 50 57  1  0  0  0  0
 51 67  1  0  0  0  0
 52 55  1  0  0  0  0
 52 66  1  0  0  0  0
 53 56  1  0  0  0  0
 53 65  1  0  0  0  0
 54 67  1  0  0  0  0
 55 57  1  0  0  0  0
 55 77  1  0  0  0  0
 57 74  1  0  0  0  0
 58 59  1  0  0  0  0
M  CHG  1  67   1
M  ISO  4  32 100  57 101  66 100  74 101
M  END
> <Batch ID>
0107

> <Smiles>
CNC(C)C(=O)NC(C(=O)N1Cc2cc([101O:1][101C:1](C)(C)C(F)C[100NH:0][100C:0](=O)N3CCCC(n4nc(-c5ccc(Oc6ccc(F)cc6F)cc5)c(C(N)=O)c4N)C3)ccc2CC1C(=O)NC1CCCc2ccccc21)C(C)(C)C

> <Shape>
0.249

> <Color>
0.079

> <Negative vol penalty>
0.000

$$$$

  -OEChem-04052319513D

 85 93  0     1  0  0  0  0  0999 V2000
  -17.6624  -25.0065   24.5408 C   0  0  0  0  0  0  0  0  0  0  0  0
  -18.1197  -24.1732   23.5250 C   0  0  0  0  0  0  0  0  0  0  0  0
  -25.6103  -13.7623   21.2999 C   0  0  0  0  0  0  0  0  0  0  0  0
  -25.0867  -14.2695   18.9965 C   0  0  0  0  0  0  0  0  0  0  0  0
  -17.9836  -26.3632   24.5256 C   0  0  0  0  0  0  0  0  0  0  0  0
  -18.8977  -24.6963   22.4927 C   0  0  0  0  0  0  0  0  0  0  0  0
  -24.2533  -22.9112   18.0828 C   0  0  0  0  0  0  0  0  0  0  0  0
  -24.5963  -12.8047   21.3196 C   0  0  0  0  0  0  0  0  0  0  0  0
  -24.0727  -13.3119   19.0161 C   0  0  0  0  0  0  0  0  0  0  0  0
  -24.5731  -22.9007   16.7259 C   0  0  0  0  0  0  0  0  0  0  0  0
  -24.1492   -9.6278   20.2517 C   0  0  0  0  0  0  0  0  0  0  0  0
  -24.4369   -8.3908   20.8284 C   0  0  0  0  0  0  0  0  0  0  0  0
  -25.1316  -25.2445   16.8456 C   0  0  0  0  0  0  0  0  0  0  0  0
  -22.6721   -8.7328   22.4426 C   0  0  0  0  0  0  0  0  0  0  0  0
  -29.0002  -22.5000   15.5540 C   0  0  0  0  0  0  0  0  0  0  0  0
  -29.9328  -24.1656   14.3832 C   0  0  0  0  0  0  0  0  0  0  0  0
  -25.8555  -14.4947   20.1383 C   0  0  0  0  0  0  0  0  0  0  0  0
  -28.2517  -15.2875   19.7673 C   0  0  0  0  0  0  0  0  0  0  0  0
  -18.7740  -26.9013   23.4978 C   0  0  0  0  0  0  0  0  0  0  0  0
  -24.3600  -24.0929   18.8302 C   0  0  0  0  0  0  0  0  0  0  0  0
  -19.2287  -26.0617   22.4631 C   0  0  0  0  0  0  0  0  0  0  0  0
  -24.8150  -25.2666   18.2125 C   0  0  0  0  0  0  0  0  0  0  0  0
  -30.1105  -22.9217   16.2516 C   0  0  0  0  0  0  0  0  0  0  0  0
  -30.7006  -23.9753   15.5109 C   0  0  0  0  0  0  0  0  0  0  0  0
  -23.8275  -12.5795   20.1777 C   0  0  0  0  0  0  0  0  0  0  0  0
  -25.0096  -24.0682   16.1064 C   0  0  0  0  0  0  0  0  0  0  0  0
  -23.1230  -10.4174   20.7706 C   0  0  0  0  0  0  0  0  0  0  0  0
  -23.6984   -7.9432   21.9238 C   0  0  0  0  0  0  0  0  0  0  0  0
  -22.3845   -9.9699   21.8660 C   0  0  0  0  0  0  0  0  0  0  0  0
  -26.9025  -15.4844   20.1175 C   0  0  0  0  0  0  0  0  0  0  0  0
  -28.8274  -16.5264   19.9083 C   0  0  0  0  0  0  0  0  0  0  0  0
  -28.9243  -14.0915   19.3515 C   0  0  0  0  0  0  0  0  0  0  0  0
  -22.3181  -25.9203   20.4411 C   0  0  0  0  0  0  0  0  0  0  0  0
  -25.0185  -27.4885   21.3190 C   0  0  0  0  0  0  0  0  0  0  0  0
  -28.2670  -28.2741   20.6285 C   0  0  0  0  0  0  0  0  0  0  0  0
  -28.7277  -22.0544   19.1485 C   0  0  0  0  0  0  0  0  0  0  0  0
  -19.0556  -28.3830   23.4987 C   0  0  0  0  0  0  0  0  0  0  0  0
  -24.0367  -24.0812   20.2991 C   0  0  0  0  0  0  0  0  0  0  0  0
  -24.9661  -26.5567   18.9750 C   0  0  0  0  0  0  0  0  0  0  0  0
  -20.1977  -28.7865   22.5697 C   0  0  0  0  0  0  0  0  0  0  0  0
  -27.0406  -20.7675   22.0075 C   0  0  0  0  0  0  0  0  0  0  0  0
  -20.0423  -28.1140   21.2093 C   0  0  0  0  0  0  0  0  0  0  0  0
  -26.9601  -19.2638   21.7388 C   0  0  0  0  0  0  0  0  0  0  0  0
  -26.8766  -21.5797   20.7247 C   0  0  0  0  0  0  0  0  0  0  0  0
  -27.7165  -19.7034   19.3653 C   0  0  0  0  0  0  0  0  0  0  0  0
  -20.0957  -26.5870   21.3394 C   0  0  1  0  0  0  0  0  0  0  0  0
  -23.6909  -25.4629   20.8458 C   0  0  1  0  0  0  0  0  0  0  0  0
  -27.9322  -18.8412   20.6208 C   0  0  2  0  0  0  0  0  0  0  0  0
  -30.7207  -26.5708   17.2048 C   0  0  0  0  0  0  0  0  0  0  0  0
  -33.0517  -24.5336   14.8389 C   0  0  0  0  0  0  0  0  0  0  0  0
  -30.5572  -29.2352   20.9876 C   0  0  0  0  0  0  0  0  0  0  0  0
  -26.0581  -24.2175   11.9597 C   0  0  0  0  0  0  0  0  0  0  0  0
  -23.7007  -30.0554   20.3271 C   0  0  0  0  0  0  0  0  0  0  0  0
  -25.9582  -31.1378   20.3423 C   0  0  0  0  0  0  0  0  0  0  0  0
  -24.9672  -30.2939   22.4703 C   0  0  0  0  0  0  0  0  0  0  0  0
  -29.2100  -25.8207   21.9889 C   0  0  0  0  0  0  0  0  0  0  0  0
  -30.5872  -22.3701   17.5355 C   0  0  0  0  0  0  0  0  0  0  0  0
  -31.6861  -26.2666   16.0656 C   0  0  0  0  0  0  0  0  0  0  0  0
  -27.8223  -23.1323   13.3736 C   0  0  0  0  0  0  0  0  0  0  0  0
  -26.3244  -24.9780   14.3458 C   0  0  0  0  0  0  0  0  0  1  0  0
  -31.9136  -24.7360   15.8703 C   0  0  1  0  0  0  0  0  0  0  0  0
  -25.8168  -28.6400   20.7571 C   0  0  1  0  0  0  0  0  0  0  0  0
  -29.5149  -28.2496   21.4926 C   0  0  2  0  0  0  0  0  0  0  0  0
  -27.0534  -24.4436   13.1037 C   0  0  2  0  0  0  0  0  0  0  0  0
  -25.1061  -30.0081   20.9591 C   0  0  0  0  0  0  0  0  0  0  0  0
  -26.6369  -16.7490   20.4558 N   0  0  0  0  0  0  0  0  0  0  0  0
  -28.9018  -23.2635   14.4201 N   0  0  0  0  0  0  0  0  0  0  0  0
  -27.8272  -17.3578   20.3188 N   0  0  0  0  0  0  0  0  0  0  0  0
  -24.6317  -26.4959   20.4075 N   0  0  0  0  0  0  0  0  0  0  0  0
  -27.8284  -21.1304   19.7058 N   0  0  0  0  0  0  0  0  0  0  0  0
  -30.0867  -16.9750   19.7201 N   0  0  0  0  0  0  0  0  0  0  0  0
  -28.1831  -12.9055   19.2596 N   0  0  0  0  0  0  0  0  0  0  0  0
  -21.4627  -26.1413   21.5036 N   0  0  0  0  0  0  0  0  0  0  0  0
  -27.1387  -28.5573   21.3686 N   0  0  0  0  0  0  0  0  0  0  0  0
  -29.5998  -21.5445   18.1944 N   0  0  0  0  0  0  0  0  0  0  0  0
  -30.1180  -26.8868   21.4930 N   0  3  0  0  0  0  0  0  0  0  0  0
  -30.1500  -14.0715   19.0856 O   0  0  0  0  0  0  0  0  0  0  0  0
  -22.0549  -26.0636   19.2529 O   0  0  0  0  0  0  0  0  0  0  0  0
  -24.7543  -27.4667   22.5238 O   0  0  0  0  0  0  0  0  0  0  0  0
  -28.2914  -28.0666   19.4173 O   0  0  0  0  0  0  0  0  0  0  0  0
  -28.7551  -23.2443   19.4806 O   0  0  0  0  0  0  0  0  0  0  0  0
  -22.8381  -11.6450   20.1965 O   0  0  0  0  0  0  0  0  0  0  0  0
  -25.3218  -24.0609   14.7819 O   0  0  0  0  0  0  0  0  0  1  0  0
  -23.9738   -6.7546   22.4765 F   0  0  0  0  0  0  0  0  0  0  0  0
  -21.3966  -10.7235   22.3680 F   0  0  0  0  0  0  0  0  0  0  0  0
  1  2  1  0  0  0  0
  1  5  2  0  0  0  0
  2  6  2  0  0  0  0
  3  8  2  0  0  0  0
  3 17  1  0  0  0  0
  4  9  1  0  0  0  0
  4 17  2  0  0  0  0
  5 19  1  0  0  0  0
  6 21  1  0  0  0  0
  7 10  2  0  0  0  0
  7 20  1  0  0  0  0
  8 25  1  0  0  0  0
  9 25  2  0  0  0  0
 10 26  1  0  0  0  0
 11 12  2  0  0  0  0
 11 27  1  0  0  0  0
 12 28  1  0  0  0  0
 13 22  1  0  0  0  0
 13 26  2  0  0  0  0
 14 28  2  0  0  0  0
 14 29  1  0  0  0  0
 15 23  2  0  0  0  0
 15 67  1  0  0  0  0
 16 24  2  0  0  0  0
 16 67  1  0  0  0  0
 17 30  1  0  0  0  0
 18 30  1  0  0  0  0
 18 31  2  0  0  0  0
 18 32  1  0  0  0  0
 19 21  2  0  0  0  0
 19 37  1  0  0  0  0
 20 22  2  0  0  0  0
 20 38  1  0  0  0  0
 21 46  1  0  0  0  0
 22 39  1  0  0  0  0
 23 24  1  0  0  0  0
 23 57  1  0  0  0  0
 24 61  1  0  0  0  0
 25 82  1  0  0  0  0
 26 83  1  0  0  0  0
 27 29  2  0  0  0  0
 27 82  1  0  0  0  0
 28 84  1  0  0  0  0
 29 85  1  0  0  0  0
 30 66  2  0  0  0  0
 31 68  1  0  0  0  0
 31 71  1  0  0  0  0
 32 72  1  0  0  0  0
 32 77  2  0  0  0  0
 33 47  1  0  0  0  0
 33 73  1  0  0  0  0
 33 78  2  0  0  0  0
 34 62  1  0  0  0  0
 34 69  1  0  0  0  0
 34 79  2  0  0  0  0
 35 63  1  0  0  0  0
 35 74  1  0  0  0  0
 35 80  2  0  0  0  0
 36 70  1  0  0  0  0
 36 75  1  0  0  0  0
 36 81  2  0  0  0  0
 37 40  1  0  0  0  0
 38 47  1  0  0  0  0
 39 69  1  0  0  0  0
 40 42  1  0  0  0  0
 41 43  1  0  0  0  0
 41 44  1  0  0  0  0
 42 46  1  0  0  0  0
 43 48  1  0  0  0  0
 44 70  1  0  0  0  0
 45 48  1  0  0  0  0
 45 70  1  0  0  0  0
 46 73  1  0  0  0  0
 47 69  1  0  0  0  0
 48 68  1  0  0  0  0
 49 58  1  0  0  0  0
 50 61  1  0  0  0  0
 51 63  1  0  0  0  0
 52 64  1  0  0  0  0
 53 65  1  0  0  0  0
 54 65  1  0  0  0  0
 55 65  1  0  0  0  0
 56 76  1  0  0  0  0
 57 75  1  0  0  0  0
 58 61  1  0  0  0  0
 59 64  1  0  0  0  0
 59 67  1  0  0  0  0
 60 64  1  0  0  0  0
 60 83  1  0  0  0  0
 62 65  1  0  0  0  0
 62 74  1  0  0  0  0
 63 76  1  0  0  0  0
 66 68  1  0  0  0  0
M  CHG  1  76   1
M  ISO  4  36 100  60 101  75 100  83 101
M  END
> <Batch ID>
0107

> <Smiles>
CCC(C)c1cn(CC(C)[101CH2:1][101O:1]c2ccc3c(c2)CN(C(=O)C(NC(=O)C(C)NC)C(C)(C)C)C(C(=O)NC2CCCc4ccccc42)C3)cc1C[100NH:0][100C:0](=O)N1CCCC(n2nc(-c3ccc(Oc4ccc(F)cc4F)cc3)c(C(N)=O)c2N)C1

> <Shape>
0.250

> <Color>
0.064

> <Negative vol penalty>
0.000

$$$$

  -OEChem-04052319513D

 82 90  0     1  0  0  0  0  0999 V2000
  -36.3781  -31.2836   20.6169 C   0  0  0  0  0  0  0  0  0  0  0  0
  -35.5657  -30.2166   20.9868 C   0  0  0  0  0  0  0  0  0  0  0  0
  -22.6317  -10.2756   20.2323 C   0  0  0  0  0  0  0  0  0  0  0  0
  -24.2550   -9.5313   21.8595 C   0  0  0  0  0  0  0  0  0  0  0  0
  -36.3566  -31.7522   19.3039 C   0  0  0  0  0  0  0  0  0  0  0  0
  -34.7303  -29.6182   20.0442 C   0  0  0  0  0  0  0  0  0  0  0  0
  -34.8756  -24.5605   20.2522 C   0  0  0  0  0  0  0  0  0  0  0  0
  -21.8782   -9.1235   20.4569 C   0  0  0  0  0  0  0  0  0  0  0  0
  -23.5014   -8.3791   22.0841 C   0  0  0  0  0  0  0  0  0  0  0  0
  -34.1532  -23.9442   21.2730 C   0  0  0  0  0  0  0  0  0  0  0  0
  -19.6975   -7.9864   22.7773 C   0  0  0  0  0  0  0  0  0  0  0  0
  -18.3183   -8.1325   22.9256 C   0  0  0  0  0  0  0  0  0  0  0  0
  -32.3762  -23.4602   19.7150 C   0  0  0  0  0  0  0  0  0  0  0  0
  -17.9608   -6.6973   21.0152 C   0  0  0  0  0  0  0  0  0  0  0  0
  -23.8201  -10.4795   20.9335 C   0  0  0  0  0  0  0  0  0  0  0  0
  -24.1898  -13.0032   20.8875 C   0  0  0  0  0  0  0  0  0  0  0  0
  -35.5277  -31.1530   18.3424 C   0  0  0  0  0  0  0  0  0  0  0  0
  -34.3482  -24.6410   18.9554 C   0  0  0  0  0  0  0  0  0  0  0  0
  -34.6967  -30.0801   18.7174 C   0  0  0  0  0  0  0  0  0  0  0  0
  -33.0951  -24.0757   18.6789 C   0  0  0  0  0  0  0  0  0  0  0  0
  -22.3130   -8.1753   21.3828 C   0  0  0  0  0  0  0  0  0  0  0  0
  -32.9020  -23.3965   21.0051 C   0  0  0  0  0  0  0  0  0  0  0  0
  -20.2084   -7.1958   21.7479 C   0  0  0  0  0  0  0  0  0  0  0  0
  -17.4499   -7.4880   22.0446 C   0  0  0  0  0  0  0  0  0  0  0  0
  -19.3400   -6.5512   20.8669 C   0  0  0  0  0  0  0  0  0  0  0  0
  -24.5992  -11.6692   20.7015 C   0  0  0  0  0  0  0  0  0  0  0  0
  -25.2851  -13.7513   20.5313 C   0  0  0  0  0  0  0  0  0  0  0  0
  -22.9318  -13.5198   21.3418 C   0  0  0  0  0  0  0  0  0  0  0  0
  -33.5287  -27.0181   17.0107 C   0  0  0  0  0  0  0  0  0  0  0  0
  -33.0678  -24.6061   14.8913 C   0  0  0  0  0  0  0  0  0  0  0  0
  -32.4212  -21.2969   14.3636 C   0  0  0  0  0  0  0  0  0  0  0  0
  -30.7827  -14.7020   20.6676 C   0  0  0  0  0  0  0  0  0  0  0  0
  -35.5036  -31.7248   16.9469 C   0  0  0  0  0  0  0  0  0  0  0  0
  -35.1517  -25.2855   17.8593 C   0  0  0  0  0  0  0  0  0  0  0  0
  -32.4932  -24.1179   17.2989 C   0  0  0  0  0  0  0  0  0  0  0  0
  -34.8671  -30.7939   15.9181 C   0  0  0  0  0  0  0  0  0  0  0  0
  -29.5816  -12.4069   18.2249 C   0  0  0  0  0  0  0  0  0  0  0  0
  -33.5577  -30.2228   16.4529 C   0  0  0  0  0  0  0  0  0  0  0  0
  -28.1474  -12.1159   18.6704 C   0  0  0  0  0  0  0  0  0  0  0  0
  -32.4821  -20.5915   22.9403 C   0  0  0  0  0  0  0  0  0  0  0  0
  -30.3438  -21.2833   21.8080 C   0  0  0  0  0  0  0  0  0  0  0  0
  -30.5191  -12.5794   19.4180 C   0  0  0  0  0  0  0  0  0  0  0  0
  -28.6470  -13.2878   20.8558 C   0  0  0  0  0  0  0  0  0  0  0  0
  -32.0440  -19.1369   22.8728 C   0  0  0  0  0  0  0  0  0  0  0  0
  -29.9102  -19.8274   21.7424 C   0  0  0  0  0  0  0  0  0  0  0  0
  -33.7953  -29.3887   17.7176 C   0  0  1  0  0  0  0  0  0  0  0  0
  -34.2938  -25.7647   16.6923 C   0  0  1  0  0  0  0  0  0  0  0  0
  -27.6534  -13.1615   19.6882 C   0  0  2  0  0  0  0  0  0  0  0  0
  -31.8628  -21.4229   21.8202 C   0  0  0  0  0  0  0  0  0  1  0  0
  -32.0646  -19.6285   12.5234 C   0  0  0  0  0  0  0  0  0  0  0  0
  -29.2855  -17.9518   25.3892 C   0  0  0  0  0  0  0  0  0  0  0  0
  -29.6038  -15.6471   24.4621 C   0  0  0  0  0  0  0  0  0  0  0  0
  -30.2564  -25.7040   14.4439 C   0  0  0  0  0  0  0  0  0  0  0  0
  -29.6502  -23.5231   13.3742 C   0  0  0  0  0  0  0  0  0  0  0  0
  -31.4266  -24.9542   12.3647 C   0  0  0  0  0  0  0  0  0  0  0  0
  -34.7619  -19.6936   15.2060 C   0  0  0  0  0  0  0  0  0  0  0  0
  -30.8922  -16.8116   21.9702 C   0  0  0  0  0  0  0  0  0  0  0  0
  -31.9051  -23.7185   14.5179 C   0  0  1  0  0  0  0  0  0  0  0  0
  -33.0789  -20.2746   13.4543 C   0  0  2  0  0  0  0  0  0  0  0  0
  -30.0750  -17.1039   24.3871 C   0  0  0  0  0  0  0  0  0  0  0  0
  -30.0482  -17.6435   22.9381 C   0  0  1  0  0  0  0  0  0  0  0  0
  -30.8198  -24.4757   13.7017 C   0  0  0  0  0  0  0  0  0  0  0  0
  -25.8565  -11.5723   20.2612 N   0  0  0  0  0  0  0  0  0  0  0  0
  -26.2465  -12.8549   20.1674 N   0  0  0  0  0  0  0  0  0  0  0  0
  -33.3148  -24.7644   16.2623 N   0  0  0  0  0  0  0  0  0  0  0  0
  -29.9939  -13.5856   20.3441 N   0  0  0  0  0  0  0  0  0  0  0  0
  -25.5100  -15.0820   20.4968 N   0  0  0  0  0  0  0  0  0  0  0  0
  -22.7500  -13.7225   22.7166 N   0  0  0  0  0  0  0  0  0  0  0  0
  -34.3258  -28.0873   17.3725 N   0  0  0  0  0  0  0  0  0  0  0  0
  -32.4759  -22.5665   13.8284 N   0  0  0  0  0  0  0  0  0  0  0  0
  -30.2071  -15.6105   21.5474 N   0  0  0  0  0  0  0  0  0  0  0  0
  -30.5352  -19.0656   22.8875 N   0  3  0  0  0  0  0  0  0  0  0  0
  -33.7249  -19.2021   14.2626 N   0  3  0  0  0  0  0  0  0  0  0  0
  -21.9909  -13.7781   20.5534 O   0  0  0  0  0  0  0  0  0  0  0  0
  -32.3058  -27.0157   16.9325 O   0  0  0  0  0  0  0  0  0  0  0  0
  -33.7368  -25.1335   13.9992 O   0  0  0  0  0  0  0  0  0  0  0  0
  -31.9070  -20.9985   15.4392 O   0  0  0  0  0  0  0  0  0  0  0  0
  -31.9137  -14.8789   20.2024 O   0  0  0  0  0  0  0  0  0  0  0  0
  -21.5779   -7.0511   21.6024 O   0  0  0  0  0  0  0  0  0  0  0  0
  -32.1945  -22.7950   21.9998 O   0  0  0  0  0  0  0  0  0  1  0  0
  -16.1254   -7.6271   22.1881 F   0  0  0  0  0  0  0  0  0  0  0  0
  -19.8249   -5.7894   19.8767 F   0  0  0  0  0  0  0  0  0  0  0  0
  1  2  1  0  0  0  0
  1  5  2  0  0  0  0
  2  6  2  0  0  0  0
  3  8  2  0  0  0  0
  3 15  1  0  0  0  0
  4  9  1  0  0  0  0
  4 15  2  0  0  0  0
  5 17  1  0  0  0  0
  6 19  1  0  0  0  0
  7 10  2  0  0  0  0
  7 18  1  0  0  0  0
  8 21  1  0  0  0  0
  9 21  2  0  0  0  0
 10 22  1  0  0  0  0
 11 12  2  0  0  0  0
 11 23  1  0  0  0  0
 12 24  1  0  0  0  0
 13 20  1  0  0  0  0
 13 22  2  0  0  0  0
 14 24  2  0  0  0  0
 14 25  1  0  0  0  0
 15 26  1  0  0  0  0
 16 26  1  0  0  0  0
 16 27  2  0  0  0  0
 16 28  1  0  0  0  0
 17 19  2  0  0  0  0
 17 33  1  0  0  0  0
 18 20  2  0  0  0  0
 18 34  1  0  0  0  0
 19 46  1  0  0  0  0
 20 35  1  0  0  0  0
 21 79  1  0  0  0  0
 22 80  1  0  0  0  0
 23 25  2  0  0  0  0
 23 79  1  0  0  0  0
 24 81  1  0  0  0  0
 25 82  1  0  0  0  0
 26 63  2  0  0  0  0
 27 64  1  0  0  0  0
 27 67  1  0  0  0  0
 28 68  1  0  0  0  0
 28 74  2  0  0  0  0
 29 47  1  0  0  0  0
 29 69  1  0  0  0  0
 29 75  2  0  0  0  0
 30 58  1  0  0  0  0
 30 65  1  0  0  0  0
 30 76  2  0  0  0  0
 31 59  1  0  0  0  0
 31 70  1  0  0  0  0
 31 77  2  0  0  0  0
 32 66  1  0  0  0  0
 32 71  1  0  0  0  0
 32 78  2  0  0  0  0
 33 36  1  0  0  0  0
 34 47  1  0  0  0  0
 35 65  1  0  0  0  0
 36 38  1  0  0  0  0
 37 39  1  0  0  0  0
 37 42  1  0  0  0  0
 38 46  1  0  0  0  0
 39 48  1  0  0  0  0
 40 44  1  0  0  0  0
 40 49  1  0  0  0  0
 41 45  1  0  0  0  0
 41 49  1  0  0  0  0
 42 66  1  0  0  0  0
 43 48  1  0  0  0  0
 43 66  1  0  0  0  0
 44 72  1  0  0  0  0
 45 72  1  0  0  0  0
 46 69  1  0  0  0  0
 47 65  1  0  0  0  0
 48 64  1  0  0  0  0
 49 80  1  0  0  0  0
 50 59  1  0  0  0  0
 51 60  1  0  0  0  0
 52 60  1  0  0  0  0
 53 62  1  0  0  0  0
 54 62  1  0  0  0  0
 55 62  1  0  0  0  0
 56 73  1  0  0  0  0
 57 61  1  0  0  0  0
 57 71  1  0  0  0  0
 58 62  1  0  0  0  0
 58 70  1  0  0  0  0
 59 73  1  0  0  0  0
 60 61  1  0  0  0  0
 61 72  1  0  0  0  0
 63 64  1  0  0  0  0
M  CHG  2  72   1  73   1
M  ISO  4  32 100  49 101  71 100  80 101
M  END
> <Batch ID>
0107

> <Smiles>
CNC(C)C(=O)NC(C(=O)N1Cc2cc([101O:1][101CH:1]3CCN(C(C[100NH:0][100C:0](=O)N4CCCC(n5nc(-c6ccc(Oc7ccc(F)cc7F)cc6)c(C(N)=O)c5N)C4)C(C)C)CC3)ccc2CC1C(=O)NC1CCCc2ccccc21)C(C)(C)C

> <Shape>
0.158

> <Color>
0.169

> <Negative vol penalty>
0.000

$$$$

  -OEChem-04052319513D

 82 89  0     1  0  0  0  0  0999 V2000
  -32.5981  -24.1173   16.7666 C   0  0  0  0  0  0  0  0  0  0  0  0
  -31.7883  -23.1889   17.4129 C   0  0  0  0  0  0  0  0  0  0  0  0
  -26.9975  -16.2613   19.3504 C   0  0  0  0  0  0  0  0  0  0  0  0
  -27.5532  -16.1928   21.7006 C   0  0  0  0  0  0  0  0  0  0  0  0
  -32.8154  -25.3696   17.3396 C   0  0  0  0  0  0  0  0  0  0  0  0
  -31.1960  -23.5121   18.6333 C   0  0  0  0  0  0  0  0  0  0  0  0
  -25.2663  -22.2831   22.4601 C   0  0  0  0  0  0  0  0  0  0  0  0
  -28.2026  -16.9112   19.0844 C   0  0  0  0  0  0  0  0  0  0  0  0
  -28.7584  -16.8427   21.4346 C   0  0  0  0  0  0  0  0  0  0  0  0
  -24.8714  -21.8586   23.7280 C   0  0  0  0  0  0  0  0  0  0  0  0
  -29.8043  -19.9984   20.8197 C   0  0  0  0  0  0  0  0  0  0  0  0
  -30.1731  -21.0491   21.6597 C   0  0  0  0  0  0  0  0  0  0  0  0
  -25.2537  -24.0811   24.5845 C   0  0  0  0  0  0  0  0  0  0  0  0
  -32.1866  -19.8587   22.2645 C   0  0  0  0  0  0  0  0  0  0  0  0
  -26.6727  -15.9021   20.6586 C   0  0  0  0  0  0  0  0  0  0  0  0
  -25.1952  -13.8429   20.9488 C   0  0  0  0  0  0  0  0  0  0  0  0
  -32.2177  -25.7118   18.5629 C   0  0  0  0  0  0  0  0  0  0  0  0
  -25.6690  -23.6093   22.2469 C   0  0  0  0  0  0  0  0  0  0  0  0
  -31.4066  -24.7697   19.2239 C   0  0  0  0  0  0  0  0  0  0  0  0
  -25.6509  -24.5205   23.3124 C   0  0  0  0  0  0  0  0  0  0  0  0
  -29.0831  -17.2019   20.1264 C   0  0  0  0  0  0  0  0  0  0  0  0
  -24.8678  -22.7569   24.7911 C   0  0  0  0  0  0  0  0  0  0  0  0
  -30.6265  -18.8778   20.7021 C   0  0  0  0  0  0  0  0  0  0  0  0
  -31.3643  -20.9793   22.3820 C   0  0  0  0  0  0  0  0  0  0  0  0
  -31.8177  -18.8080   21.4245 C   0  0  0  0  0  0  0  0  0  0  0  0
  -25.4277  -15.2312   20.9341 C   0  0  0  0  0  0  0  0  0  0  0  0
  -23.8633  -13.7210   21.2610 C   0  0  0  0  0  0  0  0  0  0  0  0
  -26.1022  -12.7602   20.7023 C   0  0  0  0  0  0  0  0  0  0  0  0
  -28.3599  -25.0118   21.3004 C   0  0  0  0  0  0  0  0  0  0  0  0
  -20.0714  -17.3717   24.1604 C   0  0  0  0  0  0  0  0  0  0  0  0
  -26.5256  -27.6867   21.3531 C   0  0  0  0  0  0  0  0  0  0  0  0
  -23.7779  -29.2916   22.5866 C   0  0  0  0  0  0  0  0  0  0  0  0
  -32.5200  -27.0605   19.1664 C   0  0  0  0  0  0  0  0  0  0  0  0
  -26.0667  -24.0581   20.8674 C   0  0  0  0  0  0  0  0  0  0  0  0
  -26.0547  -25.9602   23.1316 C   0  0  0  0  0  0  0  0  0  0  0  0
  -31.5538  -27.4606   20.2785 C   0  0  0  0  0  0  0  0  0  0  0  0
  -19.6916  -16.0144   20.8659 C   0  0  0  0  0  0  0  0  0  0  0  0
  -31.3460  -26.3013   21.2478 C   0  0  0  0  0  0  0  0  0  0  0  0
  -21.1039  -15.5595   20.5001 C   0  0  0  0  0  0  0  0  0  0  0  0
  -19.7155  -17.2815   21.7151 C   0  0  0  0  0  0  0  0  0  0  0  0
  -21.9599  -16.7138   22.5881 C   0  0  0  0  0  0  0  0  0  0  0  0
  -30.7266  -25.0919   20.5368 C   0  0  1  0  0  0  0  0  0  0  0  0
  -26.9485  -25.3029   20.8751 C   0  0  1  0  0  0  0  0  0  0  0  0
  -21.9822  -15.4194   21.7560 C   0  0  2  0  0  0  0  0  0  0  0  0
  -22.5605  -31.4830   22.4736 C   0  0  0  0  0  0  0  0  0  0  0  0
  -21.9107  -22.7060   27.4226 C   0  0  0  0  0  0  0  0  0  0  0  0
  -28.6450  -28.9536   23.1455 C   0  0  0  0  0  0  0  0  0  0  0  0
  -26.9740  -30.7143   23.7587 C   0  0  0  0  0  0  0  0  0  0  0  0
  -27.7185  -30.4748   21.3899 C   0  0  0  0  0  0  0  0  0  0  0  0
  -21.3324  -28.0105   21.5199 C   0  0  0  0  0  0  0  0  0  0  0  0
  -24.3384  -17.8783   28.5336 C   0  0  0  0  0  0  0  0  0  0  0  0
  -21.0185  -17.1750   25.3172 C   0  0  0  0  0  0  0  0  0  0  0  0
  -21.3940  -17.6408   27.8089 C   0  0  0  0  0  0  0  0  0  0  0  0
  -23.5242  -21.2938   26.0987 C   0  0  0  0  0  0  0  0  0  1  0  0
  -26.1863  -28.7301   22.3900 C   0  0  1  0  0  0  0  0  0  0  0  0
  -22.6785  -30.0803   21.8983 C   0  0  2  0  0  0  0  0  0  0  0  0
  -22.6756  -21.3795   27.3787 C   0  0  2  0  0  0  0  0  0  0  0  0
  -20.3695  -17.4268   26.6811 C   0  0  2  0  0  0  0  0  0  0  0  0
  -22.3938  -18.7856   27.5753 C   0  0  1  0  0  0  0  0  0  0  0  0
  -21.7279  -20.1678   27.4951 C   0  0  1  0  0  0  0  0  0  0  0  0
  -27.3752  -29.6907   22.6752 C   0  0  0  0  0  0  0  0  0  0  0  0
  -24.3313  -15.9406   21.2145 N   0  0  0  0  0  0  0  0  0  0  0  0
  -23.3970  -14.9942   21.4083 N   0  0  0  0  0  0  0  0  0  0  0  0
  -26.4415  -26.3492   21.7654 N   0  0  0  0  0  0  0  0  0  0  0  0
  -20.5782  -17.1155   22.8862 N   0  0  0  0  0  0  0  0  0  0  0  0
  -23.0571  -12.6501   21.4211 N   0  0  0  0  0  0  0  0  0  0  0  0
  -27.4358  -13.0625   20.3950 N   0  0  0  0  0  0  0  0  0  0  0  0
  -29.3079  -25.2957   20.3360 N   0  0  0  0  0  0  0  0  0  0  0  0
  -24.9786  -29.3980   21.9171 N   0  0  0  0  0  0  0  0  0  0  0  0
  -19.4801  -16.2791   27.0181 N   0  3  0  0  0  0  0  0  0  0  0  0
  -21.3666  -29.3927   22.0634 N   0  3  0  0  0  0  0  0  0  0  0  0
  -25.7370  -11.5606   20.7369 O   0  0  0  0  0  0  0  0  0  0  0  0
  -28.5731  -24.5642   22.4211 O   0  0  0  0  0  0  0  0  0  0  0  0
  -18.9152  -17.7393   24.3847 O   0  0  0  0  0  0  0  0  0  0  0  0
  -26.8462  -28.0449   20.2171 O   0  0  0  0  0  0  0  0  0  0  0  0
  -23.5911  -28.6486   23.6172 O   0  0  0  0  0  0  0  0  0  0  0  0
  -30.2593  -17.8359   19.8672 O   0  0  0  0  0  0  0  0  0  0  0  0
  -24.4805  -22.3419   26.0393 O   0  0  0  0  0  0  0  0  0  1  0  0
  -23.3102  -18.8445   28.6725 O   0  0  0  0  0  0  0  0  0  0  0  0
  -31.7192  -21.9890   23.1875 F   0  0  0  0  0  0  0  0  0  0  0  0
  -32.6123  -17.7345   21.3148 F   0  0  0  0  0  0  0  0  0  0  0  0
  -20.9848  -20.3142   28.6357 F   0  0  0  0  0  0  0  0  0  0  0  0
  1  2  1  0  0  0  0
  1  5  2  0  0  0  0
  2  6  2  0  0  0  0
  3  8  2  0  0  0  0
  3 15  1  0  0  0  0
  4  9  1  0  0  0  0
  4 15  2  0  0  0  0
  5 17  1  0  0  0  0
  6 19  1  0  0  0  0
  7 10  2  0  0  0  0
  7 18  1  0  0  0  0
  8 21  1  0  0  0  0
  9 21  2  0  0  0  0
 10 22  1  0  0  0  0
 11 12  2  0  0  0  0
 11 23  1  0  0  0  0
 12 24  1  0  0  0  0
 13 20  1  0  0  0  0
 13 22  2  0  0  0  0
 14 24  2  0  0  0  0
 14 25  1  0  0  0  0
 15 26  1  0  0  0  0
 16 26  1  0  0  0  0
 16 27  2  0  0  0  0
 16 28  1  0  0  0  0
 17 19  2  0  0  0  0
 17 33  1  0  0  0  0
 18 20  2  0  0  0  0
 18 34  1  0  0  0  0
 19 42  1  0  0  0  0
 20 35  1  0  0  0  0
 21 77  1  0  0  0  0
 22 78  1  0  0  0  0
 23 25  2  0  0  0  0
 23 77  1  0  0  0  0
 24 80  1  0  0  0  0
 25 81  1  0  0  0  0
 26 62  2  0  0  0  0
 27 63  1  0  0  0  0
 27 66  1  0  0  0  0
 28 67  1  0  0  0  0
 28 72  2  0  0  0  0
 29 43  1  0  0  0  0
 29 68  1  0  0  0  0
 29 73  2  0  0  0  0
 30 52  1  0  0  0  0
 30 65  1  0  0  0  0
 30 74  2  0  0  0  0
 31 55  1  0  0  0  0
 31 64  1  0  0  0  0
 31 75  2  0  0  0  0
 32 56  1  0  0  0  0
 32 69  1  0  0  0  0
 32 76  2  0  0  0  0
 33 36  1  0  0  0  0
 34 43  1  0  0  0  0
 35 64  1  0  0  0  0
 36 38  1  0  0  0  0
 37 39  1  0  0  0  0
 37 40  1  0  0  0  0
 38 42  1  0  0  0  0
 39 44  1  0  0  0  0
 40 65  1  0  0  0  0
 41 44  1  0  0  0  0
 41 65  1  0  0  0  0
 42 68  1  0  0  0  0
 43 64  1  0  0  0  0
 44 63  1  0  0  0  0
 45 56  1  0  0  0  0
 46 57  1  0  0  0  0
 47 61  1  0  0  0  0
 48 61  1  0  0  0  0
 49 61  1  0  0  0  0
 50 71  1  0  0  0  0
 51 79  1  0  0  0  0
 52 58  1  0  0  0  0
 53 58  1  0  0  0  0
 53 59  1  0  0  0  0
 54 57  1  0  0  0  0
 54 78  1  0  0  0  0
 55 61  1  0  0  0  0
 55 69  1  0  0  0  0
 56 71  1  0  0  0  0
 57 60  1  0  0  0  0
 58 70  1  0  0  0  0
 59 60  1  0  0  0  0
 59 79  1  0  0  0  0
 60 82  1  0  0  0  0
 62 63  1  0  0  0  0
M  CHG  2  70   1  71   1
M  ISO  4  30 100  52 100  54 101  78 101
M  END
> <Batch ID>
0107

> <Smiles>
CNC(C)C(=O)NC(C(=O)N1Cc2cc([101O:1][101CH2:1]C(C)C(F)C(CC(N)[100CH2:0][100C:0](=O)N3CCCC(n4nc(-c5ccc(Oc6ccc(F)cc6F)cc5)c(C(N)=O)c4N)C3)OC)ccc2CC1C(=O)NC1CCCc2ccccc21)C(C)(C)C

> <Shape>
0.175

> <Color>
0.078

> <Negative vol penalty>
0.000

$$$$

  -OEChem-04052319513D

 89 97  0     1  0  0  0  0  0999 V2000
  -29.6766  -12.1132   20.1316 C   0  0  0  0  0  0  0  0  0  0  0  0
  -29.5986  -13.2214   20.9691 C   0  0  0  0  0  0  0  0  0  0  0  0
  -26.1250  -28.7223   21.7247 C   0  0  0  0  0  0  0  0  0  0  0  0
  -26.7133  -29.0732   19.4078 C   0  0  0  0  0  0  0  0  0  0  0  0
  -28.8217  -12.0078   19.0353 C   0  0  0  0  0  0  0  0  0  0  0  0
  -28.6663  -14.2254   20.7100 C   0  0  0  0  0  0  0  0  0  0  0  0
  -24.5010  -18.9807   24.0796 C   0  0  0  0  0  0  0  0  0  0  0  0
  -24.9784  -29.4973   21.5510 C   0  0  0  0  0  0  0  0  0  0  0  0
  -25.5666  -29.8482   19.2340 C   0  0  0  0  0  0  0  0  0  0  0  0
  -24.2045  -20.3430   24.0803 C   0  0  0  0  0  0  0  0  0  0  0  0
  -21.8857  -29.1108   20.2400 C   0  0  0  0  0  0  0  0  0  0  0  0
  -20.6902  -28.6282   20.7725 C   0  0  0  0  0  0  0  0  0  0  0  0
  -22.7254  -20.0158   22.2029 C   0  0  0  0  0  0  0  0  0  0  0  0
  -20.5106  -30.6002   22.1567 C   0  0  0  0  0  0  0  0  0  0  0  0
  -26.9925  -28.5103   20.6531 C   0  0  0  0  0  0  0  0  0  0  0  0
  -29.2401  -27.9525   21.7231 C   0  0  0  0  0  0  0  0  0  0  0  0
  -27.8719  -13.0064   18.7682 C   0  0  0  0  0  0  0  0  0  0  0  0
  -23.9194  -18.1261   23.1321 C   0  0  0  0  0  0  0  0  0  0  0  0
  -27.7988  -14.1339   19.6083 C   0  0  0  0  0  0  0  0  0  0  0  0
  -23.0142  -18.6426   22.1940 C   0  0  0  0  0  0  0  0  0  0  0  0
  -24.6991  -30.0602   20.3057 C   0  0  0  0  0  0  0  0  0  0  0  0
  -23.3188  -20.8612   23.1401 C   0  0  0  0  0  0  0  0  0  0  0  0
  -22.3936  -30.3381   20.6659 C   0  0  0  0  0  0  0  0  0  0  0  0
  -20.0027  -29.3728   21.7308 C   0  0  0  0  0  0  0  0  0  0  0  0
  -21.7061  -31.0828   21.6242 C   0  0  0  0  0  0  0  0  0  0  0  0
  -28.1774  -27.7103   20.8321 C   0  0  0  0  0  0  0  0  0  0  0  0
  -30.1108  -26.9118   21.5101 C   0  0  0  0  0  0  0  0  0  0  0  0
  -29.4238  -29.0226   22.6595 C   0  0  0  0  0  0  0  0  0  0  0  0
  -25.0315  -16.2714   20.8025 C   0  0  0  0  0  0  0  0  0  0  0  0
  -21.9304  -15.3439   20.5903 C   0  0  0  0  0  0  0  0  0  0  0  0
  -29.2818  -21.3635   19.3558 C   0  0  0  0  0  0  0  0  0  0  0  0
  -18.6436  -16.0727   21.1497 C   0  0  0  0  0  0  0  0  0  0  0  0
  -27.0013  -12.8714   17.5441 C   0  0  0  0  0  0  0  0  0  0  0  0
  -24.2291  -16.6545   23.1616 C   0  0  0  0  0  0  0  0  0  0  0  0
  -22.3474  -17.7641   21.1684 C   0  0  0  0  0  0  0  0  0  0  0  0
  -25.7880  -13.7977   17.5544 C   0  0  0  0  0  0  0  0  0  0  0  0
  -25.5339  -20.6544   15.1846 C   0  0  0  0  0  0  0  0  0  0  0  0
  -25.9145  -19.4011   15.9668 C   0  0  0  0  0  0  0  0  0  0  0  0
  -26.2246  -21.8950   15.7423 C   0  0  0  0  0  0  0  0  0  0  0  0
  -31.5494  -23.8543   18.1337 C   0  0  0  0  0  0  0  0  0  0  0  0
  -26.1984  -15.2105   17.9573 C   0  0  0  0  0  0  0  0  0  0  0  0
  -25.6472  -19.5667   17.4610 C   0  0  0  0  0  0  0  0  0  0  0  0
  -25.9580  -22.0648   17.2362 C   0  0  0  0  0  0  0  0  0  0  0  0
  -31.0215  -25.1514   18.7451 C   0  0  0  0  0  0  0  0  0  0  0  0
  -30.4128  -22.8995   17.7823 C   0  0  0  0  0  0  0  0  0  0  0  0
  -28.9769  -23.8823   19.5413 C   0  0  0  0  0  0  0  0  0  0  0  0
  -26.7839  -15.2319   19.3745 C   0  0  1  0  0  0  0  0  0  0  0  0
  -23.9749  -15.9635   21.8254 C   0  0  1  0  0  0  0  0  0  0  0  0
  -26.3478  -20.8091   18.0276 C   0  0  0  0  0  0  0  0  0  0  0  0
  -30.0945  -24.8625   19.9392 C   0  0  2  0  0  0  0  0  0  0  0  0
  -16.3369  -15.1357   20.8354 C   0  0  0  0  0  0  0  0  0  0  0  0
  -23.6877  -26.1046   21.0789 C   0  0  0  0  0  0  0  0  0  0  0  0
  -21.9523  -24.3945   21.6714 C   0  0  0  0  0  0  0  0  0  0  0  0
  -23.5334  -23.7734   24.8526 C   0  0  0  0  0  0  0  0  0  0  0  0
  -28.2289  -19.7060   20.8460 C   0  0  0  0  0  0  0  0  0  0  0  0
  -29.1400  -21.8820   21.7096 C   0  0  0  0  0  0  0  0  0  0  0  0
  -22.0581  -16.0322   17.6205 C   0  0  0  0  0  0  0  0  0  0  0  0
  -19.5551  -15.9940   17.5753 C   0  0  0  0  0  0  0  0  0  0  0  0
  -20.8222  -13.9236   18.1504 C   0  0  0  0  0  0  0  0  0  0  0  0
  -18.1209  -16.0726   24.0627 C   0  0  0  0  0  0  0  0  0  0  0  0
  -26.0224  -20.9830   19.5099 C   0  0  0  0  0  0  0  0  0  0  0  0
  -26.3458  -22.4902   21.5531 C   0  0  0  0  0  0  0  0  0  0  0  0
  -25.1084  -23.3425   21.2429 C   0  0  0  0  0  0  0  0  0  0  0  0
  -20.7225  -15.8197   19.8198 C   0  0  1  0  0  0  0  0  0  0  0  0
  -17.5245  -15.2611   21.7770 C   0  0  2  0  0  0  0  0  0  0  0  0
  -23.2733  -25.0407   22.0997 C   0  0  0  0  0  0  0  0  0  0  0  0
  -27.0092  -21.9176   20.2647 C   0  0  1  0  0  0  0  0  0  0  0  0
  -24.4333  -24.0476   22.4492 C   0  0  1  0  0  0  0  0  0  0  0  0
  -24.0566  -23.0747   23.6007 C   0  0  2  0  0  0  0  0  0  1  0  0
  -28.3794  -21.2054   20.5536 C   0  0  0  0  0  0  0  0  0  0  0  0
  -20.8034  -15.4595   18.3094 C   0  0  0  0  0  0  0  0  0  0  0  0
  -28.3548  -26.6027   20.1070 N   0  0  0  0  0  0  0  0  0  0  0  0
  -29.5391  -26.1398   20.5420 N   0  0  0  0  0  0  0  0  0  0  0  0
  -22.6873  -16.3331   21.2339 N   0  0  0  0  0  0  0  0  0  0  0  0
  -29.5423  -22.6682   18.9364 N   0  0  0  0  0  0  0  0  0  0  0  0
  -31.3020  -26.5911   22.0583 N   0  0  0  0  0  0  0  0  0  0  0  0
  -30.0855  -30.1807   22.2293 N   0  0  0  0  0  0  0  0  0  0  0  0
  -25.7260  -15.1619   20.3595 N   0  0  0  0  0  0  0  0  0  0  0  0
  -19.5583  -15.2677   20.5042 N   0  0  0  0  0  0  0  0  0  0  0  0
  -17.0593  -15.9074   23.0367 N   0  3  0  0  0  0  0  0  0  0  0  0
  -29.0277  -28.9472   23.8474 O   0  0  0  0  0  0  0  0  0  0  0  0
  -25.2029  -17.4296   20.4407 O   0  0  0  0  0  0  0  0  0  0  0  0
  -22.1885  -14.1382   20.6259 O   0  0  0  0  0  0  0  0  0  0  0  0
  -29.7428  -20.3564   18.8123 O   0  0  0  0  0  0  0  0  0  0  0  0
  -18.6987  -17.2983   21.2217 O   0  0  0  0  0  0  0  0  0  0  0  0
  -23.5802  -30.8163   20.1357 O   0  0  0  0  0  0  0  0  0  0  0  0
  -23.0269  -22.1963   23.1381 O   0  0  0  0  0  0  0  0  0  1  0  0
  -18.8539  -28.9100   22.2409 F   0  0  0  0  0  0  0  0  0  0  0  0
  -22.1885  -32.2631   22.0364 F   0  0  0  0  0  0  0  0  0  0  0  0
  1  2  1  0  0  0  0
  1  5  2  0  0  0  0
  2  6  2  0  0  0  0
  3  8  2  0  0  0  0
  3 15  1  0  0  0  0
  4  9  1  0  0  0  0
  4 15  2  0  0  0  0
  5 17  1  0  0  0  0
  6 19  1  0  0  0  0
  7 10  2  0  0  0  0
  7 18  1  0  0  0  0
  8 21  1  0  0  0  0
  9 21  2  0  0  0  0
 10 22  1  0  0  0  0
 11 12  2  0  0  0  0
 11 23  1  0  0  0  0
 12 24  1  0  0  0  0
 13 20  1  0  0  0  0
 13 22  2  0  0  0  0
 14 24  2  0  0  0  0
 14 25  1  0  0  0  0
 15 26  1  0  0  0  0
 16 26  1  0  0  0  0
 16 27  2  0  0  0  0
 16 28  1  0  0  0  0
 17 19  2  0  0  0  0
 17 33  1  0  0  0  0
 18 20  2  0  0  0  0
 18 34  1  0  0  0  0
 19 47  1  0  0  0  0
 20 35  1  0  0  0  0
 21 86  1  0  0  0  0
 22 87  1  0  0  0  0
 23 25  2  0  0  0  0
 23 86  1  0  0  0  0
 24 88  1  0  0  0  0
 25 89  1  0  0  0  0
 26 72  2  0  0  0  0
 27 73  1  0  0  0  0
 27 76  1  0  0  0  0
 28 77  1  0  0  0  0
 28 81  2  0  0  0  0
 29 48  1  0  0  0  0
 29 78  1  0  0  0  0
 29 82  2  0  0  0  0
 30 64  1  0  0  0  0
 30 74  1  0  0  0  0
 30 83  2  0  0  0  0
 31 70  1  0  0  0  0
 31 75  1  0  0  0  0
 31 84  2  0  0  0  0
 32 65  1  0  0  0  0
 32 79  1  0  0  0  0
 32 85  2  0  0  0  0
 33 36  1  0  0  0  0
 34 48  1  0  0  0  0
 35 74  1  0  0  0  0
 36 41  1  0  0  0  0
 37 38  1  0  0  0  0
 37 39  1  0  0  0  0
 38 42  1  0  0  0  0
 39 43  1  0  0  0  0
 40 44  1  0  0  0  0
 40 45  1  0  0  0  0
 41 47  1  0  0  0  0
 42 49  1  0  0  0  0
 43 49  1  0  0  0  0
 44 50  1  0  0  0  0
 45 75  1  0  0  0  0
 46 50  1  0  0  0  0
 46 75  1  0  0  0  0
 47 78  1  0  0  0  0
 48 74  1  0  0  0  0
 49 61  1  0  0  0  0
 50 73  1  0  0  0  0
 51 65  1  0  0  0  0
 52 66  1  0  0  0  0
 53 66  1  0  0  0  0
 54 69  1  0  0  0  0
 55 70  1  0  0  0  0
 56 70  1  0  0  0  0
 57 71  1  0  0  0  0
 58 71  1  0  0  0  0
 59 71  1  0  0  0  0
 60 80  1  0  0  0  0
 61 67  1  0  0  0  0
 62 63  1  0  0  0  0
 62 67  1  0  0  0  0
 63 68  1  0  0  0  0
 64 71  1  0  0  0  0
 64 79  1  0  0  0  0
 65 80  1  0  0  0  0
 66 68  1  0  0  0  0
 67 70  1  0  0  0  0
 68 69  1  0  0  0  0
 69 87  1  0  0  0  0
 72 73  1  0  0  0  0
M  CHG  1  80   1
M  ISO  4  31 100  69 101  70 100  87 101
M  END
> <Batch ID>
0107

> <Smiles>
CNC(C)C(=O)NC(C(=O)N1Cc2cc([101O:1][101CH:1](C)C(CCC(CC3CCCCC3)[100C:0](C)(C)[100C:0](=O)N3CCCC(n4nc(-c5ccc(Oc6ccc(F)cc6F)cc5)c(C(N)=O)c4N)C3)C(C)C)ccc2CC1C(=O)NC1CCCc2ccccc21)C(C)(C)C

> <Shape>
0.208

> <Color>
0.074

> <Negative vol penalty>
0.000

$$$$

  -OEChem-04052319513D

 86 94  0     1  0  0  0  0  0999 V2000
  -32.3435  -24.9729   18.7872 C   0  0  0  0  0  0  0  0  0  0  0  0
  -30.9909  -25.2003   18.5599 C   0  0  0  0  0  0  0  0  0  0  0  0
  -27.6343  -14.5121   19.1899 C   0  0  0  0  0  0  0  0  0  0  0  0
  -25.5191  -15.2159   20.1214 C   0  0  0  0  0  0  0  0  0  0  0  0
  -32.9077  -25.3166   20.0139 C   0  0  0  0  0  0  0  0  0  0  0  0
  -30.2046  -25.7823   19.5549 C   0  0  0  0  0  0  0  0  0  0  0  0
  -24.2161  -26.8936   19.7273 C   0  0  0  0  0  0  0  0  0  0  0  0
  -27.3615  -13.1965   19.5645 C   0  0  0  0  0  0  0  0  0  0  0  0
  -25.2463  -13.9002   20.4959 C   0  0  0  0  0  0  0  0  0  0  0  0
  -23.0610  -26.2441   20.1605 C   0  0  0  0  0  0  0  0  0  0  0  0
  -24.1590  -11.0646   19.0135 C   0  0  0  0  0  0  0  0  0  0  0  0
  -22.8816  -10.5695   18.7518 C   0  0  0  0  0  0  0  0  0  0  0  0
  -23.1637  -27.4616   22.2405 C   0  0  0  0  0  0  0  0  0  0  0  0
  -24.1429  -21.7596   24.6169 C   0  0  0  0  0  0  0  0  0  0  0  0
  -22.5513  -10.1738   21.1122 C   0  0  0  0  0  0  0  0  0  0  0  0
  -23.6927  -23.3592   23.0975 C   0  0  0  0  0  0  0  0  0  0  0  0
  -26.7131  -15.5218   19.4684 C   0  0  0  0  0  0  0  0  0  0  0  0
  -26.6650  -17.5043   17.8637 C   0  0  0  0  0  0  0  0  0  0  0  0
  -32.1245  -25.8916   21.0283 C   0  0  0  0  0  0  0  0  0  0  0  0
  -24.8609  -27.8255   20.5532 C   0  0  0  0  0  0  0  0  0  0  0  0
  -30.7607  -26.1582   20.7910 C   0  0  0  0  0  0  0  0  0  0  0  0
  -24.3254  -28.1234   21.8144 C   0  0  0  0  0  0  0  0  0  0  0  0
  -24.7183  -22.7595   23.7945 C   0  0  0  0  0  0  0  0  0  0  0  0
  -26.1675  -12.8905   20.2175 C   0  0  0  0  0  0  0  0  0  0  0  0
  -22.5362  -26.5259   21.4184 C   0  0  0  0  0  0  0  0  0  0  0  0
  -24.6327  -11.1143   20.3246 C   0  0  0  0  0  0  0  0  0  0  0  0
  -22.0777  -10.1241   19.8011 C   0  0  0  0  0  0  0  0  0  0  0  0
  -23.8288  -10.6689   21.3739 C   0  0  0  0  0  0  0  0  0  0  0  0
  -26.9945  -16.8812   19.0822 C   0  0  0  0  0  0  0  0  0  0  0  0
  -22.7832  -21.7786   24.3973 C   0  0  0  0  0  0  0  0  0  0  0  0
  -27.1462  -18.7844   17.9915 C   0  0  0  0  0  0  0  0  0  0  0  0
  -25.9847  -16.9735   16.7186 C   0  0  0  0  0  0  0  0  0  0  0  0
  -27.7327  -28.0182   21.9021 C   0  0  0  0  0  0  0  0  0  0  0  0
  -26.6976  -30.9675   22.7695 C   0  0  0  0  0  0  0  0  0  0  0  0
  -24.0639  -33.0436   23.4021 C   0  0  0  0  0  0  0  0  0  0  0  0
  -28.2779  -22.2605   22.7335 C   0  0  0  0  0  0  0  0  0  0  0  0
  -32.7882  -26.2513   22.3342 C   0  0  0  0  0  0  0  0  0  0  0  0
  -26.0910  -28.5372   20.0605 C   0  0  0  0  0  0  0  0  0  0  0  0
  -24.9684  -29.1307   22.7311 C   0  0  0  0  0  0  0  0  0  0  0  0
  -31.7925  -26.4483   23.4726 C   0  0  0  0  0  0  0  0  0  0  0  0
  -30.5751  -21.2934   20.1910 C   0  0  0  0  0  0  0  0  0  0  0  0
  -30.6727  -27.3777   23.0288 C   0  0  0  0  0  0  0  0  0  0  0  0
  -29.8882  -20.1092   19.5086 C   0  0  0  0  0  0  0  0  0  0  0  0
  -30.3148  -21.3063   21.6957 C   0  0  0  0  0  0  0  0  0  0  0  0
  -28.2045  -20.0691   21.3960 C   0  0  0  0  0  0  0  0  0  0  0  0
  -29.8793  -26.7620   21.8694 C   0  0  1  0  0  0  0  0  0  0  0  0
  -26.9550  -29.0889   21.1903 C   0  0  1  0  0  0  0  0  0  0  0  0
  -28.3919  -20.0449   19.8694 C   0  0  2  0  0  0  0  0  0  0  0  0
  -23.5323  -35.3861   24.1286 C   0  0  0  0  0  0  0  0  0  0  0  0
  -22.2883  -19.9142   26.0173 C   0  0  0  0  0  0  0  0  0  0  0  0
  -20.9396  -20.1343   23.9034 C   0  0  0  0  0  0  0  0  0  0  0  0
  -20.6029  -21.7269   25.7826 C   0  0  0  0  0  0  0  0  0  0  0  0
  -27.4104  -30.2350   25.6444 C   0  0  0  0  0  0  0  0  0  0  0  0
  -26.0136  -32.1669   26.4093 C   0  0  0  0  0  0  0  0  0  0  0  0
  -28.0189  -32.5682   24.9809 C   0  0  0  0  0  0  0  0  0  0  0  0
  -19.0773  -24.5086   22.9083 C   0  0  0  0  0  0  0  0  0  0  0  0
  -20.3044  -24.2548   25.0658 C   0  0  0  0  0  0  0  0  0  0  0  0
  -22.6480  -33.6314   20.8705 C   0  0  0  0  0  0  0  0  0  0  0  0
  -26.1514  -23.0974   23.7013 C   0  0  0  0  0  0  0  0  0  0  0  0
  -21.1571  -23.1225   22.9348 C   0  0  0  0  0  0  0  0  0  0  0  0
  -21.2742  -25.6814   23.2488 C   0  0  0  0  0  0  0  0  0  1  0  0
  -25.9530  -31.5335   23.9545 C   0  0  1  0  0  0  0  0  0  0  0  0
  -23.7654  -34.4601   22.9449 C   0  0  2  0  0  0  0  0  0  0  0  0
  -21.7152  -20.9488   24.9921 C   0  0  0  0  0  0  0  0  0  0  0  0
  -26.8377  -31.6055   25.2310 C   0  0  0  0  0  0  0  0  0  0  0  0
  -20.4818  -24.3884   23.5422 C   0  0  0  0  0  0  0  0  0  0  0  0
  -27.6357  -17.6980   19.9223 N   0  0  0  0  0  0  0  0  0  0  0  0
  -22.5211  -22.7547   23.4717 N   0  0  0  0  0  0  0  0  0  0  0  0
  -27.7130  -18.8476   19.2304 N   0  0  0  0  0  0  0  0  0  0  0  0
  -26.1728  -29.7955   22.2066 N   0  0  0  0  0  0  0  0  0  0  0  0
  -28.8771  -21.2451   21.9699 N   0  0  0  0  0  0  0  0  0  0  0  0
  -27.1357  -19.8507   17.1637 N   0  0  0  0  0  0  0  0  0  0  0  0
  -25.5573  -15.6392   16.7545 N   0  0  0  0  0  0  0  0  0  0  0  0
  -28.9679  -27.7536   21.3420 N   0  0  0  0  0  0  0  0  0  0  0  0
  -25.4192  -32.8212   23.5241 N   0  0  0  0  0  0  0  0  0  0  0  0
  -26.9103  -22.1294   22.9411 N   0  0  0  0  0  0  0  0  0  0  0  0
  -22.5486  -34.4813   22.0849 N   0  3  0  0  0  0  0  0  0  0  0  0
  -25.7768  -17.6573   15.6877 O   0  0  0  0  0  0  0  0  0  0  0  0
  -27.2486  -27.4736   22.8873 O   0  0  0  0  0  0  0  0  0  0  0  0
  -27.7036  -31.5480   22.3540 O   0  0  0  0  0  0  0  0  0  0  0  0
  -23.1827  -32.2183   23.6318 O   0  0  0  0  0  0  0  0  0  0  0  0
  -28.9136  -23.2161   23.1913 O   0  0  0  0  0  0  0  0  0  0  0  0
  -25.9009  -11.6068   20.5829 O   0  0  0  0  0  0  0  0  0  0  0  0
  -21.4093  -25.8929   21.8440 O   0  0  0  0  0  0  0  0  0  1  0  0
  -20.8503   -9.6501   19.5498 F   0  0  0  0  0  0  0  0  0  0  0  0
  -24.2779  -10.7152   22.6357 F   0  0  0  0  0  0  0  0  0  0  0  0
  1  2  1  0  0  0  0
  1  5  2  0  0  0  0
  2  6  2  0  0  0  0
  3  8  2  0  0  0  0
  3 17  1  0  0  0  0
  4  9  1  0  0  0  0
  4 17  2  0  0  0  0
  5 19  1  0  0  0  0
  6 21  1  0  0  0  0
  7 10  2  0  0  0  0
  7 20  1  0  0  0  0
  8 24  1  0  0  0  0
  9 24  2  0  0  0  0
 10 25  1  0  0  0  0
 11 12  2  0  0  0  0
 11 26  1  0  0  0  0
 12 27  1  0  0  0  0
 13 22  1  0  0  0  0
 13 25  2  0  0  0  0
 14 23  1  0  0  0  0
 14 30  2  0  0  0  0
 15 27  2  0  0  0  0
 15 28  1  0  0  0  0
 16 23  2  0  0  0  0
 16 68  1  0  0  0  0
 17 29  1  0  0  0  0
 18 29  1  0  0  0  0
 18 31  2  0  0  0  0
 18 32  1  0  0  0  0
 19 21  2  0  0  0  0
 19 37  1  0  0  0  0
 20 22  2  0  0  0  0
 20 38  1  0  0  0  0
 21 46  1  0  0  0  0
 22 39  1  0  0  0  0
 23 59  1  0  0  0  0
 24 83  1  0  0  0  0
 25 84  1  0  0  0  0
 26 28  2  0  0  0  0
 26 83  1  0  0  0  0
 27 85  1  0  0  0  0
 28 86  1  0  0  0  0
 29 67  2  0  0  0  0
 30 64  1  0  0  0  0
 30 68  1  0  0  0  0
 31 69  1  0  0  0  0
 31 72  1  0  0  0  0
 32 73  1  0  0  0  0
 32 78  2  0  0  0  0
 33 47  1  0  0  0  0
 33 74  1  0  0  0  0
 33 79  2  0  0  0  0
 34 62  1  0  0  0  0
 34 70  1  0  0  0  0
 34 80  2  0  0  0  0
 35 63  1  0  0  0  0
 35 75  1  0  0  0  0
 35 81  2  0  0  0  0
 36 71  1  0  0  0  0
 36 76  1  0  0  0  0
 36 82  2  0  0  0  0
 37 40  1  0  0  0  0
 38 47  1  0  0  0  0
 39 70  1  0  0  0  0
 40 42  1  0  0  0  0
 41 43  1  0  0  0  0
 41 44  1  0  0  0  0
 42 46  1  0  0  0  0
 43 48  1  0  0  0  0
 44 71  1  0  0  0  0
 45 48  1  0  0  0  0
 45 71  1  0  0  0  0
 46 74  1  0  0  0  0
 47 70  1  0  0  0  0
 48 69  1  0  0  0  0
 49 63  1  0  0  0  0
 50 64  1  0  0  0  0
 51 64  1  0  0  0  0
 52 64  1  0  0  0  0
 53 65  1  0  0  0  0
 54 65  1  0  0  0  0
 55 65  1  0  0  0  0
 56 66  1  0  0  0  0
 57 66  1  0  0  0  0
 58 77  1  0  0  0  0
 59 76  1  0  0  0  0
 60 66  1  0  0  0  0
 60 68  1  0  0  0  0
 61 66  1  0  0  0  0
 61 84  1  0  0  0  0
 62 65  1  0  0  0  0
 62 75  1  0  0  0  0
 63 77  1  0  0  0  0
 67 69  1  0  0  0  0
M  CHG  1  77   1
M  ISO  4  36 100  61 101  76 100  84 101
M  END
> <Batch ID>
0107

> <Smiles>
CNC(C)C(=O)NC(C(=O)N1Cc2cc([101O:1][101CH2:1]C(C)(C)Cn3cc(C[100NH:0][100C:0](=O)N4CCCC(n5nc(-c6ccc(Oc7ccc(F)cc7F)cc6)c(C(N)=O)c5N)C4)cc3C(C)(C)C)ccc2CC1C(=O)NC1CCCc2ccccc21)C(C)(C)C

> <Shape>
0.243

> <Color>
0.057

> <Negative vol penalty>
0.000

$$$$

  -OEChem-04052319513D

 81 88  0     1  0  0  0  0  0999 V2000
  -16.5281  -29.8584   23.5215 C   0  0  0  0  0  0  0  0  0  0  0  0
  -17.5782  -30.6352   24.0005 C   0  0  0  0  0  0  0  0  0  0  0  0
  -31.0971  -16.8262   20.4176 C   0  0  0  0  0  0  0  0  0  0  0  0
  -28.9967  -18.0134   20.2920 C   0  0  0  0  0  0  0  0  0  0  0  0
  -16.7883  -28.6160   22.9447 C   0  0  0  0  0  0  0  0  0  0  0  0
  -18.8890  -30.1694   23.9041 C   0  0  0  0  0  0  0  0  0  0  0  0
  -25.5931  -32.5157   22.9739 C   0  0  0  0  0  0  0  0  0  0  0  0
  -30.4097  -15.6341   20.6456 C   0  0  0  0  0  0  0  0  0  0  0  0
  -28.3093  -16.8213   20.5199 C   0  0  0  0  0  0  0  0  0  0  0  0
  -26.8571  -32.4228   23.5549 C   0  0  0  0  0  0  0  0  0  0  0  0
  -28.7121  -13.3494   18.8205 C   0  0  0  0  0  0  0  0  0  0  0  0
  -29.1192  -12.2203   18.1099 C   0  0  0  0  0  0  0  0  0  0  0  0
  -27.1939  -30.2959   22.4676 C   0  0  0  0  0  0  0  0  0  0  0  0
  -29.6016  -11.0864   20.1880 C   0  0  0  0  0  0  0  0  0  0  0  0
  -30.3907  -18.0159   20.2409 C   0  0  0  0  0  0  0  0  0  0  0  0
  -31.4790  -19.7866   18.7618 C   0  0  0  0  0  0  0  0  0  0  0  0
  -18.1038  -28.1390   22.8325 C   0  0  0  0  0  0  0  0  0  0  0  0
  -25.1149  -31.4925   22.1428 C   0  0  0  0  0  0  0  0  0  0  0  0
  -19.1668  -28.9188   23.3266 C   0  0  0  0  0  0  0  0  0  0  0  0
  -25.9246  -30.3794   21.8753 C   0  0  0  0  0  0  0  0  0  0  0  0
  -29.0158  -15.6317   20.6967 C   0  0  0  0  0  0  0  0  0  0  0  0
  -27.6566  -31.3114   23.3041 C   0  0  0  0  0  0  0  0  0  0  0  0
  -28.7499  -13.3471   20.2149 C   0  0  0  0  0  0  0  0  0  0  0  0
  -29.5639  -11.0888   18.7936 C   0  0  0  0  0  0  0  0  0  0  0  0
  -29.1946  -12.2155   20.8986 C   0  0  0  0  0  0  0  0  0  0  0  0
  -31.1002  -19.2477   20.0059 C   0  0  0  0  0  0  0  0  0  0  0  0
  -32.1218  -20.9588   19.0767 C   0  0  0  0  0  0  0  0  0  0  0  0
  -31.2686  -19.2734   17.4396 C   0  0  0  0  0  0  0  0  0  0  0  0
  -22.6566  -29.4803   22.2499 C   0  0  0  0  0  0  0  0  0  0  0  0
  -23.6891  -28.6742   19.2823 C   0  0  0  0  0  0  0  0  0  0  0  0
  -32.3217  -25.7050   22.0303 C   0  0  0  0  0  0  0  0  0  0  0  0
  -26.2642  -28.5452   17.0464 C   0  0  0  0  0  0  0  0  0  0  0  0
  -18.3315  -26.7690   22.2443 C   0  0  0  0  0  0  0  0  0  0  0  0
  -23.7599  -31.6204   21.5024 C   0  0  0  0  0  0  0  0  0  0  0  0
  -25.4658  -29.2633   20.9740 C   0  0  0  0  0  0  0  0  0  0  0  0
  -19.7812  -26.5127   21.8407 C   0  0  0  0  0  0  0  0  0  0  0  0
  -33.7171  -22.7587   23.5178 C   0  0  0  0  0  0  0  0  0  0  0  0
  -20.7303  -26.9542   22.9502 C   0  0  0  0  0  0  0  0  0  0  0  0
  -33.1674  -21.6251   22.6529 C   0  0  0  0  0  0  0  0  0  0  0  0
  -32.7044  -23.8899   23.6654 C   0  0  0  0  0  0  0  0  0  0  0  0
  -31.6619  -23.3063   21.4987 C   0  0  0  0  0  0  0  0  0  0  0  0
  -20.6045  -28.4590   23.2176 C   0  0  1  0  0  0  0  0  0  0  0  0
  -23.1678  -30.2781   21.0838 C   0  0  1  0  0  0  0  0  0  0  0  0
  -32.6652  -22.1566   21.2988 C   0  0  2  0  0  0  0  0  0  0  0  0
  -26.8124  -27.7986   14.7142 C   0  0  0  0  0  0  0  0  0  0  0  0
  -32.6587  -29.4692   23.2248 C   0  0  0  0  0  0  0  0  0  0  0  0
  -28.7101  -30.4682   26.1439 C   0  0  0  0  0  0  0  0  0  0  0  0
  -31.7574  -26.1042   19.6393 C   0  0  0  0  0  0  0  0  0  0  0  0
  -29.9485  -25.5277   21.3031 C   0  0  0  0  0  0  0  0  0  0  0  0
  -23.7516  -25.7740   20.2280 C   0  0  0  0  0  0  0  0  0  0  0  0
  -25.1716  -25.2291   18.2393 C   0  0  0  0  0  0  0  0  0  0  0  0
  -22.8558  -26.0981   17.9157 C   0  0  0  0  0  0  0  0  0  0  0  0
  -26.9751  -31.2934   16.2093 C   0  0  0  0  0  0  0  0  0  0  0  0
  -30.1401  -28.3368   20.3703 C   0  0  0  0  0  0  0  0  0  0  0  0
  -30.6163  -29.7304   24.6690 C   0  0  0  0  0  0  0  0  0  0  0  0
  -30.6726  -27.9619   22.7740 C   0  0  0  0  0  0  0  0  0  0  0  0
  -24.6658  -27.6657   18.7275 C   0  0  1  0  0  0  0  0  0  0  0  0
  -26.3531  -28.9557   15.5876 C   0  0  2  0  0  0  0  0  0  0  0  0
  -31.1304  -29.3427   23.2639 C   0  0  2  0  0  0  0  0  0  0  0  0
  -29.1296  -30.1010   24.7257 C   0  0  2  0  0  0  0  0  0  1  0  0
  -31.2789  -26.2394   21.0811 C   0  0  0  0  0  0  0  0  0  0  0  0
  -24.1194  -26.2117   18.7962 C   0  0  0  0  0  0  0  0  0  0  0  0
  -31.4716  -20.0146   21.0346 N   0  0  0  0  0  0  0  0  0  0  0  0
  -32.0905  -21.0472   20.4373 N   0  0  0  0  0  0  0  0  0  0  0  0
  -24.1308  -29.4315   20.3765 N   0  0  0  0  0  0  0  0  0  0  0  0
  -32.2350  -24.3517   22.3579 N   0  0  0  0  0  0  0  0  0  0  0  0
  -32.7052  -21.9122   18.3197 N   0  0  0  0  0  0  0  0  0  0  0  0
  -30.5897  -18.0557   17.2957 N   0  0  0  0  0  0  0  0  0  0  0  0
  -21.3018  -29.2134   22.1982 N   0  0  0  0  0  0  0  0  0  0  0  0
  -24.9969  -28.1165   17.3800 N   0  0  0  0  0  0  0  0  0  0  0  0
  -27.3175  -30.0800   15.4237 N   0  3  0  0  0  0  0  0  0  0  0  0
  -31.0784  -27.7074   21.3716 N   0  3  1  0  0  0  0  0  0  0  0  0
  -31.6850  -19.8687   16.4170 O   0  0  0  0  0  0  0  0  0  0  0  0
  -23.4341  -29.1313   23.1305 O   0  0  0  0  0  0  0  0  0  0  0  0
  -22.5780  -28.7910   18.7594 O   0  0  0  0  0  0  0  0  0  0  0  0
  -33.1885  -26.4682   22.4642 O   0  0  0  0  0  0  0  0  0  0  0  0
  -27.2240  -28.5960   17.8123 O   0  0  0  0  0  0  0  0  0  0  0  0
  -28.3447  -14.4686   20.9189 O   0  0  0  0  0  0  0  0  0  0  0  0
  -28.8904  -31.2180   23.8704 O   0  0  0  0  0  0  0  0  0  1  0  0
  -29.9533  -10.0040   18.1111 F   0  0  0  0  0  0  0  0  0  0  0  0
  -29.2320  -12.2069   22.2381 F   0  0  0  0  0  0  0  0  0  0  0  0
  1  2  1  0  0  0  0
  1  5  2  0  0  0  0
  2  6  2  0  0  0  0
  3  8  2  0  0  0  0
  3 15  1  0  0  0  0
  4  9  1  0  0  0  0
  4 15  2  0  0  0  0
  5 17  1  0  0  0  0
  6 19  1  0  0  0  0
  7 10  2  0  0  0  0
  7 18  1  0  0  0  0
  8 21  1  0  0  0  0
  9 21  2  0  0  0  0
 10 22  1  0  0  0  0
 11 12  2  0  0  0  0
 11 23  1  0  0  0  0
 12 24  1  0  0  0  0
 13 20  1  0  0  0  0
 13 22  2  0  0  0  0
 14 24  2  0  0  0  0
 14 25  1  0  0  0  0
 15 26  1  0  0  0  0
 16 26  1  0  0  0  0
 16 27  2  0  0  0  0
 16 28  1  0  0  0  0
 17 19  2  0  0  0  0
 17 33  1  0  0  0  0
 18 20  2  0  0  0  0
 18 34  1  0  0  0  0
 19 42  1  0  0  0  0
 20 35  1  0  0  0  0
 21 78  1  0  0  0  0
 22 79  1  0  0  0  0
 23 25  2  0  0  0  0
 23 78  1  0  0  0  0
 24 80  1  0  0  0  0
 25 81  1  0  0  0  0
 26 63  2  0  0  0  0
 27 64  1  0  0  0  0
 27 67  1  0  0  0  0
 28 68  1  0  0  0  0
 28 73  2  0  0  0  0
 29 43  1  0  0  0  0
 29 69  1  0  0  0  0
 29 74  2  0  0  0  0
 30 57  1  0  0  0  0
 30 65  1  0  0  0  0
 30 75  2  0  0  0  0
 31 61  1  0  0  0  0
 31 66  1  0  0  0  0
 31 76  2  0  0  0  0
 32 58  1  0  0  0  0
 32 70  1  0  0  0  0
 32 77  2  0  0  0  0
 33 36  1  0  0  0  0
 34 43  1  0  0  0  0
 35 65  1  0  0  0  0
 36 38  1  0  0  0  0
 37 39  1  0  0  0  0
 37 40  1  0  0  0  0
 38 42  1  0  0  0  0
 39 44  1  0  0  0  0
 40 66  1  0  0  0  0
 41 44  1  0  0  0  0
 41 66  1  0  0  0  0
 42 69  1  0  0  0  0
 43 65  1  0  0  0  0
 44 64  1  0  0  0  0
 45 58  1  0  0  0  0
 46 59  1  0  0  0  0
 47 60  1  0  0  0  0
 48 61  1  0  0  0  0
 49 61  1  0  0  0  0
 50 62  1  0  0  0  0
 51 62  1  0  0  0  0
 52 62  1  0  0  0  0
 53 71  1  0  0  0  0
 54 72  1  0  0  0  0
 55 59  1  0  0  0  0
 55 60  1  0  0  0  0
 56 59  1  0  0  0  0
 56 72  1  0  0  0  0
 57 62  1  0  0  0  0
 57 70  1  0  0  0  0
 58 71  1  0  0  0  0
 60 79  1  0  0  0  0
 61 72  1  0  0  0  0
 63 64  1  0  0  0  0
M  CHG  2  71   1  72   1
M  ISO  4  31 100  60 101  61 100  79 101
M  END
> <Batch ID>
0107

> <Smiles>
CNC(C)C(=O)NC(C(=O)N1Cc2cc([101O:1][101CH:1](C)CC(C)CN(C)[100C:0](C)(C)[100C:0](=O)N3CCCC(n4nc(-c5ccc(Oc6ccc(F)cc6F)cc5)c(C(N)=O)c4N)C3)ccc2CC1C(=O)NC1CCCc2ccccc21)C(C)(C)C

> <Shape>
0.269

> <Color>
0.105

> <Negative vol penalty>
0.000

$$$$

  -OEChem-04052319513D

 76 83  0     1  0  0  0  0  0999 V2000
  -23.2072  -23.9451   20.6075 C   0  0  0  0  0  0  0  0  0  0  0  0
  -24.3523  -23.1694   20.7578 C   0  0  0  0  0  0  0  0  0  0  0  0
  -28.4437  -26.6743   20.9819 C   0  0  0  0  0  0  0  0  0  0  0  0
  -27.3321  -25.0812   19.5455 C   0  0  0  0  0  0  0  0  0  0  0  0
  -21.9716  -23.4497   21.0220 C   0  0  0  0  0  0  0  0  0  0  0  0
  -24.2625  -21.8981   21.3238 C   0  0  0  0  0  0  0  0  0  0  0  0
  -26.9324  -18.4391   18.7642 C   0  0  0  0  0  0  0  0  0  0  0  0
  -27.6180  -27.6883   20.4964 C   0  0  0  0  0  0  0  0  0  0  0  0
  -26.5063  -26.0951   19.0600 C   0  0  0  0  0  0  0  0  0  0  0  0
  -28.3119  -18.4231   18.9650 C   0  0  0  0  0  0  0  0  0  0  0  0
  -25.5616  -30.6260   19.8996 C   0  0  0  0  0  0  0  0  0  0  0  0
  -25.0030  -31.5066   20.8259 C   0  0  0  0  0  0  0  0  0  0  0  0
  -28.0631  -16.5668   20.4852 C   0  0  0  0  0  0  0  0  0  0  0  0
  -23.8952  -29.6570   21.9162 C   0  0  0  0  0  0  0  0  0  0  0  0
  -28.3008  -25.3708   20.5064 C   0  0  0  0  0  0  0  0  0  0  0  0
  -28.9151  -23.4895   22.1161 C   0  0  0  0  0  0  0  0  0  0  0  0
  -21.8652  -22.1679   21.5844 C   0  0  0  0  0  0  0  0  0  0  0  0
  -26.1053  -17.5245   19.4319 C   0  0  0  0  0  0  0  0  0  0  0  0
  -23.0245  -21.3856   21.7474 C   0  0  0  0  0  0  0  0  0  0  0  0
  -26.6737  -16.5715   20.2892 C   0  0  0  0  0  0  0  0  0  0  0  0
  -26.6492  -27.3987   19.5355 C   0  0  0  0  0  0  0  0  0  0  0  0
  -28.8772  -17.4888   19.8278 C   0  0  0  0  0  0  0  0  0  0  0  0
  -25.2871  -29.2609   19.9816 C   0  0  0  0  0  0  0  0  0  0  0  0
  -24.1698  -31.0222   21.8342 C   0  0  0  0  0  0  0  0  0  0  0  0
  -24.4539  -28.7764   20.9899 C   0  0  0  0  0  0  0  0  0  0  0  0
  -29.1539  -24.3231   21.0070 C   0  0  0  0  0  0  0  0  0  0  0  0
  -30.0155  -22.6695   22.1725 C   0  0  0  0  0  0  0  0  0  0  0  0
  -27.7984  -23.4591   23.0148 C   0  0  0  0  0  0  0  0  0  0  0  0
  -23.7308  -17.7652   21.5313 C   0  0  0  0  0  0  0  0  0  0  0  0
  -23.5125  -14.5627   21.0638 C   0  0  0  0  0  0  0  0  0  0  0  0
  -25.0425  -11.6614   20.1215 C   0  0  0  0  0  0  0  0  0  0  0  0
  -33.7862  -19.4055   19.6679 C   0  0  0  0  0  0  0  0  0  0  0  0
  -20.5150  -21.6941   22.0610 C   0  0  0  0  0  0  0  0  0  0  0  0
  -24.6218  -17.5374   19.1839 C   0  0  0  0  0  0  0  0  0  0  0  0
  -25.8316  -15.5549   21.0144 C   0  0  0  0  0  0  0  0  0  0  0  0
  -20.4497  -20.1889   22.3072 C   0  0  0  0  0  0  0  0  0  0  0  0
  -34.4282  -22.9073   19.7112 C   0  0  0  0  0  0  0  0  0  0  0  0
  -21.6650  -19.7251   23.1040 C   0  0  0  0  0  0  0  0  0  0  0  0
  -33.0924  -23.5188   20.1374 C   0  0  0  0  0  0  0  0  0  0  0  0
  -34.2299  -21.6880   18.8135 C   0  0  0  0  0  0  0  0  0  0  0  0
  -32.0113  -21.2574   19.7966 C   0  0  0  0  0  0  0  0  0  0  0  0
  -22.9641  -19.9920   22.3341 C   0  0  1  0  0  0  0  0  0  0  0  0
  -23.8219  -16.8925   20.3116 C   0  0  1  0  0  0  0  0  0  0  0  0
  -32.1590  -22.4566   20.7487 C   0  0  2  0  0  0  0  0  0  0  0  0
  -24.6197   -9.1996   19.8802 C   0  0  0  0  0  0  0  0  0  0  0  0
  -32.3220  -16.4282   18.3147 C   0  0  0  0  0  0  0  0  0  0  0  0
  -33.2055  -16.9501   22.0898 C   0  0  0  0  0  0  0  0  0  0  0  0
  -23.7189  -14.2331   24.0901 C   0  0  0  0  0  0  0  0  0  0  0  0
  -24.2450  -11.8134   23.7207 C   0  0  0  0  0  0  0  0  0  0  0  0
  -22.0456  -12.7355   22.9894 C   0  0  0  0  0  0  0  0  0  0  0  0
  -25.5807  -11.7362   17.2122 C   0  0  0  0  0  0  0  0  0  0  0  0
  -30.8186  -16.2112   20.3325 C   0  0  0  0  0  0  0  0  0  1  0  0
  -24.1346  -13.3443   21.7020 C   0  0  1  0  0  0  0  0  0  0  0  0
  -24.6058  -10.5510   19.1829 C   0  0  2  0  0  0  0  0  0  0  0  0
  -32.2707  -16.1849   19.8310 C   0  0  2  0  0  0  0  0  0  0  0  0
  -33.1978  -17.1732   20.5789 C   0  0  1  0  0  0  0  0  0  0  0  0
  -23.5520  -13.0518   23.1135 C   0  0  0  0  0  0  0  0  0  0  0  0
  -30.3149  -24.0572   20.4026 N   0  0  0  0  0  0  0  0  0  0  0  0
  -30.8155  -23.0473   21.1345 N   0  0  0  0  0  0  0  0  0  0  0  0
  -24.3856  -15.6120   20.7438 N   0  0  0  0  0  0  0  0  0  0  0  0
  -33.3363  -20.7185   19.4520 N   0  0  0  0  0  0  0  0  0  0  0  0
  -30.3672  -21.6695   23.0083 N   0  0  0  0  0  0  0  0  0  0  0  0
  -26.7534  -24.3711   22.8132 N   0  0  0  0  0  0  0  0  0  0  0  0
  -23.1514  -18.9980   21.2990 N   0  0  0  0  0  0  0  0  0  0  0  0
  -23.9663  -12.2531   20.7483 N   0  0  0  0  0  0  0  0  0  0  0  0
  -32.8789  -18.5524   20.2842 N   0  0  0  0  0  0  0  0  0  0  0  0
  -25.5154  -10.4812   18.0045 N   0  3  0  0  0  0  0  0  0  0  0  0
  -27.7369  -22.6581   23.9782 O   0  0  0  0  0  0  0  0  0  0  0  0
  -24.1535  -17.3502   22.6041 O   0  0  0  0  0  0  0  0  0  0  0  0
  -22.2976  -14.5798   20.8503 O   0  0  0  0  0  0  0  0  0  0  0  0
  -26.2208  -11.9702   20.2852 O   0  0  0  0  0  0  0  0  0  0  0  0
  -34.9149  -19.0233   19.3408 O   0  0  0  0  0  0  0  0  0  0  0  0
  -25.8431  -28.3878   19.0617 O   0  0  0  0  0  0  0  0  0  0  0  0
  -30.2234  -17.4715   20.0261 O   0  0  0  0  0  0  0  0  0  1  0  0
  -23.6346  -31.8678   22.7245 F   0  0  0  0  0  0  0  0  0  0  0  0
  -24.1874  -27.4658   21.0745 F   0  0  0  0  0  0  0  0  0  0  0  0
  1  2  1  0  0  0  0
  1  5  2  0  0  0  0
  2  6  2  0  0  0  0
  3  8  2  0  0  0  0
  3 15  1  0  0  0  0
  4  9  1  0  0  0  0
  4 15  2  0  0  0  0
  5 17  1  0  0  0  0
  6 19  1  0  0  0  0
  7 10  2  0  0  0  0
  7 18  1  0  0  0  0
  8 21  1  0  0  0  0
  9 21  2  0  0  0  0
 10 22  1  0  0  0  0
 11 12  2  0  0  0  0
 11 23  1  0  0  0  0
 12 24  1  0  0  0  0
 13 20  1  0  0  0  0
 13 22  2  0  0  0  0
 14 24  2  0  0  0  0
 14 25  1  0  0  0  0
 15 26  1  0  0  0  0
 16 26  1  0  0  0  0
 16 27  2  0  0  0  0
 16 28  1  0  0  0  0
 17 19  2  0  0  0  0
 17 33  1  0  0  0  0
 18 20  2  0  0  0  0
 18 34  1  0  0  0  0
 19 42  1  0  0  0  0
 20 35  1  0  0  0  0
 21 73  1  0  0  0  0
 22 74  1  0  0  0  0
 23 25  2  0  0  0  0
 23 73  1  0  0  0  0
 24 75  1  0  0  0  0
 25 76  1  0  0  0  0
 26 58  2  0  0  0  0
 27 59  1  0  0  0  0
 27 62  1  0  0  0  0
 28 63  1  0  0  0  0
 28 68  2  0  0  0  0
 29 43  1  0  0  0  0
 29 64  1  0  0  0  0
 29 69  2  0  0  0  0
 30 53  1  0  0  0  0
 30 60  1  0  0  0  0
 30 70  2  0  0  0  0
 31 54  1  0  0  0  0
 31 65  1  0  0  0  0
 31 71  2  0  0  0  0
 32 61  1  0  0  0  0
 32 66  1  0  0  0  0
 32 72  2  0  0  0  0
 33 36  1  0  0  0  0
 34 43  1  0  0  0  0
 35 60  1  0  0  0  0
 36 38  1  0  0  0  0
 37 39  1  0  0  0  0
 37 40  1  0  0  0  0
 38 42  1  0  0  0  0
 39 44  1  0  0  0  0
 40 61  1  0  0  0  0
 41 44  1  0  0  0  0
 41 61  1  0  0  0  0
 42 64  1  0  0  0  0
 43 60  1  0  0  0  0
 44 59  1  0  0  0  0
 45 54  1  0  0  0  0
 46 55  1  0  0  0  0
 47 56  1  0  0  0  0
 48 57  1  0  0  0  0
 49 57  1  0  0  0  0
 50 57  1  0  0  0  0
 51 67  1  0  0  0  0
 52 55  1  0  0  0  0
 52 74  1  0  0  0  0
 53 57  1  0  0  0  0
 53 65  1  0  0  0  0
 54 67  1  0  0  0  0
 55 56  1  0  0  0  0
 56 66  1  0  0  0  0
 58 59  1  0  0  0  0
M  CHG  1  67   1
M  ISO  4  32 100  52 101  66 100  74 101
M  END
> <Batch ID>
0107

> <Smiles>
CNC(C)C(=O)NC(C(=O)N1Cc2cc([101O:1][101CH2:1]C(C)C(C)[100NH:0][100C:0](=O)N3CCCC(n4nc(-c5ccc(Oc6ccc(F)cc6F)cc5)c(C(N)=O)c4N)C3)ccc2CC1C(=O)NC1CCCc2ccccc21)C(C)(C)C

> <Shape>
0.160

> <Color>
0.074

> <Negative vol penalty>
0.000

$$$$

  -OEChem-04052319513D

 82 90  0     1  0  0  0  0  0999 V2000
  -29.6401  -36.5231   21.3021 C   0  0  0  0  0  0  0  0  0  0  0  0
  -29.6926  -35.2582   20.7253 C   0  0  0  0  0  0  0  0  0  0  0  0
  -26.5261  -13.0508   21.5303 C   0  0  0  0  0  0  0  0  0  0  0  0
  -26.2605  -13.7877   19.2448 C   0  0  0  0  0  0  0  0  0  0  0  0
  -29.0215  -36.6987   22.5392 C   0  0  0  0  0  0  0  0  0  0  0  0
  -29.1274  -34.1679   21.3857 C   0  0  0  0  0  0  0  0  0  0  0  0
  -26.3375  -29.3548   18.8253 C   0  0  0  0  0  0  0  0  0  0  0  0
  -25.2318  -12.5310   21.5131 C   0  0  0  0  0  0  0  0  0  0  0  0
  -24.9663  -13.2678   19.2275 C   0  0  0  0  0  0  0  0  0  0  0  0
  -26.7771  -28.0663   18.5249 C   0  0  0  0  0  0  0  0  0  0  0  0
  -23.6703   -9.7742   20.3320 C   0  0  0  0  0  0  0  0  0  0  0  0
  -23.4764   -8.5000   20.8653 C   0  0  0  0  0  0  0  0  0  0  0  0
  -25.8455  -27.2704   20.6028 C   0  0  0  0  0  0  0  0  0  0  0  0
  -27.8921  -21.9259   17.4679 C   0  0  0  0  0  0  0  0  0  0  0  0
  -21.9340   -9.4128   22.4855 C   0  0  0  0  0  0  0  0  0  0  0  0
  -29.2865  -23.6209   17.9705 C   0  0  0  0  0  0  0  0  0  0  0  0
  -27.0404  -13.6793   20.3961 C   0  0  0  0  0  0  0  0  0  0  0  0
  -29.5660  -13.5509   20.0604 C   0  0  0  0  0  0  0  0  0  0  0  0
  -28.4399  -35.6117   23.2107 C   0  0  0  0  0  0  0  0  0  0  0  0
  -25.6570  -29.6133   20.0238 C   0  0  0  0  0  0  0  0  0  0  0  0
  -28.5016  -34.3289   22.6336 C   0  0  0  0  0  0  0  0  0  0  0  0
  -25.3960  -28.5626   20.9149 C   0  0  0  0  0  0  0  0  0  0  0  0
  -29.2327  -22.2572   17.7842 C   0  0  0  0  0  0  0  0  0  0  0  0
  -24.4520  -12.6394   20.3617 C   0  0  0  0  0  0  0  0  0  0  0  0
  -26.5337  -27.0244   19.4150 C   0  0  0  0  0  0  0  0  0  0  0  0
  -22.9961  -10.8678   20.8755 C   0  0  0  0  0  0  0  0  0  0  0  0
  -22.6082   -8.3193   21.9420 C   0  0  0  0  0  0  0  0  0  0  0  0
  -22.1280  -10.6870   21.9522 C   0  0  0  0  0  0  0  0  0  0  0  0
  -28.3771  -14.2170   20.4135 C   0  0  0  0  0  0  0  0  0  0  0  0
  -27.1674  -23.0974   17.4704 C   0  0  0  0  0  0  0  0  0  0  0  0
  -30.5528  -14.4879   20.2470 C   0  0  0  0  0  0  0  0  0  0  0  0
  -29.7609  -12.2056   19.6045 C   0  0  0  0  0  0  0  0  0  0  0  0
  -26.2147  -31.4272   22.5738 C   0  0  0  0  0  0  0  0  0  0  0  0
  -23.2295  -30.4790   23.4173 C   0  0  0  0  0  0  0  0  0  0  0  0
  -20.7353  -28.1671   23.1330 C   0  0  0  0  0  0  0  0  0  0  0  0
  -30.5478  -20.4754   20.2223 C   0  0  0  0  0  0  0  0  0  0  0  0
  -27.8239  -35.8422   24.5679 C   0  0  0  0  0  0  0  0  0  0  0  0
  -25.1658  -31.0036   20.3207 C   0  0  0  0  0  0  0  0  0  0  0  0
  -24.6518  -28.7837   22.2056 C   0  0  0  0  0  0  0  0  0  0  0  0
  -26.9197  -34.7015   25.0281 C   0  0  0  0  0  0  0  0  0  0  0  0
  -31.6046  -18.3464   22.8731 C   0  0  0  0  0  0  0  0  0  0  0  0
  -27.5994  -33.3555   24.7979 C   0  0  0  0  0  0  0  0  0  0  0  0
  -31.0045  -16.9865   22.5115 C   0  0  0  0  0  0  0  0  0  0  0  0
  -30.6714  -19.4940   22.4934 C   0  0  0  0  0  0  0  0  0  0  0  0
  -29.6266  -18.1313   20.7255 C   0  0  0  0  0  0  0  0  0  0  0  0
  -27.8781  -33.1259   23.3076 C   0  0  1  0  0  0  0  0  0  0  0  0
  -24.9340  -31.2505   21.8083 C   0  0  1  0  0  0  0  0  0  0  0  0
  -30.5554  -16.9457   21.0384 C   0  0  2  0  0  0  0  0  0  0  0  0
  -24.9477  -23.0545   19.6319 C   0  0  0  0  0  0  0  0  0  0  0  0
  -25.3422  -22.9420   15.7572 C   0  0  0  0  0  0  0  0  0  0  0  0
  -18.4288  -27.6444   23.9720 C   0  0  0  0  0  0  0  0  0  0  0  0
  -24.4078  -29.5637   26.0789 C   0  0  0  0  0  0  0  0  0  0  0  0
  -22.3250  -28.2282   26.4620 C   0  0  0  0  0  0  0  0  0  0  0  0
  -22.1927  -30.7108   26.2580 C   0  0  0  0  0  0  0  0  0  0  0  0
  -19.5900  -28.2900   20.4068 C   0  0  0  0  0  0  0  0  0  0  0  0
  -30.3635  -21.3161   17.8945 C   0  0  0  0  0  0  0  0  0  0  0  0
  -24.7683  -22.5931   18.1907 C   0  0  0  0  0  0  0  0  0  0  0  0
  -27.6575  -25.5768   17.8888 C   0  0  0  0  0  0  0  0  0  1  0  0
  -25.7314  -23.3243   17.2065 C   0  0  1  0  0  0  0  0  0  0  0  0
  -22.6562  -29.3208   24.1977 C   0  0  1  0  0  0  0  0  0  0  0  0
  -19.2460  -28.3179   22.8806 C   0  0  2  0  0  0  0  0  0  0  0  0
  -22.9112  -29.4518   25.7258 C   0  0  0  0  0  0  0  0  0  0  0  0
  -28.5873  -15.4795   20.7956 N   0  0  0  0  0  0  0  0  0  0  0  0
  -28.0254  -24.1211   17.7769 N   0  0  0  0  0  0  0  0  0  0  0  0
  -29.9197  -15.6142   20.6838 N   0  0  0  0  0  0  0  0  0  0  0  0
  -24.1974  -30.1619   22.4538 N   0  0  0  0  0  0  0  0  0  0  0  0
  -30.2843  -19.3978   21.0839 N   0  0  0  0  0  0  0  0  0  0  0  0
  -31.8917  -14.4499   20.0784 N   0  0  0  0  0  0  0  0  0  0  0  0
  -28.6387  -11.3771   19.4685 N   0  0  0  0  0  0  0  0  0  0  0  0
  -26.6662  -32.7323   22.6215 N   0  0  0  0  0  0  0  0  0  0  0  0
  -21.2462  -29.2403   23.8319 N   0  0  0  0  0  0  0  0  0  0  0  0
  -30.1544  -20.2995   18.9013 N   0  0  0  0  0  0  0  0  0  0  0  0
  -18.8778  -27.7062   21.5725 N   0  3  0  0  0  0  0  0  0  0  0  0
  -30.8983  -11.7467   19.3416 O   0  0  0  0  0  0  0  0  0  0  0  0
  -26.7528  -30.4519   23.0847 O   0  0  0  0  0  0  0  0  0  0  0  0
  -22.8280  -31.6221   23.6490 O   0  0  0  0  0  0  0  0  0  0  0  0
  -21.3802  -27.1927   22.7517 O   0  0  0  0  0  0  0  0  0  0  0  0
  -31.0980  -21.5150   20.6010 O   0  0  0  0  0  0  0  0  0  0  0  0
  -23.1891  -12.1320   20.3444 O   0  0  0  0  0  0  0  0  0  0  0  0
  -26.9623  -25.7659   19.1246 O   0  0  0  0  0  0  0  0  0  1  0  0
  -22.4210   -7.0954   22.4530 F   0  0  0  0  0  0  0  0  0  0  0  0
  -21.4766  -11.7336   22.4778 F   0  0  0  0  0  0  0  0  0  0  0  0
  1  2  1  0  0  0  0
  1  5  2  0  0  0  0
  2  6  2  0  0  0  0
  3  8  2  0  0  0  0
  3 17  1  0  0  0  0
  4  9  1  0  0  0  0
  4 17  2  0  0  0  0
  5 19  1  0  0  0  0
  6 21  1  0  0  0  0
  7 10  2  0  0  0  0
  7 20  1  0  0  0  0
  8 24  1  0  0  0  0
  9 24  2  0  0  0  0
 10 25  1  0  0  0  0
 11 12  2  0  0  0  0
 11 26  1  0  0  0  0
 12 27  1  0  0  0  0
 13 22  1  0  0  0  0
 13 25  2  0  0  0  0
 14 23  1  0  0  0  0
 14 30  2  0  0  0  0
 15 27  2  0  0  0  0
 15 28  1  0  0  0  0
 16 23  2  0  0  0  0
 16 64  1  0  0  0  0
 17 29  1  0  0  0  0
 18 29  1  0  0  0  0
 18 31  2  0  0  0  0
 18 32  1  0  0  0  0
 19 21  2  0  0  0  0
 19 37  1  0  0  0  0
 20 22  2  0  0  0  0
 20 38  1  0  0  0  0
 21 46  1  0  0  0  0
 22 39  1  0  0  0  0
 23 56  1  0  0  0  0
 24 79  1  0  0  0  0
 25 80  1  0  0  0  0
 26 28  2  0  0  0  0
 26 79  1  0  0  0  0
 27 81  1  0  0  0  0
 28 82  1  0  0  0  0
 29 63  2  0  0  0  0
 30 59  1  0  0  0  0
 30 64  1  0  0  0  0
 31 65  1  0  0  0  0
 31 68  1  0  0  0  0
 32 69  1  0  0  0  0
 32 74  2  0  0  0  0
 33 47  1  0  0  0  0
 33 70  1  0  0  0  0
 33 75  2  0  0  0  0
 34 60  1  0  0  0  0
 34 66  1  0  0  0  0
 34 76  2  0  0  0  0
 35 61  1  0  0  0  0
 35 71  1  0  0  0  0
 35 77  2  0  0  0  0
 36 67  1  0  0  0  0
 36 72  1  0  0  0  0
 36 78  2  0  0  0  0
 37 40  1  0  0  0  0
 38 47  1  0  0  0  0
 39 66  1  0  0  0  0
 40 42  1  0  0  0  0
 41 43  1  0  0  0  0
 41 44  1  0  0  0  0
 42 46  1  0  0  0  0
 43 48  1  0  0  0  0
 44 67  1  0  0  0  0
 45 48  1  0  0  0  0
 45 67  1  0  0  0  0
 46 70  1  0  0  0  0
 47 66  1  0  0  0  0
 48 65  1  0  0  0  0
 49 57  1  0  0  0  0
 50 59  1  0  0  0  0
 51 61  1  0  0  0  0
 52 62  1  0  0  0  0
 53 62  1  0  0  0  0
 54 62  1  0  0  0  0
 55 73  1  0  0  0  0
 56 72  1  0  0  0  0
 57 59  1  0  0  0  0
 58 64  1  0  0  0  0
 58 80  1  0  0  0  0
 60 62  1  0  0  0  0
 60 71  1  0  0  0  0
 61 73  1  0  0  0  0
 63 65  1  0  0  0  0
M  CHG  1  73   1
M  ISO  4  36 100  58 101  72 100  80 101
M  END
> <Batch ID>
0107

> <Smiles>
CCC(C)c1cc(C[100NH:0][100C:0](=O)N2CCCC(n3nc(-c4ccc(Oc5ccc(F)cc5F)cc4)c(C(N)=O)c3N)C2)cn1[101CH2:1][101O:1]c1ccc2c(c1)CN(C(=O)C(NC(=O)C(C)NC)C(C)(C)C)C(C(=O)NC1CCCc3ccccc31)C2

> <Shape>
0.306

> <Color>
0.088

> <Negative vol penalty>
0.000

$$$$

  -OEChem-04052319513D

 86 94  0     1  0  0  0  0  0999 V2000
  -16.8821  -29.7245   24.1128 C   0  0  0  0  0  0  0  0  0  0  0  0
  -17.8501  -29.0078   24.8090 C   0  0  0  0  0  0  0  0  0  0  0  0
  -28.3206  -18.5363   18.2662 C   0  0  0  0  0  0  0  0  0  0  0  0
  -29.3929  -17.8742   20.3275 C   0  0  0  0  0  0  0  0  0  0  0  0
  -17.0177  -29.9247   22.7397 C   0  0  0  0  0  0  0  0  0  0  0  0
  -18.9538  -28.4898   24.1322 C   0  0  0  0  0  0  0  0  0  0  0  0
  -24.6621  -27.9353   26.2800 C   0  0  0  0  0  0  0  0  0  0  0  0
  -28.4903  -17.2463   17.7635 C   0  0  0  0  0  0  0  0  0  0  0  0
  -29.5626  -16.5841   19.8248 C   0  0  0  0  0  0  0  0  0  0  0  0
  -25.3586  -26.8575   26.8252 C   0  0  0  0  0  0  0  0  0  0  0  0
  -27.6772  -13.8129   19.3930 C   0  0  0  0  0  0  0  0  0  0  0  0
  -27.3670  -12.7450   20.2349 C   0  0  0  0  0  0  0  0  0  0  0  0
  -32.3547  -26.6600   26.6483 C   0  0  0  0  0  0  0  0  0  0  0  0
  -26.3216  -26.3938   24.6626 C   0  0  0  0  0  0  0  0  0  0  0  0
  -29.6427  -11.9512   20.0667 C   0  0  0  0  0  0  0  0  0  0  0  0
  -33.2248  -27.1854   25.7066 C   0  0  0  0  0  0  0  0  0  0  0  0
  -28.7719  -18.8503   19.5481 C   0  0  0  0  0  0  0  0  0  0  0  0
  -27.4980  -20.6735   20.7974 C   0  0  0  0  0  0  0  0  0  0  0  0
  -18.1284  -29.4171   22.0474 C   0  0  0  0  0  0  0  0  0  0  0  0
  -24.7819  -28.2442   24.9174 C   0  0  0  0  0  0  0  0  0  0  0  0
  -19.1036  -28.6822   22.7483 C   0  0  0  0  0  0  0  0  0  0  0  0
  -25.6276  -27.4775   24.1031 C   0  0  0  0  0  0  0  0  0  0  0  0
  -32.0618  -25.3027   26.5779 C   0  0  0  0  0  0  0  0  0  0  0  0
  -32.6397  -24.5231   25.5821 C   0  0  0  0  0  0  0  0  0  0  0  0
  -29.1113  -16.2702   18.5428 C   0  0  0  0  0  0  0  0  0  0  0  0
  -26.1863  -26.0848   26.0158 C   0  0  0  0  0  0  0  0  0  0  0  0
  -28.9702  -13.9500   18.8879 C   0  0  0  0  0  0  0  0  0  0  0  0
  -28.3497  -11.8141   20.5718 C   0  0  0  0  0  0  0  0  0  0  0  0
  -29.9529  -13.0192   19.2247 C   0  0  0  0  0  0  0  0  0  0  0  0
  -28.5974  -20.1828   20.0677 C   0  0  0  0  0  0  0  0  0  0  0  0
  -33.4968  -25.1442   24.6880 C   0  0  0  0  0  0  0  0  0  0  0  0
  -27.8146  -21.9849   21.0549 C   0  0  0  0  0  0  0  0  0  0  0  0
  -26.2980  -20.0037   21.2060 C   0  0  0  0  0  0  0  0  0  0  0  0
  -22.7724  -28.3529   22.4570 C   0  0  0  0  0  0  0  0  0  0  0  0
  -25.3539  -29.5546   20.9033 C   0  0  0  0  0  0  0  0  0  0  0  0
  -28.7502  -29.8238   20.7059 C   0  0  0  0  0  0  0  0  0  0  0  0
  -33.0180  -24.9196   21.4593 C   0  0  0  0  0  0  0  0  0  0  0  0
  -18.2075  -29.6185   20.5548 C   0  0  0  0  0  0  0  0  0  0  0  0
  -24.0446  -29.4263   24.3504 C   0  0  0  0  0  0  0  0  0  0  0  0
  -25.8064  -27.7799   22.6385 C   0  0  0  0  0  0  0  0  0  0  0  0
  -19.5966  -29.3577   19.9778 C   0  0  0  0  0  0  0  0  0  0  0  0
  -30.3102  -25.6550   19.2677 C   0  0  0  0  0  0  0  0  0  0  0  0
  -20.1683  -28.0558   20.5302 C   0  0  0  0  0  0  0  0  0  0  0  0
  -29.4649  -24.3802   19.2900 C   0  0  0  0  0  0  0  0  0  0  0  0
  -31.8033  -25.3435   19.3425 C   0  0  0  0  0  0  0  0  0  0  0  0
  -31.3563  -23.2133   20.4984 C   0  0  0  0  0  0  0  0  0  0  0  0
  -20.3276  -28.1259   22.0537 C   0  0  1  0  0  0  0  0  0  0  0  0
  -23.8417  -29.3361   22.8411 C   0  0  1  0  0  0  0  0  0  0  0  0
  -29.8412  -23.4788   20.4814 C   0  0  2  0  0  0  0  0  0  0  0  0
  -32.3438  -23.0644   25.4824 C   0  0  0  0  0  0  0  0  0  0  0  0
  -30.5677  -30.8397   19.3051 C   0  0  0  0  0  0  0  0  0  0  0  0
  -24.9381  -27.3871   18.7964 C   0  0  0  0  0  0  0  0  0  0  0  0
  -27.2616  -27.8345   17.9781 C   0  0  0  0  0  0  0  0  0  0  0  0
  -25.5374  -29.6344   17.8770 C   0  0  0  0  0  0  0  0  0  0  0  0
  -28.4029  -22.9020   27.8267 C   0  0  0  0  0  0  0  0  0  0  0  0
  -29.7376  -31.4595   22.9661 C   0  0  0  0  0  0  0  0  0  0  0  0
  -31.1171  -24.7016   27.5906 C   0  0  0  0  0  0  0  0  0  0  0  0
  -34.1472  -24.3581   23.5968 C   0  0  0  0  0  0  0  0  0  0  0  0
  -29.6566  -25.0356   27.2581 C   0  0  0  0  0  0  0  0  0  0  0  0
  -28.9659  -24.4567   29.6872 C   0  0  0  0  0  0  0  0  0  0  0  0
  -27.2425  -25.1259   27.9187 C   0  0  0  0  0  0  0  0  0  1  0  0
  -26.4991  -28.9637   20.1170 C   0  0  1  0  0  0  0  0  0  0  0  0
  -29.6556  -31.0261   20.5076 C   0  0  2  0  0  0  0  0  0  0  0  0
  -26.0544  -28.4478   18.7193 C   0  0  0  0  0  0  0  0  0  0  0  0
  -28.5845  -24.3938   28.1884 C   0  0  2  0  0  0  0  0  0  0  0  0
  -33.8054  -26.4599   24.7247 N   0  0  0  0  0  0  0  0  0  0  0  0
  -29.5417  -21.1073   19.8740 N   0  0  0  0  0  0  0  0  0  0  0  0
  -29.0366  -22.1921   20.4857 N   0  0  0  0  0  0  0  0  0  0  0  0
  -25.0594  -28.9421   22.1296 N   0  0  0  0  0  0  0  0  0  0  0  0
  -32.0934  -24.4867   20.4947 N   0  0  0  0  0  0  0  0  0  0  0  0
  -27.1642  -22.9696   21.7104 N   0  0  0  0  0  0  0  0  0  0  0  0
  -26.1334  -18.6561   20.8579 N   0  0  0  0  0  0  0  0  0  0  0  0
  -21.5024  -28.8950   22.4042 N   0  0  0  0  0  0  0  0  0  0  0  0
  -27.5362  -29.9888   20.0733 N   0  0  0  0  0  0  0  0  0  0  0  0
  -33.2300  -24.0501   22.5222 N   0  0  0  0  0  0  0  0  0  0  0  0
  -29.1511  -25.8499   30.1609 N   0  3  0  0  0  0  0  0  0  0  0  0
  -30.5051  -31.2393   21.7133 N   0  3  0  0  0  0  0  0  0  0  0  0
  -25.3910  -20.5876   21.8462 O   0  0  0  0  0  0  0  0  0  0  0  0
  -23.0771  -27.1890   22.2243 O   0  0  0  0  0  0  0  0  0  0  0  0
  -24.7476  -30.5284   20.4496 O   0  0  0  0  0  0  0  0  0  0  0  0
  -29.0878  -28.8354   21.3537 O   0  0  0  0  0  0  0  0  0  0  0  0
  -33.6068  -26.0033   21.3820 O   0  0  0  0  0  0  0  0  0  0  0  0
  -29.2768  -15.0112   18.0527 O   0  0  0  0  0  0  0  0  0  0  0  0
  -26.8667  -25.0319   26.5452 O   0  0  0  0  0  0  0  0  0  1  0  0
  -28.0520  -10.7895   21.3815 F   0  0  0  0  0  0  0  0  0  0  0  0
  -31.1971  -13.1463   18.7434 F   0  0  0  0  0  0  0  0  0  0  0  0
  1  2  1  0  0  0  0
  1  5  2  0  0  0  0
  2  6  2  0  0  0  0
  3  8  2  0  0  0  0
  3 17  1  0  0  0  0
  4  9  1  0  0  0  0
  4 17  2  0  0  0  0
  5 19  1  0  0  0  0
  6 21  1  0  0  0  0
  7 10  2  0  0  0  0
  7 20  1  0  0  0  0
  8 25  1  0  0  0  0
  9 25  2  0  0  0  0
 10 26  1  0  0  0  0
 11 12  2  0  0  0  0
 11 27  1  0  0  0  0
 12 28  1  0  0  0  0
 13 16  2  0  0  0  0
 13 23  1  0  0  0  0
 14 22  1  0  0  0  0
 14 26  2  0  0  0  0
 15 28  2  0  0  0  0
 15 29  1  0  0  0  0
 16 66  1  0  0  0  0
 17 30  1  0  0  0  0
 18 30  1  0  0  0  0
 18 32  2  0  0  0  0
 18 33  1  0  0  0  0
 19 21  2  0  0  0  0
 19 38  1  0  0  0  0
 20 22  2  0  0  0  0
 20 39  1  0  0  0  0
 21 47  1  0  0  0  0
 22 40  1  0  0  0  0
 23 24  2  0  0  0  0
 23 57  1  0  0  0  0
 24 31  1  0  0  0  0
 24 50  1  0  0  0  0
 25 83  1  0  0  0  0
 26 84  1  0  0  0  0
 27 29  2  0  0  0  0
 27 83  1  0  0  0  0
 28 85  1  0  0  0  0
 29 86  1  0  0  0  0
 30 67  2  0  0  0  0
 31 58  1  0  0  0  0
 31 66  2  0  0  0  0
 32 68  1  0  0  0  0
 32 71  1  0  0  0  0
 33 72  1  0  0  0  0
 33 78  2  0  0  0  0
 34 48  1  0  0  0  0
 34 73  1  0  0  0  0
 34 79  2  0  0  0  0
 35 62  1  0  0  0  0
 35 69  1  0  0  0  0
 35 80  2  0  0  0  0
 36 63  1  0  0  0  0
 36 74  1  0  0  0  0
 36 81  2  0  0  0  0
 37 70  1  0  0  0  0
 37 75  1  0  0  0  0
 37 82  2  0  0  0  0
 38 41  1  0  0  0  0
 39 48  1  0  0  0  0
 40 69  1  0  0  0  0
 41 43  1  0  0  0  0
 42 44  1  0  0  0  0
 42 45  1  0  0  0  0
 43 47  1  0  0  0  0
 44 49  1  0  0  0  0
 45 70  1  0  0  0  0
 46 49  1  0  0  0  0
 46 70  1  0  0  0  0
 47 73  1  0  0  0  0
 48 69  1  0  0  0  0
 49 68  1  0  0  0  0
 51 63  1  0  0  0  0
 52 64  1  0  0  0  0
 53 64  1  0  0  0  0
 54 64  1  0  0  0  0
 55 65  1  0  0  0  0
 56 77  1  0  0  0  0
 57 59  1  0  0  0  0
 58 75  1  0  0  0  0
 59 65  1  0  0  0  0
 60 65  1  0  0  0  0
 60 76  1  0  0  0  0
 61 65  1  0  0  0  0
 61 84  1  0  0  0  0
 62 64  1  0  0  0  0
 62 74  1  0  0  0  0
 63 77  1  0  0  0  0
 67 68  1  0  0  0  0
M  CHG  2  76   1  77   1
M  ISO  4  37 100  61 101  75 100  84 101
M  END
> <Batch ID>
0107

> <Smiles>
CNC(C)C(=O)NC(C(=O)N1Cc2cc([101O:1][101CH2:1]C(C)(CN)CCc3ccnc(C[100NH:0][100C:0](=O)N4CCCC(n5nc(-c6ccc(Oc7ccc(F)cc7F)cc6)c(C(N)=O)c5N)C4)c3C)ccc2CC1C(=O)NC1CCCc2ccccc21)C(C)(C)C

> <Shape>
0.218

> <Color>
0.060

> <Negative vol penalty>
0.000

$$$$

  -OEChem-04052319513D

 93101  0     1  0  0  0  0  0999 V2000
  -25.0836  -35.4819   23.2917 C   0  0  0  0  0  0  0  0  0  0  0  0
  -25.8079  -34.3212   23.0397 C   0  0  0  0  0  0  0  0  0  0  0  0
  -21.8309  -17.7867   24.1420 C   0  0  0  0  0  0  0  0  0  0  0  0
  -21.5058  -19.0112   22.0848 C   0  0  0  0  0  0  0  0  0  0  0  0
  -23.7844  -35.3971   23.7906 C   0  0  0  0  0  0  0  0  0  0  0  0
  -25.2337  -33.0749   23.2876 C   0  0  0  0  0  0  0  0  0  0  0  0
  -26.0414  -29.7814   19.5265 C   0  0  0  0  0  0  0  0  0  0  0  0
  -20.7383  -18.4450   24.7065 C   0  0  0  0  0  0  0  0  0  0  0  0
  -20.4132  -19.6694   22.6493 C   0  0  0  0  0  0  0  0  0  0  0  0
  -27.2985  -29.1819   19.4641 C   0  0  0  0  0  0  0  0  0  0  0  0
  -17.1628  -19.0009   23.2884 C   0  0  0  0  0  0  0  0  0  0  0  0
  -16.0081  -19.1176   22.5148 C   0  0  0  0  0  0  0  0  0  0  0  0
  -26.3994  -27.2020   20.5086 C   0  0  0  0  0  0  0  0  0  0  0  0
  -16.1605  -21.5250   22.6507 C   0  0  0  0  0  0  0  0  0  0  0  0
  -22.2147  -18.0699   22.8312 C   0  0  0  0  0  0  0  0  0  0  0  0
  -23.3289  -16.1802   21.5293 C   0  0  0  0  0  0  0  0  0  0  0  0
  -23.1906  -34.1489   24.0356 C   0  0  0  0  0  0  0  0  0  0  0  0
  -24.9544  -29.0987   20.0912 C   0  0  0  0  0  0  0  0  0  0  0  0
  -23.9259  -32.9733   23.7915 C   0  0  0  0  0  0  0  0  0  0  0  0
  -25.1289  -27.7941   20.5746 C   0  0  0  0  0  0  0  0  0  0  0  0
  -32.3877  -24.9225   20.6014 C   0  0  0  0  0  0  0  0  0  0  0  0
  -31.2230  -25.4002   21.2512 C   0  0  0  0  0  0  0  0  0  0  0  0
  -20.0295  -19.3863   23.9601 C   0  0  0  0  0  0  0  0  0  0  0  0
  -27.4783  -27.8931   19.9579 C   0  0  0  0  0  0  0  0  0  0  0  0
  -17.8164  -20.1462   23.7432 C   0  0  0  0  0  0  0  0  0  0  0  0
  -15.5069  -20.3797   22.1959 C   0  0  0  0  0  0  0  0  0  0  0  0
  -17.3152  -21.4082   23.4243 C   0  0  0  0  0  0  0  0  0  0  0  0
  -23.3436  -17.3907   22.2477 C   0  0  0  0  0  0  0  0  0  0  0  0
  -32.0813  -24.7703   19.2671 C   0  0  0  0  0  0  0  0  0  0  0  0
  -30.2401  -25.5253   20.2942 C   0  0  0  0  0  0  0  0  0  0  0  0
  -24.6430  -15.9649   21.1925 C   0  0  0  0  0  0  0  0  0  0  0  0
  -22.2261  -15.3267   21.1960 C   0  0  0  0  0  0  0  0  0  0  0  0
  -23.0416  -29.5961   22.5807 C   0  0  0  0  0  0  0  0  0  0  0  0
  -21.4769  -27.0120   21.3990 C   0  0  0  0  0  0  0  0  0  0  0  0
  -21.5912  -24.1648   19.5210 C   0  0  0  0  0  0  0  0  0  0  0  0
  -29.3929  -18.8836   19.6324 C   0  0  0  0  0  0  0  0  0  0  0  0
  -21.8006  -34.1084   24.6196 C   0  0  0  0  0  0  0  0  0  0  0  0
  -23.5987  -29.7493   20.1267 C   0  0  0  0  0  0  0  0  0  0  0  0
  -23.9897  -27.0109   21.1722 C   0  0  0  0  0  0  0  0  0  0  0  0
  -21.1299  -32.7422   24.5016 C   0  0  0  0  0  0  0  0  0  0  0  0
  -28.9897  -17.5697   22.9169 C   0  0  0  0  0  0  0  0  0  0  0  0
  -22.0908  -31.6371   24.9286 C   0  0  0  0  0  0  0  0  0  0  0  0
  -27.4912  -17.2771   23.0124 C   0  0  0  0  0  0  0  0  0  0  0  0
  -29.2673  -18.8335   22.1059 C   0  0  0  0  0  0  0  0  0  0  0  0
  -27.1592  -18.5615   20.8586 C   0  0  0  0  0  0  0  0  0  0  0  0
  -23.3286  -31.6024   24.0241 C   0  0  1  0  0  0  0  0  0  0  0  0
  -22.6793  -29.1568   21.1902 C   0  0  1  0  0  0  0  0  0  0  0  0
  -26.8324  -17.2654   21.6199 C   0  0  2  0  0  0  0  0  0  0  0  0
  -33.6922  -24.6400   21.2351 C   0  0  0  0  0  0  0  0  0  0  0  0
  -32.9223  -24.3053   18.1435 C   0  0  0  0  0  0  0  0  0  0  0  0
  -20.1651  -22.2408   18.7714 C   0  0  0  0  0  0  0  0  0  0  0  0
  -29.3956  -23.7132   25.6176 C   0  0  0  0  0  0  0  0  0  0  0  0
  -31.5252  -25.0257   25.6615 C   0  0  0  0  0  0  0  0  0  0  0  0
  -28.0363  -24.2129   16.6291 C   0  0  0  0  0  0  0  0  0  0  0  0
  -21.7271  -25.7515   24.1664 C   0  0  0  0  0  0  0  0  0  0  0  0
  -21.1702  -23.5401   23.1329 C   0  0  0  0  0  0  0  0  0  0  0  0
  -19.5127  -25.4029   23.0576 C   0  0  0  0  0  0  0  0  0  0  0  0
  -30.4036  -17.7790   17.0283 C   0  0  0  0  0  0  0  0  0  0  0  0
  -28.3050  -18.7169   16.0475 C   0  0  0  0  0  0  0  0  0  0  0  0
  -21.9174  -24.8835   16.6686 C   0  0  0  0  0  0  0  0  0  0  0  0
  -31.0841  -25.7055   22.6901 C   0  0  0  0  0  0  0  0  0  0  0  0
  -28.8172  -25.9834   20.4233 C   0  0  0  0  0  0  0  0  0  1  0  0
  -30.3135  -24.6064   23.4559 C   0  0  0  0  0  0  0  0  0  0  0  0
  -30.0056  -20.2964   16.9989 C   0  0  0  0  0  0  0  0  0  0  0  0
  -30.0620  -25.1223   17.8309 C   0  0  0  0  0  0  0  0  0  0  0  0
  -29.1493  -21.4485   17.5189 C   0  0  0  0  0  0  0  0  0  0  0  0
  -21.5749  -25.5190   21.5995 C   0  0  1  0  0  0  0  0  0  0  0  0
  -20.6700  -23.6357   18.4366 C   0  0  2  0  0  0  0  0  0  0  0  0
  -30.1721  -24.8614   24.9681 C   0  0  0  0  0  0  0  0  0  0  0  0
  -29.0991  -23.9402   17.6847 C   0  0  2  0  0  0  0  0  0  0  0  0
  -21.0183  -25.0686   22.9797 C   0  0  0  0  0  0  0  0  0  0  0  0
  -29.3594  -18.8975   17.1509 C   0  0  0  0  0  0  0  0  0  0  0  0
  -24.5697  -17.9081   22.3614 N   0  0  0  0  0  0  0  0  0  0  0  0
  -30.7731  -25.1394   19.0921 N   0  0  0  0  0  0  0  0  0  0  0  0
  -25.3378  -17.0183   21.7099 N   0  0  0  0  0  0  0  0  0  0  0  0
  -22.6848  -27.6925   21.1900 N   0  0  0  0  0  0  0  0  0  0  0  0
  -28.6160  -18.7580   20.7959 N   0  0  0  0  0  0  0  0  0  0  0  0
  -25.2603  -14.9791   20.5073 N   0  0  0  0  0  0  0  0  0  0  0  0
  -20.9427  -15.6970   21.6202 N   0  0  0  0  0  0  0  0  0  0  0  0
  -23.0153  -30.9656   22.7628 N   0  0  0  0  0  0  0  0  0  0  0  0
  -20.9041  -24.9087   20.4567 N   0  0  0  0  0  0  0  0  0  0  0  0
  -28.6979  -18.7939   18.4325 N   0  0  0  0  0  0  0  0  0  0  0  0
  -21.3873  -23.5753   17.1316 N   0  3  0  0  0  0  0  0  0  0  0  0
  -29.8599  -22.7280   17.2660 N   0  3  0  0  0  0  0  0  0  0  0  0
  -22.3767  -14.2586   20.5557 O   0  0  0  0  0  0  0  0  0  0  0  0
  -23.3227  -28.7548   23.4262 O   0  0  0  0  0  0  0  0  0  0  0  0
  -20.3688  -27.5535   21.4197 O   0  0  0  0  0  0  0  0  0  0  0  0
  -22.7989  -23.9375   19.5384 O   0  0  0  0  0  0  0  0  0  0  0  0
  -30.6160  -19.0570   19.6608 O   0  0  0  0  0  0  0  0  0  0  0  0
  -18.9631  -20.0286   24.5105 O   0  0  0  0  0  0  0  0  0  0  0  0
  -28.7045  -27.3058   19.8989 O   0  0  0  0  0  0  0  0  0  1  0  0
  -14.3989  -20.4917   21.4516 F   0  0  0  0  0  0  0  0  0  0  0  0
  -17.9394  -22.5121   23.8574 F   0  0  0  0  0  0  0  0  0  0  0  0
  1  2  1  0  0  0  0
  1  5  2  0  0  0  0
  2  6  2  0  0  0  0
  3  8  2  0  0  0  0
  3 15  1  0  0  0  0
  4  9  1  0  0  0  0
  4 15  2  0  0  0  0
  5 17  1  0  0  0  0
  6 19  1  0  0  0  0
  7 10  2  0  0  0  0
  7 18  1  0  0  0  0
  8 23  1  0  0  0  0
  9 23  2  0  0  0  0
 10 24  1  0  0  0  0
 11 12  2  0  0  0  0
 11 25  1  0  0  0  0
 12 26  1  0  0  0  0
 13 20  1  0  0  0  0
 13 24  2  0  0  0  0
 14 26  2  0  0  0  0
 14 27  1  0  0  0  0
 15 28  1  0  0  0  0
 16 28  1  0  0  0  0
 16 31  2  0  0  0  0
 16 32  1  0  0  0  0
 17 19  2  0  0  0  0
 17 37  1  0  0  0  0
 18 20  2  0  0  0  0
 18 38  1  0  0  0  0
 19 46  1  0  0  0  0
 20 39  1  0  0  0  0
 21 22  1  0  0  0  0
 21 29  2  0  0  0  0
 21 49  1  0  0  0  0
 22 30  2  0  0  0  0
 22 61  1  0  0  0  0
 23 90  1  0  0  0  0
 24 91  1  0  0  0  0
 25 27  2  0  0  0  0
 25 90  1  0  0  0  0
 26 92  1  0  0  0  0
 27 93  1  0  0  0  0
 28 73  2  0  0  0  0
 29 50  1  0  0  0  0
 29 74  1  0  0  0  0
 30 62  1  0  0  0  0
 30 74  1  0  0  0  0
 31 75  1  0  0  0  0
 31 78  1  0  0  0  0
 32 79  1  0  0  0  0
 32 85  2  0  0  0  0
 33 47  1  0  0  0  0
 33 80  1  0  0  0  0
 33 86  2  0  0  0  0
 34 67  1  0  0  0  0
 34 76  1  0  0  0  0
 34 87  2  0  0  0  0
 35 68  1  0  0  0  0
 35 81  1  0  0  0  0
 35 88  2  0  0  0  0
 36 77  1  0  0  0  0
 36 82  1  0  0  0  0
 36 89  2  0  0  0  0
 37 40  1  0  0  0  0
 38 47  1  0  0  0  0
 39 76  1  0  0  0  0
 40 42  1  0  0  0  0
 41 43  1  0  0  0  0
 41 44  1  0  0  0  0
 42 46  1  0  0  0  0
 43 48  1  0  0  0  0
 44 77  1  0  0  0  0
 45 48  1  0  0  0  0
 45 77  1  0  0  0  0
 46 80  1  0  0  0  0
 47 76  1  0  0  0  0
 48 75  1  0  0  0  0
 51 68  1  0  0  0  0
 52 69  1  0  0  0  0
 53 69  1  0  0  0  0
 54 70  1  0  0  0  0
 55 71  1  0  0  0  0
 56 71  1  0  0  0  0
 57 71  1  0  0  0  0
 58 72  1  0  0  0  0
 59 72  1  0  0  0  0
 60 83  1  0  0  0  0
 61 63  1  0  0  0  0
 62 91  1  0  0  0  0
 63 69  1  0  0  0  0
 64 66  1  0  0  0  0
 64 72  1  0  0  0  0
 65 70  1  0  0  0  0
 65 74  1  0  0  0  0
 66 84  1  0  0  0  0
 67 71  1  0  0  0  0
 67 81  1  0  0  0  0
 68 83  1  0  0  0  0
 70 84  1  0  0  0  0
 72 82  1  0  0  0  0
 73 75  1  0  0  0  0
M  CHG  2  83   1  84   1
M  ISO  4  36 100  62 101  82 100  91 101
M  END
> <Batch ID>
0107

> <Smiles>
CNC(C)C(=O)NC(C(=O)N1Cc2cc([101O:1][101CH2:1]c3c(CCC(C)C)c(C)c(C)n3CC(C)NCCC(C)(C)[100NH:0][100C:0](=O)N3CCCC(n4nc(-c5ccc(Oc6ccc(F)cc6F)cc5)c(C(N)=O)c4N)C3)ccc2CC1C(=O)NC1CCCc2ccccc21)C(C)(C)C

> <Shape>
0.195

> <Color>
0.104

> <Negative vol penalty>
0.000

$$$$

  -OEChem-04052319513D

 90 98  0     1  0  0  0  0  0999 V2000
  -23.7044  -27.5113   17.0588 C   0  0  0  0  0  0  0  0  0  0  0  0
  -24.0919  -26.1820   17.1937 C   0  0  0  0  0  0  0  0  0  0  0  0
  -31.1859  -20.9451   20.2429 C   0  0  0  0  0  0  0  0  0  0  0  0
  -28.9802  -20.0443   19.8427 C   0  0  0  0  0  0  0  0  0  0  0  0
  -24.1809  -28.4693   17.9528 C   0  0  0  0  0  0  0  0  0  0  0  0
  -24.9571  -25.8101   18.2221 C   0  0  0  0  0  0  0  0  0  0  0  0
  -23.4655  -21.5860   20.5837 C   0  0  0  0  0  0  0  0  0  0  0  0
  -24.1264  -12.0504   21.5450 C   0  0  0  0  0  0  0  0  0  0  0  0
  -30.7497  -22.2009   19.8208 C   0  0  0  0  0  0  0  0  0  0  0  0
  -28.5439  -21.3001   19.4207 C   0  0  0  0  0  0  0  0  0  0  0  0
  -23.7189  -20.3745   19.9421 C   0  0  0  0  0  0  0  0  0  0  0  0
  -30.1501  -23.7736   16.8897 C   0  0  0  0  0  0  0  0  0  0  0  0
  -30.9736  -24.4856   16.0177 C   0  0  0  0  0  0  0  0  0  0  0  0
  -25.1745  -11.5185   20.8021 C   0  0  0  0  0  0  0  0  0  0  0  0
  -25.6482  -20.0390   21.3507 C   0  0  0  0  0  0  0  0  0  0  0  0
  -31.1364  -26.2751   17.6327 C   0  0  0  0  0  0  0  0  0  0  0  0
  -30.3012  -19.8667   20.2538 C   0  0  0  0  0  0  0  0  0  0  0  0
  -31.2751  -18.2303   21.9512 C   0  0  0  0  0  0  0  0  0  0  0  0
  -25.0447  -28.1073   18.9984 C   0  0  0  0  0  0  0  0  0  0  0  0
  -24.3093  -22.0391   21.6080 C   0  0  0  0  0  0  0  0  0  0  0  0
  -25.4467  -26.7643   19.1300 C   0  0  0  0  0  0  0  0  0  0  0  0
  -25.4019  -21.2554   22.0055 C   0  0  0  0  0  0  0  0  0  0  0  0
  -23.8847  -13.4194   21.5146 C   0  0  0  0  0  0  0  0  0  0  0  0
  -29.4286  -22.3785   19.4098 C   0  0  0  0  0  0  0  0  0  0  0  0
  -24.8120  -19.6021   20.3236 C   0  0  0  0  0  0  0  0  0  0  0  0
  -29.8196  -24.3123   18.1332 C   0  0  0  0  0  0  0  0  0  0  0  0
  -31.4668  -25.7364   16.3892 C   0  0  0  0  0  0  0  0  0  0  0  0
  -30.3128  -25.5631   18.5047 C   0  0  0  0  0  0  0  0  0  0  0  0
  -30.7514  -18.5691   20.6891 C   0  0  0  0  0  0  0  0  0  0  0  0
  -25.9454  -12.3911   20.0511 C   0  0  0  0  0  0  0  0  0  0  0  0
  -24.7135  -14.2069   20.7318 C   0  0  0  0  0  0  0  0  0  0  0  0
  -31.5492  -16.8875   21.8599 C   0  0  0  0  0  0  0  0  0  0  0  0
  -31.4941  -19.0555   23.1030 C   0  0  0  0  0  0  0  0  0  0  0  0
  -26.1825  -24.5748   22.0141 C   0  0  0  0  0  0  0  0  0  0  0  0
  -26.5324  -23.3518   24.9980 C   0  0  0  0  0  0  0  0  0  0  0  0
  -26.4172  -20.6211   27.0418 C   0  0  0  0  0  0  0  0  0  0  0  0
  -29.3373  -12.4975   18.4414 C   0  0  0  0  0  0  0  0  0  0  0  0
  -25.5712  -29.1860   19.9115 C   0  0  0  0  0  0  0  0  0  0  0  0
  -24.0068  -23.3355   22.3083 C   0  0  0  0  0  0  0  0  0  0  0  0
  -26.3265  -21.6873   23.1132 C   0  0  0  0  0  0  0  0  0  0  0  0
  -26.1875  -28.6465   21.1997 C   0  0  0  0  0  0  0  0  0  0  0  0
  -32.7404  -13.5167   18.6804 C   0  0  0  0  0  0  0  0  0  0  0  0
  -27.1238  -27.4811   20.8962 C   0  0  0  0  0  0  0  0  0  0  0  0
  -32.6638  -14.8965   19.3362 C   0  0  0  0  0  0  0  0  0  0  0  0
  -31.5745  -13.2815   17.7225 C   0  0  0  0  0  0  0  0  0  0  0  0
  -30.1616  -14.8729   18.9656 C   0  0  0  0  0  0  0  0  0  0  0  0
  -26.3641  -26.3176   20.2476 C   0  0  1  0  0  0  0  0  0  0  0  0
  -25.2280  -23.9458   22.9892 C   0  0  1  0  0  0  0  0  0  0  0  0
  -31.2858  -15.1345   19.9825 C   0  0  2  0  0  0  0  0  0  0  0  0
  -26.4809  -19.3083   29.1795 C   0  0  0  0  0  0  0  0  0  0  0  0
  -23.7219  -14.4986   24.7407 C   0  0  0  0  0  0  0  0  0  0  0  0
  -22.0297  -12.8387   23.0790 C   0  0  0  0  0  0  0  0  0  0  0  0
  -21.6226  -14.6635   21.4561 C   0  0  0  0  0  0  0  0  0  0  0  0
  -29.5494  -23.4743   24.5590 C   0  0  0  0  0  0  0  0  0  0  0  0
  -29.8258  -21.9295   26.5097 C   0  0  0  0  0  0  0  0  0  0  0  0
  -28.7974  -24.1783   26.8378 C   0  0  0  0  0  0  0  0  0  0  0  0
  -23.5224  -21.0215   27.5097 C   0  0  0  0  0  0  0  0  0  0  0  0
  -24.1118  -17.8252   23.8862 C   0  0  0  0  0  0  0  0  0  0  0  0
  -21.8199  -18.4000   24.6721 C   0  0  0  0  0  0  0  0  0  0  0  0
  -24.4971  -15.6973   20.6576 C   0  0  0  0  0  0  0  0  0  0  0  0
  -27.0775  -11.8541   19.2403 C   0  0  0  0  0  0  0  0  0  0  0  0
  -24.2401  -16.2125   19.2399 C   0  0  0  0  0  0  0  0  0  0  0  0
  -22.2484  -16.2006   23.5859 C   0  0  0  0  0  0  0  0  0  0  0  0
  -23.9379  -17.7056   19.1856 C   0  0  0  0  0  0  0  0  0  1  0  0
  -27.4826  -22.3757   25.6487 C   0  0  1  0  0  0  0  0  0  0  0  0
  -25.7735  -20.4056   28.3996 C   0  0  2  0  0  0  0  0  0  0  0  0
  -23.2868  -15.0756   23.3800 C   0  0  2  0  0  0  0  0  0  0  0  0
  -22.7642  -13.9952   22.3093 C   0  0  0  0  0  0  0  0  0  0  0  0
  -28.8977  -22.9819   25.8666 C   0  0  0  0  0  0  0  0  0  0  0  0
  -30.6954  -17.5258   19.8571 N   0  0  0  0  0  0  0  0  0  0  0  0
  -25.7412  -13.7264   19.9966 N   0  0  0  0  0  0  0  0  0  0  0  0
  -31.1875  -16.5182   20.5978 N   0  0  0  0  0  0  0  0  0  0  0  0
  -25.9925  -22.9655   23.7631 N   0  0  0  0  0  0  0  0  0  0  0  0
  -30.2970  -13.5223   18.3977 N   0  0  0  0  0  0  0  0  0  0  0  0
  -32.0621  -15.9985   22.7369 N   0  0  0  0  0  0  0  0  0  0  0  0
  -32.7317  -19.6993   23.2382 N   0  0  0  0  0  0  0  0  0  0  0  0
  -25.6227  -25.5785   21.2468 N   0  0  0  0  0  0  0  0  0  0  0  0
  -26.8302  -21.9259   26.8736 N   0  0  0  0  0  0  0  0  0  0  0  0
  -28.1569  -12.8068   19.1061 N   0  0  0  0  0  0  0  0  0  0  0  0
  -24.3427  -20.0207   28.2394 N   0  3  0  0  0  0  0  0  0  0  0  0
  -22.8102  -17.2892   24.4274 N   0  3  0  0  0  0  0  0  0  0  0  0
  -30.6242  -19.2041   23.9945 O   0  0  0  0  0  0  0  0  0  0  0  0
  -27.3414  -24.1799   21.9627 O   0  0  0  0  0  0  0  0  0  0  0  0
  -26.2730  -24.4145   25.5680 O   0  0  0  0  0  0  0  0  0  0  0  0
  -26.5445  -19.7210   26.2146 O   0  0  0  0  0  0  0  0  0  0  0  0
  -29.5211  -11.3874   17.9308 O   0  0  0  0  0  0  0  0  0  0  0  0
  -29.0025  -23.6038   18.9981 O   0  0  0  0  0  0  0  0  0  0  0  0
  -25.0620  -18.4194   19.6985 O   0  0  0  0  0  0  0  0  0  1  0  0
  -32.2589  -26.4193   15.5524 F   0  0  0  0  0  0  0  0  0  0  0  0
  -29.9997  -26.0853   19.6985 F   0  0  0  0  0  0  0  0  0  0  0  0
  1  2  1  0  0  0  0
  1  5  2  0  0  0  0
  2  6  2  0  0  0  0
  3  9  2  0  0  0  0
  3 17  1  0  0  0  0
  4 10  1  0  0  0  0
  4 17  2  0  0  0  0
  5 19  1  0  0  0  0
  6 21  1  0  0  0  0
  7 11  2  0  0  0  0
  7 20  1  0  0  0  0
  8 14  2  0  0  0  0
  8 23  1  0  0  0  0
  9 24  1  0  0  0  0
 10 24  2  0  0  0  0
 11 25  1  0  0  0  0
 12 13  2  0  0  0  0
 12 26  1  0  0  0  0
 13 27  1  0  0  0  0
 14 30  1  0  0  0  0
 15 22  1  0  0  0  0
 15 25  2  0  0  0  0
 16 27  2  0  0  0  0
 16 28  1  0  0  0  0
 17 29  1  0  0  0  0
 18 29  1  0  0  0  0
 18 32  2  0  0  0  0
 18 33  1  0  0  0  0
 19 21  2  0  0  0  0
 19 38  1  0  0  0  0
 20 22  2  0  0  0  0
 20 39  1  0  0  0  0
 21 47  1  0  0  0  0
 22 40  1  0  0  0  0
 23 31  2  0  0  0  0
 23 68  1  0  0  0  0
 24 87  1  0  0  0  0
 25 88  1  0  0  0  0
 26 28  2  0  0  0  0
 26 87  1  0  0  0  0
 27 89  1  0  0  0  0
 28 90  1  0  0  0  0
 29 70  2  0  0  0  0
 30 61  1  0  0  0  0
 30 71  2  0  0  0  0
 31 60  1  0  0  0  0
 31 71  1  0  0  0  0
 32 72  1  0  0  0  0
 32 75  1  0  0  0  0
 33 76  1  0  0  0  0
 33 82  2  0  0  0  0
 34 48  1  0  0  0  0
 34 77  1  0  0  0  0
 34 83  2  0  0  0  0
 35 65  1  0  0  0  0
 35 73  1  0  0  0  0
 35 84  2  0  0  0  0
 36 66  1  0  0  0  0
 36 78  1  0  0  0  0
 36 85  2  0  0  0  0
 37 74  1  0  0  0  0
 37 79  1  0  0  0  0
 37 86  2  0  0  0  0
 38 41  1  0  0  0  0
 39 48  1  0  0  0  0
 40 73  1  0  0  0  0
 41 43  1  0  0  0  0
 42 44  1  0  0  0  0
 42 45  1  0  0  0  0
 43 47  1  0  0  0  0
 44 49  1  0  0  0  0
 45 74  1  0  0  0  0
 46 49  1  0  0  0  0
 46 74  1  0  0  0  0
 47 77  1  0  0  0  0
 48 73  1  0  0  0  0
 49 72  1  0  0  0  0
 50 66  1  0  0  0  0
 51 67  1  0  0  0  0
 52 68  1  0  0  0  0
 53 68  1  0  0  0  0
 54 69  1  0  0  0  0
 55 69  1  0  0  0  0
 56 69  1  0  0  0  0
 57 80  1  0  0  0  0
 58 81  1  0  0  0  0
 59 81  1  0  0  0  0
 60 62  1  0  0  0  0
 61 79  1  0  0  0  0
 62 64  1  0  0  0  0
 63 67  1  0  0  0  0
 63 81  1  0  0  0  0
 64 88  1  0  0  0  0
 65 69  1  0  0  0  0
 65 78  1  0  0  0  0
 66 80  1  0  0  0  0
 67 68  1  0  0  0  0
 70 72  1  0  0  0  0
M  CHG  2  80   1  81   1
M  ISO  4  37 100  64 101  79 100  88 101
M  END
> <Batch ID>
0107

> <Smiles>
CNC(C)C(=O)NC(C(=O)N1Cc2cc([101O:1][101CH2:1]CCc3nc(C[100NH:0][100C:0](=O)N4CCCC(n5nc(-c6ccc(Oc7ccc(F)cc7F)cc6)c(C(N)=O)c5N)C4)ccc3C(C)(C)C(C)CN(C)C)ccc2CC1C(=O)NC1CCCc2ccccc21)C(C)(C)C

> <Shape>
0.202

> <Color>
0.058

> <Negative vol penalty>
0.000

$$$$

  -OEChem-04052319513D

 82 90  0     1  0  0  0  0  0999 V2000
  -20.2861  -11.4100   18.2424 C   0  0  0  0  0  0  0  0  0  0  0  0
  -20.6925  -12.6979   17.9083 C   0  0  0  0  0  0  0  0  0  0  0  0
  -25.5859  -31.7376   26.5502 C   0  0  0  0  0  0  0  0  0  0  0  0
  -27.8064  -32.1199   25.6783 C   0  0  0  0  0  0  0  0  0  0  0  0
  -20.9276  -10.7229   19.2722 C   0  0  0  0  0  0  0  0  0  0  0  0
  -21.7400  -13.2999   18.6045 C   0  0  0  0  0  0  0  0  0  0  0  0
  -27.1692  -17.8767   17.6597 C   0  0  0  0  0  0  0  0  0  0  0  0
  -26.0072  -32.1633   27.8099 C   0  0  0  0  0  0  0  0  0  0  0  0
  -28.2277  -32.5457   26.9381 C   0  0  0  0  0  0  0  0  0  0  0  0
  -27.7045  -19.0409   18.2091 C   0  0  0  0  0  0  0  0  0  0  0  0
  -27.7370  -30.8894   30.4194 C   0  0  0  0  0  0  0  0  0  0  0  0
  -27.3516  -30.1277   31.5225 C   0  0  0  0  0  0  0  0  0  0  0  0
  -28.7912  -17.7284   19.9166 C   0  0  0  0  0  0  0  0  0  0  0  0
  -26.2051  -32.0439   32.4449 C   0  0  0  0  0  0  0  0  0  0  0  0
  -26.4855  -31.7159   25.4844 C   0  0  0  0  0  0  0  0  0  0  0  0
  -25.5105  -32.0695   23.1538 C   0  0  0  0  0  0  0  0  0  0  0  0
  -21.9899  -11.3131   19.9749 C   0  0  0  0  0  0  0  0  0  0  0  0
  -27.4325  -16.6285   18.2421 C   0  0  0  0  0  0  0  0  0  0  0  0
  -22.3955  -12.6206   19.6455 C   0  0  0  0  0  0  0  0  0  0  0  0
  -28.2601  -16.5495   19.3712 C   0  0  0  0  0  0  0  0  0  0  0  0
  -27.3281  -32.5673   28.0039 C   0  0  0  0  0  0  0  0  0  0  0  0
  -28.5133  -18.9672   19.3394 C   0  0  0  0  0  0  0  0  0  0  0  0
  -27.3566  -32.2284   30.3291 C   0  0  0  0  0  0  0  0  0  0  0  0
  -26.5855  -30.7050   32.5352 C   0  0  0  0  0  0  0  0  0  0  0  0
  -26.5906  -32.8056   31.3418 C   0  0  0  0  0  0  0  0  0  0  0  0
  -26.0511  -31.2757   24.1830 C   0  0  0  0  0  0  0  0  0  0  0  0
  -25.2626  -31.1854   22.1324 C   0  0  0  0  0  0  0  0  0  0  0  0
  -25.2553  -33.4801   23.1236 C   0  0  0  0  0  0  0  0  0  0  0  0
  -25.6555  -14.3586   19.5814 C   0  0  0  0  0  0  0  0  0  0  0  0
  -28.4661  -12.7403   19.6461 C   0  0  0  0  0  0  0  0  0  0  0  0
  -31.8768  -12.8570   19.6575 C   0  0  0  0  0  0  0  0  0  0  0  0
  -27.5991  -26.1393   20.5409 C   0  0  0  0  0  0  0  0  0  0  0  0
  -22.6215  -10.5493   21.1117 C   0  0  0  0  0  0  0  0  0  0  0  0
  -26.8693  -15.3794   17.6216 C   0  0  0  0  0  0  0  0  0  0  0  0
  -28.5897  -15.2320   20.0223 C   0  0  0  0  0  0  0  0  0  0  0  0
  -23.9695  -11.1152   21.5510 C   0  0  0  0  0  0  0  0  0  0  0  0
  -24.2019  -26.5980   21.3159 C   0  0  0  0  0  0  0  0  0  0  0  0
  -23.8896  -12.6314   21.6981 C   0  0  0  0  0  0  0  0  0  0  0  0
  -24.2355  -27.9397   22.0470 C   0  0  0  0  0  0  0  0  0  0  0  0
  -28.6243  -22.8526   21.2640 C   0  0  0  0  0  0  0  0  0  0  0  0
  -25.3853  -25.7074   21.6982 C   0  0  0  0  0  0  0  0  0  0  0  0
  -27.3571  -23.6514   20.9493 C   0  0  0  0  0  0  0  0  0  0  0  0
  -28.3862  -24.4969   18.8626 C   0  0  0  0  0  0  0  0  0  0  0  0
  -26.7386  -27.7003   22.2612 C   0  0  0  0  0  0  0  0  0  0  0  0
  -23.5441  -13.2979   20.3610 C   0  0  1  0  0  0  0  0  0  0  0  0
  -26.7841  -14.2122   18.6002 C   0  0  1  0  0  0  0  0  0  0  0  0
  -29.4229  -22.4684   20.0053 C   0  0  2  0  0  0  0  0  0  0  0  0
  -29.6857  -23.7326   19.1498 C   0  0  1  0  0  0  0  0  0  0  0  0
  -25.5926  -28.6397   21.8546 C   0  0  2  0  0  0  0  0  0  0  0  0
  -29.9407  -22.8563   15.3456 C   0  0  0  0  0  0  0  0  0  0  0  0
  -33.8983  -11.3731   19.7537 C   0  0  0  0  0  0  0  0  0  0  0  0
  -31.3262  -24.6337   17.4943 C   0  0  0  0  0  0  0  0  0  0  0  0
  -31.3200  -22.1906   18.0571 C   0  0  0  0  0  0  0  0  0  0  0  0
  -28.0076  -12.3132   22.6322 C   0  0  0  0  0  0  0  0  0  0  0  0
  -30.4244  -11.6948   22.8440 C   0  0  0  0  0  0  0  0  0  0  0  0
  -28.9071  -10.3197   21.4193 C   0  0  0  0  0  0  0  0  0  0  0  0
  -32.8351  -13.7960   17.0196 C   0  0  0  0  0  0  0  0  0  0  0  0
  -28.7244  -21.3341   19.2458 C   0  0  0  0  0  0  0  0  0  1  0  0
  -29.3830  -23.1758   16.7273 C   0  0  0  0  0  0  0  0  0  0  0  0
  -29.6063  -12.6168   20.6278 C   0  0  1  0  0  0  0  0  0  0  0  0
  -32.9134  -12.0976   18.8493 C   0  0  2  0  0  0  0  0  0  0  0  0
  -30.4290  -23.4311   17.8484 C   0  0  0  0  0  0  0  0  0  0  0  0
  -29.2288  -11.7613   21.8699 C   0  0  0  0  0  0  0  0  0  0  0  0
  -26.1415  -29.9863   23.8463 N   0  0  0  0  0  0  0  0  0  0  0  0
  -25.6542  -29.9632   22.5941 N   0  0  0  0  0  0  0  0  0  0  0  0
  -28.0100  -14.0396   19.3822 N   0  0  0  0  0  0  0  0  0  0  0  0
  -26.6545  -26.4304   21.5367 N   0  0  0  0  0  0  0  0  0  0  0  0
  -27.6706  -24.8086   20.1009 N   0  0  0  0  0  0  0  0  0  0  0  0
  -24.7499  -31.3418   20.8934 N   0  0  0  0  0  0  0  0  0  0  0  0
  -25.5692  -34.2403   24.2585 N   0  0  0  0  0  0  0  0  0  0  0  0
  -24.7113  -13.3525   19.5070 N   0  0  0  0  0  0  0  0  0  0  0  0
  -30.7426  -12.1025   19.8710 N   0  0  0  0  0  0  0  0  0  0  0  0
  -33.6773  -13.0335   17.9768 N   0  3  0  0  0  0  0  0  0  0  0  0
  -24.7482  -34.0469   22.1261 O   0  0  0  0  0  0  0  0  0  0  0  0
  -25.6432  -15.3129   20.3501 O   0  0  0  0  0  0  0  0  0  0  0  0
  -28.0021  -11.7220   19.1269 O   0  0  0  0  0  0  0  0  0  0  0  0
  -32.0569  -14.0033   20.0625 O   0  0  0  0  0  0  0  0  0  0  0  0
  -28.3353  -27.0165   20.0724 O   0  0  0  0  0  0  0  0  0  0  0  0
  -27.7395  -32.9830   29.2329 O   0  0  0  0  0  0  0  0  0  0  0  0
  -29.0416  -20.1132   19.8833 O   0  0  0  0  0  0  0  0  0  1  0  0
  -26.2141  -29.9730   33.5937 F   0  0  0  0  0  0  0  0  0  0  0  0
  -26.2211  -34.0911   31.2600 F   0  0  0  0  0  0  0  0  0  0  0  0
  1  2  1  0  0  0  0
  1  5  2  0  0  0  0
  2  6  2  0  0  0  0
  3  8  2  0  0  0  0
  3 15  1  0  0  0  0
  4  9  1  0  0  0  0
  4 15  2  0  0  0  0
  5 17  1  0  0  0  0
  6 19  1  0  0  0  0
  7 10  2  0  0  0  0
  7 18  1  0  0  0  0
  8 21  1  0  0  0  0
  9 21  2  0  0  0  0
 10 22  1  0  0  0  0
 11 12  2  0  0  0  0
 11 23  1  0  0  0  0
 12 24  1  0  0  0  0
 13 20  1  0  0  0  0
 13 22  2  0  0  0  0
 14 24  2  0  0  0  0
 14 25  1  0  0  0  0
 15 26  1  0  0  0  0
 16 26  1  0  0  0  0
 16 27  2  0  0  0  0
 16 28  1  0  0  0  0
 17 19  2  0  0  0  0
 17 33  1  0  0  0  0
 18 20  2  0  0  0  0
 18 34  1  0  0  0  0
 19 45  1  0  0  0  0
 20 35  1  0  0  0  0
 21 79  1  0  0  0  0
 22 80  1  0  0  0  0
 23 25  2  0  0  0  0
 23 79  1  0  0  0  0
 24 81  1  0  0  0  0
 25 82  1  0  0  0  0
 26 64  2  0  0  0  0
 27 65  1  0  0  0  0
 27 69  1  0  0  0  0
 28 70  1  0  0  0  0
 28 74  2  0  0  0  0
 29 46  1  0  0  0  0
 29 71  1  0  0  0  0
 29 75  2  0  0  0  0
 30 60  1  0  0  0  0
 30 66  1  0  0  0  0
 30 76  2  0  0  0  0
 31 61  1  0  0  0  0
 31 72  1  0  0  0  0
 31 77  2  0  0  0  0
 32 67  1  0  0  0  0
 32 68  1  0  0  0  0
 32 78  2  0  0  0  0
 33 36  1  0  0  0  0
 34 46  1  0  0  0  0
 35 66  1  0  0  0  0
 36 38  1  0  0  0  0
 37 39  1  0  0  0  0
 37 41  1  0  0  0  0
 38 45  1  0  0  0  0
 39 49  1  0  0  0  0
 40 42  1  0  0  0  0
 40 47  1  0  0  0  0
 41 67  1  0  0  0  0
 42 68  1  0  0  0  0
 43 48  1  0  0  0  0
 43 68  1  0  0  0  0
 44 49  1  0  0  0  0
 44 67  1  0  0  0  0
 45 71  1  0  0  0  0
 46 66  1  0  0  0  0
 47 48  1  0  0  0  0
 47 58  1  0  0  0  0
 48 62  1  0  0  0  0
 49 65  1  0  0  0  0
 50 59  1  0  0  0  0
 51 61  1  0  0  0  0
 52 62  1  0  0  0  0
 53 62  1  0  0  0  0
 54 63  1  0  0  0  0
 55 63  1  0  0  0  0
 56 63  1  0  0  0  0
 57 73  1  0  0  0  0
 58 80  1  0  0  0  0
 59 62  1  0  0  0  0
 60 63  1  0  0  0  0
 60 72  1  0  0  0  0
 61 73  1  0  0  0  0
 64 65  1  0  0  0  0
M  CHG  1  73   1
M  ISO  4  32 100  58 101  68 100  80 101
M  END
> <Batch ID>
0107

> <Smiles>
CCC(C)(C)C1C[100N:0]([100C:0](=O)N2CCCC(n3nc(-c4ccc(Oc5ccc(F)cc5F)cc4)c(C(N)=O)c3N)C2)CCC1[101CH2:1][101O:1]c1ccc2c(c1)CN(C(=O)C(NC(=O)C(C)NC)C(C)(C)C)C(C(=O)NC1CCCc3ccccc31)C2

> <Shape>
0.270

> <Color>
0.082

> <Negative vol penalty>
0.000

$$$$

  -OEChem-04052319513D

 83 91  0     1  0  0  0  0  0999 V2000
  -17.3070  -23.9053   23.4722 C   0  0  0  0  0  0  0  0  0  0  0  0
  -18.4420  -23.1246   23.2778 C   0  0  0  0  0  0  0  0  0  0  0  0
  -25.7622  -15.6796   20.0304 C   0  0  0  0  0  0  0  0  0  0  0  0
  -24.6878  -17.3414   21.4164 C   0  0  0  0  0  0  0  0  0  0  0  0
  -17.2200  -25.1657   22.8826 C   0  0  0  0  0  0  0  0  0  0  0  0
  -19.4902  -23.6035   22.4927 C   0  0  0  0  0  0  0  0  0  0  0  0
  -26.6276  -23.3359   21.9429 C   0  0  0  0  0  0  0  0  0  0  0  0
  -24.5945  -14.9166   20.0400 C   0  0  0  0  0  0  0  0  0  0  0  0
  -23.5201  -16.5785   21.4260 C   0  0  0  0  0  0  0  0  0  0  0  0
  -27.6263  -23.0558   21.0113 C   0  0  0  0  0  0  0  0  0  0  0  0
  -22.0108  -12.3581   19.9978 C   0  0  0  0  0  0  0  0  0  0  0  0
  -22.1327  -10.9858   20.2154 C   0  0  0  0  0  0  0  0  0  0  0  0
  -27.3990  -25.2808   20.1075 C   0  0  0  0  0  0  0  0  0  0  0  0
  -23.1457  -11.4167   22.3660 C   0  0  0  0  0  0  0  0  0  0  0  0
  -32.9221  -22.1315   20.5052 C   0  0  0  0  0  0  0  0  0  0  0  0
  -25.8089  -16.8920   20.7186 C   0  0  0  0  0  0  0  0  0  0  0  0
  -27.3695  -18.6809   19.7849 C   0  0  0  0  0  0  0  0  0  0  0  0
  -18.2717  -25.6643   22.0978 C   0  0  0  0  0  0  0  0  0  0  0  0
  -25.9984  -24.5891   21.9567 C   0  0  0  0  0  0  0  0  0  0  0  0
  -19.4165  -24.8712   21.8909 C   0  0  0  0  0  0  0  0  0  0  0  0
  -26.3943  -25.5752   21.0419 C   0  0  0  0  0  0  0  0  0  0  0  0
  -23.4735  -15.3661   20.7378 C   0  0  0  0  0  0  0  0  0  0  0  0
  -28.0102  -24.0273   20.0916 C   0  0  0  0  0  0  0  0  0  0  0  0
  -22.4563  -13.2598   20.9643 C   0  0  0  0  0  0  0  0  0  0  0  0
  -22.7002  -10.5151   21.3995 C   0  0  0  0  0  0  0  0  0  0  0  0
  -23.0238  -12.7891   22.1484 C   0  0  0  0  0  0  0  0  0  0  0  0
  -27.0149  -17.6803   20.7095 C   0  0  0  0  0  0  0  0  0  0  0  0
  -31.9199  -23.6889   19.4562 C   0  0  0  0  0  0  0  0  0  0  0  0
  -32.2474  -24.2221   20.6805 C   0  0  0  0  0  0  0  0  0  0  0  0
  -28.5987  -19.1217   20.2107 C   0  0  0  0  0  0  0  0  0  0  0  0
  -26.6520  -19.1683   18.6434 C   0  0  0  0  0  0  0  0  0  0  0  0
  -23.0187  -25.6078   21.5238 C   0  0  0  0  0  0  0  0  0  0  0  0
  -24.2842  -28.4661   22.3903 C   0  0  0  0  0  0  0  0  0  0  0  0
  -27.0458  -30.4556   22.6404 C   0  0  0  0  0  0  0  0  0  0  0  0
  -32.0496  -20.7170   24.2962 C   0  0  0  0  0  0  0  0  0  0  0  0
  -18.1119  -27.0131   21.4421 C   0  0  0  0  0  0  0  0  0  0  0  0
  -24.9414  -24.8846   22.9853 C   0  0  0  0  0  0  0  0  0  0  0  0
  -25.7642  -26.9431   21.0282 C   0  0  0  0  0  0  0  0  0  0  0  0
  -19.4248  -27.6016   20.9317 C   0  0  0  0  0  0  0  0  0  0  0  0
  -31.7586  -17.2234   23.6746 C   0  0  0  0  0  0  0  0  0  0  0  0
  -20.2181  -26.5497   20.1629 C   0  0  0  0  0  0  0  0  0  0  0  0
  -30.5247  -17.1131   22.7771 C   0  0  0  0  0  0  0  0  0  0  0  0
  -31.5961  -18.3198   24.7251 C   0  0  0  0  0  0  0  0  0  0  0  0
  -30.0039  -19.5349   23.2891 C   0  0  0  0  0  0  0  0  0  0  0  0
  -20.5849  -25.3661   21.0663 C   0  0  1  0  0  0  0  0  0  0  0  0
  -24.0096  -26.0207   22.5751 C   0  0  1  0  0  0  0  0  0  0  0  0
  -30.1430  -18.4801   22.1781 C   0  0  2  0  0  0  0  0  0  0  0  0
  -32.0190  -25.5556   21.2650 C   0  0  0  0  0  0  0  0  0  0  0  0
  -27.7602  -32.7538   23.3513 C   0  0  0  0  0  0  0  0  0  0  0  0
  -30.9935  -23.4390   17.0565 C   0  0  0  0  0  0  0  0  0  0  0  0
  -32.0022  -25.5834   17.8058 C   0  0  0  0  0  0  0  0  0  0  0  0
  -23.1117  -29.6225   19.8217 C   0  0  0  0  0  0  0  0  0  0  0  0
  -24.6215  -31.5995   20.1050 C   0  0  0  0  0  0  0  0  0  0  0  0
  -22.8881  -31.0991   21.8277 C   0  0  0  0  0  0  0  0  0  0  0  0
  -28.8463  -29.3767   24.7267 C   0  0  0  0  0  0  0  0  0  0  0  0
  -33.4382  -23.2612   22.6757 C   0  0  0  0  0  0  0  0  0  0  0  0
  -32.3770  -23.1188   23.7637 C   0  0  0  0  0  0  0  0  0  0  0  0
  -29.7836  -24.8527   18.7390 C   0  0  0  0  0  0  0  0  0  1  0  0
  -24.9289  -29.6167   21.6558 C   0  0  1  0  0  0  0  0  0  0  0  0
  -27.5741  -31.3068   23.7809 C   0  0  2  0  0  0  0  0  0  0  0  0
  -31.1825  -24.3628   18.2837 C   0  0  0  0  0  0  0  0  0  0  0  0
  -23.8983  -30.4581   20.8513 C   0  0  0  0  0  0  0  0  0  0  0  0
  -32.3424  -22.3872   19.3535 N   0  0  0  0  0  0  0  0  0  0  0  0
  -27.9438  -17.4959   21.6514 N   0  0  0  0  0  0  0  0  0  0  0  0
  -32.8885  -23.2126   21.3416 N   0  0  0  0  0  0  0  0  0  0  0  0
  -28.8943  -18.3867   21.3209 N   0  0  0  0  0  0  0  0  0  0  0  0
  -24.7310  -27.1816   22.0495 N   0  0  0  0  0  0  0  0  0  0  0  0
  -31.2360  -19.5905   24.0915 N   0  0  0  0  0  0  0  0  0  0  0  0
  -29.4448  -20.0624   19.7398 N   0  0  0  0  0  0  0  0  0  0  0  0
  -25.4028  -18.6052   18.3490 N   0  0  0  0  0  0  0  0  0  0  0  0
  -21.6996  -25.7103   21.9226 N   0  0  0  0  0  0  0  0  0  0  0  0
  -25.6693  -30.3767   22.6571 N   0  0  0  0  0  0  0  0  0  0  0  0
  -31.6402  -21.8794   23.6545 N   0  0  0  0  0  0  0  0  0  0  0  0
  -28.8876  -30.7839   24.2522 N   0  3  0  0  0  0  0  0  0  0  0  0
  -27.1125  -20.0650   17.8968 O   0  0  0  0  0  0  0  0  0  0  0  0
  -23.4210  -25.2260   20.4310 O   0  0  0  0  0  0  0  0  0  0  0  0
  -23.4213  -28.6989   23.2405 O   0  0  0  0  0  0  0  0  0  0  0  0
  -27.7805  -29.9177   21.8149 O   0  0  0  0  0  0  0  0  0  0  0  0
  -33.0687  -20.6876   24.9945 O   0  0  0  0  0  0  0  0  0  0  0  0
  -22.3338  -14.6220   20.7472 O   0  0  0  0  0  0  0  0  0  0  0  0
  -28.9843  -23.7562   19.1808 O   0  0  0  0  0  0  0  0  0  1  0  0
  -22.8158   -9.1971   21.6089 F   0  0  0  0  0  0  0  0  0  0  0  0
  -23.4526  -13.6505   23.0811 F   0  0  0  0  0  0  0  0  0  0  0  0
  1  2  1  0  0  0  0
  1  5  2  0  0  0  0
  2  6  2  0  0  0  0
  3  8  2  0  0  0  0
  3 16  1  0  0  0  0
  4  9  1  0  0  0  0
  4 16  2  0  0  0  0
  5 18  1  0  0  0  0
  6 20  1  0  0  0  0
  7 10  2  0  0  0  0
  7 19  1  0  0  0  0
  8 22  1  0  0  0  0
  9 22  2  0  0  0  0
 10 23  1  0  0  0  0
 11 12  2  0  0  0  0
 11 24  1  0  0  0  0
 12 25  1  0  0  0  0
 13 21  1  0  0  0  0
 13 23  2  0  0  0  0
 14 25  2  0  0  0  0
 14 26  1  0  0  0  0
 15 63  2  0  0  0  0
 15 65  1  0  0  0  0
 16 27  1  0  0  0  0
 17 27  1  0  0  0  0
 17 30  2  0  0  0  0
 17 31  1  0  0  0  0
 18 20  2  0  0  0  0
 18 36  1  0  0  0  0
 19 21  2  0  0  0  0
 19 37  1  0  0  0  0
 20 45  1  0  0  0  0
 21 38  1  0  0  0  0
 22 80  1  0  0  0  0
 23 81  1  0  0  0  0
 24 26  2  0  0  0  0
 24 80  1  0  0  0  0
 25 82  1  0  0  0  0
 26 83  1  0  0  0  0
 27 64  2  0  0  0  0
 28 29  2  0  0  0  0
 28 61  1  0  0  0  0
 28 63  1  0  0  0  0
 29 48  1  0  0  0  0
 29 65  1  0  0  0  0
 30 66  1  0  0  0  0
 30 69  1  0  0  0  0
 31 70  1  0  0  0  0
 31 75  2  0  0  0  0
 32 46  1  0  0  0  0
 32 71  1  0  0  0  0
 32 76  2  0  0  0  0
 33 59  1  0  0  0  0
 33 67  1  0  0  0  0
 33 77  2  0  0  0  0
 34 60  1  0  0  0  0
 34 72  1  0  0  0  0
 34 78  2  0  0  0  0
 35 68  1  0  0  0  0
 35 73  1  0  0  0  0
 35 79  2  0  0  0  0
 36 39  1  0  0  0  0
 37 46  1  0  0  0  0
 38 67  1  0  0  0  0
 39 41  1  0  0  0  0
 40 42  1  0  0  0  0
 40 43  1  0  0  0  0
 41 45  1  0  0  0  0
 42 47  1  0  0  0  0
 43 68  1  0  0  0  0
 44 47  1  0  0  0  0
 44 68  1  0  0  0  0
 45 71  1  0  0  0  0
 46 67  1  0  0  0  0
 47 66  1  0  0  0  0
 49 60  1  0  0  0  0
 50 61  1  0  0  0  0
 51 61  1  0  0  0  0
 52 62  1  0  0  0  0
 53 62  1  0  0  0  0
 54 62  1  0  0  0  0
 55 74  1  0  0  0  0
 56 57  1  0  0  0  0
 56 65  1  0  0  0  0
 57 73  1  0  0  0  0
 58 61  1  0  0  0  0
 58 81  1  0  0  0  0
 59 62  1  0  0  0  0
 59 72  1  0  0  0  0
 60 74  1  0  0  0  0
 64 66  1  0  0  0  0
M  CHG  1  74   1
M  ISO  4  35 100  58 101  73 100  81 101
M  END
> <Batch ID>
0107

> <Smiles>
CNC(C)C(=O)NC(C(=O)N1Cc2cc([101O:1][101CH2:1]C(C)(C)c3ncn(CC[100NH:0][100C:0](=O)N4CCCC(n5nc(-c6ccc(Oc7ccc(F)cc7F)cc6)c(C(N)=O)c5N)C4)c3C)ccc2CC1C(=O)NC1CCCc2ccccc21)C(C)(C)C

> <Shape>
0.223

> <Color>
0.062

> <Negative vol penalty>
0.000

$$$$

  -OEChem-04052319513D

 86 94  0     1  0  0  0  0  0999 V2000
  -22.9075   -7.9033   21.3614 C   0  0  0  0  0  0  0  0  0  0  0  0
  -22.8995   -8.6390   20.1817 C   0  0  0  0  0  0  0  0  0  0  0  0
  -20.0217  -28.1033   23.7122 C   0  0  0  0  0  0  0  0  0  0  0  0
  -19.8677  -28.6198   21.3570 C   0  0  0  0  0  0  0  0  0  0  0  0
  -23.4051   -8.4742   22.5309 C   0  0  0  0  0  0  0  0  0  0  0  0
  -23.4000   -9.9413   20.1683 C   0  0  0  0  0  0  0  0  0  0  0  0
  -25.3533  -17.0405   17.1668 C   0  0  0  0  0  0  0  0  0  0  0  0
  -18.7054  -27.6422   23.6971 C   0  0  0  0  0  0  0  0  0  0  0  0
  -18.5514  -28.1587   21.3420 C   0  0  0  0  0  0  0  0  0  0  0  0
  -25.6443  -18.3568   17.5222 C   0  0  0  0  0  0  0  0  0  0  0  0
  -15.2664  -26.6628   24.3588 C   0  0  0  0  0  0  0  0  0  0  0  0
  -14.4257  -27.0627   25.3975 C   0  0  0  0  0  0  0  0  0  0  0  0
  -27.3919  -17.5688   18.9865 C   0  0  0  0  0  0  0  0  0  0  0  0
  -14.7559  -29.3737   24.7751 C   0  0  0  0  0  0  0  0  0  0  0  0
  -20.6029  -28.5922   22.5421 C   0  0  0  0  0  0  0  0  0  0  0  0
  -22.4848  -30.1240   23.3293 C   0  0  0  0  0  0  0  0  0  0  0  0
  -23.9003   -9.7886   22.5338 C   0  0  0  0  0  0  0  0  0  0  0  0
  -26.0734  -15.9760   17.7278 C   0  0  0  0  0  0  0  0  0  0  0  0
  -23.9286  -10.5267   21.3330 C   0  0  0  0  0  0  0  0  0  0  0  0
  -27.1098  -16.2400   18.6346 C   0  0  0  0  0  0  0  0  0  0  0  0
  -17.9702  -27.6699   22.5121 C   0  0  0  0  0  0  0  0  0  0  0  0
  -26.6618  -18.6210   18.4344 C   0  0  0  0  0  0  0  0  0  0  0  0
  -15.8520  -27.6184   23.5283 C   0  0  0  0  0  0  0  0  0  0  0  0
  -14.1704  -28.4181   25.6057 C   0  0  0  0  0  0  0  0  0  0  0  0
  -15.5967  -28.9738   23.7364 C   0  0  0  0  0  0  0  0  0  0  0  0
  -21.9624  -29.0691   22.5571 C   0  0  0  0  0  0  0  0  0  0  0  0
  -23.8127  -30.1786   22.9824 C   0  0  0  0  0  0  0  0  0  0  0  0
  -21.8284  -30.9781   24.2755 C   0  0  0  0  0  0  0  0  0  0  0  0
  -25.3308  -13.4776   19.5473 C   0  0  0  0  0  0  0  0  0  0  0  0
  -29.6477  -21.0964   22.0804 C   0  0  0  0  0  0  0  0  0  0  0  0
  -28.4295  -12.6717   19.0271 C   0  0  0  0  0  0  0  0  0  0  0  0
  -31.6086  -14.3736   18.9067 C   0  0  0  0  0  0  0  0  0  0  0  0
  -27.6259  -26.1133   20.7952 C   0  0  0  0  0  0  0  0  0  0  0  0
  -24.4343  -10.3544   23.8261 C   0  0  0  0  0  0  0  0  0  0  0  0
  -25.7650  -14.5632   17.3137 C   0  0  0  0  0  0  0  0  0  0  0  0
  -27.9260  -15.1338   19.2500 C   0  0  0  0  0  0  0  0  0  0  0  0
  -24.5293  -11.8766   23.8143 C   0  0  0  0  0  0  0  0  0  0  0  0
  -26.7727  -29.2489   19.3403 C   0  0  0  0  0  0  0  0  0  0  0  0
  -29.2297  -23.5984   24.7116 C   0  0  0  0  0  0  0  0  0  0  0  0
  -25.2389  -12.3433   22.5520 C   0  0  0  0  0  0  0  0  0  0  0  0
  -25.4903  -29.6536   20.0694 C   0  0  0  0  0  0  0  0  0  0  0  0
  -28.2454  -24.5930   24.1069 C   0  0  0  0  0  0  0  0  0  0  0  0
  -28.9923  -22.1862   24.1928 C   0  0  0  0  0  0  0  0  0  0  0  0
  -26.8358  -27.7416   19.1038 C   0  0  0  0  0  0  0  0  0  0  0  0
  -25.3730  -27.3215   21.0423 C   0  0  0  0  0  0  0  0  0  0  0  0
  -24.4398  -11.9557   21.3013 C   0  0  1  0  0  0  0  0  0  0  0  0
  -26.2202  -13.5277   18.3373 C   0  0  1  0  0  0  0  0  0  0  0  0
  -25.2900  -28.8258   21.3532 C   0  0  2  0  0  0  0  0  0  0  0  0
  -28.2868  -24.5204   22.5799 C   0  0  1  0  0  0  0  0  0  0  0  0
  -28.0544  -23.0898   22.0476 C   0  0  2  0  0  0  0  0  0  0  0  0
  -29.5952  -21.0826   20.5728 C   0  0  0  0  0  0  0  0  0  0  0  0
  -23.7266  -21.3629   21.7696 C   0  0  0  0  0  0  0  0  0  0  0  0
  -33.7184  -13.8040   17.6732 C   0  0  0  0  0  0  0  0  0  0  0  0
  -29.2352  -11.2949   21.6281 C   0  0  0  0  0  0  0  0  0  0  0  0
  -31.5713  -12.1155   21.2574 C   0  0  0  0  0  0  0  0  0  0  0  0
  -30.5231  -10.5576   19.6151 C   0  0  0  0  0  0  0  0  0  0  0  0
  -31.6843  -17.0181   17.5800 C   0  0  0  0  0  0  0  0  0  0  0  0
  -26.6012  -22.6101   22.1599 C   0  0  0  0  0  0  0  0  0  0  0  0
  -25.0420  -20.5984   21.7186 C   0  0  0  0  0  0  0  0  0  0  0  0
  -26.1173  -21.9352   19.7893 C   0  0  0  0  0  0  0  0  0  0  0  0
  -25.8700  -20.8402   18.7573 C   0  0  0  0  0  0  0  0  0  1  0  0
  -29.7397  -12.9592   19.7197 C   0  0  1  0  0  0  0  0  0  0  0  0
  -32.4494  -14.6421   17.6716 C   0  0  2  0  0  0  0  0  0  0  0  0
  -26.2583  -21.4187   21.2374 C   0  0  1  0  0  0  0  0  0  0  0  0
  -30.2456  -11.7501   20.5562 C   0  0  0  0  0  0  0  0  0  0  0  0
  -22.8833  -28.4951   21.7783 N   0  0  0  0  0  0  0  0  0  0  0  0
  -23.9977  -29.1917   22.0593 N   0  0  0  0  0  0  0  0  0  0  0  0
  -27.5821  -13.7690   18.8181 N   0  0  0  0  0  0  0  0  0  0  0  0
  -28.9591  -22.1290   22.7269 N   0  0  0  0  0  0  0  0  0  0  0  0
  -26.6402  -27.0147   20.3605 N   0  0  0  0  0  0  0  0  0  0  0  0
  -24.8284  -30.9740   23.3800 N   0  0  0  0  0  0  0  0  0  0  0  0
  -20.4606  -30.7855   24.5129 N   0  0  0  0  0  0  0  0  0  0  0  0
  -25.2397  -12.2267   20.1273 N   0  0  0  0  0  0  0  0  0  0  0  0
  -30.6647  -13.3946   18.6790 N   0  0  0  0  0  0  0  0  0  0  0  0
  -27.3648  -25.4711   21.9994 N   0  0  0  0  0  0  0  0  0  0  0  0
  -32.8360  -16.0801   17.6108 N   0  3  0  0  0  0  0  0  0  0  0  0
  -22.4332  -31.8959   24.8800 O   0  0  0  0  0  0  0  0  0  0  0  0
  -24.7699  -14.4987   19.9274 O   0  0  0  0  0  0  0  0  0  0  0  0
  -30.2890  -20.2194   22.6656 O   0  0  0  0  0  0  0  0  0  0  0  0
  -28.1707  -11.5173   18.6777 O   0  0  0  0  0  0  0  0  0  0  0  0
  -31.7750  -14.9699   19.9684 O   0  0  0  0  0  0  0  0  0  0  0  0
  -28.6644  -25.9010   20.1601 O   0  0  0  0  0  0  0  0  0  0  0  0
  -16.6858  -27.2198   22.4970 O   0  0  0  0  0  0  0  0  0  0  0  0
  -26.9474  -19.9049   18.7835 O   0  0  0  0  0  0  0  0  0  1  0  0
  -13.3618  -28.8018   26.6022 F   0  0  0  0  0  0  0  0  0  0  0  0
  -16.1554  -29.8964   22.9411 F   0  0  0  0  0  0  0  0  0  0  0  0
  1  2  1  0  0  0  0
  1  5  2  0  0  0  0
  2  6  2  0  0  0  0
  3  8  2  0  0  0  0
  3 15  1  0  0  0  0
  4  9  1  0  0  0  0
  4 15  2  0  0  0  0
  5 17  1  0  0  0  0
  6 19  1  0  0  0  0
  7 10  2  0  0  0  0
  7 18  1  0  0  0  0
  8 21  1  0  0  0  0
  9 21  2  0  0  0  0
 10 22  1  0  0  0  0
 11 12  2  0  0  0  0
 11 23  1  0  0  0  0
 12 24  1  0  0  0  0
 13 20  1  0  0  0  0
 13 22  2  0  0  0  0
 14 24  2  0  0  0  0
 14 25  1  0  0  0  0
 15 26  1  0  0  0  0
 16 26  1  0  0  0  0
 16 27  2  0  0  0  0
 16 28  1  0  0  0  0
 17 19  2  0  0  0  0
 17 34  1  0  0  0  0
 18 20  2  0  0  0  0
 18 35  1  0  0  0  0
 19 46  1  0  0  0  0
 20 36  1  0  0  0  0
 21 83  1  0  0  0  0
 22 84  1  0  0  0  0
 23 25  2  0  0  0  0
 23 83  1  0  0  0  0
 24 85  1  0  0  0  0
 25 86  1  0  0  0  0
 26 66  2  0  0  0  0
 27 67  1  0  0  0  0
 27 71  1  0  0  0  0
 28 72  1  0  0  0  0
 28 77  2  0  0  0  0
 29 47  1  0  0  0  0
 29 73  1  0  0  0  0
 29 78  2  0  0  0  0
 30 51  1  0  0  0  0
 30 69  1  0  0  0  0
 30 79  2  0  0  0  0
 31 62  1  0  0  0  0
 31 68  1  0  0  0  0
 31 80  2  0  0  0  0
 32 63  1  0  0  0  0
 32 74  1  0  0  0  0
 32 81  2  0  0  0  0
 33 70  1  0  0  0  0
 33 75  1  0  0  0  0
 33 82  2  0  0  0  0
 34 37  1  0  0  0  0
 35 47  1  0  0  0  0
 36 68  1  0  0  0  0
 37 40  1  0  0  0  0
 38 41  1  0  0  0  0
 38 44  1  0  0  0  0
 39 42  1  0  0  0  0
 39 43  1  0  0  0  0
 40 46  1  0  0  0  0
 41 48  1  0  0  0  0
 42 49  1  0  0  0  0
 43 69  1  0  0  0  0
 44 70  1  0  0  0  0
 45 48  1  0  0  0  0
 45 70  1  0  0  0  0
 46 73  1  0  0  0  0
 47 68  1  0  0  0  0
 48 67  1  0  0  0  0
 49 50  1  0  0  0  0
 49 75  1  0  0  0  0
 50 58  1  0  0  0  0
 50 69  1  0  0  0  0
 52 59  1  0  0  0  0
 53 63  1  0  0  0  0
 54 65  1  0  0  0  0
 55 65  1  0  0  0  0
 56 65  1  0  0  0  0
 57 76  1  0  0  0  0
 58 64  1  0  0  0  0
 59 64  1  0  0  0  0
 60 61  1  0  0  0  0
 60 64  1  0  0  0  0
 61 84  1  0  0  0  0
 62 65  1  0  0  0  0
 62 74  1  0  0  0  0
 63 76  1  0  0  0  0
 66 67  1  0  0  0  0
M  CHG  1  76   1
M  ISO  4  33 100  61 101  75 100  84 101
M  END
> <Batch ID>
0107

> <Smiles>
CCC(CC1C([100NH:0][100C:0](=O)N2CCCC(n3nc(-c4ccc(Oc5ccc(F)cc5F)cc4)c(C(N)=O)c3N)C2)CCCN1C(C)=O)C[101CH2:1][101O:1]c1ccc2c(c1)CN(C(=O)C(NC(=O)C(C)NC)C(C)(C)C)C(C(=O)NC1CCCc3ccccc31)C2

> <Shape>
0.246

> <Color>
0.088

> <Negative vol penalty>
0.000

$$$$

  -OEChem-04052319513D

 86 94  0     1  0  0  0  0  0999 V2000
  -33.2195  -28.8021   19.6091 C   0  0  0  0  0  0  0  0  0  0  0  0
  -32.2227  -27.8708   19.3359 C   0  0  0  0  0  0  0  0  0  0  0  0
  -22.7678  -10.2830   20.7905 C   0  0  0  0  0  0  0  0  0  0  0  0
  -24.5197   -9.1019   21.9623 C   0  0  0  0  0  0  0  0  0  0  0  0
  -33.1028  -29.6419   20.7159 C   0  0  0  0  0  0  0  0  0  0  0  0
  -31.1092  -27.7780   20.1700 C   0  0  0  0  0  0  0  0  0  0  0  0
  -26.7686  -27.4313   17.5846 C   0  0  0  0  0  0  0  0  0  0  0  0
  -22.0226   -9.1061   20.7184 C   0  0  0  0  0  0  0  0  0  0  0  0
  -23.7744   -7.9250   21.8902 C   0  0  0  0  0  0  0  0  0  0  0  0
  -26.4519  -26.1895   17.0358 C   0  0  0  0  0  0  0  0  0  0  0  0
  -21.1474   -6.5396   23.5026 C   0  0  0  0  0  0  0  0  0  0  0  0
  -21.0552   -5.7610   24.6562 C   0  0  0  0  0  0  0  0  0  0  0  0
  -24.9574  -25.7620   18.8805 C   0  0  0  0  0  0  0  0  0  0  0  0
  -22.0830   -3.9115   23.4901 C   0  0  0  0  0  0  0  0  0  0  0  0
  -24.0164  -10.2809   21.4124 C   0  0  0  0  0  0  0  0  0  0  0  0
  -24.7541  -12.4623   22.5100 C   0  0  0  0  0  0  0  0  0  0  0  0
  -31.9826  -29.5660   21.5586 C   0  0  0  0  0  0  0  0  0  0  0  0
  -26.1894  -27.8440   18.7932 C   0  0  0  0  0  0  0  0  0  0  0  0
  -30.9780  -28.6167   21.2899 C   0  0  0  0  0  0  0  0  0  0  0  0
  -25.2665  -27.0107   19.4413 C   0  0  0  0  0  0  0  0  0  0  0  0
  -22.5258   -7.9271   21.2683 C   0  0  0  0  0  0  0  0  0  0  0  0
  -25.5484  -25.3534   17.6851 C   0  0  0  0  0  0  0  0  0  0  0  0
  -21.7073   -6.0041   22.3426 C   0  0  0  0  0  0  0  0  0  0  0  0
  -21.5230   -4.4470   24.6500 C   0  0  0  0  0  0  0  0  0  0  0  0
  -22.1751   -4.6901   22.3364 C   0  0  0  0  0  0  0  0  0  0  0  0
  -24.7869  -11.4961   21.4867 C   0  0  0  0  0  0  0  0  0  0  0  0
  -25.6619  -13.4136   22.1133 C   0  0  0  0  0  0  0  0  0  0  0  0
  -27.9383  -19.6616   19.4829 C   0  0  0  0  0  0  0  0  0  0  0  0
  -27.8215  -20.9336   19.0459 C   0  0  0  0  0  0  0  0  0  0  0  0
  -26.4852  -19.6340   17.7051 C   0  0  0  0  0  0  0  0  0  0  0  0
  -23.9729  -12.4967   23.7118 C   0  0  0  0  0  0  0  0  0  0  0  0
  -27.3034  -28.5871   21.6760 C   0  0  0  0  0  0  0  0  0  0  0  0
  -24.2143  -29.4071   22.2302 C   0  0  0  0  0  0  0  0  0  0  0  0
  -20.9234  -29.0234   21.4120 C   0  0  0  0  0  0  0  0  0  0  0  0
  -27.8119  -16.6794   18.0708 C   0  0  0  0  0  0  0  0  0  0  0  0
  -31.9234  -30.4625   22.7700 C   0  0  0  0  0  0  0  0  0  0  0  0
  -26.5212  -29.1978   19.3584 C   0  0  0  0  0  0  0  0  0  0  0  0
  -24.6016  -27.4155   20.7306 C   0  0  0  0  0  0  0  0  0  0  0  0
  -30.5319  -30.5564   23.3908 C   0  0  0  0  0  0  0  0  0  0  0  0
  -29.1048  -13.3512   18.4228 C   0  0  0  0  0  0  0  0  0  0  0  0
  -29.9138  -29.1686   23.5279 C   0  0  0  0  0  0  0  0  0  0  0  0
  -28.0809  -12.6441   19.3082 C   0  0  0  0  0  0  0  0  0  0  0  0
  -28.4342  -14.3540   17.4896 C   0  0  0  0  0  0  0  0  0  0  0  0
  -26.5695  -14.6698   19.0813 C   0  0  0  0  0  0  0  0  0  0  0  0
  -29.7431  -28.5027   22.1572 C   0  0  1  0  0  0  0  0  0  0  0  0
  -26.2627  -29.2987   20.8585 C   0  0  1  0  0  0  0  0  0  0  0  0
  -27.2055  -13.6627   20.0579 C   0  0  1  0  0  0  0  0  0  0  0  0
  -28.7399  -19.0953   20.5979 C   0  0  0  0  0  0  0  0  0  0  0  0
  -18.6276  -29.7968   22.0667 C   0  0  0  0  0  0  0  0  0  0  0  0
  -24.2328  -22.2436   18.2503 C   0  0  0  0  0  0  0  0  0  0  0  0
  -24.2993  -27.5822   24.6742 C   0  0  0  0  0  0  0  0  0  0  0  0
  -21.7968  -27.6442   24.7208 C   0  0  0  0  0  0  0  0  0  0  0  0
  -23.1007  -29.7481   25.0306 C   0  0  0  0  0  0  0  0  0  0  0  0
  -20.4326  -30.2023   18.7420 C   0  0  0  0  0  0  0  0  0  0  0  0
  -28.4665  -22.1738   19.5514 C   0  0  0  0  0  0  0  0  0  0  0  0
  -27.8153  -22.6754   20.8427 C   0  0  0  0  0  0  0  0  0  0  0  0
  -28.5110  -23.9321   21.3690 C   0  0  0  0  0  0  0  0  0  0  0  0
  -26.5594  -22.1324   17.2191 C   0  0  0  0  0  0  0  0  0  0  0  0
  -27.8344  -24.4425   22.6325 C   0  0  0  0  0  0  0  0  0  0  0  0
  -22.9911  -28.6838   22.7399 C   0  0  1  0  0  0  0  0  0  0  0  0
  -19.8234  -30.0386   21.1588 C   0  0  2  0  0  0  0  0  0  0  0  0
  -25.5251  -22.9896   17.9452 C   0  0  1  0  0  0  0  0  0  1  0  0
  -23.0608  -28.4058   24.2681 C   0  0  0  0  0  0  0  0  0  0  0  0
  -25.6473  -11.8054   20.5130 N   0  0  0  0  0  0  0  0  0  0  0  0
  -26.1635  -12.9766   20.9227 N   0  0  0  0  0  0  0  0  0  0  0  0
  -26.9447  -20.9622   17.9625 N   0  0  0  0  0  0  0  0  0  0  0  0
  -27.1436  -18.8667   18.6906 N   0  0  0  0  0  0  0  0  0  0  0  0
  -24.9634  -28.7460   21.2466 N   0  0  0  0  0  0  0  0  0  0  0  0
  -27.5984  -15.2991   18.2364 N   0  0  0  0  0  0  0  0  0  0  0  0
  -26.0720  -14.5729   22.6703 N   0  0  0  0  0  0  0  0  0  0  0  0
  -23.0893  -11.4387   23.9649 N   0  0  0  0  0  0  0  0  0  0  0  0
  -28.5905  -29.0464   21.4713 N   0  0  0  0  0  0  0  0  0  0  0  0
  -21.8428  -29.4849   22.3301 N   0  0  0  0  0  0  0  0  0  0  0  0
  -26.9848  -17.5102   18.8086 N   0  0  0  0  0  0  0  0  0  0  0  0
  -27.8537  -23.3735   23.6597 N   0  3  0  0  0  0  0  0  0  0  0  0
  -19.3624  -29.9608   19.7438 N   0  3  0  0  0  0  0  0  0  0  0  0
  -25.7098  -19.2564   16.8401 O   0  0  0  0  0  0  0  0  0  0  0  0
  -24.0439  -13.4460   24.5287 O   0  0  0  0  0  0  0  0  0  0  0  0
  -26.9636  -27.6890   22.4373 O   0  0  0  0  0  0  0  0  0  0  0  0
  -24.4907  -30.5208   22.6829 O   0  0  0  0  0  0  0  0  0  0  0  0
  -20.9610  -27.9290   20.8541 O   0  0  0  0  0  0  0  0  0  0  0  0
  -28.6806  -17.1327   17.3168 O   0  0  0  0  0  0  0  0  0  0  0  0
  -21.7988   -6.7786   21.1983 O   0  0  0  0  0  0  0  0  0  0  0  0
  -25.2380  -24.1405   17.1519 O   0  0  0  0  0  0  0  0  0  1  0  0
  -21.4358   -3.6999   25.7584 F   0  0  0  0  0  0  0  0  0  0  0  0
  -22.7152   -4.1705   21.2254 F   0  0  0  0  0  0  0  0  0  0  0  0
  1  2  1  0  0  0  0
  1  5  2  0  0  0  0
  2  6  2  0  0  0  0
  3  8  2  0  0  0  0
  3 15  1  0  0  0  0
  4  9  1  0  0  0  0
  4 15  2  0  0  0  0
  5 17  1  0  0  0  0
  6 19  1  0  0  0  0
  7 10  2  0  0  0  0
  7 18  1  0  0  0  0
  8 21  1  0  0  0  0
  9 21  2  0  0  0  0
 10 22  1  0  0  0  0
 11 12  2  0  0  0  0
 11 23  1  0  0  0  0
 12 24  1  0  0  0  0
 13 20  1  0  0  0  0
 13 22  2  0  0  0  0
 14 24  2  0  0  0  0
 14 25  1  0  0  0  0
 15 26  1  0  0  0  0
 16 26  1  0  0  0  0
 16 27  2  0  0  0  0
 16 31  1  0  0  0  0
 17 19  2  0  0  0  0
 17 36  1  0  0  0  0
 18 20  2  0  0  0  0
 18 37  1  0  0  0  0
 19 45  1  0  0  0  0
 20 38  1  0  0  0  0
 21 83  1  0  0  0  0
 22 84  1  0  0  0  0
 23 25  2  0  0  0  0
 23 83  1  0  0  0  0
 24 85  1  0  0  0  0
 25 86  1  0  0  0  0
 26 64  2  0  0  0  0
 27 65  1  0  0  0  0
 27 70  1  0  0  0  0
 28 29  2  0  0  0  0
 28 48  1  0  0  0  0
 28 67  1  0  0  0  0
 29 55  1  0  0  0  0
 29 66  1  0  0  0  0
 30 66  1  0  0  0  0
 30 67  1  0  0  0  0
 30 77  2  0  0  0  0
 31 71  1  0  0  0  0
 31 78  2  0  0  0  0
 32 46  1  0  0  0  0
 32 72  1  0  0  0  0
 32 79  2  0  0  0  0
 33 60  1  0  0  0  0
 33 68  1  0  0  0  0
 33 80  2  0  0  0  0
 34 61  1  0  0  0  0
 34 73  1  0  0  0  0
 34 81  2  0  0  0  0
 35 69  1  0  0  0  0
 35 74  1  0  0  0  0
 35 82  2  0  0  0  0
 36 39  1  0  0  0  0
 37 46  1  0  0  0  0
 38 68  1  0  0  0  0
 39 41  1  0  0  0  0
 40 42  1  0  0  0  0
 40 43  1  0  0  0  0
 41 45  1  0  0  0  0
 42 47  1  0  0  0  0
 43 69  1  0  0  0  0
 44 47  1  0  0  0  0
 44 69  1  0  0  0  0
 45 72  1  0  0  0  0
 46 68  1  0  0  0  0
 47 65  1  0  0  0  0
 49 61  1  0  0  0  0
 50 62  1  0  0  0  0
 51 63  1  0  0  0  0
 52 63  1  0  0  0  0
 53 63  1  0  0  0  0
 54 76  1  0  0  0  0
 55 56  1  0  0  0  0
 56 57  1  0  0  0  0
 57 59  1  0  0  0  0
 58 62  1  0  0  0  0
 58 66  1  0  0  0  0
 59 75  1  0  0  0  0
 60 63  1  0  0  0  0
 60 73  1  0  0  0  0
 61 76  1  0  0  0  0
 62 84  1  0  0  0  0
 64 65  1  0  0  0  0
 67 74  1  0  0  0  0
M  CHG  2  75   1  76   1
M  ISO  4  35 100  62 101  74 100  84 101
M  END
> <Batch ID>
0107

> <Smiles>
CNC(C)C(=O)NC(C(=O)N1Cc2cc([101O:1][101CH:1](C)Cn3c(CCCCN)c(C)n([100NH:0][100C:0](=O)N4CCCC(n5nc(-c6ccc(Oc7ccc(F)cc7F)cc6)c(C(N)=O)c5N)C4)c3=O)ccc2CC1C(=O)NC1CCCc2ccccc21)C(C)(C)C

> <Shape>
0.257

> <Color>
0.114

> <Negative vol penalty>
0.000

$$$$

  -OEChem-04052319513D

 85 94  0     1  0  0  0  0  0999 V2000
  -16.6318  -25.8811   24.3848 C   0  0  0  0  0  0  0  0  0  0  0  0
  -17.8631  -25.5048   23.8578 C   0  0  0  0  0  0  0  0  0  0  0  0
  -24.3699  -10.3087   22.7653 C   0  0  0  0  0  0  0  0  0  0  0  0
  -24.4904  -11.9325   24.5502 C   0  0  0  0  0  0  0  0  0  0  0  0
  -16.2383  -27.2182   24.3480 C   0  0  0  0  0  0  0  0  0  0  0  0
  -18.7012  -26.4653   23.2926 C   0  0  0  0  0  0  0  0  0  0  0  0
  -23.5199  -25.9445   24.7602 C   0  0  0  0  0  0  0  0  0  0  0  0
  -23.9211   -9.3470   23.6705 C   0  0  0  0  0  0  0  0  0  0  0  0
  -24.0416  -10.9708   25.4554 C   0  0  0  0  0  0  0  0  0  0  0  0
  -24.2677  -24.9409   24.1458 C   0  0  0  0  0  0  0  0  0  0  0  0
  -21.0219   -8.5364   25.2102 C   0  0  0  0  0  0  0  0  0  0  0  0
  -19.9427   -7.7398   24.8277 C   0  0  0  0  0  0  0  0  0  0  0  0
  -26.2854  -21.6736   20.9138 C   0  0  0  0  0  0  0  0  0  0  0  0
  -25.2740  -26.5861   22.6968 C   0  0  0  0  0  0  0  0  0  0  0  0
  -27.7559  -21.5358   22.8245 C   0  0  0  0  0  0  0  0  0  0  0  0
  -21.3163   -5.7661   25.0622 C   0  0  0  0  0  0  0  0  0  0  0  0
  -24.6546  -11.6015   23.2052 C   0  0  0  0  0  0  0  0  0  0  0  0
  -24.3319  -13.4847   21.5150 C   0  0  0  0  0  0  0  0  0  0  0  0
  -17.0762  -28.1970   23.7908 C   0  0  0  0  0  0  0  0  0  0  0  0
  -23.6357  -27.2772   24.3394 C   0  0  0  0  0  0  0  0  0  0  0  0
  -18.3180  -27.8165   23.2470 C   0  0  0  0  0  0  0  0  0  0  0  0
  -27.1230  -20.8113   20.1949 C   0  0  0  0  0  0  0  0  0  0  0  0
  -24.5285  -27.6051   23.3091 C   0  0  0  0  0  0  0  0  0  0  0  0
  -28.2961  -20.3207   20.7950 C   0  0  0  0  0  0  0  0  0  0  0  0
  -26.5999  -22.0307   22.2248 C   0  0  0  0  0  0  0  0  0  0  0  0
  -28.6012  -20.6838   22.1142 C   0  0  0  0  0  0  0  0  0  0  0  0
  -23.7569   -9.6781   25.0155 C   0  0  0  0  0  0  0  0  0  0  0  0
  -25.1427  -25.2612   23.1120 C   0  0  0  0  0  0  0  0  0  0  0  0
  -22.2484   -7.9478   25.5186 C   0  0  0  0  0  0  0  0  0  0  0  0
  -20.0899   -6.3547   24.7537 C   0  0  0  0  0  0  0  0  0  0  0  0
  -22.3956   -6.5627   25.4447 C   0  0  0  0  0  0  0  0  0  0  0  0
  -25.1189  -12.5952   22.2708 C   0  0  0  0  0  0  0  0  0  0  0  0
  -25.2407  -14.2158   20.7897 C   0  0  0  0  0  0  0  0  0  0  0  0
  -22.9068  -13.6366   21.4724 C   0  0  0  0  0  0  0  0  0  0  0  0
  -21.6461  -29.4130   23.0808 C   0  0  0  0  0  0  0  0  0  0  0  0
  -24.1744  -31.4106   23.4549 C   0  0  0  0  0  0  0  0  0  0  0  0
  -27.5533  -31.7821   23.7577 C   0  0  0  0  0  0  0  0  0  0  0  0
  -30.0206  -17.0758   20.4456 C   0  0  0  0  0  0  0  0  0  0  0  0
  -16.5874  -29.6225   23.7310 C   0  0  0  0  0  0  0  0  0  0  0  0
  -22.8419  -28.3519   25.0303 C   0  0  0  0  0  0  0  0  0  0  0  0
  -24.7045  -29.0234   22.8339 C   0  0  0  0  0  0  0  0  0  0  0  0
  -26.7956  -20.4643   18.7655 C   0  0  0  0  0  0  0  0  0  0  0  0
  -17.6952  -30.6352   23.4523 C   0  0  0  0  0  0  0  0  0  0  0  0
  -30.2045  -13.5378   20.0914 C   0  0  0  0  0  0  0  0  0  0  0  0
  -18.5770  -30.1588   22.3023 C   0  0  0  0  0  0  0  0  0  0  0  0
  -28.8358  -13.0507   20.5702 C   0  0  0  0  0  0  0  0  0  0  0  0
  -30.6927  -14.7358   20.9029 C   0  0  0  0  0  0  0  0  0  0  0  0
  -28.3770  -15.3773   21.4506 C   0  0  0  0  0  0  0  0  0  0  0  0
  -28.9299  -19.4729   18.5279 C   0  0  0  0  0  0  0  0  0  0  0  0
  -19.2656  -28.8329   22.6479 C   0  0  1  0  0  0  0  0  0  0  0  0
  -29.1952  -19.3794   20.0314 C   0  0  2  0  0  0  0  0  0  0  0  0
  -22.6580  -29.6020   24.1754 C   0  0  1  0  0  0  0  0  0  0  0  0
  -27.8176  -14.2054   20.6259 C   0  0  2  0  0  0  0  0  0  0  0  0
  -29.4988  -19.3293   24.0412 C   0  0  0  0  0  0  0  0  0  0  0  0
  -30.7903  -21.3199   23.1900 C   0  0  0  0  0  0  0  0  0  0  0  0
  -29.3270  -33.5391   24.0111 C   0  0  0  0  0  0  0  0  0  0  0  0
  -23.8942  -32.1162   20.4997 C   0  0  0  0  0  0  0  0  0  0  0  0
  -26.1980  -33.0924   20.5860 C   0  0  0  0  0  0  0  0  0  0  0  0
  -24.3815  -34.0608   21.9948 C   0  0  0  0  0  0  0  0  0  0  0  0
  -28.4312  -30.6853   26.3626 C   0  0  0  0  0  0  0  0  0  0  0  0
  -25.6937  -22.9510   22.9884 C   0  0  0  0  0  0  0  0  0  1  0  0
  -29.8297  -20.1815   22.8033 C   0  0  0  0  0  0  0  0  0  0  0  0
  -25.3566  -31.8095   22.6051 C   0  0  1  0  0  0  0  0  0  0  0  0
  -28.3951  -32.5808   24.7364 C   0  0  2  0  0  0  0  0  0  0  0  0
  -24.9531  -32.7426   21.4288 C   0  0  0  0  0  0  0  0  0  0  0  0
  -26.4269  -12.7456   22.0463 N   0  0  0  0  0  0  0  0  0  0  0  0
  -26.4689  -13.7381   21.1412 N   0  0  0  0  0  0  0  0  0  0  0  0
  -23.9016  -30.0378   23.5367 N   0  0  0  0  0  0  0  0  0  0  0  0
  -29.6818  -15.7959   20.9148 N   0  0  0  0  0  0  0  0  0  0  0  0
  -25.1011  -15.2141   19.8918 N   0  0  0  0  0  0  0  0  0  0  0  0
  -22.1217  -12.8042   22.2817 N   0  0  0  0  0  0  0  0  0  0  0  0
  -20.3882  -29.0619   23.5321 N   0  0  0  0  0  0  0  0  0  0  0  0
  -26.3381  -32.3875   23.5168 N   0  0  0  0  0  0  0  0  0  0  0  0
  -29.0021  -18.0203   20.4856 N   0  0  0  0  0  0  0  0  0  0  0  0
  -29.2209  -31.6669   25.5754 N   0  3  0  0  0  0  0  0  0  0  0  0
  -22.3455  -14.4742   20.7262 O   0  0  0  0  0  0  0  0  0  0  0  0
  -21.9815  -29.5752   21.9134 O   0  0  0  0  0  0  0  0  0  0  0  0
  -23.5214  -32.2844   24.0309 O   0  0  0  0  0  0  0  0  0  0  0  0
  -27.9369  -30.7286   23.2543 O   0  0  0  0  0  0  0  0  0  0  0  0
  -31.1456  -17.3547   20.0174 O   0  0  0  0  0  0  0  0  0  0  0  0
  -27.5305  -19.3378   18.2776 O   0  0  0  0  0  0  0  0  0  0  0  0
  -23.3187   -8.7400   25.8990 O   0  0  0  0  0  0  0  0  0  0  0  0
  -25.8733  -24.2835   22.5103 O   0  0  0  0  0  0  0  0  0  1  0  0
  -19.0530   -5.5898   24.3878 F   0  0  0  0  0  0  0  0  0  0  0  0
  -23.5711   -5.9915   25.7409 F   0  0  0  0  0  0  0  0  0  0  0  0
  1  2  1  0  0  0  0
  1  5  2  0  0  0  0
  2  6  2  0  0  0  0
  3  8  2  0  0  0  0
  3 17  1  0  0  0  0
  4  9  1  0  0  0  0
  4 17  2  0  0  0  0
  5 19  1  0  0  0  0
  6 21  1  0  0  0  0
  7 10  2  0  0  0  0
  7 20  1  0  0  0  0
  8 27  1  0  0  0  0
  9 27  2  0  0  0  0
 10 28  1  0  0  0  0
 11 12  2  0  0  0  0
 11 29  1  0  0  0  0
 12 30  1  0  0  0  0
 13 22  2  0  0  0  0
 13 25  1  0  0  0  0
 14 23  1  0  0  0  0
 14 28  2  0  0  0  0
 15 25  2  0  0  0  0
 15 26  1  0  0  0  0
 16 30  2  0  0  0  0
 16 31  1  0  0  0  0
 17 32  1  0  0  0  0
 18 32  1  0  0  0  0
 18 33  2  0  0  0  0
 18 34  1  0  0  0  0
 19 21  2  0  0  0  0
 19 39  1  0  0  0  0
 20 23  2  0  0  0  0
 20 40  1  0  0  0  0
 21 50  1  0  0  0  0
 22 24  1  0  0  0  0
 22 42  1  0  0  0  0
 23 41  1  0  0  0  0
 24 26  2  0  0  0  0
 24 51  1  0  0  0  0
 25 61  1  0  0  0  0
 26 62  1  0  0  0  0
 27 82  1  0  0  0  0
 28 83  1  0  0  0  0
 29 31  2  0  0  0  0
 29 82  1  0  0  0  0
 30 84  1  0  0  0  0
 31 85  1  0  0  0  0
 32 66  2  0  0  0  0
 33 67  1  0  0  0  0
 33 70  1  0  0  0  0
 34 71  1  0  0  0  0
 34 76  2  0  0  0  0
 35 52  1  0  0  0  0
 35 72  1  0  0  0  0
 35 77  2  0  0  0  0
 36 63  1  0  0  0  0
 36 68  1  0  0  0  0
 36 78  2  0  0  0  0
 37 64  1  0  0  0  0
 37 73  1  0  0  0  0
 37 79  2  0  0  0  0
 38 69  1  0  0  0  0
 38 74  1  0  0  0  0
 38 80  2  0  0  0  0
 39 43  1  0  0  0  0
 40 52  1  0  0  0  0
 41 68  1  0  0  0  0
 42 81  1  0  0  0  0
 43 45  1  0  0  0  0
 44 46  1  0  0  0  0
 44 47  1  0  0  0  0
 45 50  1  0  0  0  0
 46 53  1  0  0  0  0
 47 69  1  0  0  0  0
 48 53  1  0  0  0  0
 48 69  1  0  0  0  0
 49 51  1  0  0  0  0
 49 81  1  0  0  0  0
 50 72  1  0  0  0  0
 51 74  1  0  0  0  0
 52 68  1  0  0  0  0
 53 67  1  0  0  0  0
 54 62  1  0  0  0  0
 55 62  1  0  0  0  0
 56 64  1  0  0  0  0
 57 65  1  0  0  0  0
 58 65  1  0  0  0  0
 59 65  1  0  0  0  0
 60 75  1  0  0  0  0
 61 83  1  0  0  0  0
 63 65  1  0  0  0  0
 63 73  1  0  0  0  0
 64 75  1  0  0  0  0
 66 67  1  0  0  0  0
M  CHG  1  75   1
M  ISO  4  38 100  61 101  74 100  83 101
M  END
> <Batch ID>
0107

> <Smiles>
CNC(C)C(=O)NC(C(=O)N1Cc2cc([101O:1][101CH2:1]c3cc4c(c(C(C)C)c3)C([100NH:0][100C:0](=O)N3CCCC(n5nc(-c6ccc(Oc7ccc(F)cc7F)cc6)c(C(N)=O)c5N)C3)COC4)ccc2CC1C(=O)NC1CCCc2ccccc21)C(C)(C)C

> <Shape>
0.263

> <Color>
0.118

> <Negative vol penalty>
0.000

$$$$

  -OEChem-04052319513D

 90 98  0     1  0  0  0  0  0999 V2000
  -21.6050  -19.7804   22.6791 C   0  0  0  0  0  0  0  0  0  0  0  0
  -22.7847  -20.4898   22.4781 C   0  0  0  0  0  0  0  0  0  0  0  0
  -24.4409  -13.9389   20.5778 C   0  0  0  0  0  0  0  0  0  0  0  0
  -26.8058  -13.5209   20.8412 C   0  0  0  0  0  0  0  0  0  0  0  0
  -20.3750  -20.3980   22.4562 C   0  0  0  0  0  0  0  0  0  0  0  0
  -22.7352  -21.8169   22.0530 C   0  0  0  0  0  0  0  0  0  0  0  0
  -26.5768  -26.3262   23.6068 C   0  0  0  0  0  0  0  0  0  0  0  0
  -32.9278  -23.5581   22.3011 C   0  0  0  0  0  0  0  0  0  0  0  0
  -24.2297  -12.5839   20.3231 C   0  0  0  0  0  0  0  0  0  0  0  0
  -26.5947  -12.1658   20.5866 C   0  0  0  0  0  0  0  0  0  0  0  0
  -27.6802  -26.8824   22.9613 C   0  0  0  0  0  0  0  0  0  0  0  0
  -32.1111  -22.7897   23.1306 C   0  0  0  0  0  0  0  0  0  0  0  0
  -23.0178   -9.1759   19.9598 C   0  0  0  0  0  0  0  0  0  0  0  0
  -21.9439   -8.5557   20.5982 C   0  0  0  0  0  0  0  0  0  0  0  0
  -26.2737  -28.6314   22.0771 C   0  0  0  0  0  0  0  0  0  0  0  0
  -31.4962  -23.0512   20.4221 C   0  0  0  0  0  0  0  0  0  0  0  0
  -22.9055   -9.1018   22.7463 C   0  0  0  0  0  0  0  0  0  0  0  0
  -25.7290  -14.4075   20.8368 C   0  0  0  0  0  0  0  0  0  0  0  0
  -25.9225  -16.4515   22.3508 C   0  0  0  0  0  0  0  0  0  0  0  0
  -20.3101  -21.7363   22.0375 C   0  0  0  0  0  0  0  0  0  0  0  0
  -25.3093  -26.9132   23.4833 C   0  0  0  0  0  0  0  0  0  0  0  0
  -21.5032  -22.4526   21.8231 C   0  0  0  0  0  0  0  0  0  0  0  0
  -25.1562  -28.0821   22.7242 C   0  0  0  0  0  0  0  0  0  0  0  0
  -32.6203  -23.6890   20.9468 C   0  0  0  0  0  0  0  0  0  0  0  0
  -30.6796  -22.2827   21.2516 C   0  0  0  0  0  0  0  0  0  0  0  0
  -25.3066  -11.6973   20.3275 C   0  0  0  0  0  0  0  0  0  0  0  0
  -27.5283  -28.0336   22.1939 C   0  0  0  0  0  0  0  0  0  0  0  0
  -30.9870  -22.1520   22.6059 C   0  0  0  0  0  0  0  0  0  0  0  0
  -24.0357   -9.7590   20.7146 C   0  0  0  0  0  0  0  0  0  0  0  0
  -21.8877   -8.5187   21.9914 C   0  0  0  0  0  0  0  0  0  0  0  0
  -23.9795   -9.7219   22.1078 C   0  0  0  0  0  0  0  0  0  0  0  0
  -25.9478  -15.8072   21.0994 C   0  0  0  0  0  0  0  0  0  0  0  0
  -26.1880  -17.7683   22.0645 C   0  0  0  0  0  0  0  0  0  0  0  0
  -25.6807  -15.9082   23.6554 C   0  0  0  0  0  0  0  0  0  0  0  0
  -22.5072  -25.9747   22.3122 C   0  0  0  0  0  0  0  0  0  0  0  0
  -21.4889  -28.7997   23.5389 C   0  0  0  0  0  0  0  0  0  0  0  0
  -22.2604  -31.9695   24.5410 C   0  0  0  0  0  0  0  0  0  0  0  0
  -29.1069  -21.6764   19.3793 C   0  0  0  0  0  0  0  0  0  0  0  0
  -18.9583  -22.3467   21.7640 C   0  0  0  0  0  0  0  0  0  0  0  0
  -24.1341  -26.3160   24.2077 C   0  0  0  0  0  0  0  0  0  0  0  0
  -23.8207  -28.7624   22.5763 C   0  0  0  0  0  0  0  0  0  0  0  0
  -18.9847  -23.8704   21.6753 C   0  0  0  0  0  0  0  0  0  0  0  0
  -26.3792  -20.2012   17.6298 C   0  0  0  0  0  0  0  0  0  0  0  0
  -20.1422  -24.3340   20.7967 C   0  0  0  0  0  0  0  0  0  0  0  0
  -26.0217  -18.9796   18.4795 C   0  0  0  0  0  0  0  0  0  0  0  0
  -27.8864  -20.4479   17.5971 C   0  0  0  0  0  0  0  0  0  0  0  0
  -28.1730  -19.3109   19.7637 C   0  0  0  0  0  0  0  0  0  0  0  0
  -21.4901  -23.9014   21.3862 C   0  0  1  0  0  0  0  0  0  0  0  0
  -22.7930  -26.7055   23.5937 C   0  0  1  0  0  0  0  0  0  0  0  0
  -26.6605  -19.0606   19.8798 C   0  0  2  0  0  0  0  0  0  0  0  0
  -26.2575  -21.3983   26.3672 C   0  0  0  0  0  0  0  0  0  0  0  0
  -21.2111  -34.0546   25.4621 C   0  0  0  0  0  0  0  0  0  0  0  0
  -34.9591  -23.9485   20.0385 C   0  0  0  0  0  0  0  0  0  0  0  0
  -33.0742  -24.5431   18.5473 C   0  0  0  0  0  0  0  0  0  0  0  0
  -20.3609  -29.4484   20.7791 C   0  0  0  0  0  0  0  0  0  0  0  0
  -20.1931  -31.8439   21.4875 C   0  0  0  0  0  0  0  0  0  0  0  0
  -18.8815  -30.0949   22.6890 C   0  0  0  0  0  0  0  0  0  0  0  0
  -23.9025  -31.8485   27.0002 C   0  0  0  0  0  0  0  0  0  0  0  0
  -27.5864  -22.0666   26.0532 C   0  0  0  0  0  0  0  0  0  0  0  0
  -28.2923  -21.3858   24.8840 C   0  0  0  0  0  0  0  0  0  0  0  0
  -30.9227  -28.6911   20.9605 C   0  0  0  0  0  0  0  0  0  0  0  0
  -32.3092  -28.0707   21.0443 C   0  0  0  0  0  0  0  0  0  0  0  0
  -33.6191  -26.0080   20.5268 C   0  0  0  0  0  0  0  0  0  0  0  0
  -29.6029  -22.0784   24.5384 C   0  0  0  0  0  0  0  0  0  0  0  0
  -29.8577  -27.9183   21.7289 C   0  0  0  0  0  0  0  0  0  1  0  0
  -21.3849  -30.2143   23.0221 C   0  0  1  0  0  0  0  0  0  0  0  0
  -21.9046  -32.7434   25.7975 C   0  0  2  0  0  0  0  0  0  0  0  0
  -33.5241  -24.5389   20.0302 C   0  0  0  0  0  0  0  0  0  0  0  0
  -20.2300  -30.3867   21.9954 C   0  0  0  0  0  0  0  0  0  0  0  0
  -26.2087  -16.6457   20.0929 N   0  0  0  0  0  0  0  0  0  0  0  0
  -26.3496  -17.8303   20.7116 N   0  0  0  0  0  0  0  0  0  0  0  0
  -22.7007  -28.1368   23.2987 N   0  0  0  0  0  0  0  0  0  0  0  0
  -28.4213  -20.5172   18.9587 N   0  0  0  0  0  0  0  0  0  0  0  0
  -26.2966  -18.8676   22.8405 N   0  0  0  0  0  0  0  0  0  0  0  0
  -25.4244  -14.5351   23.7704 N   0  0  0  0  0  0  0  0  0  0  0  0
  -29.5413  -21.6406   20.7039 N   0  0  0  0  0  0  0  0  0  0  0  0
  -21.8614  -24.7655   22.4861 N   0  0  0  0  0  0  0  0  0  0  0  0
  -21.2724  -31.0711   24.1974 N   0  0  0  0  0  0  0  0  0  0  0  0
  -23.1337  -33.0492   26.5830 N   0  3  0  0  0  0  0  0  0  0  0  0
  -32.2898  -26.6789   20.5364 N   0  3  0  0  0  0  0  0  0  0  0  0
  -25.6753  -16.6222   24.6868 O   0  0  0  0  0  0  0  0  0  0  0  0
  -22.8462  -26.4719   21.2447 O   0  0  0  0  0  0  0  0  0  0  0  0
  -20.5328  -28.3038   24.1402 O   0  0  0  0  0  0  0  0  0  0  0  0
  -23.3083  -32.1470   23.9237 O   0  0  0  0  0  0  0  0  0  0  0  0
  -29.2709  -22.6416   18.6287 O   0  0  0  0  0  0  0  0  0  0  0  0
  -25.1009  -10.3750   20.0793 O   0  0  0  0  0  0  0  0  0  0  0  0
  -28.6035  -28.5783   21.5623 O   0  0  0  0  0  0  0  0  0  1  0  0
  -30.2021  -21.4054   23.4333 O   0  0  0  0  0  0  0  0  0  0  0  0
  -20.8555   -7.9245   22.6044 F   0  0  0  0  0  0  0  0  0  0  0  0
  -24.9538  -10.2814   22.8383 F   0  0  0  0  0  0  0  0  0  0  0  0
  1  2  1  0  0  0  0
  1  5  2  0  0  0  0
  2  6  2  0  0  0  0
  3  9  2  0  0  0  0
  3 18  1  0  0  0  0
  4 10  1  0  0  0  0
  4 18  2  0  0  0  0
  5 20  1  0  0  0  0
  6 22  1  0  0  0  0
  7 11  2  0  0  0  0
  7 21  1  0  0  0  0
  8 12  2  0  0  0  0
  8 24  1  0  0  0  0
  9 26  1  0  0  0  0
 10 26  2  0  0  0  0
 11 27  1  0  0  0  0
 12 28  1  0  0  0  0
 13 14  2  0  0  0  0
 13 29  1  0  0  0  0
 14 30  1  0  0  0  0
 15 23  1  0  0  0  0
 15 27  2  0  0  0  0
 16 24  2  0  0  0  0
 16 25  1  0  0  0  0
 17 30  2  0  0  0  0
 17 31  1  0  0  0  0
 18 32  1  0  0  0  0
 19 32  1  0  0  0  0
 19 33  2  0  0  0  0
 19 34  1  0  0  0  0
 20 22  2  0  0  0  0
 20 39  1  0  0  0  0
 21 23  2  0  0  0  0
 21 40  1  0  0  0  0
 22 48  1  0  0  0  0
 23 41  1  0  0  0  0
 24 68  1  0  0  0  0
 25 28  2  0  0  0  0
 25 76  1  0  0  0  0
 26 86  1  0  0  0  0
 27 87  1  0  0  0  0
 28 88  1  0  0  0  0
 29 31  2  0  0  0  0
 29 86  1  0  0  0  0
 30 89  1  0  0  0  0
 31 90  1  0  0  0  0
 32 70  2  0  0  0  0
 33 71  1  0  0  0  0
 33 74  1  0  0  0  0
 34 75  1  0  0  0  0
 34 81  2  0  0  0  0
 35 49  1  0  0  0  0
 35 77  1  0  0  0  0
 35 82  2  0  0  0  0
 36 66  1  0  0  0  0
 36 72  1  0  0  0  0
 36 83  2  0  0  0  0
 37 67  1  0  0  0  0
 37 78  1  0  0  0  0
 37 84  2  0  0  0  0
 38 73  1  0  0  0  0
 38 76  1  0  0  0  0
 38 85  2  0  0  0  0
 39 42  1  0  0  0  0
 40 49  1  0  0  0  0
 41 72  1  0  0  0  0
 42 44  1  0  0  0  0
 43 45  1  0  0  0  0
 43 46  1  0  0  0  0
 44 48  1  0  0  0  0
 45 50  1  0  0  0  0
 46 73  1  0  0  0  0
 47 50  1  0  0  0  0
 47 73  1  0  0  0  0
 48 77  1  0  0  0  0
 49 72  1  0  0  0  0
 50 71  1  0  0  0  0
 51 59  1  0  0  0  0
 52 67  1  0  0  0  0
 53 68  1  0  0  0  0
 54 68  1  0  0  0  0
 55 69  1  0  0  0  0
 56 69  1  0  0  0  0
 57 69  1  0  0  0  0
 58 79  1  0  0  0  0
 59 60  1  0  0  0  0
 60 64  1  0  0  0  0
 61 62  1  0  0  0  0
 61 65  1  0  0  0  0
 62 80  1  0  0  0  0
 63 68  1  0  0  0  0
 63 80  1  0  0  0  0
 64 88  1  0  0  0  0
 65 87  1  0  0  0  0
 66 69  1  0  0  0  0
 66 78  1  0  0  0  0
 67 79  1  0  0  0  0
 70 71  1  0  0  0  0
M  CHG  2  79   1  80   1
M  ISO  4  38 100  65 101  76 100  87 101
M  END
> <Batch ID>
0107

> <Smiles>
CCCCOc1ccc(C(C)(C)CNCC[101CH2:1][101O:1]c2ccc3c(c2)CN(C(=O)C(NC(=O)C(C)NC)C(C)(C)C)C(C(=O)NC2CCCc4ccccc42)C3)cc1[100NH:0][100C:0](=O)N1CCCC(n2nc(-c3ccc(Oc4ccc(F)cc4F)cc3)c(C(N)=O)c2N)C1

> <Shape>
0.176

> <Color>
0.064

> <Negative vol penalty>
0.000

$$$$

  -OEChem-04052319513D

 86 94  0     1  0  0  0  0  0999 V2000
  -22.8204  -23.9301   27.4791 C   0  0  0  0  0  0  0  0  0  0  0  0
  -22.4229  -22.6798   27.0164 C   0  0  0  0  0  0  0  0  0  0  0  0
  -29.7020  -23.5894   20.9430 C   0  0  0  0  0  0  0  0  0  0  0  0
  -27.4245  -23.3096   20.1867 C   0  0  0  0  0  0  0  0  0  0  0  0
  -22.5661  -25.0681   26.7149 C   0  0  0  0  0  0  0  0  0  0  0  0
  -21.7699  -22.5669   25.7895 C   0  0  0  0  0  0  0  0  0  0  0  0
  -23.5612  -18.7544   22.9786 C   0  0  0  0  0  0  0  0  0  0  0  0
  -29.6653  -24.9295   20.5578 C   0  0  0  0  0  0  0  0  0  0  0  0
  -27.3878  -24.6498   19.8015 C   0  0  0  0  0  0  0  0  0  0  0  0
  -23.1430  -17.4668   23.3115 C   0  0  0  0  0  0  0  0  0  0  0  0
  -26.5728  -28.0891   18.9500 C   0  0  0  0  0  0  0  0  0  0  0  0
  -25.4418  -28.8315   19.2896 C   0  0  0  0  0  0  0  0  0  0  0  0
  -21.5258  -17.5362   21.5229 C   0  0  0  0  0  0  0  0  0  0  0  0
  -24.6559  -13.8541   20.7304 C   0  0  0  0  0  0  0  0  0  0  0  0
  -25.8634  -28.4030   21.6297 C   0  0  0  0  0  0  0  0  0  0  0  0
  -25.7815  -11.3693   20.6591 C   0  0  0  0  0  0  0  0  0  0  0  0
  -28.5816  -22.7794   20.7574 C   0  0  0  0  0  0  0  0  0  0  0  0
  -28.2680  -20.8605   22.4088 C   0  0  0  0  0  0  0  0  0  0  0  0
  -21.9182  -24.9681   25.4736 C   0  0  0  0  0  0  0  0  0  0  0  0
  -22.9564  -19.4480   21.9205 C   0  0  0  0  0  0  0  0  0  0  0  0
  -21.5054  -23.7049   25.0085 C   0  0  0  0  0  0  0  0  0  0  0  0
  -21.9399  -18.8315   21.1770 C   0  0  0  0  0  0  0  0  0  0  0  0
  -23.9115  -12.7558   21.1465 C   0  0  0  0  0  0  0  0  0  0  0  0
  -24.4777  -11.4863   21.1133 C   0  0  0  0  0  0  0  0  0  0  0  0
  -28.5082  -25.4597   19.9871 C   0  0  0  0  0  0  0  0  0  0  0  0
  -22.1232  -16.8585   22.5855 C   0  0  0  0  0  0  0  0  0  0  0  0
  -27.3490  -27.5035   19.9501 C   0  0  0  0  0  0  0  0  0  0  0  0
  -25.0871  -28.9885   20.6295 C   0  0  0  0  0  0  0  0  0  0  0  0
  -26.9943  -27.6605   21.2900 C   0  0  0  0  0  0  0  0  0  0  0  0
  -28.6191  -21.3949   21.1546 C   0  0  0  0  0  0  0  0  0  0  0  0
  -25.9518  -13.6311   20.2936 C   0  0  0  0  0  0  0  0  0  0  0  0
  -28.4769  -19.5094   22.2769 C   0  0  0  0  0  0  0  0  0  0  0  0
  -27.7953  -21.5259   23.5875 C   0  0  0  0  0  0  0  0  0  0  0  0
  -21.2902  -22.1431   21.6668 C   0  0  0  0  0  0  0  0  0  0  0  0
  -21.5057  -21.5193   18.4908 C   0  0  0  0  0  0  0  0  0  0  0  0
  -21.9364  -19.2110   16.0143 C   0  0  0  0  0  0  0  0  0  0  0  0
  -28.0133  -14.7672   19.3959 C   0  0  0  0  0  0  0  0  0  0  0  0
  -21.6229  -26.2317   24.7049 C   0  0  0  0  0  0  0  0  0  0  0  0
  -23.4372  -20.8261   21.5571 C   0  0  0  0  0  0  0  0  0  0  0  0
  -21.2720  -19.5256   20.0191 C   0  0  0  0  0  0  0  0  0  0  0  0
  -21.2600  -25.9845   23.2429 C   0  0  0  0  0  0  0  0  0  0  0  0
  -30.7768  -16.8734   18.6185 C   0  0  0  0  0  0  0  0  0  0  0  0
  -20.2428  -24.8535   23.1291 C   0  0  0  0  0  0  0  0  0  0  0  0
  -30.4329  -18.1935   19.3122 C   0  0  0  0  0  0  0  0  0  0  0  0
  -29.5347  -16.1938   18.0449 C   0  0  0  0  0  0  0  0  0  0  0  0
  -28.0919  -17.3209   19.6933 C   0  0  0  0  0  0  0  0  0  0  0  0
  -20.8166  -23.5389   23.6713 C   0  0  1  0  0  0  0  0  0  0  0  0
  -22.3992  -21.6376   20.7880 C   0  0  1  0  0  0  0  0  0  0  0  0
  -29.3024  -18.0103   20.3437 C   0  0  2  0  0  0  0  0  0  0  0  0
  -22.0264  -18.9961   13.5157 C   0  0  0  0  0  0  0  0  0  0  0  0
  -20.9590  -12.8932   23.7043 C   0  0  0  0  0  0  0  0  0  0  0  0
  -22.9594   -9.6332   20.3924 C   0  0  0  0  0  0  0  0  0  0  0  0
  -18.4680  -21.7753   18.3618 C   0  0  0  0  0  0  0  0  0  0  0  0
  -18.5368  -20.6404   16.1312 C   0  0  0  0  0  0  0  0  0  0  0  0
  -19.6860  -22.8314   16.4498 C   0  0  0  0  0  0  0  0  0  0  0  0
  -24.7184  -18.2038   16.0850 C   0  0  0  0  0  0  0  0  0  0  0  0
  -22.6858  -14.7269   23.4774 C   0  0  0  0  0  0  0  0  0  1  0  0
  -22.4919  -12.9648   21.6306 C   0  0  1  0  0  0  0  0  0  0  0  0
  -20.6730  -20.7507   17.4933 C   0  0  1  0  0  0  0  0  0  0  0  0
  -22.8321  -19.2038   14.7887 C   0  0  2  0  0  0  0  0  0  0  0  0
  -22.3361  -13.2715   23.1413 C   0  0  2  0  0  0  0  0  0  0  0  0
  -23.7251  -10.2763   21.5471 C   0  0  0  0  0  0  0  0  0  0  0  0
  -19.3520  -21.4868   17.1320 C   0  0  0  0  0  0  0  0  0  0  0  0
  -26.5358  -12.4127   20.2470 N   0  0  0  0  0  0  0  0  0  0  0  0
  -29.0207  -20.4596   20.2897 N   0  0  0  0  0  0  0  0  0  0  0  0
  -28.9233  -19.3239   21.0016 N   0  0  0  0  0  0  0  0  0  0  0  0
  -21.7729  -20.8742   19.7067 N   0  0  0  0  0  0  0  0  0  0  0  0
  -28.5085  -16.0501   19.0798 N   0  0  0  0  0  0  0  0  0  0  0  0
  -28.3205  -18.4738   23.1287 N   0  0  0  0  0  0  0  0  0  0  0  0
  -27.6372  -22.9180   23.5510 N   0  0  0  0  0  0  0  0  0  0  0  0
  -26.7019  -14.7561   19.8701 N   0  0  0  0  0  0  0  0  0  0  0  0
  -21.7182  -22.9453   22.7073 N   0  0  0  0  0  0  0  0  0  0  0  0
  -21.5426  -20.4887   16.3516 N   0  0  0  0  0  0  0  0  0  0  0  0
  -23.8403  -18.1111   14.8903 N   0  3  0  0  0  0  0  0  0  0  0  0
  -27.5368  -20.9063   24.6471 O   0  0  0  0  0  0  0  0  0  0  0  0
  -20.1319  -21.8298   21.4182 O   0  0  0  0  0  0  0  0  0  0  0  0
  -21.9103  -22.6475   18.1990 O   0  0  0  0  0  0  0  0  0  0  0  0
  -21.6150  -18.1854   16.6104 O   0  0  0  0  0  0  0  0  0  0  0  0
  -28.7109  -13.7561   19.2821 O   0  0  0  0  0  0  0  0  0  0  0  0
  -21.8803  -14.0028   20.8596 O   0  0  0  0  0  0  0  0  0  0  0  0
  -28.4719  -26.7674   19.6114 O   0  0  0  0  0  0  0  0  0  0  0  0
  -21.7126  -15.6020   22.9087 O   0  0  0  0  0  0  0  0  0  1  0  0
  -24.0020  -29.7027   20.9556 F   0  0  0  0  0  0  0  0  0  0  0  0
  -27.7368  -27.1014   22.2553 F   0  0  0  0  0  0  0  0  0  0  0  0
  -22.8104  -10.5374   22.5365 F   0  0  0  0  0  0  0  0  0  0  0  0
  -24.5323   -9.3036   22.0821 F   0  0  0  0  0  0  0  0  0  0  0  0
  1  2  1  0  0  0  0
  1  5  2  0  0  0  0
  2  6  2  0  0  0  0
  3  8  2  0  0  0  0
  3 17  1  0  0  0  0
  4  9  1  0  0  0  0
  4 17  2  0  0  0  0
  5 19  1  0  0  0  0
  6 21  1  0  0  0  0
  7 10  2  0  0  0  0
  7 20  1  0  0  0  0
  8 25  1  0  0  0  0
  9 25  2  0  0  0  0
 10 26  1  0  0  0  0
 11 12  2  0  0  0  0
 11 27  1  0  0  0  0
 12 28  1  0  0  0  0
 13 22  1  0  0  0  0
 13 26  2  0  0  0  0
 14 23  1  0  0  0  0
 14 31  2  0  0  0  0
 15 28  2  0  0  0  0
 15 29  1  0  0  0  0
 16 24  1  0  0  0  0
 16 64  2  0  0  0  0
 17 30  1  0  0  0  0
 18 30  1  0  0  0  0
 18 32  2  0  0  0  0
 18 33  1  0  0  0  0
 19 21  2  0  0  0  0
 19 38  1  0  0  0  0
 20 22  2  0  0  0  0
 20 39  1  0  0  0  0
 21 47  1  0  0  0  0
 22 40  1  0  0  0  0
 23 24  2  0  0  0  0
 23 58  1  0  0  0  0
 24 62  1  0  0  0  0
 25 81  1  0  0  0  0
 26 82  1  0  0  0  0
 27 29  2  0  0  0  0
 27 81  1  0  0  0  0
 28 83  1  0  0  0  0
 29 84  1  0  0  0  0
 30 65  2  0  0  0  0
 31 64  1  0  0  0  0
 31 71  1  0  0  0  0
 32 66  1  0  0  0  0
 32 69  1  0  0  0  0
 33 70  1  0  0  0  0
 33 75  2  0  0  0  0
 34 48  1  0  0  0  0
 34 72  1  0  0  0  0
 34 76  2  0  0  0  0
 35 59  1  0  0  0  0
 35 67  1  0  0  0  0
 35 77  2  0  0  0  0
 36 60  1  0  0  0  0
 36 73  1  0  0  0  0
 36 78  2  0  0  0  0
 37 68  1  0  0  0  0
 37 71  1  0  0  0  0
 37 79  2  0  0  0  0
 38 41  1  0  0  0  0
 39 48  1  0  0  0  0
 40 67  1  0  0  0  0
 41 43  1  0  0  0  0
 42 44  1  0  0  0  0
 42 45  1  0  0  0  0
 43 47  1  0  0  0  0
 44 49  1  0  0  0  0
 45 68  1  0  0  0  0
 46 49  1  0  0  0  0
 46 68  1  0  0  0  0
 47 72  1  0  0  0  0
 48 67  1  0  0  0  0
 49 66  1  0  0  0  0
 50 60  1  0  0  0  0
 51 61  1  0  0  0  0
 52 62  1  0  0  0  0
 53 63  1  0  0  0  0
 54 63  1  0  0  0  0
 55 63  1  0  0  0  0
 56 74  1  0  0  0  0
 57 61  1  0  0  0  0
 57 82  1  0  0  0  0
 58 61  1  0  0  0  0
 58 80  1  0  0  0  0
 59 63  1  0  0  0  0
 59 73  1  0  0  0  0
 60 74  1  0  0  0  0
 62 85  1  0  0  0  0
 62 86  1  0  0  0  0
 65 66  1  0  0  0  0
M  CHG  1  74   1
M  ISO  4  37 100  57 101  71 100  82 101
M  END
> <Batch ID>
0107

> <Smiles>
CNC(C)C(=O)NC(C(=O)N1Cc2cc([101O:1][101CH2:1]C(C)C(O)c3cc([100NH:0][100C:0](=O)N4CCCC(n5nc(-c6ccc(Oc7ccc(F)cc7F)cc6)c(C(N)=O)c5N)C4)ncc3C(C)(F)F)ccc2CC1C(=O)NC1CCCc2ccccc21)C(C)(C)C

> <Shape>
0.183

> <Color>
0.087

> <Negative vol penalty>
0.000

$$$$

  -OEChem-04052319513D

 88 96  0     1  0  0  0  0  0999 V2000
  -17.0827  -28.8596   24.2570 C   0  0  0  0  0  0  0  0  0  0  0  0
  -17.2268  -27.7631   23.4128 C   0  0  0  0  0  0  0  0  0  0  0  0
  -27.5199  -13.4844   22.6214 C   0  0  0  0  0  0  0  0  0  0  0  0
  -26.7438  -13.2948   20.3413 C   0  0  0  0  0  0  0  0  0  0  0  0
  -17.9315  -29.9575   24.1226 C   0  0  0  0  0  0  0  0  0  0  0  0
  -18.2190  -27.7645   22.4331 C   0  0  0  0  0  0  0  0  0  0  0  0
  -22.6607  -23.3306   18.9793 C   0  0  0  0  0  0  0  0  0  0  0  0
  -26.9330  -12.2556   22.9234 C   0  0  0  0  0  0  0  0  0  0  0  0
  -26.1569  -12.0659   20.6433 C   0  0  0  0  0  0  0  0  0  0  0  0
  -23.0397  -22.9787   17.6846 C   0  0  0  0  0  0  0  0  0  0  0  0
  -24.1460   -9.0495   20.9029 C   0  0  0  0  0  0  0  0  0  0  0  0
  -22.8526   -8.8166   20.4358 C   0  0  0  0  0  0  0  0  0  0  0  0
  -24.4992  -24.8974   17.5968 C   0  0  0  0  0  0  0  0  0  0  0  0
  -22.0552  -10.7180   21.6951 C   0  0  0  0  0  0  0  0  0  0  0  0
  -30.8764  -22.8451   15.8601 C   0  0  0  0  0  0  0  0  0  0  0  0
  -27.4253  -14.0040   21.3303 C   0  0  0  0  0  0  0  0  0  0  0  0
  -29.3404  -15.4994   20.5532 C   0  0  0  0  0  0  0  0  0  0  0  0
  -18.9408  -29.9683   23.1470 C   0  0  0  0  0  0  0  0  0  0  0  0
  -23.1907  -24.4766   19.5894 C   0  0  0  0  0  0  0  0  0  0  0  0
  -19.0811  -28.8642   22.2847 C   0  0  0  0  0  0  0  0  0  0  0  0
  -24.1273  -25.2602   18.9003 C   0  0  0  0  0  0  0  0  0  0  0  0
  -30.9960  -23.6182   16.9938 C   0  0  0  0  0  0  0  0  0  0  0  0
  -30.0223  -23.1666   17.9185 C   0  0  0  0  0  0  0  0  0  0  0  0
  -26.2516  -11.5464   21.9343 C   0  0  0  0  0  0  0  0  0  0  0  0
  -23.9569  -23.7637   16.9921 C   0  0  0  0  0  0  0  0  0  0  0  0
  -24.3941  -10.1167   21.7663 C   0  0  0  0  0  0  0  0  0  0  0  0
  -21.8072   -9.6508   20.8318 C   0  0  0  0  0  0  0  0  0  0  0  0
  -23.3487  -10.9509   22.1623 C   0  0  0  0  0  0  0  0  0  0  0  0
  -28.0308  -15.2736   21.0179 C   0  0  0  0  0  0  0  0  0  0  0  0
  -29.4237  -16.8629   20.4105 C   0  0  0  0  0  0  0  0  0  0  0  0
  -29.3374  -22.1311   17.3218 C   0  0  0  0  0  0  0  0  0  0  0  0
  -30.3877  -14.5606   20.2752 C   0  0  0  0  0  0  0  0  0  0  0  0
  -21.9716  -27.1933   20.7015 C   0  0  0  0  0  0  0  0  0  0  0  0
  -25.0108  -27.6846   21.7235 C   0  0  0  0  0  0  0  0  0  0  0  0
  -28.3349  -27.0014   21.3624 C   0  0  0  0  0  0  0  0  0  0  0  0
  -27.2898  -21.7242   18.7318 C   0  0  0  0  0  0  0  0  0  0  0  0
  -19.8036  -31.1976   23.0088 C   0  0  0  0  0  0  0  0  0  0  0  0
  -22.7919  -24.8277   20.9966 C   0  0  0  0  0  0  0  0  0  0  0  0
  -24.7411  -26.4890   19.5182 C   0  0  0  0  0  0  0  0  0  0  0  0
  -21.0711  -30.9633   22.1910 C   0  0  0  0  0  0  0  0  0  0  0  0
  -26.2869  -20.5321   21.9334 C   0  0  0  0  0  0  0  0  0  0  0  0
  -20.7469  -30.1997   20.9108 C   0  0  0  0  0  0  0  0  0  0  0  0
  -26.7589  -19.0763   21.9424 C   0  0  0  0  0  0  0  0  0  0  0  0
  -25.7851  -20.9571   20.5545 C   0  0  0  0  0  0  0  0  0  0  0  0
  -27.1949  -19.2591   19.4598 C   0  0  0  0  0  0  0  0  0  0  0  0
  -20.1615  -28.8179   21.2260 C   0  0  1  0  0  0  0  0  0  0  0  0
  -23.0058  -26.3014   21.3282 C   0  0  1  0  0  0  0  0  0  0  0  0
  -27.7700  -18.8047   20.8112 C   0  0  2  0  0  0  0  0  0  0  0  0
  -29.7857  -23.7071   19.2737 C   0  0  0  0  0  0  0  0  0  0  0  0
  -31.7743  -25.8801   16.1989 C   0  0  0  0  0  0  0  0  0  0  0  0
  -33.4351  -24.2364   17.1450 C   0  0  0  0  0  0  0  0  0  0  0  0
  -30.7875  -27.0230   21.8931 C   0  0  0  0  0  0  0  0  0  0  0  0
  -26.5278  -24.6722   12.9210 C   0  0  0  0  0  0  0  0  0  0  0  0
  -24.9303  -30.3697   20.2766 C   0  0  0  0  0  0  0  0  0  0  0  0
  -27.4263  -30.4591   20.4500 C   0  0  0  0  0  0  0  0  0  0  0  0
  -26.0344  -30.4262   22.5198 C   0  0  0  0  0  0  0  0  0  0  0  0
  -28.0957  -24.6259   23.1113 C   0  0  0  0  0  0  0  0  0  0  0  0
  -25.8309  -21.6212   12.4644 C   0  0  0  0  0  0  0  0  0  0  0  0
  -27.9600  -21.0703   14.6967 C   0  0  0  0  0  0  0  0  0  0  0  0
  -29.4339  -20.9479   15.0976 C   0  0  0  0  0  0  0  0  0  0  0  0
  -27.5599  -22.4045   14.0761 C   0  0  0  0  0  0  0  0  0  0  0  0
  -25.2721  -24.2721   15.0770 C   0  0  0  0  0  0  0  0  0  1  0  0
  -31.9651  -24.7135   17.1957 C   0  0  0  0  0  0  0  0  0  0  0  0
  -26.2467  -28.3214   21.1353 C   0  0  1  0  0  0  0  0  0  0  0  0
  -29.4013  -26.6237   22.3746 C   0  0  2  0  0  0  0  0  0  0  0  0
  -25.5328  -23.7880   13.6550 C   0  0  2  0  0  0  0  0  0  0  0  0
  -26.1466  -29.8721   21.0828 C   0  0  0  0  0  0  0  0  0  0  0  0
  -27.3326  -16.4032   21.1611 N   0  0  0  0  0  0  0  0  0  0  0  0
  -29.8653  -21.9443   16.0710 N   0  0  0  0  0  0  0  0  0  0  0  0
  -28.2066  -17.3519   20.7842 N   0  0  0  0  0  0  0  0  0  0  0  0
  -24.3144  -26.7943   20.8938 N   0  0  0  0  0  0  0  0  0  0  0  0
  -26.7968  -20.6736   19.5343 N   0  0  0  0  0  0  0  0  0  0  0  0
  -30.4187  -17.6793   20.0032 N   0  0  0  0  0  0  0  0  0  0  0  0
  -30.1334  -13.1970   20.4760 N   0  0  0  0  0  0  0  0  0  0  0  0
  -28.2719  -21.3405   17.8191 N   0  0  0  0  0  0  0  0  0  0  0  0
  -21.2115  -27.9005   21.6135 N   0  0  0  0  0  0  0  0  0  0  0  0
  -27.3739  -27.8215   21.9150 N   0  0  0  0  0  0  0  0  0  0  0  0
  -29.3921  -25.1525   22.6122 N   0  3  0  0  0  0  0  0  0  0  0  0
  -26.0964  -22.4085   13.7204 N   0  3  1  0  0  0  0  0  0  0  0  0
  -31.5211  -14.9215   19.8767 O   0  0  0  0  0  0  0  0  0  0  0  0
  -21.8716  -27.2378   19.4810 O   0  0  0  0  0  0  0  0  0  0  0  0
  -24.6795  -27.9612   22.8791 O   0  0  0  0  0  0  0  0  0  0  0  0
  -28.3545  -26.6113   20.1971 O   0  0  0  0  0  0  0  0  0  0  0  0
  -26.8913  -22.8842   18.8645 O   0  0  0  0  0  0  0  0  0  0  0  0
  -25.6790  -10.3472   22.2286 O   0  0  0  0  0  0  0  0  0  0  0  0
  -24.3281  -23.4228   15.7280 O   0  0  0  0  0  0  0  0  0  1  0  0
  -20.5654   -9.4279   20.3819 F   0  0  0  0  0  0  0  0  0  0  0  0
  -23.5811  -11.9784   22.9906 F   0  0  0  0  0  0  0  0  0  0  0  0
  1  2  1  0  0  0  0
  1  5  2  0  0  0  0
  2  6  2  0  0  0  0
  3  8  2  0  0  0  0
  3 16  1  0  0  0  0
  4  9  1  0  0  0  0
  4 16  2  0  0  0  0
  5 18  1  0  0  0  0
  6 20  1  0  0  0  0
  7 10  2  0  0  0  0
  7 19  1  0  0  0  0
  8 24  1  0  0  0  0
  9 24  2  0  0  0  0
 10 25  1  0  0  0  0
 11 12  2  0  0  0  0
 11 26  1  0  0  0  0
 12 27  1  0  0  0  0
 13 21  1  0  0  0  0
 13 25  2  0  0  0  0
 14 27  2  0  0  0  0
 14 28  1  0  0  0  0
 15 22  2  0  0  0  0
 15 69  1  0  0  0  0
 16 29  1  0  0  0  0
 17 29  1  0  0  0  0
 17 30  2  0  0  0  0
 17 32  1  0  0  0  0
 18 20  2  0  0  0  0
 18 37  1  0  0  0  0
 19 21  2  0  0  0  0
 19 38  1  0  0  0  0
 20 46  1  0  0  0  0
 21 39  1  0  0  0  0
 22 23  1  0  0  0  0
 22 63  1  0  0  0  0
 23 31  2  0  0  0  0
 23 49  1  0  0  0  0
 24 85  1  0  0  0  0
 25 86  1  0  0  0  0
 26 28  2  0  0  0  0
 26 85  1  0  0  0  0
 27 87  1  0  0  0  0
 28 88  1  0  0  0  0
 29 68  2  0  0  0  0
 30 70  1  0  0  0  0
 30 73  1  0  0  0  0
 31 69  1  0  0  0  0
 31 75  1  0  0  0  0
 32 74  1  0  0  0  0
 32 80  2  0  0  0  0
 33 47  1  0  0  0  0
 33 76  1  0  0  0  0
 33 81  2  0  0  0  0
 34 64  1  0  0  0  0
 34 71  1  0  0  0  0
 34 82  2  0  0  0  0
 35 65  1  0  0  0  0
 35 77  1  0  0  0  0
 35 83  2  0  0  0  0
 36 72  1  0  0  0  0
 36 75  1  0  0  0  0
 36 84  2  0  0  0  0
 37 40  1  0  0  0  0
 38 47  1  0  0  0  0
 39 71  1  0  0  0  0
 40 42  1  0  0  0  0
 41 43  1  0  0  0  0
 41 44  1  0  0  0  0
 42 46  1  0  0  0  0
 43 48  1  0  0  0  0
 44 72  1  0  0  0  0
 45 48  1  0  0  0  0
 45 72  1  0  0  0  0
 46 76  1  0  0  0  0
 47 71  1  0  0  0  0
 48 70  1  0  0  0  0
 50 63  1  0  0  0  0
 51 63  1  0  0  0  0
 52 65  1  0  0  0  0
 53 66  1  0  0  0  0
 54 67  1  0  0  0  0
 55 67  1  0  0  0  0
 56 67  1  0  0  0  0
 57 78  1  0  0  0  0
 58 79  1  0  0  0  0
 59 60  1  0  0  0  0
 59 61  1  0  0  0  0
 60 69  1  0  0  0  0
 61 79  1  0  0  0  0
 62 66  1  0  0  0  0
 62 86  1  0  0  0  0
 64 67  1  0  0  0  0
 64 77  1  0  0  0  0
 65 78  1  0  0  0  0
 66 79  1  0  0  0  0
 68 70  1  0  0  0  0
M  CHG  2  78   1  79   1
M  ISO  4  36 100  62 101  75 100  86 101
M  END
> <Batch ID>
0107

> <Smiles>
CNC(C)C(=O)NC(C(=O)N1Cc2cc([101O:1][101CH2:1]C(C)N(C)CCCn3cc(C(C)C)c(C)c3[100NH:0][100C:0](=O)N3CCCC(n4nc(-c5ccc(Oc6ccc(F)cc6F)cc5)c(C(N)=O)c4N)C3)ccc2CC1C(=O)NC1CCCc2ccccc21)C(C)(C)C

> <Shape>
0.237

> <Color>
0.083

> <Negative vol penalty>
0.000

$$$$

  -OEChem-04052319513D

 80 88  0     1  0  0  0  0  0999 V2000
  -20.6005  -31.7702   23.7146 C   0  0  0  0  0  0  0  0  0  0  0  0
  -21.7697  -31.0337   23.5539 C   0  0  0  0  0  0  0  0  0  0  0  0
  -24.6581  -14.1185   21.1148 C   0  0  0  0  0  0  0  0  0  0  0  0
  -27.0303  -13.6816   21.2514 C   0  0  0  0  0  0  0  0  0  0  0  0
  -19.3638  -31.1754   23.4678 C   0  0  0  0  0  0  0  0  0  0  0  0
  -21.7029  -29.7015   23.1472 C   0  0  0  0  0  0  0  0  0  0  0  0
  -25.0924  -28.5959   19.5508 C   0  0  0  0  0  0  0  0  0  0  0  0
  -24.4455  -12.8198   20.6523 C   0  0  0  0  0  0  0  0  0  0  0  0
  -26.8178  -12.3829   20.7889 C   0  0  0  0  0  0  0  0  0  0  0  0
  -26.4110  -28.3980   19.9579 C   0  0  0  0  0  0  0  0  0  0  0  0
  -24.2535   -9.7089   21.9633 C   0  0  0  0  0  0  0  0  0  0  0  0
  -23.2002   -8.9858   22.5229 C   0  0  0  0  0  0  0  0  0  0  0  0
  -26.0771  -26.0110   19.8583 C   0  0  0  0  0  0  0  0  0  0  0  0
  -22.1830   -8.7790   20.3413 C   0  0  0  0  0  0  0  0  0  0  0  0
  -30.6937  -25.0794   17.1150 C   0  0  0  0  0  0  0  0  0  0  0  0
  -25.9505  -14.5494   21.4143 C   0  0  0  0  0  0  0  0  0  0  0  0
  -26.1743  -16.3273   23.2300 C   0  0  0  0  0  0  0  0  0  0  0  0
  -19.2823  -29.8382   23.0485 C   0  0  0  0  0  0  0  0  0  0  0  0
  -24.2515  -27.5010   19.3045 C   0  0  0  0  0  0  0  0  0  0  0  0
  -20.4639  -29.0879   22.8958 C   0  0  0  0  0  0  0  0  0  0  0  0
  -24.7490  -26.1977   19.4457 C   0  0  0  0  0  0  0  0  0  0  0  0
  -25.5254  -11.9520   20.4894 C   0  0  0  0  0  0  0  0  0  0  0  0
  -26.9028  -27.1054   20.1145 C   0  0  0  0  0  0  0  0  0  0  0  0
  -24.2715   -9.9672   20.5926 C   0  0  0  0  0  0  0  0  0  0  0  0
  -22.1650   -8.5208   21.7119 C   0  0  0  0  0  0  0  0  0  0  0  0
  -23.2363   -9.5022   19.7816 C   0  0  0  0  0  0  0  0  0  0  0  0
  -26.1708  -15.8910   21.8916 C   0  0  0  0  0  0  0  0  0  0  0  0
  -30.6528  -24.2289   18.2361 C   0  0  0  0  0  0  0  0  0  0  0  0
  -30.6521  -26.3465   17.6436 C   0  0  0  0  0  0  0  0  0  0  0  0
  -26.4278  -17.6749   23.1512 C   0  0  0  0  0  0  0  0  0  0  0  0
  -25.9670  -15.5811   24.4366 C   0  0  0  0  0  0  0  0  0  0  0  0
  -21.5353  -26.4312   20.5620 C   0  0  0  0  0  0  0  0  0  0  0  0
  -21.7049  -24.2935   18.1281 C   0  0  0  0  0  0  0  0  0  0  0  0
  -23.6426  -22.6199   15.8717 C   0  0  0  0  0  0  0  0  0  0  0  0
  -29.2343  -20.9185   19.0943 C   0  0  0  0  0  0  0  0  0  0  0  0
  -17.9205  -29.2247   22.8395 C   0  0  0  0  0  0  0  0  0  0  0  0
  -22.8395  -27.7313   18.8402 C   0  0  0  0  0  0  0  0  0  0  0  0
  -23.8931  -24.9885   19.1742 C   0  0  0  0  0  0  0  0  0  0  0  0
  -17.9555  -27.9186   22.0500 C   0  0  0  0  0  0  0  0  0  0  0  0
  -25.8416  -21.4319   20.2446 C   0  0  0  0  0  0  0  0  0  0  0  0
  -19.0514  -27.0015   22.5837 C   0  0  0  0  0  0  0  0  0  0  0  0
  -25.5470  -20.0959   20.9290 C   0  0  0  0  0  0  0  0  0  0  0  0
  -26.6885  -21.2358   18.9906 C   0  0  0  0  0  0  0  0  0  0  0  0
  -27.6751  -19.1698   19.9027 C   0  0  0  0  0  0  0  0  0  0  0  0
  -20.4338  -27.6477   22.4322 C   0  0  1  0  0  0  0  0  0  0  0  0
  -21.9196  -26.5455   19.1139 C   0  0  1  0  0  0  0  0  0  0  0  0
  -26.8411  -19.3026   21.1899 C   0  0  2  0  0  0  0  0  0  0  0  0
  -30.6645  -27.6687   16.9915 C   0  0  0  0  0  0  0  0  0  0  0  0
  -23.5023  -20.9111   14.0393 C   0  0  0  0  0  0  0  0  0  0  0  0
  -21.4106  -22.0853   20.2132 C   0  0  0  0  0  0  0  0  0  0  0  0
  -22.2188  -20.4522   18.4962 C   0  0  0  0  0  0  0  0  0  0  0  0
  -20.1036  -21.7178   18.1129 C   0  0  0  0  0  0  0  0  0  0  0  0
  -24.6703  -24.5275   13.8558 C   0  0  0  0  0  0  0  0  0  0  0  0
  -30.6695  -22.7565   18.2464 C   0  0  0  0  0  0  0  0  0  0  0  0
  -30.5290  -27.2741   20.0388 C   0  0  0  0  0  0  0  0  0  0  0  0
  -29.1433  -27.9025   20.1383 C   0  0  0  0  0  0  0  0  0  1  0  0
  -22.3183  -22.9260   17.9471 C   0  0  1  0  0  0  0  0  0  0  0  0
  -23.4829  -22.3933   14.3792 C   0  0  2  0  0  0  0  0  0  0  0  0
  -21.5287  -21.8179   18.6994 C   0  0  0  0  0  0  0  0  0  0  0  0
  -26.4035  -16.8811   21.0258 N   0  0  0  0  0  0  0  0  0  0  0  0
  -30.5902  -24.8991   19.3897 N   0  0  0  0  0  0  0  0  0  0  0  0
  -30.5915  -26.1842   18.9964 N   0  0  0  0  0  0  0  0  0  0  0  0
  -26.5555  -17.9530   21.8221 N   0  0  0  0  0  0  0  0  0  0  0  0
  -22.5175  -25.2656   18.7285 N   0  0  0  0  0  0  0  0  0  0  0  0
  -27.9140  -20.4905   19.3111 N   0  0  0  0  0  0  0  0  0  0  0  0
  -26.5517  -18.6372   24.0898 N   0  0  0  0  0  0  0  0  0  0  0  0
  -25.7186  -14.2054   24.3371 N   0  0  0  0  0  0  0  0  0  0  0  0
  -20.8917  -27.5466   21.0630 N   0  0  0  0  0  0  0  0  0  0  0  0
  -22.4226  -22.7128   16.5076 N   0  0  0  0  0  0  0  0  0  0  0  0
  -29.3737  -22.1778   18.5240 N   0  0  0  0  0  0  0  0  0  0  0  0
  -24.5865  -23.0611   13.6329 N   0  3  0  0  0  0  0  0  0  0  0  0
  -25.9847  -16.1215   25.5685 O   0  0  0  0  0  0  0  0  0  0  0  0
  -21.8017  -25.4062   21.1787 O   0  0  0  0  0  0  0  0  0  0  0  0
  -20.5498  -24.4938   17.7443 O   0  0  0  0  0  0  0  0  0  0  0  0
  -24.7398  -22.7023   16.4193 O   0  0  0  0  0  0  0  0  0  0  0  0
  -30.2172  -20.2311   19.3922 O   0  0  0  0  0  0  0  0  0  0  0  0
  -25.3183  -10.6846   20.0384 O   0  0  0  0  0  0  0  0  0  0  0  0
  -28.1893  -26.9093   20.5124 O   0  0  0  0  0  0  0  0  0  1  0  0
  -21.1544   -7.8250   22.2493 F   0  0  0  0  0  0  0  0  0  0  0  0
  -23.2487   -9.7461   18.4640 F   0  0  0  0  0  0  0  0  0  0  0  0
  1  2  1  0  0  0  0
  1  5  2  0  0  0  0
  2  6  2  0  0  0  0
  3  8  2  0  0  0  0
  3 16  1  0  0  0  0
  4  9  1  0  0  0  0
  4 16  2  0  0  0  0
  5 18  1  0  0  0  0
  6 20  1  0  0  0  0
  7 10  2  0  0  0  0
  7 19  1  0  0  0  0
  8 22  1  0  0  0  0
  9 22  2  0  0  0  0
 10 23  1  0  0  0  0
 11 12  2  0  0  0  0
 11 24  1  0  0  0  0
 12 25  1  0  0  0  0
 13 21  1  0  0  0  0
 13 23  2  0  0  0  0
 14 25  2  0  0  0  0
 14 26  1  0  0  0  0
 15 28  1  0  0  0  0
 15 29  2  0  0  0  0
 16 27  1  0  0  0  0
 17 27  1  0  0  0  0
 17 30  2  0  0  0  0
 17 31  1  0  0  0  0
 18 20  2  0  0  0  0
 18 36  1  0  0  0  0
 19 21  2  0  0  0  0
 19 37  1  0  0  0  0
 20 45  1  0  0  0  0
 21 38  1  0  0  0  0
 22 77  1  0  0  0  0
 23 78  1  0  0  0  0
 24 26  2  0  0  0  0
 24 77  1  0  0  0  0
 25 79  1  0  0  0  0
 26 80  1  0  0  0  0
 27 60  2  0  0  0  0
 28 54  1  0  0  0  0
 28 61  2  0  0  0  0
 29 48  1  0  0  0  0
 29 62  1  0  0  0  0
 30 63  1  0  0  0  0
 30 66  1  0  0  0  0
 31 67  1  0  0  0  0
 31 72  2  0  0  0  0
 32 46  1  0  0  0  0
 32 68  1  0  0  0  0
 32 73  2  0  0  0  0
 33 57  1  0  0  0  0
 33 64  1  0  0  0  0
 33 74  2  0  0  0  0
 34 58  1  0  0  0  0
 34 69  1  0  0  0  0
 34 75  2  0  0  0  0
 35 65  1  0  0  0  0
 35 70  1  0  0  0  0
 35 76  2  0  0  0  0
 36 39  1  0  0  0  0
 37 46  1  0  0  0  0
 38 64  1  0  0  0  0
 39 41  1  0  0  0  0
 40 42  1  0  0  0  0
 40 43  1  0  0  0  0
 41 45  1  0  0  0  0
 42 47  1  0  0  0  0
 43 65  1  0  0  0  0
 44 47  1  0  0  0  0
 44 65  1  0  0  0  0
 45 68  1  0  0  0  0
 46 64  1  0  0  0  0
 47 63  1  0  0  0  0
 49 58  1  0  0  0  0
 50 59  1  0  0  0  0
 51 59  1  0  0  0  0
 52 59  1  0  0  0  0
 53 71  1  0  0  0  0
 54 70  1  0  0  0  0
 55 56  1  0  0  0  0
 55 62  1  0  0  0  0
 56 78  1  0  0  0  0
 57 59  1  0  0  0  0
 57 69  1  0  0  0  0
 58 71  1  0  0  0  0
 60 63  1  0  0  0  0
 61 62  1  0  0  0  0
M  CHG  1  71   1
M  ISO  4  35 100  56 101  70 100  78 101
M  END
> <Batch ID>
0107

> <Smiles>
CNC(C)C(=O)NC(C(=O)N1Cc2cc([101O:1][101CH2:1]Cn3nc(C[100NH:0][100C:0](=O)N4CCCC(n5nc(-c6ccc(Oc7ccc(F)cc7F)cc6)c(C(N)=O)c5N)C4)cc3C)ccc2CC1C(=O)NC1CCCc2ccccc21)C(C)(C)C

> <Shape>
0.240

> <Color>
0.087

> <Negative vol penalty>
0.000

$$$$

  -OEChem-04052319513D

 82 90  0     1  0  0  0  0  0999 V2000
  -19.2879  -33.9817   22.5792 C   0  0  0  0  0  0  0  0  0  0  0  0
  -20.6466  -33.7544   22.3852 C   0  0  0  0  0  0  0  0  0  0  0  0
  -23.5674  -14.8407   19.9127 C   0  0  0  0  0  0  0  0  0  0  0  0
  -24.0546  -14.0010   22.1250 C   0  0  0  0  0  0  0  0  0  0  0  0
  -18.4791  -32.9686   23.0924 C   0  0  0  0  0  0  0  0  0  0  0  0
  -21.1976  -32.5141   22.7054 C   0  0  0  0  0  0  0  0  0  0  0  0
  -25.7632  -29.6521   19.7951 C   0  0  0  0  0  0  0  0  0  0  0  0
  -22.8205  -13.6942   19.6420 C   0  0  0  0  0  0  0  0  0  0  0  0
  -23.3076  -12.8545   21.8544 C   0  0  0  0  0  0  0  0  0  0  0  0
  -27.1287  -29.5545   20.0594 C   0  0  0  0  0  0  0  0  0  0  0  0
  -23.7216   -9.9508   20.1727 C   0  0  0  0  0  0  0  0  0  0  0  0
  -24.2677   -8.7203   20.5379 C   0  0  0  0  0  0  0  0  0  0  0  0
  -26.7569  -27.4452   21.1693 C   0  0  0  0  0  0  0  0  0  0  0  0
  -22.3761   -8.3099   21.9838 C   0  0  0  0  0  0  0  0  0  0  0  0
  -28.9957  -23.7562   19.3716 C   0  0  0  0  0  0  0  0  0  0  0  0
  -30.0679  -23.9259   17.4537 C   0  0  0  0  0  0  0  0  0  0  0  0
  -24.1845  -14.9941   21.1542 C   0  0  0  0  0  0  0  0  0  0  0  0
  -24.4922  -17.3831   21.9942 C   0  0  0  0  0  0  0  0  0  0  0  0
  -19.0186  -31.7121   23.4100 C   0  0  0  0  0  0  0  0  0  0  0  0
  -24.8814  -28.6506   20.2262 C   0  0  0  0  0  0  0  0  0  0  0  0
  -20.3955  -31.4837   23.2245 C   0  0  0  0  0  0  0  0  0  0  0  0
  -25.3811  -27.5312   20.9070 C   0  0  0  0  0  0  0  0  0  0  0  0
  -22.6906  -12.7011   20.6128 C   0  0  0  0  0  0  0  0  0  0  0  0
  -27.6253  -28.4524   20.7491 C   0  0  0  0  0  0  0  0  0  0  0  0
  -22.5028  -10.3608   20.7132 C   0  0  0  0  0  0  0  0  0  0  0  0
  -23.5950   -7.8998   21.4434 C   0  0  0  0  0  0  0  0  0  0  0  0
  -21.8301   -9.5404   21.6187 C   0  0  0  0  0  0  0  0  0  0  0  0
  -24.9567  -16.1779   21.4342 C   0  0  0  0  0  0  0  0  0  0  0  0
  -29.5786  -22.5633   19.0140 C   0  0  0  0  0  0  0  0  0  0  0  0
  -25.6055  -18.1852   22.0544 C   0  0  0  0  0  0  0  0  0  0  0  0
  -23.1724  -17.7451   22.4217 C   0  0  0  0  0  0  0  0  0  0  0  0
  -22.3977  -28.5495   22.2072 C   0  0  0  0  0  0  0  0  0  0  0  0
  -22.1411  -25.5086   21.1074 C   0  0  0  0  0  0  0  0  0  0  0  0
  -23.6628  -22.8017   19.6917 C   0  0  0  0  0  0  0  0  0  0  0  0
  -30.1584  -20.1602   19.3038 C   0  0  0  0  0  0  0  0  0  0  0  0
  -18.1137  -30.6633   24.0065 C   0  0  0  0  0  0  0  0  0  0  0  0
  -23.4149  -28.7578   19.9099 C   0  0  0  0  0  0  0  0  0  0  0  0
  -24.4790  -26.4190   21.3735 C   0  0  0  0  0  0  0  0  0  0  0  0
  -18.7045  -29.2562   23.9686 C   0  0  0  0  0  0  0  0  0  0  0  0
  -30.4930  -17.1205   21.3673 C   0  0  0  0  0  0  0  0  0  0  0  0
  -20.1526  -29.2722   24.4477 C   0  0  0  0  0  0  0  0  0  0  0  0
  -29.0438  -16.6742   21.5536 C   0  0  0  0  0  0  0  0  0  0  0  0
  -30.6936  -17.8585   20.0471 C   0  0  0  0  0  0  0  0  0  0  0  0
  -28.3220  -18.5697   20.0465 C   0  0  0  0  0  0  0  0  0  0  0  0
  -21.0255  -30.1435   23.5365 C   0  0  1  0  0  0  0  0  0  0  0  0
  -22.5397  -27.9298   20.8458 C   0  0  1  0  0  0  0  0  0  0  0  0
  -28.0787  -17.8607   21.3874 C   0  0  1  0  0  0  0  0  0  0  0  0
  -23.2043  -20.4490   18.9488 C   0  0  0  0  0  0  0  0  0  0  0  0
  -30.0611  -26.8302   22.4944 C   0  0  0  0  0  0  0  0  0  0  0  0
  -22.1699  -24.5872   24.0160 C   0  0  0  0  0  0  0  0  0  0  0  0
  -22.6667  -22.2713   23.2046 C   0  0  0  0  0  0  0  0  0  0  0  0
  -20.5312  -23.3864   22.5574 C   0  0  0  0  0  0  0  0  0  0  0  0
  -28.9982  -21.3720   21.1355 C   0  0  0  0  0  0  0  0  0  0  0  0
  -24.3655  -23.4275   16.8858 C   0  0  0  0  0  0  0  0  0  0  0  0
  -30.0463  -27.0491   18.6059 C   0  0  0  0  0  0  0  0  0  0  0  0
  -30.5961  -26.8592   20.0261 C   0  0  0  0  0  0  0  0  0  0  0  0
  -28.9166  -26.0698   18.2659 C   0  0  0  0  0  0  0  0  0  0  0  0
  -22.7014  -24.1702   21.5241 C   0  0  1  0  0  0  0  0  0  0  0  0
  -23.2572  -21.9105   18.5317 C   0  0  2  0  0  0  0  0  0  0  0  0
  -29.5089  -27.0413   21.0911 C   0  0  2  0  0  0  0  0  0  1  0  0
  -22.0343  -23.6255   22.8186 C   0  0  0  0  0  0  0  0  0  0  0  0
  -30.2448  -22.6757   17.8194 N   0  0  0  0  0  0  0  0  0  0  0  0
  -26.2632  -16.2073   21.1583 N   0  0  0  0  0  0  0  0  0  0  0  0
  -29.3182  -24.6195   18.3627 N   0  0  0  0  0  0  0  0  0  0  0  0
  -26.6292  -17.4408   21.5464 N   0  0  0  0  0  0  0  0  0  0  0  0
  -23.0520  -26.5727   21.0457 N   0  0  0  0  0  0  0  0  0  0  0  0
  -29.7340  -18.9528   19.8939 N   0  0  0  0  0  0  0  0  0  0  0  0
  -25.7988  -19.4476   22.4918 N   0  0  0  0  0  0  0  0  0  0  0  0
  -22.1447  -16.8014   22.2890 N   0  0  0  0  0  0  0  0  0  0  0  0
  -21.3436  -29.4365   22.3145 N   0  0  0  0  0  0  0  0  0  0  0  0
  -22.5651  -23.2924   20.3668 N   0  0  0  0  0  0  0  0  0  0  0  0
  -29.5208  -21.3319   19.7657 N   0  0  0  0  0  0  0  0  0  0  0  0
  -24.2302  -22.0444   17.4108 N   0  3  0  0  0  0  0  0  0  0  0  0
  -22.9089  -18.8778   22.8919 O   0  0  0  0  0  0  0  0  0  0  0  0
  -23.1852  -28.2442   23.0951 O   0  0  0  0  0  0  0  0  0  0  0  0
  -20.9409  -25.6048   20.8394 O   0  0  0  0  0  0  0  0  0  0  0  0
  -24.8360  -23.0359   19.9733 O   0  0  0  0  0  0  0  0  0  0  0  0
  -31.0564  -20.1908   18.4539 O   0  0  0  0  0  0  0  0  0  0  0  0
  -21.9616  -11.5824   20.3491 O   0  0  0  0  0  0  0  0  0  0  0  0
  -28.9576  -28.3549   21.0089 O   0  0  0  0  0  0  0  0  0  1  0  0
  -24.1188   -6.7176   21.7927 F   0  0  0  0  0  0  0  0  0  0  0  0
  -20.6583   -9.9284   22.1403 F   0  0  0  0  0  0  0  0  0  0  0  0
  1  2  1  0  0  0  0
  1  5  2  0  0  0  0
  2  6  2  0  0  0  0
  3  8  2  0  0  0  0
  3 17  1  0  0  0  0
  4  9  1  0  0  0  0
  4 17  2  0  0  0  0
  5 19  1  0  0  0  0
  6 21  1  0  0  0  0
  7 10  2  0  0  0  0
  7 20  1  0  0  0  0
  8 23  1  0  0  0  0
  9 23  2  0  0  0  0
 10 24  1  0  0  0  0
 11 12  2  0  0  0  0
 11 25  1  0  0  0  0
 12 26  1  0  0  0  0
 13 22  1  0  0  0  0
 13 24  2  0  0  0  0
 14 26  2  0  0  0  0
 14 27  1  0  0  0  0
 15 29  2  0  0  0  0
 15 64  1  0  0  0  0
 16 62  2  0  0  0  0
 16 64  1  0  0  0  0
 17 28  1  0  0  0  0
 18 28  1  0  0  0  0
 18 30  2  0  0  0  0
 18 31  1  0  0  0  0
 19 21  2  0  0  0  0
 19 36  1  0  0  0  0
 20 22  2  0  0  0  0
 20 37  1  0  0  0  0
 21 45  1  0  0  0  0
 22 38  1  0  0  0  0
 23 79  1  0  0  0  0
 24 80  1  0  0  0  0
 25 27  2  0  0  0  0
 25 79  1  0  0  0  0
 26 81  1  0  0  0  0
 27 82  1  0  0  0  0
 28 63  2  0  0  0  0
 29 62  1  0  0  0  0
 29 72  1  0  0  0  0
 30 65  1  0  0  0  0
 30 68  1  0  0  0  0
 31 69  1  0  0  0  0
 31 74  2  0  0  0  0
 32 46  1  0  0  0  0
 32 70  1  0  0  0  0
 32 75  2  0  0  0  0
 33 58  1  0  0  0  0
 33 66  1  0  0  0  0
 33 76  2  0  0  0  0
 34 59  1  0  0  0  0
 34 71  1  0  0  0  0
 34 77  2  0  0  0  0
 35 67  1  0  0  0  0
 35 72  1  0  0  0  0
 35 78  2  0  0  0  0
 36 39  1  0  0  0  0
 37 46  1  0  0  0  0
 38 66  1  0  0  0  0
 39 41  1  0  0  0  0
 40 42  1  0  0  0  0
 40 43  1  0  0  0  0
 41 45  1  0  0  0  0
 42 47  1  0  0  0  0
 43 67  1  0  0  0  0
 44 47  1  0  0  0  0
 44 67  1  0  0  0  0
 45 70  1  0  0  0  0
 46 66  1  0  0  0  0
 47 65  1  0  0  0  0
 48 59  1  0  0  0  0
 49 60  1  0  0  0  0
 50 61  1  0  0  0  0
 51 61  1  0  0  0  0
 52 61  1  0  0  0  0
 53 72  1  0  0  0  0
 54 73  1  0  0  0  0
 55 56  1  0  0  0  0
 55 57  1  0  0  0  0
 56 60  1  0  0  0  0
 57 64  1  0  0  0  0
 58 61  1  0  0  0  0
 58 71  1  0  0  0  0
 59 73  1  0  0  0  0
 60 80  1  0  0  0  0
 63 65  1  0  0  0  0
M  CHG  1  73   1
M  ISO  4  35 100  60 101  72 100  80 101
M  END
> <Batch ID>
0107

> <Smiles>
CNC(C)C(=O)NC(C(=O)N1Cc2cc([101O:1][101CH:1](C)CCCn3cnc([100N:0](C)[100C:0](=O)N4CCCC(n5nc(-c6ccc(Oc7ccc(F)cc7F)cc6)c(C(N)=O)c5N)C4)c3)ccc2CC1C(=O)NC1CCCc2ccccc21)C(C)(C)C

> <Shape>
0.252

> <Color>
0.070

> <Negative vol penalty>
0.000

$$$$

  -OEChem-04052319513D

 87 95  0     1  0  0  0  0  0999 V2000
  -17.4417  -14.8494   22.0538 C   0  0  0  0  0  0  0  0  0  0  0  0
  -18.5035  -15.4820   22.6924 C   0  0  0  0  0  0  0  0  0  0  0  0
  -26.9377  -29.5163   20.0767 C   0  0  0  0  0  0  0  0  0  0  0  0
  -27.8592  -28.9498   22.2370 C   0  0  0  0  0  0  0  0  0  0  0  0
  -17.5568  -13.5142   21.6689 C   0  0  0  0  0  0  0  0  0  0  0  0
  -19.6807  -14.7794   22.9475 C   0  0  0  0  0  0  0  0  0  0  0  0
  -23.8258  -17.4507   21.7955 C   0  0  0  0  0  0  0  0  0  0  0  0
  -27.8455  -22.1242   26.7040 C   0  0  0  0  0  0  0  0  0  0  0  0
  -26.0740  -30.4277   20.6841 C   0  0  0  0  0  0  0  0  0  0  0  0
  -26.9955  -29.8612   22.8444 C   0  0  0  0  0  0  0  0  0  0  0  0
  -24.2234  -18.4320   22.7026 C   0  0  0  0  0  0  0  0  0  0  0  0
  -26.8230  -33.2058   23.2967 C   0  0  0  0  0  0  0  0  0  0  0  0
  -27.3560  -34.0530   24.2681 C   0  0  0  0  0  0  0  0  0  0  0  0
  -27.3917  -22.0258   28.0146 C   0  0  0  0  0  0  0  0  0  0  0  0
  -25.8887  -16.9288   23.5895 C   0  0  0  0  0  0  0  0  0  0  0  0
  -25.8193  -33.1498   25.8990 C   0  0  0  0  0  0  0  0  0  0  0  0
  -27.8303  -28.7773   20.8532 C   0  0  0  0  0  0  0  0  0  0  0  0
  -30.0191  -28.0869   19.7395 C   0  0  0  0  0  0  0  0  0  0  0  0
  -18.7395  -12.7978   21.9107 C   0  0  0  0  0  0  0  0  0  0  0  0
  -24.4504  -16.1952   21.7859 C   0  0  0  0  0  0  0  0  0  0  0  0
  -19.8112  -13.4330   22.5667 C   0  0  0  0  0  0  0  0  0  0  0  0
  -25.4989  -15.9342   22.6796 C   0  0  0  0  0  0  0  0  0  0  0  0
  -27.6322  -21.0728   25.8195 C   0  0  0  0  0  0  0  0  0  0  0  0
  -26.1029  -30.6002   22.0679 C   0  0  0  0  0  0  0  0  0  0  0  0
  -25.2530  -18.1701   23.6017 C   0  0  0  0  0  0  0  0  0  0  0  0
  -25.7880  -32.3306   23.6263 C   0  0  0  0  0  0  0  0  0  0  0  0
  -26.8542  -34.0250   25.5693 C   0  0  0  0  0  0  0  0  0  0  0  0
  -25.2862  -32.3026   24.9275 C   0  0  0  0  0  0  0  0  0  0  0  0
  -28.7224  -27.8352   20.2264 C   0  0  0  0  0  0  0  0  0  0  0  0
  -26.7354  -20.8641   28.3881 C   0  0  0  0  0  0  0  0  0  0  0  0
  -26.9653  -19.9537   26.2914 C   0  0  0  0  0  0  0  0  0  0  0  0
  -30.4403  -26.8773   19.2435 C   0  0  0  0  0  0  0  0  0  0  0  0
  -30.7752  -29.3050   19.7359 C   0  0  0  0  0  0  0  0  0  0  0  0
  -23.4888  -13.2076   22.2886 C   0  0  0  0  0  0  0  0  0  0  0  0
  -26.5128  -12.4909   21.3591 C   0  0  0  0  0  0  0  0  0  0  0  0
  -29.7542  -13.5017   21.0143 C   0  0  0  0  0  0  0  0  0  0  0  0
  -28.9273  -21.2161   20.4734 C   0  0  0  0  0  0  0  0  0  0  0  0
  -18.7998  -11.3426   21.5188 C   0  0  0  0  0  0  0  0  0  0  0  0
  -24.0278  -15.1567   20.7832 C   0  0  0  0  0  0  0  0  0  0  0  0
  -26.2154  -14.6096   22.6963 C   0  0  0  0  0  0  0  0  0  0  0  0
  -20.2177  -10.7778   21.4899 C   0  0  0  0  0  0  0  0  0  0  0  0
  -28.7647  -22.8359   17.3069 C   0  0  0  0  0  0  0  0  0  0  0  0
  -20.9809  -11.1868   22.7457 C   0  0  0  0  0  0  0  0  0  0  0  0
  -28.8524  -24.3235   17.6521 C   0  0  0  0  0  0  0  0  0  0  0  0
  -27.9660  -22.0601   18.3521 C   0  0  0  0  0  0  0  0  0  0  0  0
  -28.5181  -23.7219   20.0863 C   0  0  0  0  0  0  0  0  0  0  0  0
  -21.1134  -12.7117   22.8387 C   0  0  1  0  0  0  0  0  0  0  0  0
  -24.3877  -13.7360   21.2068 C   0  0  1  0  0  0  0  0  0  0  0  0
  -29.3616  -24.5363   19.0905 C   0  0  2  0  0  0  0  0  0  0  0  0
  -26.9012  -19.5584   30.5379 C   0  0  0  0  0  0  0  0  0  0  0  0
  -24.7016  -20.5800   29.8500 C   0  0  0  0  0  0  0  0  0  0  0  0
  -32.0035  -12.6828   20.2610 C   0  0  0  0  0  0  0  0  0  0  0  0
  -31.3665  -20.2041   22.3034 C   0  0  0  0  0  0  0  0  0  0  0  0
  -26.7972  -10.8989   23.9464 C   0  0  0  0  0  0  0  0  0  0  0  0
  -29.2770  -10.9155   23.6023 C   0  0  0  0  0  0  0  0  0  0  0  0
  -27.7952   -9.8029   21.9322 C   0  0  0  0  0  0  0  0  0  0  0  0
  -30.4672  -22.1755   24.4933 C   0  0  0  0  0  0  0  0  0  0  0  0
  -30.1623  -19.7655   25.0475 C   0  0  0  0  0  0  0  0  0  0  0  0
  -29.9203  -15.5569   18.8913 C   0  0  0  0  0  0  0  0  0  0  0  0
  -28.1171  -21.1719   24.4146 C   0  0  0  0  0  0  0  0  0  0  0  0
  -26.7041  -18.7898   25.3812 C   0  0  0  0  0  0  0  0  0  1  0  0
  -26.2335  -20.7253   29.7867 C   0  0  0  0  0  0  0  0  0  0  0  0
  -27.8376  -12.3274   22.0642 C   0  0  1  0  0  0  0  0  0  0  0  0
  -30.7241  -13.3957   19.8514 C   0  0  2  0  0  0  0  0  0  0  0  0
  -29.9099  -20.5259   22.6453 C   0  0  1  0  0  0  0  0  0  0  0  0
  -27.9121  -11.0105   22.8875 C   0  0  0  0  0  0  0  0  0  0  0  0
  -29.6454  -20.9134   24.1471 C   0  0  0  0  0  0  0  0  0  0  0  0
  -28.3446  -26.5656   20.0551 N   0  0  0  0  0  0  0  0  0  0  0  0
  -26.5097  -19.8217   27.5573 N   0  0  0  0  0  0  0  0  0  0  0  0
  -29.4103  -26.0086   19.4549 N   0  0  0  0  0  0  0  0  0  0  0  0
  -25.7616  -13.6244   21.7008 N   0  0  0  0  0  0  0  0  0  0  0  0
  -28.5008  -22.3040   19.6939 N   0  0  0  0  0  0  0  0  0  0  0  0
  -31.5876  -26.4827   18.6515 N   0  0  0  0  0  0  0  0  0  0  0  0
  -30.1921  -30.4550   20.2854 N   0  0  0  0  0  0  0  0  0  0  0  0
  -22.1502  -13.1842   21.9463 N   0  0  0  0  0  0  0  0  0  0  0  0
  -28.8651  -12.4479   21.0356 N   0  0  0  0  0  0  0  0  0  0  0  0
  -29.4266  -21.5356   21.7301 N   0  0  0  0  0  0  0  0  0  0  0  0
  -31.0821  -14.7527   19.3501 N   0  3  0  0  0  0  0  0  0  0  0  0
  -31.9273  -29.3757   19.2447 O   0  0  0  0  0  0  0  0  0  0  0  0
  -23.9739  -12.8463   23.3544 O   0  0  0  0  0  0  0  0  0  0  0  0
  -26.1608  -11.6479   20.5302 O   0  0  0  0  0  0  0  0  0  0  0  0
  -29.7847  -14.4248   21.8252 O   0  0  0  0  0  0  0  0  0  0  0  0
  -28.8725  -20.0471   20.0765 O   0  0  0  0  0  0  0  0  0  0  0  0
  -25.2604  -31.4896   22.6610 O   0  0  0  0  0  0  0  0  0  0  0  0
  -25.6426  -19.1259   24.4886 O   0  0  0  0  0  0  0  0  0  1  0  0
  -27.3672  -34.8375   26.5024 F   0  0  0  0  0  0  0  0  0  0  0  0
  -24.2928  -31.4632   25.2505 F   0  0  0  0  0  0  0  0  0  0  0  0
  1  2  1  0  0  0  0
  1  5  2  0  0  0  0
  2  6  2  0  0  0  0
  3  9  2  0  0  0  0
  3 17  1  0  0  0  0
  4 10  1  0  0  0  0
  4 17  2  0  0  0  0
  5 19  1  0  0  0  0
  6 21  1  0  0  0  0
  7 11  2  0  0  0  0
  7 20  1  0  0  0  0
  8 14  2  0  0  0  0
  8 23  1  0  0  0  0
  9 24  1  0  0  0  0
 10 24  2  0  0  0  0
 11 25  1  0  0  0  0
 12 13  2  0  0  0  0
 12 26  1  0  0  0  0
 13 27  1  0  0  0  0
 14 30  1  0  0  0  0
 15 22  1  0  0  0  0
 15 25  2  0  0  0  0
 16 27  2  0  0  0  0
 16 28  1  0  0  0  0
 17 29  1  0  0  0  0
 18 29  1  0  0  0  0
 18 32  2  0  0  0  0
 18 33  1  0  0  0  0
 19 21  2  0  0  0  0
 19 38  1  0  0  0  0
 20 22  2  0  0  0  0
 20 39  1  0  0  0  0
 21 47  1  0  0  0  0
 22 40  1  0  0  0  0
 23 31  2  0  0  0  0
 23 60  1  0  0  0  0
 24 84  1  0  0  0  0
 25 85  1  0  0  0  0
 26 28  2  0  0  0  0
 26 84  1  0  0  0  0
 27 86  1  0  0  0  0
 28 87  1  0  0  0  0
 29 68  2  0  0  0  0
 30 62  1  0  0  0  0
 30 69  2  0  0  0  0
 31 61  1  0  0  0  0
 31 69  1  0  0  0  0
 32 70  1  0  0  0  0
 32 73  1  0  0  0  0
 33 74  1  0  0  0  0
 33 79  2  0  0  0  0
 34 48  1  0  0  0  0
 34 75  1  0  0  0  0
 34 80  2  0  0  0  0
 35 63  1  0  0  0  0
 35 71  1  0  0  0  0
 35 81  2  0  0  0  0
 36 64  1  0  0  0  0
 36 76  1  0  0  0  0
 36 82  2  0  0  0  0
 37 72  1  0  0  0  0
 37 77  1  0  0  0  0
 37 83  2  0  0  0  0
 38 41  1  0  0  0  0
 39 48  1  0  0  0  0
 40 71  1  0  0  0  0
 41 43  1  0  0  0  0
 42 44  1  0  0  0  0
 42 45  1  0  0  0  0
 43 47  1  0  0  0  0
 44 49  1  0  0  0  0
 45 72  1  0  0  0  0
 46 49  1  0  0  0  0
 46 72  1  0  0  0  0
 47 75  1  0  0  0  0
 48 71  1  0  0  0  0
 49 70  1  0  0  0  0
 50 62  1  0  0  0  0
 51 62  1  0  0  0  0
 52 64  1  0  0  0  0
 53 65  1  0  0  0  0
 54 66  1  0  0  0  0
 55 66  1  0  0  0  0
 56 66  1  0  0  0  0
 57 67  1  0  0  0  0
 58 67  1  0  0  0  0
 59 78  1  0  0  0  0
 60 67  1  0  0  0  0
 61 85  1  0  0  0  0
 63 66  1  0  0  0  0
 63 76  1  0  0  0  0
 64 78  1  0  0  0  0
 65 67  1  0  0  0  0
 65 77  1  0  0  0  0
 68 70  1  0  0  0  0
M  CHG  1  78   1
M  ISO  4  37 100  61 101  77 100  85 101
M  END
> <Batch ID>
0107

> <Smiles>
CNC(C)C(=O)NC(C(=O)N1Cc2cc([101O:1][101CH2:1]c3nc(C(C)C)ccc3CC(C)(C)C(C)[100NH:0][100C:0](=O)N3CCCC(n4nc(-c5ccc(Oc6ccc(F)cc6F)cc5)c(C(N)=O)c4N)C3)ccc2CC1C(=O)NC1CCCc2ccccc21)C(C)(C)C

> <Shape>
0.223

> <Color>
0.066

> <Negative vol penalty>
0.000

$$$$

  -OEChem-04052319513D

 81 89  0     1  0  0  0  0  0999 V2000
  -23.2157   -8.2881   22.0636 C   0  0  0  0  0  0  0  0  0  0  0  0
  -24.3685   -9.0537   22.2066 C   0  0  0  0  0  0  0  0  0  0  0  0
  -24.9720  -30.8606   21.1535 C   0  0  0  0  0  0  0  0  0  0  0  0
  -24.7033  -29.3018   22.9797 C   0  0  0  0  0  0  0  0  0  0  0  0
  -22.1776   -8.7387   21.2492 C   0  0  0  0  0  0  0  0  0  0  0  0
  -24.4843  -10.2699   21.5343 C   0  0  0  0  0  0  0  0  0  0  0  0
  -27.3184  -15.3211   23.5242 C   0  0  0  0  0  0  0  0  0  0  0  0
  -24.2734  -31.8277   21.8762 C   0  0  0  0  0  0  0  0  0  0  0  0
  -24.0048  -30.2690   23.7025 C   0  0  0  0  0  0  0  0  0  0  0  0
  -28.5840  -15.8481   23.2706 C   0  0  0  0  0  0  0  0  0  0  0  0
  -22.8738  -34.8239   23.3860 C   0  0  0  0  0  0  0  0  0  0  0  0
  -23.3949  -36.1175   23.4101 C   0  0  0  0  0  0  0  0  0  0  0  0
  -27.6436  -17.2683   21.5623 C   0  0  0  0  0  0  0  0  0  0  0  0
  -29.1790  -20.8406   19.6446 C   0  0  0  0  0  0  0  0  0  0  0  0
  -25.4218  -35.2822   24.4255 C   0  0  0  0  0  0  0  0  0  0  0  0
  -25.1869  -29.5976   21.7053 C   0  0  0  0  0  0  0  0  0  0  0  0
  -27.2968  -28.3682   20.9674 C   0  0  0  0  0  0  0  0  0  0  0  0
  -22.2767   -9.9656   20.5743 C   0  0  0  0  0  0  0  0  0  0  0  0
  -26.2058  -15.7565   22.7900 C   0  0  0  0  0  0  0  0  0  0  0  0
  -23.4470  -10.7367   20.7091 C   0  0  0  0  0  0  0  0  0  0  0  0
  -26.3646  -16.7470   21.8103 C   0  0  0  0  0  0  0  0  0  0  0  0
  -29.7056  -19.5914   19.2332 C   0  0  0  0  0  0  0  0  0  0  0  0
  -23.7898  -31.5319   23.1507 C   0  0  0  0  0  0  0  0  0  0  0  0
  -28.7472  -16.8198   22.2876 C   0  0  0  0  0  0  0  0  0  0  0  0
  -23.6267  -33.7593   23.8816 C   0  0  0  0  0  0  0  0  0  0  0  0
  -24.6689  -36.3467   23.9298 C   0  0  0  0  0  0  0  0  0  0  0  0
  -24.9007  -33.9885   24.4014 C   0  0  0  0  0  0  0  0  0  0  0  0
  -25.9080  -28.5980   20.9590 C   0  0  0  0  0  0  0  0  0  0  0  0
  -28.8759  -19.0988   18.2502 C   0  0  0  0  0  0  0  0  0  0  0  0
  -28.0433  -21.0733   18.9006 C   0  0  0  0  0  0  0  0  0  0  0  0
  -27.4765  -27.3190   20.0994 C   0  0  0  0  0  0  0  0  0  0  0  0
  -28.3319  -29.0427   21.6949 C   0  0  0  0  0  0  0  0  0  0  0  0
  -24.1325  -14.3658   20.8226 C   0  0  0  0  0  0  0  0  0  0  0  0
  -22.6770  -17.2625   20.9361 C   0  0  0  0  0  0  0  0  0  0  0  0
  -22.9445  -20.6196   21.4883 C   0  0  0  0  0  0  0  0  0  0  0  0
  -26.0028  -22.3276   18.1202 C   0  0  0  0  0  0  0  0  0  0  0  0
  -21.1480  -10.3887   19.6678 C   0  0  0  0  0  0  0  0  0  0  0  0
  -24.8430  -15.1974   23.0941 C   0  0  0  0  0  0  0  0  0  0  0  0
  -25.1989  -17.2631   21.0082 C   0  0  0  0  0  0  0  0  0  0  0  0
  -21.1943  -11.8660   19.2862 C   0  0  0  0  0  0  0  0  0  0  0  0
  -24.2682  -25.1587   16.8342 C   0  0  0  0  0  0  0  0  0  0  0  0
  -22.6051  -12.2645   18.8645 C   0  0  0  0  0  0  0  0  0  0  0  0
  -24.6545  -26.2870   17.7934 C   0  0  0  0  0  0  0  0  0  0  0  0
  -24.1008  -23.8268   17.5634 C   0  0  0  0  0  0  0  0  0  0  0  0
  -25.6298  -24.5540   19.3530 C   0  0  0  0  0  0  0  0  0  0  0  0
  -23.5998  -12.0731   20.0158 C   0  0  1  0  0  0  0  0  0  0  0  0
  -23.8648  -15.3426   21.9324 C   0  0  1  0  0  0  0  0  0  0  0  0
  -25.8732  -25.9019   18.6548 C   0  0  2  0  0  0  0  0  0  0  0  0
  -28.9345  -17.8490   17.4677 C   0  0  0  0  0  0  0  0  0  0  0  0
  -21.5919  -22.7333   21.4680 C   0  0  0  0  0  0  0  0  0  0  0  0
  -30.5345  -19.0113   23.6641 C   0  0  0  0  0  0  0  0  0  0  0  0
  -22.7652  -17.2867   17.8862 C   0  0  0  0  0  0  0  0  0  0  0  0
  -22.3015  -19.7459   17.9617 C   0  0  0  0  0  0  0  0  0  0  0  0
  -20.6303  -18.1347   18.8748 C   0  0  0  0  0  0  0  0  0  0  0  0
  -23.4433  -21.1038   24.3651 C   0  0  0  0  0  0  0  0  0  0  0  0
  -30.9466  -18.9287   19.7759 C   0  0  0  0  0  0  0  0  0  0  0  0
  -31.2251  -19.2499   21.2515 C   0  0  0  0  0  0  0  0  0  0  0  0
  -22.7797  -18.5424   20.1421 C   0  0  1  0  0  0  0  0  0  0  0  0
  -22.1006  -21.5753   22.3124 C   0  0  2  0  0  0  0  0  0  0  0  0
  -30.1462  -18.7416   22.2159 C   0  0  1  0  0  0  0  0  0  1  0  0
  -22.1416  -18.4165   18.7298 C   0  0  0  0  0  0  0  0  0  0  0  0
  -25.2519  -27.7622   20.1497 N   0  0  0  0  0  0  0  0  0  0  0  0
  -27.8687  -20.0079   18.0566 N   0  0  0  0  0  0  0  0  0  0  0  0
  -26.2329  -26.9970   19.6414 N   0  0  0  0  0  0  0  0  0  0  0  0
  -23.8876  -16.6808   21.3382 N   0  0  0  0  0  0  0  0  0  0  0  0
  -25.2954  -23.5256   18.3553 N   0  0  0  0  0  0  0  0  0  0  0  0
  -28.5755  -26.6498   19.6909 N   0  0  0  0  0  0  0  0  0  0  0  0
  -27.9729  -30.0993   22.5429 N   0  0  0  0  0  0  0  0  0  0  0  0
  -27.1400  -22.1649   18.9106 N   0  0  0  0  0  0  0  0  0  0  0  0
  -23.4829  -13.1551   20.9699 N   0  0  0  0  0  0  0  0  0  0  0  0
  -22.1903  -19.5866   20.9731 N   0  0  0  0  0  0  0  0  0  0  0  0
  -22.9002  -22.1317   23.4402 N   0  3  0  0  0  0  0  0  0  0  0  0
  -29.5413  -28.7289   21.5833 O   0  0  0  0  0  0  0  0  0  0  0  0
  -24.8723  -14.6872   19.9001 O   0  0  0  0  0  0  0  0  0  0  0  0
  -21.5634  -16.7999   21.1961 O   0  0  0  0  0  0  0  0  0  0  0  0
  -24.1512  -20.7760   21.3156 O   0  0  0  0  0  0  0  0  0  0  0  0
  -25.6426  -21.5194   17.2605 O   0  0  0  0  0  0  0  0  0  0  0  0
  -23.1083  -32.4755   23.8562 O   0  0  0  0  0  0  0  0  0  0  0  0
  -29.9815  -17.3354   22.0376 O   0  0  0  0  0  0  0  0  0  1  0  0
  -25.1697  -37.5888   23.9516 F   0  0  0  0  0  0  0  0  0  0  0  0
  -25.6292  -32.9697   24.8779 F   0  0  0  0  0  0  0  0  0  0  0  0
  1  2  1  0  0  0  0
  1  5  2  0  0  0  0
  2  6  2  0  0  0  0
  3  8  2  0  0  0  0
  3 16  1  0  0  0  0
  4  9  1  0  0  0  0
  4 16  2  0  0  0  0
  5 18  1  0  0  0  0
  6 20  1  0  0  0  0
  7 10  2  0  0  0  0
  7 19  1  0  0  0  0
  8 23  1  0  0  0  0
  9 23  2  0  0  0  0
 10 24  1  0  0  0  0
 11 12  2  0  0  0  0
 11 25  1  0  0  0  0
 12 26  1  0  0  0  0
 13 21  1  0  0  0  0
 13 24  2  0  0  0  0
 14 22  1  0  0  0  0
 14 30  2  0  0  0  0
 15 26  2  0  0  0  0
 15 27  1  0  0  0  0
 16 28  1  0  0  0  0
 17 28  1  0  0  0  0
 17 31  2  0  0  0  0
 17 32  1  0  0  0  0
 18 20  2  0  0  0  0
 18 37  1  0  0  0  0
 19 21  2  0  0  0  0
 19 38  1  0  0  0  0
 20 46  1  0  0  0  0
 21 39  1  0  0  0  0
 22 29  2  0  0  0  0
 22 56  1  0  0  0  0
 23 78  1  0  0  0  0
 24 79  1  0  0  0  0
 25 27  2  0  0  0  0
 25 78  1  0  0  0  0
 26 80  1  0  0  0  0
 27 81  1  0  0  0  0
 28 62  2  0  0  0  0
 29 49  1  0  0  0  0
 29 63  1  0  0  0  0
 30 63  1  0  0  0  0
 30 69  1  0  0  0  0
 31 64  1  0  0  0  0
 31 67  1  0  0  0  0
 32 68  1  0  0  0  0
 32 73  2  0  0  0  0
 33 47  1  0  0  0  0
 33 70  1  0  0  0  0
 33 74  2  0  0  0  0
 34 58  1  0  0  0  0
 34 65  1  0  0  0  0
 34 75  2  0  0  0  0
 35 59  1  0  0  0  0
 35 71  1  0  0  0  0
 35 76  2  0  0  0  0
 36 66  1  0  0  0  0
 36 69  1  0  0  0  0
 36 77  2  0  0  0  0
 37 40  1  0  0  0  0
 38 47  1  0  0  0  0
 39 65  1  0  0  0  0
 40 42  1  0  0  0  0
 41 43  1  0  0  0  0
 41 44  1  0  0  0  0
 42 46  1  0  0  0  0
 43 48  1  0  0  0  0
 44 66  1  0  0  0  0
 45 48  1  0  0  0  0
 45 66  1  0  0  0  0
 46 70  1  0  0  0  0
 47 65  1  0  0  0  0
 48 64  1  0  0  0  0
 50 59  1  0  0  0  0
 51 60  1  0  0  0  0
 52 61  1  0  0  0  0
 53 61  1  0  0  0  0
 54 61  1  0  0  0  0
 55 72  1  0  0  0  0
 56 57  1  0  0  0  0
 57 60  1  0  0  0  0
 58 61  1  0  0  0  0
 58 71  1  0  0  0  0
 59 72  1  0  0  0  0
 60 79  1  0  0  0  0
 62 64  1  0  0  0  0
M  CHG  1  72   1
M  ISO  4  36 100  60 101  69 100  79 101
M  END
> <Batch ID>
0107

> <Smiles>
CNC(C)C(=O)NC(C(=O)N1Cc2cc([101O:1][101CH:1](C)CCc3cc([100NH:0][100C:0](=O)N4CCCC(n5nc(-c6ccc(Oc7ccc(F)cc7F)cc6)c(C(N)=O)c5N)C4)[nH]c3C)ccc2CC1C(=O)NC1CCCc2ccccc21)C(C)(C)C

> <Shape>
0.231

> <Color>
0.073

> <Negative vol penalty>
0.000

$$$$

  -OEChem-04052319513D

 88 97  0     1  0  0  0  0  0999 V2000
  -30.8688  -33.2184   14.0915 C   0  0  0  0  0  0  0  0  0  0  0  0
  -31.7459  -32.1386   14.0988 C   0  0  0  0  0  0  0  0  0  0  0  0
  -22.6671  -10.2004   20.1656 C   0  0  0  0  0  0  0  0  0  0  0  0
  -24.3200   -9.4132   21.7421 C   0  0  0  0  0  0  0  0  0  0  0  0
  -30.0222  -33.4348   15.1779 C   0  0  0  0  0  0  0  0  0  0  0  0
  -31.7777  -31.2750   15.1932 C   0  0  0  0  0  0  0  0  0  0  0  0
  -32.8870  -24.3931   16.8440 C   0  0  0  0  0  0  0  0  0  0  0  0
  -30.3196  -18.7258   23.4640 C   0  0  0  0  0  0  0  0  0  0  0  0
  -21.9307   -9.0309   20.3536 C   0  0  0  0  0  0  0  0  0  0  0  0
  -23.5835   -8.2437   21.9303 C   0  0  0  0  0  0  0  0  0  0  0  0
  -33.6519  -23.6002   17.6984 C   0  0  0  0  0  0  0  0  0  0  0  0
  -20.8362   -7.2811   23.6468 C   0  0  0  0  0  0  0  0  0  0  0  0
  -20.6521   -6.8364   24.9560 C   0  0  0  0  0  0  0  0  0  0  0  0
  -29.8333  -17.5241   22.9612 C   0  0  0  0  0  0  0  0  0  0  0  0
  -32.0877  -24.0266   19.4846 C   0  0  0  0  0  0  0  0  0  0  0  0
  -21.7711   -4.7659   24.4101 C   0  0  0  0  0  0  0  0  0  0  0  0
  -23.8618  -10.3916   20.8598 C   0  0  0  0  0  0  0  0  0  0  0  0
  -24.2000  -12.9196   20.9090 C   0  0  0  0  0  0  0  0  0  0  0  0
  -30.0368  -32.5679   16.2820 C   0  0  0  0  0  0  0  0  0  0  0  0
  -31.7206  -25.0186   17.3072 C   0  0  0  0  0  0  0  0  0  0  0  0
  -30.9314  -31.4808   16.2960 C   0  0  0  0  0  0  0  0  0  0  0  0
  -31.5708  -19.1837   23.0666 C   0  0  0  0  0  0  0  0  0  0  0  0
  -31.3084  -24.8249   18.6334 C   0  0  0  0  0  0  0  0  0  0  0  0
  -22.3888   -8.0525   21.2360 C   0  0  0  0  0  0  0  0  0  0  0  0
  -33.2539  -23.4192   19.0197 C   0  0  0  0  0  0  0  0  0  0  0  0
  -21.4877   -6.4681   22.7192 C   0  0  0  0  0  0  0  0  0  0  0  0
  -21.1196   -5.5789   25.3377 C   0  0  0  0  0  0  0  0  0  0  0  0
  -21.9551   -5.2106   23.1008 C   0  0  0  0  0  0  0  0  0  0  0  0
  -24.6233  -11.5992   20.6655 C   0  0  0  0  0  0  0  0  0  0  0  0
  -32.2907  -18.4089   22.1714 C   0  0  0  0  0  0  0  0  0  0  0  0
  -30.6309  -16.8237   22.0706 C   0  0  0  0  0  0  0  0  0  0  0  0
  -25.2816  -13.6951   20.5693 C   0  0  0  0  0  0  0  0  0  0  0  0
  -22.9418  -13.4019   21.3987 C   0  0  0  0  0  0  0  0  0  0  0  0
  -30.7639  -28.0340   17.6169 C   0  0  0  0  0  0  0  0  0  0  0  0
  -27.9510  -26.6472   18.4455 C   0  0  0  0  0  0  0  0  0  0  0  0
  -26.3196  -23.9112   19.6701 C   0  0  0  0  0  0  0  0  0  0  0  0
  -30.7504  -14.7368   20.6647 C   0  0  0  0  0  0  0  0  0  0  0  0
  -29.1365  -32.8696   17.4538 C   0  0  0  0  0  0  0  0  0  0  0  0
  -30.8922  -25.8491   16.3657 C   0  0  0  0  0  0  0  0  0  0  0  0
  -30.0533  -25.4579   19.1742 C   0  0  0  0  0  0  0  0  0  0  0  0
  -28.9674  -31.6924   18.4109 C   0  0  0  0  0  0  0  0  0  0  0  0
  -29.5702  -12.4941   18.1637 C   0  0  0  0  0  0  0  0  0  0  0  0
  -30.3200  -31.0604   18.7240 C   0  0  0  0  0  0  0  0  0  0  0  0
  -28.1432  -12.1700   18.6117 C   0  0  0  0  0  0  0  0  0  0  0  0
  -32.7449  -21.8780   25.6516 C   0  0  0  0  0  0  0  0  0  0  0  0
  -30.5186  -12.6393   19.3525 C   0  0  0  0  0  0  0  0  0  0  0  0
  -28.6511  -13.2604   20.8343 C   0  0  0  0  0  0  0  0  0  0  0  0
  -31.8368  -22.9950   25.1659 C   0  0  0  0  0  0  0  0  0  0  0  0
  -31.2127  -21.6540   23.1528 C   0  0  0  0  0  0  0  0  0  0  0  0
  -32.1096  -20.4967   23.6137 C   0  0  1  0  0  0  0  0  0  0  0  0
  -30.9778  -30.5076   17.4540 C   0  0  1  0  0  0  0  0  0  0  0  0
  -29.9989  -26.8554   17.0846 C   0  0  1  0  0  0  0  0  0  0  0  0
  -32.2823  -20.4955   25.1570 C   0  0  1  0  0  0  0  0  0  0  0  0
  -27.6457  -13.1689   19.6748 C   0  0  2  0  0  0  0  0  0  0  0  0
  -33.2797  -19.4295   25.6248 C   0  0  0  0  0  0  0  0  0  0  0  0
  -24.0250  -23.0902   20.2688 C   0  0  0  0  0  0  0  0  0  0  0  0
  -28.0180  -28.3249   20.9932 C   0  0  0  0  0  0  0  0  0  0  0  0
  -26.2737  -26.8080   21.9548 C   0  0  0  0  0  0  0  0  0  0  0  0
  -25.7675  -28.1533   19.9160 C   0  0  0  0  0  0  0  0  0  0  0  0
  -26.4618  -21.7164   17.6898 C   0  0  0  0  0  0  0  0  0  0  0  0
  -33.6471  -18.8535   21.7091 C   0  0  0  0  0  0  0  0  0  0  0  0
  -34.9197  -20.4678   20.2902 C   0  0  0  0  0  0  0  0  0  0  0  0
  -34.7296  -21.5708   19.2679 C   0  0  0  0  0  0  0  0  0  1  0  0
  -27.3318  -26.1750   19.7388 C   0  0  1  0  0  0  0  0  0  0  0  0
  -25.0865  -23.1718   19.1828 C   0  0  2  0  0  0  0  0  0  0  0  0
  -26.8725  -27.3548   20.6414 C   0  0  0  0  0  0  0  0  0  0  0  0
  -25.8760  -11.5358   20.2063 N   0  0  0  0  0  0  0  0  0  0  0  0
  -31.8515  -17.2365   21.6614 N   0  0  0  0  0  0  0  0  0  0  0  0
  -26.2491  -12.8260   20.1585 N   0  0  0  0  0  0  0  0  0  0  0  0
  -29.2807  -26.2660   18.2164 N   0  0  0  0  0  0  0  0  0  0  0  0
  -29.9844  -13.6044   20.3158 N   0  0  0  0  0  0  0  0  0  0  0  0
  -25.4898  -15.0288   20.5847 N   0  0  0  0  0  0  0  0  0  0  0  0
  -22.7750  -13.5480   22.7826 N   0  0  0  0  0  0  0  0  0  0  0  0
  -30.1262  -15.6004   21.5642 N   0  0  0  0  0  0  0  0  0  0  0  0
  -30.3745  -29.2464   17.0802 N   0  0  0  0  0  0  0  0  0  0  0  0
  -26.2621  -25.2552   19.3674 N   0  0  0  0  0  0  0  0  0  0  0  0
  -31.7513  -22.9419   23.6792 N   0  3  0  0  0  0  0  0  0  0  0  0
  -25.4436  -21.7853   18.7694 N   0  3  0  0  0  0  0  0  0  0  0  0
  -33.5910  -19.9653   20.7219 N   0  3  0  0  0  0  0  0  0  0  0  0
  -21.9878  -13.6791   20.6327 O   0  0  0  0  0  0  0  0  0  0  0  0
  -31.6414  -27.8568   18.4537 O   0  0  0  0  0  0  0  0  0  0  0  0
  -27.2772  -27.3230   17.6638 O   0  0  0  0  0  0  0  0  0  0  0  0
  -27.2398  -23.3530   20.2635 O   0  0  0  0  0  0  0  0  0  0  0  0
  -31.8660  -14.9404   20.1788 O   0  0  0  0  0  0  0  0  0  0  0  0
  -21.6703   -6.9113   21.4200 O   0  0  0  0  0  0  0  0  0  0  0  0
  -33.9990  -22.6463   19.8559 O   0  0  0  0  0  0  0  0  0  1  0  0
  -20.9442   -5.1527   26.5953 F   0  0  0  0  0  0  0  0  0  0  0  0
  -22.5828   -4.4256   22.2145 F   0  0  0  0  0  0  0  0  0  0  0  0
  1  2  1  0  0  0  0
  1  5  2  0  0  0  0
  2  6  2  0  0  0  0
  3  9  2  0  0  0  0
  3 17  1  0  0  0  0
  4 10  1  0  0  0  0
  4 17  2  0  0  0  0
  5 19  1  0  0  0  0
  6 21  1  0  0  0  0
  7 11  2  0  0  0  0
  7 20  1  0  0  0  0
  8 14  2  0  0  0  0
  8 22  1  0  0  0  0
  9 24  1  0  0  0  0
 10 24  2  0  0  0  0
 11 25  1  0  0  0  0
 12 13  2  0  0  0  0
 12 26  1  0  0  0  0
 13 27  1  0  0  0  0
 14 31  1  0  0  0  0
 15 23  1  0  0  0  0
 15 25  2  0  0  0  0
 16 27  2  0  0  0  0
 16 28  1  0  0  0  0
 17 29  1  0  0  0  0
 18 29  1  0  0  0  0
 18 32  2  0  0  0  0
 18 33  1  0  0  0  0
 19 21  2  0  0  0  0
 19 38  1  0  0  0  0
 20 23  2  0  0  0  0
 20 39  1  0  0  0  0
 21 51  1  0  0  0  0
 22 30  2  0  0  0  0
 22 50  1  0  0  0  0
 23 40  1  0  0  0  0
 24 85  1  0  0  0  0
 25 86  1  0  0  0  0
 26 28  2  0  0  0  0
 26 85  1  0  0  0  0
 27 87  1  0  0  0  0
 28 88  1  0  0  0  0
 29 67  2  0  0  0  0
 30 61  1  0  0  0  0
 30 68  1  0  0  0  0
 31 68  2  0  0  0  0
 31 74  1  0  0  0  0
 32 69  1  0  0  0  0
 32 72  1  0  0  0  0
 33 73  1  0  0  0  0
 33 80  2  0  0  0  0
 34 52  1  0  0  0  0
 34 75  1  0  0  0  0
 34 81  2  0  0  0  0
 35 64  1  0  0  0  0
 35 70  1  0  0  0  0
 35 82  2  0  0  0  0
 36 65  1  0  0  0  0
 36 76  1  0  0  0  0
 36 83  2  0  0  0  0
 37 71  1  0  0  0  0
 37 74  1  0  0  0  0
 37 84  2  0  0  0  0
 38 41  1  0  0  0  0
 39 52  1  0  0  0  0
 40 70  1  0  0  0  0
 41 43  1  0  0  0  0
 42 44  1  0  0  0  0
 42 46  1  0  0  0  0
 43 51  1  0  0  0  0
 44 54  1  0  0  0  0
 45 48  1  0  0  0  0
 45 53  1  0  0  0  0
 46 71  1  0  0  0  0
 47 54  1  0  0  0  0
 47 71  1  0  0  0  0
 48 77  1  0  0  0  0
 49 50  1  0  0  0  0
 49 77  1  0  0  0  0
 50 53  1  0  0  0  0
 51 75  1  0  0  0  0
 52 70  1  0  0  0  0
 53 55  1  0  0  0  0
 54 69  1  0  0  0  0
 56 65  1  0  0  0  0
 57 66  1  0  0  0  0
 58 66  1  0  0  0  0
 59 66  1  0  0  0  0
 60 78  1  0  0  0  0
 61 79  1  0  0  0  0
 62 63  1  0  0  0  0
 62 79  1  0  0  0  0
 63 86  1  0  0  0  0
 64 66  1  0  0  0  0
 64 76  1  0  0  0  0
 65 78  1  0  0  0  0
 67 69  1  0  0  0  0
M  CHG  3  77   1  78   1  79   1
M  ISO  4  37 100  63 101  74 100  86 101
M  END
> <Batch ID>
0107

> <Smiles>
CNC(C)C(=O)NC(C(=O)N1Cc2cc([101O:1][101CH2:1]CNCc3nc([100NH:0][100C:0](=O)N4CCCC(n5nc(-c6ccc(Oc7ccc(F)cc7F)cc6)c(C(N)=O)c5N)C4)ccc3C3CNCCC3C)ccc2CC1C(=O)NC1CCCc2ccccc21)C(C)(C)C

> <Shape>
0.250

> <Color>
0.165

> <Negative vol penalty>
0.000

$$$$

  -OEChem-04052319513D

 79 86  0     1  0  0  0  0  0999 V2000
  -20.0398  -25.6408   27.0198 C   0  0  0  0  0  0  0  0  0  0  0  0
  -21.0392  -24.6784   27.1223 C   0  0  0  0  0  0  0  0  0  0  0  0
  -23.2424   -9.7709   19.9672 C   0  0  0  0  0  0  0  0  0  0  0  0
  -23.6543   -9.9712   22.3394 C   0  0  0  0  0  0  0  0  0  0  0  0
  -19.4226  -25.8749   25.7917 C   0  0  0  0  0  0  0  0  0  0  0  0
  -21.4212  -23.9488   25.9971 C   0  0  0  0  0  0  0  0  0  0  0  0
  -26.4503  -23.5587   25.5497 C   0  0  0  0  0  0  0  0  0  0  0  0
  -22.4748   -8.6291   20.1968 C   0  0  0  0  0  0  0  0  0  0  0  0
  -22.8866   -8.8294   22.5691 C   0  0  0  0  0  0  0  0  0  0  0  0
  -27.0915  -22.6257   26.3634 C   0  0  0  0  0  0  0  0  0  0  0  0
  -23.0124   -5.3537   20.8349 C   0  0  0  0  0  0  0  0  0  0  0  0
  -23.2220   -4.2545   20.0023 C   0  0  0  0  0  0  0  0  0  0  0  0
  -27.1780  -21.0805   24.5130 C   0  0  0  0  0  0  0  0  0  0  0  0
  -20.9152   -4.3532   19.2911 C   0  0  0  0  0  0  0  0  0  0  0  0
  -23.8322  -10.4419   21.0385 C   0  0  0  0  0  0  0  0  0  0  0  0
  -24.1769  -12.9550   20.7673 C   0  0  0  0  0  0  0  0  0  0  0  0
  -19.8039  -25.1546   24.6487 C   0  0  0  0  0  0  0  0  0  0  0  0
  -26.1579  -23.2551   24.2123 C   0  0  0  0  0  0  0  0  0  0  0  0
  -20.8075  -24.1726   24.7529 C   0  0  0  0  0  0  0  0  0  0  0  0
  -26.5354  -22.0124   23.6837 C   0  0  0  0  0  0  0  0  0  0  0  0
  -22.2969   -8.1584   21.4978 C   0  0  0  0  0  0  0  0  0  0  0  0
  -27.4528  -21.3852   25.8459 C   0  0  0  0  0  0  0  0  0  0  0  0
  -21.7541   -5.9527   20.8957 C   0  0  0  0  0  0  0  0  0  0  0  0
  -22.1735   -3.7543   19.2303 C   0  0  0  0  0  0  0  0  0  0  0  0
  -20.7055   -5.4525   20.1238 C   0  0  0  0  0  0  0  0  0  0  0  0
  -24.6257  -11.6211   20.8018 C   0  0  0  0  0  0  0  0  0  0  0  0
  -25.3075  -13.6911   20.5097 C   0  0  0  0  0  0  0  0  0  0  0  0
  -22.8561  -13.4815   20.9517 C   0  0  0  0  0  0  0  0  0  0  0  0
  -23.4910  -22.9946   22.5025 C   0  0  0  0  0  0  0  0  0  0  0  0
  -25.5689  -22.6410   20.0369 C   0  0  0  0  0  0  0  0  0  0  0  0
  -28.6947  -21.7630   18.9855 C   0  0  0  0  0  0  0  0  0  0  0  0
  -31.1322  -12.6880   21.4675 C   0  0  0  0  0  0  0  0  0  0  0  0
  -19.0750  -25.4097   23.3532 C   0  0  0  0  0  0  0  0  0  0  0  0
  -25.4898  -24.2825   23.3403 C   0  0  0  0  0  0  0  0  0  0  0  0
  -26.2624  -21.6450   22.2488 C   0  0  0  0  0  0  0  0  0  0  0  0
  -19.7983  -24.8563   22.1282 C   0  0  0  0  0  0  0  0  0  0  0  0
  -29.5642  -13.3831   18.3474 C   0  0  0  0  0  0  0  0  0  0  0  0
  -20.2691  -23.4285   22.3860 C   0  0  0  0  0  0  0  0  0  0  0  0
  -28.0803  -13.1307   18.6195 C   0  0  0  0  0  0  0  0  0  0  0  0
  -30.4523  -12.3972   19.1032 C   0  0  0  0  0  0  0  0  0  0  0  0
  -28.7211  -12.0764   20.8278 C   0  0  0  0  0  0  0  0  0  0  0  0
  -21.2667  -23.3781   23.5496 C   0  0  1  0  0  0  0  0  0  0  0  0
  -24.7803  -23.6730   22.1351 C   0  0  1  0  0  0  0  0  0  0  0  0
  -27.7879  -13.0815   20.1312 C   0  0  2  0  0  0  0  0  0  0  0  0
  -30.0841  -21.5408   16.9077 C   0  0  0  0  0  0  0  0  0  0  0  0
  -27.1868  -18.4377   27.5468 C   0  0  0  0  0  0  0  0  0  0  0  0
  -24.1023  -20.0591   19.3351 C   0  0  0  0  0  0  0  0  0  0  0  0
  -26.0572  -19.4184   17.9082 C   0  0  0  0  0  0  0  0  0  0  0  0
  -24.7382  -21.4655   17.3674 C   0  0  0  0  0  0  0  0  0  0  0  0
  -30.6501  -23.7696   19.9389 C   0  0  0  0  0  0  0  0  0  0  0  0
  -30.4475  -16.4536   25.0993 C   0  0  0  0  0  0  0  0  0  0  0  0
  -30.3508  -14.9808   24.6959 C   0  0  0  0  0  0  0  0  0  0  0  0
  -29.0868  -17.0021   25.5352 C   0  0  0  0  0  0  0  0  0  0  0  0
  -31.7071  -14.4422   24.2312 C   0  0  0  0  0  0  0  0  0  0  0  0
  -29.1924  -18.4651   25.9673 C   0  0  0  0  0  0  0  0  0  0  0  0
  -31.6567  -12.9590   23.8780 C   0  0  0  0  0  0  0  0  0  0  0  0
  -26.2636  -21.4707   19.3836 C   0  0  1  0  0  0  0  0  0  0  0  0
  -29.6748  -22.4527   18.0538 C   0  0  2  0  0  0  0  0  0  0  0  0
  -27.8458  -19.0923   26.3400 C   0  0  2  0  0  0  0  0  0  1  0  0
  -25.2939  -20.6093   18.5262 C   0  0  0  0  0  0  0  0  0  0  0  0
  -25.9390  -11.5132   20.5834 N   0  0  0  0  0  0  0  0  0  0  0  0
  -26.3250  -12.7886   20.4092 N   0  0  0  0  0  0  0  0  0  0  0  0
  -25.6013  -22.6809   21.4380 N   0  0  0  0  0  0  0  0  0  0  0  0
  -30.1254  -12.4002   20.5312 N   0  0  0  0  0  0  0  0  0  0  0  0
  -25.5205  -15.0159   20.3616 N   0  0  0  0  0  0  0  0  0  0  0  0
  -21.8094  -12.5854   21.2083 N   0  0  0  0  0  0  0  0  0  0  0  0
  -22.5727  -23.8256   23.1153 N   0  0  0  0  0  0  0  0  0  0  0  0
  -27.3869  -22.0273   18.6376 N   0  0  0  0  0  0  0  0  0  0  0  0
  -30.7363  -12.6762   22.7993 N   0  0  0  0  0  0  0  0  0  0  0  0
  -30.9027  -22.8527   18.7977 N   0  3  0  0  0  0  0  0  0  0  0  0
  -22.6085  -14.7088   20.8744 O   0  0  0  0  0  0  0  0  0  0  0  0
  -23.3399  -21.8055   22.2476 O   0  0  0  0  0  0  0  0  0  0  0  0
  -25.0240  -23.4923   19.3298 O   0  0  0  0  0  0  0  0  0  0  0  0
  -29.0534  -21.0571   19.9255 O   0  0  0  0  0  0  0  0  0  0  0  0
  -32.2964  -12.9424   21.1404 O   0  0  0  0  0  0  0  0  0  0  0  0
  -21.5477   -7.0444   21.7223 O   0  0  0  0  0  0  0  0  0  0  0  0
  -28.0813  -20.4678   26.6421 O   0  0  0  0  0  0  0  0  0  1  0  0
  -22.3754   -2.6996   18.4296 F   0  0  0  0  0  0  0  0  0  0  0  0
  -19.4948   -6.0244   20.1771 F   0  0  0  0  0  0  0  0  0  0  0  0
  1  2  1  0  0  0  0
  1  5  2  0  0  0  0
  2  6  2  0  0  0  0
  3  8  2  0  0  0  0
  3 15  1  0  0  0  0
  4  9  1  0  0  0  0
  4 15  2  0  0  0  0
  5 17  1  0  0  0  0
  6 19  1  0  0  0  0
  7 10  2  0  0  0  0
  7 18  1  0  0  0  0
  8 21  1  0  0  0  0
  9 21  2  0  0  0  0
 10 22  1  0  0  0  0
 11 12  2  0  0  0  0
 11 23  1  0  0  0  0
 12 24  1  0  0  0  0
 13 20  1  0  0  0  0
 13 22  2  0  0  0  0
 14 24  2  0  0  0  0
 14 25  1  0  0  0  0
 15 26  1  0  0  0  0
 16 26  1  0  0  0  0
 16 27  2  0  0  0  0
 16 28  1  0  0  0  0
 17 19  2  0  0  0  0
 17 33  1  0  0  0  0
 18 20  2  0  0  0  0
 18 34  1  0  0  0  0
 19 42  1  0  0  0  0
 20 35  1  0  0  0  0
 21 76  1  0  0  0  0
 22 77  1  0  0  0  0
 23 25  2  0  0  0  0
 23 76  1  0  0  0  0
 24 78  1  0  0  0  0
 25 79  1  0  0  0  0
 26 61  2  0  0  0  0
 27 62  1  0  0  0  0
 27 65  1  0  0  0  0
 28 66  1  0  0  0  0
 28 71  2  0  0  0  0
 29 43  1  0  0  0  0
 29 67  1  0  0  0  0
 29 72  2  0  0  0  0
 30 57  1  0  0  0  0
 30 63  1  0  0  0  0
 30 73  2  0  0  0  0
 31 58  1  0  0  0  0
 31 68  1  0  0  0  0
 31 74  2  0  0  0  0
 32 64  1  0  0  0  0
 32 69  1  0  0  0  0
 32 75  2  0  0  0  0
 33 36  1  0  0  0  0
 34 43  1  0  0  0  0
 35 63  1  0  0  0  0
 36 38  1  0  0  0  0
 37 39  1  0  0  0  0
 37 40  1  0  0  0  0
 38 42  1  0  0  0  0
 39 44  1  0  0  0  0
 40 64  1  0  0  0  0
 41 44  1  0  0  0  0
 41 64  1  0  0  0  0
 42 67  1  0  0  0  0
 43 63  1  0  0  0  0
 44 62  1  0  0  0  0
 45 58  1  0  0  0  0
 46 59  1  0  0  0  0
 47 60  1  0  0  0  0
 48 60  1  0  0  0  0
 49 60  1  0  0  0  0
 50 70  1  0  0  0  0
 51 52  1  0  0  0  0
 51 53  1  0  0  0  0
 52 54  1  0  0  0  0
 53 55  1  0  0  0  0
 54 56  1  0  0  0  0
 55 59  1  0  0  0  0
 56 69  1  0  0  0  0
 57 60  1  0  0  0  0
 57 68  1  0  0  0  0
 58 70  1  0  0  0  0
 59 77  1  0  0  0  0
 61 62  1  0  0  0  0
M  CHG  1  70   1
M  ISO  4  32 100  59 101  69 100  77 101
M  END
> <Batch ID>
0107

> <Smiles>
CNC(C)C(=O)NC(C(=O)N1Cc2cc([101O:1][101CH:1](C)CCCCCC[100NH:0][100C:0](=O)N3CCCC(n4nc(-c5ccc(Oc6ccc(F)cc6F)cc5)c(C(N)=O)c4N)C3)ccc2CC1C(=O)NC1CCCc2ccccc21)C(C)(C)C

> <Shape>
0.163

> <Color>
0.193

> <Negative vol penalty>
0.000

$$$$

  -OEChem-04052319513D

 83 90  0     1  0  0  0  0  0999 V2000
  -16.8153  -26.7545   26.1053 C   0  0  0  0  0  0  0  0  0  0  0  0
  -18.0275  -26.1097   25.8815 C   0  0  0  0  0  0  0  0  0  0  0  0
  -24.4831   -9.2167   21.8075 C   0  0  0  0  0  0  0  0  0  0  0  0
  -22.9543  -10.2707   20.2618 C   0  0  0  0  0  0  0  0  0  0  0  0
  -16.5331  -27.9527   25.4506 C   0  0  0  0  0  0  0  0  0  0  0  0
  -18.9579  -26.6622   25.0020 C   0  0  0  0  0  0  0  0  0  0  0  0
  -25.0591  -26.4578   25.4906 C   0  0  0  0  0  0  0  0  0  0  0  0
  -23.6243   -8.1224   21.9106 C   0  0  0  0  0  0  0  0  0  0  0  0
  -22.0955   -9.1763   20.3650 C   0  0  0  0  0  0  0  0  0  0  0  0
  -26.0202  -25.6368   24.9024 C   0  0  0  0  0  0  0  0  0  0  0  0
  -20.7560   -7.3510   23.5237 C   0  0  0  0  0  0  0  0  0  0  0  0
  -20.4992   -6.8476   24.7989 C   0  0  0  0  0  0  0  0  0  0  0  0
  -26.3943  -27.3045   23.2001 C   0  0  0  0  0  0  0  0  0  0  0  0
  -21.4055   -4.7081   24.1369 C   0  0  0  0  0  0  0  0  0  0  0  0
  -24.1480  -10.2909   20.9831 C   0  0  0  0  0  0  0  0  0  0  0  0
  -26.0847  -11.5949   19.9554 C   0  0  0  0  0  0  0  0  0  0  0  0
  -17.4644  -28.5251   24.5699 C   0  0  0  0  0  0  0  0  0  0  0  0
  -24.7500  -27.7058   24.9308 C   0  0  0  0  0  0  0  0  0  0  0  0
  -18.6873  -27.8684   24.3338 C   0  0  0  0  0  0  0  0  0  0  0  0
  -25.4307  -28.1406   23.7845 C   0  0  0  0  0  0  0  0  0  0  0  0
  -22.4306   -8.1021   21.1894 C   0  0  0  0  0  0  0  0  0  0  0  0
  -26.6859  -26.0589   23.7553 C   0  0  0  0  0  0  0  0  0  0  0  0
  -21.3375   -6.5329   22.5550 C   0  0  0  0  0  0  0  0  0  0  0  0
  -20.8240   -5.5262   25.1055 C   0  0  0  0  0  0  0  0  0  0  0  0
  -21.6623   -5.2115   22.8616 C   0  0  0  0  0  0  0  0  0  0  0  0
  -25.0344  -11.4218   20.8766 C   0  0  0  0  0  0  0  0  0  0  0  0
  -26.6155  -12.8229   20.2665 C   0  0  0  0  0  0  0  0  0  0  0  0
  -26.5399  -10.7236   18.9117 C   0  0  0  0  0  0  0  0  0  0  0  0
  -22.1377  -29.0207   23.6857 C   0  0  0  0  0  0  0  0  0  0  0  0
  -23.9933  -31.6797   23.5915 C   0  0  0  0  0  0  0  0  0  0  0  0
  -27.1296  -33.0220   23.4969 C   0  0  0  0  0  0  0  0  0  0  0  0
  -25.4583  -18.2627   21.4442 C   0  0  0  0  0  0  0  0  0  0  0  0
  -17.0951  -29.7974   23.8491 C   0  0  0  0  0  0  0  0  0  0  0  0
  -23.7299  -28.5910   25.5926 C   0  0  0  0  0  0  0  0  0  0  0  0
  -25.1501  -29.4802   23.1560 C   0  0  0  0  0  0  0  0  0  0  0  0
  -18.2895  -30.5093   23.2193 C   0  0  0  0  0  0  0  0  0  0  0  0
  -25.8428  -15.8550   24.2294 C   0  0  0  0  0  0  0  0  0  0  0  0
  -19.1646  -29.5157   22.4618 C   0  0  0  0  0  0  0  0  0  0  0  0
  -25.6801  -14.5070   23.5292 C   0  0  0  0  0  0  0  0  0  0  0  0
  -25.0818  -16.9639   23.5089 C   0  0  0  0  0  0  0  0  0  0  0  0
  -25.2625  -15.7430   21.3662 C   0  0  0  0  0  0  0  0  0  0  0  0
  -19.7323  -28.4490   23.4059 C   0  0  1  0  0  0  0  0  0  0  0  0
  -23.1275  -29.6220   24.6430 C   0  0  1  0  0  0  0  0  0  0  0  0
  -26.0549  -14.6131   22.0407 C   0  0  2  0  0  0  0  0  0  0  0  0
  -28.3271  -35.2246   23.3869 C   0  0  0  0  0  0  0  0  0  0  0  0
  -26.1422  -18.0831   17.9662 C   0  0  0  0  0  0  0  0  0  0  0  0
  -23.3046  -31.9033   20.6275 C   0  0  0  0  0  0  0  0  0  0  0  0
  -25.2233  -33.4914   20.3729 C   0  0  0  0  0  0  0  0  0  0  0  0
  -23.3111  -34.0772   21.8639 C   0  0  0  0  0  0  0  0  0  0  0  0
  -25.9561  -23.5450   23.4214 C   0  0  0  0  0  0  0  0  0  0  0  0
  -28.1602  -23.4241   24.6128 C   0  0  0  0  0  0  0  0  0  0  0  0
  -27.5914  -17.6324   20.3803 C   0  0  0  0  0  0  0  0  0  0  0  0
  -28.4769  -32.5507   26.0895 C   0  0  0  0  0  0  0  0  0  0  0  0
  -27.9566  -24.9582   20.4092 C   0  0  0  0  0  0  0  0  0  0  0  0
  -26.8396  -21.3393   19.9913 C   0  0  0  0  0  0  0  0  0  0  0  0
  -26.9544  -20.2864   18.8806 C   0  0  0  0  0  0  0  0  0  0  0  0
  -27.7037  -22.5711   19.7471 C   0  0  0  0  0  0  0  0  0  0  0  0
  -28.1279  -23.1643   22.1280 C   0  0  0  0  0  0  0  0  0  0  0  0
  -24.9425  -32.2859   22.5863 C   0  0  1  0  0  0  0  0  0  0  0  0
  -27.7708  -34.1411   24.2976 C   0  0  2  0  0  0  0  0  0  0  0  0
  -26.0387  -19.0765   19.1197 C   0  0  2  0  0  0  0  0  0  0  0  0
  -24.1995  -32.9133   21.3731 C   0  0  0  0  0  0  0  0  0  0  0  0
  -27.4528  -23.8498   23.3221 C   0  0  0  0  0  0  0  0  0  1  0  0
  -24.9041  -12.4570   21.7105 N   0  0  0  0  0  0  0  0  0  0  0  0
  -25.8796  -13.2923   21.3146 N   0  0  0  0  0  0  0  0  0  0  0  0
  -24.1397  -30.3069   23.8365 N   0  0  0  0  0  0  0  0  0  0  0  0
  -25.4248  -17.0144   22.0873 N   0  0  0  0  0  0  0  0  0  0  0  0
  -27.6352  -13.5361   19.7432 N   0  0  0  0  0  0  0  0  0  0  0  0
  -25.8821   -9.4996   18.7288 N   0  0  0  0  0  0  0  0  0  0  0  0
  -20.8421  -28.9848   24.1648 N   0  0  0  0  0  0  0  0  0  0  0  0
  -25.7764  -33.2259   23.3275 N   0  0  0  0  0  0  0  0  0  0  0  0
  -26.3603  -18.4097   20.3796 N   0  0  0  0  0  0  0  0  0  0  0  0
  -28.8862  -33.6087   25.1303 N   0  3  0  0  0  0  0  0  0  0  0  0
  -27.5079  -23.5858   20.8462 N   0  3  1  0  0  0  0  0  0  0  0  0
  -27.5119  -11.0143   18.1741 O   0  0  0  0  0  0  0  0  0  0  0  0
  -22.5208  -28.6205   22.5927 O   0  0  0  0  0  0  0  0  0  0  0  0
  -23.1577  -32.3991   24.1445 O   0  0  0  0  0  0  0  0  0  0  0  0
  -27.7661  -32.0649   23.0619 O   0  0  0  0  0  0  0  0  0  0  0  0
  -24.7306  -19.1956   21.8075 O   0  0  0  0  0  0  0  0  0  0  0  0
  -21.5925   -7.0344   21.2896 O   0  0  0  0  0  0  0  0  0  0  0  0
  -27.6240  -25.2592   23.1788 O   0  0  0  0  0  0  0  0  0  1  0  0
  -20.5787   -5.0434   26.3307 F   0  0  0  0  0  0  0  0  0  0  0  0
  -22.2222   -4.4211   21.9355 F   0  0  0  0  0  0  0  0  0  0  0  0
  1  2  1  0  0  0  0
  1  5  2  0  0  0  0
  2  6  2  0  0  0  0
  3  8  2  0  0  0  0
  3 15  1  0  0  0  0
  4  9  1  0  0  0  0
  4 15  2  0  0  0  0
  5 17  1  0  0  0  0
  6 19  1  0  0  0  0
  7 10  2  0  0  0  0
  7 18  1  0  0  0  0
  8 21  1  0  0  0  0
  9 21  2  0  0  0  0
 10 22  1  0  0  0  0
 11 12  2  0  0  0  0
 11 23  1  0  0  0  0
 12 24  1  0  0  0  0
 13 20  1  0  0  0  0
 13 22  2  0  0  0  0
 14 24  2  0  0  0  0
 14 25  1  0  0  0  0
 15 26  1  0  0  0  0
 16 26  1  0  0  0  0
 16 27  2  0  0  0  0
 16 28  1  0  0  0  0
 17 19  2  0  0  0  0
 17 33  1  0  0  0  0
 18 20  2  0  0  0  0
 18 34  1  0  0  0  0
 19 42  1  0  0  0  0
 20 35  1  0  0  0  0
 21 80  1  0  0  0  0
 22 81  1  0  0  0  0
 23 25  2  0  0  0  0
 23 80  1  0  0  0  0
 24 82  1  0  0  0  0
 25 83  1  0  0  0  0
 26 64  2  0  0  0  0
 27 65  1  0  0  0  0
 27 68  1  0  0  0  0
 28 69  1  0  0  0  0
 28 75  2  0  0  0  0
 29 43  1  0  0  0  0
 29 70  1  0  0  0  0
 29 76  2  0  0  0  0
 30 59  1  0  0  0  0
 30 66  1  0  0  0  0
 30 77  2  0  0  0  0
 31 60  1  0  0  0  0
 31 71  1  0  0  0  0
 31 78  2  0  0  0  0
 32 67  1  0  0  0  0
 32 72  1  0  0  0  0
 32 79  2  0  0  0  0
 33 36  1  0  0  0  0
 34 43  1  0  0  0  0
 35 66  1  0  0  0  0
 36 38  1  0  0  0  0
 37 39  1  0  0  0  0
 37 40  1  0  0  0  0
 38 42  1  0  0  0  0
 39 44  1  0  0  0  0
 40 67  1  0  0  0  0
 41 44  1  0  0  0  0
 41 67  1  0  0  0  0
 42 70  1  0  0  0  0
 43 66  1  0  0  0  0
 44 65  1  0  0  0  0
 45 60  1  0  0  0  0
 46 61  1  0  0  0  0
 47 62  1  0  0  0  0
 48 62  1  0  0  0  0
 49 62  1  0  0  0  0
 50 63  1  0  0  0  0
 51 63  1  0  0  0  0
 52 72  1  0  0  0  0
 53 73  1  0  0  0  0
 54 74  1  0  0  0  0
 55 56  1  0  0  0  0
 55 57  1  0  0  0  0
 56 61  1  0  0  0  0
 57 74  1  0  0  0  0
 58 63  1  0  0  0  0
 58 74  1  0  0  0  0
 59 62  1  0  0  0  0
 59 71  1  0  0  0  0
 60 73  1  0  0  0  0
 61 72  1  0  0  0  0
 63 81  1  0  0  0  0
 64 65  1  0  0  0  0
M  CHG  2  73   1  74   1
M  ISO  4  32 100  63 101  72 100  81 101
M  END
> <Batch ID>
0107

> <Smiles>
CNC(C)C(=O)NC(C(=O)N1Cc2cc([101O:1][101C:1](C)(C)CN(C)CCCC(C)[100N:0](C)[100C:0](=O)N3CCCC(n4nc(-c5ccc(Oc6ccc(F)cc6F)cc5)c(C(N)=O)c4N)C3)ccc2CC1C(=O)NC1CCCc2ccccc21)C(C)(C)C

> <Shape>
0.237

> <Color>
0.100

> <Negative vol penalty>
0.000

$$$$

  -OEChem-04052319513D

 79 86  0     1  0  0  0  0  0999 V2000
  -37.0680  -17.7394   23.2738 C   0  0  0  0  0  0  0  0  0  0  0  0
  -36.0020  -18.4098   22.6826 C   0  0  0  0  0  0  0  0  0  0  0  0
  -20.5205  -27.1109   23.4666 C   0  0  0  0  0  0  0  0  0  0  0  0
  -19.8649  -26.8850   21.1523 C   0  0  0  0  0  0  0  0  0  0  0  0
  -37.1998  -16.3610   23.1107 C   0  0  0  0  0  0  0  0  0  0  0  0
  -35.0677  -17.7023   21.9269 C   0  0  0  0  0  0  0  0  0  0  0  0
  -30.2995  -19.0410   22.9838 C   0  0  0  0  0  0  0  0  0  0  0  0
  -19.2669  -27.6419   23.7700 C   0  0  0  0  0  0  0  0  0  0  0  0
  -18.6112  -27.4160   21.4556 C   0  0  0  0  0  0  0  0  0  0  0  0
  -29.8349  -20.2328   22.4292 C   0  0  0  0  0  0  0  0  0  0  0  0
  -15.7230  -26.3428   22.8439 C   0  0  0  0  0  0  0  0  0  0  0  0
  -14.6038  -25.7027   22.3118 C   0  0  0  0  0  0  0  0  0  0  0  0
  -28.7094  -18.9824   20.7004 C   0  0  0  0  0  0  0  0  0  0  0  0
  -13.9919  -27.7339   21.1554 C   0  0  0  0  0  0  0  0  0  0  0  0
  -20.8195  -26.7325   22.1577 C   0  0  0  0  0  0  0  0  0  0  0  0
  -22.4926  -24.8286   21.8686 C   0  0  0  0  0  0  0  0  0  0  0  0
  -36.2613  -15.6348   22.3607 C   0  0  0  0  0  0  0  0  0  0  0  0
  -29.9810  -17.8095   22.3936 C   0  0  0  0  0  0  0  0  0  0  0  0
  -35.1879  -16.3131   21.7525 C   0  0  0  0  0  0  0  0  0  0  0  0
  -29.1690  -17.7763   21.2510 C   0  0  0  0  0  0  0  0  0  0  0  0
  -18.3122  -27.7944   22.7645 C   0  0  0  0  0  0  0  0  0  0  0  0
  -29.0421  -20.2037   21.2856 C   0  0  0  0  0  0  0  0  0  0  0  0
  -15.9767  -27.6785   22.5318 C   0  0  0  0  0  0  0  0  0  0  0  0
  -13.7382  -26.3982   21.4675 C   0  0  0  0  0  0  0  0  0  0  0  0
  -15.1112  -28.3740   21.6875 C   0  0  0  0  0  0  0  0  0  0  0  0
  -22.1146  -26.1844   21.8436 C   0  0  0  0  0  0  0  0  0  0  0  0
  -23.8138  -24.8336   21.4930 C   0  0  0  0  0  0  0  0  0  0  0  0
  -21.7188  -23.6684   22.2015 C   0  0  0  0  0  0  0  0  0  0  0  0
  -31.6586  -15.4525   21.0769 C   0  0  0  0  0  0  0  0  0  0  0  0
  -28.7687  -13.9836   20.9617 C   0  0  0  0  0  0  0  0  0  0  0  0
  -25.3694  -14.2785   20.8949 C   0  0  0  0  0  0  0  0  0  0  0  0
  -27.9203  -26.6235   18.1646 C   0  0  0  0  0  0  0  0  0  0  0  0
  -36.4719  -14.1532   22.1731 C   0  0  0  0  0  0  0  0  0  0  0  0
  -30.4678  -16.5314   23.0196 C   0  0  0  0  0  0  0  0  0  0  0  0
  -28.7818  -16.4791   20.5908 C   0  0  0  0  0  0  0  0  0  0  0  0
  -35.2313  -13.4208   21.6685 C   0  0  0  0  0  0  0  0  0  0  0  0
  -27.0684  -28.6678   20.9523 C   0  0  0  0  0  0  0  0  0  0  0  0
  -34.5980  -14.1807   20.5073 C   0  0  0  0  0  0  0  0  0  0  0  0
  -25.7325  -28.0962   21.4304 C   0  0  0  0  0  0  0  0  0  0  0  0
  -27.1891  -28.6232   19.4307 C   0  0  0  0  0  0  0  0  0  0  0  0
  -25.6227  -26.7245   19.3079 C   0  0  0  0  0  0  0  0  0  0  0  0
  -34.1402  -15.5769   20.9460 C   0  0  1  0  0  0  0  0  0  0  0  0
  -30.5080  -15.3633   22.0391 C   0  0  1  0  0  0  0  0  0  0  0  0
  -25.4776  -26.6967   20.8391 C   0  0  2  0  0  0  0  0  0  0  0  0
  -30.8970  -22.5265   16.7273 C   0  0  0  0  0  0  0  0  0  0  0  0
  -23.2750  -12.9027   20.7615 C   0  0  0  0  0  0  0  0  0  0  0  0
  -28.3416  -24.9338   15.4744 C   0  0  0  0  0  0  0  0  0  0  0  0
  -29.2533  -13.5391   17.9822 C   0  0  0  0  0  0  0  0  0  0  0  0
  -26.8113  -13.0485   17.7292 C   0  0  0  0  0  0  0  0  0  0  0  0
  -28.2309  -11.5930   19.1745 C   0  0  0  0  0  0  0  0  0  0  0  0
  -26.9877  -22.4888   16.8390 C   0  0  0  0  0  0  0  0  0  0  0  0
  -24.4183  -15.2611   23.5196 C   0  0  0  0  0  0  0  0  0  0  0  0
  -29.4381  -22.1744   16.4611 C   0  0  0  0  0  0  0  0  0  0  0  0
  -28.5591  -22.8053   18.7998 C   0  0  0  0  0  0  0  0  0  0  0  0
  -28.3809  -21.3822   19.3286 C   0  0  0  0  0  0  0  0  0  1  0  0
  -27.6399  -13.9219   19.9612 C   0  0  1  0  0  0  0  0  0  0  0  0
  -24.2814  -13.5728   21.6840 C   0  0  2  0  0  0  0  0  0  0  0  0
  -28.5157  -24.5457   16.9449 C   0  0  2  0  0  0  0  0  0  0  0  0
  -27.9926  -13.0503   18.7228 C   0  0  0  0  0  0  0  0  0  0  0  0
  -28.3860  -23.0063   17.2582 C   0  0  2  0  0  0  0  0  0  0  0  0
  -23.1147  -26.9920   21.4809 N   0  0  0  0  0  0  0  0  0  0  0  0
  -24.1343  -26.1411   21.2747 N   0  0  0  0  0  0  0  0  0  0  0  0
  -29.2877  -15.2567   21.2367 N   0  0  0  0  0  0  0  0  0  0  0  0
  -26.9377  -27.2682   18.9338 N   0  0  0  0  0  0  0  0  0  0  0  0
  -24.7209  -23.8470   21.3315 N   0  0  0  0  0  0  0  0  0  0  0  0
  -20.3766  -23.8424   22.5656 N   0  0  0  0  0  0  0  0  0  0  0  0
  -32.8987  -15.4927   21.6851 N   0  0  0  0  0  0  0  0  0  0  0  0
  -26.4660  -13.4662   20.6978 N   0  0  0  0  0  0  0  0  0  0  0  0
  -27.6042  -25.3391   17.7390 N   0  0  0  0  0  0  0  0  0  0  0  0
  -23.5532  -14.5457   22.5466 N   0  3  0  0  0  0  0  0  0  0  0  0
  -22.2078  -22.5132   22.1928 O   0  0  0  0  0  0  0  0  0  0  0  0
  -31.4377  -15.4811   19.8719 O   0  0  0  0  0  0  0  0  0  0  0  0
  -29.1702  -12.9414   21.4854 O   0  0  0  0  0  0  0  0  0  0  0  0
  -25.2562  -15.4336   20.4904 O   0  0  0  0  0  0  0  0  0  0  0  0
  -29.0015  -27.1512   17.8828 O   0  0  0  0  0  0  0  0  0  0  0  0
  -17.0888  -28.3124   23.0602 O   0  0  0  0  0  0  0  0  0  0  0  0
  -28.5851  -21.3727   20.7385 O   0  0  0  0  0  0  0  0  0  1  0  0
  -12.6643  -25.7830   20.9554 F   0  0  0  0  0  0  0  0  0  0  0  0
  -15.3503  -29.6569   21.3831 F   0  0  0  0  0  0  0  0  0  0  0  0
  1  2  1  0  0  0  0
  1  5  2  0  0  0  0
  2  6  2  0  0  0  0
  3  8  2  0  0  0  0
  3 15  1  0  0  0  0
  4  9  1  0  0  0  0
  4 15  2  0  0  0  0
  5 17  1  0  0  0  0
  6 19  1  0  0  0  0
  7 10  2  0  0  0  0
  7 18  1  0  0  0  0
  8 21  1  0  0  0  0
  9 21  2  0  0  0  0
 10 22  1  0  0  0  0
 11 12  2  0  0  0  0
 11 23  1  0  0  0  0
 12 24  1  0  0  0  0
 13 20  1  0  0  0  0
 13 22  2  0  0  0  0
 14 24  2  0  0  0  0
 14 25  1  0  0  0  0
 15 26  1  0  0  0  0
 16 26  1  0  0  0  0
 16 27  2  0  0  0  0
 16 28  1  0  0  0  0
 17 19  2  0  0  0  0
 17 33  1  0  0  0  0
 18 20  2  0  0  0  0
 18 34  1  0  0  0  0
 19 42  1  0  0  0  0
 20 35  1  0  0  0  0
 21 76  1  0  0  0  0
 22 77  1  0  0  0  0
 23 25  2  0  0  0  0
 23 76  1  0  0  0  0
 24 78  1  0  0  0  0
 25 79  1  0  0  0  0
 26 61  2  0  0  0  0
 27 62  1  0  0  0  0
 27 65  1  0  0  0  0
 28 66  1  0  0  0  0
 28 71  2  0  0  0  0
 29 43  1  0  0  0  0
 29 67  1  0  0  0  0
 29 72  2  0  0  0  0
 30 56  1  0  0  0  0
 30 63  1  0  0  0  0
 30 73  2  0  0  0  0
 31 57  1  0  0  0  0
 31 68  1  0  0  0  0
 31 74  2  0  0  0  0
 32 64  1  0  0  0  0
 32 69  1  0  0  0  0
 32 75  2  0  0  0  0
 33 36  1  0  0  0  0
 34 43  1  0  0  0  0
 35 63  1  0  0  0  0
 36 38  1  0  0  0  0
 37 39  1  0  0  0  0
 37 40  1  0  0  0  0
 38 42  1  0  0  0  0
 39 44  1  0  0  0  0
 40 64  1  0  0  0  0
 41 44  1  0  0  0  0
 41 64  1  0  0  0  0
 42 67  1  0  0  0  0
 43 63  1  0  0  0  0
 44 62  1  0  0  0  0
 45 53  1  0  0  0  0
 46 57  1  0  0  0  0
 47 58  1  0  0  0  0
 48 59  1  0  0  0  0
 49 59  1  0  0  0  0
 50 59  1  0  0  0  0
 51 60  1  0  0  0  0
 52 70  1  0  0  0  0
 53 60  1  0  0  0  0
 54 55  1  0  0  0  0
 54 60  1  0  0  0  0
 55 77  1  0  0  0  0
 56 59  1  0  0  0  0
 56 68  1  0  0  0  0
 57 70  1  0  0  0  0
 58 60  1  0  0  0  0
 58 69  1  0  0  0  0
 61 62  1  0  0  0  0
M  CHG  1  70   1
M  ISO  4  32 100  55 101  69 100  77 101
M  END
> <Batch ID>
0107

> <Smiles>
CCC(C)(C[101CH2:1][101O:1]c1ccc2c(c1)CN(C(=O)C(NC(=O)C(C)NC)C(C)(C)C)C(C(=O)NC1CCCc3ccccc31)C2)C(C)[100NH:0][100C:0](=O)N1CCCC(n2nc(-c3ccc(Oc4ccc(F)cc4F)cc3)c(C(N)=O)c2N)C1

> <Shape>
0.230

> <Color>
0.058

> <Negative vol penalty>
0.000

$$$$

  -OEChem-04052319513D

 85 93  0     1  0  0  0  0  0999 V2000
  -19.3123  -29.0236   23.0831 C   0  0  0  0  0  0  0  0  0  0  0  0
  -20.5924  -28.5026   23.2424 C   0  0  0  0  0  0  0  0  0  0  0  0
  -22.7854  -15.1614   20.3604 C   0  0  0  0  0  0  0  0  0  0  0  0
  -22.5419  -13.4083   18.7159 C   0  0  0  0  0  0  0  0  0  0  0  0
  -30.1867  -15.4701   22.7487 C   0  0  0  0  0  0  0  0  0  0  0  0
  -18.3304  -28.2723   22.4386 C   0  0  0  0  0  0  0  0  0  0  0  0
  -20.8910  -27.2294   22.7584 C   0  0  0  0  0  0  0  0  0  0  0  0
  -26.2152  -25.3468   20.3889 C   0  0  0  0  0  0  0  0  0  0  0  0
  -29.7253  -16.3635   23.7153 C   0  0  0  0  0  0  0  0  0  0  0  0
  -21.6844  -15.8236   19.8175 C   0  0  0  0  0  0  0  0  0  0  0  0
  -21.4409  -14.0705   18.1730 C   0  0  0  0  0  0  0  0  0  0  0  0
  -27.2858  -24.6387   20.9329 C   0  0  0  0  0  0  0  0  0  0  0  0
  -18.3453  -15.1177   16.5797 C   0  0  0  0  0  0  0  0  0  0  0  0
  -17.2166  -14.3576   16.2734 C   0  0  0  0  0  0  0  0  0  0  0  0
  -26.3742  -22.5896   20.0443 C   0  0  0  0  0  0  0  0  0  0  0  0
  -29.4132  -18.0468   22.0107 C   0  0  0  0  0  0  0  0  0  0  0  0
  -17.0318  -13.6985   18.5905 C   0  0  0  0  0  0  0  0  0  0  0  0
  -23.2142  -13.9537   19.8096 C   0  0  0  0  0  0  0  0  0  0  0  0
  -30.2614  -15.8650   21.4130 C   0  0  0  0  0  0  0  0  0  0  0  0
  -24.3439  -12.3067   21.3968 C   0  0  0  0  0  0  0  0  0  0  0  0
  -18.6198  -26.9932   21.9379 C   0  0  0  0  0  0  0  0  0  0  0  0
  -25.2086  -24.6791   19.6766 C   0  0  0  0  0  0  0  0  0  0  0  0
  -19.9116  -26.4597   22.1078 C   0  0  0  0  0  0  0  0  0  0  0  0
  -25.2932  -23.2920   19.4900 C   0  0  0  0  0  0  0  0  0  0  0  0
  -29.3385  -17.6519   23.3464 C   0  0  0  0  0  0  0  0  0  0  0  0
  -21.0121  -15.2782   18.7238 C   0  0  0  0  0  0  0  0  0  0  0  0
  -27.3640  -23.2595   20.7631 C   0  0  0  0  0  0  0  0  0  0  0  0
  -18.8173  -15.1682   17.8913 C   0  0  0  0  0  0  0  0  0  0  0  0
  -29.8747  -17.1533   21.0440 C   0  0  0  0  0  0  0  0  0  0  0  0
  -16.5598  -13.6480   17.2788 C   0  0  0  0  0  0  0  0  0  0  0  0
  -18.1606  -14.4586   18.8967 C   0  0  0  0  0  0  0  0  0  0  0  0
  -24.3519  -13.2694   20.3696 C   0  0  0  0  0  0  0  0  0  0  0  0
  -25.6649  -11.9684   21.5606 C   0  0  0  0  0  0  0  0  0  0  0  0
  -30.7482  -14.9080   20.4110 C   0  0  0  0  0  0  0  0  0  0  0  0
  -23.2409  -11.7666   22.1366 C   0  0  0  0  0  0  0  0  0  0  0  0
  -22.0788  -24.2776   20.0597 C   0  0  0  0  0  0  0  0  0  0  0  0
  -22.2987  -22.8606   17.1501 C   0  0  0  0  0  0  0  0  0  0  0  0
  -24.2399  -21.2504   14.8510 C   0  0  0  0  0  0  0  0  0  0  0  0
  -17.5127  -26.1996   21.2903 C   0  0  0  0  0  0  0  0  0  0  0  0
  -24.0743  -25.4611   19.0731 C   0  0  0  0  0  0  0  0  0  0  0  0
  -24.2491  -22.5308   18.7162 C   0  0  0  0  0  0  0  0  0  0  0  0
  -18.0127  -25.0101   20.4746 C   0  0  0  0  0  0  0  0  0  0  0  0
  -29.7976  -11.7024   19.1612 C   0  0  0  0  0  0  0  0  0  0  0  0
  -19.0565  -24.2240   21.2617 C   0  0  0  0  0  0  0  0  0  0  0  0
  -28.2884  -11.6562   19.4071 C   0  0  0  0  0  0  0  0  0  0  0  0
  -30.2651  -13.1070   18.7884 C   0  0  0  0  0  0  0  0  0  0  0  0
  -28.3612  -14.1151   19.9980 C   0  0  0  0  0  0  0  0  0  0  0  0
  -20.2810  -25.0925   21.5745 C   0  0  1  0  0  0  0  0  0  0  0  0
  -22.8371  -24.6095   18.8057 C   0  0  1  0  0  0  0  0  0  0  0  0
  -27.8564  -12.7273   20.4262 C   0  0  1  0  0  0  0  0  0  0  0  0
  -28.7903  -17.6783   17.6468 C   0  0  0  0  0  0  0  0  0  0  0  0
  -24.1301  -20.1798   12.5841 C   0  0  0  0  0  0  0  0  0  0  0  0
  -20.9115  -20.4309   18.3675 C   0  0  0  0  0  0  0  0  0  0  0  0
  -21.6744  -19.0934   16.3934 C   0  0  0  0  0  0  0  0  0  0  0  0
  -20.1368  -21.0303   16.0664 C   0  0  0  0  0  0  0  0  0  0  0  0
  -26.2129  -23.1504   13.7301 C   0  0  0  0  0  0  0  0  0  0  0  0
  -28.8404  -18.6174   24.3921 C   0  0  0  0  0  0  0  0  0  0  0  0
  -29.9470  -19.4675   25.0299 C   0  0  0  0  0  0  0  0  0  0  0  0
  -30.6967  -20.3906   24.0741 C   0  0  0  0  0  0  0  0  0  0  0  0
  -30.4318  -22.3726   22.5774 C   0  0  0  0  0  0  0  0  0  0  0  0
  -28.7165  -17.9639   19.1316 C   0  0  0  0  0  0  0  0  0  0  0  0
  -29.3869  -23.3145   22.0125 C   0  0  0  0  0  0  0  0  0  1  0  0
  -22.5568  -21.4556   16.6620 C   0  0  1  0  0  0  0  0  0  0  0  0
  -24.4140  -21.4581   13.3573 C   0  0  2  0  0  0  0  0  0  0  0  0
  -21.3387  -20.5163   16.8886 C   0  0  0  0  0  0  0  0  0  0  0  0
  -25.5806  -13.5262   19.9132 N   0  0  0  0  0  0  0  0  0  0  0  0
  -26.3570  -12.7200   20.6570 N   0  0  0  0  0  0  0  0  0  0  0  0
  -29.8143  -14.0826   19.7801 N   0  0  0  0  0  0  0  0  0  0  0  0
  -23.1561  -23.3392   18.1509 N   0  0  0  0  0  0  0  0  0  0  0  0
  -26.2905  -11.1044   22.3880 N   0  0  0  0  0  0  0  0  0  0  0  0
  -21.9497  -12.2244   21.8407 N   0  0  0  0  0  0  0  0  0  0  0  0
  -21.1251  -25.2159   20.4054 N   0  0  0  0  0  0  0  0  0  0  0  0
  -22.9665  -21.5769   15.2670 N   0  0  0  0  0  0  0  0  0  0  0  0
  -25.8071  -21.8916   13.0536 N   0  3  0  0  0  0  0  0  0  0  0  0
  -29.7729  -21.3928   23.4774 N   0  3  0  0  0  0  0  0  0  0  0  0
  -31.9620  -14.9002   20.2117 O   0  0  0  0  0  0  0  0  0  0  0  0
  -23.3974  -10.9155   23.0447 O   0  0  0  0  0  0  0  0  0  0  0  0
  -22.3387  -23.2459   20.6678 O   0  0  0  0  0  0  0  0  0  0  0  0
  -21.3749  -23.5122   16.6564 O   0  0  0  0  0  0  0  0  0  0  0  0
  -25.1421  -20.8362   15.5755 O   0  0  0  0  0  0  0  0  0  0  0  0
  -19.9375  -15.9240   18.1939 O   0  0  0  0  0  0  0  0  0  0  0  0
  -28.4076  -22.5657   21.2937 O   0  0  0  0  0  0  0  0  0  1  0  0
  -29.9385  -17.5577   19.7440 O   0  0  0  0  0  0  0  0  0  0  0  0
  -15.4750  -12.9193   16.9849 F   0  0  0  0  0  0  0  0  0  0  0  0
  -18.6086  -14.5042   20.1588 F   0  0  0  0  0  0  0  0  0  0  0  0
  1  2  1  0  0  0  0
  1  6  2  0  0  0  0
  2  7  2  0  0  0  0
  3 10  2  0  0  0  0
  3 18  1  0  0  0  0
  4 11  1  0  0  0  0
  4 18  2  0  0  0  0
  5  9  2  0  0  0  0
  5 19  1  0  0  0  0
  6 21  1  0  0  0  0
  7 23  1  0  0  0  0
  8 12  2  0  0  0  0
  8 22  1  0  0  0  0
  9 25  1  0  0  0  0
 10 26  1  0  0  0  0
 11 26  2  0  0  0  0
 12 27  1  0  0  0  0
 13 14  2  0  0  0  0
 13 28  1  0  0  0  0
 14 30  1  0  0  0  0
 15 24  1  0  0  0  0
 15 27  2  0  0  0  0
 16 25  2  0  0  0  0
 16 29  1  0  0  0  0
 17 30  2  0  0  0  0
 17 31  1  0  0  0  0
 18 32  1  0  0  0  0
 19 29  2  0  0  0  0
 19 34  1  0  0  0  0
 20 32  1  0  0  0  0
 20 33  2  0  0  0  0
 20 35  1  0  0  0  0
 21 23  2  0  0  0  0
 21 39  1  0  0  0  0
 22 24  2  0  0  0  0
 22 40  1  0  0  0  0
 23 48  1  0  0  0  0
 24 41  1  0  0  0  0
 25 57  1  0  0  0  0
 26 81  1  0  0  0  0
 27 82  1  0  0  0  0
 28 31  2  0  0  0  0
 28 81  1  0  0  0  0
 29 83  1  0  0  0  0
 30 84  1  0  0  0  0
 31 85  1  0  0  0  0
 32 66  2  0  0  0  0
 33 67  1  0  0  0  0
 33 70  1  0  0  0  0
 34 68  1  0  0  0  0
 34 76  2  0  0  0  0
 35 71  1  0  0  0  0
 35 77  2  0  0  0  0
 36 49  1  0  0  0  0
 36 72  1  0  0  0  0
 36 78  2  0  0  0  0
 37 63  1  0  0  0  0
 37 69  1  0  0  0  0
 37 79  2  0  0  0  0
 38 64  1  0  0  0  0
 38 73  1  0  0  0  0
 38 80  2  0  0  0  0
 39 42  1  0  0  0  0
 40 49  1  0  0  0  0
 41 69  1  0  0  0  0
 42 44  1  0  0  0  0
 43 45  1  0  0  0  0
 43 46  1  0  0  0  0
 44 48  1  0  0  0  0
 45 50  1  0  0  0  0
 46 68  1  0  0  0  0
 47 50  1  0  0  0  0
 47 68  1  0  0  0  0
 48 72  1  0  0  0  0
 49 69  1  0  0  0  0
 50 67  1  0  0  0  0
 51 61  1  0  0  0  0
 52 64  1  0  0  0  0
 53 65  1  0  0  0  0
 54 65  1  0  0  0  0
 55 65  1  0  0  0  0
 56 74  1  0  0  0  0
 57 58  1  0  0  0  0
 58 59  1  0  0  0  0
 59 75  1  0  0  0  0
 60 62  1  0  0  0  0
 60 75  1  0  0  0  0
 61 83  1  0  0  0  0
 62 82  1  0  0  0  0
 63 65  1  0  0  0  0
 63 73  1  0  0  0  0
 64 74  1  0  0  0  0
 66 67  1  0  0  0  0
M  CHG  2  74   1  75   1
M  ISO  4  19 100  34 100  62 101  82 101
M  END
> <Batch ID>
0107

> <Smiles>
CCOc1cc(CCCNC[101CH2:1][101O:1]c2ccc3c(c2)CN(C(=O)C(NC(=O)C(C)NC)C(C)(C)C)C(C(=O)NC2CCCc4ccccc42)C3)cc[100c:0]1[100C:0](=O)N1CCCC(n2nc(-c3ccc(Oc4ccc(F)cc4F)cc3)c(C(N)=O)c2N)C1

> <Shape>
0.190

> <Color>
0.106

> <Negative vol penalty>
0.000

$$$$

  -OEChem-04052319513D

 81 88  0     1  0  0  0  0  0999 V2000
  -21.5183  -12.6524   21.7456 C   0  0  0  0  0  0  0  0  0  0  0  0
  -21.8975  -13.8252   22.3908 C   0  0  0  0  0  0  0  0  0  0  0  0
  -25.0362  -28.3589   19.3937 C   0  0  0  0  0  0  0  0  0  0  0  0
  -25.6860  -26.4205   20.6810 C   0  0  0  0  0  0  0  0  0  0  0  0
  -22.4359  -11.9682   20.9494 C   0  0  0  0  0  0  0  0  0  0  0  0
  -23.1950  -14.3138   22.2411 C   0  0  0  0  0  0  0  0  0  0  0  0
  -23.3058  -19.3065   21.4016 C   0  0  0  0  0  0  0  0  0  0  0  0
  -26.3627  -28.7896   19.3724 C   0  0  0  0  0  0  0  0  0  0  0  0
  -27.0126  -26.8511   20.6597 C   0  0  0  0  0  0  0  0  0  0  0  0
  -23.1262  -20.1416   22.5035 C   0  0  0  0  0  0  0  0  0  0  0  0
  -28.9202  -29.1240   22.2801 C   0  0  0  0  0  0  0  0  0  0  0  0
  -29.6380  -29.0711   23.4749 C   0  0  0  0  0  0  0  0  0  0  0  0
  -25.5111  -20.4830   22.6259 C   0  0  0  0  0  0  0  0  0  0  0  0
  -31.2327  -27.5729   22.4506 C   0  0  0  0  0  0  0  0  0  0  0  0
  -24.6978  -27.1744   20.0480 C   0  0  0  0  0  0  0  0  0  0  0  0
  -22.6896  -25.8935   19.1346 C   0  0  0  0  0  0  0  0  0  0  0  0
  -23.7423  -12.4538   20.7821 C   0  0  0  0  0  0  0  0  0  0  0  0
  -24.5924  -19.0443   20.9095 C   0  0  0  0  0  0  0  0  0  0  0  0
  -24.1312  -13.6347   21.4430 C   0  0  0  0  0  0  0  0  0  0  0  0
  -25.7041  -19.6463   21.5160 C   0  0  0  0  0  0  0  0  0  0  0  0
  -27.3509  -28.0357   20.0054 C   0  0  0  0  0  0  0  0  0  0  0  0
  -24.2291  -20.7277   23.1176 C   0  0  0  0  0  0  0  0  0  0  0  0
  -29.3587  -28.4013   21.1705 C   0  0  0  0  0  0  0  0  0  0  0  0
  -30.7942  -28.2956   23.5602 C   0  0  0  0  0  0  0  0  0  0  0  0
  -30.5150  -27.6258   21.2557 C   0  0  0  0  0  0  0  0  0  0  0  0
  -23.3276  -26.7293   20.0707 C   0  0  0  0  0  0  0  0  0  0  0  0
  -21.4041  -25.7723   19.6027 C   0  0  0  0  0  0  0  0  0  0  0  0
  -23.2124  -25.2814   17.9482 C   0  0  0  0  0  0  0  0  0  0  0  0
  -26.3809  -16.4369   20.5833 C   0  0  0  0  0  0  0  0  0  0  0  0
  -28.3852  -18.4766   19.0519 C   0  0  0  0  0  0  0  0  0  0  0  0
  -30.0496  -21.6521   18.6480 C   0  0  0  0  0  0  0  0  0  0  0  0
  -21.7164  -22.0079   24.4856 C   0  0  0  0  0  0  0  0  0  0  0  0
  -18.9859  -26.2777   25.0569 C   0  0  0  0  0  0  0  0  0  0  0  0
  -24.7129  -11.6542   19.9496 C   0  0  0  0  0  0  0  0  0  0  0  0
  -24.7671  -18.1625   19.7035 C   0  0  0  0  0  0  0  0  0  0  0  0
  -27.1047  -19.4130   21.0138 C   0  0  0  0  0  0  0  0  0  0  0  0
  -25.9568  -12.4397   19.5419 C   0  0  0  0  0  0  0  0  0  0  0  0
  -18.1071  -28.1292   22.1455 C   0  0  0  0  0  0  0  0  0  0  0  0
  -26.5299  -13.1910   20.7393 C   0  0  0  0  0  0  0  0  0  0  0  0
  -19.2878  -27.9050   21.1992 C   0  0  0  0  0  0  0  0  0  0  0  0
  -18.5615  -28.2353   23.5995 C   0  0  0  0  0  0  0  0  0  0  0  0
  -20.5686  -26.8853   23.1276 C   0  0  0  0  0  0  0  0  0  0  0  0
  -25.5221  -14.2097   21.2853 C   0  0  1  0  0  0  0  0  0  0  0  0
  -26.1633  -17.5557   19.6042 C   0  0  1  0  0  0  0  0  0  0  0  0
  -20.1544  -26.7160   21.6558 C   0  0  2  0  0  0  0  0  0  0  0  0
  -31.6065  -22.4616   16.8540 C   0  0  0  0  0  0  0  0  0  0  0  0
  -24.4566  -20.8944   27.0184 C   0  0  0  0  0  0  0  0  0  0  0  0
  -23.5393  -23.1865   26.6263 C   0  0  0  0  0  0  0  0  0  0  0  0
  -30.5875  -17.5326   20.9410 C   0  0  0  0  0  0  0  0  0  0  0  0
  -31.9283  -19.5367   20.2671 C   0  0  0  0  0  0  0  0  0  0  0  0
  -31.3064  -17.8239   18.5635 C   0  0  0  0  0  0  0  0  0  0  0  0
  -28.3553  -24.0114   18.0804 C   0  0  0  0  0  0  0  0  0  0  0  0
  -18.6665  -23.1031   25.9823 C   0  0  0  0  0  0  0  0  0  0  0  0
  -19.2698  -22.2736   24.8508 C   0  0  0  0  0  0  0  0  0  0  0  0
  -19.5373  -24.2785   26.4202 C   0  0  0  0  0  0  0  0  0  0  0  0
  -29.5258  -19.3716   19.4723 C   0  0  1  0  0  0  0  0  0  0  0  0
  -30.1746  -22.4561   17.3664 C   0  0  2  0  0  0  0  0  0  0  0  0
  -22.9368  -21.2766   25.0371 C   0  0  2  0  0  0  0  0  0  1  0  0
  -23.2563  -21.6864   26.4895 C   0  0  0  0  0  0  0  0  0  0  0  0
  -30.8109  -18.5693   19.8219 C   0  0  0  0  0  0  0  0  0  0  0  0
  -22.5143  -27.1121   21.0587 N   0  0  0  0  0  0  0  0  0  0  0  0
  -21.3521  -26.5142   20.7459 N   0  0  0  0  0  0  0  0  0  0  0  0
  -27.2243  -18.5381   19.8357 N   0  0  0  0  0  0  0  0  0  0  0  0
  -19.3774  -27.0764   23.9698 N   0  0  0  0  0  0  0  0  0  0  0  0
  -20.3243  -25.1045   19.1437 N   0  0  0  0  0  0  0  0  0  0  0  0
  -24.5541  -25.5101   17.6139 N   0  0  0  0  0  0  0  0  0  0  0  0
  -25.4907  -15.3889   20.4469 N   0  0  0  0  0  0  0  0  0  0  0  0
  -20.5600  -21.7218   25.1944 N   0  0  0  0  0  0  0  0  0  0  0  0
  -29.7011  -20.3418   18.3970 N   0  0  0  0  0  0  0  0  0  0  0  0
  -19.8116  -25.1956   25.3364 N   0  0  0  0  0  0  0  0  0  0  0  0
  -29.7524  -23.8666   17.5965 N   0  3  0  0  0  0  0  0  0  0  0  0
  -22.5060  -24.5664   17.1976 O   0  0  0  0  0  0  0  0  0  0  0  0
  -27.2902  -16.5177   21.4008 O   0  0  0  0  0  0  0  0  0  0  0  0
  -28.5167  -17.7549   18.0602 O   0  0  0  0  0  0  0  0  0  0  0  0
  -30.2453  -22.1369   19.7602 O   0  0  0  0  0  0  0  0  0  0  0  0
  -21.7796  -22.7465   23.5051 O   0  0  0  0  0  0  0  0  0  0  0  0
  -17.9725  -26.5084   25.7252 O   0  0  0  0  0  0  0  0  0  0  0  0
  -28.6455  -28.4555   19.9847 O   0  0  0  0  0  0  0  0  0  0  0  0
  -24.0567  -21.5427   24.1937 O   0  0  0  0  0  0  0  0  0  1  0  0
  -31.4842  -28.2461   24.7072 F   0  0  0  0  0  0  0  0  0  0  0  0
  -30.9418  -26.9303   20.1928 F   0  0  0  0  0  0  0  0  0  0  0  0
  1  2  1  0  0  0  0
  1  5  2  0  0  0  0
  2  6  2  0  0  0  0
  3  8  2  0  0  0  0
  3 15  1  0  0  0  0
  4  9  1  0  0  0  0
  4 15  2  0  0  0  0
  5 17  1  0  0  0  0
  6 19  1  0  0  0  0
  7 10  2  0  0  0  0
  7 18  1  0  0  0  0
  8 21  1  0  0  0  0
  9 21  2  0  0  0  0
 10 22  1  0  0  0  0
 11 12  2  0  0  0  0
 11 23  1  0  0  0  0
 12 24  1  0  0  0  0
 13 20  1  0  0  0  0
 13 22  2  0  0  0  0
 14 24  2  0  0  0  0
 14 25  1  0  0  0  0
 15 26  1  0  0  0  0
 16 26  1  0  0  0  0
 16 27  2  0  0  0  0
 16 28  1  0  0  0  0
 17 19  2  0  0  0  0
 17 34  1  0  0  0  0
 18 20  2  0  0  0  0
 18 35  1  0  0  0  0
 19 43  1  0  0  0  0
 20 36  1  0  0  0  0
 21 78  1  0  0  0  0
 22 79  1  0  0  0  0
 23 25  2  0  0  0  0
 23 78  1  0  0  0  0
 24 80  1  0  0  0  0
 25 81  1  0  0  0  0
 26 61  2  0  0  0  0
 27 62  1  0  0  0  0
 27 65  1  0  0  0  0
 28 66  1  0  0  0  0
 28 72  2  0  0  0  0
 29 44  1  0  0  0  0
 29 67  1  0  0  0  0
 29 73  2  0  0  0  0
 30 56  1  0  0  0  0
 30 63  1  0  0  0  0
 30 74  2  0  0  0  0
 31 57  1  0  0  0  0
 31 69  1  0  0  0  0
 31 75  2  0  0  0  0
 32 58  1  0  0  0  0
 32 68  1  0  0  0  0
 32 76  2  0  0  0  0
 33 64  1  0  0  0  0
 33 70  1  0  0  0  0
 33 77  2  0  0  0  0
 34 37  1  0  0  0  0
 35 44  1  0  0  0  0
 36 63  1  0  0  0  0
 37 39  1  0  0  0  0
 38 40  1  0  0  0  0
 38 41  1  0  0  0  0
 39 43  1  0  0  0  0
 40 45  1  0  0  0  0
 41 64  1  0  0  0  0
 42 45  1  0  0  0  0
 42 64  1  0  0  0  0
 43 67  1  0  0  0  0
 44 63  1  0  0  0  0
 45 62  1  0  0  0  0
 46 57  1  0  0  0  0
 47 59  1  0  0  0  0
 48 59  1  0  0  0  0
 49 60  1  0  0  0  0
 50 60  1  0  0  0  0
 51 60  1  0  0  0  0
 52 71  1  0  0  0  0
 53 54  1  0  0  0  0
 53 55  1  0  0  0  0
 54 68  1  0  0  0  0
 55 70  1  0  0  0  0
 56 60  1  0  0  0  0
 56 69  1  0  0  0  0
 57 71  1  0  0  0  0
 58 59  1  0  0  0  0
 58 79  1  0  0  0  0
 61 62  1  0  0  0  0
M  CHG  1  71   1
M  ISO  4  33 100  58 101  70 100  79 101
M  END
> <Batch ID>
0107

> <Smiles>
CNC(C)C(=O)NC(C(=O)N1Cc2cc([101O:1][101CH:1](C(=O)NCCC[100NH:0][100C:0](=O)N3CCCC(n4nc(-c5ccc(Oc6ccc(F)cc6F)cc5)c(C(N)=O)c4N)C3)C(C)C)ccc2CC1C(=O)NC1CCCc2ccccc21)C(C)(C)C

> <Shape>
0.205

> <Color>
0.069

> <Negative vol penalty>
0.000

$$$$

  -OEChem-04052319513D

 84 92  0     1  0  0  0  0  0999 V2000
  -30.1566  -22.6913   27.2774 C   0  0  0  0  0  0  0  0  0  0  0  0
  -29.8476  -23.4539   26.1555 C   0  0  0  0  0  0  0  0  0  0  0  0
  -26.6142  -14.9219   22.6490 C   0  0  0  0  0  0  0  0  0  0  0  0
  -25.9782  -14.5768   20.3440 C   0  0  0  0  0  0  0  0  0  0  0  0
  -29.3206  -21.6422   27.6575 C   0  0  0  0  0  0  0  0  0  0  0  0
  -28.7030  -23.1670   25.4125 C   0  0  0  0  0  0  0  0  0  0  0  0
  -26.0893  -27.3276   24.1864 C   0  0  0  0  0  0  0  0  0  0  0  0
  -25.6817  -13.9651   23.0496 C   0  0  0  0  0  0  0  0  0  0  0  0
  -25.0456  -13.6200   20.7445 C   0  0  0  0  0  0  0  0  0  0  0  0
  -26.5745  -28.0957   23.1289 C   0  0  0  0  0  0  0  0  0  0  0  0
  -25.0579  -10.3766   21.6938 C   0  0  0  0  0  0  0  0  0  0  0  0
  -25.0040   -9.1844   20.9719 C   0  0  0  0  0  0  0  0  0  0  0  0
  -24.9478  -27.0891   21.6593 C   0  0  0  0  0  0  0  0  0  0  0  0
  -22.6985   -9.6319   20.4050 C   0  0  0  0  0  0  0  0  0  0  0  0
  -31.0636  -26.8024   18.3313 C   0  0  0  0  0  0  0  0  0  0  0  0
  -26.7625  -15.2278   21.2962 C   0  0  0  0  0  0  0  0  0  0  0  0
  -29.0740  -15.9994   20.5419 C   0  0  0  0  0  0  0  0  0  0  0  0
  -28.1601  -21.3485   26.9244 C   0  0  0  0  0  0  0  0  0  0  0  0
  -25.0351  -26.4249   23.9855 C   0  0  0  0  0  0  0  0  0  0  0  0
  -27.8515  -22.1121   25.7824 C   0  0  0  0  0  0  0  0  0  0  0  0
  -24.4493  -26.3126   22.7165 C   0  0  0  0  0  0  0  0  0  0  0  0
  -30.8002  -27.1948   19.6210 C   0  0  0  0  0  0  0  0  0  0  0  0
  -24.8974  -13.3141   22.0974 C   0  0  0  0  0  0  0  0  0  0  0  0
  -26.0057  -27.9745   21.8645 C   0  0  0  0  0  0  0  0  0  0  0  0
  -23.9321  -11.1965   21.7714 C   0  0  0  0  0  0  0  0  0  0  0  0
  -23.8243   -8.8120   20.3275 C   0  0  0  0  0  0  0  0  0  0  0  0
  -22.7524  -10.8242   21.1270 C   0  0  0  0  0  0  0  0  0  0  0  0
  -27.7252  -16.2164   20.8818 C   0  0  0  0  0  0  0  0  0  0  0  0
  -30.5059  -25.9972   20.2999 C   0  0  0  0  0  0  0  0  0  0  0  0
  -29.5525  -17.2466   20.2223 C   0  0  0  0  0  0  0  0  0  0  0  0
  -29.8270  -14.7796   20.5172 C   0  0  0  0  0  0  0  0  0  0  0  0
  -24.6989  -23.2749   24.2457 C   0  0  0  0  0  0  0  0  0  0  0  0
  -21.5857  -23.9483   23.6318 C   0  0  0  0  0  0  0  0  0  0  0  0
  -19.2969  -26.0834   22.2718 C   0  0  0  0  0  0  0  0  0  0  0  0
  -29.0258  -22.0103   17.5809 C   0  0  0  0  0  0  0  0  0  0  0  0
  -27.3124  -20.1747   27.3466 C   0  0  0  0  0  0  0  0  0  0  0  0
  -24.5056  -25.6231   25.1426 C   0  0  0  0  0  0  0  0  0  0  0  0
  -23.3021  -25.3729   22.4530 C   0  0  0  0  0  0  0  0  0  0  0  0
  -25.9193  -20.1736   26.7224 C   0  0  0  0  0  0  0  0  0  0  0  0
  -27.4979  -21.8257   20.8564 C   0  0  0  0  0  0  0  0  0  0  0  0
  -26.0043  -20.4614   25.2268 C   0  0  0  0  0  0  0  0  0  0  0  0
  -27.5347  -20.3201   21.1248 C   0  0  0  0  0  0  0  0  0  0  0  0
  -27.2049  -22.1184   19.3879 C   0  0  0  0  0  0  0  0  0  0  0  0
  -28.1828  -19.9643   18.6972 C   0  0  0  0  0  0  0  0  0  0  0  0
  -26.6057  -21.8475   24.9651 C   0  0  1  0  0  0  0  0  0  0  0  0
  -23.7682  -24.3606   24.7070 C   0  0  1  0  0  0  0  0  0  0  0  0
  -28.4972  -19.6023   20.1601 C   0  0  2  0  0  0  0  0  0  0  0  0
  -30.1492  -25.8281   21.7195 C   0  0  0  0  0  0  0  0  0  0  0  0
  -16.8304  -26.3455   21.8909 C   0  0  0  0  0  0  0  0  0  0  0  0
  -27.6461  -30.3600   18.7093 C   0  0  0  0  0  0  0  0  0  0  0  0
  -21.7217  -21.9104   21.3650 C   0  0  0  0  0  0  0  0  0  0  0  0
  -19.6056  -22.8886   20.4520 C   0  0  0  0  0  0  0  0  0  0  0  0
  -19.6162  -21.8332   22.7123 C   0  0  0  0  0  0  0  0  0  0  0  0
  -19.1947  -28.5660   23.8798 C   0  0  0  0  0  0  0  0  0  0  0  0
  -30.8241  -28.5982   20.1730 C   0  0  0  0  0  0  0  0  0  0  0  0
  -29.9234  -29.5826   19.4140 C   0  0  0  0  0  0  0  0  0  0  0  0
  -31.0910  -24.5785   17.1770 C   0  0  0  0  0  0  0  0  0  0  0  0
  -29.7687  -24.1422   16.5513 C   0  0  0  0  0  0  0  0  0  0  0  0
  -27.8586  -29.0810   20.8654 C   0  0  0  0  0  0  0  0  0  1  0  0
  -20.7444  -24.0718   22.3844 C   0  0  1  0  0  0  0  0  0  0  0  0
  -17.9978  -26.6483   22.8174 C   0  0  2  0  0  0  0  0  0  0  0  0
  -28.4142  -29.2548   19.4454 C   0  0  1  0  0  0  0  0  0  0  0  0
  -20.4448  -22.6924   21.7326 C   0  0  0  0  0  0  0  0  0  0  0  0
  -27.3698  -17.5004   20.7871 N   0  0  0  0  0  0  0  0  0  0  0  0
  -30.5754  -24.9245   19.5072 N   0  0  0  0  0  0  0  0  0  0  0  0
  -30.9164  -25.4466   18.3167 N   0  0  0  0  0  0  0  0  0  0  0  0
  -28.5022  -18.1015   20.3842 N   0  0  0  0  0  0  0  0  0  0  0  0
  -22.8238  -24.6059   23.6151 N   0  0  0  0  0  0  0  0  0  0  0  0
  -28.1676  -21.4207   18.5240 N   0  0  0  0  0  0  0  0  0  0  0  0
  -30.7649  -17.6844   19.8214 N   0  0  0  0  0  0  0  0  0  0  0  0
  -29.1810  -13.5883   20.8746 N   0  0  0  0  0  0  0  0  0  0  0  0
  -25.6181  -22.8793   25.1986 N   0  0  0  0  0  0  0  0  0  0  0  0
  -19.5538  -24.8227   22.7678 N   0  0  0  0  0  0  0  0  0  0  0  0
  -28.9445  -23.3932   17.4736 N   0  0  0  0  0  0  0  0  0  0  0  0
  -18.1015  -28.1266   22.9749 N   0  3  0  0  0  0  0  0  0  0  0  0
  -31.0413  -14.7494   20.2038 O   0  0  0  0  0  0  0  0  0  0  0  0
  -24.5900  -22.8280   23.1098 O   0  0  0  0  0  0  0  0  0  0  0  0
  -21.1568  -23.2984   24.5886 O   0  0  0  0  0  0  0  0  0  0  0  0
  -20.0105  -26.6975   21.4817 O   0  0  0  0  0  0  0  0  0  0  0  0
  -29.8109  -21.3530   16.8889 O   0  0  0  0  0  0  0  0  0  0  0  0
  -23.9874  -12.3803   22.4879 O   0  0  0  0  0  0  0  0  0  0  0  0
  -26.4778  -28.7226   20.8304 O   0  0  0  0  0  0  0  0  0  1  0  0
  -23.7731   -7.6678   19.6330 F   0  0  0  0  0  0  0  0  0  0  0  0
  -21.6679  -11.6083   21.1969 F   0  0  0  0  0  0  0  0  0  0  0  0
  1  2  1  0  0  0  0
  1  5  2  0  0  0  0
  2  6  2  0  0  0  0
  3  8  2  0  0  0  0
  3 16  1  0  0  0  0
  4  9  1  0  0  0  0
  4 16  2  0  0  0  0
  5 18  1  0  0  0  0
  6 20  1  0  0  0  0
  7 10  2  0  0  0  0
  7 19  1  0  0  0  0
  8 23  1  0  0  0  0
  9 23  2  0  0  0  0
 10 24  1  0  0  0  0
 11 12  2  0  0  0  0
 11 25  1  0  0  0  0
 12 26  1  0  0  0  0
 13 21  1  0  0  0  0
 13 24  2  0  0  0  0
 14 26  2  0  0  0  0
 14 27  1  0  0  0  0
 15 22  2  0  0  0  0
 15 66  1  0  0  0  0
 16 28  1  0  0  0  0
 17 28  1  0  0  0  0
 17 30  2  0  0  0  0
 17 31  1  0  0  0  0
 18 20  2  0  0  0  0
 18 36  1  0  0  0  0
 19 21  2  0  0  0  0
 19 37  1  0  0  0  0
 20 45  1  0  0  0  0
 21 38  1  0  0  0  0
 22 29  1  0  0  0  0
 22 55  1  0  0  0  0
 23 81  1  0  0  0  0
 24 82  1  0  0  0  0
 25 27  2  0  0  0  0
 25 81  1  0  0  0  0
 26 83  1  0  0  0  0
 27 84  1  0  0  0  0
 28 64  2  0  0  0  0
 29 48  1  0  0  0  0
 29 65  2  0  0  0  0
 30 67  1  0  0  0  0
 30 70  1  0  0  0  0
 31 71  1  0  0  0  0
 31 76  2  0  0  0  0
 32 46  1  0  0  0  0
 32 72  1  0  0  0  0
 32 77  2  0  0  0  0
 33 60  1  0  0  0  0
 33 68  1  0  0  0  0
 33 78  2  0  0  0  0
 34 61  1  0  0  0  0
 34 73  1  0  0  0  0
 34 79  2  0  0  0  0
 35 69  1  0  0  0  0
 35 74  1  0  0  0  0
 35 80  2  0  0  0  0
 36 39  1  0  0  0  0
 37 46  1  0  0  0  0
 38 68  1  0  0  0  0
 39 41  1  0  0  0  0
 40 42  1  0  0  0  0
 40 43  1  0  0  0  0
 41 45  1  0  0  0  0
 42 47  1  0  0  0  0
 43 69  1  0  0  0  0
 44 47  1  0  0  0  0
 44 69  1  0  0  0  0
 45 72  1  0  0  0  0
 46 68  1  0  0  0  0
 47 67  1  0  0  0  0
 49 61  1  0  0  0  0
 50 62  1  0  0  0  0
 51 63  1  0  0  0  0
 52 63  1  0  0  0  0
 53 63  1  0  0  0  0
 54 75  1  0  0  0  0
 55 56  1  0  0  0  0
 56 62  1  0  0  0  0
 57 58  1  0  0  0  0
 57 66  1  0  0  0  0
 58 74  1  0  0  0  0
 59 62  1  0  0  0  0
 59 82  1  0  0  0  0
 60 63  1  0  0  0  0
 60 73  1  0  0  0  0
 61 75  1  0  0  0  0
 64 67  1  0  0  0  0
 65 66  1  0  0  0  0
M  CHG  1  75   1
M  ISO  4  35 100  59 101  74 100  82 101
M  END
> <Batch ID>
0107

> <Smiles>
CNC(C)C(=O)NC(C(=O)N1Cc2cc([101O:1][101CH2:1]C(C)CCc3cn(CC[100NH:0][100C:0](=O)N4CCCC(n5nc(-c6ccc(Oc7ccc(F)cc7F)cc6)c(C(N)=O)c5N)C4)nc3C)ccc2CC1C(=O)NC1CCCc2ccccc21)C(C)(C)C

> <Shape>
0.218

> <Color>
0.048

> <Negative vol penalty>
0.000

$$$$

  -OEChem-04052319513D

 89 97  0     1  0  0  0  0  0999 V2000
  -25.2636  -33.3831   17.3444 C   0  0  0  0  0  0  0  0  0  0  0  0
  -25.1067  -32.0578   16.9517 C   0  0  0  0  0  0  0  0  0  0  0  0
  -23.4415   -9.6121   20.0051 C   0  0  0  0  0  0  0  0  0  0  0  0
  -23.6460  -10.0293   22.3760 C   0  0  0  0  0  0  0  0  0  0  0  0
  -25.8418  -33.6796   18.5780 C   0  0  0  0  0  0  0  0  0  0  0  0
  -25.5288  -31.0281   17.7919 C   0  0  0  0  0  0  0  0  0  0  0  0
  -23.8654  -24.3182   19.6699 C   0  0  0  0  0  0  0  0  0  0  0  0
  -22.7395   -8.4368   20.2725 C   0  0  0  0  0  0  0  0  0  0  0  0
  -22.9440   -8.8540   22.6434 C   0  0  0  0  0  0  0  0  0  0  0  0
  -24.4480  -23.0571   19.7886 C   0  0  0  0  0  0  0  0  0  0  0  0
  -19.7255   -7.8234   22.6482 C   0  0  0  0  0  0  0  0  0  0  0  0
  -18.7219   -7.8756   23.6155 C   0  0  0  0  0  0  0  0  0  0  0  0
  -25.3607  -23.6870   21.9309 C   0  0  0  0  0  0  0  0  0  0  0  0
  -19.8863   -6.2036   24.9138 C   0  0  0  0  0  0  0  0  0  0  0  0
  -23.8948  -10.4083   21.0569 C   0  0  0  0  0  0  0  0  0  0  0  0
  -24.0840  -12.9111   20.6010 C   0  0  0  0  0  0  0  0  0  0  0  0
  -26.2624  -32.6529   19.4380 C   0  0  0  0  0  0  0  0  0  0  0  0
  -24.0355  -25.2785   20.6776 C   0  0  0  0  0  0  0  0  0  0  0  0
  -26.1143  -31.3112   19.0376 C   0  0  0  0  0  0  0  0  0  0  0  0
  -24.7772  -24.9586   21.8238 C   0  0  0  0  0  0  0  0  0  0  0  0
  -22.4907   -8.0578   21.5916 C   0  0  0  0  0  0  0  0  0  0  0  0
  -25.1981  -22.7423   20.9178 C   0  0  0  0  0  0  0  0  0  0  0  0
  -20.8095   -6.9612   22.8137 C   0  0  0  0  0  0  0  0  0  0  0  0
  -18.8023   -7.0657   24.7483 C   0  0  0  0  0  0  0  0  0  0  0  0
  -20.8899   -6.1514   23.9465 C   0  0  0  0  0  0  0  0  0  0  0  0
  -24.6206  -11.6222   20.7814 C   0  0  0  0  0  0  0  0  0  0  0  0
  -25.1775  -13.7087   20.3672 C   0  0  0  0  0  0  0  0  0  0  0  0
  -22.7191  -13.3484   20.6414 C   0  0  0  0  0  0  0  0  0  0  0  0
  -25.3534  -28.1674   20.8237 C   0  0  0  0  0  0  0  0  0  0  0  0
  -30.6706  -17.9771   23.1414 C   0  0  0  0  0  0  0  0  0  0  0  0
  -24.1183  -28.1519   23.8232 C   0  0  0  0  0  0  0  0  0  0  0  0
  -23.0181  -26.3344   26.4940 C   0  0  0  0  0  0  0  0  0  0  0  0
  -30.8411  -13.1806   21.9484 C   0  0  0  0  0  0  0  0  0  0  0  0
  -26.9249  -33.0234   20.7412 C   0  0  0  0  0  0  0  0  0  0  0  0
  -23.3784  -26.6251   20.5468 C   0  0  0  0  0  0  0  0  0  0  0  0
  -24.9728  -25.9471   22.9432 C   0  0  0  0  0  0  0  0  0  0  0  0
  -27.0035  -31.8672   21.7348 C   0  0  0  0  0  0  0  0  0  0  0  0
  -29.9257  -20.1982   26.1714 C   0  0  0  0  0  0  0  0  0  0  0  0
  -29.6091  -13.5535   18.5660 C   0  0  0  0  0  0  0  0  0  0  0  0
  -28.6970  -20.8964   25.6056 C   0  0  0  0  0  0  0  0  0  0  0  0
  -27.5001  -30.6016   21.0431 C   0  0  0  0  0  0  0  0  0  0  0  0
  -30.2636  -18.9521   25.3633 C   0  0  0  0  0  0  0  0  0  0  0  0
  -28.1270  -13.2190   18.7435 C   0  0  0  0  0  0  0  0  0  0  0  0
  -30.4843  -12.6762   19.4562 C   0  0  0  0  0  0  0  0  0  0  0  0
  -28.6558  -12.3932   21.0841 C   0  0  0  0  0  0  0  0  0  0  0  0
  -28.8717  -21.2198   24.1307 C   0  0  0  0  0  0  0  0  0  0  0  0
  -26.5371  -30.1661   19.9321 C   0  0  1  0  0  0  0  0  0  0  0  0
  -24.0457  -27.7009   21.3981 C   0  0  1  0  0  0  0  0  0  0  0  0
  -30.4315  -19.2587   23.8748 C   0  0  2  0  0  0  0  0  0  0  0  0
  -27.7167  -13.2618   20.2275 C   0  0  2  0  0  0  0  0  0  0  0  0
  -22.1045  -26.6008   28.8160 C   0  0  0  0  0  0  0  0  0  0  0  0
  -27.1101  -18.9340   21.3883 C   0  0  0  0  0  0  0  0  0  0  0  0
  -26.9137  -28.8271   24.8429 C   0  0  0  0  0  0  0  0  0  0  0  0
  -26.1657  -28.1499   27.1342 C   0  0  0  0  0  0  0  0  0  0  0  0
  -25.0615  -30.0653   25.9789 C   0  0  0  0  0  0  0  0  0  0  0  0
  -33.2451  -12.8551   23.7187 C   0  0  0  0  0  0  0  0  0  0  0  0
  -34.4456  -14.2125   21.9982 C   0  0  0  0  0  0  0  0  0  0  0  0
  -20.4885  -24.9742   25.7797 C   0  0  0  0  0  0  0  0  0  0  0  0
  -32.5895  -15.2824   23.3014 C   0  0  0  0  0  0  0  0  0  0  0  0
  -32.4599  -16.4542   22.3278 C   0  0  0  0  0  0  0  0  0  0  0  0
  -29.2347  -20.2436   21.8789 C   0  0  0  0  0  0  0  0  0  0  0  0
  -26.9828  -21.4282   21.7804 C   0  0  0  0  0  0  0  0  0  1  0  0
  -24.6109  -27.7094   25.1799 C   0  0  1  0  0  0  0  0  0  0  0  0
  -21.7639  -26.4480   27.3417 C   0  0  2  0  0  0  0  0  0  0  0  0
  -27.8395  -20.2744   21.2444 C   0  0  2  0  0  0  0  0  0  0  0  0
  -25.6861  -28.6698   25.7622 C   0  0  0  0  0  0  0  0  0  0  0  0
  -33.0847  -13.9605   22.6661 C   0  0  0  0  0  0  0  0  0  0  0  0
  -25.9515  -11.5977   20.6714 N   0  0  0  0  0  0  0  0  0  0  0  0
  -26.2604  -12.8811   20.4193 N   0  0  0  0  0  0  0  0  0  0  0  0
  -24.3157  -27.2526   22.7657 N   0  0  0  0  0  0  0  0  0  0  0  0
  -30.0533  -12.7766   20.8577 N   0  0  0  0  0  0  0  0  0  0  0  0
  -25.3088  -15.0301   20.1241 N   0  0  0  0  0  0  0  0  0  0  0  0
  -21.7203  -12.3983   20.8940 N   0  0  0  0  0  0  0  0  0  0  0  0
  -25.3775  -29.5098   20.4970 N   0  0  0  0  0  0  0  0  0  0  0  0
  -32.0058  -17.6497   23.0012 N   0  0  0  0  0  0  0  0  0  0  0  0
  -23.4249  -27.5624   26.0167 N   0  0  0  0  0  0  0  0  0  0  0  0
  -32.1550  -13.5202   21.6499 N   0  0  0  0  0  0  0  0  0  0  0  0
  -29.1794  -19.9532   23.3593 N   0  3  2  0  0  0  0  0  0  0  0  0
  -20.9166  -25.2330   27.1786 N   0  3  0  0  0  0  0  0  0  0  0  0
  -22.3935  -14.5434   20.4425 O   0  0  0  0  0  0  0  0  0  0  0  0
  -26.2730  -27.3688   20.6884 O   0  0  0  0  0  0  0  0  0  0  0  0
  -29.7153  -17.3280   22.7318 O   0  0  0  0  0  0  0  0  0  0  0  0
  -23.5720  -29.2517   23.7073 O   0  0  0  0  0  0  0  0  0  0  0  0
  -23.5826  -25.2639   26.2799 O   0  0  0  0  0  0  0  0  0  0  0  0
  -30.4043  -13.2396   23.1029 O   0  0  0  0  0  0  0  0  0  0  0  0
  -21.8055   -6.9111   21.8528 O   0  0  0  0  0  0  0  0  0  0  0  0
  -25.7684  -21.5124   21.0358 O   0  0  0  0  0  0  0  0  0  1  0  0
  -17.8393   -7.1171   25.6778 F   0  0  0  0  0  0  0  0  0  0  0  0
  -21.9294   -5.3220   24.1115 F   0  0  0  0  0  0  0  0  0  0  0  0
  1  2  1  0  0  0  0
  1  5  2  0  0  0  0
  2  6  2  0  0  0  0
  3  8  2  0  0  0  0
  3 15  1  0  0  0  0
  4  9  1  0  0  0  0
  4 15  2  0  0  0  0
  5 17  1  0  0  0  0
  6 19  1  0  0  0  0
  7 10  2  0  0  0  0
  7 18  1  0  0  0  0
  8 21  1  0  0  0  0
  9 21  2  0  0  0  0
 10 22  1  0  0  0  0
 11 12  2  0  0  0  0
 11 23  1  0  0  0  0
 12 24  1  0  0  0  0
 13 20  1  0  0  0  0
 13 22  2  0  0  0  0
 14 24  2  0  0  0  0
 14 25  1  0  0  0  0
 15 26  1  0  0  0  0
 16 26  1  0  0  0  0
 16 27  2  0  0  0  0
 16 28  1  0  0  0  0
 17 19  2  0  0  0  0
 17 34  1  0  0  0  0
 18 20  2  0  0  0  0
 18 35  1  0  0  0  0
 19 47  1  0  0  0  0
 20 36  1  0  0  0  0
 21 86  1  0  0  0  0
 22 87  1  0  0  0  0
 23 25  2  0  0  0  0
 23 86  1  0  0  0  0
 24 88  1  0  0  0  0
 25 89  1  0  0  0  0
 26 68  2  0  0  0  0
 27 69  1  0  0  0  0
 27 72  1  0  0  0  0
 28 73  1  0  0  0  0
 28 80  2  0  0  0  0
 29 48  1  0  0  0  0
 29 74  1  0  0  0  0
 29 81  2  0  0  0  0
 30 49  1  0  0  0  0
 30 75  1  0  0  0  0
 30 82  2  0  0  0  0
 31 63  1  0  0  0  0
 31 70  1  0  0  0  0
 31 83  2  0  0  0  0
 32 64  1  0  0  0  0
 32 76  1  0  0  0  0
 32 84  2  0  0  0  0
 33 71  1  0  0  0  0
 33 77  1  0  0  0  0
 33 85  2  0  0  0  0
 34 37  1  0  0  0  0
 35 48  1  0  0  0  0
 36 70  1  0  0  0  0
 37 41  1  0  0  0  0
 38 40  1  0  0  0  0
 38 42  1  0  0  0  0
 39 43  1  0  0  0  0
 39 44  1  0  0  0  0
 40 46  1  0  0  0  0
 41 47  1  0  0  0  0
 42 49  1  0  0  0  0
 43 50  1  0  0  0  0
 44 71  1  0  0  0  0
 45 50  1  0  0  0  0
 45 71  1  0  0  0  0
 46 78  1  0  0  0  0
 47 74  1  0  0  0  0
 48 70  1  0  0  0  0
 49 78  1  0  0  0  0
 50 69  1  0  0  0  0
 51 64  1  0  0  0  0
 52 65  1  0  0  0  0
 53 66  1  0  0  0  0
 54 66  1  0  0  0  0
 55 66  1  0  0  0  0
 56 67  1  0  0  0  0
 57 67  1  0  0  0  0
 58 79  1  0  0  0  0
 59 60  1  0  0  0  0
 59 67  1  0  0  0  0
 60 75  1  0  0  0  0
 61 65  1  0  0  0  0
 61 78  1  0  0  0  0
 62 65  1  0  0  0  0
 62 87  1  0  0  0  0
 63 66  1  0  0  0  0
 63 76  1  0  0  0  0
 64 79  1  0  0  0  0
 67 77  1  0  0  0  0
 68 69  1  0  0  0  0
M  CHG  2  78   1  79   1
M  ISO  4  33 100  62 101  77 100  87 101
M  END
> <Batch ID>
0107

> <Smiles>
CNC(C)C(=O)NC(C(=O)N1Cc2cc([101O:1][101CH2:1]C(C)CN3CCCCC3C(=O)NCCC(C)(C)[100NH:0][100C:0](=O)N3CCCC(n4nc(-c5ccc(Oc6ccc(F)cc6F)cc5)c(C(N)=O)c4N)C3)ccc2CC1C(=O)NC1CCCc2ccccc21)C(C)(C)C

> <Shape>
0.208

> <Color>
0.161

> <Negative vol penalty>
0.000

$$$$

  -OEChem-04052319513D

 84 92  0     1  0  0  0  0  0999 V2000
  -17.5292  -25.7409   20.6541 C   0  0  0  0  0  0  0  0  0  0  0  0
  -18.7732  -25.9417   20.0645 C   0  0  0  0  0  0  0  0  0  0  0  0
  -24.0691  -14.1691   22.6183 C   0  0  0  0  0  0  0  0  0  0  0  0
  -26.3965  -14.2273   21.9725 C   0  0  0  0  0  0  0  0  0  0  0  0
  -17.2203  -26.3707   21.8590 C   0  0  0  0  0  0  0  0  0  0  0  0
  -19.7087  -26.7733   20.6792 C   0  0  0  0  0  0  0  0  0  0  0  0
  -24.3584  -24.7674   20.7232 C   0  0  0  0  0  0  0  0  0  0  0  0
  -24.1131  -12.7753   22.6516 C   0  0  0  0  0  0  0  0  0  0  0  0
  -26.4405  -12.8335   22.0058 C   0  0  0  0  0  0  0  0  0  0  0  0
  -25.0907  -24.8313   19.5386 C   0  0  0  0  0  0  0  0  0  0  0  0
  -23.5170   -9.1894   22.5563 C   0  0  0  0  0  0  0  0  0  0  0  0
  -22.4638   -8.4915   21.9654 C   0  0  0  0  0  0  0  0  0  0  0  0
  -26.3035  -26.7313   20.3978 C   0  0  0  0  0  0  0  0  0  0  0  0
  -28.3043  -23.2856   16.6597 C   0  0  0  0  0  0  0  0  0  0  0  0
  -22.9694   -9.5265   19.8416 C   0  0  0  0  0  0  0  0  0  0  0  0
  -25.2108  -14.8951   22.2787 C   0  0  0  0  0  0  0  0  0  0  0  0
  -25.4381  -17.2199   23.3040 C   0  0  0  0  0  0  0  0  0  0  0  0
  -18.1561  -27.2027   22.4937 C   0  0  0  0  0  0  0  0  0  0  0  0
  -24.5860  -25.6933   21.7515 C   0  0  0  0  0  0  0  0  0  0  0  0
  -19.4116  -27.4158   21.8931 C   0  0  0  0  0  0  0  0  0  0  0  0
  -25.5745  -26.6754   21.5955 C   0  0  0  0  0  0  0  0  0  0  0  0
  -29.0366  -24.2025   17.4679 C   0  0  0  0  0  0  0  0  0  0  0  0
  -25.2988  -12.1075   22.3453 C   0  0  0  0  0  0  0  0  0  0  0  0
  -26.0614  -25.8151   19.3745 C   0  0  0  0  0  0  0  0  0  0  0  0
  -24.2964  -10.0559   21.7899 C   0  0  0  0  0  0  0  0  0  0  0  0
  -22.1900   -8.6600   20.6081 C   0  0  0  0  0  0  0  0  0  0  0  0
  -24.0226  -10.2245   20.4326 C   0  0  0  0  0  0  0  0  0  0  0  0
  -25.1658  -16.3348   22.2437 C   0  0  0  0  0  0  0  0  0  0  0  0
  -29.7800  -23.5611   18.4342 C   0  0  0  0  0  0  0  0  0  0  0  0
  -28.5160  -21.9782   17.0389 C   0  0  0  0  0  0  0  0  0  0  0  0
  -25.2576  -18.4694   22.7631 C   0  0  0  0  0  0  0  0  0  0  0  0
  -25.8201  -16.9378   24.6568 C   0  0  0  0  0  0  0  0  0  0  0  0
  -30.6387  -24.1169   19.4307 C   0  0  0  0  0  0  0  0  0  0  0  0
  -22.8319  -27.9136   23.1995 C   0  0  0  0  0  0  0  0  0  0  0  0
  -25.4378  -28.1678   25.1144 C   0  0  0  0  0  0  0  0  0  0  0  0
  -28.7989  -27.7252   25.5070 C   0  0  0  0  0  0  0  0  0  0  0  0
  -25.5726  -20.5743   17.1666 C   0  0  0  0  0  0  0  0  0  0  0  0
  -17.7593  -27.8993   23.7712 C   0  0  0  0  0  0  0  0  0  0  0  0
  -23.8062  -25.5943   23.0339 C   0  0  0  0  0  0  0  0  0  0  0  0
  -25.8715  -27.6805   22.6772 C   0  0  0  0  0  0  0  0  0  0  0  0
  -18.9439  -28.4679   24.5481 C   0  0  0  0  0  0  0  0  0  0  0  0
  -22.7814  -20.7587   19.3693 C   0  0  0  0  0  0  0  0  0  0  0  0
  -19.8828  -29.2231   23.6127 C   0  0  0  0  0  0  0  0  0  0  0  0
  -23.1005  -19.7256   20.4514 C   0  0  0  0  0  0  0  0  0  0  0  0
  -23.2535  -20.2976   17.9921 C   0  0  0  0  0  0  0  0  0  0  0  0
  -24.9938  -18.8764   19.0046 C   0  0  0  0  0  0  0  0  0  0  0  0
  -20.4621  -28.2909   22.5418 C   0  0  1  0  0  0  0  0  0  0  0  0
  -23.7646  -26.9067   23.8107 C   0  0  1  0  0  0  0  0  0  0  0  0
  -24.5867  -19.3214   20.4198 C   0  0  2  0  0  0  0  0  0  0  0  0
  -30.8830  -24.9028   22.5601 C   0  0  0  0  0  0  0  0  0  0  0  0
  -31.0180  -27.6611   26.6768 C   0  0  0  0  0  0  0  0  0  0  0  0
  -25.4319  -31.1594   24.5142 C   0  0  0  0  0  0  0  0  0  0  0  0
  -27.7761  -31.2683   25.3866 C   0  0  0  0  0  0  0  0  0  0  0  0
  -25.9161  -30.5744   26.8970 C   0  0  0  0  0  0  0  0  0  0  0  0
  -28.3867  -24.9287   26.3834 C   0  0  0  0  0  0  0  0  0  0  0  0
  -28.9928  -25.6989   17.2757 C   0  0  0  0  0  0  0  0  0  0  0  0
  -27.9439  -20.7460   16.4547 C   0  0  0  0  0  0  0  0  0  0  0  0
  -31.5886  -23.8613   21.7602 C   0  0  0  0  0  0  0  0  0  0  0  0
  -28.1069  -26.3902   18.3064 C   0  0  0  0  0  0  0  0  0  1  0  0
  -26.7045  -28.9887   25.0926 C   0  0  1  0  0  0  0  0  0  0  0  0
  -29.6079  -27.0940   26.6257 C   0  0  2  0  0  0  0  0  0  0  0  0
  -26.4504  -30.4801   25.4513 C   0  0  0  0  0  0  0  0  0  0  0  0
  -24.8371  -16.9683   21.1147 N   0  0  0  0  0  0  0  0  0  0  0  0
  -24.9017  -18.2648   21.4625 N   0  0  0  0  0  0  0  0  0  0  0  0
  -25.0780  -27.5465   23.9101 N   0  0  0  0  0  0  0  0  0  0  0  0
  -24.6711  -19.9305   18.0301 N   0  0  0  0  0  0  0  0  0  0  0  0
  -25.3702  -19.7123   23.2780 N   0  0  0  0  0  0  0  0  0  0  0  0
  -25.9608  -15.5987   25.0460 N   0  0  0  0  0  0  0  0  0  0  0  0
  -30.7770  -23.4179   20.6496 N   0  0  0  0  0  0  0  0  0  0  0  0
  -21.5238  -27.4799   23.0982 N   0  0  0  0  0  0  0  0  0  0  0  0
  -27.6445  -28.3125   25.9800 N   0  0  0  0  0  0  0  0  0  0  0  0
  -26.8983  -20.1715   17.2717 N   0  0  0  0  0  0  0  0  0  0  0  0
  -29.7010  -25.6197   26.4294 N   0  3  0  0  0  0  0  0  0  0  0  0
  -26.0145  -17.8458   25.5002 O   0  0  0  0  0  0  0  0  0  0  0  0
  -31.2415  -25.2049   19.2468 O   0  0  0  0  0  0  0  0  0  0  0  0
  -23.2664  -29.0040   22.8473 O   0  0  0  0  0  0  0  0  0  0  0  0
  -24.7951  -28.0752   26.1632 O   0  0  0  0  0  0  0  0  0  0  0  0
  -29.1571  -27.7030   24.3315 O   0  0  0  0  0  0  0  0  0  0  0  0
  -25.2229  -21.4476   16.3653 O   0  0  0  0  0  0  0  0  0  0  0  0
  -25.3422  -10.7475   22.3779 O   0  0  0  0  0  0  0  0  0  0  0  0
  -26.7771  -25.8801   18.2189 O   0  0  0  0  0  0  0  0  0  1  0  0
  -21.1795   -7.9885   20.0404 F   0  0  0  0  0  0  0  0  0  0  0  0
  -24.7687  -11.0547   19.6910 F   0  0  0  0  0  0  0  0  0  0  0  0
  -29.5936  -21.8603   18.3645 S   0  0  0  0  0  0  0  0  0  0  0  0
  1  2  1  0  0  0  0
  1  5  2  0  0  0  0
  2  6  2  0  0  0  0
  3  8  2  0  0  0  0
  3 16  1  0  0  0  0
  4  9  1  0  0  0  0
  4 16  2  0  0  0  0
  5 18  1  0  0  0  0
  6 20  1  0  0  0  0
  7 10  2  0  0  0  0
  7 19  1  0  0  0  0
  8 23  1  0  0  0  0
  9 23  2  0  0  0  0
 10 24  1  0  0  0  0
 11 12  2  0  0  0  0
 11 25  1  0  0  0  0
 12 26  1  0  0  0  0
 13 21  1  0  0  0  0
 13 24  2  0  0  0  0
 14 22  1  0  0  0  0
 14 30  2  0  0  0  0
 15 26  2  0  0  0  0
 15 27  1  0  0  0  0
 16 28  1  0  0  0  0
 17 28  1  0  0  0  0
 17 31  2  0  0  0  0
 17 32  1  0  0  0  0
 18 20  2  0  0  0  0
 18 38  1  0  0  0  0
 19 21  2  0  0  0  0
 19 39  1  0  0  0  0
 20 47  1  0  0  0  0
 21 40  1  0  0  0  0
 22 29  2  0  0  0  0
 22 56  1  0  0  0  0
 23 80  1  0  0  0  0
 24 81  1  0  0  0  0
 25 27  2  0  0  0  0
 25 80  1  0  0  0  0
 26 82  1  0  0  0  0
 27 83  1  0  0  0  0
 28 63  2  0  0  0  0
 29 33  1  0  0  0  0
 29 84  1  0  0  0  0
 30 57  1  0  0  0  0
 30 84  1  0  0  0  0
 31 64  1  0  0  0  0
 31 67  1  0  0  0  0
 32 68  1  0  0  0  0
 32 74  2  0  0  0  0
 33 69  1  0  0  0  0
 33 75  2  0  0  0  0
 34 48  1  0  0  0  0
 34 70  1  0  0  0  0
 34 76  2  0  0  0  0
 35 60  1  0  0  0  0
 35 65  1  0  0  0  0
 35 77  2  0  0  0  0
 36 61  1  0  0  0  0
 36 71  1  0  0  0  0
 36 78  2  0  0  0  0
 37 66  1  0  0  0  0
 37 72  1  0  0  0  0
 37 79  2  0  0  0  0
 38 41  1  0  0  0  0
 39 48  1  0  0  0  0
 40 65  1  0  0  0  0
 41 43  1  0  0  0  0
 42 44  1  0  0  0  0
 42 45  1  0  0  0  0
 43 47  1  0  0  0  0
 44 49  1  0  0  0  0
 45 66  1  0  0  0  0
 46 49  1  0  0  0  0
 46 66  1  0  0  0  0
 47 70  1  0  0  0  0
 48 65  1  0  0  0  0
 49 64  1  0  0  0  0
 50 58  1  0  0  0  0
 51 61  1  0  0  0  0
 52 62  1  0  0  0  0
 53 62  1  0  0  0  0
 54 62  1  0  0  0  0
 55 73  1  0  0  0  0
 56 59  1  0  0  0  0
 57 72  1  0  0  0  0
 58 69  1  0  0  0  0
 59 81  1  0  0  0  0
 60 62  1  0  0  0  0
 60 71  1  0  0  0  0
 61 73  1  0  0  0  0
 63 64  1  0  0  0  0
M  CHG  1  73   1
M  ISO  4  37 100  59 101  72 100  81 101
M  END
> <Batch ID>
0107

> <Smiles>
CCNC(=O)c1sc(C[100NH:0][100C:0](=O)N2CCCC(n3nc(-c4ccc(Oc5ccc(F)cc5F)cc4)c(C(N)=O)c3N)C2)cc1C[101CH2:1][101O:1]c1ccc2c(c1)CN(C(=O)C(NC(=O)C(C)NC)C(C)(C)C)C(C(=O)NC1CCCc3ccccc31)C2

> <Shape>
0.192

> <Color>
0.074

> <Negative vol penalty>
0.000

$$$$

  -OEChem-04052319513D

 83 91  0     1  0  0  0  0  0999 V2000
  -18.9979  -21.6096   20.5869 C   0  0  0  0  0  0  0  0  0  0  0  0
  -20.3706  -21.7991   20.4630 C   0  0  0  0  0  0  0  0  0  0  0  0
  -24.0713  -14.0000   20.7230 C   0  0  0  0  0  0  0  0  0  0  0  0
  -26.3680  -13.7108   20.0312 C   0  0  0  0  0  0  0  0  0  0  0  0
  -18.1201  -22.6399   20.2523 C   0  0  0  0  0  0  0  0  0  0  0  0
  -20.8662  -23.0188   20.0033 C   0  0  0  0  0  0  0  0  0  0  0  0
  -26.0470  -25.7798   21.7474 C   0  0  0  0  0  0  0  0  0  0  0  0
  -23.8210  -12.6542   20.4550 C   0  0  0  0  0  0  0  0  0  0  0  0
  -26.1177  -12.3649   19.7632 C   0  0  0  0  0  0  0  0  0  0  0  0
  -27.3185  -25.8340   21.1782 C   0  0  0  0  0  0  0  0  0  0  0  0
  -24.3680   -9.6725   21.9527 C   0  0  0  0  0  0  0  0  0  0  0  0
  -23.6445   -8.9467   22.8990 C   0  0  0  0  0  0  0  0  0  0  0  0
  -26.7588  -27.9399   20.1431 C   0  0  0  0  0  0  0  0  0  0  0  0
  -29.8605  -24.3519   18.8563 C   0  0  0  0  0  0  0  0  0  0  0  0
  -21.9465   -8.4820   21.2443 C   0  0  0  0  0  0  0  0  0  0  0  0
  -25.3448  -14.5283   20.5110 C   0  0  0  0  0  0  0  0  0  0  0  0
  -26.0406  -16.4766   22.0035 C   0  0  0  0  0  0  0  0  0  0  0  0
  -18.6056  -23.8760   19.7975 C   0  0  0  0  0  0  0  0  0  0  0  0
  -25.1165  -26.8016   21.5095 C   0  0  0  0  0  0  0  0  0  0  0  0
  -19.9940  -24.0661   19.6611 C   0  0  0  0  0  0  0  0  0  0  0  0
  -25.4770  -27.8975   20.7126 C   0  0  0  0  0  0  0  0  0  0  0  0
  -30.1214  -24.8929   20.1394 C   0  0  0  0  0  0  0  0  0  0  0  0
  -24.8442  -11.8367   19.9751 C   0  0  0  0  0  0  0  0  0  0  0  0
  -27.6736  -26.9127   20.3736 C   0  0  0  0  0  0  0  0  0  0  0  0
  -23.8807   -9.8031   20.6522 C   0  0  0  0  0  0  0  0  0  0  0  0
  -22.4338   -8.3515   22.5448 C   0  0  0  0  0  0  0  0  0  0  0  0
  -22.6700   -9.2079   20.2981 C   0  0  0  0  0  0  0  0  0  0  0  0
  -25.6037  -15.9186   20.7872 C   0  0  0  0  0  0  0  0  0  0  0  0
  -30.1145  -22.9997   18.9206 C   0  0  0  0  0  0  0  0  0  0  0  0
  -26.1345  -17.8231   21.7493 C   0  0  0  0  0  0  0  0  0  0  0  0
  -30.5271  -23.8547   20.9488 C   0  0  0  0  0  0  0  0  0  0  0  0
  -26.3353  -15.8352   23.2515 C   0  0  0  0  0  0  0  0  0  0  0  0
  -22.2506  -26.9520   20.1429 C   0  0  0  0  0  0  0  0  0  0  0  0
  -22.3300  -30.0121   21.2163 C   0  0  0  0  0  0  0  0  0  0  0  0
  -24.2035  -32.6898   22.1993 C   0  0  0  0  0  0  0  0  0  0  0  0
  -27.5980  -21.4791   17.5059 C   0  0  0  0  0  0  0  0  0  0  0  0
  -17.6162  -24.9438   19.4029 C   0  0  0  0  0  0  0  0  0  0  0  0
  -23.7581  -26.7415   22.1527 C   0  0  0  0  0  0  0  0  0  0  0  0
  -24.5216  -29.0302   20.4428 C   0  0  0  0  0  0  0  0  0  0  0  0
  -18.2364  -26.3332   19.2797 C   0  0  0  0  0  0  0  0  0  0  0  0
  -24.1987  -20.8755   18.3762 C   0  0  0  0  0  0  0  0  0  0  0  0
  -19.5366  -26.2689   18.4847 C   0  0  0  0  0  0  0  0  0  0  0  0
  -24.2551  -19.5876   19.1997 C   0  0  0  0  0  0  0  0  0  0  0  0
  -25.2143  -20.8612   17.2359 C   0  0  0  0  0  0  0  0  0  0  0  0
  -26.6590  -19.2916   18.4700 C   0  0  0  0  0  0  0  0  0  0  0  0
  -20.5711  -25.3832   19.1896 C   0  0  1  0  0  0  0  0  0  0  0  0
  -22.7147  -27.5835   21.4249 C   0  0  1  0  0  0  0  0  0  0  0  0
  -25.6914  -19.2826   19.6658 C   0  0  2  0  0  0  0  0  0  0  0  0
  -31.2557  -27.1365   20.2912 C   0  0  0  0  0  0  0  0  0  0  0  0
  -23.9874  -35.0637   22.9836 C   0  0  0  0  0  0  0  0  0  0  0  0
  -29.9397  -20.8880   21.7620 C   0  0  0  0  0  0  0  0  0  0  0  0
  -32.3448  -21.3085   21.0952 C   0  0  0  0  0  0  0  0  0  0  0  0
  -21.7200  -30.8974   18.3607 C   0  0  0  0  0  0  0  0  0  0  0  0
  -22.4483  -33.2071   18.9954 C   0  0  0  0  0  0  0  0  0  0  0  0
  -20.4879  -32.1632   20.1311 C   0  0  0  0  0  0  0  0  0  0  0  0
  -25.5100  -32.0773   24.7833 C   0  0  0  0  0  0  0  0  0  0  0  0
  -30.0040  -21.9659   17.8707 C   0  0  0  0  0  0  0  0  0  0  0  0
  -29.9773  -26.3446   20.5352 C   0  0  1  0  0  0  0  0  0  1  0  0
  -22.8153  -31.3283   20.6587 C   0  0  1  0  0  0  0  0  0  0  0  0
  -24.0959  -33.6064   23.4046 C   0  0  2  0  0  0  0  0  0  0  0  0
  -30.8797  -21.3842   20.6615 C   0  0  0  0  0  0  0  0  0  0  0  0
  -21.8855  -31.8769   19.5398 C   0  0  0  0  0  0  0  0  0  0  0  0
  -25.4318  -16.8356   19.8314 N   0  0  0  0  0  0  0  0  0  0  0  0
  -30.5193  -22.7088   20.1972 N   0  0  0  0  0  0  0  0  0  0  0  0
  -25.7623  -17.9835   20.4471 N   0  0  0  0  0  0  0  0  0  0  0  0
  -23.2031  -28.9225   21.0890 N   0  0  0  0  0  0  0  0  0  0  0  0
  -26.5561  -20.5679   17.7452 N   0  0  0  0  0  0  0  0  0  0  0  0
  -26.4983  -18.8738   22.5150 N   0  0  0  0  0  0  0  0  0  0  0  0
  -26.1859  -14.4445   23.3396 N   0  0  0  0  0  0  0  0  0  0  0  0
  -21.1771  -26.0952   20.2942 N   0  0  0  0  0  0  0  0  0  0  0  0
  -22.9688  -32.2236   21.8003 N   0  0  0  0  0  0  0  0  0  0  0  0
  -28.8365  -21.1276   18.0286 N   0  0  0  0  0  0  0  0  0  0  0  0
  -25.2946  -33.4574   24.2774 N   0  3  0  0  0  0  0  0  0  0  0  0
  -26.7040  -16.4784   24.2634 O   0  0  0  0  0  0  0  0  0  0  0  0
  -22.8230  -27.2233   19.0939 O   0  0  0  0  0  0  0  0  0  0  0  0
  -21.2202  -29.9545   21.7516 O   0  0  0  0  0  0  0  0  0  0  0  0
  -25.2754  -32.4178   21.6630 O   0  0  0  0  0  0  0  0  0  0  0  0
  -27.4351  -22.5307   16.8778 O   0  0  0  0  0  0  0  0  0  0  0  0
  -24.6005  -10.5234   19.7137 O   0  0  0  0  0  0  0  0  0  0  0  0
  -28.9138  -26.9678   19.8162 O   0  0  0  0  0  0  0  0  0  1  0  0
  -21.7399   -7.6532   23.4532 F   0  0  0  0  0  0  0  0  0  0  0  0
  -22.1973   -9.3289   19.0500 F   0  0  0  0  0  0  0  0  0  0  0  0
  -30.9871  -23.8186   22.5863 Cl  0  0  0  0  0  0  0  0  0  0  0  0
  1  2  1  0  0  0  0
  1  5  2  0  0  0  0
  2  6  2  0  0  0  0
  3  8  2  0  0  0  0
  3 16  1  0  0  0  0
  4  9  1  0  0  0  0
  4 16  2  0  0  0  0
  5 18  1  0  0  0  0
  6 20  1  0  0  0  0
  7 10  2  0  0  0  0
  7 19  1  0  0  0  0
  8 23  1  0  0  0  0
  9 23  2  0  0  0  0
 10 24  1  0  0  0  0
 11 12  2  0  0  0  0
 11 25  1  0  0  0  0
 12 26  1  0  0  0  0
 13 21  1  0  0  0  0
 13 24  2  0  0  0  0
 14 22  1  0  0  0  0
 14 29  2  0  0  0  0
 15 26  2  0  0  0  0
 15 27  1  0  0  0  0
 16 28  1  0  0  0  0
 17 28  1  0  0  0  0
 17 30  2  0  0  0  0
 17 32  1  0  0  0  0
 18 20  2  0  0  0  0
 18 37  1  0  0  0  0
 19 21  2  0  0  0  0
 19 38  1  0  0  0  0
 20 46  1  0  0  0  0
 21 39  1  0  0  0  0
 22 31  2  0  0  0  0
 22 58  1  0  0  0  0
 23 79  1  0  0  0  0
 24 80  1  0  0  0  0
 25 27  2  0  0  0  0
 25 79  1  0  0  0  0
 26 81  1  0  0  0  0
 27 82  1  0  0  0  0
 28 63  2  0  0  0  0
 29 57  1  0  0  0  0
 29 64  1  0  0  0  0
 30 65  1  0  0  0  0
 30 68  1  0  0  0  0
 31 64  1  0  0  0  0
 31 83  1  0  0  0  0
 32 69  1  0  0  0  0
 32 74  2  0  0  0  0
 33 47  1  0  0  0  0
 33 70  1  0  0  0  0
 33 75  2  0  0  0  0
 34 59  1  0  0  0  0
 34 66  1  0  0  0  0
 34 76  2  0  0  0  0
 35 60  1  0  0  0  0
 35 71  1  0  0  0  0
 35 77  2  0  0  0  0
 36 67  1  0  0  0  0
 36 72  1  0  0  0  0
 36 78  2  0  0  0  0
 37 40  1  0  0  0  0
 38 47  1  0  0  0  0
 39 66  1  0  0  0  0
 40 42  1  0  0  0  0
 41 43  1  0  0  0  0
 41 44  1  0  0  0  0
 42 46  1  0  0  0  0
 43 48  1  0  0  0  0
 44 67  1  0  0  0  0
 45 48  1  0  0  0  0
 45 67  1  0  0  0  0
 46 70  1  0  0  0  0
 47 66  1  0  0  0  0
 48 65  1  0  0  0  0
 49 58  1  0  0  0  0
 50 60  1  0  0  0  0
 51 61  1  0  0  0  0
 52 61  1  0  0  0  0
 53 62  1  0  0  0  0
 54 62  1  0  0  0  0
 55 62  1  0  0  0  0
 56 73  1  0  0  0  0
 57 72  1  0  0  0  0
 58 80  1  0  0  0  0
 59 62  1  0  0  0  0
 59 71  1  0  0  0  0
 60 73  1  0  0  0  0
 61 64  1  0  0  0  0
 63 65  1  0  0  0  0
M  CHG  1  73   1
M  ISO  4  36 100  58 101  72 100  80 101
M  END
> <Batch ID>
0107

> <Smiles>
CNC(C)C(=O)NC(C(=O)N1Cc2cc([101O:1][101CH:1](C)c3cc(C[100NH:0][100C:0](=O)N4CCCC(n5nc(-c6ccc(Oc7ccc(F)cc7F)cc6)c(C(N)=O)c5N)C4)n(C(C)C)c3Cl)ccc2CC1C(=O)NC1CCCc2ccccc21)C(C)(C)C

> <Shape>
0.224

> <Color>
0.059

> <Negative vol penalty>
0.000

$$$$

  -OEChem-04052319513D

 87 95  0     1  0  0  0  0  0999 V2000
  -18.5026  -32.2823   19.5858 C   0  0  0  0  0  0  0  0  0  0  0  0
  -19.7398  -31.7768   19.1995 C   0  0  0  0  0  0  0  0  0  0  0  0
  -26.7717  -12.4295   21.7858 C   0  0  0  0  0  0  0  0  0  0  0  0
  -26.0783  -14.0112   20.0963 C   0  0  0  0  0  0  0  0  0  0  0  0
  -18.1575  -32.3210   20.9361 C   0  0  0  0  0  0  0  0  0  0  0  0
  -20.6331  -31.3107   20.1635 C   0  0  0  0  0  0  0  0  0  0  0  0
  -24.5418  -26.6294   19.6034 C   0  0  0  0  0  0  0  0  0  0  0  0
  -25.4856  -11.8902   21.8088 C   0  0  0  0  0  0  0  0  0  0  0  0
  -24.7922  -13.4718   20.1193 C   0  0  0  0  0  0  0  0  0  0  0  0
  -25.9034  -26.5745   19.3088 C   0  0  0  0  0  0  0  0  0  0  0  0
  -22.4798   -9.8602   22.0518 C   0  0  0  0  0  0  0  0  0  0  0  0
  -22.3591   -8.4706   22.0507 C   0  0  0  0  0  0  0  0  0  0  0  0
  -26.4032  -26.4727   21.6666 C   0  0  0  0  0  0  0  0  0  0  0  0
  -29.3205  -21.5932   19.7726 C   0  0  0  0  0  0  0  0  0  0  0  0
  -23.5215   -8.3715   19.9349 C   0  0  0  0  0  0  0  0  0  0  0  0
  -27.0681  -13.4901   20.9296 C   0  0  0  0  0  0  0  0  0  0  0  0
  -29.4718  -13.6484   20.0901 C   0  0  0  0  0  0  0  0  0  0  0  0
  -19.0431  -31.8462   21.9164 C   0  0  0  0  0  0  0  0  0  0  0  0
  -24.1004  -26.6174   20.9344 C   0  0  0  0  0  0  0  0  0  0  0  0
  -20.3000  -31.3443   21.5283 C   0  0  0  0  0  0  0  0  0  0  0  0
  -25.0353  -26.5250   21.9753 C   0  0  0  0  0  0  0  0  0  0  0  0
  -29.2961  -22.8155   19.1101 C   0  0  0  0  0  0  0  0  0  0  0  0
  -29.9662  -23.9069   19.6514 C   0  0  0  0  0  0  0  0  0  0  0  0
  -24.4958  -12.4113   20.9755 C   0  0  0  0  0  0  0  0  0  0  0  0
  -26.8345  -26.4990   20.3406 C   0  0  0  0  0  0  0  0  0  0  0  0
  -23.1211  -10.5055   20.9945 C   0  0  0  0  0  0  0  0  0  0  0  0
  -22.8800   -7.7262   20.9923 C   0  0  0  0  0  0  0  0  0  0  0  0
  -23.6420   -9.7611   19.9361 C   0  0  0  0  0  0  0  0  0  0  0  0
  -28.3964  -14.0480   20.9059 C   0  0  0  0  0  0  0  0  0  0  0  0
  -30.6406  -23.7254   20.8481 C   0  0  0  0  0  0  0  0  0  0  0  0
  -30.0240  -21.5153   20.9637 C   0  0  0  0  0  0  0  0  0  0  0  0
  -30.5024  -14.4831   20.4473 C   0  0  0  0  0  0  0  0  0  0  0  0
  -29.5336  -12.6151   19.0980 C   0  0  0  0  0  0  0  0  0  0  0  0
  -22.4821  -28.6376   22.7793 C   0  0  0  0  0  0  0  0  0  0  0  0
  -22.5876  -26.1800   24.8939 C   0  0  0  0  0  0  0  0  0  0  0  0
  -24.1478  -23.3366   25.9558 C   0  0  0  0  0  0  0  0  0  0  0  0
  -30.6811  -19.9589   22.8324 C   0  0  0  0  0  0  0  0  0  0  0  0
  -18.6447  -31.9522   23.3671 C   0  0  0  0  0  0  0  0  0  0  0  0
  -22.6269  -26.6504   21.2346 C   0  0  0  0  0  0  0  0  0  0  0  0
  -24.6122  -26.4886   23.4203 C   0  0  0  0  0  0  0  0  0  0  0  0
  -19.4972  -31.0928   24.2972 C   0  0  0  0  0  0  0  0  0  0  0  0
  -32.1607  -17.0068   24.1642 C   0  0  0  0  0  0  0  0  0  0  0  0
  -20.9780  -31.2631   23.9736 C   0  0  0  0  0  0  0  0  0  0  0  0
  -31.4655  -15.8769   23.4012 C   0  0  0  0  0  0  0  0  0  0  0  0
  -31.2049  -18.1600   24.4648 C   0  0  0  0  0  0  0  0  0  0  0  0
  -29.7936  -17.5631   22.5358 C   0  0  0  0  0  0  0  0  0  0  0  0
  -21.2861  -30.8065   22.5424 C   0  0  1  0  0  0  0  0  0  0  0  0
  -22.3149  -27.1507   22.6416 C   0  0  1  0  0  0  0  0  0  0  0  0
  -30.7325  -16.4073   22.1534 C   0  0  2  0  0  0  0  0  0  0  0  0
  -27.0395  -22.6624   17.9975 C   0  0  0  0  0  0  0  0  0  0  0  0
  -29.1181  -22.0154   16.7263 C   0  0  0  0  0  0  0  0  0  0  0  0
  -30.6285  -25.1655   17.5757 C   0  0  0  0  0  0  0  0  0  0  0  0
  -24.0256  -21.5688   27.7327 C   0  0  0  0  0  0  0  0  0  0  0  0
  -23.7639  -28.1368   26.9181 C   0  0  0  0  0  0  0  0  0  0  0  0
  -24.4885  -26.1727   28.2912 C   0  0  0  0  0  0  0  0  0  0  0  0
  -22.0631  -26.5617   27.8566 C   0  0  0  0  0  0  0  0  0  0  0  0
  -23.7442  -21.1914   23.9572 C   0  0  0  0  0  0  0  0  0  0  0  0
  -33.3813  -26.3405   21.4365 C   0  0  0  0  0  0  0  0  0  0  0  0
  -33.5581  -23.9810   20.6604 C   0  0  0  0  0  0  0  0  0  0  0  0
  -31.3774  -24.8625   21.4779 C   0  0  0  0  0  0  0  0  0  0  0  0
  -28.5407  -25.8303   18.8248 C   0  0  0  0  0  0  0  0  0  1  0  0
  -28.5458  -22.9307   17.8244 C   0  0  0  0  0  0  0  0  0  0  0  0
  -29.9584  -25.2558   18.9495 C   0  0  1  0  0  0  0  0  0  0  0  0
  -23.5431  -25.7425   25.9777 C   0  0  1  0  0  0  0  0  0  0  0  0
  -23.6049  -21.9684   26.3269 C   0  0  2  0  0  0  0  0  0  0  0  0
  -23.4730  -26.6561   27.2338 C   0  0  0  0  0  0  0  0  0  0  0  0
  -28.7143  -15.0579   21.7201 N   0  0  0  0  0  0  0  0  0  0  0  0
  -30.6870  -22.5536   21.5206 N   0  0  0  0  0  0  0  0  0  0  0  0
  -30.0013  -15.2999   21.4178 N   0  0  0  0  0  0  0  0  0  0  0  0
  -23.1606  -26.5296   23.6629 N   0  0  0  0  0  0  0  0  0  0  0  0
  -30.5502  -18.6131   23.2356 N   0  0  0  0  0  0  0  0  0  0  0  0
  -31.7794  -14.5906   20.0229 N   0  0  0  0  0  0  0  0  0  0  0  0
  -28.3836  -11.8514   18.8561 N   0  0  0  0  0  0  0  0  0  0  0  0
  -30.0427  -20.2656   21.6312 N   0  0  0  0  0  0  0  0  0  0  0  0
  -21.3456  -29.3621   22.4746 N   0  0  0  0  0  0  0  0  0  0  0  0
  -23.2454  -24.3390   26.2422 N   0  0  0  0  0  0  0  0  0  0  0  0
  -24.1060  -20.9367   25.3753 N   0  3  0  0  0  0  0  0  0  0  0  0
  -32.6592  -25.1837   20.7939 N   0  3  0  0  0  0  0  0  0  0  0  0
  -30.5825  -12.3653   18.4570 O   0  0  0  0  0  0  0  0  0  0  0  0
  -23.5618  -29.0936   23.1370 O   0  0  0  0  0  0  0  0  0  0  0  0
  -21.3769  -26.2038   25.1286 O   0  0  0  0  0  0  0  0  0  0  0  0
  -25.2625  -23.5001   25.4646 O   0  0  0  0  0  0  0  0  0  0  0  0
  -31.3358  -20.7724   23.4894 O   0  0  0  0  0  0  0  0  0  0  0  0
  -23.2408  -11.8851   20.9975 O   0  0  0  0  0  0  0  0  0  0  0  0
  -28.1641  -26.4459   20.0559 O   0  0  0  0  0  0  0  0  0  1  0  0
  -22.7655   -6.3916   20.9920 F   0  0  0  0  0  0  0  0  0  0  0  0
  -24.2603  -10.3753   18.9181 F   0  0  0  0  0  0  0  0  0  0  0  0
  1  2  1  0  0  0  0
  1  5  2  0  0  0  0
  2  6  2  0  0  0  0
  3  8  2  0  0  0  0
  3 16  1  0  0  0  0
  4  9  1  0  0  0  0
  4 16  2  0  0  0  0
  5 18  1  0  0  0  0
  6 20  1  0  0  0  0
  7 10  2  0  0  0  0
  7 19  1  0  0  0  0
  8 24  1  0  0  0  0
  9 24  2  0  0  0  0
 10 25  1  0  0  0  0
 11 12  2  0  0  0  0
 11 26  1  0  0  0  0
 12 27  1  0  0  0  0
 13 21  1  0  0  0  0
 13 25  2  0  0  0  0
 14 22  2  0  0  0  0
 14 31  1  0  0  0  0
 15 27  2  0  0  0  0
 15 28  1  0  0  0  0
 16 29  1  0  0  0  0
 17 29  1  0  0  0  0
 17 32  2  0  0  0  0
 17 33  1  0  0  0  0
 18 20  2  0  0  0  0
 18 38  1  0  0  0  0
 19 21  2  0  0  0  0
 19 39  1  0  0  0  0
 20 47  1  0  0  0  0
 21 40  1  0  0  0  0
 22 23  1  0  0  0  0
 22 62  1  0  0  0  0
 23 30  2  0  0  0  0
 23 63  1  0  0  0  0
 24 84  1  0  0  0  0
 25 85  1  0  0  0  0
 26 28  2  0  0  0  0
 26 84  1  0  0  0  0
 27 86  1  0  0  0  0
 28 87  1  0  0  0  0
 29 67  2  0  0  0  0
 30 60  1  0  0  0  0
 30 68  1  0  0  0  0
 31 68  2  0  0  0  0
 31 74  1  0  0  0  0
 32 69  1  0  0  0  0
 32 72  1  0  0  0  0
 33 73  1  0  0  0  0
 33 79  2  0  0  0  0
 34 48  1  0  0  0  0
 34 75  1  0  0  0  0
 34 80  2  0  0  0  0
 35 64  1  0  0  0  0
 35 70  1  0  0  0  0
 35 81  2  0  0  0  0
 36 65  1  0  0  0  0
 36 76  1  0  0  0  0
 36 82  2  0  0  0  0
 37 71  1  0  0  0  0
 37 74  1  0  0  0  0
 37 83  2  0  0  0  0
 38 41  1  0  0  0  0
 39 48  1  0  0  0  0
 40 70  1  0  0  0  0
 41 43  1  0  0  0  0
 42 44  1  0  0  0  0
 42 45  1  0  0  0  0
 43 47  1  0  0  0  0
 44 49  1  0  0  0  0
 45 71  1  0  0  0  0
 46 49  1  0  0  0  0
 46 71  1  0  0  0  0
 47 75  1  0  0  0  0
 48 70  1  0  0  0  0
 49 69  1  0  0  0  0
 50 62  1  0  0  0  0
 51 62  1  0  0  0  0
 52 63  1  0  0  0  0
 53 65  1  0  0  0  0
 54 66  1  0  0  0  0
 55 66  1  0  0  0  0
 56 66  1  0  0  0  0
 57 77  1  0  0  0  0
 58 78  1  0  0  0  0
 59 78  1  0  0  0  0
 60 78  1  0  0  0  0
 61 63  1  0  0  0  0
 61 85  1  0  0  0  0
 64 66  1  0  0  0  0
 64 76  1  0  0  0  0
 65 77  1  0  0  0  0
 67 69  1  0  0  0  0
M  CHG  2  77   1  78   1
M  ISO  4  37 100  61 101  74 100  85 101
M  END
> <Batch ID>
0107

> <Smiles>
CNC(C)C(=O)NC(C(=O)N1Cc2cc([101O:1][101CH2:1]C(C)c3c(C(C)C)cc([100NH:0][100C:0](=O)N4CCCC(n5nc(-c6ccc(Oc7ccc(F)cc7F)cc6)c(C(N)=O)c5N)C4)nc3CN(C)C)ccc2CC1C(=O)NC1CCCc2ccccc21)C(C)(C)C

> <Shape>
0.238

> <Color>
0.099

> <Negative vol penalty>
0.000

$$$$

  -OEChem-04052319513D

 87 95  0     1  0  0  0  0  0999 V2000
  -23.0729  -36.8874   23.4007 C   0  0  0  0  0  0  0  0  0  0  0  0
  -24.4084  -36.7074   23.0551 C   0  0  0  0  0  0  0  0  0  0  0  0
  -24.4282   -9.0490   21.5692 C   0  0  0  0  0  0  0  0  0  0  0  0
  -22.5662  -10.3956   20.8230 C   0  0  0  0  0  0  0  0  0  0  0  0
  -22.4364  -35.9607   24.2254 C   0  0  0  0  0  0  0  0  0  0  0  0
  -25.1086  -35.6010   23.5350 C   0  0  0  0  0  0  0  0  0  0  0  0
  -28.9779  -30.0516   19.6287 C   0  0  0  0  0  0  0  0  0  0  0  0
  -23.6037   -7.9243   21.5967 C   0  0  0  0  0  0  0  0  0  0  0  0
  -21.7418   -9.2709   20.8504 C   0  0  0  0  0  0  0  0  0  0  0  0
  -29.5593  -28.9273   19.0421 C   0  0  0  0  0  0  0  0  0  0  0  0
  -21.9012   -4.7698   22.2084 C   0  0  0  0  0  0  0  0  0  0  0  0
  -21.9826   -3.9312   23.3201 C   0  0  0  0  0  0  0  0  0  0  0  0
  -29.0280  -27.6162   21.0034 C   0  0  0  0  0  0  0  0  0  0  0  0
  -21.3350   -5.7664   24.7518 C   0  0  0  0  0  0  0  0  0  0  0  0
  -23.9094  -10.2847   21.1824 C   0  0  0  0  0  0  0  0  0  0  0  0
  -25.5301  -11.9112   20.0708 C   0  0  0  0  0  0  0  0  0  0  0  0
  -23.1264  -34.8374   24.7077 C   0  0  0  0  0  0  0  0  0  0  0  0
  -28.4049  -29.9585   20.9001 C   0  0  0  0  0  0  0  0  0  0  0  0
  -24.4811  -34.6592   24.3679 C   0  0  0  0  0  0  0  0  0  0  0  0
  -28.4331  -28.7359   21.5909 C   0  0  0  0  0  0  0  0  0  0  0  0
  -22.2605   -8.0352   21.2373 C   0  0  0  0  0  0  0  0  0  0  0  0
  -29.5845  -27.7127   19.7279 C   0  0  0  0  0  0  0  0  0  0  0  0
  -21.5369   -6.1067   22.3685 C   0  0  0  0  0  0  0  0  0  0  0  0
  -21.6994   -4.4295   24.5918 C   0  0  0  0  0  0  0  0  0  0  0  0
  -21.2537   -6.6050   23.6402 C   0  0  0  0  0  0  0  0  0  0  0  0
  -24.7605  -11.4471   21.1543 C   0  0  0  0  0  0  0  0  0  0  0  0
  -26.1523  -13.0383   20.5494 C   0  0  0  0  0  0  0  0  0  0  0  0
  -25.6700  -11.3718   18.7497 C   0  0  0  0  0  0  0  0  0  0  0  0
  -26.5890  -31.7032   23.6812 C   0  0  0  0  0  0  0  0  0  0  0  0
  -25.3428  -28.9126   23.4160 C   0  0  0  0  0  0  0  0  0  0  0  0
  -23.9703  -25.9202   22.5224 C   0  0  0  0  0  0  0  0  0  0  0  0
  -26.0126  -17.8398   23.3904 C   0  0  0  0  0  0  0  0  0  0  0  0
  -22.4095  -33.8879   25.6347 C   0  0  0  0  0  0  0  0  0  0  0  0
  -27.8225  -31.1588   21.5958 C   0  0  0  0  0  0  0  0  0  0  0  0
  -27.8354  -28.6912   22.9706 C   0  0  0  0  0  0  0  0  0  0  0  0
  -23.1162  -32.5445   25.7962 C   0  0  0  0  0  0  0  0  0  0  0  0
  -26.5151  -14.8505   25.2580 C   0  0  0  0  0  0  0  0  0  0  0  0
  -24.6078  -32.7517   26.0387 C   0  0  0  0  0  0  0  0  0  0  0  0
  -26.1610  -13.7379   24.2697 C   0  0  0  0  0  0  0  0  0  0  0  0
  -27.8820  -19.5649   21.3372 C   0  0  0  0  0  0  0  0  0  0  0  0
  -28.2817  -20.9374   20.8097 C   0  0  0  0  0  0  0  0  0  0  0  0
  -25.6156  -16.0715   25.0792 C   0  0  0  0  0  0  0  0  0  0  0  0
  -25.2103  -15.4945   22.7177 C   0  0  0  0  0  0  0  0  0  0  0  0
  -25.5964  -19.8641   20.3287 C   0  0  0  0  0  0  0  0  0  0  0  0
  -25.2673  -33.4586   24.8483 C   0  0  1  0  0  0  0  0  0  0  0  0
  -26.6034  -30.8164   22.4709 C   0  0  1  0  0  0  0  0  0  0  0  0
  -26.1269  -14.2636   22.8221 C   0  0  2  0  0  0  0  0  0  0  0  0
  -26.3787  -19.4977   21.5836 C   0  0  1  0  0  0  0  0  0  0  0  0
  -27.5011  -21.3290   19.5492 C   0  0  2  0  0  0  0  0  0  0  0  0
  -31.1675  -21.9325   17.1176 C   0  0  0  0  0  0  0  0  0  0  0  0
  -22.1366  -24.3274   23.1533 C   0  0  0  0  0  0  0  0  0  0  0  0
  -28.9467  -24.8936   17.1203 C   0  0  0  0  0  0  0  0  0  0  0  0
  -23.6905  -21.7214   19.1765 C   0  0  0  0  0  0  0  0  0  0  0  0
  -25.3222  -20.6759   17.5582 C   0  0  0  0  0  0  0  0  0  0  0  0
  -26.9856  -27.9751   25.8089 C   0  0  0  0  0  0  0  0  0  0  0  0
  -25.6477  -25.8589   25.8082 C   0  0  0  0  0  0  0  0  0  0  0  0
  -24.5168  -28.0472   26.2018 C   0  0  0  0  0  0  0  0  0  0  0  0
  -22.6702  -26.1870   19.8772 C   0  0  0  0  0  0  0  0  0  0  0  0
  -27.8875  -22.7432   19.1204 C   0  0  0  0  0  0  0  0  0  0  0  0
  -29.7029  -21.9134   17.5399 C   0  0  0  0  0  0  0  0  0  0  0  0
  -29.6179  -25.3443   19.5104 C   0  0  0  0  0  0  0  0  0  1  0  0
  -25.3420  -27.4783   23.8807 C   0  0  1  0  0  0  0  0  0  0  0  0
  -22.5309  -25.5054   22.2761 C   0  0  2  0  0  0  0  0  0  0  0  0
  -29.7448  -24.3736   18.3273 C   0  0  1  0  0  0  0  0  0  0  0  0
  -29.3655  -22.9018   18.6840 C   0  0  1  0  0  0  0  0  0  0  0  0
  -25.1313  -21.6675   18.6947 C   0  0  0  0  0  0  0  0  0  0  0  0
  -25.6373  -27.3480   25.4017 C   0  0  0  0  0  0  0  0  0  0  0  0
  -24.8812  -12.2163   22.2395 N   0  0  0  0  0  0  0  0  0  0  0  0
  -25.7341  -13.1752   21.8403 N   0  0  0  0  0  0  0  0  0  0  0  0
  -26.5693  -29.4402   22.9942 N   0  0  0  0  0  0  0  0  0  0  0  0
  -25.6290  -16.5211   23.6850 N   0  0  0  0  0  0  0  0  0  0  0  0
  -27.0110  -13.9156   19.9878 N   0  0  0  0  0  0  0  0  0  0  0  0
  -24.9598  -10.2082   18.4245 N   0  0  0  0  0  0  0  0  0  0  0  0
  -25.4821  -32.5263   23.7625 N   0  0  0  0  0  0  0  0  0  0  0  0
  -24.0593  -26.9171   23.4708 N   0  0  0  0  0  0  0  0  0  0  0  0
  -26.0038  -18.1822   22.0437 N   0  0  0  0  0  0  0  0  0  0  0  0
  -26.0070  -21.2457   19.8502 N   0  3  1  0  0  0  0  0  0  0  0  0
  -22.3414  -25.1140   20.8506 N   0  3  0  0  0  0  0  0  0  0  0  0
  -26.4160  -11.8967   17.8885 O   0  0  0  0  0  0  0  0  0  0  0  0
  -27.5131  -31.6448   24.4840 O   0  0  0  0  0  0  0  0  0  0  0  0
  -24.2873  -29.5521   23.4308 O   0  0  0  0  0  0  0  0  0  0  0  0
  -24.9209  -25.4082   21.9352 O   0  0  0  0  0  0  0  0  0  0  0  0
  -26.3438  -18.6503   24.2623 O   0  0  0  0  0  0  0  0  0  0  0  0
  -21.4558   -6.9378   21.2638 O   0  0  0  0  0  0  0  0  0  0  0  0
  -30.1496  -26.6179   19.1476 O   0  0  0  0  0  0  0  0  0  1  0  0
  -21.7761   -3.6237   25.6590 F   0  0  0  0  0  0  0  0  0  0  0  0
  -20.9020   -7.8882   23.8000 F   0  0  0  0  0  0  0  0  0  0  0  0
  1  2  1  0  0  0  0
  1  5  2  0  0  0  0
  2  6  2  0  0  0  0
  3  8  2  0  0  0  0
  3 15  1  0  0  0  0
  4  9  1  0  0  0  0
  4 15  2  0  0  0  0
  5 17  1  0  0  0  0
  6 19  1  0  0  0  0
  7 10  2  0  0  0  0
  7 18  1  0  0  0  0
  8 21  1  0  0  0  0
  9 21  2  0  0  0  0
 10 22  1  0  0  0  0
 11 12  2  0  0  0  0
 11 23  1  0  0  0  0
 12 24  1  0  0  0  0
 13 20  1  0  0  0  0
 13 22  2  0  0  0  0
 14 24  2  0  0  0  0
 14 25  1  0  0  0  0
 15 26  1  0  0  0  0
 16 26  1  0  0  0  0
 16 27  2  0  0  0  0
 16 28  1  0  0  0  0
 17 19  2  0  0  0  0
 17 33  1  0  0  0  0
 18 20  2  0  0  0  0
 18 34  1  0  0  0  0
 19 45  1  0  0  0  0
 20 35  1  0  0  0  0
 21 84  1  0  0  0  0
 22 85  1  0  0  0  0
 23 25  2  0  0  0  0
 23 84  1  0  0  0  0
 24 86  1  0  0  0  0
 25 87  1  0  0  0  0
 26 68  2  0  0  0  0
 27 69  1  0  0  0  0
 27 72  1  0  0  0  0
 28 73  1  0  0  0  0
 28 79  2  0  0  0  0
 29 46  1  0  0  0  0
 29 74  1  0  0  0  0
 29 80  2  0  0  0  0
 30 62  1  0  0  0  0
 30 70  1  0  0  0  0
 30 81  2  0  0  0  0
 31 63  1  0  0  0  0
 31 75  1  0  0  0  0
 31 82  2  0  0  0  0
 32 71  1  0  0  0  0
 32 76  1  0  0  0  0
 32 83  2  0  0  0  0
 33 36  1  0  0  0  0
 34 46  1  0  0  0  0
 35 70  1  0  0  0  0
 36 38  1  0  0  0  0
 37 39  1  0  0  0  0
 37 42  1  0  0  0  0
 38 45  1  0  0  0  0
 39 47  1  0  0  0  0
 40 41  1  0  0  0  0
 40 48  1  0  0  0  0
 41 49  1  0  0  0  0
 42 71  1  0  0  0  0
 43 47  1  0  0  0  0
 43 71  1  0  0  0  0
 44 48  1  0  0  0  0
 44 77  1  0  0  0  0
 45 74  1  0  0  0  0
 46 70  1  0  0  0  0
 47 69  1  0  0  0  0
 48 76  1  0  0  0  0
 49 59  1  0  0  0  0
 49 77  1  0  0  0  0
 50 60  1  0  0  0  0
 51 63  1  0  0  0  0
 52 64  1  0  0  0  0
 53 66  1  0  0  0  0
 54 66  1  0  0  0  0
 55 67  1  0  0  0  0
 56 67  1  0  0  0  0
 57 67  1  0  0  0  0
 58 78  1  0  0  0  0
 59 65  1  0  0  0  0
 60 65  1  0  0  0  0
 61 64  1  0  0  0  0
 61 85  1  0  0  0  0
 62 67  1  0  0  0  0
 62 75  1  0  0  0  0
 63 78  1  0  0  0  0
 64 65  1  0  0  0  0
 66 77  1  0  0  0  0
 68 69  1  0  0  0  0
M  CHG  2  77   1  78   1
M  ISO  4  32 100  61 101  76 100  85 101
M  END
> <Batch ID>
0107

> <Smiles>
CCC(CC1CCC([100NH:0][100C:0](=O)N2CCCC(n3nc(-c4ccc(Oc5ccc(F)cc5F)cc4)c(C(N)=O)c3N)C2)CN1C(C)C)C(C)[101CH2:1][101O:1]c1ccc2c(c1)CN(C(=O)C(NC(=O)C(C)NC)C(C)(C)C)C(C(=O)NC1CCCc3ccccc31)C2

> <Shape>
0.267

> <Color>
0.075

> <Negative vol penalty>
0.000

$$$$

  -OEChem-04052319513D

 82 90  0     1  0  0  0  0  0999 V2000
  -22.3553  -11.2661   19.0957 C   0  0  0  0  0  0  0  0  0  0  0  0
  -21.9455  -12.5955   19.0923 C   0  0  0  0  0  0  0  0  0  0  0  0
  -30.2768  -26.9804   21.2825 C   0  0  0  0  0  0  0  0  0  0  0  0
  -28.9185  -25.6633   22.7850 C   0  0  0  0  0  0  0  0  0  0  0  0
  -23.5322  -10.9022   19.7487 C   0  0  0  0  0  0  0  0  0  0  0  0
  -22.7118  -13.5618   19.7430 C   0  0  0  0  0  0  0  0  0  0  0  0
  -23.5190  -19.3865   18.0319 C   0  0  0  0  0  0  0  0  0  0  0  0
  -31.4211  -26.6003   21.9838 C   0  0  0  0  0  0  0  0  0  0  0  0
  -30.0628  -25.2832   23.4862 C   0  0  0  0  0  0  0  0  0  0  0  0
  -22.9198  -20.5764   18.4427 C   0  0  0  0  0  0  0  0  0  0  0  0
  -32.9785  -27.4551   24.8592 C   0  0  0  0  0  0  0  0  0  0  0  0
  -33.9089  -28.4478   25.1668 C   0  0  0  0  0  0  0  0  0  0  0  0
  -24.7471  -20.9622   19.9697 C   0  0  0  0  0  0  0  0  0  0  0  0
  -18.6083  -26.7384   22.9345 C   0  0  0  0  0  0  0  0  0  0  0  0
  -19.3449  -24.4815   22.5489 C   0  0  0  0  0  0  0  0  0  0  0  0
  -35.5931  -27.2599   23.9061 C   0  0  0  0  0  0  0  0  0  0  0  0
  -29.0255  -26.5119   21.6831 C   0  0  0  0  0  0  0  0  0  0  0  0
  -27.2626  -26.2470   19.8585 C   0  0  0  0  0  0  0  0  0  0  0  0
  -24.3184  -11.8661   20.3994 C   0  0  0  0  0  0  0  0  0  0  0  0
  -24.7333  -18.9693   18.5957 C   0  0  0  0  0  0  0  0  0  0  0  0
  -23.8997  -13.2103   20.4065 C   0  0  0  0  0  0  0  0  0  0  0  0
  -25.3609  -19.7679   19.5624 C   0  0  0  0  0  0  0  0  0  0  0  0
  -18.3640  -25.3702   22.9750 C   0  0  0  0  0  0  0  0  0  0  0  0
  -31.3141  -25.7517   23.0856 C   0  0  0  0  0  0  0  0  0  0  0  0
  -23.5324  -21.3630   19.4138 C   0  0  0  0  0  0  0  0  0  0  0  0
  -33.3555  -26.3647   24.0751 C   0  0  0  0  0  0  0  0  0  0  0  0
  -35.2162  -28.3502   24.6902 C   0  0  0  0  0  0  0  0  0  0  0  0
  -34.6628  -26.2672   23.5985 C   0  0  0  0  0  0  0  0  0  0  0  0
  -27.8431  -26.9047   20.9595 C   0  0  0  0  0  0  0  0  0  0  0  0
  -19.8399  -27.1636   22.4630 C   0  0  0  0  0  0  0  0  0  0  0  0
  -20.5434  -25.0078   22.0945 C   0  0  0  0  0  0  0  0  0  0  0  0
  -26.1671  -27.0119   19.5401 C   0  0  0  0  0  0  0  0  0  0  0  0
  -27.6765  -25.0514   19.1839 C   0  0  0  0  0  0  0  0  0  0  0  0
  -25.6696  -16.4520   20.2957 C   0  0  0  0  0  0  0  0  0  0  0  0
  -28.6064  -17.7745   19.9107 C   0  0  0  0  0  0  0  0  0  0  0  0
  -30.4688  -20.5716   19.3151 C   0  0  0  0  0  0  0  0  0  0  0  0
  -22.0403  -30.1827   22.0759 C   0  0  0  0  0  0  0  0  0  0  0  0
  -25.5581  -11.4175   21.1320 C   0  0  0  0  0  0  0  0  0  0  0  0
  -25.3801  -17.6965   18.1224 C   0  0  0  0  0  0  0  0  0  0  0  0
  -26.6751  -19.3748   20.1842 C   0  0  0  0  0  0  0  0  0  0  0  0
  -26.5080  -12.5610   21.4787 C   0  0  0  0  0  0  0  0  0  0  0  0
  -24.8075  -31.6843   20.4133 C   0  0  0  0  0  0  0  0  0  0  0  0
  -25.7370  -13.7322   22.0791 C   0  0  0  0  0  0  0  0  0  0  0  0
  -25.8184  -30.5438   20.2823 C   0  0  0  0  0  0  0  0  0  0  0  0
  -24.0371  -31.6072   21.7295 C   0  0  0  0  0  0  0  0  0  0  0  0
  -24.3911  -29.1716   21.8567 C   0  0  0  0  0  0  0  0  0  0  0  0
  -24.7169  -14.2914   21.0800 C   0  0  1  0  0  0  0  0  0  0  0  0
  -26.3595  -17.1115   19.1352 C   0  0  1  0  0  0  0  0  0  0  0  0
  -25.1532  -29.1748   20.5205 C   0  0  2  0  0  0  0  0  0  0  0  0
  -17.0556  -24.8582   23.4734 C   0  0  0  0  0  0  0  0  0  0  0  0
  -32.8458  -21.3459   19.0966 C   0  0  0  0  0  0  0  0  0  0  0  0
  -28.9254  -17.6429   22.9423 C   0  0  0  0  0  0  0  0  0  0  0  0
  -30.8326  -19.2525   22.7416 C   0  0  0  0  0  0  0  0  0  0  0  0
  -30.9719  -17.0139   21.6497 C   0  0  0  0  0  0  0  0  0  0  0  0
  -30.0463  -21.4550   16.5223 C   0  0  0  0  0  0  0  0  0  0  0  0
  -20.1367  -28.6249   22.4056 C   0  0  0  0  0  0  0  0  0  0  0  0
  -22.8078  -24.5067   21.1743 C   0  0  0  0  0  0  0  0  0  0  0  0
  -23.6320  -23.2814   20.8160 C   0  0  0  0  0  0  0  0  0  1  0  0
  -29.4380  -18.7734   20.6784 C   0  0  1  0  0  0  0  0  0  0  0  0
  -31.6193  -20.8310   18.3594 C   0  0  2  0  0  0  0  0  0  0  0  0
  -30.0163  -18.1774   21.9929 C   0  0  0  0  0  0  0  0  0  0  0  0
  -27.1720  -28.0030   21.3165 N   0  0  0  0  0  0  0  0  0  0  0  0
  -20.8172  -26.3306   22.0405 N   0  0  0  0  0  0  0  0  0  0  0  0
  -26.1586  -28.0414   20.4347 N   0  0  0  0  0  0  0  0  0  0  0  0
  -27.2647  -18.1184   19.6928 N   0  0  0  0  0  0  0  0  0  0  0  0
  -23.4294  -30.2845   21.8936 N   0  0  0  0  0  0  0  0  0  0  0  0
  -25.2200  -26.8977   18.5849 N   0  0  0  0  0  0  0  0  0  0  0  0
  -28.8245  -24.3899   19.6407 N   0  0  0  0  0  0  0  0  0  0  0  0
  -21.5108  -24.1106   21.6732 N   0  0  0  0  0  0  0  0  0  0  0  0
  -25.3775  -15.1168   20.0917 N   0  0  0  0  0  0  0  0  0  0  0  0
  -30.4500  -19.2627   19.7484 N   0  0  0  0  0  0  0  0  0  0  0  0
  -21.5452  -28.8921   22.2171 N   0  0  0  0  0  0  0  0  0  0  0  0
  -31.2261  -21.8423   17.3378 N   0  3  0  0  0  0  0  0  0  0  0  0
  -27.0562  -24.5927   18.1948 O   0  0  0  0  0  0  0  0  0  0  0  0
  -25.4219  -17.1056   21.3022 O   0  0  0  0  0  0  0  0  0  0  0  0
  -29.1298  -16.7309   19.5126 O   0  0  0  0  0  0  0  0  0  0  0  0
  -29.6691  -21.4438   19.6472 O   0  0  0  0  0  0  0  0  0  0  0  0
  -21.2959  -31.1685   22.1050 O   0  0  0  0  0  0  0  0  0  0  0  0
  -32.4305  -25.3804   23.7700 O   0  0  0  0  0  0  0  0  0  0  0  0
  -22.9494  -22.5247   19.8171 O   0  0  0  0  0  0  0  0  0  1  0  0
  -36.1090  -29.3044   24.9844 F   0  0  0  0  0  0  0  0  0  0  0  0
  -35.0305  -25.2227   22.8438 F   0  0  0  0  0  0  0  0  0  0  0  0
  1  2  1  0  0  0  0
  1  5  2  0  0  0  0
  2  6  2  0  0  0  0
  3  8  2  0  0  0  0
  3 17  1  0  0  0  0
  4  9  1  0  0  0  0
  4 17  2  0  0  0  0
  5 19  1  0  0  0  0
  6 21  1  0  0  0  0
  7 10  2  0  0  0  0
  7 20  1  0  0  0  0
  8 24  1  0  0  0  0
  9 24  2  0  0  0  0
 10 25  1  0  0  0  0
 11 12  2  0  0  0  0
 11 26  1  0  0  0  0
 12 27  1  0  0  0  0
 13 22  1  0  0  0  0
 13 25  2  0  0  0  0
 14 23  1  0  0  0  0
 14 30  2  0  0  0  0
 15 23  2  0  0  0  0
 15 31  1  0  0  0  0
 16 27  2  0  0  0  0
 16 28  1  0  0  0  0
 17 29  1  0  0  0  0
 18 29  1  0  0  0  0
 18 32  2  0  0  0  0
 18 33  1  0  0  0  0
 19 21  2  0  0  0  0
 19 38  1  0  0  0  0
 20 22  2  0  0  0  0
 20 39  1  0  0  0  0
 21 47  1  0  0  0  0
 22 40  1  0  0  0  0
 23 50  1  0  0  0  0
 24 79  1  0  0  0  0
 25 80  1  0  0  0  0
 26 28  2  0  0  0  0
 26 79  1  0  0  0  0
 27 81  1  0  0  0  0
 28 82  1  0  0  0  0
 29 62  2  0  0  0  0
 30 56  1  0  0  0  0
 30 63  1  0  0  0  0
 31 63  2  0  0  0  0
 31 69  1  0  0  0  0
 32 64  1  0  0  0  0
 32 67  1  0  0  0  0
 33 68  1  0  0  0  0
 33 74  2  0  0  0  0
 34 48  1  0  0  0  0
 34 70  1  0  0  0  0
 34 75  2  0  0  0  0
 35 59  1  0  0  0  0
 35 65  1  0  0  0  0
 35 76  2  0  0  0  0
 36 60  1  0  0  0  0
 36 71  1  0  0  0  0
 36 77  2  0  0  0  0
 37 66  1  0  0  0  0
 37 72  1  0  0  0  0
 37 78  2  0  0  0  0
 38 41  1  0  0  0  0
 39 48  1  0  0  0  0
 40 65  1  0  0  0  0
 41 43  1  0  0  0  0
 42 44  1  0  0  0  0
 42 45  1  0  0  0  0
 43 47  1  0  0  0  0
 44 49  1  0  0  0  0
 45 66  1  0  0  0  0
 46 49  1  0  0  0  0
 46 66  1  0  0  0  0
 47 70  1  0  0  0  0
 48 65  1  0  0  0  0
 49 64  1  0  0  0  0
 51 60  1  0  0  0  0
 52 61  1  0  0  0  0
 53 61  1  0  0  0  0
 54 61  1  0  0  0  0
 55 73  1  0  0  0  0
 56 72  1  0  0  0  0
 57 58  1  0  0  0  0
 57 69  1  0  0  0  0
 58 80  1  0  0  0  0
 59 61  1  0  0  0  0
 59 71  1  0  0  0  0
 60 73  1  0  0  0  0
 62 64  1  0  0  0  0
M  CHG  1  73   1
M  ISO  4  37 100  58 101  72 100  80 101
M  END
> <Batch ID>
0107

> <Smiles>
CNC(C)C(=O)NC(C(=O)N1Cc2cc([101O:1][101CH2:1]CNc3cc(C)cc(C[100NH:0][100C:0](=O)N4CCCC(n5nc(-c6ccc(Oc7ccc(F)cc7F)cc6)c(C(N)=O)c5N)C4)n3)ccc2CC1C(=O)NC1CCCc2ccccc21)C(C)(C)C

> <Shape>
0.225

> <Color>
0.076

> <Negative vol penalty>
0.000

$$$$

  -OEChem-04052319513D

 84 92  0     1  0  0  0  0  0999 V2000
  -37.4020  -26.8806   26.8758 C   0  0  0  0  0  0  0  0  0  0  0  0
  -36.3635  -26.2048   26.2433 C   0  0  0  0  0  0  0  0  0  0  0  0
  -23.3308  -10.1518   22.2026 C   0  0  0  0  0  0  0  0  0  0  0  0
  -23.6115   -9.5233   19.8867 C   0  0  0  0  0  0  0  0  0  0  0  0
  -37.1332  -28.0256   27.6245 C   0  0  0  0  0  0  0  0  0  0  0  0
  -35.0552  -26.6731   26.3600 C   0  0  0  0  0  0  0  0  0  0  0  0
  -32.5910  -26.6761   21.9359 C   0  0  0  0  0  0  0  0  0  0  0  0
  -22.5980   -8.9870   22.4299 C   0  0  0  0  0  0  0  0  0  0  0  0
  -22.8787   -8.3584   20.1141 C   0  0  0  0  0  0  0  0  0  0  0  0
  -32.1045  -25.4527   21.4772 C   0  0  0  0  0  0  0  0  0  0  0  0
  -19.6286   -7.4805   20.4249 C   0  0  0  0  0  0  0  0  0  0  0  0
  -18.6522   -7.1363   19.4901 C   0  0  0  0  0  0  0  0  0  0  0  0
  -29.9052  -26.0328   22.2809 C   0  0  0  0  0  0  0  0  0  0  0  0
  -19.7967   -5.0519   19.0623 C   0  0  0  0  0  0  0  0  0  0  0  0
  -23.8375  -10.4200   20.9310 C   0  0  0  0  0  0  0  0  0  0  0  0
  -24.1560  -12.9503   20.8668 C   0  0  0  0  0  0  0  0  0  0  0  0
  -35.8223  -28.5137   27.7424 C   0  0  0  0  0  0  0  0  0  0  0  0
  -31.7392  -27.5839   22.5813 C   0  0  0  0  0  0  0  0  0  0  0  0
  -34.7684  -27.8250   27.1120 C   0  0  0  0  0  0  0  0  0  0  0  0
  -30.3828  -27.2681   22.7445 C   0  0  0  0  0  0  0  0  0  0  0  0
  -22.3720   -8.0902   21.3857 C   0  0  0  0  0  0  0  0  0  0  0  0
  -30.7621  -25.1296   21.6523 C   0  0  0  0  0  0  0  0  0  0  0  0
  -20.6890   -6.6105   20.6783 C   0  0  0  0  0  0  0  0  0  0  0  0
  -18.7362   -5.9220   18.8088 C   0  0  0  0  0  0  0  0  0  0  0  0
  -20.7731   -5.3962   19.9971 C   0  0  0  0  0  0  0  0  0  0  0  0
  -24.5941  -11.6234   20.6953 C   0  0  0  0  0  0  0  0  0  0  0  0
  -25.2388  -13.7177   20.5133 C   0  0  0  0  0  0  0  0  0  0  0  0
  -29.7040  -17.9870   22.1105 C   0  0  0  0  0  0  0  0  0  0  0  0
  -22.8841  -13.4448   21.3066 C   0  0  0  0  0  0  0  0  0  0  0  0
  -31.6241  -28.8783   25.4822 C   0  0  0  0  0  0  0  0  0  0  0  0
  -29.2029  -30.6071   24.1893 C   0  0  0  0  0  0  0  0  0  0  0  0
  -26.4034  -29.9892   21.9988 C   0  0  0  0  0  0  0  0  0  0  0  0
  -30.7145  -14.7817   20.6863 C   0  0  0  0  0  0  0  0  0  0  0  0
  -35.5745  -29.7284   28.6014 C   0  0  0  0  0  0  0  0  0  0  0  0
  -32.2737  -28.9108   23.0464 C   0  0  0  0  0  0  0  0  0  0  0  0
  -29.4226  -28.2166   23.4129 C   0  0  0  0  0  0  0  0  0  0  0  0
  -34.2105  -30.3725   28.3665 C   0  0  0  0  0  0  0  0  0  0  0  0
  -32.1784  -17.9901   23.6821 C   0  0  0  0  0  0  0  0  0  0  0  0
  -29.5808  -12.4426   18.2532 C   0  0  0  0  0  0  0  0  0  0  0  0
  -33.1160  -29.3103   28.3404 C   0  0  0  0  0  0  0  0  0  0  0  0
  -31.5867  -16.6690   23.2303 C   0  0  0  0  0  0  0  0  0  0  0  0
  -28.1492  -12.1260   18.6894 C   0  0  0  0  0  0  0  0  0  0  0  0
  -31.0595  -18.9640   24.0024 C   0  0  0  0  0  0  0  0  0  0  0  0
  -30.5046  -12.6440   19.4523 C   0  0  0  0  0  0  0  0  0  0  0  0
  -28.6066  -13.3258   20.8689 C   0  0  0  0  0  0  0  0  0  0  0  0
  -33.3394  -28.3160   27.1946 C   0  0  1  0  0  0  0  0  0  0  0  0
  -30.7703  -16.9038   21.9720 C   0  0  1  0  0  0  0  0  0  0  0  0
  -31.4286  -29.5422   24.1485 C   0  0  1  0  0  0  0  0  0  0  0  0
  -27.6255  -13.1695   19.6944 C   0  0  2  0  0  0  0  0  0  0  0  0
  -25.1807  -31.5293   20.4398 C   0  0  0  0  0  0  0  0  0  0  0  0
  -29.4153  -21.3362   20.2243 C   0  0  0  0  0  0  0  0  0  0  0  0
  -28.5230  -20.2102   24.5312 C   0  0  0  0  0  0  0  0  0  0  0  0
  -27.3050  -31.0132   26.5436 C   0  0  0  0  0  0  0  0  0  0  0  0
  -25.4039  -31.0490   24.9150 C   0  0  0  0  0  0  0  0  0  0  0  0
  -27.1852  -32.7907   24.7885 C   0  0  0  0  0  0  0  0  0  0  0  0
  -26.8569  -28.1976   19.6872 C   0  0  0  0  0  0  0  0  0  0  0  0
  -29.7705  -21.4807   22.7492 C   0  0  0  0  0  0  0  0  0  0  0  0
  -31.1966  -22.8384   21.1858 C   0  0  0  0  0  0  0  0  0  1  0  0
  -27.7095  -30.4265   24.0621 C   0  0  1  0  0  0  0  0  0  0  0  0
  -26.2526  -30.4575   20.5627 C   0  0  2  0  0  0  0  0  0  0  0  0
  -30.4336  -21.5161   21.3554 C   0  0  2  0  0  0  0  0  0  0  0  0
  -29.0836  -20.1539   23.1126 C   0  0  1  0  0  0  0  0  0  0  0  0
  -26.9185  -31.2976   25.0784 C   0  0  0  0  0  0  0  0  0  0  0  0
  -25.8567  -11.5487   20.2660 N   0  0  0  0  0  0  0  0  0  0  0  0
  -26.2212  -12.8382   20.1647 N   0  0  0  0  0  0  0  0  0  0  0  0
  -30.0020  -19.0291   22.9930 N   0  0  0  0  0  0  0  0  0  0  0  0
  -29.9945  -29.4989   23.8560 N   0  0  0  0  0  0  0  0  0  0  0  0
  -29.9514  -13.6469   20.3657 N   0  0  0  0  0  0  0  0  0  0  0  0
  -25.4369  -15.0524   20.4695 N   0  0  0  0  0  0  0  0  0  0  0  0
  -21.8828  -12.5190   21.6299 N   0  0  0  0  0  0  0  0  0  0  0  0
  -32.9298  -28.8972   25.9341 N   0  0  0  0  0  0  0  0  0  0  0  0
  -27.3836  -30.6936   22.6654 N   0  0  0  0  0  0  0  0  0  0  0  0
  -30.1133  -15.6855   21.5538 N   0  0  0  0  0  0  0  0  0  0  0  0
  -25.8780  -29.3151   19.6820 N   0  3  0  0  0  0  0  0  0  0  0  0
  -28.7004  -17.9701   21.3920 O   0  0  0  0  0  0  0  0  0  0  0  0
  -22.6374  -14.6716   21.3940 O   0  0  0  0  0  0  0  0  0  0  0  0
  -30.6613  -28.3867   26.0593 O   0  0  0  0  0  0  0  0  0  0  0  0
  -29.6509  -31.6938   24.5634 O   0  0  0  0  0  0  0  0  0  0  0  0
  -25.7176  -29.0911   22.4821 O   0  0  0  0  0  0  0  0  0  0  0  0
  -31.8455  -14.9779   20.2288 O   0  0  0  0  0  0  0  0  0  0  0  0
  -21.6571   -6.9534   21.6072 O   0  0  0  0  0  0  0  0  0  0  0  0
  -30.2848  -23.9359   21.2061 O   0  0  0  0  0  0  0  0  0  1  0  0
  -17.7977   -5.5908   17.9123 F   0  0  0  0  0  0  0  0  0  0  0  0
  -21.7889   -4.5558   20.2372 F   0  0  0  0  0  0  0  0  0  0  0  0
  1  2  1  0  0  0  0
  1  5  2  0  0  0  0
  2  6  2  0  0  0  0
  3  8  2  0  0  0  0
  3 15  1  0  0  0  0
  4  9  1  0  0  0  0
  4 15  2  0  0  0  0
  5 17  1  0  0  0  0
  6 19  1  0  0  0  0
  7 10  2  0  0  0  0
  7 18  1  0  0  0  0
  8 21  1  0  0  0  0
  9 21  2  0  0  0  0
 10 22  1  0  0  0  0
 11 12  2  0  0  0  0
 11 23  1  0  0  0  0
 12 24  1  0  0  0  0
 13 20  1  0  0  0  0
 13 22  2  0  0  0  0
 14 24  2  0  0  0  0
 14 25  1  0  0  0  0
 15 26  1  0  0  0  0
 16 26  1  0  0  0  0
 16 27  2  0  0  0  0
 16 29  1  0  0  0  0
 17 19  2  0  0  0  0
 17 34  1  0  0  0  0
 18 20  2  0  0  0  0
 18 35  1  0  0  0  0
 19 46  1  0  0  0  0
 20 36  1  0  0  0  0
 21 81  1  0  0  0  0
 22 82  1  0  0  0  0
 23 25  2  0  0  0  0
 23 81  1  0  0  0  0
 24 83  1  0  0  0  0
 25 84  1  0  0  0  0
 26 64  2  0  0  0  0
 27 65  1  0  0  0  0
 27 69  1  0  0  0  0
 28 47  1  0  0  0  0
 28 66  1  0  0  0  0
 28 75  2  0  0  0  0
 29 70  1  0  0  0  0
 29 76  2  0  0  0  0
 30 48  1  0  0  0  0
 30 71  1  0  0  0  0
 30 77  2  0  0  0  0
 31 59  1  0  0  0  0
 31 67  1  0  0  0  0
 31 78  2  0  0  0  0
 32 60  1  0  0  0  0
 32 72  1  0  0  0  0
 32 79  2  0  0  0  0
 33 68  1  0  0  0  0
 33 73  1  0  0  0  0
 33 80  2  0  0  0  0
 34 37  1  0  0  0  0
 35 48  1  0  0  0  0
 36 67  1  0  0  0  0
 37 40  1  0  0  0  0
 38 41  1  0  0  0  0
 38 43  1  0  0  0  0
 39 42  1  0  0  0  0
 39 44  1  0  0  0  0
 40 46  1  0  0  0  0
 41 47  1  0  0  0  0
 42 49  1  0  0  0  0
 43 66  1  0  0  0  0
 44 68  1  0  0  0  0
 45 49  1  0  0  0  0
 45 68  1  0  0  0  0
 46 71  1  0  0  0  0
 47 73  1  0  0  0  0
 48 67  1  0  0  0  0
 49 65  1  0  0  0  0
 50 60  1  0  0  0  0
 51 61  1  0  0  0  0
 52 62  1  0  0  0  0
 53 63  1  0  0  0  0
 54 63  1  0  0  0  0
 55 63  1  0  0  0  0
 56 74  1  0  0  0  0
 57 61  1  0  0  0  0
 57 62  1  0  0  0  0
 58 61  1  0  0  0  0
 58 82  1  0  0  0  0
 59 63  1  0  0  0  0
 59 72  1  0  0  0  0
 60 74  1  0  0  0  0
 62 66  1  0  0  0  0
 64 65  1  0  0  0  0
M  CHG  1  74   1
M  ISO  4  33 100  58 101  73 100  82 101
M  END
> <Batch ID>
0107

> <Smiles>
CNC(C)C(=O)NC(C(=O)N1Cc2cc([101O:1][101CH2:1]C(C)CC(C)N3CCCC([100NH:0][100C:0](=O)N4CCCC(n5nc(-c6ccc(Oc7ccc(F)cc7F)cc6)c(C(N)=O)c5N)C4)C3=O)ccc2CC1C(=O)NC1CCCc2ccccc21)C(C)(C)C

> <Shape>
0.258

> <Color>
0.216

> <Negative vol penalty>
0.000

$$$$
