
  -OEChem-04052319533D

 84 91  0     1  0  0  0  0  0999 V2000
  -19.2847  -31.6364   18.5549 C   0  0  0  0  0  0  0  0  0  0  0  0
  -20.6687  -31.5159   18.6291 C   0  0  0  0  0  0  0  0  0  0  0  0
  -27.0900  -17.1008   21.8430 C   0  0  0  0  0  0  0  0  0  0  0  0
  -29.2152  -16.8452   20.7227 C   0  0  0  0  0  0  0  0  0  0  0  0
  -18.5033  -31.3918   19.6834 C   0  0  0  0  0  0  0  0  0  0  0  0
  -21.2721  -31.1517   19.8323 C   0  0  0  0  0  0  0  0  0  0  0  0
  -24.8690  -27.6404   19.2169 C   0  0  0  0  0  0  0  0  0  0  0  0
  -26.9308  -15.7152   21.8572 C   0  0  0  0  0  0  0  0  0  0  0  0
  -29.0561  -15.4595   20.7370 C   0  0  0  0  0  0  0  0  0  0  0  0
  -26.1045  -28.0720   18.7362 C   0  0  0  0  0  0  0  0  0  0  0  0
  -25.7979  -12.2597   21.8662 C   0  0  0  0  0  0  0  0  0  0  0  0
  -24.5529  -11.7447   21.5055 C   0  0  0  0  0  0  0  0  0  0  0  0
  -26.9814  -28.0451   20.9833 C   0  0  0  0  0  0  0  0  0  0  0  0
  -24.7573  -12.7748   19.3296 C   0  0  0  0  0  0  0  0  0  0  0  0
  -28.2322  -17.6658   21.2757 C   0  0  0  0  0  0  0  0  0  0  0  0
  -29.0121  -19.8928   22.2452 C   0  0  0  0  0  0  0  0  0  0  0  0
  -19.0968  -31.0151   20.8985 C   0  0  0  0  0  0  0  0  0  0  0  0
  -24.6770  -27.4180   20.5881 C   0  0  0  0  0  0  0  0  0  0  0  0
  -20.4980  -30.9031   20.9785 C   0  0  0  0  0  0  0  0  0  0  0  0
  -25.7433  -27.6082   21.4786 C   0  0  0  0  0  0  0  0  0  0  0  0
  -27.9138  -14.8945   21.3043 C   0  0  0  0  0  0  0  0  0  0  0  0
  -27.1601  -28.2771   19.6198 C   0  0  0  0  0  0  0  0  0  0  0  0
  -26.5226  -13.0324   20.9588 C   0  0  0  0  0  0  0  0  0  0  0  0
  -24.0325  -12.0022   20.2372 C   0  0  0  0  0  0  0  0  0  0  0  0
  -26.0023  -13.2899   19.6905 C   0  0  0  0  0  0  0  0  0  0  0  0
  -28.3969  -19.0972   21.2602 C   0  0  0  0  0  0  0  0  0  0  0  0
  -28.9128  -21.1748   21.7625 C   0  0  0  0  0  0  0  0  0  0  0  0
  -29.6191  -19.5074   23.4857 C   0  0  0  0  0  0  0  0  0  0  0  0
  -22.7949  -28.6717   22.8219 C   0  0  0  0  0  0  0  0  0  0  0  0
  -24.0545  -26.3109   24.6556 C   0  0  0  0  0  0  0  0  0  0  0  0
  -26.6248  -24.1370   25.2164 C   0  0  0  0  0  0  0  0  0  0  0  0
  -31.7553  -25.6563   18.8883 C   0  0  0  0  0  0  0  0  0  0  0  0
  -29.0969  -24.0966   16.7681 C   0  0  0  0  0  0  0  0  0  0  0  0
  -18.2143  -30.8071   22.1037 C   0  0  0  0  0  0  0  0  0  0  0  0
  -23.3458  -26.9270   21.0874 C   0  0  0  0  0  0  0  0  0  0  0  0
  -25.5946  -27.3642   22.9574 C   0  0  0  0  0  0  0  0  0  0  0  0
  -18.9046  -30.0609   23.2426 C   0  0  0  0  0  0  0  0  0  0  0  0
  -26.0266  -23.4348   18.4451 C   0  0  0  0  0  0  0  0  0  0  0  0
  -20.2933  -30.6391   23.4952 C   0  0  0  0  0  0  0  0  0  0  0  0
  -26.3821  -22.3228   19.4335 C   0  0  0  0  0  0  0  0  0  0  0  0
  -26.7850  -23.2831   17.1283 C   0  0  0  0  0  0  0  0  0  0  0  0
  -28.6047  -22.0608   18.2545 C   0  0  0  0  0  0  0  0  0  0  0  0
  -21.1879  -30.4860   22.2592 C   0  0  1  0  0  0  0  0  0  0  0  0
  -23.1148  -27.2262   22.5654 C   0  0  1  0  0  0  0  0  0  0  0  0
  -27.9068  -22.2028   19.6180 C   0  0  2  0  0  0  0  0  0  0  0  0
  -27.8903  -22.2552   26.2908 C   0  0  0  0  0  0  0  0  0  0  0  0
  -32.3094  -23.7182   21.1481 C   0  0  0  0  0  0  0  0  0  0  0  0
  -32.6365  -26.1444   21.7417 C   0  0  0  0  0  0  0  0  0  0  0  0
  -24.8176  -28.4621   26.6804 C   0  0  0  0  0  0  0  0  0  0  0  0
  -26.3679  -26.8103   27.7465 C   0  0  0  0  0  0  0  0  0  0  0  0
  -23.9157  -26.3569   27.6849 C   0  0  0  0  0  0  0  0  0  0  0  0
  -34.2391  -25.3651   18.7307 C   0  0  0  0  0  0  0  0  0  0  0  0
  -25.3969  -22.1314   23.4196 C   0  0  0  0  0  0  0  0  0  0  0  0
  -29.9032  -29.3618   17.4347 C   0  0  0  0  0  0  0  0  0  0  0  0
  -31.4634  -24.8000   16.5154 C   0  0  0  0  0  0  0  0  0  0  0  0
  -30.9659  -28.3436   17.8195 C   0  0  0  0  0  0  0  0  0  0  0  0
  -28.4813  -28.9117   17.7469 C   0  0  0  0  0  0  0  0  0  1  0  0
  -25.2622  -26.1828   25.5522 C   0  0  1  0  0  0  0  0  0  0  0  0
  -26.6379  -22.6506   25.5242 C   0  0  2  0  0  0  0  0  0  0  0  0
  -31.7529  -26.0098   17.4035 C   0  0  1  0  0  0  0  0  0  0  0  0
  -33.1155  -24.9818   20.8848 C   0  0  0  0  0  0  0  0  0  0  0  0
  -25.0934  -26.9596   26.8884 C   0  0  0  0  0  0  0  0  0  0  0  0
  -27.9404  -19.8138   20.2296 N   0  0  0  0  0  0  0  0  0  0  0  0
  -28.2689  -21.0731   20.5644 N   0  0  0  0  0  0  0  0  0  0  0  0
  -24.2719  -26.8908   23.3977 N   0  0  0  0  0  0  0  0  0  0  0  0
  -28.2253  -23.1761   17.3731 N   0  0  0  0  0  0  0  0  0  0  0  0
  -29.3142  -22.3679   22.2502 N   0  0  0  0  0  0  0  0  0  0  0  0
  -29.6352  -18.1484   23.8279 N   0  0  0  0  0  0  0  0  0  0  0  0
  -21.6749  -29.1273   22.1530 N   0  0  0  0  0  0  0  0  0  0  0  0
  -25.4975  -24.7526   25.7181 N   0  0  0  0  0  0  0  0  0  0  0  0
  -30.4454  -23.9281   17.0578 N   0  0  0  0  0  0  0  0  0  0  0  0
  -32.9856  -25.3474   19.4760 N   0  0  0  0  0  0  0  0  0  0  0  0
  -26.5902  -21.8598   24.2619 N   0  3  0  0  0  0  0  0  0  0  0  0
  -30.7265  -27.0537   17.1308 N   0  3  0  0  0  0  0  0  0  0  0  0
  -30.1175  -20.3453   24.2751 O   0  0  0  0  0  0  0  0  0  0  0  0
  -23.5104  -29.3249   23.5723 O   0  0  0  0  0  0  0  0  0  0  0  0
  -22.9599  -25.9048   25.0538 O   0  0  0  0  0  0  0  0  0  0  0  0
  -27.5263  -24.6969   24.5965 O   0  0  0  0  0  0  0  0  0  0  0  0
  -30.6891  -25.6435   19.5131 O   0  0  0  0  0  0  0  0  0  0  0  0
  -28.7020  -25.0049   16.0291 O   0  0  0  0  0  0  0  0  0  0  0  0
  -27.7589  -13.5423   21.3182 O   0  0  0  0  0  0  0  0  0  0  0  0
  -28.3669  -28.6990   19.1533 O   0  0  0  0  0  0  0  0  0  1  0  0
  -22.8376  -11.5063   19.8903 F   0  0  0  0  0  0  0  0  0  0  0  0
  -26.6944  -14.0305   18.8139 F   0  0  0  0  0  0  0  0  0  0  0  0
  1  2  1  0  0  0  0
  1  5  2  0  0  0  0
  2  6  2  0  0  0  0
  3  8  2  0  0  0  0
  3 15  1  0  0  0  0
  4  9  1  0  0  0  0
  4 15  2  0  0  0  0
  5 17  1  0  0  0  0
  6 19  1  0  0  0  0
  7 10  2  0  0  0  0
  7 18  1  0  0  0  0
  8 21  1  0  0  0  0
  9 21  2  0  0  0  0
 10 22  1  0  0  0  0
 11 12  2  0  0  0  0
 11 23  1  0  0  0  0
 12 24  1  0  0  0  0
 13 20  1  0  0  0  0
 13 22  2  0  0  0  0
 14 24  2  0  0  0  0
 14 25  1  0  0  0  0
 15 26  1  0  0  0  0
 16 26  1  0  0  0  0
 16 27  2  0  0  0  0
 16 28  1  0  0  0  0
 17 19  2  0  0  0  0
 17 34  1  0  0  0  0
 18 20  2  0  0  0  0
 18 35  1  0  0  0  0
 19 43  1  0  0  0  0
 20 36  1  0  0  0  0
 21 81  1  0  0  0  0
 22 82  1  0  0  0  0
 23 25  2  0  0  0  0
 23 81  1  0  0  0  0
 24 83  1  0  0  0  0
 25 84  1  0  0  0  0
 26 63  2  0  0  0  0
 27 64  1  0  0  0  0
 27 67  1  0  0  0  0
 28 68  1  0  0  0  0
 28 75  2  0  0  0  0
 29 44  1  0  0  0  0
 29 69  1  0  0  0  0
 29 76  2  0  0  0  0
 30 58  1  0  0  0  0
 30 65  1  0  0  0  0
 30 77  2  0  0  0  0
 31 59  1  0  0  0  0
 31 70  1  0  0  0  0
 31 78  2  0  0  0  0
 32 60  1  0  0  0  0
 32 72  1  0  0  0  0
 32 79  2  0  0  0  0
 33 66  1  0  0  0  0
 33 71  1  0  0  0  0
 33 80  2  0  0  0  0
 34 37  1  0  0  0  0
 35 44  1  0  0  0  0
 36 65  1  0  0  0  0
 37 39  1  0  0  0  0
 38 40  1  0  0  0  0
 38 41  1  0  0  0  0
 39 43  1  0  0  0  0
 40 45  1  0  0  0  0
 41 66  1  0  0  0  0
 42 45  1  0  0  0  0
 42 66  1  0  0  0  0
 43 69  1  0  0  0  0
 44 65  1  0  0  0  0
 45 64  1  0  0  0  0
 46 59  1  0  0  0  0
 47 61  1  0  0  0  0
 48 61  1  0  0  0  0
 49 62  1  0  0  0  0
 50 62  1  0  0  0  0
 51 62  1  0  0  0  0
 52 72  1  0  0  0  0
 53 73  1  0  0  0  0
 54 56  1  0  0  0  0
 54 57  1  0  0  0  0
 55 60  1  0  0  0  0
 55 71  1  0  0  0  0
 56 74  1  0  0  0  0
 57 82  1  0  0  0  0
 58 62  1  0  0  0  0
 58 70  1  0  0  0  0
 59 73  1  0  0  0  0
 60 74  1  0  0  0  0
 61 72  1  0  0  0  0
 63 64  1  0  0  0  0
M  CHG  2  73   1  74   1
M  ISO  4  33 100  57 101  71 100  82 101
M  END
> <Batch ID>
0108

> <Smiles>
CNC(C)C(=O)NC(C(=O)N1Cc2cc([101O:1][101CH2:1]CCNC(C[100NH:0][100C:0](=O)N3CCCC(n4nc(-c5ccc(Oc6ccc(F)cc6F)cc5)c(C(N)=O)c4N)C3)C(=O)N(C)C(C)C)ccc2CC1C(=O)NC1CCCc2ccccc21)C(C)(C)C

> <Shape>
0.179

> <Color>
0.083

> <Negative vol penalty>
0.000

$$$$

  -OEChem-04052319533D

 76 83  0     1  0  0  0  0  0999 V2000
  -29.2931  -24.9318   17.4017 C   0  0  0  0  0  0  0  0  0  0  0  0
  -28.0510  -25.0250   18.0214 C   0  0  0  0  0  0  0  0  0  0  0  0
  -27.9207  -16.9179   22.5858 C   0  0  0  0  0  0  0  0  0  0  0  0
  -26.7379  -16.3778   20.5495 C   0  0  0  0  0  0  0  0  0  0  0  0
  -30.3954  -25.5860   17.9503 C   0  0  0  0  0  0  0  0  0  0  0  0
  -27.9107  -25.7715   19.1908 C   0  0  0  0  0  0  0  0  0  0  0  0
  -23.7911  -28.7159   19.1334 C   0  0  0  0  0  0  0  0  0  0  0  0
  -28.2193  -15.5679   22.7704 C   0  0  0  0  0  0  0  0  0  0  0  0
  -27.0365  -15.0278   20.7341 C   0  0  0  0  0  0  0  0  0  0  0  0
  -22.5656  -28.1014   19.3873 C   0  0  0  0  0  0  0  0  0  0  0  0
  -29.6825  -12.9776   20.2697 C   0  0  0  0  0  0  0  0  0  0  0  0
  -30.1327  -12.2578   19.1630 C   0  0  0  0  0  0  0  0  0  0  0  0
  -22.6471  -28.8934   21.6644 C   0  0  0  0  0  0  0  0  0  0  0  0
  -28.2469  -10.7616   19.3691 C   0  0  0  0  0  0  0  0  0  0  0  0
  -27.1800  -17.3228   21.4753 C   0  0  0  0  0  0  0  0  0  0  0  0
  -27.6368  -19.6699   20.5865 C   0  0  0  0  0  0  0  0  0  0  0  0
  -30.2665  -26.3488   19.1217 C   0  0  0  0  0  0  0  0  0  0  0  0
  -24.4601  -29.4158   20.1479 C   0  0  0  0  0  0  0  0  0  0  0  0
  -29.0126  -26.4354   19.7563 C   0  0  0  0  0  0  0  0  0  0  0  0
  -23.8796  -29.5181   21.4202 C   0  0  0  0  0  0  0  0  0  0  0  0
  -27.7772  -14.6229   21.8446 C   0  0  0  0  0  0  0  0  0  0  0  0
  -21.9948  -28.1876   20.6537 C   0  0  0  0  0  0  0  0  0  0  0  0
  -28.5146  -12.5894   20.9262 C   0  0  0  0  0  0  0  0  0  0  0  0
  -29.4149  -11.1498   18.7126 C   0  0  0  0  0  0  0  0  0  0  0  0
  -27.7968  -11.4815   20.4758 C   0  0  0  0  0  0  0  0  0  0  0  0
  -26.8708  -18.7171   21.2844 C   0  0  0  0  0  0  0  0  0  0  0  0
  -26.9173  -20.8348   20.6945 C   0  0  0  0  0  0  0  0  0  0  0  0
  -28.8870  -19.5157   19.9017 C   0  0  0  0  0  0  0  0  0  0  0  0
  -27.2575  -29.0976   21.6232 C   0  0  0  0  0  0  0  0  0  0  0  0
  -19.5865  -25.4910   20.9506 C   0  0  0  0  0  0  0  0  0  0  0  0
  -26.4118  -31.9117   22.9972 C   0  0  0  0  0  0  0  0  0  0  0  0
  -23.9191  -34.0569   23.9093 C   0  0  0  0  0  0  0  0  0  0  0  0
  -21.1521  -21.8390   21.4754 C   0  0  0  0  0  0  0  0  0  0  0  0
  -31.4966  -26.9993   19.7034 C   0  0  0  0  0  0  0  0  0  0  0  0
  -25.7684  -30.0957   19.8506 C   0  0  0  0  0  0  0  0  0  0  0  0
  -24.5476  -30.2748   22.5380 C   0  0  0  0  0  0  0  0  0  0  0  0
  -31.1840  -28.0772   20.7383 C   0  0  0  0  0  0  0  0  0  0  0  0
  -23.8243  -23.0719   23.5818 C   0  0  0  0  0  0  0  0  0  0  0  0
  -30.1331  -27.5802   21.7260 C   0  0  0  0  0  0  0  0  0  0  0  0
  -24.9867  -22.1735   23.1555 C   0  0  0  0  0  0  0  0  0  0  0  0
  -22.5087  -22.2993   23.6062 C   0  0  0  0  0  0  0  0  0  0  0  0
  -23.3268  -20.7265   21.8943 C   0  0  0  0  0  0  0  0  0  0  0  0
  -28.8151  -27.2559   21.0124 C   0  0  1  0  0  0  0  0  0  0  0  0
  -26.6083  -30.3472   21.0990 C   0  0  1  0  0  0  0  0  0  0  0  0
  -24.6816  -21.4545   21.8280 C   0  0  2  0  0  0  0  0  0  0  0  0
  -23.5345  -36.2592   25.0491 C   0  0  0  0  0  0  0  0  0  0  0  0
  -26.9013  -30.5930   25.7049 C   0  0  0  0  0  0  0  0  0  0  0  0
  -25.6209  -32.4630   26.7689 C   0  0  0  0  0  0  0  0  0  0  0  0
  -27.7289  -32.9462   25.5257 C   0  0  0  0  0  0  0  0  0  0  0  0
  -22.6991  -35.2316   21.4823 C   0  0  0  0  0  0  0  0  0  0  0  0
  -19.1790  -24.2040   20.2481 C   0  0  0  0  0  0  0  0  0  0  0  0
  -20.4931  -26.4117   20.1571 C   0  0  0  0  0  0  0  0  0  1  0  0
  -18.9914  -23.0263   21.1947 C   0  0  0  0  0  0  0  0  0  0  0  0
  -25.6487  -32.3090   24.2377 C   0  0  1  0  0  0  0  0  0  0  0  0
  -23.7599  -35.5547   23.7203 C   0  0  2  0  0  0  0  0  0  0  0  0
  -26.4630  -32.0618   25.5390 C   0  0  0  0  0  0  0  0  0  0  0  0
  -25.7505  -19.2321   21.7979 N   0  0  0  0  0  0  0  0  0  0  0  0
  -25.8074  -20.5213   21.4225 N   0  0  0  0  0  0  0  0  0  0  0  0
  -25.8284  -30.9171   22.1996 N   0  0  0  0  0  0  0  0  0  0  0  0
  -22.2687  -21.6543   22.3076 N   0  0  0  0  0  0  0  0  0  0  0  0
  -27.1321  -22.0866   20.2369 N   0  0  0  0  0  0  0  0  0  0  0  0
  -29.4897  -18.2505   19.8880 N   0  0  0  0  0  0  0  0  0  0  0  0
  -28.0893  -28.4720   20.7142 N   0  0  0  0  0  0  0  0  0  0  0  0
  -25.2436  -33.6966   24.0409 N   0  0  0  0  0  0  0  0  0  0  0  0
  -20.1926  -22.7288   21.9428 N   0  0  0  0  0  0  0  0  0  0  0  0
  -22.5989  -35.8442   22.8320 N   0  3  0  0  0  0  0  0  0  0  0  0
  -29.4610  -20.4753   19.3331 O   0  0  0  0  0  0  0  0  0  0  0  0
  -27.0224  -28.7292   22.7681 O   0  0  0  0  0  0  0  0  0  0  0  0
  -19.2191  -25.7700   22.0906 O   0  0  0  0  0  0  0  0  0  0  0  0
  -27.4824  -32.4685   22.7415 O   0  0  0  0  0  0  0  0  0  0  0  0
  -22.9639  -33.2842   23.9409 O   0  0  0  0  0  0  0  0  0  0  0  0
  -21.0221  -21.2577   20.3927 O   0  0  0  0  0  0  0  0  0  0  0  0
  -28.0686  -13.3056   22.0243 O   0  0  0  0  0  0  0  0  0  0  0  0
  -20.7991  -27.5882   20.9044 O   0  0  0  0  0  0  0  0  0  1  0  0
  -29.8464  -10.4596   17.6489 F   0  0  0  0  0  0  0  0  0  0  0  0
  -26.6734  -11.1044   21.1017 F   0  0  0  0  0  0  0  0  0  0  0  0
  1  2  1  0  0  0  0
  1  5  2  0  0  0  0
  2  6  2  0  0  0  0
  3  8  2  0  0  0  0
  3 15  1  0  0  0  0
  4  9  1  0  0  0  0
  4 15  2  0  0  0  0
  5 17  1  0  0  0  0
  6 19  1  0  0  0  0
  7 10  2  0  0  0  0
  7 18  1  0  0  0  0
  8 21  1  0  0  0  0
  9 21  2  0  0  0  0
 10 22  1  0  0  0  0
 11 12  2  0  0  0  0
 11 23  1  0  0  0  0
 12 24  1  0  0  0  0
 13 20  1  0  0  0  0
 13 22  2  0  0  0  0
 14 24  2  0  0  0  0
 14 25  1  0  0  0  0
 15 26  1  0  0  0  0
 16 26  1  0  0  0  0
 16 27  2  0  0  0  0
 16 28  1  0  0  0  0
 17 19  2  0  0  0  0
 17 34  1  0  0  0  0
 18 20  2  0  0  0  0
 18 35  1  0  0  0  0
 19 43  1  0  0  0  0
 20 36  1  0  0  0  0
 21 73  1  0  0  0  0
 22 74  1  0  0  0  0
 23 25  2  0  0  0  0
 23 73  1  0  0  0  0
 24 75  1  0  0  0  0
 25 76  1  0  0  0  0
 26 57  2  0  0  0  0
 27 58  1  0  0  0  0
 27 61  1  0  0  0  0
 28 62  1  0  0  0  0
 28 67  2  0  0  0  0
 29 44  1  0  0  0  0
 29 63  1  0  0  0  0
 29 68  2  0  0  0  0
 30 51  1  0  0  0  0
 30 52  1  0  0  0  0
 30 69  2  0  0  0  0
 31 54  1  0  0  0  0
 31 59  1  0  0  0  0
 31 70  2  0  0  0  0
 32 55  1  0  0  0  0
 32 64  1  0  0  0  0
 32 71  2  0  0  0  0
 33 60  1  0  0  0  0
 33 65  1  0  0  0  0
 33 72  2  0  0  0  0
 34 37  1  0  0  0  0
 35 44  1  0  0  0  0
 36 59  1  0  0  0  0
 37 39  1  0  0  0  0
 38 40  1  0  0  0  0
 38 41  1  0  0  0  0
 39 43  1  0  0  0  0
 40 45  1  0  0  0  0
 41 60  1  0  0  0  0
 42 45  1  0  0  0  0
 42 60  1  0  0  0  0
 43 63  1  0  0  0  0
 44 59  1  0  0  0  0
 45 58  1  0  0  0  0
 46 55  1  0  0  0  0
 47 56  1  0  0  0  0
 48 56  1  0  0  0  0
 49 56  1  0  0  0  0
 50 66  1  0  0  0  0
 51 53  1  0  0  0  0
 52 74  1  0  0  0  0
 53 65  1  0  0  0  0
 54 56  1  0  0  0  0
 54 64  1  0  0  0  0
 55 66  1  0  0  0  0
 57 58  1  0  0  0  0
M  CHG  1  66   1
M  ISO  4  33 100  52 101  65 100  74 101
M  END
> <Batch ID>
0108

> <Smiles>
CNC(C)C(=O)NC(C(=O)N1Cc2cc([101O:1][101CH2:1]C(=O)CC[100NH:0][100C:0](=O)N3CCCC(n4nc(-c5ccc(Oc6ccc(F)cc6F)cc5)c(C(N)=O)c4N)C3)ccc2CC1C(=O)NC1CCCc2ccccc21)C(C)(C)C

> <Shape>
0.291

> <Color>
0.069

> <Negative vol penalty>
0.000

$$$$

  -OEChem-04052319533D

 85 94  0     1  0  0  0  0  0999 V2000
  -17.7004  -26.5346   23.5032 C   0  0  0  0  0  0  0  0  0  0  0  0
  -18.7556  -26.1207   22.6965 C   0  0  0  0  0  0  0  0  0  0  0  0
  -26.7961  -10.9604   21.3225 C   0  0  0  0  0  0  0  0  0  0  0  0
  -25.4994  -12.3439   19.8254 C   0  0  0  0  0  0  0  0  0  0  0  0
  -17.4652  -27.8950   23.6978 C   0  0  0  0  0  0  0  0  0  0  0  0
  -19.5756  -27.0672   22.0831 C   0  0  0  0  0  0  0  0  0  0  0  0
  -24.4926  -25.9174   22.4657 C   0  0  0  0  0  0  0  0  0  0  0  0
  -25.6249  -10.3542   21.7768 C   0  0  0  0  0  0  0  0  0  0  0  0
  -24.3281  -11.7376   20.2796 C   0  0  0  0  0  0  0  0  0  0  0  0
  -24.9870  -24.9403   21.6028 C   0  0  0  0  0  0  0  0  0  0  0  0
  -23.4786   -7.9695   20.7093 C   0  0  0  0  0  0  0  0  0  0  0  0
  -23.4747   -6.5805   20.8359 C   0  0  0  0  0  0  0  0  0  0  0  0
  -29.8202  -23.3908   20.3521 C   0  0  0  0  0  0  0  0  0  0  0  0
  -25.8810  -26.6646   20.1722 C   0  0  0  0  0  0  0  0  0  0  0  0
  -28.9245  -24.4907   18.4098 C   0  0  0  0  0  0  0  0  0  0  0  0
  -23.0024   -6.7969   23.1954 C   0  0  0  0  0  0  0  0  0  0  0  0
  -30.8530  -24.3142   20.3321 C   0  0  0  0  0  0  0  0  0  0  0  0
  -26.7334  -11.9553   20.3468 C   0  0  0  0  0  0  0  0  0  0  0  0
  -28.7498  -12.1723   18.7994 C   0  0  0  0  0  0  0  0  0  0  0  0
  -18.2887  -28.8585   23.0942 C   0  0  0  0  0  0  0  0  0  0  0  0
  -24.6795  -27.2779   22.1822 C   0  0  0  0  0  0  0  0  0  0  0  0
  -19.3504  -28.4418   22.2687 C   0  0  0  0  0  0  0  0  0  0  0  0
  -28.8416  -23.4876   19.3691 C   0  0  0  0  0  0  0  0  0  0  0  0
  -25.3902  -27.6570   21.0344 C   0  0  0  0  0  0  0  0  0  0  0  0
  -24.3909  -10.7428   21.2554 C   0  0  0  0  0  0  0  0  0  0  0  0
  -25.6788  -25.3139   20.4543 C   0  0  0  0  0  0  0  0  0  0  0  0
  -23.2445   -8.7723   21.8257 C   0  0  0  0  0  0  0  0  0  0  0  0
  -23.2366   -5.9941   22.0790 C   0  0  0  0  0  0  0  0  0  0  0  0
  -23.0064   -8.1860   23.0688 C   0  0  0  0  0  0  0  0  0  0  0  0
  -27.9428  -12.5823   19.8776 C   0  0  0  0  0  0  0  0  0  0  0  0
  -29.9973  -25.3650   18.4769 C   0  0  0  0  0  0  0  0  0  0  0  0
  -29.7695  -13.0918   18.7646 C   0  0  0  0  0  0  0  0  0  0  0  0
  -28.5918  -11.0597   17.9089 C   0  0  0  0  0  0  0  0  0  0  0  0
  -22.7474  -29.7351   21.6050 C   0  0  0  0  0  0  0  0  0  0  0  0
  -25.5150  -31.4256   21.6753 C   0  0  0  0  0  0  0  0  0  0  0  0
  -28.9091  -31.4429   21.3200 C   0  0  0  0  0  0  0  0  0  0  0  0
  -30.2119  -18.7623   20.6357 C   0  0  0  0  0  0  0  0  0  0  0  0
  -17.9663  -30.3180   23.2959 C   0  0  0  0  0  0  0  0  0  0  0  0
  -24.1632  -28.3192   23.1369 C   0  0  0  0  0  0  0  0  0  0  0  0
  -25.6354  -29.1038   20.6953 C   0  0  0  0  0  0  0  0  0  0  0  0
  -19.1101  -31.2531   22.9117 C   0  0  0  0  0  0  0  0  0  0  0  0
  -28.1116  -21.4415   17.0348 C   0  0  0  0  0  0  0  0  0  0  0  0
  -32.2680  -16.0217   21.6043 C   0  0  0  0  0  0  0  0  0  0  0  0
  -19.6937  -30.8553   21.5597 C   0  0  0  0  0  0  0  0  0  0  0  0
  -31.4655  -14.7924   21.1744 C   0  0  0  0  0  0  0  0  0  0  0  0
  -28.4633  -20.0978   17.6657 C   0  0  0  0  0  0  0  0  0  0  0  0
  -27.1276  -22.2245   17.9053 C   0  0  0  0  0  0  0  0  0  0  0  0
  -27.9922  -21.0838   19.9512 C   0  0  0  0  0  0  0  0  0  0  0  0
  -31.3598  -17.1389   22.1133 C   0  0  0  0  0  0  0  0  0  0  0  0
  -29.4803  -16.3033   20.7557 C   0  0  0  0  0  0  0  0  0  0  0  0
  -20.2771  -29.4379   21.6061 C   0  0  1  0  0  0  0  0  0  0  0  0
  -23.9653  -29.6834   22.4834 C   0  0  1  0  0  0  0  0  0  0  0  0
  -30.3490  -15.1705   20.1825 C   0  0  2  0  0  0  0  0  0  0  0  0
  -28.9729  -20.2646   19.0972 C   0  0  1  0  0  0  0  0  0  0  0  0
  -27.6679  -22.4842   19.3434 C   0  0  1  0  0  0  0  0  0  0  0  0
  -30.1183  -26.4537   17.4635 C   0  0  0  0  0  0  0  0  0  0  0  0
  -30.8904  -32.9810   21.4004 C   0  0  0  0  0  0  0  0  0  0  0  0
  -24.7574  -32.5407   18.9381 C   0  0  0  0  0  0  0  0  0  0  0  0
  -27.1325  -33.2819   18.6600 C   0  0  0  0  0  0  0  0  0  0  0  0
  -25.7447  -34.2163   20.5103 C   0  0  0  0  0  0  0  0  0  0  0  0
  -30.1367  -29.9337   23.5503 C   0  0  0  0  0  0  0  0  0  0  0  0
  -26.5323  -23.1103   20.1862 C   0  0  0  0  0  0  0  0  0  1  0  0
  -26.5506  -31.8241   20.6518 C   0  0  1  0  0  0  0  0  0  0  0  0
  -30.0100  -32.0240   22.1889 C   0  0  2  0  0  0  0  0  0  0  0  0
  -26.0402  -32.9384   19.6951 C   0  0  0  0  0  0  0  0  0  0  0  0
  -30.9672  -25.3023   19.4166 N   0  0  0  0  0  0  0  0  0  0  0  0
  -28.4097  -13.6770   20.4840 N   0  0  0  0  0  0  0  0  0  0  0  0
  -29.5211  -13.9626   19.7845 N   0  0  0  0  0  0  0  0  0  0  0  0
  -25.1054  -30.0848   21.6567 N   0  0  0  0  0  0  0  0  0  0  0  0
  -30.3240  -17.4506   21.1254 N   0  0  0  0  0  0  0  0  0  0  0  0
  -30.8454  -13.2323   17.9614 N   0  0  0  0  0  0  0  0  0  0  0  0
  -27.4878  -10.2144   18.0852 N   0  0  0  0  0  0  0  0  0  0  0  0
  -21.5672  -29.4436   22.2619 N   0  0  0  0  0  0  0  0  0  0  0  0
  -27.7490  -32.1835   21.4022 N   0  0  0  0  0  0  0  0  0  0  0  0
  -29.2082  -18.9705   19.6977 N   0  0  0  0  0  0  0  0  0  0  0  0
  -30.8694  -30.9350   22.7332 N   0  3  0  0  0  0  0  0  0  0  0  0
  -29.4143  -10.8128   16.9946 O   0  0  0  0  0  0  0  0  0  0  0  0
  -22.8692  -30.0198   20.4193 O   0  0  0  0  0  0  0  0  0  0  0  0
  -25.0906  -32.2710   22.4670 O   0  0  0  0  0  0  0  0  0  0  0  0
  -29.0642  -30.4351   20.6338 O   0  0  0  0  0  0  0  0  0  0  0  0
  -30.9551  -19.6787   21.0029 O   0  0  0  0  0  0  0  0  0  0  0  0
  -23.2479  -10.1512   21.6982 O   0  0  0  0  0  0  0  0  0  0  0  0
  -26.1619  -24.3622   19.6100 O   0  0  0  0  0  0  0  0  0  1  0  0
  -23.2313   -4.6602   22.2001 F   0  0  0  0  0  0  0  0  0  0  0  0
  -22.7796   -8.9520   24.1447 F   0  0  0  0  0  0  0  0  0  0  0  0
  1  2  1  0  0  0  0
  1  5  2  0  0  0  0
  2  6  2  0  0  0  0
  3  8  2  0  0  0  0
  3 18  1  0  0  0  0
  4  9  1  0  0  0  0
  4 18  2  0  0  0  0
  5 20  1  0  0  0  0
  6 22  1  0  0  0  0
  7 10  2  0  0  0  0
  7 21  1  0  0  0  0
  8 25  1  0  0  0  0
  9 25  2  0  0  0  0
 10 26  1  0  0  0  0
 11 12  2  0  0  0  0
 11 27  1  0  0  0  0
 12 28  1  0  0  0  0
 13 17  2  0  0  0  0
 13 23  1  0  0  0  0
 14 24  1  0  0  0  0
 14 26  2  0  0  0  0
 15 23  2  0  0  0  0
 15 31  1  0  0  0  0
 16 28  2  0  0  0  0
 16 29  1  0  0  0  0
 17 66  1  0  0  0  0
 18 30  1  0  0  0  0
 19 30  1  0  0  0  0
 19 32  2  0  0  0  0
 19 33  1  0  0  0  0
 20 22  2  0  0  0  0
 20 38  1  0  0  0  0
 21 24  2  0  0  0  0
 21 39  1  0  0  0  0
 22 51  1  0  0  0  0
 23 55  1  0  0  0  0
 24 40  1  0  0  0  0
 25 82  1  0  0  0  0
 26 83  1  0  0  0  0
 27 29  2  0  0  0  0
 27 82  1  0  0  0  0
 28 84  1  0  0  0  0
 29 85  1  0  0  0  0
 30 67  2  0  0  0  0
 31 56  1  0  0  0  0
 31 66  2  0  0  0  0
 32 68  1  0  0  0  0
 32 71  1  0  0  0  0
 33 72  1  0  0  0  0
 33 77  2  0  0  0  0
 34 52  1  0  0  0  0
 34 73  1  0  0  0  0
 34 78  2  0  0  0  0
 35 63  1  0  0  0  0
 35 69  1  0  0  0  0
 35 79  2  0  0  0  0
 36 64  1  0  0  0  0
 36 74  1  0  0  0  0
 36 80  2  0  0  0  0
 37 70  1  0  0  0  0
 37 75  1  0  0  0  0
 37 81  2  0  0  0  0
 38 41  1  0  0  0  0
 39 52  1  0  0  0  0
 40 69  1  0  0  0  0
 41 44  1  0  0  0  0
 42 46  1  0  0  0  0
 42 47  1  0  0  0  0
 43 45  1  0  0  0  0
 43 49  1  0  0  0  0
 44 51  1  0  0  0  0
 45 53  1  0  0  0  0
 46 54  1  0  0  0  0
 47 55  1  0  0  0  0
 48 54  1  0  0  0  0
 48 55  1  0  0  0  0
 49 70  1  0  0  0  0
 50 53  1  0  0  0  0
 50 70  1  0  0  0  0
 51 73  1  0  0  0  0
 52 69  1  0  0  0  0
 53 68  1  0  0  0  0
 54 75  1  0  0  0  0
 55 62  1  0  0  0  0
 57 64  1  0  0  0  0
 58 65  1  0  0  0  0
 59 65  1  0  0  0  0
 60 65  1  0  0  0  0
 61 76  1  0  0  0  0
 62 83  1  0  0  0  0
 63 65  1  0  0  0  0
 63 74  1  0  0  0  0
 64 76  1  0  0  0  0
 67 68  1  0  0  0  0
M  CHG  1  76   1
M  ISO  4  37 100  62 101  75 100  83 101
M  END
> <Batch ID>
0108

> <Smiles>
CNC(C)C(=O)NC(C(=O)N1Cc2cc([101O:1][101CH2:1]C3(c4ccnc(C)c4)CCCC([100NH:0][100C:0](=O)N4CCCC(n5nc(-c6ccc(Oc7ccc(F)cc7F)cc6)c(C(N)=O)c5N)C4)C3)ccc2CC1C(=O)NC1CCCc2ccccc21)C(C)(C)C

> <Shape>
0.332

> <Color>
0.069

> <Negative vol penalty>
0.000

$$$$

  -OEChem-04052319533D

 85 93  0     1  0  0  0  0  0999 V2000
  -29.9183  -12.1271   19.9419 C   0  0  0  0  0  0  0  0  0  0  0  0
  -29.8984  -13.5179   19.9659 C   0  0  0  0  0  0  0  0  0  0  0  0
  -19.8399  -28.8884   23.1449 C   0  0  0  0  0  0  0  0  0  0  0  0
  -20.7597  -26.6710   22.8724 C   0  0  0  0  0  0  0  0  0  0  0  0
  -28.7548  -11.4194   19.6429 C   0  0  0  0  0  0  0  0  0  0  0  0
  -28.7150  -14.2020   19.6899 C   0  0  0  0  0  0  0  0  0  0  0  0
  -27.8527  -17.9839   22.9454 C   0  0  0  0  0  0  0  0  0  0  0  0
  -29.2325  -24.4187   22.2438 C   0  0  0  0  0  0  0  0  0  0  0  0
  -30.1048  -25.4997   22.1172 C   0  0  0  0  0  0  0  0  0  0  0  0
  -18.6252  -28.4493   22.6184 C   0  0  0  0  0  0  0  0  0  0  0  0
  -19.5450  -26.2319   22.3459 C   0  0  0  0  0  0  0  0  0  0  0  0
  -28.5707  -19.1638   22.7553 C   0  0  0  0  0  0  0  0  0  0  0  0
  -16.5730  -24.4383   21.2648 C   0  0  0  0  0  0  0  0  0  0  0  0
  -16.0691  -23.2210   21.7228 C   0  0  0  0  0  0  0  0  0  0  0  0
  -26.6525  -20.1498   21.6749 C   0  0  0  0  0  0  0  0  0  0  0  0
  -29.5062  -23.9229   19.8951 C   0  0  0  0  0  0  0  0  0  0  0  0
  -16.0048  -24.0947   23.9744 C   0  0  0  0  0  0  0  0  0  0  0  0
  -20.9072  -27.9993   23.2718 C   0  0  0  0  0  0  0  0  0  0  0  0
  -22.5544  -28.4487   25.1672 C   0  0  0  0  0  0  0  0  0  0  0  0
  -27.5543  -12.0949   19.3726 C   0  0  0  0  0  0  0  0  0  0  0  0
  -26.5306  -17.8742   22.4912 C   0  0  0  0  0  0  0  0  0  0  0  0
  -27.5347  -13.5027   19.3857 C   0  0  0  0  0  0  0  0  0  0  0  0
  -25.9191  -18.9683   21.8627 C   0  0  0  0  0  0  0  0  0  0  0  0
  -28.9332  -23.6302   21.1327 C   0  0  0  0  0  0  0  0  0  0  0  0
  -30.6778  -25.7924   20.8796 C   0  0  0  0  0  0  0  0  0  0  0  0
  -30.3785  -25.0040   19.7685 C   0  0  0  0  0  0  0  0  0  0  0  0
  -18.4777  -27.1210   22.2189 C   0  0  0  0  0  0  0  0  0  0  0  0
  -27.9715  -20.2460   22.1174 C   0  0  0  0  0  0  0  0  0  0  0  0
  -16.7929  -25.4838   22.1617 C   0  0  0  0  0  0  0  0  0  0  0  0
  -15.7849  -23.0491   23.0775 C   0  0  0  0  0  0  0  0  0  0  0  0
  -16.5087  -25.3120   23.5164 C   0  0  0  0  0  0  0  0  0  0  0  0
  -22.1624  -28.4525   23.8151 C   0  0  0  0  0  0  0  0  0  0  0  0
  -23.8230  -28.9751   25.1584 C   0  0  0  0  0  0  0  0  0  0  0  0
  -21.8361  -28.0086   26.3274 C   0  0  0  0  0  0  0  0  0  0  0  0
  -25.0282  -16.0268   20.3855 C   0  0  0  0  0  0  0  0  0  0  0  0
  -27.9506  -29.1140   20.8899 C   0  0  0  0  0  0  0  0  0  0  0  0
  -22.3921  -17.5250   21.5381 C   0  0  0  0  0  0  0  0  0  0  0  0
  -21.0578  -20.2549   23.0917 C   0  0  0  0  0  0  0  0  0  0  0  0
  -26.3334  -11.2879   19.0082 C   0  0  0  0  0  0  0  0  0  0  0  0
  -25.7609  -16.6037   22.7278 C   0  0  0  0  0  0  0  0  0  0  0  0
  -24.4955  -18.9085   21.3746 C   0  0  0  0  0  0  0  0  0  0  0  0
  -25.0314  -12.0801   19.0952 C   0  0  0  0  0  0  0  0  0  0  0  0
  -26.6257  -31.9706   22.7097 C   0  0  0  0  0  0  0  0  0  0  0  0
  -25.1873  -13.4392   18.4205 C   0  0  0  0  0  0  0  0  0  0  0  0
  -25.3428  -31.3879   23.3012 C   0  0  0  0  0  0  0  0  0  0  0  0
  -26.9177  -31.3953   21.3263 C   0  0  0  0  0  0  0  0  0  0  0  0
  -25.6948  -29.3178   21.8857 C   0  0  0  0  0  0  0  0  0  0  0  0
  -26.2646  -14.2801   19.1162 C   0  0  1  0  0  0  0  0  0  0  0  0
  -24.5900  -16.4266   21.7660 C   0  0  1  0  0  0  0  0  0  0  0  0
  -25.3808  -29.8497   23.2941 C   0  0  2  0  0  0  0  0  0  0  0  0
  -30.9797  -25.2985   18.4334 C   0  0  0  0  0  0  0  0  0  0  0  0
  -33.7558  -25.7268   21.3972 C   0  0  0  0  0  0  0  0  0  0  0  0
  -18.8683  -21.2090   23.8620 C   0  0  0  0  0  0  0  0  0  0  0  0
  -31.2332  -29.4449   18.9287 C   0  0  0  0  0  0  0  0  0  0  0  0
  -21.6950  -18.2457   18.6564 C   0  0  0  0  0  0  0  0  0  0  0  0
  -20.0903  -19.9500   19.5442 C   0  0  0  0  0  0  0  0  0  0  0  0
  -19.7474  -17.5323   20.0535 C   0  0  0  0  0  0  0  0  0  0  0  0
  -21.9410  -20.3056   25.9160 C   0  0  0  0  0  0  0  0  0  0  0  0
  -27.9945  -22.4676   21.2689 C   0  0  0  0  0  0  0  0  0  1  0  0
  -29.1563  -29.8140   20.3155 C   0  0  0  0  0  0  0  0  0  0  0  0
  -32.8334  -26.8990   21.7092 C   0  0  0  0  0  0  0  0  0  0  0  0
  -31.6079  -26.9556   20.7683 C   0  0  2  0  0  0  0  0  0  0  0  0
  -21.6344  -18.7810   21.1814 C   0  0  1  0  0  0  0  0  0  0  0  0
  -20.0827  -20.3792   24.2486 C   0  0  2  0  0  0  0  0  0  0  0  0
  -30.2040  -28.8064   19.8504 C   0  0  2  0  0  0  0  0  0  0  0  0
  -20.8193  -18.6280   19.8662 C   0  0  0  0  0  0  0  0  0  0  0  0
  -23.1056  -28.9426   23.0062 N   0  0  0  0  0  0  0  0  0  0  0  0
  -24.1027  -29.2517   23.8525 N   0  0  0  0  0  0  0  0  0  0  0  0
  -23.7866  -17.6425   21.6237 N   0  0  0  0  0  0  0  0  0  0  0  0
  -26.9179  -29.9278   21.3563 N   0  0  0  0  0  0  0  0  0  0  0  0
  -24.7153  -29.2238   26.1404 N   0  0  0  0  0  0  0  0  0  0  0  0
  -20.5435  -27.4941   26.1576 N   0  0  0  0  0  0  0  0  0  0  0  0
  -25.7483  -14.8482   20.3430 N   0  0  0  0  0  0  0  0  0  0  0  0
  -20.8269  -19.1162   22.3493 N   0  0  0  0  0  0  0  0  0  0  0  0
  -20.7437  -21.0289   25.4156 N   0  3  0  0  0  0  0  0  0  0  0  0
  -30.9188  -28.2700   21.0289 N   0  3  0  0  0  0  0  0  0  0  0  0
  -22.3196  -28.0851   27.4823 O   0  0  0  0  0  0  0  0  0  0  0  0
  -24.7335  -16.7345   19.4295 O   0  0  0  0  0  0  0  0  0  0  0  0
  -27.9302  -27.8809   20.9248 O   0  0  0  0  0  0  0  0  0  0  0  0
  -21.7690  -16.4798   21.7407 O   0  0  0  0  0  0  0  0  0  0  0  0
  -21.9340  -21.0869   22.8668 O   0  0  0  0  0  0  0  0  0  0  0  0
  -17.2925  -26.6921   21.7053 O   0  0  0  0  0  0  0  0  0  0  0  0
  -28.6703  -21.3986   21.9300 O   0  0  0  0  0  0  0  0  0  1  0  0
  -15.2996  -21.8806   23.5169 F   0  0  0  0  0  0  0  0  0  0  0  0
  -16.7168  -26.3132   24.3826 F   0  0  0  0  0  0  0  0  0  0  0  0
  1  2  1  0  0  0  0
  1  5  2  0  0  0  0
  2  6  2  0  0  0  0
  3 10  2  0  0  0  0
  3 18  1  0  0  0  0
  4 11  1  0  0  0  0
  4 18  2  0  0  0  0
  5 20  1  0  0  0  0
  6 22  1  0  0  0  0
  7 12  2  0  0  0  0
  7 21  1  0  0  0  0
  8  9  2  0  0  0  0
  8 24  1  0  0  0  0
  9 25  1  0  0  0  0
 10 27  1  0  0  0  0
 11 27  2  0  0  0  0
 12 28  1  0  0  0  0
 13 14  2  0  0  0  0
 13 29  1  0  0  0  0
 14 30  1  0  0  0  0
 15 23  1  0  0  0  0
 15 28  2  0  0  0  0
 16 24  2  0  0  0  0
 16 26  1  0  0  0  0
 17 30  2  0  0  0  0
 17 31  1  0  0  0  0
 18 32  1  0  0  0  0
 19 32  1  0  0  0  0
 19 33  2  0  0  0  0
 19 34  1  0  0  0  0
 20 22  2  0  0  0  0
 20 39  1  0  0  0  0
 21 23  2  0  0  0  0
 21 40  1  0  0  0  0
 22 48  1  0  0  0  0
 23 41  1  0  0  0  0
 24 59  1  0  0  0  0
 25 26  2  0  0  0  0
 25 62  1  0  0  0  0
 26 51  1  0  0  0  0
 27 82  1  0  0  0  0
 28 83  1  0  0  0  0
 29 31  2  0  0  0  0
 29 82  1  0  0  0  0
 30 84  1  0  0  0  0
 31 85  1  0  0  0  0
 32 67  2  0  0  0  0
 33 68  1  0  0  0  0
 33 71  1  0  0  0  0
 34 72  1  0  0  0  0
 34 77  2  0  0  0  0
 35 49  1  0  0  0  0
 35 73  1  0  0  0  0
 35 78  2  0  0  0  0
 36 60  1  0  0  0  0
 36 70  1  0  0  0  0
 36 79  2  0  0  0  0
 37 63  1  0  0  0  0
 37 69  1  0  0  0  0
 37 80  2  0  0  0  0
 38 64  1  0  0  0  0
 38 74  1  0  0  0  0
 38 81  2  0  0  0  0
 39 42  1  0  0  0  0
 40 49  1  0  0  0  0
 41 69  1  0  0  0  0
 42 44  1  0  0  0  0
 43 45  1  0  0  0  0
 43 46  1  0  0  0  0
 44 48  1  0  0  0  0
 45 50  1  0  0  0  0
 46 70  1  0  0  0  0
 47 50  1  0  0  0  0
 47 70  1  0  0  0  0
 48 73  1  0  0  0  0
 49 69  1  0  0  0  0
 50 68  1  0  0  0  0
 52 61  1  0  0  0  0
 53 64  1  0  0  0  0
 54 65  1  0  0  0  0
 55 66  1  0  0  0  0
 56 66  1  0  0  0  0
 57 66  1  0  0  0  0
 58 75  1  0  0  0  0
 59 83  1  0  0  0  0
 60 65  1  0  0  0  0
 61 62  1  0  0  0  0
 62 76  1  0  0  0  0
 63 66  1  0  0  0  0
 63 74  1  0  0  0  0
 64 75  1  0  0  0  0
 65 76  1  0  0  0  0
 67 68  1  0  0  0  0
M  CHG  2  75   1  76   1
M  ISO  4  36 100  59 101  60 100  83 101
M  END
> <Batch ID>
0108

> <Smiles>
CCC(NC(C)[100CH2:0][100C:0](=O)N1CCCC(n2nc(-c3ccc(Oc4ccc(F)cc4F)cc3)c(C(N)=O)c2N)C1)c1ccc([101CH2:1][101O:1]c2ccc3c(c2)CN(C(=O)C(NC(=O)C(C)NC)C(C)(C)C)C(C(=O)NC2CCCc4ccccc42)C3)cc1C

> <Shape>
0.212

> <Color>
0.068

> <Negative vol penalty>
0.000

$$$$

  -OEChem-04052319533D

 84 93  0     1  0  0  0  0  0999 V2000
  -27.2579  -27.7277   28.2763 C   0  0  0  0  0  0  0  0  0  0  0  0
  -27.2587  -27.1910   26.9928 C   0  0  0  0  0  0  0  0  0  0  0  0
  -25.4275  -14.5187   19.4900 C   0  0  0  0  0  0  0  0  0  0  0  0
  -26.8658  -12.9449   20.6266 C   0  0  0  0  0  0  0  0  0  0  0  0
  -26.1770  -28.4945   28.7094 C   0  0  0  0  0  0  0  0  0  0  0  0
  -26.1780  -27.4200   26.1419 C   0  0  0  0  0  0  0  0  0  0  0  0
  -27.6275  -28.6614   21.4512 C   0  0  0  0  0  0  0  0  0  0  0  0
  -24.5078  -13.4995   19.2428 C   0  0  0  0  0  0  0  0  0  0  0  0
  -25.9460  -11.9258   20.3793 C   0  0  0  0  0  0  0  0  0  0  0  0
  -28.0524  -27.6252   20.6209 C   0  0  0  0  0  0  0  0  0  0  0  0
  -23.8098   -8.9840   20.3625 C   0  0  0  0  0  0  0  0  0  0  0  0
  -23.5015   -8.1189   21.4123 C   0  0  0  0  0  0  0  0  0  0  0  0
  -25.8910  -27.6051   19.5499 C   0  0  0  0  0  0  0  0  0  0  0  0
  -22.7008   -9.9879   22.7172 C   0  0  0  0  0  0  0  0  0  0  0  0
  -26.6065  -14.2413   20.1819 C   0  0  0  0  0  0  0  0  0  0  0  0
  -28.2304  -16.0807   19.4837 C   0  0  0  0  0  0  0  0  0  0  0  0
  -25.0868  -28.7410   27.8600 C   0  0  0  0  0  0  0  0  0  0  0  0
  -26.3254  -29.1708   21.3443 C   0  0  0  0  0  0  0  0  0  0  0  0
  -25.0808  -28.1897   26.5645 C   0  0  0  0  0  0  0  0  0  0  0  0
  -25.4528  -28.6496   20.3783 C   0  0  0  0  0  0  0  0  0  0  0  0
  -24.7670  -12.2031   19.6874 C   0  0  0  0  0  0  0  0  0  0  0  0
  -27.1832  -27.0949   19.6720 C   0  0  0  0  0  0  0  0  0  0  0  0
  -23.5637  -10.3510   20.4900 C   0  0  0  0  0  0  0  0  0  0  0  0
  -22.9469   -8.6209   22.5897 C   0  0  0  0  0  0  0  0  0  0  0  0
  -23.0092  -10.8530   21.6673 C   0  0  0  0  0  0  0  0  0  0  0  0
  -27.5572  -15.2935   20.4372 C   0  0  0  0  0  0  0  0  0  0  0  0
  -29.0135  -16.9278   20.2291 C   0  0  0  0  0  0  0  0  0  0  0  0
  -28.1545  -16.0490   18.0523 C   0  0  0  0  0  0  0  0  0  0  0  0
  -23.8170  -29.3419   23.2891 C   0  0  0  0  0  0  0  0  0  0  0  0
  -22.5527  -31.0942   20.8697 C   0  0  0  0  0  0  0  0  0  0  0  0
  -22.5411  -31.8560   17.5431 C   0  0  0  0  0  0  0  0  0  0  0  0
  -29.8662  -20.2876   24.4665 C   0  0  0  0  0  0  0  0  0  0  0  0
  -23.9198  -29.5365   28.3890 C   0  0  0  0  0  0  0  0  0  0  0  0
  -25.8911  -30.3068   22.2293 C   0  0  0  0  0  0  0  0  0  0  0  0
  -24.0514  -29.1750   20.2096 C   0  0  0  0  0  0  0  0  0  0  0  0
  -22.9834  -30.0447   27.2957 C   0  0  0  0  0  0  0  0  0  0  0  0
  -30.1430  -16.9103   25.1528 C   0  0  0  0  0  0  0  0  0  0  0  0
  -22.6664  -28.9301   26.3038 C   0  0  0  0  0  0  0  0  0  0  0  0
  -26.1103  -23.9551   19.9844 C   0  0  0  0  0  0  0  0  0  0  0  0
  -25.8206  -23.8941   18.5106 C   0  0  0  0  0  0  0  0  0  0  0  0
  -29.5536  -16.2385   23.9126 C   0  0  0  0  0  0  0  0  0  0  0  0
  -30.8455  -22.2396   21.4736 C   0  0  0  0  0  0  0  0  0  0  0  0
  -28.3838  -21.7186   21.3405 C   0  0  0  0  0  0  0  0  0  0  0  0
  -29.3224  -18.1305   25.5548 C   0  0  0  0  0  0  0  0  0  0  0  0
  -30.7888  -22.0314   22.9845 C   0  0  0  0  0  0  0  0  0  0  0  0
  -28.3724  -21.5259   22.8533 C   0  0  0  0  0  0  0  0  0  0  0  0
  -28.5885  -18.4875   23.2203 C   0  0  0  0  0  0  0  0  0  0  0  0
  -23.9382  -28.4365   25.6035 C   0  0  1  0  0  0  0  0  0  0  0  0
  -24.3760  -30.4005   22.3810 C   0  0  1  0  0  0  0  0  0  0  0  0
  -27.0388  -23.2098   19.0660 C   0  0  0  0  0  0  0  0  0  0  0  0
  -29.4911  -22.6909   20.9118 C   0  0  0  0  0  0  0  0  0  0  0  0
  -29.3858  -17.2491   22.7640 C   0  0  2  0  0  0  0  0  0  0  0  0
  -21.3700  -33.2990   15.8567 C   0  0  0  0  0  0  0  0  0  0  0  0
  -29.5611  -21.4001   18.7818 C   0  0  0  0  0  0  0  0  0  0  0  0
  -28.6080  -23.8801   17.2517 C   0  0  0  0  0  0  0  0  0  0  0  0
  -20.1573  -29.2050   20.9203 C   0  0  0  0  0  0  0  0  0  0  0  0
  -19.5084  -30.0795   18.6658 C   0  0  0  0  0  0  0  0  0  0  0  0
  -19.5756  -31.6196   20.6270 C   0  0  0  0  0  0  0  0  0  0  0  0
  -25.0416  -33.2816   16.8545 C   0  0  0  0  0  0  0  0  0  0  0  0
  -28.5738  -25.1866   19.3882 C   0  0  0  0  0  0  0  0  0  1  0  0
  -21.7446  -30.7829   19.6332 C   0  0  1  0  0  0  0  0  0  0  0  0
  -22.5459  -33.1879   16.8147 C   0  0  2  0  0  0  0  0  0  0  0  0
  -29.5468  -22.8144   19.3910 C   0  0  1  0  0  0  0  0  0  0  0  0
  -28.4514  -23.7673   18.7642 C   0  0  1  0  0  0  0  0  0  0  0  0
  -20.2722  -30.4103   19.9658 C   0  0  0  0  0  0  0  0  0  0  0  0
  -27.8842  -15.6121   21.6924 N   0  0  0  0  0  0  0  0  0  0  0  0
  -28.7715  -16.6087   21.5329 N   0  0  0  0  0  0  0  0  0  0  0  0
  -23.6716  -30.2820   21.1027 N   0  0  0  0  0  0  0  0  0  0  0  0
  -29.1822  -19.0629   24.4364 N   0  0  0  0  0  0  0  0  0  0  0  0
  -29.6949  -21.1371   23.3609 N   0  0  0  0  0  0  0  0  0  0  0  0
  -29.8788  -17.9070   19.8899 N   0  0  0  0  0  0  0  0  0  0  0  0
  -29.0367  -15.2127   17.3548 N   0  0  0  0  0  0  0  0  0  0  0  0
  -24.3383  -29.3657   24.5686 N   0  0  0  0  0  0  0  0  0  0  0  0
  -21.8844  -31.9378   18.7528 N   0  0  0  0  0  0  0  0  0  0  0  0
  -23.8051  -33.3465   16.0336 N   0  3  0  0  0  0  0  0  0  0  0  0
  -27.3399  -16.7542   17.4100 O   0  0  0  0  0  0  0  0  0  0  0  0
  -22.9740  -28.5623   22.8611 O   0  0  0  0  0  0  0  0  0  0  0  0
  -22.2083  -32.0283   21.5980 O   0  0  0  0  0  0  0  0  0  0  0  0
  -23.0641  -30.8434   17.0832 O   0  0  0  0  0  0  0  0  0  0  0  0
  -30.5898  -20.6034   25.4192 O   0  0  0  0  0  0  0  0  0  0  0  0
  -23.8697  -11.2085   19.4465 O   0  0  0  0  0  0  0  0  0  0  0  0
  -27.5977  -26.0767   18.8556 O   0  0  0  0  0  0  0  0  0  1  0  0
  -22.6494   -7.7898   23.5971 F   0  0  0  0  0  0  0  0  0  0  0  0
  -22.7694  -12.1652   21.7953 F   0  0  0  0  0  0  0  0  0  0  0  0
  1  2  1  0  0  0  0
  1  5  2  0  0  0  0
  2  6  2  0  0  0  0
  3  8  2  0  0  0  0
  3 15  1  0  0  0  0
  4  9  1  0  0  0  0
  4 15  2  0  0  0  0
  5 17  1  0  0  0  0
  6 19  1  0  0  0  0
  7 10  2  0  0  0  0
  7 18  1  0  0  0  0
  8 21  1  0  0  0  0
  9 21  2  0  0  0  0
 10 22  1  0  0  0  0
 11 12  2  0  0  0  0
 11 23  1  0  0  0  0
 12 24  1  0  0  0  0
 13 20  1  0  0  0  0
 13 22  2  0  0  0  0
 14 24  2  0  0  0  0
 14 25  1  0  0  0  0
 15 26  1  0  0  0  0
 16 26  1  0  0  0  0
 16 27  2  0  0  0  0
 16 28  1  0  0  0  0
 17 19  2  0  0  0  0
 17 33  1  0  0  0  0
 18 20  2  0  0  0  0
 18 34  1  0  0  0  0
 19 48  1  0  0  0  0
 20 35  1  0  0  0  0
 21 81  1  0  0  0  0
 22 82  1  0  0  0  0
 23 25  2  0  0  0  0
 23 81  1  0  0  0  0
 24 83  1  0  0  0  0
 25 84  1  0  0  0  0
 26 66  2  0  0  0  0
 27 67  1  0  0  0  0
 27 71  1  0  0  0  0
 28 72  1  0  0  0  0
 28 76  2  0  0  0  0
 29 49  1  0  0  0  0
 29 73  1  0  0  0  0
 29 77  2  0  0  0  0
 30 61  1  0  0  0  0
 30 68  1  0  0  0  0
 30 78  2  0  0  0  0
 31 62  1  0  0  0  0
 31 74  1  0  0  0  0
 31 79  2  0  0  0  0
 32 69  1  0  0  0  0
 32 70  1  0  0  0  0
 32 80  2  0  0  0  0
 33 36  1  0  0  0  0
 34 49  1  0  0  0  0
 35 68  1  0  0  0  0
 36 38  1  0  0  0  0
 37 41  1  0  0  0  0
 37 44  1  0  0  0  0
 38 48  1  0  0  0  0
 39 40  1  0  0  0  0
 39 50  1  0  0  0  0
 40 50  1  0  0  0  0
 41 52  1  0  0  0  0
 42 45  1  0  0  0  0
 42 51  1  0  0  0  0
 43 46  1  0  0  0  0
 43 51  1  0  0  0  0
 44 69  1  0  0  0  0
 45 70  1  0  0  0  0
 46 70  1  0  0  0  0
 47 52  1  0  0  0  0
 47 69  1  0  0  0  0
 48 73  1  0  0  0  0
 49 68  1  0  0  0  0
 50 64  1  0  0  0  0
 51 63  1  0  0  0  0
 52 67  1  0  0  0  0
 53 62  1  0  0  0  0
 54 63  1  0  0  0  0
 55 64  1  0  0  0  0
 56 65  1  0  0  0  0
 57 65  1  0  0  0  0
 58 65  1  0  0  0  0
 59 75  1  0  0  0  0
 60 64  1  0  0  0  0
 60 82  1  0  0  0  0
 61 65  1  0  0  0  0
 61 74  1  0  0  0  0
 62 75  1  0  0  0  0
 63 64  1  0  0  0  0
 66 67  1  0  0  0  0
M  CHG  1  75   1
M  ISO  4  32 100  60 101  70 100  82 101
M  END
> <Batch ID>
0108

> <Smiles>
CNC(C)C(=O)NC(C(=O)N1Cc2cc([101O:1][101CH2:1]C(C)(C3CC3)C(C)C3CC[100N:0]([100C:0](=O)N4CCCC(n5nc(-c6ccc(Oc7ccc(F)cc7F)cc6)c(C(N)=O)c5N)C4)CC3)ccc2CC1C(=O)NC1CCCc2ccccc21)C(C)(C)C

> <Shape>
0.216

> <Color>
0.076

> <Negative vol penalty>
0.000

$$$$

  -OEChem-04052319533D

 86 94  0     1  0  0  0  0  0999 V2000
  -33.7352  -31.7412   23.4132 C   0  0  0  0  0  0  0  0  0  0  0  0
  -33.9516  -30.4080   23.7467 C   0  0  0  0  0  0  0  0  0  0  0  0
  -23.0628   -9.8532   19.9933 C   0  0  0  0  0  0  0  0  0  0  0  0
  -23.8186   -9.9254   22.2869 C   0  0  0  0  0  0  0  0  0  0  0  0
  -32.4564  -32.1723   23.0630 C   0  0  0  0  0  0  0  0  0  0  0  0
  -32.8889  -29.5053   23.7312 C   0  0  0  0  0  0  0  0  0  0  0  0
  -34.0937  -25.1243   21.4951 C   0  0  0  0  0  0  0  0  0  0  0  0
  -32.4335  -19.9393   24.8803 C   0  0  0  0  0  0  0  0  0  0  0  0
  -31.8046  -18.7607   24.4791 C   0  0  0  0  0  0  0  0  0  0  0  0
  -22.3093   -8.7143   20.2774 C   0  0  0  0  0  0  0  0  0  0  0  0
  -23.0651   -8.7865   22.5711 C   0  0  0  0  0  0  0  0  0  0  0  0
  -34.8454  -24.2155   22.2386 C   0  0  0  0  0  0  0  0  0  0  0  0
  -19.8296   -8.0334   23.1914 C   0  0  0  0  0  0  0  0  0  0  0  0
  -19.0702   -8.0358   24.3615 C   0  0  0  0  0  0  0  0  0  0  0  0
  -32.8373  -22.9786   22.7455 C   0  0  0  0  0  0  0  0  0  0  0  0
  -34.1649  -19.5756   23.2350 C   0  0  0  0  0  0  0  0  0  0  0  0
  -20.2948   -6.1124   25.1602 C   0  0  0  0  0  0  0  0  0  0  0  0
  -23.8176  -10.4587   20.9981 C   0  0  0  0  0  0  0  0  0  0  0  0
  -24.1798  -12.9762   20.8005 C   0  0  0  0  0  0  0  0  0  0  0  0
  -31.3794  -31.2724   23.0338 C   0  0  0  0  0  0  0  0  0  0  0  0
  -32.7044  -24.9730   21.3800 C   0  0  0  0  0  0  0  0  0  0  0  0
  -31.5942  -29.9250   23.3815 C   0  0  0  0  0  0  0  0  0  0  0  0
  -32.0706  -23.8854   21.9979 C   0  0  0  0  0  0  0  0  0  0  0  0
  -33.6137  -20.3468   24.2582 C   0  0  0  0  0  0  0  0  0  0  0  0
  -32.3558  -17.9895   23.4559 C   0  0  0  0  0  0  0  0  0  0  0  0
  -33.5360  -18.3969   22.8338 C   0  0  0  0  0  0  0  0  0  0  0  0
  -22.3104   -8.1810   21.5663 C   0  0  0  0  0  0  0  0  0  0  0  0
  -34.2168  -23.1441   22.8664 C   0  0  0  0  0  0  0  0  0  0  0  0
  -20.8215   -7.0704   23.0057 C   0  0  0  0  0  0  0  0  0  0  0  0
  -19.3028   -7.0754   25.3459 C   0  0  0  0  0  0  0  0  0  0  0  0
  -21.0541   -6.1099   23.9901 C   0  0  0  0  0  0  0  0  0  0  0  0
  -24.5966  -11.6349   20.7051 C   0  0  0  0  0  0  0  0  0  0  0  0
  -25.2785  -13.7053   20.4163 C   0  0  0  0  0  0  0  0  0  0  0  0
  -22.9127  -13.5148   21.2006 C   0  0  0  0  0  0  0  0  0  0  0  0
  -30.1812  -26.7156   22.2169 C   0  0  0  0  0  0  0  0  0  0  0  0
  -28.5512  -24.4237   20.6006 C   0  0  0  0  0  0  0  0  0  0  0  0
  -28.4509  -21.2190   19.4316 C   0  0  0  0  0  0  0  0  0  0  0  0
  -30.7699  -14.6862   20.5842 C   0  0  0  0  0  0  0  0  0  0  0  0
  -30.0058  -31.7949   22.6947 C   0  0  0  0  0  0  0  0  0  0  0  0
  -31.9114  -25.9468   20.5522 C   0  0  0  0  0  0  0  0  0  0  0  0
  -30.5845  -23.6667   21.8883 C   0  0  0  0  0  0  0  0  0  0  0  0
  -29.0068  -30.6965   22.3398 C   0  0  0  0  0  0  0  0  0  0  0  0
  -29.6176  -12.2378   18.2702 C   0  0  0  0  0  0  0  0  0  0  0  0
  -29.0820  -29.5588   23.3530 C   0  0  0  0  0  0  0  0  0  0  0  0
  -28.1770  -11.9691   18.7091 C   0  0  0  0  0  0  0  0  0  0  0  0
  -30.5343  -12.4885   19.4656 C   0  0  0  0  0  0  0  0  0  0  0  0
  -28.6359  -13.2774   20.8249 C   0  0  0  0  0  0  0  0  0  0  0  0
  -30.4717  -28.9104   23.3524 C   0  0  1  0  0  0  0  0  0  0  0  0
  -30.4334  -25.9857   20.9280 C   0  0  1  0  0  0  0  0  0  0  0  0
  -27.6625  -13.0740   19.6513 C   0  0  2  0  0  0  0  0  0  0  0  0
  -35.3230  -21.3812   25.7916 C   0  0  0  0  0  0  0  0  0  0  0  0
  -26.9719  -19.6240   18.1803 C   0  0  0  0  0  0  0  0  0  0  0  0
  -35.0432  -18.5082   18.0414 C   0  0  0  0  0  0  0  0  0  0  0  0
  -36.3317  -17.0862   19.6470 C   0  0  0  0  0  0  0  0  0  0  0  0
  -26.8356  -24.0595   23.0974 C   0  0  0  0  0  0  0  0  0  0  0  0
  -26.0491  -21.8778   22.1540 C   0  0  0  0  0  0  0  0  0  0  0  0
  -25.5670  -24.0046   20.9429 C   0  0  0  0  0  0  0  0  0  0  0  0
  -30.4330  -20.9058   17.2563 C   0  0  0  0  0  0  0  0  0  0  0  0
  -31.6652  -16.7309   23.0443 C   0  0  0  0  0  0  0  0  0  0  0  0
  -34.1448  -17.5872   21.7363 C   0  0  0  0  0  0  0  0  0  0  0  0
  -34.2912  -18.3985   20.4364 C   0  0  0  0  0  0  0  0  0  0  0  0
  -30.8507  -16.8735   21.7539 C   0  0  0  0  0  0  0  0  0  0  0  0
  -34.2953  -21.6238   24.6935 C   0  0  1  0  0  0  0  0  0  1  0  0
  -27.9270  -23.0981   20.9642 C   0  0  1  0  0  0  0  0  0  0  0  0
  -28.0853  -20.6541   18.0709 C   0  0  2  0  0  0  0  0  0  0  0  0
  -34.9445  -17.6164   19.2817 C   0  0  0  0  0  0  0  0  0  0  0  0
  -26.6224  -23.2649   21.7935 C   0  0  0  0  0  0  0  0  0  0  0  0
  -25.8614  -11.5161   20.2926 N   0  0  0  0  0  0  0  0  0  0  0  0
  -26.2488  -12.7920   20.1252 N   0  0  0  0  0  0  0  0  0  0  0  0
  -29.8518  -24.6497   21.0732 N   0  0  0  0  0  0  0  0  0  0  0  0
  -29.9904  -13.5484   20.3181 N   0  0  0  0  0  0  0  0  0  0  0  0
  -25.4997  -15.0322   20.3025 N   0  0  0  0  0  0  0  0  0  0  0  0
  -21.8930  -12.6246   21.5638 N   0  0  0  0  0  0  0  0  0  0  0  0
  -30.6168  -28.0270   22.2153 N   0  0  0  0  0  0  0  0  0  0  0  0
  -27.7497  -22.3729   19.7108 N   0  0  0  0  0  0  0  0  0  0  0  0
  -30.1767  -15.6454   21.3958 N   0  0  0  0  0  0  0  0  0  0  0  0
  -29.2700  -20.0010   17.4458 N   0  3  0  0  0  0  0  0  0  0  0  0
  -22.6862  -14.7484   21.2192 O   0  0  0  0  0  0  0  0  0  0  0  0
  -29.6308  -26.1327   23.1437 O   0  0  0  0  0  0  0  0  0  0  0  0
  -27.9112  -25.2261   19.9164 O   0  0  0  0  0  0  0  0  0  0  0  0
  -29.2733  -20.6875   20.1744 O   0  0  0  0  0  0  0  0  0  0  0  0
  -31.9080  -14.8384   20.1277 O   0  0  0  0  0  0  0  0  0  0  0  0
  -21.5751   -7.0698   21.8439 O   0  0  0  0  0  0  0  0  0  0  0  0
  -34.9481  -22.2560   23.5933 O   0  0  0  0  0  0  0  0  0  1  0  0
  -18.5746   -7.0788   26.4701 F   0  0  0  0  0  0  0  0  0  0  0  0
  -22.0065   -5.1830   23.8179 F   0  0  0  0  0  0  0  0  0  0  0  0
  1  2  1  0  0  0  0
  1  5  2  0  0  0  0
  2  6  2  0  0  0  0
  3 10  2  0  0  0  0
  3 18  1  0  0  0  0
  4 11  1  0  0  0  0
  4 18  2  0  0  0  0
  5 20  1  0  0  0  0
  6 22  1  0  0  0  0
  7 12  2  0  0  0  0
  7 21  1  0  0  0  0
  8  9  2  0  0  0  0
  8 24  1  0  0  0  0
  9 25  1  0  0  0  0
 10 27  1  0  0  0  0
 11 27  2  0  0  0  0
 12 28  1  0  0  0  0
 13 14  2  0  0  0  0
 13 29  1  0  0  0  0
 14 30  1  0  0  0  0
 15 23  1  0  0  0  0
 15 28  2  0  0  0  0
 16 24  2  0  0  0  0
 16 26  1  0  0  0  0
 17 30  2  0  0  0  0
 17 31  1  0  0  0  0
 18 32  1  0  0  0  0
 19 32  1  0  0  0  0
 19 33  2  0  0  0  0
 19 34  1  0  0  0  0
 20 22  2  0  0  0  0
 20 39  1  0  0  0  0
 21 23  2  0  0  0  0
 21 40  1  0  0  0  0
 22 48  1  0  0  0  0
 23 41  1  0  0  0  0
 24 63  1  0  0  0  0
 25 26  2  0  0  0  0
 25 59  1  0  0  0  0
 26 60  1  0  0  0  0
 27 83  1  0  0  0  0
 28 84  1  0  0  0  0
 29 31  2  0  0  0  0
 29 83  1  0  0  0  0
 30 85  1  0  0  0  0
 31 86  1  0  0  0  0
 32 68  2  0  0  0  0
 33 69  1  0  0  0  0
 33 72  1  0  0  0  0
 34 73  1  0  0  0  0
 34 78  2  0  0  0  0
 35 49  1  0  0  0  0
 35 74  1  0  0  0  0
 35 79  2  0  0  0  0
 36 64  1  0  0  0  0
 36 70  1  0  0  0  0
 36 80  2  0  0  0  0
 37 65  1  0  0  0  0
 37 75  1  0  0  0  0
 37 81  2  0  0  0  0
 38 71  1  0  0  0  0
 38 76  1  0  0  0  0
 38 82  2  0  0  0  0
 39 42  1  0  0  0  0
 40 49  1  0  0  0  0
 41 70  1  0  0  0  0
 42 44  1  0  0  0  0
 43 45  1  0  0  0  0
 43 46  1  0  0  0  0
 44 48  1  0  0  0  0
 45 50  1  0  0  0  0
 46 71  1  0  0  0  0
 47 50  1  0  0  0  0
 47 71  1  0  0  0  0
 48 74  1  0  0  0  0
 49 70  1  0  0  0  0
 50 69  1  0  0  0  0
 51 63  1  0  0  0  0
 52 65  1  0  0  0  0
 53 66  1  0  0  0  0
 54 66  1  0  0  0  0
 55 67  1  0  0  0  0
 56 67  1  0  0  0  0
 57 67  1  0  0  0  0
 58 77  1  0  0  0  0
 59 62  1  0  0  0  0
 60 61  1  0  0  0  0
 61 66  1  0  0  0  0
 62 76  1  0  0  0  0
 63 84  1  0  0  0  0
 64 67  1  0  0  0  0
 64 75  1  0  0  0  0
 65 77  1  0  0  0  0
 68 69  1  0  0  0  0
M  CHG  1  77   1
M  ISO  4  38 100  63 101  76 100  84 101
M  END
> <Batch ID>
0108

> <Smiles>
CNC(C)C(=O)NC(C(=O)N1Cc2cc([101O:1][101CH:1](C)c3ccc(CC[100NH:0][100C:0](=O)N4CCCC(n5nc(-c6ccc(Oc7ccc(F)cc7F)cc6)c(C(N)=O)c5N)C4)c(CCC(C)C)c3)ccc2CC1C(=O)NC1CCCc2ccccc21)C(C)(C)C

> <Shape>
0.218

> <Color>
0.219

> <Negative vol penalty>
0.000

$$$$

  -OEChem-04052319533D

 84 92  0     1  0  0  0  0  0999 V2000
  -19.0135  -21.8611   22.1047 C   0  0  0  0  0  0  0  0  0  0  0  0
  -20.3369  -21.4374   22.0368 C   0  0  0  0  0  0  0  0  0  0  0  0
  -27.2952  -13.7167   22.5304 C   0  0  0  0  0  0  0  0  0  0  0  0
  -26.8588  -13.1015   20.2351 C   0  0  0  0  0  0  0  0  0  0  0  0
  -18.6538  -23.1055   21.5890 C   0  0  0  0  0  0  0  0  0  0  0  0
  -21.3012  -22.2576   21.4520 C   0  0  0  0  0  0  0  0  0  0  0  0
  -28.2366  -23.9714   21.9798 C   0  0  0  0  0  0  0  0  0  0  0  0
  -26.7010  -12.5306   22.9613 C   0  0  0  0  0  0  0  0  0  0  0  0
  -26.2646  -11.9154   20.6660 C   0  0  0  0  0  0  0  0  0  0  0  0
  -29.3854  -24.0662   21.1954 C   0  0  0  0  0  0  0  0  0  0  0  0
  -24.3106   -8.8936   21.1763 C   0  0  0  0  0  0  0  0  0  0  0  0
  -23.1035   -8.5211   20.5850 C   0  0  0  0  0  0  0  0  0  0  0  0
  -28.6626  -26.2291   20.4089 C   0  0  0  0  0  0  0  0  0  0  0  0
  -22.0882  -10.5690   21.3677 C   0  0  0  0  0  0  0  0  0  0  0  0
  -30.1329  -23.7016   16.3869 C   0  0  0  0  0  0  0  0  0  0  0  0
  -32.1543  -23.0267   17.0749 C   0  0  0  0  0  0  0  0  0  0  0  0
  -27.3741  -14.0022   21.1673 C   0  0  0  0  0  0  0  0  0  0  0  0
  -29.3442  -15.4340   20.4080 C   0  0  0  0  0  0  0  0  0  0  0  0
  -19.6159  -23.9454   21.0063 C   0  0  0  0  0  0  0  0  0  0  0  0
  -27.2854  -25.0017   21.9762 C   0  0  0  0  0  0  0  0  0  0  0  0
  -20.9537  -23.5139   20.9268 C   0  0  0  0  0  0  0  0  0  0  0  0
  -27.5039  -26.1461   21.1961 C   0  0  0  0  0  0  0  0  0  0  0  0
  -30.2194  -22.3485   16.1443 C   0  0  0  0  0  0  0  0  0  0  0  0
  -31.4982  -21.9215   16.5794 C   0  0  0  0  0  0  0  0  0  0  0  0
  -26.1856  -11.6300   22.0291 C   0  0  0  0  0  0  0  0  0  0  0  0
  -29.5971  -25.1939   20.4076 C   0  0  0  0  0  0  0  0  0  0  0  0
  -24.4065  -10.1037   21.8634 C   0  0  0  0  0  0  0  0  0  0  0  0
  -21.9923   -9.3588   20.6806 C   0  0  0  0  0  0  0  0  0  0  0  0
  -23.2953  -10.9414   21.9591 C   0  0  0  0  0  0  0  0  0  0  0  0
  -27.9874  -15.2275   20.7216 C   0  0  0  0  0  0  0  0  0  0  0  0
  -29.4142  -16.7553   20.0397 C   0  0  0  0  0  0  0  0  0  0  0  0
  -30.4429  -14.5137   20.4462 C   0  0  0  0  0  0  0  0  0  0  0  0
  -24.2214  -25.2229   21.1594 C   0  0  0  0  0  0  0  0  0  0  0  0
  -24.5130  -28.2116   22.3863 C   0  0  0  0  0  0  0  0  0  0  0  0
  -26.5505  -30.8323   23.1783 C   0  0  0  0  0  0  0  0  0  0  0  0
  -27.3943  -21.1412   17.2415 C   0  0  0  0  0  0  0  0  0  0  0  0
  -19.1708  -25.2617   20.4199 C   0  0  0  0  0  0  0  0  0  0  0  0
  -26.0644  -24.8961   22.8483 C   0  0  0  0  0  0  0  0  0  0  0  0
  -26.5231  -27.2889   21.1725 C   0  0  0  0  0  0  0  0  0  0  0  0
  -20.3207  -26.2297   20.1534 C   0  0  0  0  0  0  0  0  0  0  0  0
  -26.0091  -20.4731   20.4526 C   0  0  0  0  0  0  0  0  0  0  0  0
  -21.4691  -25.5135   19.4499 C   0  0  0  0  0  0  0  0  0  0  0  0
  -26.5069  -19.0641   20.7798 C   0  0  0  0  0  0  0  0  0  0  0  0
  -25.6923  -20.6288   18.9669 C   0  0  0  0  0  0  0  0  0  0  0  0
  -27.2879  -18.8434   18.3840 C   0  0  0  0  0  0  0  0  0  0  0  0
  -22.0330  -24.3856   20.3224 C   0  0  1  0  0  0  0  0  0  0  0  0
  -24.9127  -25.7765   22.3732 C   0  0  1  0  0  0  0  0  0  0  0  0
  -27.6736  -18.6542   19.8610 C   0  0  2  0  0  0  0  0  0  0  0  0
  -32.8140  -20.2755   15.2240 C   0  0  0  0  0  0  0  0  0  0  0  0
  -26.4947  -33.1525   24.1325 C   0  0  0  0  0  0  0  0  0  0  0  0
  -23.4052  -29.2679   19.7468 C   0  0  0  0  0  0  0  0  0  0  0  0
  -24.2511  -31.5375   20.3802 C   0  0  0  0  0  0  0  0  0  0  0  0
  -22.5201  -30.4171   21.7840 C   0  0  0  0  0  0  0  0  0  0  0  0
  -33.0617  -25.6956   17.9974 C   0  0  0  0  0  0  0  0  0  0  0  0
  -31.5875  -26.4703   16.1524 C   0  0  0  0  0  0  0  0  0  0  0  0
  -28.2963  -30.0680   25.4426 C   0  0  0  0  0  0  0  0  0  0  0  0
  -29.1655  -21.5078   15.5422 C   0  0  0  0  0  0  0  0  0  0  0  0
  -30.6151  -26.0405   18.4321 C   0  0  0  0  0  0  0  0  0  1  0  0
  -32.0392  -20.5494   16.5182 C   0  0  1  0  0  0  0  0  0  0  0  0
  -24.8988  -29.5618   21.8321 C   0  0  1  0  0  0  0  0  0  0  0  0
  -26.6675  -31.6726   24.4371 C   0  0  2  0  0  0  0  0  0  0  0  0
  -23.7865  -30.1738   20.9345 C   0  0  0  0  0  0  0  0  0  0  0  0
  -31.6474  -25.5426   17.3878 C   0  0  0  0  0  0  0  0  0  0  0  0
  -27.2487  -16.3294   20.5662 N   0  0  0  0  0  0  0  0  0  0  0  0
  -31.3147  -24.1030   16.9531 N   0  0  0  0  0  0  0  0  0  0  0  0
  -28.1446  -17.2411   20.1510 N   0  0  0  0  0  0  0  0  0  0  0  0
  -25.3417  -27.1358   22.0375 N   0  0  0  0  0  0  0  0  0  0  0  0
  -26.8399  -20.2253   18.1507 N   0  0  0  0  0  0  0  0  0  0  0  0
  -30.4372  -17.5375   19.6348 N   0  0  0  0  0  0  0  0  0  0  0  0
  -30.1954  -13.1939   20.8478 N   0  0  0  0  0  0  0  0  0  0  0  0
  -22.8865  -24.9266   21.3584 N   0  0  0  0  0  0  0  0  0  0  0  0
  -25.2610  -30.3859   22.9802 N   0  0  0  0  0  0  0  0  0  0  0  0
  -28.4835  -20.6802   16.5121 N   0  0  0  0  0  0  0  0  0  0  0  0
  -28.0026  -31.4756   25.0692 N   0  3  0  0  0  0  0  0  0  0  0  0
  -31.6126  -14.8560   20.1493 O   0  0  0  0  0  0  0  0  0  0  0  0
  -24.8521  -25.0769   20.1189 O   0  0  0  0  0  0  0  0  0  0  0  0
  -23.5172  -28.1162   23.1080 O   0  0  0  0  0  0  0  0  0  0  0  0
  -27.5066  -30.5985   22.4422 O   0  0  0  0  0  0  0  0  0  0  0  0
  -26.9548  -22.2867   17.0947 O   0  0  0  0  0  0  0  0  0  0  0  0
  -25.6059  -10.4724   22.4493 O   0  0  0  0  0  0  0  0  0  0  0  0
  -30.7172  -25.2887   19.6406 O   0  0  0  0  0  0  0  0  0  1  0  0
  -20.8335   -9.0017   20.1114 F   0  0  0  0  0  0  0  0  0  0  0  0
  -23.3817  -12.1057   22.6168 F   0  0  0  0  0  0  0  0  0  0  0  0
  -32.8976  -20.2436   17.5529 F   0  0  0  0  0  0  0  0  0  0  0  0
  1  2  1  0  0  0  0
  1  5  2  0  0  0  0
  2  6  2  0  0  0  0
  3  8  2  0  0  0  0
  3 17  1  0  0  0  0
  4  9  1  0  0  0  0
  4 17  2  0  0  0  0
  5 19  1  0  0  0  0
  6 21  1  0  0  0  0
  7 10  2  0  0  0  0
  7 20  1  0  0  0  0
  8 25  1  0  0  0  0
  9 25  2  0  0  0  0
 10 26  1  0  0  0  0
 11 12  2  0  0  0  0
 11 27  1  0  0  0  0
 12 28  1  0  0  0  0
 13 22  1  0  0  0  0
 13 26  2  0  0  0  0
 14 28  2  0  0  0  0
 14 29  1  0  0  0  0
 15 23  2  0  0  0  0
 15 65  1  0  0  0  0
 16 24  2  0  0  0  0
 16 65  1  0  0  0  0
 17 30  1  0  0  0  0
 18 30  1  0  0  0  0
 18 31  2  0  0  0  0
 18 32  1  0  0  0  0
 19 21  2  0  0  0  0
 19 37  1  0  0  0  0
 20 22  2  0  0  0  0
 20 38  1  0  0  0  0
 21 46  1  0  0  0  0
 22 39  1  0  0  0  0
 23 24  1  0  0  0  0
 23 57  1  0  0  0  0
 24 59  1  0  0  0  0
 25 80  1  0  0  0  0
 26 81  1  0  0  0  0
 27 29  2  0  0  0  0
 27 80  1  0  0  0  0
 28 82  1  0  0  0  0
 29 83  1  0  0  0  0
 30 64  2  0  0  0  0
 31 66  1  0  0  0  0
 31 69  1  0  0  0  0
 32 70  1  0  0  0  0
 32 75  2  0  0  0  0
 33 47  1  0  0  0  0
 33 71  1  0  0  0  0
 33 76  2  0  0  0  0
 34 60  1  0  0  0  0
 34 67  1  0  0  0  0
 34 77  2  0  0  0  0
 35 61  1  0  0  0  0
 35 72  1  0  0  0  0
 35 78  2  0  0  0  0
 36 68  1  0  0  0  0
 36 73  1  0  0  0  0
 36 79  2  0  0  0  0
 37 40  1  0  0  0  0
 38 47  1  0  0  0  0
 39 67  1  0  0  0  0
 40 42  1  0  0  0  0
 41 43  1  0  0  0  0
 41 44  1  0  0  0  0
 42 46  1  0  0  0  0
 43 48  1  0  0  0  0
 44 68  1  0  0  0  0
 45 48  1  0  0  0  0
 45 68  1  0  0  0  0
 46 71  1  0  0  0  0
 47 67  1  0  0  0  0
 48 66  1  0  0  0  0
 49 59  1  0  0  0  0
 50 61  1  0  0  0  0
 51 62  1  0  0  0  0
 52 62  1  0  0  0  0
 53 62  1  0  0  0  0
 54 63  1  0  0  0  0
 55 63  1  0  0  0  0
 56 74  1  0  0  0  0
 57 73  1  0  0  0  0
 58 63  1  0  0  0  0
 58 81  1  0  0  0  0
 59 84  1  0  0  0  0
 60 62  1  0  0  0  0
 60 72  1  0  0  0  0
 61 74  1  0  0  0  0
 63 65  1  0  0  0  0
 64 66  1  0  0  0  0
M  CHG  1  74   1
M  ISO  4  36 100  58 101  73 100  81 101
M  END
> <Batch ID>
0108

> <Smiles>
CNC(C)C(=O)NC(C(=O)N1Cc2cc([101O:1][101CH2:1]C(C)(C)n3cc(C[100NH:0][100C:0](=O)N4CCCC(n5nc(-c6ccc(Oc7ccc(F)cc7F)cc6)c(C(N)=O)c5N)C4)c(C(C)F)c3)ccc2CC1C(=O)NC1CCCc2ccccc21)C(C)(C)C

> <Shape>
0.232

> <Color>
0.082

> <Negative vol penalty>
0.000

$$$$

  -OEChem-04052319533D

 81 89  0     1  0  0  0  0  0999 V2000
  -21.4683  -23.1965   20.0204 C   0  0  0  0  0  0  0  0  0  0  0  0
  -22.7033  -22.6117   20.2818 C   0  0  0  0  0  0  0  0  0  0  0  0
  -22.4311  -28.2035   20.9561 C   0  0  0  0  0  0  0  0  0  0  0  0
  -23.7291  -27.7817   22.9497 C   0  0  0  0  0  0  0  0  0  0  0  0
  -20.2950  -22.5364   20.3829 C   0  0  0  0  0  0  0  0  0  0  0  0
  -22.7656  -21.3669   20.9071 C   0  0  0  0  0  0  0  0  0  0  0  0
  -26.0933  -18.2503   18.7029 C   0  0  0  0  0  0  0  0  0  0  0  0
  -21.2547  -28.0443   21.6884 C   0  0  0  0  0  0  0  0  0  0  0  0
  -22.5527  -27.6225   23.6820 C   0  0  0  0  0  0  0  0  0  0  0  0
  -27.4425  -18.4537   18.9894 C   0  0  0  0  0  0  0  0  0  0  0  0
  -19.3888  -29.8745   23.8335 C   0  0  0  0  0  0  0  0  0  0  0  0
  -18.3714  -30.8083   23.6369 C   0  0  0  0  0  0  0  0  0  0  0  0
  -29.7010  -21.7589   22.6148 C   0  0  0  0  0  0  0  0  0  0  0  0
  -27.3695  -16.6474   20.5866 C   0  0  0  0  0  0  0  0  0  0  0  0
  -16.8902  -29.0421   22.9131 C   0  0  0  0  0  0  0  0  0  0  0  0
  -29.7400  -20.3989   22.8301 C   0  0  0  0  0  0  0  0  0  0  0  0
  -31.2743  -20.8731   21.2694 C   0  0  0  0  0  0  0  0  0  0  0  0
  -23.6684  -28.0722   21.5867 C   0  0  0  0  0  0  0  0  0  0  0  0
  -25.5986  -29.4302   20.6183 C   0  0  0  0  0  0  0  0  0  0  0  0
  -20.3428  -21.2784   21.0042 C   0  0  0  0  0  0  0  0  0  0  0  0
  -25.3681  -17.2494   19.3652 C   0  0  0  0  0  0  0  0  0  0  0  0
  -21.5919  -20.6899   21.2795 C   0  0  0  0  0  0  0  0  0  0  0  0
  -26.0118  -16.4317   20.3049 C   0  0  0  0  0  0  0  0  0  0  0  0
  -30.6717  -22.0589   21.6275 C   0  0  0  0  0  0  0  0  0  0  0  0
  -21.3155  -27.7538   23.0513 C   0  0  0  0  0  0  0  0  0  0  0  0
  -28.0801  -17.6541   19.9334 C   0  0  0  0  0  0  0  0  0  0  0  0
  -19.1569  -28.5245   23.5698 C   0  0  0  0  0  0  0  0  0  0  0  0
  -17.1222  -30.3921   23.1768 C   0  0  0  0  0  0  0  0  0  0  0  0
  -17.9076  -28.1084   23.1097 C   0  0  0  0  0  0  0  0  0  0  0  0
  -24.8840  -28.2360   20.8307 C   0  0  0  0  0  0  0  0  0  0  0  0
  -26.6691  -29.0565   19.8432 C   0  0  0  0  0  0  0  0  0  0  0  0
  -25.3197  -30.7585   21.0804 C   0  0  0  0  0  0  0  0  0  0  0  0
  -22.8448  -17.2139   21.2980 C   0  0  0  0  0  0  0  0  0  0  0  0
  -23.1406  -13.9987   20.9866 C   0  0  0  0  0  0  0  0  0  0  0  0
  -25.1487  -11.3275   20.2945 C   0  0  0  0  0  0  0  0  0  0  0  0
  -29.5544  -23.8618   19.1077 C   0  0  0  0  0  0  0  0  0  0  0  0
  -19.0489  -20.6248   21.4204 C   0  0  0  0  0  0  0  0  0  0  0  0
  -23.9201  -17.0252   19.0255 C   0  0  0  0  0  0  0  0  0  0  0  0
  -25.2831  -15.3302   21.0290 C   0  0  0  0  0  0  0  0  0  0  0  0
  -19.1925  -19.1391   21.7408 C   0  0  0  0  0  0  0  0  0  0  0  0
  -27.9778  -25.8115   16.5800 C   0  0  0  0  0  0  0  0  0  0  0  0
  -20.4053  -18.9006   22.6346 C   0  0  0  0  0  0  0  0  0  0  0  0
  -27.0706  -26.7617   17.3636 C   0  0  0  0  0  0  0  0  0  0  0  0
  -28.0435  -24.4307   17.2288 C   0  0  0  0  0  0  0  0  0  0  0  0
  -27.5125  -25.3841   19.4386 C   0  0  0  0  0  0  0  0  0  0  0  0
  -21.7000  -19.3296   21.9337 C   0  0  1  0  0  0  0  0  0  0  0  0
  -23.1495  -16.3143   20.1337 C   0  0  1  0  0  0  0  0  0  0  0  0
  -27.4585  -26.8059   18.8538 C   0  0  2  0  0  0  0  0  0  0  0  0
  -25.1164   -8.8220   20.1570 C   0  0  0  0  0  0  0  0  0  0  0  0
  -23.1841  -13.8334   24.0330 C   0  0  0  0  0  0  0  0  0  0  0  0
  -24.0903  -11.5088   23.8244 C   0  0  0  0  0  0  0  0  0  0  0  0
  -21.8337  -12.0525   22.9109 C   0  0  0  0  0  0  0  0  0  0  0  0
  -32.1971  -18.0785   20.9000 C   0  0  0  0  0  0  0  0  0  0  0  0
  -31.5846  -17.9069   23.3027 C   0  0  0  0  0  0  0  0  0  0  0  0
  -25.8696  -11.3599   17.4242 C   0  0  0  0  0  0  0  0  0  0  0  0
  -30.9821  -23.3947   21.0832 C   0  0  0  0  0  0  0  0  0  0  0  0
  -29.8323  -17.5346   21.5370 C   0  0  0  0  0  0  0  0  0  1  0  0
  -23.8922  -12.9177   21.7252 C   0  0  1  0  0  0  0  0  0  0  0  0
  -24.9489  -10.1246   19.3902 C   0  0  2  0  0  0  0  0  0  0  0  0
  -23.2636  -12.6000   23.1113 C   0  0  0  0  0  0  0  0  0  0  0  0
  -31.0743  -18.3792   21.9218 C   0  0  0  0  0  0  0  0  0  0  0  0
  -25.4525  -27.1826   20.2382 N   0  0  0  0  0  0  0  0  0  0  0  0
  -30.6997  -19.8708   22.0066 N   0  0  0  0  0  0  0  0  0  0  0  0
  -26.5357  -27.7135   19.6459 N   0  0  0  0  0  0  0  0  0  0  0  0
  -23.8670  -15.1544   20.6667 N   0  0  0  0  0  0  0  0  0  0  0  0
  -28.4181  -24.5426   18.6406 N   0  0  0  0  0  0  0  0  0  0  0  0
  -27.7021  -29.7489   19.3180 N   0  0  0  0  0  0  0  0  0  0  0  0
  -24.1783  -30.9664   21.8667 N   0  0  0  0  0  0  0  0  0  0  0  0
  -22.1050  -18.3328   20.9658 N   0  0  0  0  0  0  0  0  0  0  0  0
  -23.9554  -11.7741   20.8215 N   0  0  0  0  0  0  0  0  0  0  0  0
  -29.8422  -24.0266   20.4570 N   0  0  0  0  0  0  0  0  0  0  0  0
  -25.9380  -10.1444   18.2757 N   0  3  0  0  0  0  0  0  0  0  0  0
  -26.0518  -31.7350   20.7906 O   0  0  0  0  0  0  0  0  0  0  0  0
  -23.2495  -16.9143   22.4151 O   0  0  0  0  0  0  0  0  0  0  0  0
  -21.9546  -13.8211   20.6976 O   0  0  0  0  0  0  0  0  0  0  0  0
  -26.2534  -11.8193   20.5144 O   0  0  0  0  0  0  0  0  0  0  0  0
  -30.2633  -23.1633   18.3751 O   0  0  0  0  0  0  0  0  0  0  0  0
  -20.1677  -27.5986   23.7662 O   0  0  0  0  0  0  0  0  0  0  0  0
  -29.3967  -17.8510   20.2154 O   0  0  0  0  0  0  0  0  0  1  0  0
  -16.1448  -31.2887   22.9895 F   0  0  0  0  0  0  0  0  0  0  0  0
  -17.6785  -26.8127   22.8558 F   0  0  0  0  0  0  0  0  0  0  0  0
  1  2  1  0  0  0  0
  1  5  2  0  0  0  0
  2  6  2  0  0  0  0
  3  8  2  0  0  0  0
  3 18  1  0  0  0  0
  4  9  1  0  0  0  0
  4 18  2  0  0  0  0
  5 20  1  0  0  0  0
  6 22  1  0  0  0  0
  7 10  2  0  0  0  0
  7 21  1  0  0  0  0
  8 25  1  0  0  0  0
  9 25  2  0  0  0  0
 10 26  1  0  0  0  0
 11 12  2  0  0  0  0
 11 27  1  0  0  0  0
 12 28  1  0  0  0  0
 13 16  2  0  0  0  0
 13 24  1  0  0  0  0
 14 23  1  0  0  0  0
 14 26  2  0  0  0  0
 15 28  2  0  0  0  0
 15 29  1  0  0  0  0
 16 63  1  0  0  0  0
 17 24  2  0  0  0  0
 17 63  1  0  0  0  0
 18 30  1  0  0  0  0
 19 30  1  0  0  0  0
 19 31  2  0  0  0  0
 19 32  1  0  0  0  0
 20 22  2  0  0  0  0
 20 37  1  0  0  0  0
 21 23  2  0  0  0  0
 21 38  1  0  0  0  0
 22 46  1  0  0  0  0
 23 39  1  0  0  0  0
 24 56  1  0  0  0  0
 25 78  1  0  0  0  0
 26 79  1  0  0  0  0
 27 29  2  0  0  0  0
 27 78  1  0  0  0  0
 28 80  1  0  0  0  0
 29 81  1  0  0  0  0
 30 62  2  0  0  0  0
 31 64  1  0  0  0  0
 31 67  1  0  0  0  0
 32 68  1  0  0  0  0
 32 73  2  0  0  0  0
 33 47  1  0  0  0  0
 33 69  1  0  0  0  0
 33 74  2  0  0  0  0
 34 58  1  0  0  0  0
 34 65  1  0  0  0  0
 34 75  2  0  0  0  0
 35 59  1  0  0  0  0
 35 70  1  0  0  0  0
 35 76  2  0  0  0  0
 36 66  1  0  0  0  0
 36 71  1  0  0  0  0
 36 77  2  0  0  0  0
 37 40  1  0  0  0  0
 38 47  1  0  0  0  0
 39 65  1  0  0  0  0
 40 42  1  0  0  0  0
 41 43  1  0  0  0  0
 41 44  1  0  0  0  0
 42 46  1  0  0  0  0
 43 48  1  0  0  0  0
 44 66  1  0  0  0  0
 45 48  1  0  0  0  0
 45 66  1  0  0  0  0
 46 69  1  0  0  0  0
 47 65  1  0  0  0  0
 48 64  1  0  0  0  0
 49 59  1  0  0  0  0
 50 60  1  0  0  0  0
 51 60  1  0  0  0  0
 52 60  1  0  0  0  0
 53 61  1  0  0  0  0
 54 61  1  0  0  0  0
 55 72  1  0  0  0  0
 56 71  1  0  0  0  0
 57 61  1  0  0  0  0
 57 79  1  0  0  0  0
 58 60  1  0  0  0  0
 58 70  1  0  0  0  0
 59 72  1  0  0  0  0
 61 63  1  0  0  0  0
 62 64  1  0  0  0  0
M  CHG  1  72   1
M  ISO  4  36 100  57 101  71 100  79 101
M  END
> <Batch ID>
0108

> <Smiles>
CNC(C)C(=O)NC(C(=O)N1Cc2cc([101O:1][101CH2:1]C(C)(C)n3ccc(C[100NH:0][100C:0](=O)N4CCCC(n5nc(-c6ccc(Oc7ccc(F)cc7F)cc6)c(C(N)=O)c5N)C4)c3)ccc2CC1C(=O)NC1CCCc2ccccc21)C(C)(C)C

> <Shape>
0.240

> <Color>
0.072

> <Negative vol penalty>
0.000

$$$$

  -OEChem-04052319533D

 82 90  0     1  0  0  0  0  0999 V2000
  -28.0454  -10.7972   21.9390 C   0  0  0  0  0  0  0  0  0  0  0  0
  -28.6187  -11.8871   21.2918 C   0  0  0  0  0  0  0  0  0  0  0  0
  -22.8190  -28.9476   21.0422 C   0  0  0  0  0  0  0  0  0  0  0  0
  -23.9872  -28.0696   22.9661 C   0  0  0  0  0  0  0  0  0  0  0  0
  -26.6616  -10.6277   21.9238 C   0  0  0  0  0  0  0  0  0  0  0  0
  -27.8084  -12.8075   20.6279 C   0  0  0  0  0  0  0  0  0  0  0  0
  -29.1225  -17.6024   21.5912 C   0  0  0  0  0  0  0  0  0  0  0  0
  -21.6340  -28.9815   21.7772 C   0  0  0  0  0  0  0  0  0  0  0  0
  -22.8022  -28.1037   23.7012 C   0  0  0  0  0  0  0  0  0  0  0  0
  -30.2342  -18.1056   20.9170 C   0  0  0  0  0  0  0  0  0  0  0  0
  -19.2616  -26.7927   22.7796 C   0  0  0  0  0  0  0  0  0  0  0  0
  -18.1052  -26.3113   22.1660 C   0  0  0  0  0  0  0  0  0  0  0  0
  -28.7741  -19.2104   19.3464 C   0  0  0  0  0  0  0  0  0  0  0  0
  -33.8895  -23.2511   19.5239 C   0  0  0  0  0  0  0  0  0  0  0  0
  -17.0664  -28.4772   22.4246 C   0  0  0  0  0  0  0  0  0  0  0  0
  -33.7042  -21.0077   19.4714 C   0  0  0  0  0  0  0  0  0  0  0  0
  -23.9956  -28.4915   21.6366 C   0  0  0  0  0  0  0  0  0  0  0  0
  -26.1791  -29.4796   20.7628 C   0  0  0  0  0  0  0  0  0  0  0  0
  -25.8333  -11.5517   21.2675 C   0  0  0  0  0  0  0  0  0  0  0  0
  -27.8261  -17.8909   21.1409 C   0  0  0  0  0  0  0  0  0  0  0  0
  -26.4123  -12.6494   20.6027 C   0  0  0  0  0  0  0  0  0  0  0  0
  -27.6475  -18.7117   20.0182 C   0  0  0  0  0  0  0  0  0  0  0  0
  -34.2745  -22.0498   20.1686 C   0  0  0  0  0  0  0  0  0  0  0  0
  -21.6256  -28.5596   23.1067 C   0  0  0  0  0  0  0  0  0  0  0  0
  -30.0602  -18.9074   19.7927 C   0  0  0  0  0  0  0  0  0  0  0  0
  -19.3204  -28.1163   23.2159 C   0  0  0  0  0  0  0  0  0  0  0  0
  -17.0076  -27.1536   21.9884 C   0  0  0  0  0  0  0  0  0  0  0  0
  -18.2228  -28.9586   23.0383 C   0  0  0  0  0  0  0  0  0  0  0  0
  -25.2199  -28.4556   20.8777 C   0  0  0  0  0  0  0  0  0  0  0  0
  -33.0954  -22.9066   18.4524 C   0  0  0  0  0  0  0  0  0  0  0  0
  -27.1443  -28.9549   19.9384 C   0  0  0  0  0  0  0  0  0  0  0  0
  -26.1962  -30.7880   21.3489 C   0  0  0  0  0  0  0  0  0  0  0  0
  -25.3875  -16.1586   20.0658 C   0  0  0  0  0  0  0  0  0  0  0  0
  -23.8362  -19.0064   20.1439 C   0  0  0  0  0  0  0  0  0  0  0  0
  -24.0292  -22.4132   20.0862 C   0  0  0  0  0  0  0  0  0  0  0  0
  -30.4754  -24.8492   18.5266 C   0  0  0  0  0  0  0  0  0  0  0  0
  -24.3464  -11.3007   21.2381 C   0  0  0  0  0  0  0  0  0  0  0  0
  -26.6369  -17.3623   21.8950 C   0  0  0  0  0  0  0  0  0  0  0  0
  -26.2765  -19.0677   19.5062 C   0  0  0  0  0  0  0  0  0  0  0  0
  -23.5301  -12.5244   20.8301 C   0  0  0  0  0  0  0  0  0  0  0  0
  -27.1420  -24.7534   17.1207 C   0  0  0  0  0  0  0  0  0  0  0  0
  -24.1426  -13.1893   19.6015 C   0  0  0  0  0  0  0  0  0  0  0  0
  -26.4227  -25.8013   17.9720 C   0  0  0  0  0  0  0  0  0  0  0  0
  -28.1383  -23.9531   17.9544 C   0  0  0  0  0  0  0  0  0  0  0  0
  -28.4299  -25.8302   19.5245 C   0  0  0  0  0  0  0  0  0  0  0  0
  -25.5649  -13.6829   19.8927 C   0  0  1  0  0  0  0  0  0  0  0  0
  -25.3713  -17.2976   21.0456 C   0  0  1  0  0  0  0  0  0  0  0  0
  -27.4250  -26.6881   18.7344 C   0  0  2  0  0  0  0  0  0  0  0  0
  -34.5168  -22.6133   22.6135 C   0  0  0  0  0  0  0  0  0  0  0  0
  -36.5596  -22.4782   21.1426 C   0  0  0  0  0  0  0  0  0  0  0  0
  -22.5902  -24.4687   20.1267 C   0  0  0  0  0  0  0  0  0  0  0  0
  -23.0861  -18.5358   17.2240 C   0  0  0  0  0  0  0  0  0  0  0  0
  -22.5044  -20.9650   17.0545 C   0  0  0  0  0  0  0  0  0  0  0  0
  -21.2528  -19.4917   18.6310 C   0  0  0  0  0  0  0  0  0  0  0  0
  -25.2630  -23.3685   22.6010 C   0  0  0  0  0  0  0  0  0  0  0  0
  -32.4308  -23.7651   17.4502 C   0  0  0  0  0  0  0  0  0  0  0  0
  -32.2110  -20.7298   17.4229 C   0  0  0  0  0  0  0  0  0  0  0  0
  -30.8920  -20.2141   17.9882 C   0  0  0  0  0  0  0  0  0  1  0  0
  -35.1289  -21.9346   21.3658 C   0  0  0  0  0  0  0  0  0  0  0  0
  -23.6360  -20.1418   19.1693 C   0  0  1  0  0  0  0  0  0  0  0  0
  -23.3832  -23.4736   20.9596 C   0  0  2  0  0  0  0  0  0  0  0  0
  -22.6458  -19.7755   18.0280 C   0  0  0  0  0  0  0  0  0  0  0  0
  -25.5459  -27.3632   20.1819 N   0  0  0  0  0  0  0  0  0  0  0  0
  -32.9894  -21.5404   18.4304 N   0  0  0  0  0  0  0  0  0  0  0  0
  -26.7208  -27.6977   19.6217 N   0  0  0  0  0  0  0  0  0  0  0  0
  -25.1453  -18.5215   20.2740 N   0  0  0  0  0  0  0  0  0  0  0  0
  -29.0752  -24.8550   18.6391 N   0  0  0  0  0  0  0  0  0  0  0  0
  -28.3053  -29.4509   19.4606 N   0  0  0  0  0  0  0  0  0  0  0  0
  -25.1256  -31.1661   22.1705 N   0  0  0  0  0  0  0  0  0  0  0  0
  -25.5271  -14.9148   20.6513 N   0  0  0  0  0  0  0  0  0  0  0  0
  -23.2306  -21.2957   19.9647 N   0  0  0  0  0  0  0  0  0  0  0  0
  -31.0075  -23.8903   17.6733 N   0  0  0  0  0  0  0  0  0  0  0  0
  -24.4233  -24.2215   21.7211 N   0  3  0  0  0  0  0  0  0  0  0  0
  -27.1251  -31.6038   21.1366 O   0  0  0  0  0  0  0  0  0  0  0  0
  -25.2798  -16.3910   18.8674 O   0  0  0  0  0  0  0  0  0  0  0  0
  -22.8681  -18.5707   20.7719 O   0  0  0  0  0  0  0  0  0  0  0  0
  -25.1302  -22.5628   19.5611 O   0  0  0  0  0  0  0  0  0  0  0  0
  -31.1983  -25.6437   19.1376 O   0  0  0  0  0  0  0  0  0  0  0  0
  -20.4695  -28.5929   23.8242 O   0  0  0  0  0  0  0  0  0  0  0  0
  -31.1436  -19.3994   19.1324 O   0  0  0  0  0  0  0  0  0  1  0  0
  -15.8977  -26.6917   21.3977 F   0  0  0  0  0  0  0  0  0  0  0  0
  -18.2738  -30.2315   23.4542 F   0  0  0  0  0  0  0  0  0  0  0  0
  1  2  1  0  0  0  0
  1  5  2  0  0  0  0
  2  6  2  0  0  0  0
  3  8  2  0  0  0  0
  3 17  1  0  0  0  0
  4  9  1  0  0  0  0
  4 17  2  0  0  0  0
  5 19  1  0  0  0  0
  6 21  1  0  0  0  0
  7 10  2  0  0  0  0
  7 20  1  0  0  0  0
  8 24  1  0  0  0  0
  9 24  2  0  0  0  0
 10 25  1  0  0  0  0
 11 12  2  0  0  0  0
 11 26  1  0  0  0  0
 12 27  1  0  0  0  0
 13 22  1  0  0  0  0
 13 25  2  0  0  0  0
 14 23  1  0  0  0  0
 14 30  2  0  0  0  0
 15 27  2  0  0  0  0
 15 28  1  0  0  0  0
 16 23  2  0  0  0  0
 16 64  1  0  0  0  0
 17 29  1  0  0  0  0
 18 29  1  0  0  0  0
 18 31  2  0  0  0  0
 18 32  1  0  0  0  0
 19 21  2  0  0  0  0
 19 37  1  0  0  0  0
 20 22  2  0  0  0  0
 20 38  1  0  0  0  0
 21 46  1  0  0  0  0
 22 39  1  0  0  0  0
 23 59  1  0  0  0  0
 24 79  1  0  0  0  0
 25 80  1  0  0  0  0
 26 28  2  0  0  0  0
 26 79  1  0  0  0  0
 27 81  1  0  0  0  0
 28 82  1  0  0  0  0
 29 63  2  0  0  0  0
 30 56  1  0  0  0  0
 30 64  1  0  0  0  0
 31 65  1  0  0  0  0
 31 68  1  0  0  0  0
 32 69  1  0  0  0  0
 32 74  2  0  0  0  0
 33 47  1  0  0  0  0
 33 70  1  0  0  0  0
 33 75  2  0  0  0  0
 34 60  1  0  0  0  0
 34 66  1  0  0  0  0
 34 76  2  0  0  0  0
 35 61  1  0  0  0  0
 35 71  1  0  0  0  0
 35 77  2  0  0  0  0
 36 67  1  0  0  0  0
 36 72  1  0  0  0  0
 36 78  2  0  0  0  0
 37 40  1  0  0  0  0
 38 47  1  0  0  0  0
 39 66  1  0  0  0  0
 40 42  1  0  0  0  0
 41 43  1  0  0  0  0
 41 44  1  0  0  0  0
 42 46  1  0  0  0  0
 43 48  1  0  0  0  0
 44 67  1  0  0  0  0
 45 48  1  0  0  0  0
 45 67  1  0  0  0  0
 46 70  1  0  0  0  0
 47 66  1  0  0  0  0
 48 65  1  0  0  0  0
 49 59  1  0  0  0  0
 50 59  1  0  0  0  0
 51 61  1  0  0  0  0
 52 62  1  0  0  0  0
 53 62  1  0  0  0  0
 54 62  1  0  0  0  0
 55 73  1  0  0  0  0
 56 72  1  0  0  0  0
 57 58  1  0  0  0  0
 57 64  1  0  0  0  0
 58 80  1  0  0  0  0
 60 62  1  0  0  0  0
 60 71  1  0  0  0  0
 61 73  1  0  0  0  0
 63 65  1  0  0  0  0
M  CHG  1  73   1
M  ISO  4  36 100  58 101  72 100  80 101
M  END
> <Batch ID>
0108

> <Smiles>
CNC(C)C(=O)NC(C(=O)N1Cc2cc([101O:1][101CH2:1]Cn3cc(C(C)C)cc3C[100NH:0][100C:0](=O)N3CCCC(n4nc(-c5ccc(Oc6ccc(F)cc6F)cc5)c(C(N)=O)c4N)C3)ccc2CC1C(=O)NC1CCCc2ccccc21)C(C)(C)C

> <Shape>
0.249

> <Color>
0.072

> <Negative vol penalty>
0.000

$$$$

  -OEChem-04052319533D

 83 91  0     1  0  0  0  0  0999 V2000
  -25.6765  -17.0743   25.5408 C   0  0  0  0  0  0  0  0  0  0  0  0
  -26.4817  -17.9769   24.8534 C   0  0  0  0  0  0  0  0  0  0  0  0
  -26.6586  -12.2968   21.7207 C   0  0  0  0  0  0  0  0  0  0  0  0
  -25.8547  -13.7620   19.9760 C   0  0  0  0  0  0  0  0  0  0  0  0
  -24.2897  -17.2143   25.5088 C   0  0  0  0  0  0  0  0  0  0  0  0
  -25.9003  -19.0194   24.1326 C   0  0  0  0  0  0  0  0  0  0  0  0
  -28.1368  -24.6708   23.3806 C   0  0  0  0  0  0  0  0  0  0  0  0
  -25.3987  -11.7040   21.8034 C   0  0  0  0  0  0  0  0  0  0  0  0
  -24.5948  -13.1691   20.0586 C   0  0  0  0  0  0  0  0  0  0  0  0
  -28.8482  -25.2673   22.3405 C   0  0  0  0  0  0  0  0  0  0  0  0
  -22.4932   -9.5599   22.2226 C   0  0  0  0  0  0  0  0  0  0  0  0
  -22.4347   -8.1680   22.2914 C   0  0  0  0  0  0  0  0  0  0  0  0
  -26.7904  -26.1598   21.4528 C   0  0  0  0  0  0  0  0  0  0  0  0
  -29.2020  -22.0181   18.5679 C   0  0  0  0  0  0  0  0  0  0  0  0
  -30.7224  -23.5463   19.6345 C   0  0  0  0  0  0  0  0  0  0  0  0
  -23.5487   -8.0155   20.1530 C   0  0  0  0  0  0  0  0  0  0  0  0
  -26.8866  -13.3259   20.8070 C   0  0  0  0  0  0  0  0  0  0  0  0
  -29.2598  -13.5468   19.8978 C   0  0  0  0  0  0  0  0  0  0  0  0
  -23.6914  -18.2647   24.7951 C   0  0  0  0  0  0  0  0  0  0  0  0
  -26.7432  -24.8055   23.4586 C   0  0  0  0  0  0  0  0  0  0  0  0
  -24.5041  -19.1728   24.0899 C   0  0  0  0  0  0  0  0  0  0  0  0
  -26.0639  -25.5662   22.4963 C   0  0  0  0  0  0  0  0  0  0  0  0
  -30.4247  -22.2657   19.1818 C   0  0  0  0  0  0  0  0  0  0  0  0
  -24.3668  -12.1401   20.9723 C   0  0  0  0  0  0  0  0  0  0  0  0
  -28.1748  -26.0095   21.3748 C   0  0  0  0  0  0  0  0  0  0  0  0
  -23.0794  -10.1797   21.1190 C   0  0  0  0  0  0  0  0  0  0  0  0
  -22.9625   -7.3958   21.2566 C   0  0  0  0  0  0  0  0  0  0  0  0
  -23.6072   -9.4075   20.0842 C   0  0  0  0  0  0  0  0  0  0  0  0
  -28.1877  -13.9391   20.7215 C   0  0  0  0  0  0  0  0  0  0  0  0
  -28.3185  -23.0767   18.4317 C   0  0  0  0  0  0  0  0  0  0  0  0
  -29.7709  -24.5365   19.4504 C   0  0  0  0  0  0  0  0  0  0  0  0
  -30.2605  -14.4420   20.1873 C   0  0  0  0  0  0  0  0  0  0  0  0
  -29.3437  -12.4697   18.9552 C   0  0  0  0  0  0  0  0  0  0  0  0
  -24.2864  -22.7905   23.3704 C   0  0  0  0  0  0  0  0  0  0  0  0
  -22.5756  -25.4585   24.0612 C   0  0  0  0  0  0  0  0  0  0  0  0
  -22.3551  -28.8629   23.9707 C   0  0  0  0  0  0  0  0  0  0  0  0
  -31.0149  -20.0239   21.5243 C   0  0  0  0  0  0  0  0  0  0  0  0
  -22.1862  -18.3474   24.7509 C   0  0  0  0  0  0  0  0  0  0  0  0
  -25.9935  -24.1782   24.6018 C   0  0  0  0  0  0  0  0  0  0  0  0
  -24.5709  -25.7580   22.5463 C   0  0  0  0  0  0  0  0  0  0  0  0
  -21.6643  -19.6994   24.2713 C   0  0  0  0  0  0  0  0  0  0  0  0
  -31.2496  -17.4559   23.9794 C   0  0  0  0  0  0  0  0  0  0  0  0
  -22.4176  -20.1505   23.0240 C   0  0  0  0  0  0  0  0  0  0  0  0
  -30.5836  -16.2508   23.3130 C   0  0  0  0  0  0  0  0  0  0  0  0
  -30.5539  -18.7631   23.6063 C   0  0  0  0  0  0  0  0  0  0  0  0
  -29.7450  -17.7917   21.4906 C   0  0  0  0  0  0  0  0  0  0  0  0
  -23.9119  -20.3313   23.3171 C   0  0  1  0  0  0  0  0  0  0  0  0
  -24.5162  -23.9522   24.2952 C   0  0  1  0  0  0  0  0  0  0  0  0
  -30.4458  -16.4561   21.7924 C   0  0  2  0  0  0  0  0  0  0  0  0
  -26.8262  -23.6719   16.4895 C   0  0  0  0  0  0  0  0  0  0  0  0
  -25.8160  -23.1168   18.7314 C   0  0  0  0  0  0  0  0  0  0  0  0
  -30.7148  -26.7922   18.8473 C   0  0  0  0  0  0  0  0  0  0  0  0
  -20.8208  -30.7543   24.5757 C   0  0  0  0  0  0  0  0  0  0  0  0
  -20.8342  -24.8174   21.6391 C   0  0  0  0  0  0  0  0  0  0  0  0
  -19.9672  -27.1645   21.7286 C   0  0  0  0  0  0  0  0  0  0  0  0
  -19.5755  -25.6180   23.6464 C   0  0  0  0  0  0  0  0  0  0  0  0
  -24.3344  -30.0242   25.8396 C   0  0  0  0  0  0  0  0  0  0  0  0
  -31.4125  -21.1621   19.3551 C   0  0  0  0  0  0  0  0  0  0  0  0
  -26.9962  -22.8475   17.7793 C   0  0  0  0  0  0  0  0  0  0  0  0
  -30.0613  -25.9408   19.9284 C   0  0  1  0  0  0  0  0  0  1  0  0
  -21.8978  -26.5344   23.2475 C   0  0  1  0  0  0  0  0  0  0  0  0
  -21.9744  -29.8763   25.0350 C   0  0  2  0  0  0  0  0  0  0  0  0
  -20.5966  -26.0285   22.5631 C   0  0  0  0  0  0  0  0  0  0  0  0
  -28.4799  -15.0006   21.4776 N   0  0  0  0  0  0  0  0  0  0  0  0
  -28.5723  -24.3340   18.8587 N   0  0  0  0  0  0  0  0  0  0  0  0
  -29.7470  -15.2830   21.1303 N   0  0  0  0  0  0  0  0  0  0  0  0
  -23.8817  -25.1197   23.6799 N   0  0  0  0  0  0  0  0  0  0  0  0
  -30.4568  -18.8973   22.1508 N   0  0  0  0  0  0  0  0  0  0  0  0
  -31.5208  -14.5838   19.7247 N   0  0  0  0  0  0  0  0  0  0  0  0
  -28.2233  -11.6459   18.7807 N   0  0  0  0  0  0  0  0  0  0  0  0
  -24.1427  -21.5773   24.0161 N   0  0  0  0  0  0  0  0  0  0  0  0
  -21.6985  -27.6637   24.1493 N   0  0  0  0  0  0  0  0  0  0  0  0
  -30.8843  -20.0698   20.1417 N   0  0  0  0  0  0  0  0  0  0  0  0
  -23.1357  -30.7545   25.3530 N   0  3  0  0  0  0  0  0  0  0  0  0
  -30.3868  -12.2344   18.2995 O   0  0  0  0  0  0  0  0  0  0  0  0
  -24.2413  -22.9809   22.1607 O   0  0  0  0  0  0  0  0  0  0  0  0
  -21.9713  -24.9430   25.0048 O   0  0  0  0  0  0  0  0  0  0  0  0
  -23.1521  -29.1117   23.0689 O   0  0  0  0  0  0  0  0  0  0  0  0
  -31.5919  -20.9196   22.1503 O   0  0  0  0  0  0  0  0  0  0  0  0
  -23.1374  -11.5617   21.0526 O   0  0  0  0  0  0  0  0  0  0  0  0
  -28.8667  -26.5923   20.3582 O   0  0  0  0  0  0  0  0  0  1  0  0
  -22.9076   -6.0592   21.3235 F   0  0  0  0  0  0  0  0  0  0  0  0
  -24.1726   -9.9972   19.0220 F   0  0  0  0  0  0  0  0  0  0  0  0
  1  2  1  0  0  0  0
  1  5  2  0  0  0  0
  2  6  2  0  0  0  0
  3  8  2  0  0  0  0
  3 17  1  0  0  0  0
  4  9  1  0  0  0  0
  4 17  2  0  0  0  0
  5 19  1  0  0  0  0
  6 21  1  0  0  0  0
  7 10  2  0  0  0  0
  7 20  1  0  0  0  0
  8 24  1  0  0  0  0
  9 24  2  0  0  0  0
 10 25  1  0  0  0  0
 11 12  2  0  0  0  0
 11 26  1  0  0  0  0
 12 27  1  0  0  0  0
 13 22  1  0  0  0  0
 13 25  2  0  0  0  0
 14 23  1  0  0  0  0
 14 30  2  0  0  0  0
 15 23  2  0  0  0  0
 15 31  1  0  0  0  0
 16 27  2  0  0  0  0
 16 28  1  0  0  0  0
 17 29  1  0  0  0  0
 18 29  1  0  0  0  0
 18 32  2  0  0  0  0
 18 33  1  0  0  0  0
 19 21  2  0  0  0  0
 19 38  1  0  0  0  0
 20 22  2  0  0  0  0
 20 39  1  0  0  0  0
 21 47  1  0  0  0  0
 22 40  1  0  0  0  0
 23 58  1  0  0  0  0
 24 80  1  0  0  0  0
 25 81  1  0  0  0  0
 26 28  2  0  0  0  0
 26 80  1  0  0  0  0
 27 82  1  0  0  0  0
 28 83  1  0  0  0  0
 29 64  2  0  0  0  0
 30 59  1  0  0  0  0
 30 65  1  0  0  0  0
 31 60  1  0  0  0  0
 31 65  2  0  0  0  0
 32 66  1  0  0  0  0
 32 69  1  0  0  0  0
 33 70  1  0  0  0  0
 33 75  2  0  0  0  0
 34 48  1  0  0  0  0
 34 71  1  0  0  0  0
 34 76  2  0  0  0  0
 35 61  1  0  0  0  0
 35 67  1  0  0  0  0
 35 77  2  0  0  0  0
 36 62  1  0  0  0  0
 36 72  1  0  0  0  0
 36 78  2  0  0  0  0
 37 68  1  0  0  0  0
 37 73  1  0  0  0  0
 37 79  2  0  0  0  0
 38 41  1  0  0  0  0
 39 48  1  0  0  0  0
 40 67  1  0  0  0  0
 41 43  1  0  0  0  0
 42 44  1  0  0  0  0
 42 45  1  0  0  0  0
 43 47  1  0  0  0  0
 44 49  1  0  0  0  0
 45 68  1  0  0  0  0
 46 49  1  0  0  0  0
 46 68  1  0  0  0  0
 47 71  1  0  0  0  0
 48 67  1  0  0  0  0
 49 66  1  0  0  0  0
 50 59  1  0  0  0  0
 51 59  1  0  0  0  0
 52 60  1  0  0  0  0
 53 62  1  0  0  0  0
 54 63  1  0  0  0  0
 55 63  1  0  0  0  0
 56 63  1  0  0  0  0
 57 74  1  0  0  0  0
 58 73  1  0  0  0  0
 60 81  1  0  0  0  0
 61 63  1  0  0  0  0
 61 72  1  0  0  0  0
 62 74  1  0  0  0  0
 64 66  1  0  0  0  0
M  CHG  1  74   1
M  ISO  4  37 100  60 101  73 100  81 101
M  END
> <Batch ID>
0108

> <Smiles>
CNC(C)C(=O)NC(C(=O)N1Cc2cc([101O:1][101CH:1](C)c3cc(C[100NH:0][100C:0](=O)N4CCCC(n5nc(-c6ccc(Oc7ccc(F)cc7F)cc6)c(C(N)=O)c5N)C4)cc(C(C)C)n3)ccc2CC1C(=O)NC1CCCc2ccccc21)C(C)(C)C

> <Shape>
0.227

> <Color>
0.079

> <Negative vol penalty>
0.000

$$$$

  -OEChem-04052319533D

 82 90  0     1  0  0  0  0  0999 V2000
  -27.5909  -10.4981   22.0012 C   0  0  0  0  0  0  0  0  0  0  0  0
  -28.3008  -11.6723   21.7714 C   0  0  0  0  0  0  0  0  0  0  0  0
  -23.2356  -29.2456   22.1624 C   0  0  0  0  0  0  0  0  0  0  0  0
  -23.0369  -29.7869   19.8162 C   0  0  0  0  0  0  0  0  0  0  0  0
  -26.2730  -10.3841   21.5609 C   0  0  0  0  0  0  0  0  0  0  0  0
  -27.6933  -12.7328   21.1000 C   0  0  0  0  0  0  0  0  0  0  0  0
  -28.5787  -18.7105   22.0949 C   0  0  0  0  0  0  0  0  0  0  0  0
  -22.0003  -29.8460   22.4056 C   0  0  0  0  0  0  0  0  0  0  0  0
  -21.8016  -30.3873   20.0594 C   0  0  0  0  0  0  0  0  0  0  0  0
  -29.3710  -19.6610   21.4527 C   0  0  0  0  0  0  0  0  0  0  0  0
  -18.7326  -29.0583   22.0392 C   0  0  0  0  0  0  0  0  0  0  0  0
  -17.8303  -28.3771   22.8562 C   0  0  0  0  0  0  0  0  0  0  0  0
  -27.4699  -20.3473   20.1360 C   0  0  0  0  0  0  0  0  0  0  0  0
  -17.8279  -30.2340   24.4018 C   0  0  0  0  0  0  0  0  0  0  0  0
  -23.7539  -29.2161   20.8677 C   0  0  0  0  0  0  0  0  0  0  0  0
  -25.2706  -27.2495   20.2846 C   0  0  0  0  0  0  0  0  0  0  0  0
  -25.6459  -11.4473   20.8923 C   0  0  0  0  0  0  0  0  0  0  0  0
  -27.2264  -18.5636   21.7542 C   0  0  0  0  0  0  0  0  0  0  0  0
  -26.3662  -12.6324   20.6491 C   0  0  0  0  0  0  0  0  0  0  0  0
  -26.6619  -19.3959   20.7772 C   0  0  0  0  0  0  0  0  0  0  0  0
  -21.2833  -30.4169   21.3541 C   0  0  0  0  0  0  0  0  0  0  0  0
  -28.8174  -20.4776   20.4710 C   0  0  0  0  0  0  0  0  0  0  0  0
  -19.1826  -30.3273   22.4035 C   0  0  0  0  0  0  0  0  0  0  0  0
  -17.3780  -28.9649   24.0375 C   0  0  0  0  0  0  0  0  0  0  0  0
  -18.7302  -30.9152   23.5848 C   0  0  0  0  0  0  0  0  0  0  0  0
  -25.0302  -28.5965   20.6160 C   0  0  0  0  0  0  0  0  0  0  0  0
  -26.6350  -27.1676   20.1493 C   0  0  0  0  0  0  0  0  0  0  0  0
  -31.3455  -25.0426   18.8911 C   0  0  0  0  0  0  0  0  0  0  0  0
  -31.7904  -25.2520   17.6458 C   0  0  0  0  0  0  0  0  0  0  0  0
  -30.2777  -23.2591   16.9901 C   0  0  0  0  0  0  0  0  0  0  0  0
  -29.9267  -23.1889   18.2953 C   0  0  0  0  0  0  0  0  0  0  0  0
  -31.2572  -24.3392   16.5830 C   0  0  0  0  0  0  0  0  0  0  0  0
  -24.3436  -26.1691   20.1143 C   0  0  0  0  0  0  0  0  0  0  0  0
  -25.4600  -16.2131   20.5464 C   0  0  0  0  0  0  0  0  0  0  0  0
  -23.0221  -18.2735   21.1240 C   0  0  0  0  0  0  0  0  0  0  0  0
  -21.9983  -21.4984   21.5698 C   0  0  0  0  0  0  0  0  0  0  0  0
  -31.4684  -29.2090   18.2477 C   0  0  0  0  0  0  0  0  0  0  0  0
  -24.2350  -11.2600   20.3933 C   0  0  0  0  0  0  0  0  0  0  0  0
  -26.3786  -17.5517   22.4752 C   0  0  0  0  0  0  0  0  0  0  0  0
  -25.2103  -19.2920   20.3892 C   0  0  0  0  0  0  0  0  0  0  0  0
  -23.5422  -12.5680   20.0202 C   0  0  0  0  0  0  0  0  0  0  0  0
  -30.2673  -30.4766   21.3505 C   0  0  0  0  0  0  0  0  0  0  0  0
  -24.4647  -13.4377   19.1721 C   0  0  0  0  0  0  0  0  0  0  0  0
  -28.8165  -29.9948   21.4055 C   0  0  0  0  0  0  0  0  0  0  0  0
  -30.6845  -30.8500   19.9298 C   0  0  0  0  0  0  0  0  0  0  0  0
  -29.0078  -29.3160   18.9762 C   0  0  0  0  0  0  0  0  0  0  0  0
  -25.7338  -13.8140   19.9462 C   0  0  1  0  0  0  0  0  0  0  0  0
  -25.1401  -17.1388   21.6859 C   0  0  1  0  0  0  0  0  0  0  0  0
  -28.5584  -28.8749   20.3797 C   0  0  2  0  0  0  0  0  0  0  0  0
  -29.8153  -22.3577   15.8842 C   0  0  0  0  0  0  0  0  0  0  0  0
  -19.9398  -22.8720   21.9860 C   0  0  0  0  0  0  0  0  0  0  0  0
  -22.2040  -17.9276   18.2049 C   0  0  0  0  0  0  0  0  0  0  0  0
  -20.7918  -19.9827   18.4296 C   0  0  0  0  0  0  0  0  0  0  0  0
  -20.2984  -17.9738   19.8238 C   0  0  0  0  0  0  0  0  0  0  0  0
  -23.0566  -22.5173   24.1390 C   0  0  0  0  0  0  0  0  0  0  0  0
  -32.7626  -26.3165   17.2617 C   0  0  0  0  0  0  0  0  0  0  0  0
  -28.9563  -22.2088   18.8463 C   0  0  0  0  0  0  0  0  0  1  0  0
  -32.1034  -27.5009   16.5631 C   0  0  0  0  0  0  0  0  0  0  0  0
  -22.3413  -19.3705   20.3415 C   0  0  1  0  0  0  0  0  0  0  0  0
  -21.1093  -22.1367   22.6218 C   0  0  2  0  0  0  0  0  0  0  0  0
  -21.4368  -18.8145   19.2057 C   0  0  0  0  0  0  0  0  0  0  0  0
  -26.1518  -29.3182   20.6870 N   0  0  0  0  0  0  0  0  0  0  0  0
  -27.1103  -28.4214   20.3984 N   0  0  0  0  0  0  0  0  0  0  0  0
  -30.4546  -24.0649   19.2230 N   0  0  0  0  0  0  0  0  0  0  0  0
  -24.4241  -18.2831   21.1183 N   0  0  0  0  0  0  0  0  0  0  0  0
  -30.4149  -29.7448   19.0068 N   0  0  0  0  0  0  0  0  0  0  0  0
  -27.4625  -26.1460   19.8428 N   0  0  0  0  0  0  0  0  0  0  0  0
  -22.9773  -26.4271   20.2903 N   0  0  0  0  0  0  0  0  0  0  0  0
  -25.4542  -14.8747   20.8902 N   0  0  0  0  0  0  0  0  0  0  0  0
  -21.6358  -20.1918   21.3193 N   0  0  0  0  0  0  0  0  0  0  0  0
  -31.1279  -28.1599   17.4027 N   0  0  0  0  0  0  0  0  0  0  0  0
  -21.8890  -23.1102   23.4375 N   0  3  0  0  0  0  0  0  0  0  0  0
  -31.6074  -24.4701   15.4129 O   0  0  0  0  0  0  0  0  0  0  0  0
  -24.7172  -25.0056   19.8310 O   0  0  0  0  0  0  0  0  0  0  0  0
  -25.6933  -16.6786   19.4371 O   0  0  0  0  0  0  0  0  0  0  0  0
  -22.3351  -17.4431   21.7241 O   0  0  0  0  0  0  0  0  0  0  0  0
  -22.9196  -22.0999   21.0221 O   0  0  0  0  0  0  0  0  0  0  0  0
  -32.6276  -29.6307   18.3218 O   0  0  0  0  0  0  0  0  0  0  0  0
  -20.0777  -31.0026   21.5910 O   0  0  0  0  0  0  0  0  0  0  0  0
  -29.5887  -21.4058   19.8421 O   0  0  0  0  0  0  0  0  0  1  0  0
  -16.5103  -28.3113   24.8212 F   0  0  0  0  0  0  0  0  0  0  0  0
  -19.1581  -32.1346   23.9395 F   0  0  0  0  0  0  0  0  0  0  0  0
  1  2  1  0  0  0  0
  1  5  2  0  0  0  0
  2  6  2  0  0  0  0
  3  8  2  0  0  0  0
  3 15  1  0  0  0  0
  4  9  1  0  0  0  0
  4 15  2  0  0  0  0
  5 17  1  0  0  0  0
  6 19  1  0  0  0  0
  7 10  2  0  0  0  0
  7 18  1  0  0  0  0
  8 21  1  0  0  0  0
  9 21  2  0  0  0  0
 10 22  1  0  0  0  0
 11 12  2  0  0  0  0
 11 23  1  0  0  0  0
 12 24  1  0  0  0  0
 13 20  1  0  0  0  0
 13 22  2  0  0  0  0
 14 24  2  0  0  0  0
 14 25  1  0  0  0  0
 15 26  1  0  0  0  0
 16 26  1  0  0  0  0
 16 27  2  0  0  0  0
 16 33  1  0  0  0  0
 17 19  2  0  0  0  0
 17 38  1  0  0  0  0
 18 20  2  0  0  0  0
 18 39  1  0  0  0  0
 19 47  1  0  0  0  0
 20 40  1  0  0  0  0
 21 79  1  0  0  0  0
 22 80  1  0  0  0  0
 23 25  2  0  0  0  0
 23 79  1  0  0  0  0
 24 81  1  0  0  0  0
 25 82  1  0  0  0  0
 26 62  2  0  0  0  0
 27 63  1  0  0  0  0
 27 67  1  0  0  0  0
 28 29  2  0  0  0  0
 28 64  1  0  0  0  0
 29 32  1  0  0  0  0
 29 56  1  0  0  0  0
 30 31  2  0  0  0  0
 30 32  1  0  0  0  0
 30 50  1  0  0  0  0
 31 57  1  0  0  0  0
 31 64  1  0  0  0  0
 32 73  2  0  0  0  0
 33 68  1  0  0  0  0
 33 74  2  0  0  0  0
 34 48  1  0  0  0  0
 34 69  1  0  0  0  0
 34 75  2  0  0  0  0
 35 59  1  0  0  0  0
 35 65  1  0  0  0  0
 35 76  2  0  0  0  0
 36 60  1  0  0  0  0
 36 70  1  0  0  0  0
 36 77  2  0  0  0  0
 37 66  1  0  0  0  0
 37 71  1  0  0  0  0
 37 78  2  0  0  0  0
 38 41  1  0  0  0  0
 39 48  1  0  0  0  0
 40 65  1  0  0  0  0
 41 43  1  0  0  0  0
 42 44  1  0  0  0  0
 42 45  1  0  0  0  0
 43 47  1  0  0  0  0
 44 49  1  0  0  0  0
 45 66  1  0  0  0  0
 46 49  1  0  0  0  0
 46 66  1  0  0  0  0
 47 69  1  0  0  0  0
 48 65  1  0  0  0  0
 49 63  1  0  0  0  0
 51 60  1  0  0  0  0
 52 61  1  0  0  0  0
 53 61  1  0  0  0  0
 54 61  1  0  0  0  0
 55 72  1  0  0  0  0
 56 58  1  0  0  0  0
 57 80  1  0  0  0  0
 58 71  1  0  0  0  0
 59 61  1  0  0  0  0
 59 70  1  0  0  0  0
 60 72  1  0  0  0  0
 62 63  1  0  0  0  0
M  CHG  1  72   1
M  ISO  4  37 100  57 101  71 100  80 101
M  END
> <Batch ID>
0108

> <Smiles>
CNC(C)C(=O)NC(C(=O)N1Cc2cc([101O:1][101CH2:1]c3ncc(CC[100NH:0][100C:0](=O)N4CCCC(n5nc(-c6ccc(Oc7ccc(F)cc7F)cc6)c(C(N)=O)c5N)C4)c(O)c3C)ccc2CC1C(=O)NC1CCCc2ccccc21)C(C)(C)C

> <Shape>
0.218

> <Color>
0.073

> <Negative vol penalty>
0.000

$$$$

  -OEChem-04052319533D

 84 92  0     1  0  0  0  0  0999 V2000
  -29.4737  -31.3611   26.4735 C   0  0  0  0  0  0  0  0  0  0  0  0
  -29.1146  -30.2763   25.6800 C   0  0  0  0  0  0  0  0  0  0  0  0
  -24.0728  -13.2324   20.8883 C   0  0  0  0  0  0  0  0  0  0  0  0
  -26.4151  -13.6685   20.4876 C   0  0  0  0  0  0  0  0  0  0  0  0
  -28.4992  -32.2595   26.9063 C   0  0  0  0  0  0  0  0  0  0  0  0
  -27.7807  -30.0886   25.3197 C   0  0  0  0  0  0  0  0  0  0  0  0
  -27.2377  -28.9127   20.4240 C   0  0  0  0  0  0  0  0  0  0  0  0
  -24.3187  -11.8605   20.8328 C   0  0  0  0  0  0  0  0  0  0  0  0
  -26.6610  -12.2965   20.4322 C   0  0  0  0  0  0  0  0  0  0  0  0
  -27.5160  -27.5987   20.0501 C   0  0  0  0  0  0  0  0  0  0  0  0
  -24.8091   -9.5126   18.4514 C   0  0  0  0  0  0  0  0  0  0  0  0
  -23.9280   -8.7265   17.7088 C   0  0  0  0  0  0  0  0  0  0  0  0
  -25.1547  -27.1052   20.0495 C   0  0  0  0  0  0  0  0  0  0  0  0
  -23.3859   -7.4596   19.6933 C   0  0  0  0  0  0  0  0  0  0  0  0
  -25.1210  -14.1364   20.7156 C   0  0  0  0  0  0  0  0  0  0  0  0
  -24.9088  -16.3798   21.9114 C   0  0  0  0  0  0  0  0  0  0  0  0
  -27.1541  -32.0882   26.5431 C   0  0  0  0  0  0  0  0  0  0  0  0
  -25.9142  -29.3306   20.6244 C   0  0  0  0  0  0  0  0  0  0  0  0
  -26.7872  -30.9848   25.7491 C   0  0  0  0  0  0  0  0  0  0  0  0
  -24.8621  -28.4257   20.4234 C   0  0  0  0  0  0  0  0  0  0  0  0
  -28.0150  -22.4881   19.7266 C   0  0  0  0  0  0  0  0  0  0  0  0
  -28.2020  -23.6231   18.8997 C   0  0  0  0  0  0  0  0  0  0  0  0
  -25.6128  -11.3926   20.6048 C   0  0  0  0  0  0  0  0  0  0  0  0
  -26.4746  -26.6940   19.8656 C   0  0  0  0  0  0  0  0  0  0  0  0
  -24.9786   -9.2722   19.8149 C   0  0  0  0  0  0  0  0  0  0  0  0
  -23.2164   -7.7001   18.3298 C   0  0  0  0  0  0  0  0  0  0  0  0
  -24.2670   -8.2457   20.4359 C   0  0  0  0  0  0  0  0  0  0  0  0
  -24.8675  -15.5536   20.7722 C   0  0  0  0  0  0  0  0  0  0  0  0
  -28.1801  -21.3719   18.9366 C   0  0  0  0  0  0  0  0  0  0  0  0
  -28.4755  -23.1660   17.6294 C   0  0  0  0  0  0  0  0  0  0  0  0
  -24.5959  -17.6312   21.4395 C   0  0  0  0  0  0  0  0  0  0  0  0
  -25.2036  -16.0459   23.2742 C   0  0  0  0  0  0  0  0  0  0  0  0
  -24.2665  -30.4522   23.1004 C   0  0  0  0  0  0  0  0  0  0  0  0
  -21.9431  -30.8557   20.8731 C   0  0  0  0  0  0  0  0  0  0  0  0
  -20.6233  -29.9349   17.8636 C   0  0  0  0  0  0  0  0  0  0  0  0
  -25.1047  -20.2038   16.0567 C   0  0  0  0  0  0  0  0  0  0  0  0
  -26.1295  -33.0590   27.0743 C   0  0  0  0  0  0  0  0  0  0  0  0
  -25.6292  -30.7585   21.0015 C   0  0  0  0  0  0  0  0  0  0  0  0
  -23.4227  -28.8298   20.6060 C   0  0  0  0  0  0  0  0  0  0  0  0
  -24.7937  -32.9983   26.3379 C   0  0  0  0  0  0  0  0  0  0  0  0
  -22.1282  -19.8164   17.9717 C   0  0  0  0  0  0  0  0  0  0  0  0
  -24.3467  -31.5506   26.1614 C   0  0  0  0  0  0  0  0  0  0  0  0
  -22.4964  -18.7545   19.0093 C   0  0  0  0  0  0  0  0  0  0  0  0
  -22.7864  -19.5387   16.6220 C   0  0  0  0  0  0  0  0  0  0  0  0
  -24.6179  -18.2988   17.7091 C   0  0  0  0  0  0  0  0  0  0  0  0
  -25.3543  -30.7613   25.3168 C   0  0  1  0  0  0  0  0  0  0  0  0
  -24.2740  -30.9385   21.6788 C   0  0  1  0  0  0  0  0  0  0  0  0
  -24.0227  -18.5667   19.1021 C   0  0  2  0  0  0  0  0  0  0  0  0
  -27.7021  -22.4969   21.1705 C   0  0  0  0  0  0  0  0  0  0  0  0
  -28.0962  -19.9374   19.2848 C   0  0  0  0  0  0  0  0  0  0  0  0
  -28.7484  -23.9160   16.3846 C   0  0  0  0  0  0  0  0  0  0  0  0
  -18.6987  -30.4156   16.3267 C   0  0  0  0  0  0  0  0  0  0  0  0
  -20.0901  -29.2606   22.6985 C   0  0  0  0  0  0  0  0  0  0  0  0
  -18.5441  -28.9618   20.7521 C   0  0  0  0  0  0  0  0  0  0  0  0
  -19.0295  -31.2506   21.6172 C   0  0  0  0  0  0  0  0  0  0  0  0
  -22.4283  -30.8162   15.6900 C   0  0  0  0  0  0  0  0  0  0  0  0
  -28.1153  -25.0593   19.3253 C   0  0  0  0  0  0  0  0  0  1  0  0
  -28.6985  -20.9299   16.5283 C   0  0  0  0  0  0  0  0  0  0  0  0
  -27.7879  -20.1678   14.2257 C   0  0  0  0  0  0  0  0  0  0  0  0
  -20.8178  -30.0048   20.3358 C   0  0  1  0  0  0  0  0  0  0  0  0
  -20.1373  -30.7564   16.6831 C   0  0  2  0  0  0  0  0  0  0  0  0
  -27.4795  -20.7634   15.6026 C   0  0  1  0  0  0  0  0  0  0  0  0
  -19.6475  -29.8610   21.3493 C   0  0  0  0  0  0  0  0  0  0  0  0
  -24.5531  -16.2237   19.6604 N   0  0  0  0  0  0  0  0  0  0  0  0
  -28.4593  -21.7960   17.6637 N   0  0  0  0  0  0  0  0  0  0  0  0
  -24.3939  -17.4842   20.0987 N   0  0  0  0  0  0  0  0  0  0  0  0
  -23.1957  -30.2352   20.9812 N   0  0  0  0  0  0  0  0  0  0  0  0
  -24.2332  -19.3723   16.7793 N   0  0  0  0  0  0  0  0  0  0  0  0
  -24.4767  -18.8319   22.0448 N   0  0  0  0  0  0  0  0  0  0  0  0
  -25.5042  -14.7128   23.5855 N   0  0  0  0  0  0  0  0  0  0  0  0
  -25.1936  -31.0760   23.9133 N   0  0  0  0  0  0  0  0  0  0  0  0
  -20.4331  -30.5959   19.0587 N   0  0  0  0  0  0  0  0  0  0  0  0
  -26.4602  -19.9838   16.2690 N   0  0  0  0  0  0  0  0  0  0  0  0
  -28.3909  -18.8177   14.3443 N   0  3  0  0  0  0  0  0  0  0  0  0
  -20.9906  -30.5014   15.4882 N   0  3  0  0  0  0  0  0  0  0  0  0
  -25.1844  -16.9012   24.1915 O   0  0  0  0  0  0  0  0  0  0  0  0
  -23.4770  -29.5770   23.4354 O   0  0  0  0  0  0  0  0  0  0  0  0
  -21.7205  -32.0299   21.1787 O   0  0  0  0  0  0  0  0  0  0  0  0
  -21.1185  -28.8171   17.7384 O   0  0  0  0  0  0  0  0  0  0  0  0
  -24.7044  -21.0811   15.2840 O   0  0  0  0  0  0  0  0  0  0  0  0
  -25.8531  -10.0540   20.5509 O   0  0  0  0  0  0  0  0  0  0  0  0
  -26.7435  -25.4107   19.5013 O   0  0  0  0  0  0  0  0  0  1  0  0
  -22.3692   -6.9463   17.6169 F   0  0  0  0  0  0  0  0  0  0  0  0
  -24.4248   -8.0107   21.7457 F   0  0  0  0  0  0  0  0  0  0  0  0
  1  2  1  0  0  0  0
  1  5  2  0  0  0  0
  2  6  2  0  0  0  0
  3  8  2  0  0  0  0
  3 15  1  0  0  0  0
  4  9  1  0  0  0  0
  4 15  2  0  0  0  0
  5 17  1  0  0  0  0
  6 19  1  0  0  0  0
  7 10  2  0  0  0  0
  7 18  1  0  0  0  0
  8 23  1  0  0  0  0
  9 23  2  0  0  0  0
 10 24  1  0  0  0  0
 11 12  2  0  0  0  0
 11 25  1  0  0  0  0
 12 26  1  0  0  0  0
 13 20  1  0  0  0  0
 13 24  2  0  0  0  0
 14 26  2  0  0  0  0
 14 27  1  0  0  0  0
 15 28  1  0  0  0  0
 16 28  1  0  0  0  0
 16 31  2  0  0  0  0
 16 32  1  0  0  0  0
 17 19  2  0  0  0  0
 17 37  1  0  0  0  0
 18 20  2  0  0  0  0
 18 38  1  0  0  0  0
 19 46  1  0  0  0  0
 20 39  1  0  0  0  0
 21 22  1  0  0  0  0
 21 29  2  0  0  0  0
 21 49  1  0  0  0  0
 22 30  2  0  0  0  0
 22 57  1  0  0  0  0
 23 81  1  0  0  0  0
 24 82  1  0  0  0  0
 25 27  2  0  0  0  0
 25 81  1  0  0  0  0
 26 83  1  0  0  0  0
 27 84  1  0  0  0  0
 28 64  2  0  0  0  0
 29 50  1  0  0  0  0
 29 65  1  0  0  0  0
 30 51  1  0  0  0  0
 30 65  1  0  0  0  0
 31 66  1  0  0  0  0
 31 69  1  0  0  0  0
 32 70  1  0  0  0  0
 32 76  2  0  0  0  0
 33 47  1  0  0  0  0
 33 71  1  0  0  0  0
 33 77  2  0  0  0  0
 34 60  1  0  0  0  0
 34 67  1  0  0  0  0
 34 78  2  0  0  0  0
 35 61  1  0  0  0  0
 35 72  1  0  0  0  0
 35 79  2  0  0  0  0
 36 68  1  0  0  0  0
 36 73  1  0  0  0  0
 36 80  2  0  0  0  0
 37 40  1  0  0  0  0
 38 47  1  0  0  0  0
 39 67  1  0  0  0  0
 40 42  1  0  0  0  0
 41 43  1  0  0  0  0
 41 44  1  0  0  0  0
 42 46  1  0  0  0  0
 43 48  1  0  0  0  0
 44 68  1  0  0  0  0
 45 48  1  0  0  0  0
 45 68  1  0  0  0  0
 46 71  1  0  0  0  0
 47 67  1  0  0  0  0
 48 66  1  0  0  0  0
 52 61  1  0  0  0  0
 53 63  1  0  0  0  0
 54 63  1  0  0  0  0
 55 63  1  0  0  0  0
 56 75  1  0  0  0  0
 57 82  1  0  0  0  0
 58 62  1  0  0  0  0
 58 65  1  0  0  0  0
 59 62  1  0  0  0  0
 59 74  1  0  0  0  0
 60 63  1  0  0  0  0
 60 72  1  0  0  0  0
 61 75  1  0  0  0  0
 62 73  1  0  0  0  0
 64 66  1  0  0  0  0
M  CHG  2  74   1  75   1
M  ISO  4  36 100  57 101  73 100  82 101
M  END
> <Batch ID>
0108

> <Smiles>
CNC(C)C(=O)NC(C(=O)N1Cc2cc([101O:1][101CH2:1]c3c(C)c(C)n(CC(CN)[100NH:0][100C:0](=O)N4CCCC(n5nc(-c6ccc(Oc7ccc(F)cc7F)cc6)c(C(N)=O)c5N)C4)c3C)ccc2CC1C(=O)NC1CCCc2ccccc21)C(C)(C)C

> <Shape>
0.216

> <Color>
0.066

> <Negative vol penalty>
0.000

$$$$

  -OEChem-04052319533D

 87 94  0     1  0  0  0  0  0999 V2000
  -25.8902  -30.7396   22.9229 C   0  0  0  0  0  0  0  0  0  0  0  0
  -26.0158  -29.5890   23.6948 C   0  0  0  0  0  0  0  0  0  0  0  0
  -21.1444  -22.4437   21.8903 C   0  0  0  0  0  0  0  0  0  0  0  0
  -22.9450  -22.3388   20.2829 C   0  0  0  0  0  0  0  0  0  0  0  0
  -25.8766  -30.6464   21.5318 C   0  0  0  0  0  0  0  0  0  0  0  0
  -26.1267  -28.3443   23.0759 C   0  0  0  0  0  0  0  0  0  0  0  0
  -29.2216  -21.9406   23.9307 C   0  0  0  0  0  0  0  0  0  0  0  0
  -21.5640  -23.7163   22.2774 C   0  0  0  0  0  0  0  0  0  0  0  0
  -23.3647  -23.6115   20.6700 C   0  0  0  0  0  0  0  0  0  0  0  0
  -28.9024  -20.5835   23.9462 C   0  0  0  0  0  0  0  0  0  0  0  0
  -21.3133  -26.8822   21.1166 C   0  0  0  0  0  0  0  0  0  0  0  0
  -20.3381  -27.8675   21.2702 C   0  0  0  0  0  0  0  0  0  0  0  0
  -28.9465  -20.5517   21.5345 C   0  0  0  0  0  0  0  0  0  0  0  0
  -20.9671  -28.1288   23.5882 C   0  0  0  0  0  0  0  0  0  0  0  0
  -21.8349  -21.7549   20.8931 C   0  0  0  0  0  0  0  0  0  0  0  0
  -20.4791  -20.1205   19.4795 C   0  0  0  0  0  0  0  0  0  0  0  0
  -25.9971  -29.4009   20.8955 C   0  0  0  0  0  0  0  0  0  0  0  0
  -29.3952  -22.6171   22.7147 C   0  0  0  0  0  0  0  0  0  0  0  0
  -26.1133  -28.2342   21.6751 C   0  0  0  0  0  0  0  0  0  0  0  0
  -29.2704  -21.9168   21.5063 C   0  0  0  0  0  0  0  0  0  0  0  0
  -22.6741  -24.3003   21.6672 C   0  0  0  0  0  0  0  0  0  0  0  0
  -28.7619  -19.8895   22.7480 C   0  0  0  0  0  0  0  0  0  0  0  0
  -22.1154  -26.5201   22.1989 C   0  0  0  0  0  0  0  0  0  0  0  0
  -20.1650  -28.4909   22.5060 C   0  0  0  0  0  0  0  0  0  0  0  0
  -21.9424  -27.1434   23.4346 C   0  0  0  0  0  0  0  0  0  0  0  0
  -21.4023  -20.4400   20.4932 C   0  0  0  0  0  0  0  0  0  0  0  0
  -20.4137  -18.7487   19.4946 C   0  0  0  0  0  0  0  0  0  0  0  0
  -19.7462  -20.9864   18.6027 C   0  0  0  0  0  0  0  0  0  0  0  0
  -27.9416  -25.0485   21.2730 C   0  0  0  0  0  0  0  0  0  0  0  0
  -30.3519  -24.7105   19.1286 C   0  0  0  0  0  0  0  0  0  0  0  0
  -27.9410  -16.4623   21.6770 C   0  0  0  0  0  0  0  0  0  0  0  0
  -32.7117  -22.6892   17.7170 C   0  0  0  0  0  0  0  0  0  0  0  0
  -30.9729  -14.3460   19.6529 C   0  0  0  0  0  0  0  0  0  0  0  0
  -24.2411  -14.5036   21.2783 C   0  0  0  0  0  0  0  0  0  0  0  0
  -25.9296  -29.3455   19.3898 C   0  0  0  0  0  0  0  0  0  0  0  0
  -29.7656  -24.0749   22.7155 C   0  0  0  0  0  0  0  0  0  0  0  0
  -29.4666  -22.5921   20.1744 C   0  0  0  0  0  0  0  0  0  0  0  0
  -26.4288  -28.0263   18.8059 C   0  0  0  0  0  0  0  0  0  0  0  0
  -20.9122  -15.0083   22.4360 C   0  0  0  0  0  0  0  0  0  0  0  0
  -25.8339  -26.8462   19.5677 C   0  0  0  0  0  0  0  0  0  0  0  0
  -20.5770  -16.4288   21.9779 C   0  0  0  0  0  0  0  0  0  0  0  0
  -22.3735  -14.8824   22.8610 C   0  0  0  0  0  0  0  0  0  0  0  0
  -23.0171  -16.7584   21.3980 C   0  0  0  0  0  0  0  0  0  0  0  0
  -26.2609  -26.8684   21.0403 C   0  0  1  0  0  0  0  0  0  0  0  0
  -29.4138  -24.7815   21.4099 C   0  0  1  0  0  0  0  0  0  0  0  0
  -21.5685  -16.9210   20.9065 C   0  0  2  0  0  0  0  0  0  0  0  0
  -30.3646  -12.0331   21.8600 C   0  0  0  0  0  0  0  0  0  0  0  0
  -34.5068  -22.6836   15.9635 C   0  0  0  0  0  0  0  0  0  0  0  0
  -32.2131  -14.6808   17.4944 C   0  0  0  0  0  0  0  0  0  0  0  0
  -28.2148  -12.1082   19.6162 C   0  0  0  0  0  0  0  0  0  0  0  0
  -28.2217  -24.5251   16.9520 C   0  0  0  0  0  0  0  0  0  0  0  0
  -29.9672  -23.5885   15.4208 C   0  0  0  0  0  0  0  0  0  0  0  0
  -30.2231  -25.8937   16.3390 C   0  0  0  0  0  0  0  0  0  0  0  0
  -34.8186  -22.1007   19.7104 C   0  0  0  0  0  0  0  0  0  0  0  0
  -28.3212  -17.9163   21.4958 C   0  0  0  0  0  0  0  0  0  1  0  0
  -29.9169  -13.4450   21.6899 C   0  0  0  0  0  0  0  0  0  0  0  0
  -26.0831  -14.2727   19.6312 C   0  0  0  0  0  0  0  0  0  0  0  0
  -30.5555  -23.9070   17.8669 C   0  0  1  0  0  0  0  0  0  0  0  0
  -34.1867  -22.9088   17.4330 C   0  0  2  0  0  0  0  0  0  0  0  0
  -30.8526  -14.6983   18.1757 C   0  0  2  0  0  0  0  0  0  0  0  0
  -28.5389  -13.6003   19.6574 C   0  0  1  0  0  0  0  0  0  0  0  0
  -27.4302  -14.4219   20.3497 C   0  0  1  0  0  0  0  0  0  0  0  0
  -29.7362  -24.4660   16.6696 C   0  0  0  0  0  0  0  0  0  0  0  0
  -21.8883  -19.3582   21.1075 N   0  0  0  0  0  0  0  0  0  0  0  0
  -21.2682  -18.3456   20.4782 N   0  0  0  0  0  0  0  0  0  0  0  0
  -29.8215  -24.0200   20.2275 N   0  0  0  0  0  0  0  0  0  0  0  0
  -23.2615  -15.3644   21.8003 N   0  0  0  0  0  0  0  0  0  0  0  0
  -19.7092  -17.8599   18.7623 N   0  0  0  0  0  0  0  0  0  0  0  0
  -19.9320  -22.3705   18.7217 N   0  0  0  0  0  0  0  0  0  0  0  0
  -27.6192  -26.3890   21.1800 N   0  0  0  0  0  0  0  0  0  0  0  0
  -31.9957  -23.8650   17.6377 N   0  0  0  0  0  0  0  0  0  0  0  0
  -27.7921  -15.8162   20.4598 N   0  0  0  0  0  0  0  0  0  0  0  0
  -25.0362  -15.0375   20.2715 N   0  0  0  0  0  0  0  0  0  0  0  0
  -29.8308  -13.8050   20.2724 N   0  0  0  0  0  0  0  0  0  0  0  0
  -30.2872  -16.0753   18.0262 N   0  3  0  0  0  0  0  0  0  0  0  0
  -35.0153  -21.9721   18.2435 N   0  3  0  0  0  0  0  0  0  0  0  0
  -18.9378  -20.5465   17.7504 O   0  0  0  0  0  0  0  0  0  0  0  0
  -27.1563  -24.1080   21.2517 O   0  0  0  0  0  0  0  0  0  0  0  0
  -30.6591  -25.9052   19.1409 O   0  0  0  0  0  0  0  0  0  0  0  0
  -27.7890  -15.9479   22.7817 O   0  0  0  0  0  0  0  0  0  0  0  0
  -32.2411  -21.5845   17.9791 O   0  0  0  0  0  0  0  0  0  0  0  0
  -32.0443  -14.5339   20.2391 O   0  0  0  0  0  0  0  0  0  0  0  0
  -24.3922  -13.3435   21.6760 O   0  0  0  0  0  0  0  0  0  0  0  0
  -23.0838  -25.5422   22.0446 O   0  0  0  0  0  0  0  0  0  0  0  0
  -28.4498  -18.5651   22.7603 O   0  0  0  0  0  0  0  0  0  1  0  0
  -19.2295  -29.4382   22.6529 F   0  0  0  0  0  0  0  0  0  0  0  0
  -22.7107  -26.8006   24.4776 F   0  0  0  0  0  0  0  0  0  0  0  0
  1  2  1  0  0  0  0
  1  5  2  0  0  0  0
  2  6  2  0  0  0  0
  3  8  2  0  0  0  0
  3 15  1  0  0  0  0
  4  9  1  0  0  0  0
  4 15  2  0  0  0  0
  5 17  1  0  0  0  0
  6 19  1  0  0  0  0
  7 10  2  0  0  0  0
  7 18  1  0  0  0  0
  8 21  1  0  0  0  0
  9 21  2  0  0  0  0
 10 22  1  0  0  0  0
 11 12  2  0  0  0  0
 11 23  1  0  0  0  0
 12 24  1  0  0  0  0
 13 20  1  0  0  0  0
 13 22  2  0  0  0  0
 14 24  2  0  0  0  0
 14 25  1  0  0  0  0
 15 26  1  0  0  0  0
 16 26  1  0  0  0  0
 16 27  2  0  0  0  0
 16 28  1  0  0  0  0
 17 19  2  0  0  0  0
 17 35  1  0  0  0  0
 18 20  2  0  0  0  0
 18 36  1  0  0  0  0
 19 44  1  0  0  0  0
 20 37  1  0  0  0  0
 21 84  1  0  0  0  0
 22 85  1  0  0  0  0
 23 25  2  0  0  0  0
 23 84  1  0  0  0  0
 24 86  1  0  0  0  0
 25 87  1  0  0  0  0
 26 64  2  0  0  0  0
 27 65  1  0  0  0  0
 27 68  1  0  0  0  0
 28 69  1  0  0  0  0
 28 77  2  0  0  0  0
 29 45  1  0  0  0  0
 29 70  1  0  0  0  0
 29 78  2  0  0  0  0
 30 58  1  0  0  0  0
 30 66  1  0  0  0  0
 30 79  2  0  0  0  0
 31 55  1  0  0  0  0
 31 72  1  0  0  0  0
 31 80  2  0  0  0  0
 32 59  1  0  0  0  0
 32 71  1  0  0  0  0
 32 81  2  0  0  0  0
 33 60  1  0  0  0  0
 33 74  1  0  0  0  0
 33 82  2  0  0  0  0
 34 67  1  0  0  0  0
 34 73  1  0  0  0  0
 34 83  2  0  0  0  0
 35 38  1  0  0  0  0
 36 45  1  0  0  0  0
 37 66  1  0  0  0  0
 38 40  1  0  0  0  0
 39 41  1  0  0  0  0
 39 42  1  0  0  0  0
 40 44  1  0  0  0  0
 41 46  1  0  0  0  0
 42 67  1  0  0  0  0
 43 46  1  0  0  0  0
 43 67  1  0  0  0  0
 44 70  1  0  0  0  0
 45 66  1  0  0  0  0
 46 65  1  0  0  0  0
 47 56  1  0  0  0  0
 48 59  1  0  0  0  0
 49 60  1  0  0  0  0
 50 61  1  0  0  0  0
 51 63  1  0  0  0  0
 52 63  1  0  0  0  0
 53 63  1  0  0  0  0
 54 76  1  0  0  0  0
 55 85  1  0  0  0  0
 56 74  1  0  0  0  0
 57 62  1  0  0  0  0
 57 73  1  0  0  0  0
 58 63  1  0  0  0  0
 58 71  1  0  0  0  0
 59 76  1  0  0  0  0
 60 75  1  0  0  0  0
 61 62  1  0  0  0  0
 61 74  1  0  0  0  0
 62 72  1  0  0  0  0
 64 65  1  0  0  0  0
M  CHG  2  75   1  76   1
M  ISO  4  34 100  55 101  73 100  85 101
M  END
> <Batch ID>
0108

> <Smiles>
CCN(C(=O)C(C)N)C(C)C(C[100NH:0][100C:0](=O)N1CCCC(n2nc(-c3ccc(Oc4ccc(F)cc4F)cc3)c(C(N)=O)c2N)C1)NC(=O)[101CH2:1][101O:1]c1ccc2c(c1)CN(C(=O)C(NC(=O)C(C)NC)C(C)(C)C)C(C(=O)NC1CCCc3ccccc31)C2

> <Shape>
0.207

> <Color>
0.062

> <Negative vol penalty>
0.000

$$$$

  -OEChem-04052319533D

 80 88  0     1  0  0  0  0  0999 V2000
  -27.7091  -33.7517   26.3042 C   0  0  0  0  0  0  0  0  0  0  0  0
  -27.9391  -32.5683   25.6100 C   0  0  0  0  0  0  0  0  0  0  0  0
  -29.7725  -26.5185   16.5733 C   0  0  0  0  0  0  0  0  0  0  0  0
  -21.6196  -17.9741   20.4162 C   0  0  0  0  0  0  0  0  0  0  0  0
  -24.0131  -17.6486   20.3656 C   0  0  0  0  0  0  0  0  0  0  0  0
  -26.4082  -34.1126   26.6527 C   0  0  0  0  0  0  0  0  0  0  0  0
  -26.8683  -31.7445   25.2647 C   0  0  0  0  0  0  0  0  0  0  0  0
  -27.1614  -30.0756   20.4925 C   0  0  0  0  0  0  0  0  0  0  0  0
  -21.4338  -16.5945   20.5041 C   0  0  0  0  0  0  0  0  0  0  0  0
  -23.8273  -16.2689   20.4535 C   0  0  0  0  0  0  0  0  0  0  0  0
  -28.0422  -29.0252   20.2383 C   0  0  0  0  0  0  0  0  0  0  0  0
  -23.1198  -14.0006   22.8565 C   0  0  0  0  0  0  0  0  0  0  0  0
  -23.9243  -13.2956   23.7516 C   0  0  0  0  0  0  0  0  0  0  0  0
  -28.4966  -26.0958   16.1254 C   0  0  0  0  0  0  0  0  0  0  0  0
  -26.1946  -27.4747   20.2760 C   0  0  0  0  0  0  0  0  0  0  0  0
  -24.8006  -11.9779   21.9260 C   0  0  0  0  0  0  0  0  0  0  0  0
  -30.0902  -25.7644   17.6813 C   0  0  0  0  0  0  0  0  0  0  0  0
  -22.9093  -18.5011   20.3469 C   0  0  0  0  0  0  0  0  0  0  0  0
  -23.2481  -20.8343   21.3213 C   0  0  0  0  0  0  0  0  0  0  0  0
  -25.3200  -33.2976   26.3030 C   0  0  0  0  0  0  0  0  0  0  0  0
  -25.7897  -29.8316   20.6515 C   0  0  0  0  0  0  0  0  0  0  0  0
  -25.5518  -32.0941   25.6099 C   0  0  0  0  0  0  0  0  0  0  0  0
  -25.2981  -28.5240   20.5297 C   0  0  0  0  0  0  0  0  0  0  0  0
  -22.5377  -15.7419   20.5227 C   0  0  0  0  0  0  0  0  0  0  0  0
  -27.5593  -27.7241   20.1329 C   0  0  0  0  0  0  0  0  0  0  0  0
  -23.1555  -13.6942   21.4962 C   0  0  0  0  0  0  0  0  0  0  0  0
  -24.7648  -12.2842   23.2864 C   0  0  0  0  0  0  0  0  0  0  0  0
  -23.9960  -12.6829   21.0309 C   0  0  0  0  0  0  0  0  0  0  0  0
  -23.1018  -19.9262   20.2556 C   0  0  0  0  0  0  0  0  0  0  0  0
  -28.0733  -25.0964   16.9736 C   0  0  0  0  0  0  0  0  0  0  0  0
  -23.4022  -22.0559   20.7128 C   0  0  0  0  0  0  0  0  0  0  0  0
  -23.2450  -20.5949   22.7350 C   0  0  0  0  0  0  0  0  0  0  0  0
  -23.6998  -30.2284   23.0134 C   0  0  0  0  0  0  0  0  0  0  0  0
  -21.5618  -29.3101   20.7533 C   0  0  0  0  0  0  0  0  0  0  0  0
  -20.9666  -27.6440   17.8350 C   0  0  0  0  0  0  0  0  0  0  0  0
  -25.8178  -24.4599   16.0495 C   0  0  0  0  0  0  0  0  0  0  0  0
  -23.9364  -33.7059   26.7428 C   0  0  0  0  0  0  0  0  0  0  0  0
  -24.8492  -30.9790   20.8988 C   0  0  0  0  0  0  0  0  0  0  0  0
  -23.8316  -28.2117   20.6720 C   0  0  0  0  0  0  0  0  0  0  0  0
  -22.8209  -32.9634   26.0115 C   0  0  0  0  0  0  0  0  0  0  0  0
  -22.3092  -23.8879   16.2482 C   0  0  0  0  0  0  0  0  0  0  0  0
  -23.1171  -31.4678   25.9640 C   0  0  0  0  0  0  0  0  0  0  0  0
  -22.1684  -22.8968   17.4058 C   0  0  0  0  0  0  0  0  0  0  0  0
  -23.5653  -23.6194   15.4213 C   0  0  0  0  0  0  0  0  0  0  0  0
  -24.6724  -22.5592   17.3499 C   0  0  0  0  0  0  0  0  0  0  0  0
  -24.4140  -31.1863   25.1958 C   0  0  1  0  0  0  0  0  0  0  0  0
  -23.5405  -30.5483   21.5540 C   0  0  1  0  0  0  0  0  0  0  0  0
  -23.4561  -22.8301   18.2503 C   0  0  2  0  0  0  0  0  0  0  0  0
  -19.1129  -27.0358   16.2567 C   0  0  0  0  0  0  0  0  0  0  0  0
  -29.8990  -25.5981   21.4202 C   0  0  0  0  0  0  0  0  0  0  0  0
  -20.5998  -27.1753   22.7096 C   0  0  0  0  0  0  0  0  0  0  0  0
  -19.4650  -26.0304   20.7939 C   0  0  0  0  0  0  0  0  0  0  0  0
  -18.7760  -28.3358   21.4521 C   0  0  0  0  0  0  0  0  0  0  0  0
  -22.2381  -29.1027   15.5957 C   0  0  0  0  0  0  0  0  0  0  0  0
  -28.0927  -24.3259   20.2066 C   0  0  0  0  0  0  0  0  0  0  0  0
  -29.0069  -23.9068   19.0462 C   0  0  0  0  0  0  0  0  0  0  0  0
  -20.9952  -27.9892   20.2915 C   0  0  1  0  0  0  0  0  0  0  0  0
  -20.2039  -28.0432   16.5847 C   0  0  2  0  0  0  0  0  0  0  0  0
  -28.4834  -25.6571   20.8604 C   0  0  2  0  0  0  0  0  0  1  0  0
  -19.9870  -27.3880   21.3110 C   0  0  0  0  0  0  0  0  0  0  0  0
  -23.1578  -20.5202   19.0606 N   0  0  0  0  0  0  0  0  0  0  0  0
  -29.0499  -24.9035   17.9156 N   0  0  0  0  0  0  0  0  0  0  0  0
  -23.3409  -21.8147   19.3718 N   0  0  0  0  0  0  0  0  0  0  0  0
  -22.9528  -29.3667   20.9195 N   0  0  0  0  0  0  0  0  0  0  0  0
  -24.7456  -23.5741   16.2872 N   0  0  0  0  0  0  0  0  0  0  0  0
  -23.5827  -23.3021   21.1993 N   0  0  0  0  0  0  0  0  0  0  0  0
  -23.0751  -19.2801   23.1896 N   0  0  0  0  0  0  0  0  0  0  0  0
  -26.8708  -24.3471   16.9568 N   0  0  0  0  0  0  0  0  0  0  0  0
  -24.1866  -31.2776   23.7695 N   0  0  0  0  0  0  0  0  0  0  0  0
  -20.4345  -28.2267   18.9658 N   0  0  0  0  0  0  0  0  0  0  0  0
  -21.1288  -28.1304   15.4194 N   0  3  0  0  0  0  0  0  0  0  0  0
  -23.3723  -21.5218   23.5705 O   0  0  0  0  0  0  0  0  0  0  0  0
  -23.4017  -29.1127   23.4234 O   0  0  0  0  0  0  0  0  0  0  0  0
  -20.7990  -30.2589   20.9522 O   0  0  0  0  0  0  0  0  0  0  0  0
  -21.9351  -26.8876   17.8115 O   0  0  0  0  0  0  0  0  0  0  0  0
  -25.7912  -25.2782   15.1267 O   0  0  0  0  0  0  0  0  0  0  0  0
  -22.3567  -14.3956   20.6087 O   0  0  0  0  0  0  0  0  0  0  0  0
  -28.4169  -26.6969   19.8854 O   0  0  0  0  0  0  0  0  0  1  0  0
  -25.5385  -11.6083   24.1459 F   0  0  0  0  0  0  0  0  0  0  0  0
  -24.0356  -12.3848   19.7250 F   0  0  0  0  0  0  0  0  0  0  0  0
  1  2  1  0  0  0  0
  1  6  2  0  0  0  0
  2  7  2  0  0  0  0
  3 14  1  0  0  0  0
  3 17  2  0  0  0  0
  4  9  2  0  0  0  0
  4 18  1  0  0  0  0
  5 10  1  0  0  0  0
  5 18  2  0  0  0  0
  6 20  1  0  0  0  0
  7 22  1  0  0  0  0
  8 11  2  0  0  0  0
  8 21  1  0  0  0  0
  9 24  1  0  0  0  0
 10 24  2  0  0  0  0
 11 25  1  0  0  0  0
 12 13  2  0  0  0  0
 12 26  1  0  0  0  0
 13 27  1  0  0  0  0
 14 30  2  0  0  0  0
 15 23  1  0  0  0  0
 15 25  2  0  0  0  0
 16 27  2  0  0  0  0
 16 28  1  0  0  0  0
 17 62  1  0  0  0  0
 18 29  1  0  0  0  0
 19 29  1  0  0  0  0
 19 31  2  0  0  0  0
 19 32  1  0  0  0  0
 20 22  2  0  0  0  0
 20 37  1  0  0  0  0
 21 23  2  0  0  0  0
 21 38  1  0  0  0  0
 22 46  1  0  0  0  0
 23 39  1  0  0  0  0
 24 77  1  0  0  0  0
 25 78  1  0  0  0  0
 26 28  2  0  0  0  0
 26 77  1  0  0  0  0
 27 79  1  0  0  0  0
 28 80  1  0  0  0  0
 29 61  2  0  0  0  0
 30 62  1  0  0  0  0
 30 68  1  0  0  0  0
 31 63  1  0  0  0  0
 31 66  1  0  0  0  0
 32 67  1  0  0  0  0
 32 72  2  0  0  0  0
 33 47  1  0  0  0  0
 33 69  1  0  0  0  0
 33 73  2  0  0  0  0
 34 57  1  0  0  0  0
 34 64  1  0  0  0  0
 34 74  2  0  0  0  0
 35 58  1  0  0  0  0
 35 70  1  0  0  0  0
 35 75  2  0  0  0  0
 36 65  1  0  0  0  0
 36 68  1  0  0  0  0
 36 76  2  0  0  0  0
 37 40  1  0  0  0  0
 38 47  1  0  0  0  0
 39 64  1  0  0  0  0
 40 42  1  0  0  0  0
 41 43  1  0  0  0  0
 41 44  1  0  0  0  0
 42 46  1  0  0  0  0
 43 48  1  0  0  0  0
 44 65  1  0  0  0  0
 45 48  1  0  0  0  0
 45 65  1  0  0  0  0
 46 69  1  0  0  0  0
 47 64  1  0  0  0  0
 48 63  1  0  0  0  0
 49 58  1  0  0  0  0
 50 59  1  0  0  0  0
 51 60  1  0  0  0  0
 52 60  1  0  0  0  0
 53 60  1  0  0  0  0
 54 71  1  0  0  0  0
 55 56  1  0  0  0  0
 55 59  1  0  0  0  0
 56 62  1  0  0  0  0
 57 60  1  0  0  0  0
 57 70  1  0  0  0  0
 58 71  1  0  0  0  0
 59 78  1  0  0  0  0
 61 63  1  0  0  0  0
M  CHG  1  71   1
M  ISO  4  36 100  59 101  68 100  78 101
M  END
> <Batch ID>
0108

> <Smiles>
CNC(C)C(=O)NC(C(=O)N1Cc2cc([101O:1][101CH:1](C)CCn3cccc3[100NH:0][100C:0](=O)N3CCCC(n4nc(-c5ccc(Oc6ccc(F)cc6F)cc5)c(C(N)=O)c4N)C3)ccc2CC1C(=O)NC1CCCc2ccccc21)C(C)(C)C

> <Shape>
0.196

> <Color>
0.080

> <Negative vol penalty>
0.000

$$$$

  -OEChem-04052319533D

 89 97  0     1  0  0  0  0  0999 V2000
  -31.9441  -25.7918   21.2175 C   0  0  0  0  0  0  0  0  0  0  0  0
  -30.6796  -25.5136   20.7086 C   0  0  0  0  0  0  0  0  0  0  0  0
  -26.3553  -13.4585   18.3571 C   0  0  0  0  0  0  0  0  0  0  0  0
  -25.4213  -13.9520   20.5299 C   0  0  0  0  0  0  0  0  0  0  0  0
  -32.0734  -26.4994   22.4119 C   0  0  0  0  0  0  0  0  0  0  0  0
  -29.5435  -25.9420   21.3943 C   0  0  0  0  0  0  0  0  0  0  0  0
  -22.8521  -28.2224   20.2362 C   0  0  0  0  0  0  0  0  0  0  0  0
  -25.4449  -12.4130   18.2031 C   0  0  0  0  0  0  0  0  0  0  0  0
  -24.5108  -12.9065   20.3759 C   0  0  0  0  0  0  0  0  0  0  0  0
  -21.5407  -27.9562   20.6274 C   0  0  0  0  0  0  0  0  0  0  0  0
  -24.5179   -9.5365   20.6472 C   0  0  0  0  0  0  0  0  0  0  0  0
  -24.3275   -8.6781   21.7300 C   0  0  0  0  0  0  0  0  0  0  0  0
  -21.8869  -29.2396   22.6404 C   0  0  0  0  0  0  0  0  0  0  0  0
  -21.9882   -9.2787   21.7948 C   0  0  0  0  0  0  0  0  0  0  0  0
  -26.3436  -14.2279   19.5205 C   0  0  0  0  0  0  0  0  0  0  0  0
  -28.6891  -15.2180   19.6814 C   0  0  0  0  0  0  0  0  0  0  0  0
  -30.9385  -26.9451   23.1076 C   0  0  0  0  0  0  0  0  0  0  0  0
  -23.6956  -28.9914   21.0508 C   0  0  0  0  0  0  0  0  0  0  0  0
  -29.6577  -26.6551   22.5998 C   0  0  0  0  0  0  0  0  0  0  0  0
  -23.2078  -29.5163   22.2561 C   0  0  0  0  0  0  0  0  0  0  0  0
  -24.5226  -12.1371   19.2125 C   0  0  0  0  0  0  0  0  0  0  0  0
  -21.0587  -28.4624   21.8309 C   0  0  0  0  0  0  0  0  0  0  0  0
  -23.4434  -10.2660   20.1381 C   0  0  0  0  0  0  0  0  0  0  0  0
  -23.0627   -8.5492   22.3038 C   0  0  0  0  0  0  0  0  0  0  0  0
  -22.1786  -10.1371   20.7119 C   0  0  0  0  0  0  0  0  0  0  0  0
  -27.2842  -15.3077   19.6804 C   0  0  0  0  0  0  0  0  0  0  0  0
  -29.1155  -16.5106   19.8659 C   0  0  0  0  0  0  0  0  0  0  0  0
  -29.5332  -14.0691   19.5292 C   0  0  0  0  0  0  0  0  0  0  0  0
  -26.4359  -28.4639   22.5728 C   0  0  0  0  0  0  0  0  0  0  0  0
  -26.2434  -31.6389   23.2089 C   0  0  0  0  0  0  0  0  0  0  0  0
  -24.2830  -34.4111   23.5534 C   0  0  0  0  0  0  0  0  0  0  0  0
  -26.8325  -21.1569   22.4367 C   0  0  0  0  0  0  0  0  0  0  0  0
  -31.1275  -27.6654   24.4191 C   0  0  0  0  0  0  0  0  0  0  0  0
  -25.0994  -29.2919   20.6020 C   0  0  0  0  0  0  0  0  0  0  0  0
  -24.0667  -30.3645   23.1569 C   0  0  0  0  0  0  0  0  0  0  0  0
  -29.8806  -28.4091   24.8907 C   0  0  0  0  0  0  0  0  0  0  0  0
  -27.8179  -21.0403   19.0664 C   0  0  0  0  0  0  0  0  0  0  0  0
  -28.6481  -27.5195   24.7629 C   0  0  0  0  0  0  0  0  0  0  0  0
  -27.9312  -19.5337   18.8356 C   0  0  0  0  0  0  0  0  0  0  0  0
  -26.6032  -21.3993   19.9240 C   0  0  0  0  0  0  0  0  0  0  0  0
  -25.3538  -23.1547   21.9399 C   0  0  0  0  0  0  0  0  0  0  0  0
  -26.9688  -23.2162   23.8042 C   0  0  0  0  0  0  0  0  0  0  0  0
  -26.6529  -19.1625   20.9790 C   0  0  0  0  0  0  0  0  0  0  0  0
  -24.2143  -23.4684   22.9042 C   0  0  0  0  0  0  0  0  0  0  0  0
  -25.8549  -23.5048   24.7973 C   0  0  0  0  0  0  0  0  0  0  0  0
  -28.4020  -27.1245   23.3018 C   0  0  1  0  0  0  0  0  0  0  0  0
  -26.0300  -29.6569   21.7544 C   0  0  1  0  0  0  0  0  0  0  0  0
  -27.8973  -18.7666   20.1694 C   0  0  1  0  0  0  0  0  0  0  0  0
  -24.4066  -36.8537   24.1151 C   0  0  0  0  0  0  0  0  0  0  0  0
  -19.6333  -25.1309   29.1979 C   0  0  0  0  0  0  0  0  0  0  0  0
  -21.0164  -23.5321   27.8417 C   0  0  0  0  0  0  0  0  0  0  0  0
  -19.2647  -23.7828   24.1842 C   0  0  0  0  0  0  0  0  0  0  0  0
  -26.5806  -30.9408   26.1600 C   0  0  0  0  0  0  0  0  0  0  0  0
  -25.7571  -33.2365   26.7254 C   0  0  0  0  0  0  0  0  0  0  0  0
  -27.8592  -32.9558   25.4120 C   0  0  0  0  0  0  0  0  0  0  0  0
  -23.2152  -35.1926   20.9062 C   0  0  0  0  0  0  0  0  0  0  0  0
  -18.1786  -26.4827   22.7964 C   0  0  0  0  0  0  0  0  0  0  0  0
  -18.7974  -26.2672   24.1839 C   0  0  0  0  0  0  0  0  0  0  0  0
  -22.9164  -25.8787   24.5174 C   0  0  0  0  0  0  0  0  0  0  0  0
  -23.6461  -24.6420   25.0312 C   0  0  0  0  0  0  0  0  0  0  0  0
  -21.7403  -26.3564   25.3627 C   0  0  0  0  0  0  0  0  0  0  0  0
  -19.8268  -25.4605   26.6805 C   0  0  0  0  0  0  0  0  0  0  0  0
  -19.2044  -26.9741   21.7809 C   0  0  0  0  0  0  0  0  0  1  0  0
  -25.6354  -32.4738   24.3099 C   0  0  1  0  0  0  0  0  0  0  0  0
  -24.4224  -35.8183   23.0014 C   0  0  2  0  0  0  0  0  0  0  0  0
  -20.5169  -24.9730   27.9594 C   0  0  0  0  0  0  0  0  0  0  0  0
  -19.8757  -25.1777   24.2069 C   0  0  1  0  0  0  0  0  0  0  0  0
  -26.4422  -32.3842   25.6360 C   0  0  0  0  0  0  0  0  0  0  0  0
  -26.8472  -16.5582   19.8508 N   0  0  0  0  0  0  0  0  0  0  0  0
  -27.9841  -17.2663   19.9608 N   0  0  0  0  0  0  0  0  0  0  0  0
  -25.4340  -30.6250   22.6773 N   0  0  0  0  0  0  0  0  0  0  0  0
  -26.5919  -20.6137   21.1658 N   0  0  0  0  0  0  0  0  0  0  0  0
  -26.4648  -22.4957   22.6371 N   0  0  0  0  0  0  0  0  0  0  0  0
  -30.3440  -17.0630   19.9547 N   0  0  0  0  0  0  0  0  0  0  0  0
  -29.9148  -13.3634   20.6784 N   0  0  0  0  0  0  0  0  0  0  0  0
  -27.7962  -28.2209   22.5770 N   0  0  0  0  0  0  0  0  0  0  0  0
  -25.5115  -33.8258   23.7761 N   0  0  0  0  0  0  0  0  0  0  0  0
  -24.7450  -24.2434   24.0863 N   0  3  0  0  0  0  0  0  0  0  0  0
  -23.3042  -36.1199   22.0634 N   0  3  0  0  0  0  0  0  0  0  0  0
  -20.7051  -25.3014   25.4626 N   0  3  1  0  0  0  0  0  0  0  0  0
  -29.9506  -13.6896   18.4088 O   0  0  0  0  0  0  0  0  0  0  0  0
  -25.5785  -27.8130   23.1584 O   0  0  0  0  0  0  0  0  0  0  0  0
  -27.3917  -31.8822   22.8294 O   0  0  0  0  0  0  0  0  0  0  0  0
  -23.1934  -33.8851   23.7693 O   0  0  0  0  0  0  0  0  0  0  0  0
  -27.3455  -20.4845   23.3401 O   0  0  0  0  0  0  0  0  0  0  0  0
  -23.6339  -11.1172   19.0625 O   0  0  0  0  0  0  0  0  0  0  0  0
  -19.7696  -28.2016   22.2183 O   0  0  0  0  0  0  0  0  0  1  0  0
  -22.8797   -7.7237   23.3427 F   0  0  0  0  0  0  0  0  0  0  0  0
  -21.1423  -10.8344   20.2265 F   0  0  0  0  0  0  0  0  0  0  0  0
  1  2  1  0  0  0  0
  1  5  2  0  0  0  0
  2  6  2  0  0  0  0
  3  8  2  0  0  0  0
  3 15  1  0  0  0  0
  4  9  1  0  0  0  0
  4 15  2  0  0  0  0
  5 17  1  0  0  0  0
  6 19  1  0  0  0  0
  7 10  2  0  0  0  0
  7 18  1  0  0  0  0
  8 21  1  0  0  0  0
  9 21  2  0  0  0  0
 10 22  1  0  0  0  0
 11 12  2  0  0  0  0
 11 23  1  0  0  0  0
 12 24  1  0  0  0  0
 13 20  1  0  0  0  0
 13 22  2  0  0  0  0
 14 24  2  0  0  0  0
 14 25  1  0  0  0  0
 15 26  1  0  0  0  0
 16 26  1  0  0  0  0
 16 27  2  0  0  0  0
 16 28  1  0  0  0  0
 17 19  2  0  0  0  0
 17 33  1  0  0  0  0
 18 20  2  0  0  0  0
 18 34  1  0  0  0  0
 19 46  1  0  0  0  0
 20 35  1  0  0  0  0
 21 86  1  0  0  0  0
 22 87  1  0  0  0  0
 23 25  2  0  0  0  0
 23 86  1  0  0  0  0
 24 88  1  0  0  0  0
 25 89  1  0  0  0  0
 26 69  2  0  0  0  0
 27 70  1  0  0  0  0
 27 74  1  0  0  0  0
 28 75  1  0  0  0  0
 28 81  2  0  0  0  0
 29 47  1  0  0  0  0
 29 76  1  0  0  0  0
 29 82  2  0  0  0  0
 30 64  1  0  0  0  0
 30 71  1  0  0  0  0
 30 83  2  0  0  0  0
 31 65  1  0  0  0  0
 31 77  1  0  0  0  0
 31 84  2  0  0  0  0
 32 72  1  0  0  0  0
 32 73  1  0  0  0  0
 32 85  2  0  0  0  0
 33 36  1  0  0  0  0
 34 47  1  0  0  0  0
 35 71  1  0  0  0  0
 36 38  1  0  0  0  0
 37 39  1  0  0  0  0
 37 40  1  0  0  0  0
 38 46  1  0  0  0  0
 39 48  1  0  0  0  0
 40 72  1  0  0  0  0
 41 44  1  0  0  0  0
 41 73  1  0  0  0  0
 42 45  1  0  0  0  0
 42 73  1  0  0  0  0
 43 48  1  0  0  0  0
 43 72  1  0  0  0  0
 44 78  1  0  0  0  0
 45 78  1  0  0  0  0
 46 76  1  0  0  0  0
 47 71  1  0  0  0  0
 48 70  1  0  0  0  0
 49 65  1  0  0  0  0
 50 66  1  0  0  0  0
 51 66  1  0  0  0  0
 52 67  1  0  0  0  0
 53 68  1  0  0  0  0
 54 68  1  0  0  0  0
 55 68  1  0  0  0  0
 56 79  1  0  0  0  0
 57 58  1  0  0  0  0
 57 63  1  0  0  0  0
 58 67  1  0  0  0  0
 59 60  1  0  0  0  0
 59 61  1  0  0  0  0
 60 78  1  0  0  0  0
 61 80  1  0  0  0  0
 62 66  1  0  0  0  0
 62 80  1  0  0  0  0
 63 87  1  0  0  0  0
 64 68  1  0  0  0  0
 64 77  1  0  0  0  0
 65 79  1  0  0  0  0
 67 80  1  0  0  0  0
 69 70  1  0  0  0  0
M  CHG  3  78   1  79   1  80   1
M  ISO  4  32 100  63 101  73 100  87 101
M  END
> <Batch ID>
0108

> <Smiles>
CNC(C)C(=O)NC(C(=O)N1Cc2cc([101O:1][101CH2:1]CCC(C)N(CCCN3CC[100N:0]([100C:0](=O)N4CCCC(n5nc(-c6ccc(Oc7ccc(F)cc7F)cc6)c(C(N)=O)c5N)C4)CC3)CC(C)C)ccc2CC1C(=O)NC1CCCc2ccccc21)C(C)(C)C

> <Shape>
0.278

> <Color>
0.060

> <Negative vol penalty>
0.000

$$$$

  -OEChem-04052319533D

 86 94  0     1  0  0  0  0  0999 V2000
  -29.6169  -32.5251   26.0617 C   0  0  0  0  0  0  0  0  0  0  0  0
  -29.3590  -31.3831   25.3103 C   0  0  0  0  0  0  0  0  0  0  0  0
  -24.6748   -8.8796   21.6542 C   0  0  0  0  0  0  0  0  0  0  0  0
  -23.5557  -10.6903   22.7971 C   0  0  0  0  0  0  0  0  0  0  0  0
  -28.5589  -33.2730   26.5766 C   0  0  0  0  0  0  0  0  0  0  0  0
  -28.0428  -30.9876   25.0743 C   0  0  0  0  0  0  0  0  0  0  0  0
  -27.2515  -29.6475   20.2553 C   0  0  0  0  0  0  0  0  0  0  0  0
  -24.1072   -7.9674   22.5437 C   0  0  0  0  0  0  0  0  0  0  0  0
  -22.9880   -9.7780   23.6865 C   0  0  0  0  0  0  0  0  0  0  0  0
  -27.6934  -28.3842   19.8649 C   0  0  0  0  0  0  0  0  0  0  0  0
  -21.1207   -6.4433   22.9808 C   0  0  0  0  0  0  0  0  0  0  0  0
  -20.5720   -5.2760   22.4499 C   0  0  0  0  0  0  0  0  0  0  0  0
  -25.4452  -27.5371   20.0825 C   0  0  0  0  0  0  0  0  0  0  0  0
  -26.4424  -18.7038   17.8874 C   0  0  0  0  0  0  0  0  0  0  0  0
  -22.1144   -3.9555   23.7593 C   0  0  0  0  0  0  0  0  0  0  0  0
  -24.3991  -10.2411   21.7810 C   0  0  0  0  0  0  0  0  0  0  0  0
  -24.4486  -11.6251   19.6386 C   0  0  0  0  0  0  0  0  0  0  0  0
  -27.2289  -32.8920   26.3386 C   0  0  0  0  0  0  0  0  0  0  0  0
  -25.9028  -29.8630   20.5732 C   0  0  0  0  0  0  0  0  0  0  0  0
  -26.9660  -31.7304   25.5876 C   0  0  0  0  0  0  0  0  0  0  0  0
  -24.9882  -28.8048   20.4741 C   0  0  0  0  0  0  0  0  0  0  0  0
  -26.3287  -19.8623   17.1270 C   0  0  0  0  0  0  0  0  0  0  0  0
  -27.4352  -20.6869   16.9568 C   0  0  0  0  0  0  0  0  0  0  0  0
  -23.2638   -8.4165   23.5598 C   0  0  0  0  0  0  0  0  0  0  0  0
  -26.7908  -27.3281   19.7813 C   0  0  0  0  0  0  0  0  0  0  0  0
  -22.1663   -6.3667   23.9009 C   0  0  0  0  0  0  0  0  0  0  0  0
  -21.0688   -4.0321   22.8392 C   0  0  0  0  0  0  0  0  0  0  0  0
  -22.6631   -5.1228   24.2902 C   0  0  0  0  0  0  0  0  0  0  0  0
  -24.9857  -11.1841   20.8629 C   0  0  0  0  0  0  0  0  0  0  0  0
  -28.6232  -20.3115   17.5630 C   0  0  0  0  0  0  0  0  0  0  0  0
  -27.6749  -18.4170   18.4518 C   0  0  0  0  0  0  0  0  0  0  0  0
  -25.3811  -12.5090   19.1531 C   0  0  0  0  0  0  0  0  0  0  0  0
  -23.2169  -11.2678   18.9976 C   0  0  0  0  0  0  0  0  0  0  0  0
  -24.3305  -30.7689   23.1830 C   0  0  0  0  0  0  0  0  0  0  0  0
  -21.7831  -30.7706   21.1747 C   0  0  0  0  0  0  0  0  0  0  0  0
  -20.3567  -29.6012   18.3034 C   0  0  0  0  0  0  0  0  0  0  0  0
  -28.9126  -16.7519   19.8808 C   0  0  0  0  0  0  0  0  0  0  0  0
  -26.1191  -33.7058   26.9556 C   0  0  0  0  0  0  0  0  0  0  0  0
  -25.4371  -31.2380   20.9668 C   0  0  0  0  0  0  0  0  0  0  0  0
  -23.5261  -28.9886   20.7851 C   0  0  0  0  0  0  0  0  0  0  0  0
  -24.7480  -33.4282   26.3445 C   0  0  0  0  0  0  0  0  0  0  0  0
  -30.1004  -13.4956   20.6948 C   0  0  0  0  0  0  0  0  0  0  0  0
  -24.5144  -31.9261   26.2176 C   0  0  0  0  0  0  0  0  0  0  0  0
  -28.8314  -12.6402   20.7104 C   0  0  0  0  0  0  0  0  0  0  0  0
  -29.8462  -14.8974   21.2461 C   0  0  0  0  0  0  0  0  0  0  0  0
  -27.4639  -14.7641   20.6328 C   0  0  0  0  0  0  0  0  0  0  0  0
  -25.5515  -31.2830   25.2890 C   0  0  1  0  0  0  0  0  0  0  0  0
  -24.1363  -31.2228   21.7639 C   0  0  1  0  0  0  0  0  0  0  0  0
  -27.6552  -13.3643   20.0264 C   0  0  2  0  0  0  0  0  0  0  0  0
  -25.0131  -20.1984   16.5063 C   0  0  0  0  0  0  0  0  0  0  0  0
  -29.8449  -21.1589   17.4161 C   0  0  0  0  0  0  0  0  0  0  0  0
  -18.2516  -29.7533   16.9458 C   0  0  0  0  0  0  0  0  0  0  0  0
  -25.9639  -24.0011   15.6230 C   0  0  0  0  0  0  0  0  0  0  0  0
  -27.4611  -24.1240   20.7698 C   0  0  0  0  0  0  0  0  0  0  0  0
  -20.3672  -28.9480   23.1705 C   0  0  0  0  0  0  0  0  0  0  0  0
  -18.7176  -28.3795   21.3750 C   0  0  0  0  0  0  0  0  0  0  0  0
  -18.9217  -30.7319   22.1793 C   0  0  0  0  0  0  0  0  0  0  0  0
  -21.8038  -30.7043   15.9693 C   0  0  0  0  0  0  0  0  0  0  0  0
  -27.3430  -21.9446   16.1396 C   0  0  0  0  0  0  0  0  0  0  0  0
  -25.8587  -24.2142   18.7778 C   0  0  0  0  0  0  0  0  0  0  0  0
  -20.7582  -29.7480   20.7471 C   0  0  1  0  0  0  0  0  0  0  0  0
  -19.6470  -30.3159   17.1676 C   0  0  2  0  0  0  0  0  0  0  0  0
  -26.3158  -22.9531   16.6708 C   0  0  1  0  0  0  0  0  0  0  0  0
  -26.5149  -24.9705   19.9283 C   0  0  2  0  0  0  0  0  0  1  0  0
  -19.7190  -29.4476   21.8639 C   0  0  0  0  0  0  0  0  0  0  0  0
  -26.1678  -11.7417   21.1381 N   0  0  0  0  0  0  0  0  0  0  0  0
  -28.7721  -19.1938   18.3088 N   0  0  0  0  0  0  0  0  0  0  0  0
  -26.3812  -12.5421   20.0798 N   0  0  0  0  0  0  0  0  0  0  0  0
  -23.1206  -30.3501   21.1715 N   0  0  0  0  0  0  0  0  0  0  0  0
  -28.7212  -15.5235   20.5480 N   0  0  0  0  0  0  0  0  0  0  0  0
  -25.4349  -13.2533   18.0282 N   0  0  0  0  0  0  0  0  0  0  0  0
  -22.3756  -10.3451   19.6340 N   0  0  0  0  0  0  0  0  0  0  0  0
  -27.7803  -17.2344   19.2251 N   0  0  0  0  0  0  0  0  0  0  0  0
  -25.2198  -31.5422   23.9044 N   0  0  0  0  0  0  0  0  0  0  0  0
  -20.1748  -30.2486   19.5071 N   0  0  0  0  0  0  0  0  0  0  0  0
  -20.4191  -30.1705   15.9013 N   0  3  0  0  0  0  0  0  0  0  0  0
  -26.8787  -23.6618   17.8520 N   0  3  0  0  0  0  0  0  0  0  0  0
  -22.8802  -11.7400   17.8853 O   0  0  0  0  0  0  0  0  0  0  0  0
  -23.7176  -29.7903   23.5935 O   0  0  0  0  0  0  0  0  0  0  0  0
  -21.4113  -31.9030   21.4928 O   0  0  0  0  0  0  0  0  0  0  0  0
  -21.0042  -28.5695   18.1398 O   0  0  0  0  0  0  0  0  0  0  0  0
  -30.0078  -17.3195   19.8675 O   0  0  0  0  0  0  0  0  0  0  0  0
  -22.7095   -7.5266   24.4277 O   0  0  0  0  0  0  0  0  0  0  0  0
  -27.2197  -26.0938   19.4011 O   0  0  0  0  0  0  0  0  0  1  0  0
  -20.5407   -2.9111   22.3304 F   0  0  0  0  0  0  0  0  0  0  0  0
  -23.6667   -5.0429   25.1747 F   0  0  0  0  0  0  0  0  0  0  0  0
  1  2  1  0  0  0  0
  1  5  2  0  0  0  0
  2  6  2  0  0  0  0
  3  8  2  0  0  0  0
  3 16  1  0  0  0  0
  4  9  1  0  0  0  0
  4 16  2  0  0  0  0
  5 18  1  0  0  0  0
  6 20  1  0  0  0  0
  7 10  2  0  0  0  0
  7 19  1  0  0  0  0
  8 24  1  0  0  0  0
  9 24  2  0  0  0  0
 10 25  1  0  0  0  0
 11 12  2  0  0  0  0
 11 26  1  0  0  0  0
 12 27  1  0  0  0  0
 13 21  1  0  0  0  0
 13 25  2  0  0  0  0
 14 22  2  0  0  0  0
 14 31  1  0  0  0  0
 15 27  2  0  0  0  0
 15 28  1  0  0  0  0
 16 29  1  0  0  0  0
 17 29  1  0  0  0  0
 17 32  2  0  0  0  0
 17 33  1  0  0  0  0
 18 20  2  0  0  0  0
 18 38  1  0  0  0  0
 19 21  2  0  0  0  0
 19 39  1  0  0  0  0
 20 47  1  0  0  0  0
 21 40  1  0  0  0  0
 22 23  1  0  0  0  0
 22 50  1  0  0  0  0
 23 30  2  0  0  0  0
 23 59  1  0  0  0  0
 24 83  1  0  0  0  0
 25 84  1  0  0  0  0
 26 28  2  0  0  0  0
 26 83  1  0  0  0  0
 27 85  1  0  0  0  0
 28 86  1  0  0  0  0
 29 66  2  0  0  0  0
 30 51  1  0  0  0  0
 30 67  1  0  0  0  0
 31 67  2  0  0  0  0
 31 73  1  0  0  0  0
 32 68  1  0  0  0  0
 32 71  1  0  0  0  0
 33 72  1  0  0  0  0
 33 78  2  0  0  0  0
 34 48  1  0  0  0  0
 34 74  1  0  0  0  0
 34 79  2  0  0  0  0
 35 61  1  0  0  0  0
 35 69  1  0  0  0  0
 35 80  2  0  0  0  0
 36 62  1  0  0  0  0
 36 75  1  0  0  0  0
 36 81  2  0  0  0  0
 37 70  1  0  0  0  0
 37 73  1  0  0  0  0
 37 82  2  0  0  0  0
 38 41  1  0  0  0  0
 39 48  1  0  0  0  0
 40 69  1  0  0  0  0
 41 43  1  0  0  0  0
 42 44  1  0  0  0  0
 42 45  1  0  0  0  0
 43 47  1  0  0  0  0
 44 49  1  0  0  0  0
 45 70  1  0  0  0  0
 46 49  1  0  0  0  0
 46 70  1  0  0  0  0
 47 74  1  0  0  0  0
 48 69  1  0  0  0  0
 49 68  1  0  0  0  0
 52 62  1  0  0  0  0
 53 63  1  0  0  0  0
 54 64  1  0  0  0  0
 55 65  1  0  0  0  0
 56 65  1  0  0  0  0
 57 65  1  0  0  0  0
 58 76  1  0  0  0  0
 59 63  1  0  0  0  0
 60 64  1  0  0  0  0
 60 77  1  0  0  0  0
 61 65  1  0  0  0  0
 61 75  1  0  0  0  0
 62 76  1  0  0  0  0
 63 77  1  0  0  0  0
 64 84  1  0  0  0  0
 66 68  1  0  0  0  0
M  CHG  2  76   1  77   1
M  ISO  4  37 100  64 101  73 100  84 101
M  END
> <Batch ID>
0108

> <Smiles>
CNC(C)C(=O)NC(C(=O)N1Cc2cc([101O:1][101CH:1](C)CNC(C)Cc3c(C)cc([100NH:0][100C:0](=O)N4CCCC(n5nc(-c6ccc(Oc7ccc(F)cc7F)cc6)c(C(N)=O)c5N)C4)nc3C)ccc2CC1C(=O)NC1CCCc2ccccc21)C(C)(C)C

> <Shape>
0.296

> <Color>
0.100

> <Negative vol penalty>
0.000

$$$$

  -OEChem-04052319533D

 82 90  0     1  0  0  0  0  0999 V2000
  -22.6397  -10.4212   19.7924 C   0  0  0  0  0  0  0  0  0  0  0  0
  -22.0357  -11.6293   20.1257 C   0  0  0  0  0  0  0  0  0  0  0  0
  -25.2236  -29.4306   20.1058 C   0  0  0  0  0  0  0  0  0  0  0  0
  -25.4392  -27.0245   20.0682 C   0  0  0  0  0  0  0  0  0  0  0  0
  -24.0228  -10.2817   19.8997 C   0  0  0  0  0  0  0  0  0  0  0  0
  -22.8143  -12.6983   20.5676 C   0  0  0  0  0  0  0  0  0  0  0  0
  -21.5121  -17.0810   18.3904 C   0  0  0  0  0  0  0  0  0  0  0  0
  -26.6050  -29.5520   20.2563 C   0  0  0  0  0  0  0  0  0  0  0  0
  -26.8206  -27.1459   20.2186 C   0  0  0  0  0  0  0  0  0  0  0  0
  -20.3722  -17.7196   18.8768 C   0  0  0  0  0  0  0  0  0  0  0  0
  -29.0102  -27.7519   22.7225 C   0  0  0  0  0  0  0  0  0  0  0  0
  -29.6370  -26.9179   23.6483 C   0  0  0  0  0  0  0  0  0  0  0  0
  -21.7639  -19.2031   20.1735 C   0  0  0  0  0  0  0  0  0  0  0  0
  -30.9921  -25.9772   21.8831 C   0  0  0  0  0  0  0  0  0  0  0  0
  -24.6407  -28.1668   20.0118 C   0  0  0  0  0  0  0  0  0  0  0  0
  -22.4904  -27.9946   18.6500 C   0  0  0  0  0  0  0  0  0  0  0  0
  -24.8198  -11.3526   20.3339 C   0  0  0  0  0  0  0  0  0  0  0  0
  -22.7883  -17.4923   18.8011 C   0  0  0  0  0  0  0  0  0  0  0  0
  -24.2093  -12.5725   20.6821 C   0  0  0  0  0  0  0  0  0  0  0  0
  -22.9185  -18.5697   19.6889 C   0  0  0  0  0  0  0  0  0  0  0  0
  -27.4035  -28.4097   20.3127 C   0  0  0  0  0  0  0  0  0  0  0  0
  -20.4979  -18.7790   19.7707 C   0  0  0  0  0  0  0  0  0  0  0  0
  -29.3742  -27.6986   21.3770 C   0  0  0  0  0  0  0  0  0  0  0  0
  -30.6280  -26.0305   23.2286 C   0  0  0  0  0  0  0  0  0  0  0  0
  -30.3652  -26.8112   20.9573 C   0  0  0  0  0  0  0  0  0  0  0  0
  -23.2137  -28.0407   19.8569 C   0  0  0  0  0  0  0  0  0  0  0  0
  -21.1794  -27.8701   19.0400 C   0  0  0  0  0  0  0  0  0  0  0  0
  -22.9616  -28.0584   17.2974 C   0  0  0  0  0  0  0  0  0  0  0  0
  -25.1929  -16.1198   20.3624 C   0  0  0  0  0  0  0  0  0  0  0  0
  -26.7301  -18.8813   19.6319 C   0  0  0  0  0  0  0  0  0  0  0  0
  -26.8887  -22.4626   19.2237 C   0  0  0  0  0  0  0  0  0  0  0  0
  -18.9899  -25.7752   24.3703 C   0  0  0  0  0  0  0  0  0  0  0  0
  -26.3058  -11.1393   20.4791 C   0  0  0  0  0  0  0  0  0  0  0  0
  -24.0089  -16.8104   18.2465 C   0  0  0  0  0  0  0  0  0  0  0  0
  -24.2666  -19.0628   20.1452 C   0  0  0  0  0  0  0  0  0  0  0  0
  -27.0988  -12.4383   20.5978 C   0  0  0  0  0  0  0  0  0  0  0  0
  -18.2049  -28.9466   22.6191 C   0  0  0  0  0  0  0  0  0  0  0  0
  -26.4353  -13.3792   21.5984 C   0  0  0  0  0  0  0  0  0  0  0  0
  -19.3883  -29.0986   21.6652 C   0  0  0  0  0  0  0  0  0  0  0  0
  -19.1189  -22.3673   25.0076 C   0  0  0  0  0  0  0  0  0  0  0  0
  -18.7522  -22.7734   22.5413 C   0  0  0  0  0  0  0  0  0  0  0  0
  -18.5820  -28.1571   23.8686 C   0  0  0  0  0  0  0  0  0  0  0  0
  -19.9958  -23.6160   25.0494 C   0  0  0  0  0  0  0  0  0  0  0  0
  -19.6176  -24.0333   22.6381 C   0  0  0  0  0  0  0  0  0  0  0  0
  -20.3645  -26.9752   22.6244 C   0  0  0  0  0  0  0  0  0  0  0  0
  -25.0227  -13.7630   21.1418 C   0  0  1  0  0  0  0  0  0  0  0  0
  -25.2408  -16.9786   19.1305 C   0  0  1  0  0  0  0  0  0  0  0  0
  -20.0046  -27.7283   21.3349 C   0  0  2  0  0  0  0  0  0  0  0  0
  -19.1429  -21.7539   23.6091 C   0  0  0  0  0  0  0  0  0  0  0  0
  -28.7631  -23.9335   18.4363 C   0  0  0  0  0  0  0  0  0  0  0  0
  -19.6483  -18.7153   24.1235 C   0  0  0  0  0  0  0  0  0  0  0  0
  -17.2295  -18.7511   24.8460 C   0  0  0  0  0  0  0  0  0  0  0  0
  -27.3688  -19.1650   22.6021 C   0  0  0  0  0  0  0  0  0  0  0  0
  -27.9299  -21.5683   22.1805 C   0  0  0  0  0  0  0  0  0  0  0  0
  -29.2500  -19.7674   21.0683 C   0  0  0  0  0  0  0  0  0  0  0  0
  -25.2099  -23.6637   17.1029 C   0  0  0  0  0  0  0  0  0  0  0  0
  -18.0925  -19.9984   22.1895 C   0  0  0  0  0  0  0  0  0  0  0  0
  -19.4685  -19.9692   21.5539 C   0  0  0  0  0  0  0  0  0  1  0  0
  -26.8859  -20.2267   20.2986 C   0  0  1  0  0  0  0  0  0  0  0  0
  -27.4791  -23.2178   18.0467 C   0  0  2  0  0  0  0  0  0  0  0  0
  -18.4888  -19.5695   24.6102 C   0  0  0  0  0  0  0  0  0  0  0  0
  -27.8330  -20.1716   21.5305 C   0  0  0  0  0  0  0  0  0  0  0  0
  -22.4274  -27.9529   20.9330 N   0  0  0  0  0  0  0  0  0  0  0  0
  -21.1964  -27.8504   20.4037 N   0  0  0  0  0  0  0  0  0  0  0  0
  -25.4298  -18.3595   19.5797 N   0  0  0  0  0  0  0  0  0  0  0  0
  -19.2091  -26.8794   23.5298 N   0  0  0  0  0  0  0  0  0  0  0  0
  -19.6076  -24.5688   24.0075 N   0  0  0  0  0  0  0  0  0  0  0  0
  -20.0252  -27.7769   18.3461 N   0  0  0  0  0  0  0  0  0  0  0  0
  -24.3395  -28.1861   17.0751 N   0  0  0  0  0  0  0  0  0  0  0  0
  -25.0831  -14.7673   20.1015 N   0  0  0  0  0  0  0  0  0  0  0  0
  -27.3155  -21.1518   19.2556 N   0  0  0  0  0  0  0  0  0  0  0  0
  -26.5100  -24.2319   17.5432 N   0  3  0  0  0  0  0  0  0  0  0  0
  -18.1916  -20.6135   23.5630 N   0  3  1  0  0  0  0  0  0  0  0  0
  -22.1822  -28.0203   16.3152 O   0  0  0  0  0  0  0  0  0  0  0  0
  -25.2526  -16.6452   21.4679 O   0  0  0  0  0  0  0  0  0  0  0  0
  -27.7244  -18.3174   19.1681 O   0  0  0  0  0  0  0  0  0  0  0  0
  -26.1280  -22.9843   20.0360 O   0  0  0  0  0  0  0  0  0  0  0  0
  -18.2829  -25.8631   25.3820 O   0  0  0  0  0  0  0  0  0  0  0  0
  -28.7515  -28.5278   20.4593 O   0  0  0  0  0  0  0  0  0  0  0  0
  -19.3789  -19.4081   20.2509 O   0  0  0  0  0  0  0  0  0  1  0  0
  -31.2310  -25.2307   24.1179 F   0  0  0  0  0  0  0  0  0  0  0  0
  -30.7200  -26.7563   19.6663 F   0  0  0  0  0  0  0  0  0  0  0  0
  1  2  1  0  0  0  0
  1  5  2  0  0  0  0
  2  6  2  0  0  0  0
  3  8  2  0  0  0  0
  3 15  1  0  0  0  0
  4  9  1  0  0  0  0
  4 15  2  0  0  0  0
  5 17  1  0  0  0  0
  6 19  1  0  0  0  0
  7 10  2  0  0  0  0
  7 18  1  0  0  0  0
  8 21  1  0  0  0  0
  9 21  2  0  0  0  0
 10 22  1  0  0  0  0
 11 12  2  0  0  0  0
 11 23  1  0  0  0  0
 12 24  1  0  0  0  0
 13 20  1  0  0  0  0
 13 22  2  0  0  0  0
 14 24  2  0  0  0  0
 14 25  1  0  0  0  0
 15 26  1  0  0  0  0
 16 26  1  0  0  0  0
 16 27  2  0  0  0  0
 16 28  1  0  0  0  0
 17 19  2  0  0  0  0
 17 33  1  0  0  0  0
 18 20  2  0  0  0  0
 18 34  1  0  0  0  0
 19 46  1  0  0  0  0
 20 35  1  0  0  0  0
 21 79  1  0  0  0  0
 22 80  1  0  0  0  0
 23 25  2  0  0  0  0
 23 79  1  0  0  0  0
 24 81  1  0  0  0  0
 25 82  1  0  0  0  0
 26 63  2  0  0  0  0
 27 64  1  0  0  0  0
 27 68  1  0  0  0  0
 28 69  1  0  0  0  0
 28 74  2  0  0  0  0
 29 47  1  0  0  0  0
 29 70  1  0  0  0  0
 29 75  2  0  0  0  0
 30 59  1  0  0  0  0
 30 65  1  0  0  0  0
 30 76  2  0  0  0  0
 31 60  1  0  0  0  0
 31 71  1  0  0  0  0
 31 77  2  0  0  0  0
 32 66  1  0  0  0  0
 32 67  1  0  0  0  0
 32 78  2  0  0  0  0
 33 36  1  0  0  0  0
 34 47  1  0  0  0  0
 35 65  1  0  0  0  0
 36 38  1  0  0  0  0
 37 39  1  0  0  0  0
 37 42  1  0  0  0  0
 38 46  1  0  0  0  0
 39 48  1  0  0  0  0
 40 43  1  0  0  0  0
 40 49  1  0  0  0  0
 41 44  1  0  0  0  0
 41 49  1  0  0  0  0
 42 66  1  0  0  0  0
 43 67  1  0  0  0  0
 44 67  1  0  0  0  0
 45 48  1  0  0  0  0
 45 66  1  0  0  0  0
 46 70  1  0  0  0  0
 47 65  1  0  0  0  0
 48 64  1  0  0  0  0
 49 73  1  0  0  0  0
 50 60  1  0  0  0  0
 51 61  1  0  0  0  0
 52 61  1  0  0  0  0
 53 62  1  0  0  0  0
 54 62  1  0  0  0  0
 55 62  1  0  0  0  0
 56 72  1  0  0  0  0
 57 58  1  0  0  0  0
 57 73  1  0  0  0  0
 58 80  1  0  0  0  0
 59 62  1  0  0  0  0
 59 71  1  0  0  0  0
 60 72  1  0  0  0  0
 61 73  1  0  0  0  0
 63 64  1  0  0  0  0
M  CHG  2  72   1  73   1
M  ISO  4  32 100  58 101  67 100  80 101
M  END
> <Batch ID>
0108

> <Smiles>
CNC(C)C(=O)NC(C(=O)N1Cc2cc([101O:1][101CH2:1]CN(C(C)C)C3CC[100N:0]([100C:0](=O)N4CCCC(n5nc(-c6ccc(Oc7ccc(F)cc7F)cc6)c(C(N)=O)c5N)C4)CC3)ccc2CC1C(=O)NC1CCCc2ccccc21)C(C)(C)C

> <Shape>
0.189

> <Color>
0.066

> <Negative vol penalty>
0.000

$$$$

  -OEChem-04052319533D

 84 92  0     1  0  0  0  0  0999 V2000
  -29.7561  -33.1322   21.0912 C   0  0  0  0  0  0  0  0  0  0  0  0
  -30.4759  -31.9890   21.4237 C   0  0  0  0  0  0  0  0  0  0  0  0
  -23.5191   -9.6399   20.5604 C   0  0  0  0  0  0  0  0  0  0  0  0
  -24.0293  -10.2410   22.8442 C   0  0  0  0  0  0  0  0  0  0  0  0
  -28.4607  -33.0173   20.5885 C   0  0  0  0  0  0  0  0  0  0  0  0
  -29.9002  -30.7303   21.2546 C   0  0  0  0  0  0  0  0  0  0  0  0
  -31.6289  -23.9767   19.6060 C   0  0  0  0  0  0  0  0  0  0  0  0
  -31.4422  -17.6724   20.7741 C   0  0  0  0  0  0  0  0  0  0  0  0
  -31.1163  -16.3690   21.1491 C   0  0  0  0  0  0  0  0  0  0  0  0
  -22.9090   -8.4672   21.0054 C   0  0  0  0  0  0  0  0  0  0  0  0
  -23.4191   -9.0682   23.2891 C   0  0  0  0  0  0  0  0  0  0  0  0
  -31.4734  -22.6772   20.0865 C   0  0  0  0  0  0  0  0  0  0  0  0
  -21.6775   -6.4079   25.0519 C   0  0  0  0  0  0  0  0  0  0  0  0
  -20.8157   -6.4987   26.1449 C   0  0  0  0  0  0  0  0  0  0  0  0
  -29.2579  -22.5971   19.1354 C   0  0  0  0  0  0  0  0  0  0  0  0
  -29.9835  -18.5329   22.4970 C   0  0  0  0  0  0  0  0  0  0  0  0
  -19.4135   -8.0318   24.9118 C   0  0  0  0  0  0  0  0  0  0  0  0
  -24.0793  -10.5268   21.4798 C   0  0  0  0  0  0  0  0  0  0  0  0
  -24.1018  -12.9927   20.8268 C   0  0  0  0  0  0  0  0  0  0  0  0
  -27.8725  -31.7561   20.4041 C   0  0  0  0  0  0  0  0  0  0  0  0
  -30.5941  -24.6012   18.8949 C   0  0  0  0  0  0  0  0  0  0  0  0
  -28.5953  -30.5984   20.7502 C   0  0  0  0  0  0  0  0  0  0  0  0
  -29.4037  -23.9037   18.6448 C   0  0  0  0  0  0  0  0  0  0  0  0
  -30.8759  -18.7544   21.4481 C   0  0  0  0  0  0  0  0  0  0  0  0
  -30.2240  -16.1476   22.1981 C   0  0  0  0  0  0  0  0  0  0  0  0
  -29.6576  -17.2296   22.8721 C   0  0  0  0  0  0  0  0  0  0  0  0
  -22.8590   -8.1814   22.3697 C   0  0  0  0  0  0  0  0  0  0  0  0
  -30.2867  -21.9882   19.8537 C   0  0  0  0  0  0  0  0  0  0  0  0
  -21.4073   -7.1291   23.8888 C   0  0  0  0  0  0  0  0  0  0  0  0
  -19.6837   -7.3107   26.0748 C   0  0  0  0  0  0  0  0  0  0  0  0
  -20.2753   -7.9410   23.8188 C   0  0  0  0  0  0  0  0  0  0  0  0
  -24.7103  -11.7382   21.0208 C   0  0  0  0  0  0  0  0  0  0  0  0
  -25.1194  -13.8035   20.3869 C   0  0  0  0  0  0  0  0  0  0  0  0
  -22.7386  -13.3897   21.0264 C   0  0  0  0  0  0  0  0  0  0  0  0
  -28.7990  -27.1843   19.3520 C   0  0  0  0  0  0  0  0  0  0  0  0
  -27.7143  -26.4791   16.3774 C   0  0  0  0  0  0  0  0  0  0  0  0
  -27.2274  -24.1269   13.9532 C   0  0  0  0  0  0  0  0  0  0  0  0
  -31.1567  -13.0881   21.1469 C   0  0  0  0  0  0  0  0  0  0  0  0
  -26.4521  -31.6840   19.9021 C   0  0  0  0  0  0  0  0  0  0  0  0
  -30.7877  -25.9937   18.3602 C   0  0  0  0  0  0  0  0  0  0  0  0
  -28.2703  -24.5219   17.8692 C   0  0  0  0  0  0  0  0  0  0  0  0
  -26.0529  -30.2985   19.4008 C   0  0  0  0  0  0  0  0  0  0  0  0
  -29.2677  -13.6751   18.0182 C   0  0  0  0  0  0  0  0  0  0  0  0
  -26.4898  -29.2254   20.3930 C   0  0  0  0  0  0  0  0  0  0  0  0
  -27.8448  -13.2794   18.4090 C   0  0  0  0  0  0  0  0  0  0  0  0
  -30.3112  -12.9184   18.8343 C   0  0  0  0  0  0  0  0  0  0  0  0
  -28.7080  -12.6471   20.6971 C   0  0  0  0  0  0  0  0  0  0  0  0
  -28.0144  -29.2144   20.5578 C   0  0  1  0  0  0  0  0  0  0  0  0
  -29.4726  -26.7190   18.0921 C   0  0  1  0  0  0  0  0  0  0  0  0
  -27.6317  -13.4255   19.9258 C   0  0  2  0  0  0  0  0  0  0  0  0
  -26.2836  -23.8426   11.6454 C   0  0  0  0  0  0  0  0  0  0  0  0
  -24.8887  -26.5512   17.5266 C   0  0  0  0  0  0  0  0  0  0  0  0
  -24.0982  -25.3558   15.4737 C   0  0  0  0  0  0  0  0  0  0  0  0
  -25.1279  -27.6194   15.2780 C   0  0  0  0  0  0  0  0  0  0  0  0
  -32.1089  -13.9132   23.2663 C   0  0  0  0  0  0  0  0  0  0  0  0
  -29.8466  -23.2884   12.8597 C   0  0  0  0  0  0  0  0  0  0  0  0
  -28.6995  -17.0168   23.9979 C   0  0  0  0  0  0  0  0  0  0  0  0
  -29.8893  -14.7433   22.5809 C   0  0  0  0  0  0  0  0  0  0  0  0
  -31.2263  -20.1563   21.0441 C   0  0  0  0  0  0  0  0  0  1  0  0
  -27.2624  -16.6837   23.5550 C   0  0  0  0  0  0  0  0  0  0  0  0
  -26.6004  -17.7269   22.6600 C   0  0  0  0  0  0  0  0  0  0  0  0
  -26.5950  -25.6331   15.8202 C   0  0  1  0  0  0  0  0  0  0  0  0
  -27.5302  -24.1358   12.4657 C   0  0  2  0  0  0  0  0  0  0  0  0
  -25.1979  -26.2786   16.0409 C   0  0  0  0  0  0  0  0  0  0  0  0
  -26.0134  -11.7463   20.7280 N   0  0  0  0  0  0  0  0  0  0  0  0
  -26.2322  -13.0159   20.3455 N   0  0  0  0  0  0  0  0  0  0  0  0
  -28.5053  -25.8878   17.3726 N   0  0  0  0  0  0  0  0  0  0  0  0
  -30.0599  -13.0384   20.2708 N   0  0  0  0  0  0  0  0  0  0  0  0
  -25.1620  -15.1062   20.0353 N   0  0  0  0  0  0  0  0  0  0  0  0
  -21.8235  -12.4311   21.4823 N   0  0  0  0  0  0  0  0  0  0  0  0
  -28.6397  -28.5546   19.4317 N   0  0  0  0  0  0  0  0  0  0  0  0
  -26.9259  -25.3886   14.4206 N   0  0  0  0  0  0  0  0  0  0  0  0
  -30.9963  -13.8226   22.3315 N   0  0  0  0  0  0  0  0  0  0  0  0
  -25.2084  -17.3345   22.3392 N   0  3  0  0  0  0  0  0  0  0  0  0
  -28.5593  -23.1080   12.1404 N   0  3  0  0  0  0  0  0  0  0  0  0
  -22.3403  -14.5557   20.7912 O   0  0  0  0  0  0  0  0  0  0  0  0
  -28.4484  -26.3609   20.1891 O   0  0  0  0  0  0  0  0  0  0  0  0
  -27.8851  -27.6199   15.9403 O   0  0  0  0  0  0  0  0  0  0  0  0
  -27.2518  -23.1025   14.6318 O   0  0  0  0  0  0  0  0  0  0  0  0
  -32.2219  -12.5168   20.8805 O   0  0  0  0  0  0  0  0  0  0  0  0
  -22.2634   -7.0372   22.8043 O   0  0  0  0  0  0  0  0  0  0  0  0
  -30.1320  -20.7199   20.3221 O   0  0  0  0  0  0  0  0  0  1  0  0
  -18.8554   -7.3966   27.1240 F   0  0  0  0  0  0  0  0  0  0  0  0
  -20.0099   -8.6353   22.7038 F   0  0  0  0  0  0  0  0  0  0  0  0
  1  2  1  0  0  0  0
  1  5  2  0  0  0  0
  2  6  2  0  0  0  0
  3 10  2  0  0  0  0
  3 18  1  0  0  0  0
  4 11  1  0  0  0  0
  4 18  2  0  0  0  0
  5 20  1  0  0  0  0
  6 22  1  0  0  0  0
  7 12  2  0  0  0  0
  7 21  1  0  0  0  0
  8  9  2  0  0  0  0
  8 24  1  0  0  0  0
  9 25  1  0  0  0  0
 10 27  1  0  0  0  0
 11 27  2  0  0  0  0
 12 28  1  0  0  0  0
 13 14  2  0  0  0  0
 13 29  1  0  0  0  0
 14 30  1  0  0  0  0
 15 23  1  0  0  0  0
 15 28  2  0  0  0  0
 16 24  2  0  0  0  0
 16 26  1  0  0  0  0
 17 30  2  0  0  0  0
 17 31  1  0  0  0  0
 18 32  1  0  0  0  0
 19 32  1  0  0  0  0
 19 33  2  0  0  0  0
 19 34  1  0  0  0  0
 20 22  2  0  0  0  0
 20 39  1  0  0  0  0
 21 23  2  0  0  0  0
 21 40  1  0  0  0  0
 22 48  1  0  0  0  0
 23 41  1  0  0  0  0
 24 59  1  0  0  0  0
 25 26  2  0  0  0  0
 25 58  1  0  0  0  0
 26 57  1  0  0  0  0
 27 81  1  0  0  0  0
 28 82  1  0  0  0  0
 29 31  2  0  0  0  0
 29 81  1  0  0  0  0
 30 83  1  0  0  0  0
 31 84  1  0  0  0  0
 32 65  2  0  0  0  0
 33 66  1  0  0  0  0
 33 69  1  0  0  0  0
 34 70  1  0  0  0  0
 34 76  2  0  0  0  0
 35 49  1  0  0  0  0
 35 71  1  0  0  0  0
 35 77  2  0  0  0  0
 36 62  1  0  0  0  0
 36 67  1  0  0  0  0
 36 78  2  0  0  0  0
 37 63  1  0  0  0  0
 37 72  1  0  0  0  0
 37 79  2  0  0  0  0
 38 68  1  0  0  0  0
 38 73  1  0  0  0  0
 38 80  2  0  0  0  0
 39 42  1  0  0  0  0
 40 49  1  0  0  0  0
 41 67  1  0  0  0  0
 42 44  1  0  0  0  0
 43 45  1  0  0  0  0
 43 46  1  0  0  0  0
 44 48  1  0  0  0  0
 45 50  1  0  0  0  0
 46 68  1  0  0  0  0
 47 50  1  0  0  0  0
 47 68  1  0  0  0  0
 48 71  1  0  0  0  0
 49 67  1  0  0  0  0
 50 66  1  0  0  0  0
 51 63  1  0  0  0  0
 52 64  1  0  0  0  0
 53 64  1  0  0  0  0
 54 64  1  0  0  0  0
 55 73  1  0  0  0  0
 56 75  1  0  0  0  0
 57 60  1  0  0  0  0
 58 73  1  0  0  0  0
 59 82  1  0  0  0  0
 60 61  1  0  0  0  0
 61 74  1  0  0  0  0
 62 64  1  0  0  0  0
 62 72  1  0  0  0  0
 63 75  1  0  0  0  0
 65 66  1  0  0  0  0
M  CHG  2  74   1  75   1
M  ISO  4  38 100  59 101  73 100  82 101
M  END
> <Batch ID>
0108

> <Smiles>
CNC(C)C(=O)NC(C(=O)N1Cc2cc([101O:1][101CH2:1]c3ccc(C[100N:0](C)[100C:0](=O)N4CCCC(n5nc(-c6ccc(Oc7ccc(F)cc7F)cc6)c(C(N)=O)c5N)C4)c(CCCN)c3)ccc2CC1C(=O)NC1CCCc2ccccc21)C(C)(C)C

> <Shape>
0.255

> <Color>
0.168

> <Negative vol penalty>
0.000

$$$$

  -OEChem-04052319533D

 85 93  0     1  0  0  0  0  0999 V2000
  -26.9954  -32.0758   24.0455 C   0  0  0  0  0  0  0  0  0  0  0  0
  -26.4892  -30.8717   23.5665 C   0  0  0  0  0  0  0  0  0  0  0  0
  -23.1049   -9.7630   19.9923 C   0  0  0  0  0  0  0  0  0  0  0  0
  -23.8354   -9.8858   22.2919 C   0  0  0  0  0  0  0  0  0  0  0  0
  -28.3682  -32.3168   24.0100 C   0  0  0  0  0  0  0  0  0  0  0  0
  -27.3554  -29.9084   23.0508 C   0  0  0  0  0  0  0  0  0  0  0  0
  -28.1261  -22.8065   22.5167 C   0  0  0  0  0  0  0  0  0  0  0  0
  -22.3884   -8.6018   20.2819 C   0  0  0  0  0  0  0  0  0  0  0  0
  -23.1188   -8.7246   22.5815 C   0  0  0  0  0  0  0  0  0  0  0  0
  -28.3548  -21.8167   21.5618 C   0  0  0  0  0  0  0  0  0  0  0  0
  -19.9053   -7.8667   23.1799 C   0  0  0  0  0  0  0  0  0  0  0  0
  -19.1350   -7.8554   24.3426 C   0  0  0  0  0  0  0  0  0  0  0  0
  -30.7152  -22.3105   21.6239 C   0  0  0  0  0  0  0  0  0  0  0  0
  -20.4173   -5.9841   25.1740 C   0  0  0  0  0  0  0  0  0  0  0  0
  -23.8285  -10.4050   20.9973 C   0  0  0  0  0  0  0  0  0  0  0  0
  -24.1055  -12.9311   20.7754 C   0  0  0  0  0  0  0  0  0  0  0  0
  -29.2526  -31.3520   23.5025 C   0  0  0  0  0  0  0  0  0  0  0  0
  -29.1908  -23.5644   23.0252 C   0  0  0  0  0  0  0  0  0  0  0  0
  -28.7412  -30.1372   23.0072 C   0  0  0  0  0  0  0  0  0  0  0  0
  -30.4977  -23.3076   22.5870 C   0  0  0  0  0  0  0  0  0  0  0  0
  -22.3953   -8.0826   21.5765 C   0  0  0  0  0  0  0  0  0  0  0  0
  -29.6491  -21.5705   21.1131 C   0  0  0  0  0  0  0  0  0  0  0  0
  -20.9317   -6.9367   23.0141 C   0  0  0  0  0  0  0  0  0  0  0  0
  -19.3910   -6.9141   25.3397 C   0  0  0  0  0  0  0  0  0  0  0  0
  -21.1877   -5.9954   24.0111 C   0  0  0  0  0  0  0  0  0  0  0  0
  -24.5693  -11.6042   20.6987 C   0  0  0  0  0  0  0  0  0  0  0  0
  -25.1822  -13.6937   20.3936 C   0  0  0  0  0  0  0  0  0  0  0  0
  -22.8168  -13.4299   21.1577 C   0  0  0  0  0  0  0  0  0  0  0  0
  -29.9591  -26.6487   23.0052 C   0  0  0  0  0  0  0  0  0  0  0  0
  -32.3542  -25.6647   24.9590 C   0  0  0  0  0  0  0  0  0  0  0  0
  -34.3717  -23.1231   26.0157 C   0  0  0  0  0  0  0  0  0  0  0  0
  -30.6346  -14.8657   20.6020 C   0  0  0  0  0  0  0  0  0  0  0  0
  -30.7241  -31.6769   23.4412 C   0  0  0  0  0  0  0  0  0  0  0  0
  -28.9308  -24.6103   24.0745 C   0  0  0  0  0  0  0  0  0  0  0  0
  -31.6777  -24.0796   23.1163 C   0  0  0  0  0  0  0  0  0  0  0  0
  -31.6097  -30.4526   23.2239 C   0  0  0  0  0  0  0  0  0  0  0  0
  -29.5899  -12.3543   18.3045 C   0  0  0  0  0  0  0  0  0  0  0  0
  -31.0483  -29.5792   22.1063 C   0  0  0  0  0  0  0  0  0  0  0  0
  -28.1553  -12.0407   18.7328 C   0  0  0  0  0  0  0  0  0  0  0  0
  -29.6903  -17.9085   22.6348 C   0  0  0  0  0  0  0  0  0  0  0  0
  -31.9441  -16.7994   22.5045 C   0  0  0  0  0  0  0  0  0  0  0  0
  -30.4858  -12.6494   19.5055 C   0  0  0  0  0  0  0  0  0  0  0  0
  -28.5482  -13.3866   20.8382 C   0  0  0  0  0  0  0  0  0  0  0  0
  -29.4733  -17.2994   24.0154 C   0  0  0  0  0  0  0  0  0  0  0  0
  -31.7221  -16.1926   23.8854 C   0  0  0  0  0  0  0  0  0  0  0  0
  -29.6511  -29.0575   22.4630 C   0  0  1  0  0  0  0  0  0  0  0  0
  -30.0248  -25.6713   24.1444 C   0  0  1  0  0  0  0  0  0  0  0  0
  -27.5939  -13.1371   19.6579 C   0  0  2  0  0  0  0  0  0  0  0  0
  -30.6285  -17.0669   21.7482 C   0  0  0  0  0  0  0  0  0  0  0  0
  -36.2581  -22.6326   27.5964 C   0  0  0  0  0  0  0  0  0  0  0  0
  -31.9251  -16.8983   26.8638 C   0  0  0  0  0  0  0  0  0  0  0  0
  -30.3405  -15.1059   26.0573 C   0  0  0  0  0  0  0  0  0  0  0  0
  -34.3026  -27.0422   23.0574 C   0  0  0  0  0  0  0  0  0  0  0  0
  -36.1561  -25.7421   24.1261 C   0  0  0  0  0  0  0  0  0  0  0  0
  -34.8193  -27.3514   25.4847 C   0  0  0  0  0  0  0  0  0  0  0  0
  -30.1682  -18.5105   18.1789 C   0  0  0  0  0  0  0  0  0  0  0  0
  -28.6622  -17.0800   19.5669 C   0  0  0  0  0  0  0  0  0  0  0  0
  -32.7565  -21.1465   27.5134 C   0  0  0  0  0  0  0  0  0  0  0  0
  -30.9246  -17.8285   20.4620 C   0  0  0  0  0  0  0  0  0  0  0  0
  -28.9851  -19.4899   20.1718 C   0  0  0  0  0  0  0  0  0  1  0  0
  -33.7664  -25.1719   24.7546 C   0  0  1  0  0  0  0  0  0  0  0  0
  -34.7491  -22.6488   27.4075 C   0  0  2  0  0  0  0  0  0  0  0  0
  -30.6472  -16.5943   26.0984 C   0  0  0  0  0  0  0  0  0  0  0  0
  -34.7388  -26.3135   24.3441 C   0  0  0  0  0  0  0  0  0  0  0  0
  -29.6841  -18.2298   19.6178 C   0  0  0  0  0  0  0  0  0  0  0  0
  -25.8414  -11.5248   20.2994 N   0  0  0  0  0  0  0  0  0  0  0  0
  -26.1861  -12.8115   20.1216 N   0  0  0  0  0  0  0  0  0  0  0  0
  -31.3714  -25.0961   24.1364 N   0  0  0  0  0  0  0  0  0  0  0  0
  -29.8974  -13.6988   20.3411 N   0  0  0  0  0  0  0  0  0  0  0  0
  -25.3586  -15.0261   20.2672 N   0  0  0  0  0  0  0  0  0  0  0  0
  -21.8249  -12.5088   21.5212 N   0  0  0  0  0  0  0  0  0  0  0  0
  -29.7461  -27.9565   23.3974 N   0  0  0  0  0  0  0  0  0  0  0  0
  -34.1400  -24.4820   25.9845 N   0  0  0  0  0  0  0  0  0  0  0  0
  -30.0007  -15.8125   21.3974 N   0  0  0  0  0  0  0  0  0  0  0  0
  -30.8083  -17.0873   24.6863 N   0  3  0  0  0  0  0  0  0  0  0  0
  -34.2311  -21.2716   27.6436 N   0  3  0  0  0  0  0  0  0  0  0  0
  -22.5477  -14.6551   21.1606 O   0  0  0  0  0  0  0  0  0  0  0  0
  -30.0932  -26.2465   21.8554 O   0  0  0  0  0  0  0  0  0  0  0  0
  -32.1301  -26.5173   25.8218 O   0  0  0  0  0  0  0  0  0  0  0  0
  -34.2941  -22.3646   25.0518 O   0  0  0  0  0  0  0  0  0  0  0  0
  -31.7712  -15.0524   20.1545 O   0  0  0  0  0  0  0  0  0  0  0  0
  -21.6960   -6.9497   21.8594 O   0  0  0  0  0  0  0  0  0  0  0  0
  -29.8749  -20.6055   20.1807 O   0  0  0  0  0  0  0  0  0  1  0  0
  -18.6522   -6.9043   26.4569 F   0  0  0  0  0  0  0  0  0  0  0  0
  -22.1730   -5.1002   23.8581 F   0  0  0  0  0  0  0  0  0  0  0  0
  1  2  1  0  0  0  0
  1  5  2  0  0  0  0
  2  6  2  0  0  0  0
  3  8  2  0  0  0  0
  3 15  1  0  0  0  0
  4  9  1  0  0  0  0
  4 15  2  0  0  0  0
  5 17  1  0  0  0  0
  6 19  1  0  0  0  0
  7 10  2  0  0  0  0
  7 18  1  0  0  0  0
  8 21  1  0  0  0  0
  9 21  2  0  0  0  0
 10 22  1  0  0  0  0
 11 12  2  0  0  0  0
 11 23  1  0  0  0  0
 12 24  1  0  0  0  0
 13 20  1  0  0  0  0
 13 22  2  0  0  0  0
 14 24  2  0  0  0  0
 14 25  1  0  0  0  0
 15 26  1  0  0  0  0
 16 26  1  0  0  0  0
 16 27  2  0  0  0  0
 16 28  1  0  0  0  0
 17 19  2  0  0  0  0
 17 33  1  0  0  0  0
 18 20  2  0  0  0  0
 18 34  1  0  0  0  0
 19 46  1  0  0  0  0
 20 35  1  0  0  0  0
 21 82  1  0  0  0  0
 22 83  1  0  0  0  0
 23 25  2  0  0  0  0
 23 82  1  0  0  0  0
 24 84  1  0  0  0  0
 25 85  1  0  0  0  0
 26 66  2  0  0  0  0
 27 67  1  0  0  0  0
 27 70  1  0  0  0  0
 28 71  1  0  0  0  0
 28 77  2  0  0  0  0
 29 47  1  0  0  0  0
 29 72  1  0  0  0  0
 29 78  2  0  0  0  0
 30 61  1  0  0  0  0
 30 68  1  0  0  0  0
 30 79  2  0  0  0  0
 31 62  1  0  0  0  0
 31 73  1  0  0  0  0
 31 80  2  0  0  0  0
 32 69  1  0  0  0  0
 32 74  1  0  0  0  0
 32 81  2  0  0  0  0
 33 36  1  0  0  0  0
 34 47  1  0  0  0  0
 35 68  1  0  0  0  0
 36 38  1  0  0  0  0
 37 39  1  0  0  0  0
 37 42  1  0  0  0  0
 38 46  1  0  0  0  0
 39 48  1  0  0  0  0
 40 44  1  0  0  0  0
 40 49  1  0  0  0  0
 41 45  1  0  0  0  0
 41 49  1  0  0  0  0
 42 69  1  0  0  0  0
 43 48  1  0  0  0  0
 43 69  1  0  0  0  0
 44 75  1  0  0  0  0
 45 75  1  0  0  0  0
 46 72  1  0  0  0  0
 47 68  1  0  0  0  0
 48 67  1  0  0  0  0
 49 59  1  0  0  0  0
 49 74  1  0  0  0  0
 50 62  1  0  0  0  0
 51 63  1  0  0  0  0
 52 63  1  0  0  0  0
 53 64  1  0  0  0  0
 54 64  1  0  0  0  0
 55 64  1  0  0  0  0
 56 65  1  0  0  0  0
 57 65  1  0  0  0  0
 58 76  1  0  0  0  0
 59 65  1  0  0  0  0
 60 65  1  0  0  0  0
 60 83  1  0  0  0  0
 61 64  1  0  0  0  0
 61 73  1  0  0  0  0
 62 76  1  0  0  0  0
 63 75  1  0  0  0  0
 66 67  1  0  0  0  0
M  CHG  2  75   1  76   1
M  ISO  4  32 100  60 101  74 100  83 101
M  END
> <Batch ID>
0108

> <Smiles>
CNC(C)C(=O)NC(C(=O)N1Cc2cc([101O:1][101CH2:1]C(C)(C)CC3([100NH:0][100C:0](=O)N4CCCC(n5nc(-c6ccc(Oc7ccc(F)cc7F)cc6)c(C(N)=O)c5N)C4)CCN(C(C)C)CC3)ccc2CC1C(=O)NC1CCCc2ccccc21)C(C)(C)C

> <Shape>
0.257

> <Color>
0.197

> <Negative vol penalty>
0.000

$$$$

  -OEChem-04052319533D

 84 92  0     1  0  0  0  0  0999 V2000
  -39.1352  -21.0606   19.3284 C   0  0  0  0  0  0  0  0  0  0  0  0
  -37.7610  -21.0953   19.5427 C   0  0  0  0  0  0  0  0  0  0  0  0
  -23.1240   -9.7788   20.0815 C   0  0  0  0  0  0  0  0  0  0  0  0
  -23.9727   -9.9532   22.3367 C   0  0  0  0  0  0  0  0  0  0  0  0
  -39.9303  -22.1307   19.7364 C   0  0  0  0  0  0  0  0  0  0  0  0
  -37.1813  -22.1997   20.1660 C   0  0  0  0  0  0  0  0  0  0  0  0
  -32.9601  -23.7510   17.8379 C   0  0  0  0  0  0  0  0  0  0  0  0
  -22.4601   -8.6004   20.4224 C   0  0  0  0  0  0  0  0  0  0  0  0
  -23.3087   -8.7749   22.6778 C   0  0  0  0  0  0  0  0  0  0  0  0
  -31.7977  -23.0178   18.0721 C   0  0  0  0  0  0  0  0  0  0  0  0
  -23.7729   -5.4495   22.2813 C   0  0  0  0  0  0  0  0  0  0  0  0
  -24.4760   -4.5013   23.0243 C   0  0  0  0  0  0  0  0  0  0  0  0
  -31.0820  -24.6749   19.6724 C   0  0  0  0  0  0  0  0  0  0  0  0
  -22.8364   -4.6701   24.7909 C   0  0  0  0  0  0  0  0  0  0  0  0
  -23.8804  -10.4552   21.0386 C   0  0  0  0  0  0  0  0  0  0  0  0
  -24.0674  -12.9854   20.7734 C   0  0  0  0  0  0  0  0  0  0  0  0
  -39.3588  -23.2531   20.3564 C   0  0  0  0  0  0  0  0  0  0  0  0
  -33.1978  -24.9481   18.5284 C   0  0  0  0  0  0  0  0  0  0  0  0
  -37.9697  -23.2853   20.5839 C   0  0  0  0  0  0  0  0  0  0  0  0
  -32.2471  -25.4227   19.4433 C   0  0  0  0  0  0  0  0  0  0  0  0
  -22.5524   -8.0985   21.7206 C   0  0  0  0  0  0  0  0  0  0  0  0
  -30.8597  -23.4782   18.9915 C   0  0  0  0  0  0  0  0  0  0  0  0
  -22.6017   -6.0081   22.7930 C   0  0  0  0  0  0  0  0  0  0  0  0
  -24.0077   -4.1115   24.2791 C   0  0  0  0  0  0  0  0  0  0  0  0
  -22.1334   -5.6184   24.0478 C   0  0  0  0  0  0  0  0  0  0  0  0
  -24.5669  -11.6721   20.6868 C   0  0  0  0  0  0  0  0  0  0  0  0
  -25.0981  -13.7750   20.3254 C   0  0  0  0  0  0  0  0  0  0  0  0
  -22.7864  -13.4501   21.2191 C   0  0  0  0  0  0  0  0  0  0  0  0
  -35.4244  -25.9636   20.5568 C   0  0  0  0  0  0  0  0  0  0  0  0
  -33.8711  -28.7933   20.2369 C   0  0  0  0  0  0  0  0  0  0  0  0
  -30.9835  -30.4427   19.4701 C   0  0  0  0  0  0  0  0  0  0  0  0
  -30.6785  -14.8195   20.6834 C   0  0  0  0  0  0  0  0  0  0  0  0
  -40.2650  -24.3649   20.8226 C   0  0  0  0  0  0  0  0  0  0  0  0
  -34.4441  -25.7410   18.2448 C   0  0  0  0  0  0  0  0  0  0  0  0
  -32.4453  -26.7123   20.1957 C   0  0  0  0  0  0  0  0  0  0  0  0
  -39.5248  -25.6621   21.1384 C   0  0  0  0  0  0  0  0  0  0  0  0
  -29.4217  -12.5784   18.0115 C   0  0  0  0  0  0  0  0  0  0  0  0
  -38.2880  -25.3784   21.9850 C   0  0  0  0  0  0  0  0  0  0  0  0
  -28.0348  -12.1972   18.5258 C   0  0  0  0  0  0  0  0  0  0  0  0
  -31.2402  -17.7396   22.4706 C   0  0  0  0  0  0  0  0  0  0  0  0
  -29.1979  -18.0000   21.0066 C   0  0  0  0  0  0  0  0  0  0  0  0
  -30.3789  -12.9065   19.1530 C   0  0  0  0  0  0  0  0  0  0  0  0
  -30.8637  -16.2752   22.6789 C   0  0  0  0  0  0  0  0  0  0  0  0
  -28.8755  -16.5185   21.2231 C   0  0  0  0  0  0  0  0  0  0  0  0
  -28.4828  -13.5750   20.5953 C   0  0  0  0  0  0  0  0  0  0  0  0
  -37.3007  -24.4766   21.2345 C   0  0  1  0  0  0  0  0  0  0  0  0
  -34.8244  -26.6836   19.3825 C   0  0  1  0  0  0  0  0  0  0  0  0
  -27.4827  -13.2817   19.4669 C   0  0  2  0  0  0  0  0  0  0  0  0
  -29.9902  -18.5684   22.1819 C   0  0  0  0  0  0  0  0  0  0  0  0
  -30.0099  -32.7517   19.3360 C   0  0  0  0  0  0  0  0  0  0  0  0
  -27.3833  -21.1111   19.7531 C   0  0  0  0  0  0  0  0  0  0  0  0
  -30.2670  -21.0395   24.0714 C   0  0  0  0  0  0  0  0  0  0  0  0
  -32.0012  -21.7503   22.3798 C   0  0  0  0  0  0  0  0  0  0  0  0
  -33.6584  -28.8777   23.2795 C   0  0  0  0  0  0  0  0  0  0  0  0
  -31.9015  -30.6449   23.0380 C   0  0  0  0  0  0  0  0  0  0  0  0
  -34.2166  -31.0692   22.2116 C   0  0  0  0  0  0  0  0  0  0  0  0
  -30.4373  -30.1699   16.5742 C   0  0  0  0  0  0  0  0  0  0  0  0
  -29.2225  -20.8333   21.4881 C   0  0  0  0  0  0  0  0  0  0  0  0
  -29.8038  -21.3484   19.0630 C   0  0  0  0  0  0  0  0  0  1  0  0
  -32.7228  -29.4688   20.9468 C   0  0  1  0  0  0  0  0  0  0  0  0
  -30.7140  -31.6390   18.5752 C   0  0  2  0  0  0  0  0  0  0  0  0
  -28.8231  -20.6572   20.0185 C   0  0  2  0  0  0  0  0  0  0  0  0
  -31.2111  -20.5919   22.9672 C   0  0  0  0  0  0  0  0  0  0  0  0
  -33.1217  -29.9898   22.3564 C   0  0  0  0  0  0  0  0  0  0  0  0
  -25.8176  -11.6259   20.2203 N   0  0  0  0  0  0  0  0  0  0  0  0
  -26.1127  -12.9199   20.0096 N   0  0  0  0  0  0  0  0  0  0  0  0
  -33.6827  -27.4484   19.8884 N   0  0  0  0  0  0  0  0  0  0  0  0
  -29.8130  -13.9046   20.0607 N   0  0  0  0  0  0  0  0  0  0  0  0
  -30.0944  -15.7612   21.5440 N   0  0  0  0  0  0  0  0  0  0  0  0
  -25.2265  -15.1104   20.1746 N   0  0  0  0  0  0  0  0  0  0  0  0
  -21.8441  -12.5045   21.6460 N   0  0  0  0  0  0  0  0  0  0  0  0
  -36.5629  -25.2420   20.2525 N   0  0  0  0  0  0  0  0  0  0  0  0
  -32.2365  -30.5050   20.0423 N   0  0  0  0  0  0  0  0  0  0  0  0
  -29.8560  -31.2413   17.4234 N   0  3  0  0  0  0  0  0  0  0  0  0
  -30.3948  -19.9627   21.8660 N   0  3  1  0  0  0  0  0  0  0  0  0
  -22.4803  -14.6666   21.2227 O   0  0  0  0  0  0  0  0  0  0  0  0
  -34.8946  -26.0571   21.6579 O   0  0  0  0  0  0  0  0  0  0  0  0
  -34.8948  -29.4374   19.9939 O   0  0  0  0  0  0  0  0  0  0  0  0
  -30.1631  -29.5449   19.6470 O   0  0  0  0  0  0  0  0  0  0  0  0
  -31.8988  -14.7964   20.4798 O   0  0  0  0  0  0  0  0  0  0  0  0
  -21.9044   -6.9488   22.0537 O   0  0  0  0  0  0  0  0  0  0  0  0
  -29.7169  -22.7593   19.2240 O   0  0  0  0  0  0  0  0  0  1  0  0
  -24.6821   -3.1998   24.9919 F   0  0  0  0  0  0  0  0  0  0  0  0
  -21.0082   -6.1506   24.5441 F   0  0  0  0  0  0  0  0  0  0  0  0
  1  2  1  0  0  0  0
  1  5  2  0  0  0  0
  2  6  2  0  0  0  0
  3  8  2  0  0  0  0
  3 15  1  0  0  0  0
  4  9  1  0  0  0  0
  4 15  2  0  0  0  0
  5 17  1  0  0  0  0
  6 19  1  0  0  0  0
  7 10  2  0  0  0  0
  7 18  1  0  0  0  0
  8 21  1  0  0  0  0
  9 21  2  0  0  0  0
 10 22  1  0  0  0  0
 11 12  2  0  0  0  0
 11 23  1  0  0  0  0
 12 24  1  0  0  0  0
 13 20  1  0  0  0  0
 13 22  2  0  0  0  0
 14 24  2  0  0  0  0
 14 25  1  0  0  0  0
 15 26  1  0  0  0  0
 16 26  1  0  0  0  0
 16 27  2  0  0  0  0
 16 28  1  0  0  0  0
 17 19  2  0  0  0  0
 17 33  1  0  0  0  0
 18 20  2  0  0  0  0
 18 34  1  0  0  0  0
 19 46  1  0  0  0  0
 20 35  1  0  0  0  0
 21 81  1  0  0  0  0
 22 82  1  0  0  0  0
 23 25  2  0  0  0  0
 23 81  1  0  0  0  0
 24 83  1  0  0  0  0
 25 84  1  0  0  0  0
 26 65  2  0  0  0  0
 27 66  1  0  0  0  0
 27 70  1  0  0  0  0
 28 71  1  0  0  0  0
 28 76  2  0  0  0  0
 29 47  1  0  0  0  0
 29 72  1  0  0  0  0
 29 77  2  0  0  0  0
 30 60  1  0  0  0  0
 30 67  1  0  0  0  0
 30 78  2  0  0  0  0
 31 61  1  0  0  0  0
 31 73  1  0  0  0  0
 31 79  2  0  0  0  0
 32 68  1  0  0  0  0
 32 69  1  0  0  0  0
 32 80  2  0  0  0  0
 33 36  1  0  0  0  0
 34 47  1  0  0  0  0
 35 67  1  0  0  0  0
 36 38  1  0  0  0  0
 37 39  1  0  0  0  0
 37 42  1  0  0  0  0
 38 46  1  0  0  0  0
 39 48  1  0  0  0  0
 40 43  1  0  0  0  0
 40 49  1  0  0  0  0
 41 44  1  0  0  0  0
 41 49  1  0  0  0  0
 42 68  1  0  0  0  0
 43 69  1  0  0  0  0
 44 69  1  0  0  0  0
 45 48  1  0  0  0  0
 45 68  1  0  0  0  0
 46 72  1  0  0  0  0
 47 67  1  0  0  0  0
 48 66  1  0  0  0  0
 49 75  1  0  0  0  0
 50 61  1  0  0  0  0
 51 62  1  0  0  0  0
 52 63  1  0  0  0  0
 53 63  1  0  0  0  0
 54 64  1  0  0  0  0
 55 64  1  0  0  0  0
 56 64  1  0  0  0  0
 57 74  1  0  0  0  0
 58 62  1  0  0  0  0
 58 75  1  0  0  0  0
 59 62  1  0  0  0  0
 59 82  1  0  0  0  0
 60 64  1  0  0  0  0
 60 73  1  0  0  0  0
 61 74  1  0  0  0  0
 63 75  1  0  0  0  0
 65 66  1  0  0  0  0
M  CHG  2  74   1  75   1
M  ISO  4  32 100  59 101  69 100  82 101
M  END
> <Batch ID>
0108

> <Smiles>
CNC(C)C(=O)NC(C(=O)N1Cc2cc([101O:1][101CH2:1]C(C)CN(C(C)C)C3CC[100N:0]([100C:0](=O)N4CCCC(n5nc(-c6ccc(Oc7ccc(F)cc7F)cc6)c(C(N)=O)c5N)C4)CC3)ccc2CC1C(=O)NC1CCCc2ccccc21)C(C)(C)C

> <Shape>
0.227

> <Color>
0.184

> <Negative vol penalty>
0.000

$$$$

  -OEChem-04052319533D

 87 96  0     1  0  0  0  0  0999 V2000
  -25.6408  -31.2181   13.2835 C   0  0  0  0  0  0  0  0  0  0  0  0
  -25.7818  -29.9238   13.7737 C   0  0  0  0  0  0  0  0  0  0  0  0
  -23.0977   -9.8586   19.9253 C   0  0  0  0  0  0  0  0  0  0  0  0
  -23.8500   -9.8657   22.2212 C   0  0  0  0  0  0  0  0  0  0  0  0
  -26.3418  -32.2672   13.8768 C   0  0  0  0  0  0  0  0  0  0  0  0
  -26.6248  -29.6776   14.8569 C   0  0  0  0  0  0  0  0  0  0  0  0
  -24.5225  -26.6140   18.2977 C   0  0  0  0  0  0  0  0  0  0  0  0
  -22.3858   -8.6827   20.1622 C   0  0  0  0  0  0  0  0  0  0  0  0
  -23.1381   -8.6899   22.4581 C   0  0  0  0  0  0  0  0  0  0  0  0
  -24.5057  -25.2499   18.0101 C   0  0  0  0  0  0  0  0  0  0  0  0
  -23.5240   -5.3827   21.8714 C   0  0  0  0  0  0  0  0  0  0  0  0
  -24.1659   -4.3685   22.5821 C   0  0  0  0  0  0  0  0  0  0  0  0
  -26.4226  -24.9310   19.4395 C   0  0  0  0  0  0  0  0  0  0  0  0
  -26.4000  -20.6658   19.3424 C   0  0  0  0  0  0  0  0  0  0  0  0
  -29.1603  -20.2628   19.3721 C   0  0  0  0  0  0  0  0  0  0  0  0
  -22.4550   -4.4785   24.2844 C   0  0  0  0  0  0  0  0  0  0  0  0
  -23.8299  -10.4501   20.9548 C   0  0  0  0  0  0  0  0  0  0  0  0
  -24.1009  -12.9848   20.8589 C   0  0  0  0  0  0  0  0  0  0  0  0
  -27.1864  -32.0353   14.9739 C   0  0  0  0  0  0  0  0  0  0  0  0
  -25.4978  -27.1495   19.1513 C   0  0  0  0  0  0  0  0  0  0  0  0
  -27.3388  -30.7244   15.4645 C   0  0  0  0  0  0  0  0  0  0  0  0
  -26.4480  -26.3018   19.7384 C   0  0  0  0  0  0  0  0  0  0  0  0
  -27.2292  -21.4589   18.5493 C   0  0  0  0  0  0  0  0  0  0  0  0
  -26.9510  -19.6712   20.1505 C   0  0  0  0  0  0  0  0  0  0  0  0
  -28.6093  -21.2574   18.5641 C   0  0  0  0  0  0  0  0  0  0  0  0
  -28.3311  -19.4697   20.1653 C   0  0  0  0  0  0  0  0  0  0  0  0
  -22.4059   -8.0984   21.4286 C   0  0  0  0  0  0  0  0  0  0  0  0
  -25.4576  -24.4087   18.5787 C   0  0  0  0  0  0  0  0  0  0  0  0
  -22.3477   -5.9449   22.3673 C   0  0  0  0  0  0  0  0  0  0  0  0
  -23.6314   -3.9163   23.7885 C   0  0  0  0  0  0  0  0  0  0  0  0
  -21.8132   -5.4927   23.5738 C   0  0  0  0  0  0  0  0  0  0  0  0
  -24.5660  -11.6644   20.7105 C   0  0  0  0  0  0  0  0  0  0  0  0
  -25.1727  -13.7680   20.5062 C   0  0  0  0  0  0  0  0  0  0  0  0
  -22.8152  -13.4609   21.2783 C   0  0  0  0  0  0  0  0  0  0  0  0
  -27.8316  -29.2835   18.8311 C   0  0  0  0  0  0  0  0  0  0  0  0
  -28.1322  -28.8568   22.0327 C   0  0  0  0  0  0  0  0  0  0  0  0
  -27.6378  -26.8479   24.7468 C   0  0  0  0  0  0  0  0  0  0  0  0
  -30.6250  -14.9389   20.7221 C   0  0  0  0  0  0  0  0  0  0  0  0
  -27.9600  -33.1936   15.5521 C   0  0  0  0  0  0  0  0  0  0  0  0
  -25.4859  -28.6188   19.4727 C   0  0  0  0  0  0  0  0  0  0  0  0
  -27.5037  -26.8238   20.6773 C   0  0  0  0  0  0  0  0  0  0  0  0
  -28.5438  -32.9074   16.9332 C   0  0  0  0  0  0  0  0  0  0  0  0
  -29.5623  -12.5455   18.3099 C   0  0  0  0  0  0  0  0  0  0  0  0
  -29.2262  -31.5433   16.9521 C   0  0  0  0  0  0  0  0  0  0  0  0
  -31.1849  -23.2824   19.3695 C   0  0  0  0  0  0  0  0  0  0  0  0
  -31.2801  -24.0122   18.0587 C   0  0  0  0  0  0  0  0  0  0  0  0
  -28.1323  -12.2075   18.7353 C   0  0  0  0  0  0  0  0  0  0  0  0
  -30.4691  -12.7809   19.5158 C   0  0  0  0  0  0  0  0  0  0  0  0
  -28.5433  -13.4455   20.9027 C   0  0  0  0  0  0  0  0  0  0  0  0
  -28.2246  -30.4212   16.6535 C   0  0  1  0  0  0  0  0  0  0  0  0
  -26.8391  -29.1371   19.9497 C   0  0  1  0  0  0  0  0  0  0  0  0
  -29.9920  -23.3462   18.4564 C   0  0  0  0  0  0  0  0  0  0  0  0
  -27.5781  -13.2545   19.7202 C   0  0  2  0  0  0  0  0  0  0  0  0
  -26.0398  -18.8380   20.9919 C   0  0  0  0  0  0  0  0  0  0  0  0
  -26.2263  -22.0054   16.3046 C   0  0  0  0  0  0  0  0  0  0  0  0
  -28.0220  -26.7550   27.2249 C   0  0  0  0  0  0  0  0  0  0  0  0
  -31.0862  -28.2641   21.5501 C   0  0  0  0  0  0  0  0  0  0  0  0
  -31.1907  -27.2726   23.8466 C   0  0  0  0  0  0  0  0  0  0  0  0
  -30.6211  -29.6838   23.5558 C   0  0  0  0  0  0  0  0  0  0  0  0
  -24.7383  -26.6505   25.3060 C   0  0  0  0  0  0  0  0  0  0  0  0
  -29.5165  -22.0950   17.7241 C   0  0  0  0  0  0  0  0  0  0  0  0
  -30.3136  -18.2243   21.0280 C   0  0  0  0  0  0  0  0  0  0  0  0
  -30.6265  -17.0790   21.9788 C   0  0  0  0  0  0  0  0  0  0  0  0
  -26.6091  -22.5307   17.6824 C   0  0  1  0  0  0  0  0  0  1  0  0
  -28.9227  -27.9232   22.9172 C   0  0  1  0  0  0  0  0  0  0  0  0
  -27.0508  -27.1330   26.1174 C   0  0  2  0  0  0  0  0  0  0  0  0
  -30.4366  -28.2761   22.9482 C   0  0  0  0  0  0  0  0  0  0  0  0
  -25.8343  -11.6080   20.2956 N   0  0  0  0  0  0  0  0  0  0  0  0
  -26.1753  -12.9028   20.1802 N   0  0  0  0  0  0  0  0  0  0  0  0
  -27.4544  -28.2687   20.9554 N   0  0  0  0  0  0  0  0  0  0  0  0
  -29.8871  -13.7854   20.4093 N   0  0  0  0  0  0  0  0  0  0  0  0
  -25.3458  -15.1055   20.4460 N   0  0  0  0  0  0  0  0  0  0  0  0
  -21.8282  -12.5205   21.6039 N   0  0  0  0  0  0  0  0  0  0  0  0
  -28.9063  -18.4681   20.9779 N   0  0  0  0  0  0  0  0  0  0  0  0
  -27.4219  -30.1356   17.8234 N   0  0  0  0  0  0  0  0  0  0  0  0
  -28.2752  -27.9533   24.2242 N   0  0  0  0  0  0  0  0  0  0  0  0
  -29.9974  -15.8427   21.5706 N   0  0  0  0  0  0  0  0  0  0  0  0
  -25.7916  -26.3601   26.3125 N   0  3  0  0  0  0  0  0  0  0  0  0
  -22.5442  -14.6838   21.3461 O   0  0  0  0  0  0  0  0  0  0  0  0
  -28.8914  -28.6701   18.8795 O   0  0  0  0  0  0  0  0  0  0  0  0
  -28.1110  -30.0626   22.2922 O   0  0  0  0  0  0  0  0  0  0  0  0
  -27.5439  -25.7530   24.1965 O   0  0  0  0  0  0  0  0  0  0  0  0
  -31.7570  -15.1504   20.2739 O   0  0  0  0  0  0  0  0  0  0  0  0
  -21.7112   -6.9511   21.6603 O   0  0  0  0  0  0  0  0  0  0  0  0
  -25.4439  -23.0769   18.2990 O   0  0  0  0  0  0  0  0  0  1  0  0
  -24.2471   -2.9413   24.4700 F   0  0  0  0  0  0  0  0  0  0  0  0
  -20.6827   -6.0281   24.0546 F   0  0  0  0  0  0  0  0  0  0  0  0
  1  2  1  0  0  0  0
  1  5  2  0  0  0  0
  2  6  2  0  0  0  0
  3  8  2  0  0  0  0
  3 17  1  0  0  0  0
  4  9  1  0  0  0  0
  4 17  2  0  0  0  0
  5 19  1  0  0  0  0
  6 21  1  0  0  0  0
  7 10  2  0  0  0  0
  7 20  1  0  0  0  0
  8 27  1  0  0  0  0
  9 27  2  0  0  0  0
 10 28  1  0  0  0  0
 11 12  2  0  0  0  0
 11 29  1  0  0  0  0
 12 30  1  0  0  0  0
 13 22  1  0  0  0  0
 13 28  2  0  0  0  0
 14 23  1  0  0  0  0
 14 24  2  0  0  0  0
 15 25  1  0  0  0  0
 15 26  2  0  0  0  0
 16 30  2  0  0  0  0
 16 31  1  0  0  0  0
 17 32  1  0  0  0  0
 18 32  1  0  0  0  0
 18 33  2  0  0  0  0
 18 34  1  0  0  0  0
 19 21  2  0  0  0  0
 19 39  1  0  0  0  0
 20 22  2  0  0  0  0
 20 40  1  0  0  0  0
 21 50  1  0  0  0  0
 22 41  1  0  0  0  0
 23 25  2  0  0  0  0
 23 64  1  0  0  0  0
 24 26  1  0  0  0  0
 24 54  1  0  0  0  0
 25 61  1  0  0  0  0
 26 74  1  0  0  0  0
 27 84  1  0  0  0  0
 28 85  1  0  0  0  0
 29 31  2  0  0  0  0
 29 84  1  0  0  0  0
 30 86  1  0  0  0  0
 31 87  1  0  0  0  0
 32 68  2  0  0  0  0
 33 69  1  0  0  0  0
 33 72  1  0  0  0  0
 34 73  1  0  0  0  0
 34 79  2  0  0  0  0
 35 51  1  0  0  0  0
 35 75  1  0  0  0  0
 35 80  2  0  0  0  0
 36 65  1  0  0  0  0
 36 70  1  0  0  0  0
 36 81  2  0  0  0  0
 37 66  1  0  0  0  0
 37 76  1  0  0  0  0
 37 82  2  0  0  0  0
 38 71  1  0  0  0  0
 38 77  1  0  0  0  0
 38 83  2  0  0  0  0
 39 42  1  0  0  0  0
 40 51  1  0  0  0  0
 41 70  1  0  0  0  0
 42 44  1  0  0  0  0
 43 47  1  0  0  0  0
 43 48  1  0  0  0  0
 44 50  1  0  0  0  0
 45 46  1  0  0  0  0
 45 52  1  0  0  0  0
 46 52  1  0  0  0  0
 47 53  1  0  0  0  0
 48 71  1  0  0  0  0
 49 53  1  0  0  0  0
 49 71  1  0  0  0  0
 50 75  1  0  0  0  0
 51 70  1  0  0  0  0
 52 61  1  0  0  0  0
 53 69  1  0  0  0  0
 55 64  1  0  0  0  0
 56 66  1  0  0  0  0
 57 67  1  0  0  0  0
 58 67  1  0  0  0  0
 59 67  1  0  0  0  0
 60 78  1  0  0  0  0
 62 63  1  0  0  0  0
 62 74  1  0  0  0  0
 63 77  1  0  0  0  0
 64 85  1  0  0  0  0
 65 67  1  0  0  0  0
 65 76  1  0  0  0  0
 66 78  1  0  0  0  0
 68 69  1  0  0  0  0
M  CHG  1  78   1
M  ISO  4  38 100  64 101  77 100  85 101
M  END
> <Batch ID>
0108

> <Smiles>
CNC(C)C(=O)NC(C(=O)N1Cc2cc([101O:1][101CH:1](C)c3cc(C)c(NCC[100NH:0][100C:0](=O)N4CCCC(n5nc(-c6ccc(Oc7ccc(F)cc7F)cc6)c(C(N)=O)c5N)C4)cc3CC3CC3)ccc2CC1C(=O)NC1CCCc2ccccc21)C(C)(C)C

> <Shape>
0.277

> <Color>
0.210

> <Negative vol penalty>
0.000

$$$$

  -OEChem-04052319533D

 81 89  0     1  0  0  0  0  0999 V2000
  -21.9376  -23.4744   20.5359 C   0  0  0  0  0  0  0  0  0  0  0  0
  -23.1662  -22.8346   20.6654 C   0  0  0  0  0  0  0  0  0  0  0  0
  -23.4713  -30.2638   20.4275 C   0  0  0  0  0  0  0  0  0  0  0  0
  -23.3481  -28.5652   22.1412 C   0  0  0  0  0  0  0  0  0  0  0  0
  -20.7794  -22.8595   21.0096 C   0  0  0  0  0  0  0  0  0  0  0  0
  -23.2374  -21.5800   21.2698 C   0  0  0  0  0  0  0  0  0  0  0  0
  -26.1874  -18.3557   18.7112 C   0  0  0  0  0  0  0  0  0  0  0  0
  -22.2033  -30.7196   20.7880 C   0  0  0  0  0  0  0  0  0  0  0  0
  -22.0801  -29.0211   22.5018 C   0  0  0  0  0  0  0  0  0  0  0  0
  -27.5662  -18.4982   18.8611 C   0  0  0  0  0  0  0  0  0  0  0  0
  -18.9112  -28.7337   21.3588 C   0  0  0  0  0  0  0  0  0  0  0  0
  -17.9159  -27.7799   21.5715 C   0  0  0  0  0  0  0  0  0  0  0  0
  -27.5766  -16.6754   20.4411 C   0  0  0  0  0  0  0  0  0  0  0  0
  -17.6635  -28.5507   23.8473 C   0  0  0  0  0  0  0  0  0  0  0  0
  -31.5028  -20.5806   20.3806 C   0  0  0  0  0  0  0  0  0  0  0  0
  -24.0437  -29.1866   21.1040 C   0  0  0  0  0  0  0  0  0  0  0  0
  -26.5903  -29.1454   21.2475 C   0  0  0  0  0  0  0  0  0  0  0  0
  -20.8351  -21.5924   21.6114 C   0  0  0  0  0  0  0  0  0  0  0  0
  -25.4901  -17.3775   19.4346 C   0  0  0  0  0  0  0  0  0  0  0  0
  -22.0790  -20.9482   21.7532 C   0  0  0  0  0  0  0  0  0  0  0  0
  -26.1894  -16.5208   20.2967 C   0  0  0  0  0  0  0  0  0  0  0  0
  -31.1372  -21.8524   20.7628 C   0  0  0  0  0  0  0  0  0  0  0  0
  -30.5890  -21.7614   22.0660 C   0  0  0  0  0  0  0  0  0  0  0  0
  -21.5077  -30.0982   21.8252 C   0  0  0  0  0  0  0  0  0  0  0  0
  -28.2606  -17.6599   19.7284 C   0  0  0  0  0  0  0  0  0  0  0  0
  -19.2827  -29.5960   22.3904 C   0  0  0  0  0  0  0  0  0  0  0  0
  -17.2920  -27.6884   22.8157 C   0  0  0  0  0  0  0  0  0  0  0  0
  -18.6588  -29.5045   23.6346 C   0  0  0  0  0  0  0  0  0  0  0  0
  -25.3532  -28.7149   20.7316 C   0  0  0  0  0  0  0  0  0  0  0  0
  -30.6364  -20.4367   22.4406 C   0  0  0  0  0  0  0  0  0  0  0  0
  -27.5231  -28.3960   20.5730 C   0  0  0  0  0  0  0  0  0  0  0  0
  -26.8712  -30.1342   22.2470 C   0  0  0  0  0  0  0  0  0  0  0  0
  -23.1757  -17.4225   21.6129 C   0  0  0  0  0  0  0  0  0  0  0  0
  -23.2990  -14.2021   21.2439 C   0  0  0  0  0  0  0  0  0  0  0  0
  -25.1095  -11.4582   20.3275 C   0  0  0  0  0  0  0  0  0  0  0  0
  -29.2960  -23.5087   18.5442 C   0  0  0  0  0  0  0  0  0  0  0  0
  -19.5628  -20.9884   22.1507 C   0  0  0  0  0  0  0  0  0  0  0  0
  -24.0069  -17.2191   19.2414 C   0  0  0  0  0  0  0  0  0  0  0  0
  -25.4906  -15.4414   21.0808 C   0  0  0  0  0  0  0  0  0  0  0  0
  -19.6736  -19.4939   22.4414 C   0  0  0  0  0  0  0  0  0  0  0  0
  -27.0349  -25.3878   16.5359 C   0  0  0  0  0  0  0  0  0  0  0  0
  -20.9590  -19.1924   23.2053 C   0  0  0  0  0  0  0  0  0  0  0  0
  -26.4937  -26.4518   17.4923 C   0  0  0  0  0  0  0  0  0  0  0  0
  -27.2589  -24.0536   17.2442 C   0  0  0  0  0  0  0  0  0  0  0  0
  -27.5596  -25.1919   19.4094 C   0  0  0  0  0  0  0  0  0  0  0  0
  -22.1937  -19.5759   22.3807 C   0  0  1  0  0  0  0  0  0  0  0  0
  -23.3220  -16.5265   20.4156 C   0  0  1  0  0  0  0  0  0  0  0  0
  -27.3705  -26.5704   18.7534 C   0  0  2  0  0  0  0  0  0  0  0  0
  -30.0627  -22.8794   22.8760 C   0  0  0  0  0  0  0  0  0  0  0  0
  -30.1995  -19.7832   23.6925 C   0  0  0  0  0  0  0  0  0  0  0  0
  -24.9550   -8.9583   20.1713 C   0  0  0  0  0  0  0  0  0  0  0  0
  -23.6428  -13.9943   24.2686 C   0  0  0  0  0  0  0  0  0  0  0  0
  -24.4218  -11.6366   23.9481 C   0  0  0  0  0  0  0  0  0  0  0  0
  -22.1101  -12.2871   23.2732 C   0  0  0  0  0  0  0  0  0  0  0  0
  -25.5376  -11.4986   17.3993 C   0  0  0  0  0  0  0  0  0  0  0  0
  -31.2926  -23.0778   19.9539 C   0  0  0  0  0  0  0  0  0  0  0  0
  -31.4380  -18.2388   21.3875 C   0  0  0  0  0  0  0  0  0  0  0  0
  -30.1589  -17.4451   21.1447 C   0  0  0  0  0  0  0  0  0  1  0  0
  -24.0739  -13.0806   21.8926 C   0  0  1  0  0  0  0  0  0  0  0  0
  -24.7675  -10.2770   19.4373 C   0  0  2  0  0  0  0  0  0  0  0  0
  -23.5753  -12.7712   23.3325 C   0  0  0  0  0  0  0  0  0  0  0  0
  -25.4848  -27.7658   19.8011 N   0  0  0  0  0  0  0  0  0  0  0  0
  -31.1940  -19.7282   21.4084 N   0  0  0  0  0  0  0  0  0  0  0  0
  -26.8156  -27.5938   19.7268 N   0  0  0  0  0  0  0  0  0  0  0  0
  -24.0388  -15.3304   20.8625 N   0  0  0  0  0  0  0  0  0  0  0  0
  -28.0992  -24.2352   18.4303 N   0  0  0  0  0  0  0  0  0  0  0  0
  -28.8712  -28.3518   20.6270 N   0  0  0  0  0  0  0  0  0  0  0  0
  -25.7955  -30.8103   22.8388 N   0  0  0  0  0  0  0  0  0  0  0  0
  -22.4553  -18.5759   21.3677 N   0  0  0  0  0  0  0  0  0  0  0  0
  -23.9960  -11.9476   20.9769 N   0  0  0  0  0  0  0  0  0  0  0  0
  -30.0358  -23.7449   19.6964 N   0  0  0  0  0  0  0  0  0  0  0  0
  -25.6390  -10.2700   18.2284 N   0  3  0  0  0  0  0  0  0  0  0  0
  -28.0421  -30.4216   22.5931 O   0  0  0  0  0  0  0  0  0  0  0  0
  -23.6778  -17.0911   22.6805 O   0  0  0  0  0  0  0  0  0  0  0  0
  -22.0834  -14.0785   21.0752 O   0  0  0  0  0  0  0  0  0  0  0  0
  -26.2510  -11.8999   20.4387 O   0  0  0  0  0  0  0  0  0  0  0  0
  -29.6796  -22.7128   17.6803 O   0  0  0  0  0  0  0  0  0  0  0  0
  -20.2705  -30.5429   22.1775 O   0  0  0  0  0  0  0  0  0  0  0  0
  -29.6063  -17.7972   19.8771 O   0  0  0  0  0  0  0  0  0  1  0  0
  -16.3352  -26.7734   23.0193 F   0  0  0  0  0  0  0  0  0  0  0  0
  -19.0107  -30.3309   24.6292 F   0  0  0  0  0  0  0  0  0  0  0  0
  1  2  1  0  0  0  0
  1  5  2  0  0  0  0
  2  6  2  0  0  0  0
  3  8  2  0  0  0  0
  3 16  1  0  0  0  0
  4  9  1  0  0  0  0
  4 16  2  0  0  0  0
  5 18  1  0  0  0  0
  6 20  1  0  0  0  0
  7 10  2  0  0  0  0
  7 19  1  0  0  0  0
  8 24  1  0  0  0  0
  9 24  2  0  0  0  0
 10 25  1  0  0  0  0
 11 12  2  0  0  0  0
 11 26  1  0  0  0  0
 12 27  1  0  0  0  0
 13 21  1  0  0  0  0
 13 25  2  0  0  0  0
 14 27  2  0  0  0  0
 14 28  1  0  0  0  0
 15 22  2  0  0  0  0
 15 63  1  0  0  0  0
 16 29  1  0  0  0  0
 17 29  1  0  0  0  0
 17 31  2  0  0  0  0
 17 32  1  0  0  0  0
 18 20  2  0  0  0  0
 18 37  1  0  0  0  0
 19 21  2  0  0  0  0
 19 38  1  0  0  0  0
 20 46  1  0  0  0  0
 21 39  1  0  0  0  0
 22 23  1  0  0  0  0
 22 56  1  0  0  0  0
 23 30  2  0  0  0  0
 23 49  1  0  0  0  0
 24 78  1  0  0  0  0
 25 79  1  0  0  0  0
 26 28  2  0  0  0  0
 26 78  1  0  0  0  0
 27 80  1  0  0  0  0
 28 81  1  0  0  0  0
 29 62  2  0  0  0  0
 30 50  1  0  0  0  0
 30 63  1  0  0  0  0
 31 64  1  0  0  0  0
 31 67  1  0  0  0  0
 32 68  1  0  0  0  0
 32 73  2  0  0  0  0
 33 47  1  0  0  0  0
 33 69  1  0  0  0  0
 33 74  2  0  0  0  0
 34 59  1  0  0  0  0
 34 65  1  0  0  0  0
 34 75  2  0  0  0  0
 35 60  1  0  0  0  0
 35 70  1  0  0  0  0
 35 76  2  0  0  0  0
 36 66  1  0  0  0  0
 36 71  1  0  0  0  0
 36 77  2  0  0  0  0
 37 40  1  0  0  0  0
 38 47  1  0  0  0  0
 39 65  1  0  0  0  0
 40 42  1  0  0  0  0
 41 43  1  0  0  0  0
 41 44  1  0  0  0  0
 42 46  1  0  0  0  0
 43 48  1  0  0  0  0
 44 66  1  0  0  0  0
 45 48  1  0  0  0  0
 45 66  1  0  0  0  0
 46 69  1  0  0  0  0
 47 65  1  0  0  0  0
 48 64  1  0  0  0  0
 51 60  1  0  0  0  0
 52 61  1  0  0  0  0
 53 61  1  0  0  0  0
 54 61  1  0  0  0  0
 55 72  1  0  0  0  0
 56 71  1  0  0  0  0
 57 58  1  0  0  0  0
 57 63  1  0  0  0  0
 58 79  1  0  0  0  0
 59 61  1  0  0  0  0
 59 70  1  0  0  0  0
 60 72  1  0  0  0  0
 62 64  1  0  0  0  0
M  CHG  1  72   1
M  ISO  4  36 100  58 101  71 100  79 101
M  END
> <Batch ID>
0108

> <Smiles>
CNC(C)C(=O)NC(C(=O)N1Cc2cc([101O:1][101CH2:1]Cn3cc(C[100NH:0][100C:0](=O)N4CCCC(n5nc(-c6ccc(Oc7ccc(F)cc7F)cc6)c(C(N)=O)c5N)C4)c(C)c3C)ccc2CC1C(=O)NC1CCCc2ccccc21)C(C)(C)C

> <Shape>
0.237

> <Color>
0.067

> <Negative vol penalty>
0.000

$$$$

  -OEChem-04052319533D

 86 94  0     1  0  0  0  0  0999 V2000
  -33.9134  -21.1240   25.0294 C   0  0  0  0  0  0  0  0  0  0  0  0
  -33.3663  -21.5994   23.8419 C   0  0  0  0  0  0  0  0  0  0  0  0
  -24.8307  -28.7744   22.2428 C   0  0  0  0  0  0  0  0  0  0  0  0
  -25.2687  -30.4827   20.5914 C   0  0  0  0  0  0  0  0  0  0  0  0
  -33.8944  -19.7577   25.3066 C   0  0  0  0  0  0  0  0  0  0  0  0
  -32.8008  -20.7085   22.9303 C   0  0  0  0  0  0  0  0  0  0  0  0
  -27.9603  -21.7163   19.3166 C   0  0  0  0  0  0  0  0  0  0  0  0
  -24.2535  -29.7304   23.0786 C   0  0  0  0  0  0  0  0  0  0  0  0
  -24.6914  -31.4387   21.4272 C   0  0  0  0  0  0  0  0  0  0  0  0
  -27.8507  -22.0825   17.9758 C   0  0  0  0  0  0  0  0  0  0  0  0
  -22.9883  -31.7858   25.7986 C   0  0  0  0  0  0  0  0  0  0  0  0
  -23.3388  -31.7657   27.1485 C   0  0  0  0  0  0  0  0  0  0  0  0
  -27.5911  -19.7621   17.3695 C   0  0  0  0  0  0  0  0  0  0  0  0
  -31.6244  -23.0358   14.1146 C   0  0  0  0  0  0  0  0  0  0  0  0
  -25.6528  -32.1238   26.5531 C   0  0  0  0  0  0  0  0  0  0  0  0
  -29.4590  -23.5739   13.8126 C   0  0  0  0  0  0  0  0  0  0  0  0
  -25.3383  -29.1506   20.9992 C   0  0  0  0  0  0  0  0  0  0  0  0
  -25.2865  -27.3855   19.1582 C   0  0  0  0  0  0  0  0  0  0  0  0
  -33.3198  -18.8507   24.4023 C   0  0  0  0  0  0  0  0  0  0  0  0
  -27.8968  -20.3670   19.6934 C   0  0  0  0  0  0  0  0  0  0  0  0
  -32.7754  -19.3286   23.1950 C   0  0  0  0  0  0  0  0  0  0  0  0
  -27.6975  -19.3816   18.7160 C   0  0  0  0  0  0  0  0  0  0  0  0
  -30.7038  -24.1110   14.0558 C   0  0  0  0  0  0  0  0  0  0  0  0
  -24.1838  -31.0625   22.6709 C   0  0  0  0  0  0  0  0  0  0  0  0
  -27.6690  -21.1051   17.0017 C   0  0  0  0  0  0  0  0  0  0  0  0
  -23.9701  -31.9749   24.8258 C   0  0  0  0  0  0  0  0  0  0  0  0
  -24.6710  -31.9347   27.5258 C   0  0  0  0  0  0  0  0  0  0  0  0
  -25.3023  -32.1440   25.2031 C   0  0  0  0  0  0  0  0  0  0  0  0
  -25.9352  -28.1637   20.1356 C   0  0  0  0  0  0  0  0  0  0  0  0
  -30.9141  -21.8743   13.9053 C   0  0  0  0  0  0  0  0  0  0  0  0
  -26.2837  -26.6100   18.6192 C   0  0  0  0  0  0  0  0  0  0  0  0
  -23.9059  -27.3655   18.7720 C   0  0  0  0  0  0  0  0  0  0  0  0
  -29.8924  -18.3368   21.1075 C   0  0  0  0  0  0  0  0  0  0  0  0
  -27.3181  -16.3644   21.0357 C   0  0  0  0  0  0  0  0  0  0  0  0
  -24.3420  -15.5368   19.5851 C   0  0  0  0  0  0  0  0  0  0  0  0
  -31.4611  -26.0413   16.6149 C   0  0  0  0  0  0  0  0  0  0  0  0
  -33.3651  -17.3778   24.7239 C   0  0  0  0  0  0  0  0  0  0  0  0
  -27.9900  -19.9907   21.1467 C   0  0  0  0  0  0  0  0  0  0  0  0
  -27.6024  -17.9209   19.0705 C   0  0  0  0  0  0  0  0  0  0  0  0
  -32.4115  -16.5397   23.8763 C   0  0  0  0  0  0  0  0  0  0  0  0
  -31.0447  -25.8408   20.1452 C   0  0  0  0  0  0  0  0  0  0  0  0
  -32.5220  -16.9290   22.4056 C   0  0  0  0  0  0  0  0  0  0  0  0
  -29.6278  -26.3687   20.3770 C   0  0  0  0  0  0  0  0  0  0  0  0
  -31.7474  -26.5881   19.0140 C   0  0  0  0  0  0  0  0  0  0  0  0
  -29.5865  -27.1542   17.9728 C   0  0  0  0  0  0  0  0  0  0  0  0
  -32.1308  -18.3963   22.1924 C   0  0  1  0  0  0  0  0  0  0  0  0
  -28.4263  -18.5449   21.3627 C   0  0  1  0  0  0  0  0  0  0  0  0
  -28.8176  -26.3940   19.0669 C   0  0  2  0  0  0  0  0  0  0  0  0
  -22.4863  -13.8527   19.7187 C   0  0  0  0  0  0  0  0  0  0  0  0
  -33.3662  -20.5393   10.4964 C   0  0  0  0  0  0  0  0  0  0  0  0
  -29.0943  -14.3015   19.6576 C   0  0  0  0  0  0  0  0  0  0  0  0
  -27.0211  -13.0739   18.9769 C   0  0  0  0  0  0  0  0  0  0  0  0
  -27.5602  -13.3627   21.3953 C   0  0  0  0  0  0  0  0  0  0  0  0
  -22.3362  -17.6237   20.2018 C   0  0  0  0  0  0  0  0  0  0  0  0
  -31.0189  -25.5424   14.2243 C   0  0  0  0  0  0  0  0  0  0  0  0
  -32.5006  -20.1689   12.8285 C   0  0  0  0  0  0  0  0  0  0  0  0
  -28.4654  -21.2516   13.4622 C   0  0  0  0  0  0  0  0  0  0  0  0
  -31.1181  -19.4040   10.7712 C   0  0  0  0  0  0  0  0  0  0  0  0
  -28.0253  -20.5185   14.7247 C   0  0  0  0  0  0  0  0  0  1  0  0
  -31.3797  -20.4726   13.8646 C   0  0  1  0  0  0  0  0  0  0  0  0
  -26.7712  -15.3557   20.0547 C   0  0  1  0  0  0  0  0  0  0  0  0
  -22.9854  -15.2119   20.1839 C   0  0  2  0  0  0  0  0  0  0  0  0
  -32.1008  -20.4277   11.3570 C   0  0  2  0  0  0  0  0  0  0  0  0
  -27.6154  -14.0507   20.0139 C   0  0  0  0  0  0  0  0  0  0  0  0
  -27.2434  -27.9060   20.2152 N   0  0  0  0  0  0  0  0  0  0  0  0
  -29.5989  -22.2136   13.7226 N   0  0  0  0  0  0  0  0  0  0  0  0
  -27.4247  -26.9570   19.2810 N   0  0  0  0  0  0  0  0  0  0  0  0
  -27.7056  -17.6027   20.5043 N   0  0  0  0  0  0  0  0  0  0  0  0
  -30.9274  -26.5737   17.8001 N   0  0  0  0  0  0  0  0  0  0  0  0
  -26.2872  -25.6718   17.6486 N   0  0  0  0  0  0  0  0  0  0  0  0
  -23.0160  -28.2268   19.4281 N   0  0  0  0  0  0  0  0  0  0  0  0
  -30.6913  -18.5440   22.2158 N   0  0  0  0  0  0  0  0  0  0  0  0
  -25.3726  -15.1516   20.4162 N   0  0  0  0  0  0  0  0  0  0  0  0
  -30.6153  -26.0604   15.5126 N   0  0  0  0  0  0  0  0  0  0  0  0
  -31.7097  -18.0477   10.6891 N   0  3  0  0  0  0  0  0  0  0  0  0
  -31.9070  -19.9920   15.2006 N   0  3  0  0  0  0  0  0  0  0  0  0
  -21.9838  -16.2415   19.7867 N   0  3  0  0  0  0  0  0  0  0  0  0
  -23.4711  -26.5945   17.8831 O   0  0  0  0  0  0  0  0  0  0  0  0
  -30.2706  -18.0109   19.9884 O   0  0  0  0  0  0  0  0  0  0  0  0
  -27.3920  -16.0673   22.2307 O   0  0  0  0  0  0  0  0  0  0  0  0
  -24.4742  -16.0748   18.4880 O   0  0  0  0  0  0  0  0  0  0  0  0
  -32.6046  -25.5782   16.5456 O   0  0  0  0  0  0  0  0  0  0  0  0
  -23.6204  -31.9955   23.4861 O   0  0  0  0  0  0  0  0  0  0  0  0
  -27.5625  -21.4598   15.6923 O   0  0  0  0  0  0  0  0  0  1  0  0
  -25.0072  -31.9168   28.8222 F   0  0  0  0  0  0  0  0  0  0  0  0
  -26.2497  -32.3272   24.2732 F   0  0  0  0  0  0  0  0  0  0  0  0
  1  2  1  0  0  0  0
  1  5  2  0  0  0  0
  2  6  2  0  0  0  0
  3  8  2  0  0  0  0
  3 17  1  0  0  0  0
  4  9  1  0  0  0  0
  4 17  2  0  0  0  0
  5 19  1  0  0  0  0
  6 21  1  0  0  0  0
  7 10  2  0  0  0  0
  7 20  1  0  0  0  0
  8 24  1  0  0  0  0
  9 24  2  0  0  0  0
 10 25  1  0  0  0  0
 11 12  2  0  0  0  0
 11 26  1  0  0  0  0
 12 27  1  0  0  0  0
 13 22  1  0  0  0  0
 13 25  2  0  0  0  0
 14 23  1  0  0  0  0
 14 30  2  0  0  0  0
 15 27  2  0  0  0  0
 15 28  1  0  0  0  0
 16 23  2  0  0  0  0
 16 66  1  0  0  0  0
 17 29  1  0  0  0  0
 18 29  1  0  0  0  0
 18 31  2  0  0  0  0
 18 32  1  0  0  0  0
 19 21  2  0  0  0  0
 19 37  1  0  0  0  0
 20 22  2  0  0  0  0
 20 38  1  0  0  0  0
 21 46  1  0  0  0  0
 22 39  1  0  0  0  0
 23 55  1  0  0  0  0
 24 83  1  0  0  0  0
 25 84  1  0  0  0  0
 26 28  2  0  0  0  0
 26 83  1  0  0  0  0
 27 85  1  0  0  0  0
 28 86  1  0  0  0  0
 29 65  2  0  0  0  0
 30 60  1  0  0  0  0
 30 66  1  0  0  0  0
 31 67  1  0  0  0  0
 31 70  1  0  0  0  0
 32 71  1  0  0  0  0
 32 78  2  0  0  0  0
 33 47  1  0  0  0  0
 33 72  1  0  0  0  0
 33 79  2  0  0  0  0
 34 61  1  0  0  0  0
 34 68  1  0  0  0  0
 34 80  2  0  0  0  0
 35 62  1  0  0  0  0
 35 73  1  0  0  0  0
 35 81  2  0  0  0  0
 36 69  1  0  0  0  0
 36 74  1  0  0  0  0
 36 82  2  0  0  0  0
 37 40  1  0  0  0  0
 38 47  1  0  0  0  0
 39 68  1  0  0  0  0
 40 42  1  0  0  0  0
 41 43  1  0  0  0  0
 41 44  1  0  0  0  0
 42 46  1  0  0  0  0
 43 48  1  0  0  0  0
 44 69  1  0  0  0  0
 45 48  1  0  0  0  0
 45 69  1  0  0  0  0
 46 72  1  0  0  0  0
 47 68  1  0  0  0  0
 48 67  1  0  0  0  0
 49 62  1  0  0  0  0
 50 63  1  0  0  0  0
 51 64  1  0  0  0  0
 52 64  1  0  0  0  0
 53 64  1  0  0  0  0
 54 77  1  0  0  0  0
 55 74  1  0  0  0  0
 56 60  1  0  0  0  0
 56 63  1  0  0  0  0
 57 59  1  0  0  0  0
 57 66  1  0  0  0  0
 58 63  1  0  0  0  0
 58 75  1  0  0  0  0
 59 84  1  0  0  0  0
 60 76  1  0  0  0  0
 61 64  1  0  0  0  0
 61 73  1  0  0  0  0
 62 77  1  0  0  0  0
 65 67  1  0  0  0  0
M  CHG  3  75   1  76   1  77   1
M  ISO  4  36 100  59 101  74 100  84 101
M  END
> <Batch ID>
0108

> <Smiles>
CNC(C)C(=O)NC(C(=O)N1Cc2cc([101O:1][101CH2:1]Cn3cc(C[100NH:0][100C:0](=O)N4CCCC(n5nc(-c6ccc(Oc7ccc(F)cc7F)cc6)c(C(N)=O)c5N)C4)cc3C(N)CC(C)CN)ccc2CC1C(=O)NC1CCCc2ccccc21)C(C)(C)C

> <Shape>
0.216

> <Color>
0.066

> <Negative vol penalty>
0.000

$$$$

  -OEChem-04052319533D

 83 91  0     1  0  0  0  0  0999 V2000
  -27.5589  -17.7293   18.6043 C   0  0  0  0  0  0  0  0  0  0  0  0
  -26.8822  -18.9017   18.2874 C   0  0  0  0  0  0  0  0  0  0  0  0
  -23.3558  -17.4673   20.0500 C   0  0  0  0  0  0  0  0  0  0  0  0
  -21.4836  -17.3352   21.5714 C   0  0  0  0  0  0  0  0  0  0  0  0
  -28.5053  -17.7299   19.6269 C   0  0  0  0  0  0  0  0  0  0  0  0
  -27.1601  -20.0778   18.9849 C   0  0  0  0  0  0  0  0  0  0  0  0
  -24.5875  -25.5905   18.6388 C   0  0  0  0  0  0  0  0  0  0  0  0
  -23.3790  -16.0757   19.9577 C   0  0  0  0  0  0  0  0  0  0  0  0
  -21.5068  -15.9436   21.4791 C   0  0  0  0  0  0  0  0  0  0  0  0
  -23.5506  -26.2832   19.2622 C   0  0  0  0  0  0  0  0  0  0  0  0
  -24.1598  -12.5418   19.6033 C   0  0  0  0  0  0  0  0  0  0  0  0
  -25.3983  -11.9054   19.6851 C   0  0  0  0  0  0  0  0  0  0  0  0
  -25.1438  -27.3188   20.7482 C   0  0  0  0  0  0  0  0  0  0  0  0
  -25.7308  -12.8361   21.8897 C   0  0  0  0  0  0  0  0  0  0  0  0
  -19.5577  -28.4259   21.7066 C   0  0  0  0  0  0  0  0  0  0  0  0
  -22.4082  -18.0971   20.8569 C   0  0  0  0  0  0  0  0  0  0  0  0
  -21.6610  -20.4289   20.1412 C   0  0  0  0  0  0  0  0  0  0  0  0
  -28.7854  -18.9042   20.3450 C   0  0  0  0  0  0  0  0  0  0  0  0
  -25.9114  -25.7488   19.0732 C   0  0  0  0  0  0  0  0  0  0  0  0
  -28.1291  -20.1044   20.0042 C   0  0  0  0  0  0  0  0  0  0  0  0
  -26.1961  -26.6290   20.1269 C   0  0  0  0  0  0  0  0  0  0  0  0
  -18.5133  -27.5522   21.9148 C   0  0  0  0  0  0  0  0  0  0  0  0
  -18.8352  -26.7716   23.0524 C   0  0  0  0  0  0  0  0  0  0  0  0
  -22.4545  -15.3139   20.6722 C   0  0  0  0  0  0  0  0  0  0  0  0
  -23.8283  -27.1453   20.3190 C   0  0  0  0  0  0  0  0  0  0  0  0
  -23.7068  -13.3254   20.6647 C   0  0  0  0  0  0  0  0  0  0  0  0
  -26.1838  -12.0526   20.8283 C   0  0  0  0  0  0  0  0  0  0  0  0
  -24.4923  -13.4726   21.8079 C   0  0  0  0  0  0  0  0  0  0  0  0
  -22.3841  -19.5345   20.9531 C   0  0  0  0  0  0  0  0  0  0  0  0
  -20.0664  -27.1921   23.5049 C   0  0  0  0  0  0  0  0  0  0  0  0
  -21.9741  -21.6714   20.6357 C   0  0  0  0  0  0  0  0  0  0  0  0
  -20.7846  -20.1604   19.0387 C   0  0  0  0  0  0  0  0  0  0  0  0
  -28.1152  -23.8157   20.3022 C   0  0  0  0  0  0  0  0  0  0  0  0
  -30.0136  -26.4291   20.0044 C   0  0  0  0  0  0  0  0  0  0  0  0
  -30.2529  -29.8263   19.7844 C   0  0  0  0  0  0  0  0  0  0  0  0
  -22.7627  -25.1413   24.9349 C   0  0  0  0  0  0  0  0  0  0  0  0
  -29.8247  -18.8501   21.4368 C   0  0  0  0  0  0  0  0  0  0  0  0
  -27.0218  -25.0148   18.3728 C   0  0  0  0  0  0  0  0  0  0  0  0
  -27.6028  -26.8495   20.6180 C   0  0  0  0  0  0  0  0  0  0  0  0
  -29.7301  -20.0238   22.4062 C   0  0  0  0  0  0  0  0  0  0  0  0
  -25.5097  -23.0964   23.9607 C   0  0  0  0  0  0  0  0  0  0  0  0
  -29.6594  -21.3322   21.6331 C   0  0  0  0  0  0  0  0  0  0  0  0
  -24.8807  -22.0581   23.0300 C   0  0  0  0  0  0  0  0  0  0  0  0
  -24.5752  -23.4620   25.1118 C   0  0  0  0  0  0  0  0  0  0  0  0
  -22.5981  -22.8582   23.7701 C   0  0  0  0  0  0  0  0  0  0  0  0
  -28.3928  -21.3885   20.7696 C   0  0  1  0  0  0  0  0  0  0  0  0
  -28.2719  -24.8601   19.2334 C   0  0  1  0  0  0  0  0  0  0  0  0
  -23.4807  -22.4991   22.5625 C   0  0  2  0  0  0  0  0  0  0  0  0
  -18.0052  -25.7030   23.6461 C   0  0  0  0  0  0  0  0  0  0  0  0
  -17.5728  -27.0537   19.6300 C   0  0  0  0  0  0  0  0  0  0  0  0
  -16.4468  -28.7527   21.1134 C   0  0  0  0  0  0  0  0  0  0  0  0
  -31.9399  -31.6736   19.5875 C   0  0  0  0  0  0  0  0  0  0  0  0
  -30.7080  -26.1065   22.9580 C   0  0  0  0  0  0  0  0  0  0  0  0
  -31.5926  -28.4485   22.9341 C   0  0  0  0  0  0  0  0  0  0  0  0
  -32.6427  -26.7058   21.4909 C   0  0  0  0  0  0  0  0  0  0  0  0
  -29.1413  -30.7221   17.1920 C   0  0  0  0  0  0  0  0  0  0  0  0
  -20.8718  -26.7237   24.6526 C   0  0  0  0  0  0  0  0  0  0  0  0
  -21.7981  -28.9510   22.8051 C   0  0  0  0  0  0  0  0  0  0  0  0
  -22.9887  -28.1365   22.3111 C   0  0  0  0  0  0  0  0  0  1  0  0
  -17.2886  -27.4559   21.0956 C   0  0  0  0  0  0  0  0  0  0  0  0
  -30.3589  -27.6055   20.8851 C   0  0  1  0  0  0  0  0  0  0  0  0
  -31.0248  -30.7222   18.8325 C   0  0  2  0  0  0  0  0  0  0  0  0
  -31.2987  -27.2111   22.0593 C   0  0  0  0  0  0  0  0  0  0  0  0
  -23.1026  -20.1561   21.8920 N   0  0  0  0  0  0  0  0  0  0  0  0
  -20.4959  -28.1982   22.6794 N   0  0  0  0  0  0  0  0  0  0  0  0
  -22.8326  -21.4543   21.6731 N   0  0  0  0  0  0  0  0  0  0  0  0
  -28.6533  -26.1043   19.9049 N   0  0  0  0  0  0  0  0  0  0  0  0
  -23.2652  -23.8729   24.6008 N   0  0  0  0  0  0  0  0  0  0  0  0
  -21.5962  -22.9176   20.2800 N   0  0  0  0  0  0  0  0  0  0  0  0
  -20.5736  -18.8270   18.6622 N   0  0  0  0  0  0  0  0  0  0  0  0
  -28.4658  -22.5413   19.8992 N   0  0  0  0  0  0  0  0  0  0  0  0
  -30.9043  -28.6305   20.0017 N   0  0  0  0  0  0  0  0  0  0  0  0
  -21.5174  -25.4540   24.4038 N   0  0  0  0  0  0  0  0  0  0  0  0
  -30.0850  -31.5310   18.0057 N   0  3  0  0  0  0  0  0  0  0  0  0
  -20.2186  -21.0768   18.3958 O   0  0  0  0  0  0  0  0  0  0  0  0
  -27.7078  -24.1421   21.4109 O   0  0  0  0  0  0  0  0  0  0  0  0
  -30.9168  -25.8251   19.4205 O   0  0  0  0  0  0  0  0  0  0  0  0
  -29.1813  -30.1559   20.2880 O   0  0  0  0  0  0  0  0  0  0  0  0
  -23.3807  -25.9384   25.6489 O   0  0  0  0  0  0  0  0  0  0  0  0
  -22.4766  -13.9559   20.5822 O   0  0  0  0  0  0  0  0  0  0  0  0
  -22.8179  -27.8221   20.9297 O   0  0  0  0  0  0  0  0  0  1  0  0
  -27.3724  -11.4402   20.9074 F   0  0  0  0  0  0  0  0  0  0  0  0
  -24.0619  -14.2231   22.8312 F   0  0  0  0  0  0  0  0  0  0  0  0
  1  2  1  0  0  0  0
  1  5  2  0  0  0  0
  2  6  2  0  0  0  0
  3  8  2  0  0  0  0
  3 16  1  0  0  0  0
  4  9  1  0  0  0  0
  4 16  2  0  0  0  0
  5 18  1  0  0  0  0
  6 20  1  0  0  0  0
  7 10  2  0  0  0  0
  7 19  1  0  0  0  0
  8 24  1  0  0  0  0
  9 24  2  0  0  0  0
 10 25  1  0  0  0  0
 11 12  2  0  0  0  0
 11 26  1  0  0  0  0
 12 27  1  0  0  0  0
 13 21  1  0  0  0  0
 13 25  2  0  0  0  0
 14 27  2  0  0  0  0
 14 28  1  0  0  0  0
 15 22  2  0  0  0  0
 15 65  1  0  0  0  0
 16 29  1  0  0  0  0
 17 29  1  0  0  0  0
 17 31  2  0  0  0  0
 17 32  1  0  0  0  0
 18 20  2  0  0  0  0
 18 37  1  0  0  0  0
 19 21  2  0  0  0  0
 19 38  1  0  0  0  0
 20 46  1  0  0  0  0
 21 39  1  0  0  0  0
 22 23  1  0  0  0  0
 22 60  1  0  0  0  0
 23 30  2  0  0  0  0
 23 49  1  0  0  0  0
 24 80  1  0  0  0  0
 25 81  1  0  0  0  0
 26 28  2  0  0  0  0
 26 80  1  0  0  0  0
 27 82  1  0  0  0  0
 28 83  1  0  0  0  0
 29 64  2  0  0  0  0
 30 57  1  0  0  0  0
 30 65  1  0  0  0  0
 31 66  1  0  0  0  0
 31 69  1  0  0  0  0
 32 70  1  0  0  0  0
 32 75  2  0  0  0  0
 33 47  1  0  0  0  0
 33 71  1  0  0  0  0
 33 76  2  0  0  0  0
 34 61  1  0  0  0  0
 34 67  1  0  0  0  0
 34 77  2  0  0  0  0
 35 62  1  0  0  0  0
 35 72  1  0  0  0  0
 35 78  2  0  0  0  0
 36 68  1  0  0  0  0
 36 73  1  0  0  0  0
 36 79  2  0  0  0  0
 37 40  1  0  0  0  0
 38 47  1  0  0  0  0
 39 67  1  0  0  0  0
 40 42  1  0  0  0  0
 41 43  1  0  0  0  0
 41 44  1  0  0  0  0
 42 46  1  0  0  0  0
 43 48  1  0  0  0  0
 44 68  1  0  0  0  0
 45 48  1  0  0  0  0
 45 68  1  0  0  0  0
 46 71  1  0  0  0  0
 47 67  1  0  0  0  0
 48 66  1  0  0  0  0
 50 60  1  0  0  0  0
 51 60  1  0  0  0  0
 52 62  1  0  0  0  0
 53 63  1  0  0  0  0
 54 63  1  0  0  0  0
 55 63  1  0  0  0  0
 56 74  1  0  0  0  0
 57 73  1  0  0  0  0
 58 59  1  0  0  0  0
 58 65  1  0  0  0  0
 59 81  1  0  0  0  0
 61 63  1  0  0  0  0
 61 72  1  0  0  0  0
 62 74  1  0  0  0  0
 64 66  1  0  0  0  0
M  CHG  1  74   1
M  ISO  4  36 100  59 101  73 100  81 101
M  END
> <Batch ID>
0108

> <Smiles>
CNC(C)C(=O)NC(C(=O)N1Cc2cc([101O:1][101CH2:1]Cn3cc(C(C)C)c(C)c3C[100NH:0][100C:0](=O)N3CCCC(n4nc(-c5ccc(Oc6ccc(F)cc6F)cc5)c(C(N)=O)c4N)C3)ccc2CC1C(=O)NC1CCCc2ccccc21)C(C)(C)C

> <Shape>
0.196

> <Color>
0.065

> <Negative vol penalty>
0.000

$$$$

  -OEChem-04052319533D

 82 90  0     1  0  0  0  0  0999 V2000
  -25.6076  -32.9568   18.8613 C   0  0  0  0  0  0  0  0  0  0  0  0
  -26.2846  -31.8257   19.3061 C   0  0  0  0  0  0  0  0  0  0  0  0
  -23.1237   -9.8726   19.9466 C   0  0  0  0  0  0  0  0  0  0  0  0
  -23.8943   -9.8984   22.2363 C   0  0  0  0  0  0  0  0  0  0  0  0
  -24.6804  -32.8505   17.8254 C   0  0  0  0  0  0  0  0  0  0  0  0
  -26.0339  -30.5874   18.7160 C   0  0  0  0  0  0  0  0  0  0  0  0
  -30.0639  -26.0722   17.7795 C   0  0  0  0  0  0  0  0  0  0  0  0
  -22.4055   -8.7044   20.2015 C   0  0  0  0  0  0  0  0  0  0  0  0
  -23.1760   -8.7302   22.4912 C   0  0  0  0  0  0  0  0  0  0  0  0
  -30.3454  -24.9044   18.4872 C   0  0  0  0  0  0  0  0  0  0  0  0
  -19.9682   -7.8655   23.1102 C   0  0  0  0  0  0  0  0  0  0  0  0
  -19.2179   -7.8111   24.2848 C   0  0  0  0  0  0  0  0  0  0  0  0
  -31.3645  -18.6189   20.0122 C   0  0  0  0  0  0  0  0  0  0  0  0
  -28.8918  -23.6673   17.0121 C   0  0  0  0  0  0  0  0  0  0  0  0
  -20.5033   -5.9011   25.0175 C   0  0  0  0  0  0  0  0  0  0  0  0
  -29.1859  -18.8107   20.9467 C   0  0  0  0  0  0  0  0  0  0  0  0
  -23.8682  -10.4696   20.9640 C   0  0  0  0  0  0  0  0  0  0  0  0
  -31.0542  -19.6655   19.1510 C   0  0  0  0  0  0  0  0  0  0  0  0
  -24.1563  -13.0012   20.8394 C   0  0  0  0  0  0  0  0  0  0  0  0
  -24.4253  -31.6119   17.2159 C   0  0  0  0  0  0  0  0  0  0  0  0
  -29.1843  -26.0483   16.6877 C   0  0  0  0  0  0  0  0  0  0  0  0
  -25.1014  -30.4642   17.6720 C   0  0  0  0  0  0  0  0  0  0  0  0
  -28.6029  -24.8357   16.2906 C   0  0  0  0  0  0  0  0  0  0  0  0
  -30.4181  -18.1774   20.9302 C   0  0  0  0  0  0  0  0  0  0  0  0
  -22.4315   -8.1332   21.4738 C   0  0  0  0  0  0  0  0  0  0  0  0
  -29.7571  -23.7023   18.1053 C   0  0  0  0  0  0  0  0  0  0  0  0
  -20.9860   -6.9376   22.8892 C   0  0  0  0  0  0  0  0  0  0  0  0
  -19.4854   -6.8290   25.2384 C   0  0  0  0  0  0  0  0  0  0  0  0
  -21.2536   -5.9555   23.8428 C   0  0  0  0  0  0  0  0  0  0  0  0
  -24.6108  -11.6760   20.7012 C   0  0  0  0  0  0  0  0  0  0  0  0
  -29.7934  -20.2321   19.2470 C   0  0  0  0  0  0  0  0  0  0  0  0
  -25.2307  -13.7730   20.4700 C   0  0  0  0  0  0  0  0  0  0  0  0
  -32.0526  -19.5384   16.9866 C   0  0  0  0  0  0  0  0  0  0  0  0
  -32.0460  -20.1255   18.1921 C   0  0  0  0  0  0  0  0  0  0  0  0
  -22.8772  -13.4907   21.2639 C   0  0  0  0  0  0  0  0  0  0  0  0
  -26.3954  -27.4210   16.0235 C   0  0  0  0  0  0  0  0  0  0  0  0
  -26.8635  -26.0653   13.1140 C   0  0  0  0  0  0  0  0  0  0  0  0
  -28.3633  -23.6208   11.2643 C   0  0  0  0  0  0  0  0  0  0  0  0
  -30.6926  -14.9073   20.6308 C   0  0  0  0  0  0  0  0  0  0  0  0
  -23.3796  -31.5382   16.1316 C   0  0  0  0  0  0  0  0  0  0  0  0
  -28.9119  -27.3117   15.9182 C   0  0  0  0  0  0  0  0  0  0  0  0
  -27.6675  -24.7528   15.1131 C   0  0  0  0  0  0  0  0  0  0  0  0
  -23.4462  -30.2550   15.3074 C   0  0  0  0  0  0  0  0  0  0  0  0
  -29.5940  -12.4964   18.2523 C   0  0  0  0  0  0  0  0  0  0  0  0
  -23.5810  -29.0405   16.2204 C   0  0  0  0  0  0  0  0  0  0  0  0
  -28.1651  -12.1731   18.6925 C   0  0  0  0  0  0  0  0  0  0  0  0
  -30.5120  -12.7380   19.4485 C   0  0  0  0  0  0  0  0  0  0  0  0
  -28.6020  -13.4307   20.8434 C   0  0  0  0  0  0  0  0  0  0  0  0
  -24.8750  -29.1077   17.0405 C   0  0  1  0  0  0  0  0  0  0  0  0
  -27.6007  -27.2662   15.1398 C   0  0  1  0  0  0  0  0  0  0  0  0
  -27.6261  -13.2342   19.6706 C   0  0  2  0  0  0  0  0  0  0  0  0
  -33.0455  -21.2035   18.5087 C   0  0  0  0  0  0  0  0  0  0  0  0
  -28.5253  -22.7454    8.9180 C   0  0  0  0  0  0  0  0  0  0  0  0
  -24.1005  -24.8021   13.3971 C   0  0  0  0  0  0  0  0  0  0  0  0
  -24.7046  -23.2327   11.5422 C   0  0  0  0  0  0  0  0  0  0  0  0
  -24.6134  -25.6888   11.1156 C   0  0  0  0  0  0  0  0  0  0  0  0
  -31.2780  -24.1224   11.1547 C   0  0  0  0  0  0  0  0  0  0  0  0
  -30.7192  -17.0604   21.8649 C   0  0  0  0  0  0  0  0  0  0  0  0
  -29.3920  -21.3649   18.3487 C   0  0  0  0  0  0  0  0  0  1  0  0
  -26.5148  -24.7383   12.4843 C   0  0  1  0  0  0  0  0  0  0  0  0
  -29.1323  -23.6758    9.9566 C   0  0  2  0  0  0  0  0  0  0  0  0
  -24.9994  -24.6171   12.1582 C   0  0  0  0  0  0  0  0  0  0  0  0
  -28.8479  -19.8303   20.1259 N   0  0  0  0  0  0  0  0  0  0  0  0
  -25.8754  -11.6063   20.2769 N   0  0  0  0  0  0  0  0  0  0  0  0
  -26.2246  -12.8973   20.1453 N   0  0  0  0  0  0  0  0  0  0  0  0
  -27.4276  -26.0164   14.3967 N   0  0  0  0  0  0  0  0  0  0  0  0
  -29.9442  -13.7558   20.3359 N   0  0  0  0  0  0  0  0  0  0  0  0
  -25.4127  -15.1085   20.3945 N   0  0  0  0  0  0  0  0  0  0  0  0
  -21.8863  -12.5609   21.6070 N   0  0  0  0  0  0  0  0  0  0  0  0
  -26.0103  -28.7327   16.2251 N   0  0  0  0  0  0  0  0  0  0  0  0
  -27.3888  -24.5944   11.3251 N   0  0  0  0  0  0  0  0  0  0  0  0
  -30.0781  -15.8244   21.4746 N   0  0  0  0  0  0  0  0  0  0  0  0
  -30.5516  -23.2763   10.1731 N   0  3  0  0  0  0  0  0  0  0  0  0
  -22.6154  -14.7162   21.3209 O   0  0  0  0  0  0  0  0  0  0  0  0
  -25.8540  -26.4241   16.4870 O   0  0  0  0  0  0  0  0  0  0  0  0
  -26.6500  -27.1065   12.4879 O   0  0  0  0  0  0  0  0  0  0  0  0
  -28.6006  -22.7942   12.1423 O   0  0  0  0  0  0  0  0  0  0  0  0
  -31.8224  -15.1061   20.1715 O   0  0  0  0  0  0  0  0  0  0  0  0
  -21.7306   -6.9934   21.7229 O   0  0  0  0  0  0  0  0  0  0  0  0
  -30.0296  -22.5611   18.7948 O   0  0  0  0  0  0  0  0  0  1  0  0
  -18.7659   -6.7779   26.3670 F   0  0  0  0  0  0  0  0  0  0  0  0
  -22.2309   -5.0621   23.6366 F   0  0  0  0  0  0  0  0  0  0  0  0
  1  2  1  0  0  0  0
  1  5  2  0  0  0  0
  2  6  2  0  0  0  0
  3  8  2  0  0  0  0
  3 17  1  0  0  0  0
  4  9  1  0  0  0  0
  4 17  2  0  0  0  0
  5 20  1  0  0  0  0
  6 22  1  0  0  0  0
  7 10  2  0  0  0  0
  7 21  1  0  0  0  0
  8 25  1  0  0  0  0
  9 25  2  0  0  0  0
 10 26  1  0  0  0  0
 11 12  2  0  0  0  0
 11 27  1  0  0  0  0
 12 28  1  0  0  0  0
 13 18  1  0  0  0  0
 13 24  2  0  0  0  0
 14 23  1  0  0  0  0
 14 26  2  0  0  0  0
 15 28  2  0  0  0  0
 15 29  1  0  0  0  0
 16 24  1  0  0  0  0
 16 63  2  0  0  0  0
 17 30  1  0  0  0  0
 18 31  2  0  0  0  0
 18 34  1  0  0  0  0
 19 30  1  0  0  0  0
 19 32  2  0  0  0  0
 19 35  1  0  0  0  0
 20 22  2  0  0  0  0
 20 40  1  0  0  0  0
 21 23  2  0  0  0  0
 21 41  1  0  0  0  0
 22 49  1  0  0  0  0
 23 42  1  0  0  0  0
 24 58  1  0  0  0  0
 25 79  1  0  0  0  0
 26 80  1  0  0  0  0
 27 29  2  0  0  0  0
 27 79  1  0  0  0  0
 28 81  1  0  0  0  0
 29 82  1  0  0  0  0
 30 64  2  0  0  0  0
 31 59  1  0  0  0  0
 31 63  1  0  0  0  0
 32 65  1  0  0  0  0
 32 68  1  0  0  0  0
 33 34  2  0  0  0  0
 34 52  1  0  0  0  0
 35 69  1  0  0  0  0
 35 74  2  0  0  0  0
 36 50  1  0  0  0  0
 36 70  1  0  0  0  0
 36 75  2  0  0  0  0
 37 60  1  0  0  0  0
 37 66  1  0  0  0  0
 37 76  2  0  0  0  0
 38 61  1  0  0  0  0
 38 71  1  0  0  0  0
 38 77  2  0  0  0  0
 39 67  1  0  0  0  0
 39 72  1  0  0  0  0
 39 78  2  0  0  0  0
 40 43  1  0  0  0  0
 41 50  1  0  0  0  0
 42 66  1  0  0  0  0
 43 45  1  0  0  0  0
 44 46  1  0  0  0  0
 44 47  1  0  0  0  0
 45 49  1  0  0  0  0
 46 51  1  0  0  0  0
 47 67  1  0  0  0  0
 48 51  1  0  0  0  0
 48 67  1  0  0  0  0
 49 70  1  0  0  0  0
 50 66  1  0  0  0  0
 51 65  1  0  0  0  0
 53 61  1  0  0  0  0
 54 62  1  0  0  0  0
 55 62  1  0  0  0  0
 56 62  1  0  0  0  0
 57 73  1  0  0  0  0
 58 72  1  0  0  0  0
 59 80  1  0  0  0  0
 60 62  1  0  0  0  0
 60 71  1  0  0  0  0
 61 73  1  0  0  0  0
 64 65  1  0  0  0  0
M  CHG  1  73   1
M  ISO  4  39 100  59 101  72 100  80 101
M  END
> <Batch ID>
0108

> <Smiles>
C=C(C)c1cc(C[100NH:0][100C:0](=O)N2CCCC(n3nc(-c4ccc(Oc5ccc(F)cc5F)cc4)c(C(N)=O)c3N)C2)cnc1[101CH2:1][101O:1]c1ccc2c(c1)CN(C(=O)C(NC(=O)C(C)NC)C(C)(C)C)C(C(=O)NC1CCCc3ccccc31)C2

> <Shape>
0.232

> <Color>
0.215

> <Negative vol penalty>
0.000

$$$$

  -OEChem-04052319533D

 86 94  0     1  0  0  0  0  0999 V2000
  -27.7514  -24.0805   17.3407 C   0  0  0  0  0  0  0  0  0  0  0  0
  -26.5526  -24.4358   17.9507 C   0  0  0  0  0  0  0  0  0  0  0  0
  -25.8245  -13.9231   18.9191 C   0  0  0  0  0  0  0  0  0  0  0  0
  -24.4684  -14.1655   20.9038 C   0  0  0  0  0  0  0  0  0  0  0  0
  -28.9627  -24.4966   17.8916 C   0  0  0  0  0  0  0  0  0  0  0  0
  -26.5645  -25.2064   19.1127 C   0  0  0  0  0  0  0  0  0  0  0  0
  -23.1473  -28.9422   19.0013 C   0  0  0  0  0  0  0  0  0  0  0  0
  -25.9923  -12.5671   19.1993 C   0  0  0  0  0  0  0  0  0  0  0  0
  -24.6362  -12.8095   21.1841 C   0  0  0  0  0  0  0  0  0  0  0  0
  -21.8196  -28.5983   19.2516 C   0  0  0  0  0  0  0  0  0  0  0  0
  -23.3500   -9.8704   20.1218 C   0  0  0  0  0  0  0  0  0  0  0  0
  -22.2215   -9.1444   20.5024 C   0  0  0  0  0  0  0  0  0  0  0  0
  -22.0520  -29.3780   21.5225 C   0  0  0  0  0  0  0  0  0  0  0  0
  -20.8273  -23.4942   21.8094 C   0  0  0  0  0  0  0  0  0  0  0  0
  -23.2769   -8.6080   22.6084 C   0  0  0  0  0  0  0  0  0  0  0  0
  -23.2137  -24.8557   21.9908 C   0  0  0  0  0  0  0  0  0  0  0  0
  -25.0626  -14.7224   19.7713 C   0  0  0  0  0  0  0  0  0  0  0  0
  -23.8684  -16.7129   18.7133 C   0  0  0  0  0  0  0  0  0  0  0  0
  -28.9891  -25.2809   19.0556 C   0  0  0  0  0  0  0  0  0  0  0  0
  -23.9419  -29.4974   20.0146 C   0  0  0  0  0  0  0  0  0  0  0  0
  -27.7773  -25.6323   19.6805 C   0  0  0  0  0  0  0  0  0  0  0  0
  -23.3888  -29.7305   21.2818 C   0  0  0  0  0  0  0  0  0  0  0  0
  -23.0849  -23.6351   22.6382 C   0  0  0  0  0  0  0  0  0  0  0  0
  -21.8770  -22.9506   22.5438 C   0  0  0  0  0  0  0  0  0  0  0  0
  -25.3981  -12.0102   20.3318 C   0  0  0  0  0  0  0  0  0  0  0  0
  -21.2726  -28.8135   20.5132 C   0  0  0  0  0  0  0  0  0  0  0  0
  -24.4421   -9.9652   20.9845 C   0  0  0  0  0  0  0  0  0  0  0  0
  -22.1849   -8.5132   21.7457 C   0  0  0  0  0  0  0  0  0  0  0  0
  -24.4055   -9.3340   22.2278 C   0  0  0  0  0  0  0  0  0  0  0  0
  -24.8894  -16.1234   19.4827 C   0  0  0  0  0  0  0  0  0  0  0  0
  -21.0133  -24.7184   21.1830 C   0  0  0  0  0  0  0  0  0  0  0  0
  -24.1494  -18.0570   18.7422 C   0  0  0  0  0  0  0  0  0  0  0  0
  -22.7647  -16.1003   18.0335 C   0  0  0  0  0  0  0  0  0  0  0  0
  -26.6043  -28.6191   21.5125 C   0  0  0  0  0  0  0  0  0  0  0  0
  -26.3550  -31.5607   22.8568 C   0  0  0  0  0  0  0  0  0  0  0  0
  -24.3580  -34.1858   23.7330 C   0  0  0  0  0  0  0  0  0  0  0  0
  -26.2329  -22.1119   22.3102 C   0  0  0  0  0  0  0  0  0  0  0  0
  -30.3245  -25.6671   19.6406 C   0  0  0  0  0  0  0  0  0  0  0  0
  -25.3645  -29.8877   19.7210 C   0  0  0  0  0  0  0  0  0  0  0  0
  -24.1936  -30.3426   22.3980 C   0  0  0  0  0  0  0  0  0  0  0  0
  -30.2375  -26.7963   20.6641 C   0  0  0  0  0  0  0  0  0  0  0  0
  -28.1897  -20.7529   19.6643 C   0  0  0  0  0  0  0  0  0  0  0  0
  -29.1011  -26.5382   21.6484 C   0  0  0  0  0  0  0  0  0  0  0  0
  -27.4433  -19.4754   19.2762 C   0  0  0  0  0  0  0  0  0  0  0  0
  -28.1327  -21.0048   21.1694 C   0  0  0  0  0  0  0  0  0  0  0  0
  -26.0283  -19.7359   21.3568 C   0  0  0  0  0  0  0  0  0  0  0  0
  -27.7482  -26.4881   20.9283 C   0  0  1  0  0  0  0  0  0  0  0  0
  -26.2319  -29.9712   20.9732 C   0  0  1  0  0  0  0  0  0  0  0  0
  -26.0103  -19.4694   19.8419 C   0  0  2  0  0  0  0  0  0  0  0  0
  -24.4337  -36.4309   24.8516 C   0  0  0  0  0  0  0  0  0  0  0  0
  -19.4777  -21.5649   24.0944 C   0  0  0  0  0  0  0  0  0  0  0  0
  -20.7696  -19.5055   23.4342 C   0  0  0  0  0  0  0  0  0  0  0  0
  -18.9046  -28.1636   22.8841 C   0  0  0  0  0  0  0  0  0  0  0  0
  -26.5455  -30.1954   25.5789 C   0  0  0  0  0  0  0  0  0  0  0  0
  -25.6762  -32.3008   26.6179 C   0  0  0  0  0  0  0  0  0  0  0  0
  -27.8451  -32.3233   25.3859 C   0  0  0  0  0  0  0  0  0  0  0  0
  -23.4216  -35.5649   21.2876 C   0  0  0  0  0  0  0  0  0  0  0  0
  -24.2375  -23.0922   23.4132 C   0  0  0  0  0  0  0  0  0  0  0  0
  -19.9269  -25.3749   20.3692 C   0  0  0  0  0  0  0  0  0  0  0  0
  -19.0171  -26.3040   21.1861 C   0  0  0  0  0  0  0  0  0  0  0  0
  -25.6847  -32.1199   24.0885 C   0  0  1  0  0  0  0  0  0  0  0  0
  -24.5147  -35.6821   23.5304 C   0  0  2  0  0  0  0  0  0  0  0  0
  -20.4789  -20.9653   23.1177 C   0  0  0  0  0  0  0  0  0  0  0  0
  -19.7398  -27.5159   21.7871 C   0  0  1  0  0  0  0  0  0  1  0  0
  -26.4230  -31.7215   25.3975 C   0  0  0  0  0  0  0  0  0  0  0  0
  -25.7545  -17.0195   19.9649 N   0  0  0  0  0  0  0  0  0  0  0  0
  -25.2778  -18.1858   19.4973 N   0  0  0  0  0  0  0  0  0  0  0  0
  -22.1869  -25.3562   21.2903 N   0  3  0  0  0  0  0  0  0  0  0  0
  -25.5817  -30.7013   22.0634 N   0  0  0  0  0  0  0  0  0  0  0  0
  -26.7463  -20.9881   21.6420 N   0  0  0  0  0  0  0  0  0  0  0  0
  -23.5389  -19.1295   18.1949 N   0  0  0  0  0  0  0  0  0  0  0  0
  -22.6245  -14.7077   18.1069 N   0  0  0  0  0  0  0  0  0  0  0  0
  -21.6998  -21.7056   23.1854 N   0  0  0  0  0  0  0  0  0  0  0  0
  -27.2926  -27.8255   20.6147 N   0  0  0  0  0  0  0  0  0  0  0  0
  -25.5779  -33.5594   23.8771 N   0  0  0  0  0  0  0  0  0  0  0  0
  -24.9085  -22.0157   22.7192 N   0  0  0  0  0  0  0  0  0  0  0  0
  -23.4439  -36.1980   22.6314 N   0  3  0  0  0  0  0  0  0  0  0  0
  -21.9369  -16.7664   17.3667 O   0  0  0  0  0  0  0  0  0  0  0  0
  -26.2918  -28.3187   22.6587 O   0  0  0  0  0  0  0  0  0  0  0  0
  -27.5192  -31.8803   22.6040 O   0  0  0  0  0  0  0  0  0  0  0  0
  -23.2629  -33.6289   23.7643 O   0  0  0  0  0  0  0  0  0  0  0  0
  -26.9036  -23.1281   22.5216 O   0  0  0  0  0  0  0  0  0  0  0  0
  -25.5615  -10.6870   20.6055 O   0  0  0  0  0  0  0  0  0  0  0  0
  -19.9771  -28.4781   20.7603 O   0  0  0  0  0  0  0  0  0  1  0  0
  -21.1005   -7.8174   22.1117 F   0  0  0  0  0  0  0  0  0  0  0  0
  -25.4510   -9.4224   23.0613 F   0  0  0  0  0  0  0  0  0  0  0  0
  1  2  1  0  0  0  0
  1  5  2  0  0  0  0
  2  6  2  0  0  0  0
  3  8  2  0  0  0  0
  3 17  1  0  0  0  0
  4  9  1  0  0  0  0
  4 17  2  0  0  0  0
  5 19  1  0  0  0  0
  6 21  1  0  0  0  0
  7 10  2  0  0  0  0
  7 20  1  0  0  0  0
  8 25  1  0  0  0  0
  9 25  2  0  0  0  0
 10 26  1  0  0  0  0
 11 12  2  0  0  0  0
 11 27  1  0  0  0  0
 12 28  1  0  0  0  0
 13 22  1  0  0  0  0
 13 26  2  0  0  0  0
 14 24  2  0  0  0  0
 14 31  1  0  0  0  0
 15 28  2  0  0  0  0
 15 29  1  0  0  0  0
 16 23  2  0  0  0  0
 16 68  1  0  0  0  0
 17 30  1  0  0  0  0
 18 30  1  0  0  0  0
 18 32  2  0  0  0  0
 18 33  1  0  0  0  0
 19 21  2  0  0  0  0
 19 38  1  0  0  0  0
 20 22  2  0  0  0  0
 20 39  1  0  0  0  0
 21 47  1  0  0  0  0
 22 40  1  0  0  0  0
 23 24  1  0  0  0  0
 23 58  1  0  0  0  0
 24 73  1  0  0  0  0
 25 83  1  0  0  0  0
 26 84  1  0  0  0  0
 27 29  2  0  0  0  0
 27 83  1  0  0  0  0
 28 85  1  0  0  0  0
 29 86  1  0  0  0  0
 30 66  2  0  0  0  0
 31 59  1  0  0  0  0
 31 68  2  0  0  0  0
 32 67  1  0  0  0  0
 32 71  1  0  0  0  0
 33 72  1  0  0  0  0
 33 78  2  0  0  0  0
 34 48  1  0  0  0  0
 34 74  1  0  0  0  0
 34 79  2  0  0  0  0
 35 61  1  0  0  0  0
 35 69  1  0  0  0  0
 35 80  2  0  0  0  0
 36 62  1  0  0  0  0
 36 75  1  0  0  0  0
 36 81  2  0  0  0  0
 37 70  1  0  0  0  0
 37 76  1  0  0  0  0
 37 82  2  0  0  0  0
 38 41  1  0  0  0  0
 39 48  1  0  0  0  0
 40 69  1  0  0  0  0
 41 43  1  0  0  0  0
 42 44  1  0  0  0  0
 42 45  1  0  0  0  0
 43 47  1  0  0  0  0
 44 49  1  0  0  0  0
 45 70  1  0  0  0  0
 46 49  1  0  0  0  0
 46 70  1  0  0  0  0
 47 74  1  0  0  0  0
 48 69  1  0  0  0  0
 49 67  1  0  0  0  0
 50 62  1  0  0  0  0
 51 63  1  0  0  0  0
 52 63  1  0  0  0  0
 53 64  1  0  0  0  0
 54 65  1  0  0  0  0
 55 65  1  0  0  0  0
 56 65  1  0  0  0  0
 57 77  1  0  0  0  0
 58 76  1  0  0  0  0
 59 60  1  0  0  0  0
 60 64  1  0  0  0  0
 61 65  1  0  0  0  0
 61 75  1  0  0  0  0
 62 77  1  0  0  0  0
 63 73  1  0  0  0  0
 64 84  1  0  0  0  0
 66 67  1  0  0  0  0
M  CHG  2  68   1  77   1
M  ISO  4  37 100  64 101  76 100  84 101
M  END
> <Batch ID>
0108

> <Smiles>
CNC(C)C(=O)NC(C(=O)N1Cc2cc([101O:1][101CH:1](C)CCc3cc(NC(C)C)c(C[100NH:0][100C:0](=O)N4CCCC(n5nc(-c6ccc(Oc7ccc(F)cc7F)cc6)c(C(N)=O)c5N)C4)cn3)ccc2CC1C(=O)NC1CCCc2ccccc21)C(C)(C)C

> <Shape>
0.302

> <Color>
0.085

> <Negative vol penalty>
0.000

$$$$

  -OEChem-04052319533D

 86 94  0     1  0  0  0  0  0999 V2000
  -25.9602  -30.4424   26.2410 C   0  0  0  0  0  0  0  0  0  0  0  0
  -26.0249  -29.0534   26.1968 C   0  0  0  0  0  0  0  0  0  0  0  0
  -22.9691   -9.8523   20.0342 C   0  0  0  0  0  0  0  0  0  0  0  0
  -23.6615   -9.9989   22.3443 C   0  0  0  0  0  0  0  0  0  0  0  0
  -26.1511  -31.1853   25.0767 C   0  0  0  0  0  0  0  0  0  0  0  0
  -26.2795  -28.4065   24.9881 C   0  0  0  0  0  0  0  0  0  0  0  0
  -29.6932  -24.6949   25.4524 C   0  0  0  0  0  0  0  0  0  0  0  0
  -22.1912   -8.7351   20.3382 C   0  0  0  0  0  0  0  0  0  0  0  0
  -22.8836   -8.8817   22.6483 C   0  0  0  0  0  0  0  0  0  0  0  0
  -29.2529  -23.4893   25.9966 C   0  0  0  0  0  0  0  0  0  0  0  0
  -23.1123   -5.5240   22.3251 C   0  0  0  0  0  0  0  0  0  0  0  0
  -23.6822   -4.5369   23.1291 C   0  0  0  0  0  0  0  0  0  0  0  0
  -29.0863  -22.5558   23.7785 C   0  0  0  0  0  0  0  0  0  0  0  0
  -21.9361   -4.8627   24.7668 C   0  0  0  0  0  0  0  0  0  0  0  0
  -30.3275  -18.1817   23.7847 C   0  0  0  0  0  0  0  0  0  0  0  0
  -23.7043  -10.4842   21.0372 C   0  0  0  0  0  0  0  0  0  0  0  0
  -24.1089  -12.9874   20.7581 C   0  0  0  0  0  0  0  0  0  0  0  0
  -26.4178  -30.5476   23.8549 C   0  0  0  0  0  0  0  0  0  0  0  0
  -29.8232  -24.8438   24.0641 C   0  0  0  0  0  0  0  0  0  0  0  0
  -26.4728  -29.1415   23.8061 C   0  0  0  0  0  0  0  0  0  0  0  0
  -29.5309  -23.7636   23.2193 C   0  0  0  0  0  0  0  0  0  0  0  0
  -29.9371  -17.7681   22.5190 C   0  0  0  0  0  0  0  0  0  0  0  0
  -27.9608  -19.1274   22.7426 C   0  0  0  0  0  0  0  0  0  0  0  0
  -28.7402  -18.2486   21.9964 C   0  0  0  0  0  0  0  0  0  0  0  0
  -22.1485   -8.2498   21.6453 C   0  0  0  0  0  0  0  0  0  0  0  0
  -28.9466  -22.4204   25.1595 C   0  0  0  0  0  0  0  0  0  0  0  0
  -21.9543   -6.1806   22.7420 C   0  0  0  0  0  0  0  0  0  0  0  0
  -23.0941   -4.2062   24.3499 C   0  0  0  0  0  0  0  0  0  0  0  0
  -21.3662   -5.8499   23.9628 C   0  0  0  0  0  0  0  0  0  0  0  0
  -24.5084  -11.6379   20.7237 C   0  0  0  0  0  0  0  0  0  0  0  0
  -28.4012  -19.5066   24.0027 C   0  0  0  0  0  0  0  0  0  0  0  0
  -25.2286  -13.6867   20.3790 C   0  0  0  0  0  0  0  0  0  0  0  0
  -22.8392  -13.5577   21.1020 C   0  0  0  0  0  0  0  0  0  0  0  0
  -28.4811  -26.7157   21.8735 C   0  0  0  0  0  0  0  0  0  0  0  0
  -30.6566  -25.3213   19.9126 C   0  0  0  0  0  0  0  0  0  0  0  0
  -32.6899  -22.6567   19.2705 C   0  0  0  0  0  0  0  0  0  0  0  0
  -30.7269  -14.5979   20.6671 C   0  0  0  0  0  0  0  0  0  0  0  0
  -26.5703  -31.3910   22.6139 C   0  0  0  0  0  0  0  0  0  0  0  0
  -30.3250  -26.1423   23.4944 C   0  0  0  0  0  0  0  0  0  0  0  0
  -29.6731  -23.8656   21.7234 C   0  0  0  0  0  0  0  0  0  0  0  0
  -27.2071  -30.6444   21.4445 C   0  0  0  0  0  0  0  0  0  0  0  0
  -29.6038  -12.0816   18.4124 C   0  0  0  0  0  0  0  0  0  0  0  0
  -26.5622  -29.2728   21.2722 C   0  0  0  0  0  0  0  0  0  0  0  0
  -28.1478  -11.8491   18.8196 C   0  0  0  0  0  0  0  0  0  0  0  0
  -30.4903  -12.3638   19.6234 C   0  0  0  0  0  0  0  0  0  0  0  0
  -28.5666  -13.2283   20.8983 C   0  0  0  0  0  0  0  0  0  0  0  0
  -26.7714  -28.4043   22.5187 C   0  0  1  0  0  0  0  0  0  0  0  0
  -29.9288  -26.3475   22.0355 C   0  0  1  0  0  0  0  0  0  0  0  0
  -27.6235  -12.9950   19.7057 C   0  0  2  0  0  0  0  0  0  0  0  0
  -26.6728  -19.6588   22.2040 C   0  0  0  0  0  0  0  0  0  0  0  0
  -26.6655  -19.7267   25.8143 C   0  0  0  0  0  0  0  0  0  0  0  0
  -34.3193  -21.7864   17.5719 C   0  0  0  0  0  0  0  0  0  0  0  0
  -28.3390  -24.5902   18.0675 C   0  0  0  0  0  0  0  0  0  0  0  0
  -29.8525  -22.9518   16.9304 C   0  0  0  0  0  0  0  0  0  0  0  0
  -30.3978  -25.3857   16.8914 C   0  0  0  0  0  0  0  0  0  0  0  0
  -34.8973  -22.6099   21.2413 C   0  0  0  0  0  0  0  0  0  0  0  0
  -30.8072  -16.8257   21.7578 C   0  0  0  0  0  0  0  0  0  0  0  0
  -28.0671  -17.8921   18.2869 C   0  0  0  0  0  0  0  0  0  0  0  0
  -28.6735  -18.5548   19.5210 C   0  0  0  0  0  0  0  0  0  0  0  0
  -28.4281  -18.6252   17.0010 C   0  0  0  0  0  0  0  0  0  0  0  0
  -27.6311  -20.4576   24.8900 C   0  0  1  0  0  0  0  0  0  1  0  0
  -30.6760  -24.0874   19.0430 C   0  0  1  0  0  0  0  0  0  0  0  0
  -34.1489  -22.5792   18.8585 C   0  0  2  0  0  0  0  0  0  0  0  0
  -29.8117  -24.2521   17.7611 C   0  0  0  0  0  0  0  0  0  0  0  0
  -25.7824  -11.4867   20.3520 N   0  0  0  0  0  0  0  0  0  0  0  0
  -26.1930  -12.7501   20.1492 N   0  0  0  0  0  0  0  0  0  0  0  0
  -29.5578  -19.0288   24.4817 N   0  3  0  0  0  0  0  0  0  0  0  0
  -30.1613  -25.1578   21.2140 N   0  0  0  0  0  0  0  0  0  0  0  0
  -29.9385  -13.4618   20.4207 N   0  0  0  0  0  0  0  0  0  0  0  0
  -25.4723  -15.0053   20.2230 N   0  0  0  0  0  0  0  0  0  0  0  0
  -21.7967  -12.6956   21.4684 N   0  0  0  0  0  0  0  0  0  0  0  0
  -28.3191  -17.8446   20.7084 N   0  0  0  0  0  0  0  0  0  0  0  0
  -28.1156  -27.8687   22.5417 N   0  0  0  0  0  0  0  0  0  0  0  0
  -32.0811  -23.7937   18.7826 N   0  0  0  0  0  0  0  0  0  0  0  0
  -30.1255  -15.5945   21.4258 N   0  0  0  0  0  0  0  0  0  0  0  0
  -27.7653  -17.9515   15.8575 N   0  3  0  0  0  0  0  0  0  0  0  0
  -34.9544  -21.9216   19.9260 N   0  3  0  0  0  0  0  0  0  0  0  0
  -22.6304  -14.7942   21.0690 O   0  0  0  0  0  0  0  0  0  0  0  0
  -27.7501  -26.0070   21.1915 O   0  0  0  0  0  0  0  0  0  0  0  0
  -31.0724  -26.3893   19.4563 O   0  0  0  0  0  0  0  0  0  0  0  0
  -32.1438  -21.7930   19.9534 O   0  0  0  0  0  0  0  0  0  0  0  0
  -31.8795  -14.7176   20.2379 O   0  0  0  0  0  0  0  0  0  0  0  0
  -21.3893   -7.1598   21.9423 O   0  0  0  0  0  0  0  0  0  0  0  0
  -28.5159  -21.2427   25.6881 O   0  0  0  0  0  0  0  0  0  1  0  0
  -23.6405   -3.2571   25.1212 F   0  0  0  0  0  0  0  0  0  0  0  0
  -20.2531   -6.4764   24.3681 F   0  0  0  0  0  0  0  0  0  0  0  0
  1  2  1  0  0  0  0
  1  5  2  0  0  0  0
  2  6  2  0  0  0  0
  3  8  2  0  0  0  0
  3 16  1  0  0  0  0
  4  9  1  0  0  0  0
  4 16  2  0  0  0  0
  5 18  1  0  0  0  0
  6 20  1  0  0  0  0
  7 10  2  0  0  0  0
  7 19  1  0  0  0  0
  8 25  1  0  0  0  0
  9 25  2  0  0  0  0
 10 26  1  0  0  0  0
 11 12  2  0  0  0  0
 11 27  1  0  0  0  0
 12 28  1  0  0  0  0
 13 21  1  0  0  0  0
 13 26  2  0  0  0  0
 14 28  2  0  0  0  0
 14 29  1  0  0  0  0
 15 22  1  0  0  0  0
 15 67  2  0  0  0  0
 16 30  1  0  0  0  0
 17 30  1  0  0  0  0
 17 32  2  0  0  0  0
 17 33  1  0  0  0  0
 18 20  2  0  0  0  0
 18 38  1  0  0  0  0
 19 21  2  0  0  0  0
 19 39  1  0  0  0  0
 20 47  1  0  0  0  0
 21 40  1  0  0  0  0
 22 24  2  0  0  0  0
 22 57  1  0  0  0  0
 23 24  1  0  0  0  0
 23 31  2  0  0  0  0
 23 50  1  0  0  0  0
 24 72  1  0  0  0  0
 25 83  1  0  0  0  0
 26 84  1  0  0  0  0
 27 29  2  0  0  0  0
 27 83  1  0  0  0  0
 28 85  1  0  0  0  0
 29 86  1  0  0  0  0
 30 65  2  0  0  0  0
 31 61  1  0  0  0  0
 31 67  1  0  0  0  0
 32 66  1  0  0  0  0
 32 70  1  0  0  0  0
 33 71  1  0  0  0  0
 33 78  2  0  0  0  0
 34 48  1  0  0  0  0
 34 73  1  0  0  0  0
 34 79  2  0  0  0  0
 35 62  1  0  0  0  0
 35 68  1  0  0  0  0
 35 80  2  0  0  0  0
 36 63  1  0  0  0  0
 36 74  1  0  0  0  0
 36 81  2  0  0  0  0
 37 69  1  0  0  0  0
 37 75  1  0  0  0  0
 37 82  2  0  0  0  0
 38 41  1  0  0  0  0
 39 48  1  0  0  0  0
 40 68  1  0  0  0  0
 41 43  1  0  0  0  0
 42 44  1  0  0  0  0
 42 45  1  0  0  0  0
 43 47  1  0  0  0  0
 44 49  1  0  0  0  0
 45 69  1  0  0  0  0
 46 49  1  0  0  0  0
 46 69  1  0  0  0  0
 47 73  1  0  0  0  0
 48 68  1  0  0  0  0
 49 66  1  0  0  0  0
 51 61  1  0  0  0  0
 52 63  1  0  0  0  0
 53 64  1  0  0  0  0
 54 64  1  0  0  0  0
 55 64  1  0  0  0  0
 56 77  1  0  0  0  0
 57 75  1  0  0  0  0
 58 59  1  0  0  0  0
 58 60  1  0  0  0  0
 59 72  1  0  0  0  0
 60 76  1  0  0  0  0
 61 84  1  0  0  0  0
 62 64  1  0  0  0  0
 62 74  1  0  0  0  0
 63 77  1  0  0  0  0
 65 66  1  0  0  0  0
M  CHG  3  67   1  76   1  77   1
M  ISO  4  37 100  61 101  75 100  84 101
M  END
> <Batch ID>
0108

> <Smiles>
CNC(C)C(=O)NC(C(=O)N1Cc2cc([101O:1][101CH:1](C)c3ncc(C[100NH:0][100C:0](=O)N4CCCC(n5nc(-c6ccc(Oc7ccc(F)cc7F)cc6)c(C(N)=O)c5N)C4)c(NCCCN)c3C)ccc2CC1C(=O)NC1CCCc2ccccc21)C(C)(C)C

> <Shape>
0.315

> <Color>
0.196

> <Negative vol penalty>
0.000

$$$$

  -OEChem-04052319533D

 76 83  0     1  0  0  0  0  0999 V2000
  -25.4160  -19.7204   25.4397 C   0  0  0  0  0  0  0  0  0  0  0  0
  -26.2804  -20.6612   24.8916 C   0  0  0  0  0  0  0  0  0  0  0  0
  -27.0998  -14.4956   21.6874 C   0  0  0  0  0  0  0  0  0  0  0  0
  -27.4992  -14.3354   19.3100 C   0  0  0  0  0  0  0  0  0  0  0  0
  -24.0392  -19.8751   25.2921 C   0  0  0  0  0  0  0  0  0  0  0  0
  -25.7682  -21.7632   24.2060 C   0  0  0  0  0  0  0  0  0  0  0  0
  -28.9802  -25.2199   22.8139 C   0  0  0  0  0  0  0  0  0  0  0  0
  -26.5133  -13.2301   21.6742 C   0  0  0  0  0  0  0  0  0  0  0  0
  -26.9128  -13.0698   19.2968 C   0  0  0  0  0  0  0  0  0  0  0  0
  -29.8941  -25.0265   21.7789 C   0  0  0  0  0  0  0  0  0  0  0  0
  -23.5407  -11.8717   20.8124 C   0  0  0  0  0  0  0  0  0  0  0  0
  -22.3442  -11.7054   21.5097 C   0  0  0  0  0  0  0  0  0  0  0  0
  -28.5235  -26.3774   20.3243 C   0  0  0  0  0  0  0  0  0  0  0  0
  -23.3872  -10.0265   22.8991 C   0  0  0  0  0  0  0  0  0  0  0  0
  -27.5927  -15.0483   20.5053 C   0  0  0  0  0  0  0  0  0  0  0  0
  -29.5564  -16.6616   20.7256 C   0  0  0  0  0  0  0  0  0  0  0  0
  -23.5111  -20.9732   24.5935 C   0  0  0  0  0  0  0  0  0  0  0  0
  -27.8236  -25.9857   22.6083 C   0  0  0  0  0  0  0  0  0  0  0  0
  -24.3810  -21.9497   24.0669 C   0  0  0  0  0  0  0  0  0  0  0  0
  -27.5978  -26.5811   21.3591 C   0  0  0  0  0  0  0  0  0  0  0  0
  -26.4199  -12.5172   20.4789 C   0  0  0  0  0  0  0  0  0  0  0  0
  -29.6644  -25.6029   20.5331 C   0  0  0  0  0  0  0  0  0  0  0  0
  -24.6605  -11.1153   21.1584 C   0  0  0  0  0  0  0  0  0  0  0  0
  -22.2674  -10.7828   22.5530 C   0  0  0  0  0  0  0  0  0  0  0  0
  -24.5838  -10.1928   22.2017 C   0  0  0  0  0  0  0  0  0  0  0  0
  -28.1980  -16.3557   20.5182 C   0  0  0  0  0  0  0  0  0  0  0  0
  -29.6166  -18.0312   20.6426 C   0  0  0  0  0  0  0  0  0  0  0  0
  -30.6648  -15.7859   20.9713 C   0  0  0  0  0  0  0  0  0  0  0  0
  -24.7003  -25.4061   22.7200 C   0  0  0  0  0  0  0  0  0  0  0  0
  -24.4844  -28.6103   22.2633 C   0  0  0  0  0  0  0  0  0  0  0  0
  -25.9315  -31.4756   21.1046 C   0  0  0  0  0  0  0  0  0  0  0  0
  -28.2144  -22.8218   18.1466 C   0  0  0  0  0  0  0  0  0  0  0  0
  -22.0127  -21.0957   24.4704 C   0  0  0  0  0  0  0  0  0  0  0  0
  -26.8610  -26.2069   23.7427 C   0  0  0  0  0  0  0  0  0  0  0  0
  -26.3817  -27.4288   21.0929 C   0  0  0  0  0  0  0  0  0  0  0  0
  -21.5833  -22.0458   23.3572 C   0  0  0  0  0  0  0  0  0  0  0  0
  -25.9253  -21.4877   20.5249 C   0  0  0  0  0  0  0  0  0  0  0  0
  -22.3407  -23.3600   23.4746 C   0  0  0  0  0  0  0  0  0  0  0  0
  -26.4208  -20.0576   20.7473 C   0  0  0  0  0  0  0  0  0  0  0  0
  -26.0987  -21.9256   19.0723 C   0  0  0  0  0  0  0  0  0  0  0  0
  -27.9600  -20.3408   18.7600 C   0  0  0  0  0  0  0  0  0  0  0  0
  -23.8476  -23.1402   23.2907 C   0  0  1  0  0  0  0  0  0  0  0  0
  -25.4586  -26.5798   23.2722 C   0  0  1  0  0  0  0  0  0  0  0  0
  -27.8574  -19.8740   20.2221 C   0  0  2  0  0  0  0  0  0  0  0  0
  -25.4964  -33.9322   20.8341 C   0  0  0  0  0  0  0  0  0  0  0  0
  -22.6568  -28.0230   19.8917 C   0  0  0  0  0  0  0  0  0  0  0  0
  -23.0275  -30.3735   19.1132 C   0  0  0  0  0  0  0  0  0  0  0  0
  -21.9335  -29.9484   21.3143 C   0  0  0  0  0  0  0  0  0  0  0  0
  -32.5579  -24.8808   17.4539 C   0  0  0  0  0  0  0  0  0  0  0  0
  -32.4956  -22.4743   18.1632 C   0  0  0  0  0  0  0  0  0  0  0  0
  -28.2198  -32.1901   22.8402 C   0  0  0  0  0  0  0  0  0  0  0  0
  -30.4005  -23.5722   17.2427 C   0  0  0  0  0  0  0  0  0  0  0  0
  -31.2888  -24.1917   19.5203 C   0  0  0  0  0  0  0  0  0  1  0  0
  -24.4112  -29.5158   21.0577 C   0  0  1  0  0  0  0  0  0  0  0  0
  -26.0830  -32.8512   21.7286 C   0  0  2  0  0  0  0  0  0  0  0  0
  -23.0293  -29.4476   20.3483 C   0  0  0  0  0  0  0  0  0  0  0  0
  -31.6832  -23.7797   18.0831 C   0  0  0  0  0  0  0  0  0  0  0  0
  -27.4492  -17.4436   20.3185 N   0  0  0  0  0  0  0  0  0  0  0  0
  -28.3402  -18.4464   20.4002 N   0  0  0  0  0  0  0  0  0  0  0  0
  -25.4668  -27.6104   22.2320 N   0  0  0  0  0  0  0  0  0  0  0  0
  -27.4831  -21.7272   18.6366 N   0  0  0  0  0  0  0  0  0  0  0  0
  -30.6362  -18.9089   20.7540 N   0  0  0  0  0  0  0  0  0  0  0  0
  -30.4268  -14.4058   21.0251 N   0  0  0  0  0  0  0  0  0  0  0  0
  -24.5462  -24.3644   23.6149 N   0  0  0  0  0  0  0  0  0  0  0  0
  -24.7779  -30.8483   21.5250 N   0  0  0  0  0  0  0  0  0  0  0  0
  -29.5210  -22.5482   17.7610 N   0  0  0  0  0  0  0  0  0  0  0  0
  -27.5228  -33.1605   21.9573 N   0  3  0  0  0  0  0  0  0  0  0  0
  -31.8289  -16.2157   21.1546 O   0  0  0  0  0  0  0  0  0  0  0  0
  -24.2844  -25.4433   21.5679 O   0  0  0  0  0  0  0  0  0  0  0  0
  -23.7036  -28.7882   23.2016 O   0  0  0  0  0  0  0  0  0  0  0  0
  -26.7525  -31.0062   20.3197 O   0  0  0  0  0  0  0  0  0  0  0  0
  -27.7399  -23.9597   18.0641 O   0  0  0  0  0  0  0  0  0  0  0  0
  -25.8479  -11.2822   20.4657 O   0  0  0  0  0  0  0  0  0  0  0  0
  -30.5545  -25.4153   19.5210 O   0  0  0  0  0  0  0  0  0  1  0  0
  -21.1187  -10.6243   23.2236 F   0  0  0  0  0  0  0  0  0  0  0  0
  -25.6565   -9.4641   22.5395 F   0  0  0  0  0  0  0  0  0  0  0  0
  1  2  1  0  0  0  0
  1  5  2  0  0  0  0
  2  6  2  0  0  0  0
  3  8  2  0  0  0  0
  3 15  1  0  0  0  0
  4  9  1  0  0  0  0
  4 15  2  0  0  0  0
  5 17  1  0  0  0  0
  6 19  1  0  0  0  0
  7 10  2  0  0  0  0
  7 18  1  0  0  0  0
  8 21  1  0  0  0  0
  9 21  2  0  0  0  0
 10 22  1  0  0  0  0
 11 12  2  0  0  0  0
 11 23  1  0  0  0  0
 12 24  1  0  0  0  0
 13 20  1  0  0  0  0
 13 22  2  0  0  0  0
 14 24  2  0  0  0  0
 14 25  1  0  0  0  0
 15 26  1  0  0  0  0
 16 26  1  0  0  0  0
 16 27  2  0  0  0  0
 16 28  1  0  0  0  0
 17 19  2  0  0  0  0
 17 33  1  0  0  0  0
 18 20  2  0  0  0  0
 18 34  1  0  0  0  0
 19 42  1  0  0  0  0
 20 35  1  0  0  0  0
 21 73  1  0  0  0  0
 22 74  1  0  0  0  0
 23 25  2  0  0  0  0
 23 73  1  0  0  0  0
 24 75  1  0  0  0  0
 25 76  1  0  0  0  0
 26 58  2  0  0  0  0
 27 59  1  0  0  0  0
 27 62  1  0  0  0  0
 28 63  1  0  0  0  0
 28 68  2  0  0  0  0
 29 43  1  0  0  0  0
 29 64  1  0  0  0  0
 29 69  2  0  0  0  0
 30 54  1  0  0  0  0
 30 60  1  0  0  0  0
 30 70  2  0  0  0  0
 31 55  1  0  0  0  0
 31 65  1  0  0  0  0
 31 71  2  0  0  0  0
 32 61  1  0  0  0  0
 32 66  1  0  0  0  0
 32 72  2  0  0  0  0
 33 36  1  0  0  0  0
 34 43  1  0  0  0  0
 35 60  1  0  0  0  0
 36 38  1  0  0  0  0
 37 39  1  0  0  0  0
 37 40  1  0  0  0  0
 38 42  1  0  0  0  0
 39 44  1  0  0  0  0
 40 61  1  0  0  0  0
 41 44  1  0  0  0  0
 41 61  1  0  0  0  0
 42 64  1  0  0  0  0
 43 60  1  0  0  0  0
 44 59  1  0  0  0  0
 45 55  1  0  0  0  0
 46 56  1  0  0  0  0
 47 56  1  0  0  0  0
 48 56  1  0  0  0  0
 49 57  1  0  0  0  0
 50 57  1  0  0  0  0
 51 67  1  0  0  0  0
 52 57  1  0  0  0  0
 52 66  1  0  0  0  0
 53 57  1  0  0  0  0
 53 74  1  0  0  0  0
 54 56  1  0  0  0  0
 54 65  1  0  0  0  0
 55 67  1  0  0  0  0
 58 59  1  0  0  0  0
M  CHG  1  67   1
M  ISO  4  32 100  53 101  66 100  74 101
M  END
> <Batch ID>
0108

> <Smiles>
CNC(C)C(=O)NC(C(=O)N1Cc2cc([101O:1][101CH2:1]C(C)(C)C[100NH:0][100C:0](=O)N3CCCC(n4nc(-c5ccc(Oc6ccc(F)cc6F)cc5)c(C(N)=O)c4N)C3)ccc2CC1C(=O)NC1CCCc2ccccc21)C(C)(C)C

> <Shape>
0.221

> <Color>
0.058

> <Negative vol penalty>
0.000

$$$$

  -OEChem-04052319533D

 81 88  0     1  0  0  0  0  0999 V2000
  -24.6510  -11.2700   19.9926 C   0  0  0  0  0  0  0  0  0  0  0  0
  -24.0980  -12.5344   19.8171 C   0  0  0  0  0  0  0  0  0  0  0  0
  -24.6253  -28.9546   23.6938 C   0  0  0  0  0  0  0  0  0  0  0  0
  -24.6685  -28.4217   21.3377 C   0  0  0  0  0  0  0  0  0  0  0  0
  -25.8238  -11.1198   20.7315 C   0  0  0  0  0  0  0  0  0  0  0  0
  -24.7169  -13.6493   20.3813 C   0  0  0  0  0  0  0  0  0  0  0  0
  -24.9843  -17.5559   17.1701 C   0  0  0  0  0  0  0  0  0  0  0  0
  -25.5089  -30.0107   23.4711 C   0  0  0  0  0  0  0  0  0  0  0  0
  -25.5520  -29.4779   21.1150 C   0  0  0  0  0  0  0  0  0  0  0  0
  -23.8238  -18.3050   16.9807 C   0  0  0  0  0  0  0  0  0  0  0  0
  -27.4709  -33.0711   23.4672 C   0  0  0  0  0  0  0  0  0  0  0  0
  -27.1914  -34.2912   24.0827 C   0  0  0  0  0  0  0  0  0  0  0  0
  -24.6619  -19.9773   18.5039 C   0  0  0  0  0  0  0  0  0  0  0  0
  -25.0811  -34.3987   22.9112 C   0  0  0  0  0  0  0  0  0  0  0  0
  -24.2052  -28.1601   22.6271 C   0  0  0  0  0  0  0  0  0  0  0  0
  -21.8864  -27.1143   22.8203 C   0  0  0  0  0  0  0  0  0  0  0  0
  -26.4626  -12.2345   21.2970 C   0  0  0  0  0  0  0  0  0  0  0  0
  -25.9892  -18.0074   18.0377 C   0  0  0  0  0  0  0  0  0  0  0  0
  -25.8986  -13.5137   21.1296 C   0  0  0  0  0  0  0  0  0  0  0  0
  -25.8353  -19.2334   18.7007 C   0  0  0  0  0  0  0  0  0  0  0  0
  -25.9722  -30.2724   22.1817 C   0  0  0  0  0  0  0  0  0  0  0  0
  -23.6611  -19.5145   17.6499 C   0  0  0  0  0  0  0  0  0  0  0  0
  -26.5555  -32.5148   22.5737 C   0  0  0  0  0  0  0  0  0  0  0  0
  -25.9965  -34.9550   23.8047 C   0  0  0  0  0  0  0  0  0  0  0  0
  -25.3606  -33.1786   22.2957 C   0  0  0  0  0  0  0  0  0  0  0  0
  -23.2930  -27.0686   22.8566 C   0  0  0  0  0  0  0  0  0  0  0  0
  -21.4937  -25.8289   23.1030 C   0  0  0  0  0  0  0  0  0  0  0  0
  -21.0129  -28.2198   22.5547 C   0  0  0  0  0  0  0  0  0  0  0  0
  -27.3040  -16.9056   20.7137 C   0  0  0  0  0  0  0  0  0  0  0  0
  -29.2973  -19.4332   20.3139 C   0  0  0  0  0  0  0  0  0  0  0  0
  -29.8183  -22.5286   18.9745 C   0  0  0  0  0  0  0  0  0  0  0  0
  -22.0133  -20.3164   22.4044 C   0  0  0  0  0  0  0  0  0  0  0  0
  -27.7027  -12.0168   22.1274 C   0  0  0  0  0  0  0  0  0  0  0  0
  -27.2468  -17.2006   18.2106 C   0  0  0  0  0  0  0  0  0  0  0  0
  -26.8934  -19.7722   19.6273 C   0  0  0  0  0  0  0  0  0  0  0  0
  -28.5007  -13.2940   22.3768 C   0  0  0  0  0  0  0  0  0  0  0  0
  -24.1523  -21.8697   24.7894 C   0  0  0  0  0  0  0  0  0  0  0  0
  -27.5739  -14.4277   22.8040 C   0  0  0  0  0  0  0  0  0  0  0  0
  -24.0081  -23.3633   24.4920 C   0  0  0  0  0  0  0  0  0  0  0  0
  -24.1096  -21.0334   23.5124 C   0  0  0  0  0  0  0  0  0  0  0  0
  -22.7887  -22.7644   22.3582 C   0  0  0  0  0  0  0  0  0  0  0  0
  -26.5541  -14.7503   21.7053 C   0  0  1  0  0  0  0  0  0  0  0  0
  -27.9789  -17.5070   19.5135 C   0  0  1  0  0  0  0  0  0  0  0  0
  -22.7697  -23.6444   23.6198 C   0  0  2  0  0  0  0  0  0  0  0  0
  -31.5305  -24.3590   18.8513 C   0  0  0  0  0  0  0  0  0  0  0  0
  -20.1672  -21.9557   17.1959 C   0  0  0  0  0  0  0  0  0  0  0  0
  -28.6008  -20.2732   23.1634 C   0  0  0  0  0  0  0  0  0  0  0  0
  -29.5485  -22.5340   22.6543 C   0  0  0  0  0  0  0  0  0  0  0  0
  -31.0164  -20.5190   22.5643 C   0  0  0  0  0  0  0  0  0  0  0  0
  -30.0176  -22.3025   16.0303 C   0  0  0  0  0  0  0  0  0  0  0  0
  -20.0318  -16.7287   20.5968 C   0  0  0  0  0  0  0  0  0  0  0  0
  -17.9423  -18.0236   20.1996 C   0  0  0  0  0  0  0  0  0  0  0  0
  -19.8834  -19.7552   21.2608 C   0  0  0  0  0  0  0  0  0  0  0  0
  -22.0941  -21.0540   18.5611 C   0  0  0  0  0  0  0  0  0  1  0  0
  -29.2921  -20.8784   20.7505 C   0  0  1  0  0  0  0  0  0  0  0  0
  -30.9837  -23.1035   18.1899 C   0  0  2  0  0  0  0  0  0  0  0  0
  -20.5760  -21.2801   18.5124 C   0  0  2  0  0  0  0  0  0  0  0  0
  -20.1598  -19.1163   19.9006 C   0  0  2  0  0  0  0  0  0  0  0  0
  -19.7867  -19.9663   18.6789 C   0  0  2  0  0  0  0  0  0  0  0  0
  -29.5935  -21.0403   22.2672 C   0  0  0  0  0  0  0  0  0  0  0  0
  -23.7622  -25.8506   23.1402 N   0  0  0  0  0  0  0  0  0  0  0  0
  -22.6441  -25.1191   23.2847 N   0  0  0  0  0  0  0  0  0  0  0  0
  -28.1022  -18.9437   19.7682 N   0  0  0  0  0  0  0  0  0  0  0  0
  -22.9103  -21.3465   22.7318 N   0  0  0  0  0  0  0  0  0  0  0  0
  -20.2801  -25.2478   23.2115 N   0  0  0  0  0  0  0  0  0  0  0  0
  -21.5827  -29.4712   22.2829 N   0  0  0  0  0  0  0  0  0  0  0  0
  -27.1723  -15.5313   20.6554 N   0  0  0  0  0  0  0  0  0  0  0  0
  -30.2325  -21.5720   19.8770 N   0  0  0  0  0  0  0  0  0  0  0  0
  -20.8992  -20.7003   21.6681 N   0  0  0  0  0  0  0  0  0  0  0  0
  -30.5553  -23.4503   16.8053 N   0  3  0  0  0  0  0  0  0  0  0  0
  -19.3842  -17.8380   19.8150 N   0  3  0  0  0  0  0  0  0  0  0  0
  -19.7639  -28.1052   22.5746 O   0  0  0  0  0  0  0  0  0  0  0  0
  -26.9317  -17.6343   21.6259 O   0  0  0  0  0  0  0  0  0  0  0  0
  -30.3261  -18.7655   20.4455 O   0  0  0  0  0  0  0  0  0  0  0  0
  -28.6570  -22.8944   18.8063 O   0  0  0  0  0  0  0  0  0  0  0  0
  -22.1893  -19.1425   22.7478 O   0  0  0  0  0  0  0  0  0  0  0  0
  -26.8341  -31.3030   21.9640 O   0  0  0  0  0  0  0  0  0  0  0  0
  -22.5291  -20.2473   17.4673 O   0  0  0  0  0  0  0  0  0  1  0  0
  -25.7275  -36.1259   24.3970 F   0  0  0  0  0  0  0  0  0  0  0  0
  -24.4769  -32.6486   21.4391 F   0  0  0  0  0  0  0  0  0  0  0  0
  -20.0035  -19.2036   17.5636 F   0  0  0  0  0  0  0  0  0  0  0  0
  1  2  1  0  0  0  0
  1  5  2  0  0  0  0
  2  6  2  0  0  0  0
  3  8  2  0  0  0  0
  3 15  1  0  0  0  0
  4  9  1  0  0  0  0
  4 15  2  0  0  0  0
  5 17  1  0  0  0  0
  6 19  1  0  0  0  0
  7 10  2  0  0  0  0
  7 18  1  0  0  0  0
  8 21  1  0  0  0  0
  9 21  2  0  0  0  0
 10 22  1  0  0  0  0
 11 12  2  0  0  0  0
 11 23  1  0  0  0  0
 12 24  1  0  0  0  0
 13 20  1  0  0  0  0
 13 22  2  0  0  0  0
 14 24  2  0  0  0  0
 14 25  1  0  0  0  0
 15 26  1  0  0  0  0
 16 26  1  0  0  0  0
 16 27  2  0  0  0  0
 16 28  1  0  0  0  0
 17 19  2  0  0  0  0
 17 33  1  0  0  0  0
 18 20  2  0  0  0  0
 18 34  1  0  0  0  0
 19 42  1  0  0  0  0
 20 35  1  0  0  0  0
 21 77  1  0  0  0  0
 22 78  1  0  0  0  0
 23 25  2  0  0  0  0
 23 77  1  0  0  0  0
 24 79  1  0  0  0  0
 25 80  1  0  0  0  0
 26 61  2  0  0  0  0
 27 62  1  0  0  0  0
 27 65  1  0  0  0  0
 28 66  1  0  0  0  0
 28 72  2  0  0  0  0
 29 43  1  0  0  0  0
 29 67  1  0  0  0  0
 29 73  2  0  0  0  0
 30 55  1  0  0  0  0
 30 63  1  0  0  0  0
 30 74  2  0  0  0  0
 31 56  1  0  0  0  0
 31 68  1  0  0  0  0
 31 75  2  0  0  0  0
 32 64  1  0  0  0  0
 32 69  1  0  0  0  0
 32 76  2  0  0  0  0
 33 36  1  0  0  0  0
 34 43  1  0  0  0  0
 35 63  1  0  0  0  0
 36 38  1  0  0  0  0
 37 39  1  0  0  0  0
 37 40  1  0  0  0  0
 38 42  1  0  0  0  0
 39 44  1  0  0  0  0
 40 64  1  0  0  0  0
 41 44  1  0  0  0  0
 41 64  1  0  0  0  0
 42 67  1  0  0  0  0
 43 63  1  0  0  0  0
 44 62  1  0  0  0  0
 45 56  1  0  0  0  0
 46 57  1  0  0  0  0
 47 60  1  0  0  0  0
 48 60  1  0  0  0  0
 49 60  1  0  0  0  0
 50 70  1  0  0  0  0
 51 71  1  0  0  0  0
 52 71  1  0  0  0  0
 53 58  1  0  0  0  0
 53 69  1  0  0  0  0
 54 57  1  0  0  0  0
 54 78  1  0  0  0  0
 55 60  1  0  0  0  0
 55 68  1  0  0  0  0
 56 70  1  0  0  0  0
 57 59  1  0  0  0  0
 58 59  1  0  0  0  0
 58 71  1  0  0  0  0
 59 81  1  0  0  0  0
 61 62  1  0  0  0  0
M  CHG  2  70   1  71   1
M  ISO  4  32 100  54 101  69 100  78 101
M  END
> <Batch ID>
0108

> <Smiles>
CNC(C)C(=O)NC(C(=O)N1Cc2cc([101O:1][101CH2:1]C(C)C(F)C(C[100NH:0][100C:0](=O)N3CCCC(n4nc(-c5ccc(Oc6ccc(F)cc6F)cc5)c(C(N)=O)c4N)C3)N(C)C)ccc2CC1C(=O)NC1CCCc2ccccc21)C(C)(C)C

> <Shape>
0.201

> <Color>
0.059

> <Negative vol penalty>
0.000

$$$$

  -OEChem-04052319533D

 84 91  0     1  0  0  0  0  0999 V2000
  -30.3867  -25.4315   16.3324 C   0  0  0  0  0  0  0  0  0  0  0  0
  -29.6663  -24.4669   17.0295 C   0  0  0  0  0  0  0  0  0  0  0  0
  -27.9588  -17.0218   19.0296 C   0  0  0  0  0  0  0  0  0  0  0  0
  -27.4754  -17.5137   21.3451 C   0  0  0  0  0  0  0  0  0  0  0  0
  -30.4379  -26.7409   16.8084 C   0  0  0  0  0  0  0  0  0  0  0  0
  -28.9975  -24.8110   18.2037 C   0  0  0  0  0  0  0  0  0  0  0  0
  -23.6721  -22.5450   20.2066 C   0  0  0  0  0  0  0  0  0  0  0  0
  -28.6739  -18.2148   18.9255 C   0  0  0  0  0  0  0  0  0  0  0  0
  -28.1906  -18.7067   21.2410 C   0  0  0  0  0  0  0  0  0  0  0  0
  -23.3654  -21.5541   21.1381 C   0  0  0  0  0  0  0  0  0  0  0  0
  -31.4277  -19.6768   21.2457 C   0  0  0  0  0  0  0  0  0  0  0  0
  -32.3147  -19.9909   22.2753 C   0  0  0  0  0  0  0  0  0  0  0  0
  -23.0747  -23.2459   22.8330 C   0  0  0  0  0  0  0  0  0  0  0  0
  -31.0822  -22.0213   22.7176 C   0  0  0  0  0  0  0  0  0  0  0  0
  -27.3594  -16.6712   20.2395 C   0  0  0  0  0  0  0  0  0  0  0  0
  -27.1206  -14.1774   20.7203 C   0  0  0  0  0  0  0  0  0  0  0  0
  -29.7615  -27.1035   17.9838 C   0  0  0  0  0  0  0  0  0  0  0  0
  -23.6931  -23.8953   20.5845 C   0  0  0  0  0  0  0  0  0  0  0  0
  -29.0408  -26.1262   18.6966 C   0  0  0  0  0  0  0  0  0  0  0  0
  -23.3794  -24.2522   21.9037 C   0  0  0  0  0  0  0  0  0  0  0  0
  -28.7898  -19.0572   20.0311 C   0  0  0  0  0  0  0  0  0  0  0  0
  -23.0695  -21.9043   22.4523 C   0  0  0  0  0  0  0  0  0  0  0  0
  -30.3680  -20.5350   20.9519 C   0  0  0  0  0  0  0  0  0  0  0  0
  -32.1420  -21.1632   23.0113 C   0  0  0  0  0  0  0  0  0  0  0  0
  -30.1952  -21.7072   21.6879 C   0  0  0  0  0  0  0  0  0  0  0  0
  -26.6201  -15.4393   20.3475 C   0  0  0  0  0  0  0  0  0  0  0  0
  -26.0283  -13.3462   20.6697 C   0  0  0  0  0  0  0  0  0  0  0  0
  -28.4536  -13.7911   21.0802 C   0  0  0  0  0  0  0  0  0  0  0  0
  -25.9141  -26.1678   20.6650 C   0  0  0  0  0  0  0  0  0  0  0  0
  -23.4007  -28.0526   21.4730 C   0  0  0  0  0  0  0  0  0  0  0  0
  -20.2683  -28.2900   22.8067 C   0  0  0  0  0  0  0  0  0  0  0  0
  -20.1405  -14.3155   21.1650 C   0  0  0  0  0  0  0  0  0  0  0  0
  -29.8850  -28.5207   18.4848 C   0  0  0  0  0  0  0  0  0  0  0  0
  -23.9997  -24.9542   19.5612 C   0  0  0  0  0  0  0  0  0  0  0  0
  -23.3684  -25.6891   22.3552 C   0  0  0  0  0  0  0  0  0  0  0  0
  -28.8400  -28.8888   19.5349 C   0  0  0  0  0  0  0  0  0  0  0  0
  -21.8380  -12.8018   18.4257 C   0  0  0  0  0  0  0  0  0  0  0  0
  -28.7322  -27.7910   20.5884 C   0  0  0  0  0  0  0  0  0  0  0  0
  -23.3012  -13.1922   18.6412 C   0  0  0  0  0  0  0  0  0  0  0  0
  -20.8879  -13.9248   18.8358 C   0  0  0  0  0  0  0  0  0  0  0  0
  -22.5465  -14.8219   20.4226 C   0  0  0  0  0  0  0  0  0  0  0  0
  -28.2817  -26.4663   19.9608 C   0  0  1  0  0  0  0  0  0  0  0  0
  -24.4947  -26.2577   20.1802 C   0  0  1  0  0  0  0  0  0  0  0  0
  -23.5405  -13.7003   20.0758 C   0  0  2  0  0  0  0  0  0  0  0  0
  -18.4886  -29.9675   23.3690 C   0  0  0  0  0  0  0  0  0  0  0  0
  -22.0867  -18.7340   25.1797 C   0  0  0  0  0  0  0  0  0  0  0  0
  -19.4017  -14.2435   26.0692 C   0  0  0  0  0  0  0  0  0  0  0  0
  -25.0095  -28.9390   23.9093 C   0  0  0  0  0  0  0  0  0  0  0  0
  -22.8889  -29.8292   24.8988 C   0  0  0  0  0  0  0  0  0  0  0  0
  -23.7587  -30.7750   22.7607 C   0  0  0  0  0  0  0  0  0  0  0  0
  -18.3237  -27.0133   20.9770 C   0  0  0  0  0  0  0  0  0  0  0  0
  -22.3113  -13.1278   25.5300 C   0  0  0  0  0  0  0  0  0  0  0  0
  -20.2359  -11.9264   24.8589 C   0  0  0  0  0  0  0  0  0  0  0  0
  -20.5013  -17.8920   23.3702 C   0  0  0  0  0  0  0  0  0  0  0  0
  -18.7495  -16.0692   23.5731 C   0  0  0  0  0  0  0  0  0  0  0  0
  -22.1436  -19.7552   22.8766 C   0  0  0  0  0  0  0  0  0  1  0  0
  -22.7430  -28.4598   22.7694 C   0  0  1  0  0  0  0  0  0  0  0  0
  -19.0180  -29.0008   22.3211 C   0  0  2  0  0  0  0  0  0  0  0  0
  -21.2532  -19.1112   23.9519 C   0  0  2  0  0  0  0  0  0  0  0  0
  -19.5459  -14.7461   23.5357 C   0  0  2  0  0  0  0  0  0  0  0  0
  -20.2932  -14.4158   24.8443 C   0  0  2  0  0  0  0  0  0  0  0  0
  -19.4691  -17.2257   24.2975 C   0  0  2  0  0  0  0  0  0  0  0  0
  -23.6020  -29.4734   23.5768 C   0  0  0  0  0  0  0  0  0  0  0  0
  -25.3117  -15.4165   20.0797 N   0  0  0  0  0  0  0  0  0  0  0  0
  -24.9809  -14.1301   20.2844 N   0  0  0  0  0  0  0  0  0  0  0  0
  -23.6809  -26.6874   21.3192 N   0  0  0  0  0  0  0  0  0  0  0  0
  -21.1664  -14.3599   20.2066 N   0  0  0  0  0  0  0  0  0  0  0  0
  -25.8713  -12.0285   20.9176 N   0  0  0  0  0  0  0  0  0  0  0  0
  -29.4560  -14.7707   21.0806 N   0  0  0  0  0  0  0  0  0  0  0  0
  -26.8572  -26.4861   19.7065 N   0  0  0  0  0  0  0  0  0  0  0  0
  -21.4147  -28.9496   22.4170 N   0  0  0  0  0  0  0  0  0  0  0  0
  -20.4907  -14.7395   22.4411 N   0  0  0  0  0  0  0  0  0  0  0  0
  -18.4723  -18.2415   24.7330 N   0  3  0  0  0  0  0  0  0  0  0  0
  -17.9473  -28.0117   22.0106 N   0  3  0  0  0  0  0  0  0  0  0  0
  -21.0787  -13.1590   24.6659 N   0  3  0  0  0  0  0  0  0  0  0  0
  -28.7504  -12.6088   21.3763 O   0  0  0  0  0  0  0  0  0  0  0  0
  -26.1370  -25.8358   21.8233 O   0  0  0  0  0  0  0  0  0  0  0  0
  -23.6498  -28.9130   20.6249 O   0  0  0  0  0  0  0  0  0  0  0  0
  -20.2316  -27.2552   23.4688 O   0  0  0  0  0  0  0  0  0  0  0  0
  -18.9986  -13.9219   20.9042 O   0  0  0  0  0  0  0  0  0  0  0  0
  -29.4878  -20.2214   19.9299 O   0  0  0  0  0  0  0  0  0  0  0  0
  -22.7682  -20.9319   23.3704 O   0  0  0  0  0  0  0  0  0  1  0  0
  -32.9929  -21.4639   24.0011 F   0  0  0  0  0  0  0  0  0  0  0  0
  -29.1784  -22.5350   21.4112 F   0  0  0  0  0  0  0  0  0  0  0  0
  1  2  1  0  0  0  0
  1  5  2  0  0  0  0
  2  6  2  0  0  0  0
  3  8  2  0  0  0  0
  3 15  1  0  0  0  0
  4  9  1  0  0  0  0
  4 15  2  0  0  0  0
  5 17  1  0  0  0  0
  6 19  1  0  0  0  0
  7 10  2  0  0  0  0
  7 18  1  0  0  0  0
  8 21  1  0  0  0  0
  9 21  2  0  0  0  0
 10 22  1  0  0  0  0
 11 12  2  0  0  0  0
 11 23  1  0  0  0  0
 12 24  1  0  0  0  0
 13 20  1  0  0  0  0
 13 22  2  0  0  0  0
 14 24  2  0  0  0  0
 14 25  1  0  0  0  0
 15 26  1  0  0  0  0
 16 26  1  0  0  0  0
 16 27  2  0  0  0  0
 16 28  1  0  0  0  0
 17 19  2  0  0  0  0
 17 33  1  0  0  0  0
 18 20  2  0  0  0  0
 18 34  1  0  0  0  0
 19 42  1  0  0  0  0
 20 35  1  0  0  0  0
 21 81  1  0  0  0  0
 22 82  1  0  0  0  0
 23 25  2  0  0  0  0
 23 81  1  0  0  0  0
 24 83  1  0  0  0  0
 25 84  1  0  0  0  0
 26 64  2  0  0  0  0
 27 65  1  0  0  0  0
 27 68  1  0  0  0  0
 28 69  1  0  0  0  0
 28 76  2  0  0  0  0
 29 43  1  0  0  0  0
 29 70  1  0  0  0  0
 29 77  2  0  0  0  0
 30 57  1  0  0  0  0
 30 66  1  0  0  0  0
 30 78  2  0  0  0  0
 31 58  1  0  0  0  0
 31 71  1  0  0  0  0
 31 79  2  0  0  0  0
 32 67  1  0  0  0  0
 32 72  1  0  0  0  0
 32 80  2  0  0  0  0
 33 36  1  0  0  0  0
 34 43  1  0  0  0  0
 35 66  1  0  0  0  0
 36 38  1  0  0  0  0
 37 39  1  0  0  0  0
 37 40  1  0  0  0  0
 38 42  1  0  0  0  0
 39 44  1  0  0  0  0
 40 67  1  0  0  0  0
 41 44  1  0  0  0  0
 41 67  1  0  0  0  0
 42 70  1  0  0  0  0
 43 66  1  0  0  0  0
 44 65  1  0  0  0  0
 45 58  1  0  0  0  0
 46 59  1  0  0  0  0
 47 61  1  0  0  0  0
 48 63  1  0  0  0  0
 49 63  1  0  0  0  0
 50 63  1  0  0  0  0
 51 74  1  0  0  0  0
 52 75  1  0  0  0  0
 53 75  1  0  0  0  0
 54 59  1  0  0  0  0
 54 62  1  0  0  0  0
 55 60  1  0  0  0  0
 55 62  1  0  0  0  0
 56 59  1  0  0  0  0
 56 82  1  0  0  0  0
 57 63  1  0  0  0  0
 57 71  1  0  0  0  0
 58 74  1  0  0  0  0
 60 61  1  0  0  0  0
 60 72  1  0  0  0  0
 61 75  1  0  0  0  0
 62 73  1  0  0  0  0
 64 65  1  0  0  0  0
M  CHG  3  73   1  74   1  75   1
M  ISO  4  32 100  56 101  72 100  82 101
M  END
> <Batch ID>
0108

> <Smiles>
CNC(C)C(=O)NC(C(=O)N1Cc2cc([101O:1][101CH2:1]C(C)CC(N)CC([100NH:0][100C:0](=O)N3CCCC(n4nc(-c5ccc(Oc6ccc(F)cc6F)cc5)c(C(N)=O)c4N)C3)C(C)N(C)C)ccc2CC1C(=O)NC1CCCc2ccccc21)C(C)(C)C

> <Shape>
0.209

> <Color>
0.063

> <Negative vol penalty>
0.000

$$$$

  -OEChem-04052319533D

 88 96  0     1  0  0  0  0  0999 V2000
  -27.3201  -21.9204   16.6064 C   0  0  0  0  0  0  0  0  0  0  0  0
  -26.5576  -22.7110   17.4602 C   0  0  0  0  0  0  0  0  0  0  0  0
  -27.0370  -12.6245   19.6570 C   0  0  0  0  0  0  0  0  0  0  0  0
  -25.2192  -13.4208   21.0350 C   0  0  0  0  0  0  0  0  0  0  0  0
  -28.7070  -21.8844   16.7443 C   0  0  0  0  0  0  0  0  0  0  0  0
  -27.1816  -23.4653   18.4532 C   0  0  0  0  0  0  0  0  0  0  0  0
  -25.3679  -28.1850   18.7357 C   0  0  0  0  0  0  0  0  0  0  0  0
  -26.7391  -11.3118   20.0227 C   0  0  0  0  0  0  0  0  0  0  0  0
  -24.9214  -12.1081   21.4006 C   0  0  0  0  0  0  0  0  0  0  0  0
  -24.1448  -28.3595   19.3818 C   0  0  0  0  0  0  0  0  0  0  0  0
  -23.3281   -9.4495   20.0538 C   0  0  0  0  0  0  0  0  0  0  0  0
  -21.9880   -9.0629   20.0406 C   0  0  0  0  0  0  0  0  0  0  0  0
  -25.3049  -29.0816   21.3698 C   0  0  0  0  0  0  0  0  0  0  0  0
  -22.1118   -8.5531   22.3990 C   0  0  0  0  0  0  0  0  0  0  0  0
  -26.2771  -13.6790   20.1632 C   0  0  0  0  0  0  0  0  0  0  0  0
  -26.5829  -15.5778   18.4872 C   0  0  0  0  0  0  0  0  0  0  0  0
  -29.3491  -22.6462   17.7333 C   0  0  0  0  0  0  0  0  0  0  0  0
  -26.5710  -28.4475   19.4065 C   0  0  0  0  0  0  0  0  0  0  0  0
  -28.5783  -23.4385   18.6053 C   0  0  0  0  0  0  0  0  0  0  0  0
  -26.5418  -28.9121   20.7292 C   0  0  0  0  0  0  0  0  0  0  0  0
  -25.6813  -11.0536   20.8945 C   0  0  0  0  0  0  0  0  0  0  0  0
  -24.1133  -28.8051   20.7000 C   0  0  0  0  0  0  0  0  0  0  0  0
  -24.0601   -9.3878   21.2396 C   0  0  0  0  0  0  0  0  0  0  0  0
  -21.3798   -8.6147   21.2131 C   0  0  0  0  0  0  0  0  0  0  0  0
  -23.4519   -8.9397   22.4122 C   0  0  0  0  0  0  0  0  0  0  0  0
  -26.5846  -15.0353   19.7862 C   0  0  0  0  0  0  0  0  0  0  0  0
  -26.9397  -16.8923   18.6636 C   0  0  0  0  0  0  0  0  0  0  0  0
  -26.2854  -14.9496   17.2332 C   0  0  0  0  0  0  0  0  0  0  0  0
  -29.1000  -26.7113   20.2392 C   0  0  0  0  0  0  0  0  0  0  0  0
  -30.2811  -29.5868   21.1658 C   0  0  0  0  0  0  0  0  0  0  0  0
  -29.0393  -32.5231   22.8551 C   0  0  0  0  0  0  0  0  0  0  0  0
  -26.3651  -20.5397   23.2703 C   0  0  0  0  0  0  0  0  0  0  0  0
  -30.8469  -22.5383   17.8744 C   0  0  0  0  0  0  0  0  0  0  0  0
  -27.8811  -28.2799   18.6868 C   0  0  0  0  0  0  0  0  0  0  0  0
  -27.8046  -29.2275   21.4870 C   0  0  0  0  0  0  0  0  0  0  0  0
  -31.4620  -23.6573   18.7109 C   0  0  0  0  0  0  0  0  0  0  0  0
  -18.0712  -27.6544   23.0404 C   0  0  0  0  0  0  0  0  0  0  0  0
  -18.8888  -28.9049   23.3451 C   0  0  0  0  0  0  0  0  0  0  0  0
  -18.9534  -26.4186   22.9020 C   0  0  0  0  0  0  0  0  0  0  0  0
  -29.4606  -19.7295   21.5795 C   0  0  0  0  0  0  0  0  0  0  0  0
  -30.6612  -23.8681   19.9919 C   0  0  0  0  0  0  0  0  0  0  0  0
  -29.0622  -18.4747   20.8004 C   0  0  0  0  0  0  0  0  0  0  0  0
  -19.9980  -29.1193   22.3154 C   0  0  0  0  0  0  0  0  0  0  0  0
  -20.0629  -26.6291   21.8718 C   0  0  0  0  0  0  0  0  0  0  0  0
  -28.7919  -19.7645   22.9506 C   0  0  0  0  0  0  0  0  0  0  0  0
  -26.9057  -18.4034   22.1362 C   0  0  0  0  0  0  0  0  0  0  0  0
  -29.2206  -24.2901   19.6788 C   0  0  1  0  0  0  0  0  0  0  0  0
  -29.0620  -28.0856   19.6330 C   0  0  1  0  0  0  0  0  0  0  0  0
  -27.5313  -18.3202   20.7320 C   0  0  2  0  0  0  0  0  0  0  0  0
  -20.9174  -27.8895   22.1376 C   0  0  0  0  0  0  0  0  0  0  0  0
  -29.7814  -34.9167   22.7245 C   0  0  0  0  0  0  0  0  0  0  0  0
  -25.5592  -22.3426   25.8491 C   0  0  0  0  0  0  0  0  0  0  0  0
  -22.8430  -25.4343   25.3757 C   0  0  0  0  0  0  0  0  0  0  0  0
  -31.9958  -28.8849   23.5901 C   0  0  0  0  0  0  0  0  0  0  0  0
  -31.4807  -31.1504   24.5230 C   0  0  0  0  0  0  0  0  0  0  0  0
  -32.7144  -30.9433   22.3648 C   0  0  0  0  0  0  0  0  0  0  0  0
  -26.5843  -26.3727   25.0010 C   0  0  0  0  0  0  0  0  0  0  0  0
  -26.3189  -33.4490   22.1473 C   0  0  0  0  0  0  0  0  0  0  0  0
  -21.8026  -27.6907   23.3833 C   0  0  0  0  0  0  0  0  0  0  0  0
  -21.8451  -28.1285   20.9314 C   0  0  0  0  0  0  0  0  0  1  0  0
  -26.6683  -24.0683   24.3264 C   0  0  0  0  0  0  0  0  0  0  0  0
  -24.7864  -25.4313   23.7150 C   0  0  0  0  0  0  0  0  0  0  0  0
  -30.2471  -30.3963   22.4396 C   0  0  1  0  0  0  0  0  0  0  0  0
  -28.7768  -33.8844   22.2368 C   0  0  2  0  0  0  0  0  0  0  0  0
  -25.9788  -22.7013   24.4260 C   0  0  1  0  0  0  0  0  0  0  0  0
  -23.5846  -26.1873   24.2793 C   0  0  1  0  0  0  0  0  0  0  0  0
  -31.5885  -30.3258   23.2226 C   0  0  0  0  0  0  0  0  0  0  0  0
  -26.9163  -15.9319   20.7190 N   0  0  0  0  0  0  0  0  0  0  0  0
  -27.1264  -17.0511   20.0053 N   0  0  0  0  0  0  0  0  0  0  0  0
  -29.0608  -29.0416   20.7421 N   0  0  0  0  0  0  0  0  0  0  0  0
  -27.3346  -19.6314   22.8138 N   0  0  0  0  0  0  0  0  0  0  0  0
  -27.1088  -17.9164   17.8004 N   0  0  0  0  0  0  0  0  0  0  0  0
  -25.9365  -13.5922   17.2320 N   0  0  0  0  0  0  0  0  0  0  0  0
  -29.1721  -25.6892   19.3120 N   0  0  0  0  0  0  0  0  0  0  0  0
  -29.8502  -31.7464   22.0547 N   0  0  0  0  0  0  0  0  0  0  0  0
  -26.8540  -21.6736   23.9075 N   0  0  0  0  0  0  0  0  0  0  0  0
  -25.7849  -25.1715   24.7262 N   0  0  2  0  0  0  0  0  0  0  0  0
  -27.4081  -34.3578   22.5885 N   0  3  0  0  0  0  0  0  0  0  0  0
  -22.6242  -26.4863   23.1761 N   0  3  0  0  0  0  0  0  0  0  0  0
  -26.3436  -15.5694   16.1442 O   0  0  0  0  0  0  0  0  0  0  0  0
  -29.0679  -26.5874   21.4579 O   0  0  0  0  0  0  0  0  0  0  0  0
  -31.3496  -29.4494   20.5649 O   0  0  0  0  0  0  0  0  0  0  0  0
  -28.5748  -32.1840   23.9413 O   0  0  0  0  0  0  0  0  0  0  0  0
  -25.1527  -20.3564   23.1167 O   0  0  0  0  0  0  0  0  0  0  0  0
  -25.3903   -9.7728   21.2513 O   0  0  0  0  0  0  0  0  0  0  0  0
  -22.9209  -28.9756   21.3332 O   0  0  0  0  0  0  0  0  0  1  0  0
  -20.0924   -8.2449   21.2006 F   0  0  0  0  0  0  0  0  0  0  0  0
  -24.1497   -8.8794   23.5547 F   0  0  0  0  0  0  0  0  0  0  0  0
  1  2  1  0  0  0  0
  1  5  2  0  0  0  0
  2  6  2  0  0  0  0
  3  8  2  0  0  0  0
  3 15  1  0  0  0  0
  4  9  1  0  0  0  0
  4 15  2  0  0  0  0
  5 17  1  0  0  0  0
  6 19  1  0  0  0  0
  7 10  2  0  0  0  0
  7 18  1  0  0  0  0
  8 21  1  0  0  0  0
  9 21  2  0  0  0  0
 10 22  1  0  0  0  0
 11 12  2  0  0  0  0
 11 23  1  0  0  0  0
 12 24  1  0  0  0  0
 13 20  1  0  0  0  0
 13 22  2  0  0  0  0
 14 24  2  0  0  0  0
 14 25  1  0  0  0  0
 15 26  1  0  0  0  0
 16 26  1  0  0  0  0
 16 27  2  0  0  0  0
 16 28  1  0  0  0  0
 17 19  2  0  0  0  0
 17 33  1  0  0  0  0
 18 20  2  0  0  0  0
 18 34  1  0  0  0  0
 19 47  1  0  0  0  0
 20 35  1  0  0  0  0
 21 85  1  0  0  0  0
 22 86  1  0  0  0  0
 23 25  2  0  0  0  0
 23 85  1  0  0  0  0
 24 87  1  0  0  0  0
 25 88  1  0  0  0  0
 26 68  2  0  0  0  0
 27 69  1  0  0  0  0
 27 72  1  0  0  0  0
 28 73  1  0  0  0  0
 28 80  2  0  0  0  0
 29 48  1  0  0  0  0
 29 74  1  0  0  0  0
 29 81  2  0  0  0  0
 30 63  1  0  0  0  0
 30 70  1  0  0  0  0
 30 82  2  0  0  0  0
 31 64  1  0  0  0  0
 31 75  1  0  0  0  0
 31 83  2  0  0  0  0
 32 71  1  0  0  0  0
 32 76  1  0  0  0  0
 32 84  2  0  0  0  0
 33 36  1  0  0  0  0
 34 48  1  0  0  0  0
 35 70  1  0  0  0  0
 36 41  1  0  0  0  0
 37 38  1  0  0  0  0
 37 39  1  0  0  0  0
 38 43  1  0  0  0  0
 39 44  1  0  0  0  0
 40 42  1  0  0  0  0
 40 45  1  0  0  0  0
 41 47  1  0  0  0  0
 42 49  1  0  0  0  0
 43 50  1  0  0  0  0
 44 50  1  0  0  0  0
 45 71  1  0  0  0  0
 46 49  1  0  0  0  0
 46 71  1  0  0  0  0
 47 74  1  0  0  0  0
 48 70  1  0  0  0  0
 49 69  1  0  0  0  0
 50 59  1  0  0  0  0
 50 60  1  0  0  0  0
 51 64  1  0  0  0  0
 52 65  1  0  0  0  0
 53 66  1  0  0  0  0
 54 67  1  0  0  0  0
 55 67  1  0  0  0  0
 56 67  1  0  0  0  0
 57 77  1  0  0  0  0
 58 78  1  0  0  0  0
 59 79  1  0  0  0  0
 60 86  1  0  0  0  0
 61 65  1  0  0  0  0
 61 77  1  0  0  0  0
 62 66  1  0  0  0  0
 62 77  1  0  0  0  0
 63 67  1  0  0  0  0
 63 75  1  0  0  0  0
 64 78  1  0  0  0  0
 65 76  1  0  0  0  0
 66 79  1  0  0  0  0
 68 69  1  0  0  0  0
M  CHG  2  78   1  79   1
M  ISO  4  32 100  60 101  76 100  86 101
M  END
> <Batch ID>
0108

> <Smiles>
CNC(C)C(=O)NC(C(=O)N1Cc2cc([101O:1][101CH2:1]C3(CNC(C)CN(C)CC(C)[100NH:0][100C:0](=O)N4CCCC(n5nc(-c6ccc(Oc7ccc(F)cc7F)cc6)c(C(N)=O)c5N)C4)CCCCC3)ccc2CC1C(=O)NC1CCCc2ccccc21)C(C)(C)C

> <Shape>
0.243

> <Color>
0.056

> <Negative vol penalty>
0.000

$$$$

  -OEChem-04052319533D

 84 92  0     1  0  0  0  0  0999 V2000
  -17.3381  -30.2488   24.2986 C   0  0  0  0  0  0  0  0  0  0  0  0
  -17.7807  -28.9952   24.7087 C   0  0  0  0  0  0  0  0  0  0  0  0
  -22.3065  -10.6178   21.0898 C   0  0  0  0  0  0  0  0  0  0  0  0
  -24.2088   -9.6503   22.2220 C   0  0  0  0  0  0  0  0  0  0  0  0
  -17.7012  -30.7393   23.0451 C   0  0  0  0  0  0  0  0  0  0  0  0
  -18.5858  -28.2310   23.8648 C   0  0  0  0  0  0  0  0  0  0  0  0
  -23.9321  -23.4668   24.0554 C   0  0  0  0  0  0  0  0  0  0  0  0
  -21.7731   -9.3435   20.8970 C   0  0  0  0  0  0  0  0  0  0  0  0
  -23.6754   -8.3759   22.0293 C   0  0  0  0  0  0  0  0  0  0  0  0
  -24.2664  -22.2031   23.5707 C   0  0  0  0  0  0  0  0  0  0  0  0
  -21.2886   -6.4382   23.4325 C   0  0  0  0  0  0  0  0  0  0  0  0
  -21.3061   -5.5594   24.5155 C   0  0  0  0  0  0  0  0  0  0  0  0
  -24.8956  -23.1860   21.4595 C   0  0  0  0  0  0  0  0  0  0  0  0
  -22.6561   -4.0142   23.2399 C   0  0  0  0  0  0  0  0  0  0  0  0
  -27.7051  -20.2323   20.2710 C   0  0  0  0  0  0  0  0  0  0  0  0
  -23.5244  -10.7712   21.7522 C   0  0  0  0  0  0  0  0  0  0  0  0
  -23.8593  -12.9432   23.0476 C   0  0  0  0  0  0  0  0  0  0  0  0
  -18.5191  -29.9847   22.1893 C   0  0  0  0  0  0  0  0  0  0  0  0
  -24.0670  -24.6002   23.2408 C   0  0  0  0  0  0  0  0  0  0  0  0
  -18.9591  -28.7113   22.5981 C   0  0  0  0  0  0  0  0  0  0  0  0
  -24.5648  -24.4633   21.9371 C   0  0  0  0  0  0  0  0  0  0  0  0
  -27.6711  -19.5186   21.4486 C   0  0  0  0  0  0  0  0  0  0  0  0
  -28.9847  -19.5150   21.9792 C   0  0  0  0  0  0  0  0  0  0  0  0
  -22.4575   -8.2226   21.3668 C   0  0  0  0  0  0  0  0  0  0  0  0
  -24.7455  -22.0621   22.2716 C   0  0  0  0  0  0  0  0  0  0  0  0
  -21.9548   -6.1050   22.2531 C   0  0  0  0  0  0  0  0  0  0  0  0
  -21.9898   -4.3474   24.4192 C   0  0  0  0  0  0  0  0  0  0  0  0
  -22.6385   -4.8931   22.1568 C   0  0  0  0  0  0  0  0  0  0  0  0
  -24.0762  -12.0873   21.9512 C   0  0  0  0  0  0  0  0  0  0  0  0
  -29.7814  -20.2268   21.1097 C   0  0  0  0  0  0  0  0  0  0  0  0
  -24.6007  -14.0633   22.7607 C   0  0  0  0  0  0  0  0  0  0  0  0
  -23.0591  -12.7437   24.2204 C   0  0  0  0  0  0  0  0  0  0  0  0
  -22.0648  -26.7781   22.0782 C   0  0  0  0  0  0  0  0  0  0  0  0
  -24.8025  -28.1734   21.0387 C   0  0  0  0  0  0  0  0  0  0  0  0
  -28.0812  -27.8208   20.1595 C   0  0  0  0  0  0  0  0  0  0  0  0
  -29.3109  -16.4510   20.9556 C   0  0  0  0  0  0  0  0  0  0  0  0
  -18.8464  -30.5368   20.8245 C   0  0  0  0  0  0  0  0  0  0  0  0
  -23.7273  -25.9596   23.7876 C   0  0  0  0  0  0  0  0  0  0  0  0
  -24.7473  -25.6510   21.0292 C   0  0  0  0  0  0  0  0  0  0  0  0
  -20.0106  -29.8233   20.1420 C   0  0  0  0  0  0  0  0  0  0  0  0
  -26.9325  -15.4649   18.4964 C   0  0  0  0  0  0  0  0  0  0  0  0
  -19.8495  -28.3106   20.2545 C   0  0  0  0  0  0  0  0  0  0  0  0
  -25.9638  -14.5644   19.2648 C   0  0  0  0  0  0  0  0  0  0  0  0
  -28.3703  -15.2895   18.9801 C   0  0  0  0  0  0  0  0  0  0  0  0
  -27.5914  -14.5590   21.2012 C   0  0  0  0  0  0  0  0  0  0  0  0
  -19.8542  -27.8629   21.7211 C   0  0  1  0  0  0  0  0  0  0  0  0
  -23.4183  -26.9818   22.6981 C   0  0  1  0  0  0  0  0  0  0  0  0
  -26.1212  -14.7414   20.7871 C   0  0  2  0  0  0  0  0  0  0  0  0
  -31.2259  -20.5345   21.1739 C   0  0  0  0  0  0  0  0  0  0  0  0
  -30.0465  -29.1334   19.3157 C   0  0  0  0  0  0  0  0  0  0  0  0
  -28.7565  -22.8135   18.8972 C   0  0  0  0  0  0  0  0  0  0  0  0
  -29.2662  -20.6867   17.6230 C   0  0  0  0  0  0  0  0  0  0  0  0
  -23.5756  -28.2099   18.2453 C   0  0  0  0  0  0  0  0  0  0  0  0
  -25.8652  -28.6241   17.3209 C   0  0  0  0  0  0  0  0  0  0  0  0
  -24.8252  -30.2863   18.8631 C   0  0  0  0  0  0  0  0  0  0  0  0
  -29.6812  -27.1954   22.5695 C   0  0  0  0  0  0  0  0  0  0  0  0
  -26.4521  -18.8646   22.0523 C   0  0  0  0  0  0  0  0  0  0  0  0
  -29.4222  -18.8680   23.2334 C   0  0  0  0  0  0  0  0  0  0  0  0
  -30.1505  -17.5279   23.0279 C   0  0  0  0  0  0  0  0  0  0  0  0
  -25.5372  -19.8698   22.7435 C   0  0  0  0  0  0  0  0  0  1  0  0
  -25.6421  -28.0795   19.7876 C   0  0  1  0  0  0  0  0  0  0  0  0
  -29.3180  -28.6122   20.5447 C   0  0  2  0  0  0  0  0  0  0  0  0
  -29.4339  -21.4424   18.9426 C   0  0  0  0  0  0  0  0  0  0  0  0
  -24.9719  -28.7771   18.5704 C   0  0  0  0  0  0  0  0  0  0  0  0
  -24.8916  -12.6181   21.0360 N   0  0  0  0  0  0  0  0  0  0  0  0
  -28.9929  -20.6583   20.0752 N   0  0  0  0  0  0  0  0  0  0  0  0
  -25.1934  -13.8197   21.5567 N   0  0  0  0  0  0  0  0  0  0  0  0
  -24.3953  -26.9583   21.6076 N   0  0  0  0  0  0  0  0  0  0  0  0
  -28.4511  -15.4717   20.4314 N   0  0  0  0  0  0  0  0  0  0  0  0
  -24.7969  -15.2229   23.4235 N   0  0  0  0  0  0  0  0  0  0  0  0
  -22.3625  -11.5351   24.3564 N   0  0  0  0  0  0  0  0  0  0  0  0
  -21.2049  -27.8476   22.2405 N   0  0  0  0  0  0  0  0  0  0  0  0
  -26.9540  -28.6146   20.1352 N   0  0  0  0  0  0  0  0  0  0  0  0
  -29.3223  -16.5623   22.3406 N   0  0  0  0  0  0  0  0  0  0  0  0
  -30.2593  -27.7567   21.3213 N   0  3  0  0  0  0  0  0  0  0  0  0
  -22.9516  -13.6181   25.1134 O   0  0  0  0  0  0  0  0  0  0  0  0
  -21.8193  -25.7290   21.4944 O   0  0  0  0  0  0  0  0  0  0  0  0
  -24.5245  -29.2837   21.4985 O   0  0  0  0  0  0  0  0  0  0  0  0
  -28.1125  -26.6194   19.9021 O   0  0  0  0  0  0  0  0  0  0  0  0
  -30.0121  -17.1763   20.2420 O   0  0  0  0  0  0  0  0  0  0  0  0
  -21.9372   -6.9789   21.1790 O   0  0  0  0  0  0  0  0  0  0  0  0
  -25.0720  -20.8297   21.7957 O   0  0  0  0  0  0  0  0  0  1  0  0
  -22.0078   -3.5043   25.4599 F   0  0  0  0  0  0  0  0  0  0  0  0
  -23.2814   -4.5680   21.0268 F   0  0  0  0  0  0  0  0  0  0  0  0
  1  2  1  0  0  0  0
  1  5  2  0  0  0  0
  2  6  2  0  0  0  0
  3  8  2  0  0  0  0
  3 16  1  0  0  0  0
  4  9  1  0  0  0  0
  4 16  2  0  0  0  0
  5 18  1  0  0  0  0
  6 20  1  0  0  0  0
  7 10  2  0  0  0  0
  7 19  1  0  0  0  0
  8 24  1  0  0  0  0
  9 24  2  0  0  0  0
 10 25  1  0  0  0  0
 11 12  2  0  0  0  0
 11 26  1  0  0  0  0
 12 27  1  0  0  0  0
 13 21  1  0  0  0  0
 13 25  2  0  0  0  0
 14 27  2  0  0  0  0
 14 28  1  0  0  0  0
 15 22  2  0  0  0  0
 15 66  1  0  0  0  0
 16 29  1  0  0  0  0
 17 29  1  0  0  0  0
 17 31  2  0  0  0  0
 17 32  1  0  0  0  0
 18 20  2  0  0  0  0
 18 37  1  0  0  0  0
 19 21  2  0  0  0  0
 19 38  1  0  0  0  0
 20 46  1  0  0  0  0
 21 39  1  0  0  0  0
 22 23  1  0  0  0  0
 22 57  1  0  0  0  0
 23 30  2  0  0  0  0
 23 58  1  0  0  0  0
 24 81  1  0  0  0  0
 25 82  1  0  0  0  0
 26 28  2  0  0  0  0
 26 81  1  0  0  0  0
 27 83  1  0  0  0  0
 28 84  1  0  0  0  0
 29 65  2  0  0  0  0
 30 49  1  0  0  0  0
 30 66  1  0  0  0  0
 31 67  1  0  0  0  0
 31 70  1  0  0  0  0
 32 71  1  0  0  0  0
 32 76  2  0  0  0  0
 33 47  1  0  0  0  0
 33 72  1  0  0  0  0
 33 77  2  0  0  0  0
 34 61  1  0  0  0  0
 34 68  1  0  0  0  0
 34 78  2  0  0  0  0
 35 62  1  0  0  0  0
 35 73  1  0  0  0  0
 35 79  2  0  0  0  0
 36 69  1  0  0  0  0
 36 74  1  0  0  0  0
 36 80  2  0  0  0  0
 37 40  1  0  0  0  0
 38 47  1  0  0  0  0
 39 68  1  0  0  0  0
 40 42  1  0  0  0  0
 41 43  1  0  0  0  0
 41 44  1  0  0  0  0
 42 46  1  0  0  0  0
 43 48  1  0  0  0  0
 44 69  1  0  0  0  0
 45 48  1  0  0  0  0
 45 69  1  0  0  0  0
 46 72  1  0  0  0  0
 47 68  1  0  0  0  0
 48 67  1  0  0  0  0
 50 62  1  0  0  0  0
 51 63  1  0  0  0  0
 52 63  1  0  0  0  0
 53 64  1  0  0  0  0
 54 64  1  0  0  0  0
 55 64  1  0  0  0  0
 56 75  1  0  0  0  0
 57 60  1  0  0  0  0
 58 59  1  0  0  0  0
 59 74  1  0  0  0  0
 60 82  1  0  0  0  0
 61 64  1  0  0  0  0
 61 73  1  0  0  0  0
 62 75  1  0  0  0  0
 63 66  1  0  0  0  0
 65 67  1  0  0  0  0
M  CHG  1  75   1
M  ISO  4  36 100  60 101  74 100  82 101
M  END
> <Batch ID>
0108

> <Smiles>
CNC(C)C(=O)NC(C(=O)N1Cc2cc([101O:1][101CH2:1]Cc3cn(C(C)C)c(C)c3CC[100NH:0][100C:0](=O)N3CCCC(n4nc(-c5ccc(Oc6ccc(F)cc6F)cc5)c(C(N)=O)c4N)C3)ccc2CC1C(=O)NC1CCCc2ccccc21)C(C)(C)C

> <Shape>
0.267

> <Color>
0.105

> <Negative vol penalty>
0.000

$$$$

  -OEChem-04052319533D

 86 94  0     1  0  0  0  0  0999 V2000
  -28.1130  -24.8872   16.6196 C   0  0  0  0  0  0  0  0  0  0  0  0
  -26.9187  -25.0869   17.3046 C   0  0  0  0  0  0  0  0  0  0  0  0
  -25.0263  -13.6507   20.8988 C   0  0  0  0  0  0  0  0  0  0  0  0
  -23.5789  -14.3307   19.0878 C   0  0  0  0  0  0  0  0  0  0  0  0
  -29.3100  -25.3610   17.1550 C   0  0  0  0  0  0  0  0  0  0  0  0
  -26.9208  -25.7597   18.5260 C   0  0  0  0  0  0  0  0  0  0  0  0
  -23.2035  -29.1818   18.8654 C   0  0  0  0  0  0  0  0  0  0  0  0
  -24.8098  -12.3127   20.5694 C   0  0  0  0  0  0  0  0  0  0  0  0
  -23.3625  -12.9927   18.7584 C   0  0  0  0  0  0  0  0  0  0  0  0
  -21.9221  -28.7051   19.1385 C   0  0  0  0  0  0  0  0  0  0  0  0
  -24.3521   -8.7079   20.4289 C   0  0  0  0  0  0  0  0  0  0  0  0
  -24.0896   -7.8167   21.4693 C   0  0  0  0  0  0  0  0  0  0  0  0
  -22.1950  -29.3167   21.4560 C   0  0  0  0  0  0  0  0  0  0  0  0
  -19.9388  -26.4628   25.4333 C   0  0  0  0  0  0  0  0  0  0  0  0
  -22.1331   -9.0987   22.0739 C   0  0  0  0  0  0  0  0  0  0  0  0
  -24.4108  -14.6597   20.1580 C   0  0  0  0  0  0  0  0  0  0  0  0
  -25.6467  -16.8862   20.0052 C   0  0  0  0  0  0  0  0  0  0  0  0
  -29.3255  -26.0484   18.3789 C   0  0  0  0  0  0  0  0  0  0  0  0
  -23.9957  -29.7206   19.8895 C   0  0  0  0  0  0  0  0  0  0  0  0
  -28.1193  -26.2420   19.0789 C   0  0  0  0  0  0  0  0  0  0  0  0
  -23.4851  -29.8020   21.1928 C   0  0  0  0  0  0  0  0  0  0  0  0
  -21.2117  -26.0230   25.8731 C   0  0  0  0  0  0  0  0  0  0  0  0
  -23.9779  -11.9837   19.4992 C   0  0  0  0  0  0  0  0  0  0  0  0
  -21.4188  -28.7698   20.4345 C   0  0  0  0  0  0  0  0  0  0  0  0
  -23.5051   -9.7947   20.2111 C   0  0  0  0  0  0  0  0  0  0  0  0
  -22.9801   -8.0120   22.2918 C   0  0  0  0  0  0  0  0  0  0  0  0
  -22.3956   -9.9900   21.0336 C   0  0  0  0  0  0  0  0  0  0  0  0
  -24.6336  -16.0421   20.4981 C   0  0  0  0  0  0  0  0  0  0  0  0
  -19.7074  -25.8878   24.2032 C   0  0  0  0  0  0  0  0  0  0  0  0
  -21.7195  -25.1928   24.8983 C   0  0  0  0  0  0  0  0  0  0  0  0
  -25.4266  -18.0886   20.6314 C   0  0  0  0  0  0  0  0  0  0  0  0
  -26.6930  -16.6082   19.0651 C   0  0  0  0  0  0  0  0  0  0  0  0
  -26.7891  -28.9587   21.2009 C   0  0  0  0  0  0  0  0  0  0  0  0
  -26.3593  -31.7498   22.7970 C   0  0  0  0  0  0  0  0  0  0  0  0
  -24.1943  -34.1128   23.9698 C   0  0  0  0  0  0  0  0  0  0  0  0
  -21.8730  -22.0579   22.0673 C   0  0  0  0  0  0  0  0  0  0  0  0
  -30.6501  -26.5006   18.9408 C   0  0  0  0  0  0  0  0  0  0  0  0
  -25.3657  -30.2550   19.5733 C   0  0  0  0  0  0  0  0  0  0  0  0
  -24.2876  -30.3898   22.3237 C   0  0  0  0  0  0  0  0  0  0  0  0
  -30.5175  -27.5320   20.0583 C   0  0  0  0  0  0  0  0  0  0  0  0
  -22.4163  -19.3093   24.4829 C   0  0  0  0  0  0  0  0  0  0  0  0
  -29.4538  -27.0980   21.0618 C   0  0  0  0  0  0  0  0  0  0  0  0
  -23.0734  -18.2616   23.5900 C   0  0  0  0  0  0  0  0  0  0  0  0
  -21.3970  -20.1557   23.7216 C   0  0  0  0  0  0  0  0  0  0  0  0
  -22.6144  -19.7437   21.5995 C   0  0  0  0  0  0  0  0  0  0  0  0
  -28.0776  -26.9888   20.3944 C   0  0  1  0  0  0  0  0  0  0  0  0
  -26.2807  -30.3124   20.7927 C   0  0  1  0  0  0  0  0  0  0  0  0
  -23.6776  -18.9188   22.3402 C   0  0  2  0  0  0  0  0  0  0  0  0
  -23.0047  -24.4640   24.8423 C   0  0  0  0  0  0  0  0  0  0  0  0
  -21.0751  -25.9242   28.3881 C   0  0  0  0  0  0  0  0  0  0  0  0
  -22.1498  -27.9066   27.2610 C   0  0  0  0  0  0  0  0  0  0  0  0
  -24.1353  -36.2587   25.2694 C   0  0  0  0  0  0  0  0  0  0  0  0
  -17.7863  -24.6685   22.9732 C   0  0  0  0  0  0  0  0  0  0  0  0
  -17.4368  -26.9158   23.9592 C   0  0  0  0  0  0  0  0  0  0  0  0
  -26.7898  -30.1915   25.3847 C   0  0  0  0  0  0  0  0  0  0  0  0
  -25.7982  -32.1232   26.6311 C   0  0  0  0  0  0  0  0  0  0  0  0
  -27.8976  -32.4327   25.3199 C   0  0  0  0  0  0  0  0  0  0  0  0
  -23.0330  -35.5979   21.6883 C   0  0  0  0  0  0  0  0  0  0  0  0
  -18.8852  -26.6801   21.9158 C   0  0  0  0  0  0  0  0  0  0  0  0
  -19.9373  -27.7840   22.0122 C   0  0  0  0  0  0  0  0  0  1  0  0
  -20.9541  -24.3147   22.6258 C   0  0  0  0  0  0  0  0  0  0  0  0
  -21.8663  -26.3911   27.1444 C   0  0  0  0  0  0  0  0  0  0  0  0
  -25.7032  -32.1478   24.0970 C   0  0  1  0  0  0  0  0  0  0  0  0
  -24.2163  -35.6285   23.8878 C   0  0  2  0  0  0  0  0  0  0  0  0
  -18.4906  -26.0144   23.2686 C   0  0  0  0  0  0  0  0  0  0  0  0
  -26.5326  -31.7109   25.3375 C   0  0  0  0  0  0  0  0  0  0  0  0
  -23.8299  -16.6561   21.3704 N   0  0  0  0  0  0  0  0  0  0  0  0
  -20.7966  -25.1182   23.8879 N   0  0  0  0  0  0  0  0  0  0  0  0
  -24.3378  -17.8989   21.4306 N   0  0  0  0  0  0  0  0  0  0  0  0
  -25.6239  -30.8933   21.9654 N   0  0  0  0  0  0  0  0  0  0  0  0
  -21.9688  -20.7181   22.4878 N   0  0  0  0  0  0  0  0  0  0  0  0
  -26.0603  -19.2791   20.5711 N   0  0  0  0  0  0  0  0  0  0  0  0
  -26.7745  -15.3207   18.5175 N   0  0  0  0  0  0  0  0  0  0  0  0
  -27.4982  -28.3025   20.2129 N   0  0  0  0  0  0  0  0  0  0  0  0
  -25.4674  -33.5850   24.0120 N   0  0  0  0  0  0  0  0  0  0  0  0
  -21.1597  -22.9031   22.9100 N   0  0  0  0  0  0  0  0  0  0  0  0
  -23.0655  -36.1203   23.0787 N   0  3  0  0  0  0  0  0  0  0  0  0
  -27.5408  -17.4712   18.7334 O   0  0  0  0  0  0  0  0  0  0  0  0
  -26.5567  -28.5410   22.3293 O   0  0  0  0  0  0  0  0  0  0  0  0
  -27.4798  -32.1885   22.5259 O   0  0  0  0  0  0  0  0  0  0  0  0
  -23.1518  -33.4624   23.9977 O   0  0  0  0  0  0  0  0  0  0  0  0
  -22.3786  -22.4649   21.0159 O   0  0  0  0  0  0  0  0  0  0  0  0
  -23.7666  -10.6782   19.1774 O   0  0  0  0  0  0  0  0  0  0  0  0
  -20.1686  -28.3046   20.7039 O   0  0  0  0  0  0  0  0  0  1  0  0
  -22.7273   -7.1551   23.2898 F   0  0  0  0  0  0  0  0  0  0  0  0
  -21.5777  -11.0315   20.8285 F   0  0  0  0  0  0  0  0  0  0  0  0
  1  2  1  0  0  0  0
  1  5  2  0  0  0  0
  2  6  2  0  0  0  0
  3  8  2  0  0  0  0
  3 16  1  0  0  0  0
  4  9  1  0  0  0  0
  4 16  2  0  0  0  0
  5 18  1  0  0  0  0
  6 20  1  0  0  0  0
  7 10  2  0  0  0  0
  7 19  1  0  0  0  0
  8 23  1  0  0  0  0
  9 23  2  0  0  0  0
 10 24  1  0  0  0  0
 11 12  2  0  0  0  0
 11 25  1  0  0  0  0
 12 26  1  0  0  0  0
 13 21  1  0  0  0  0
 13 24  2  0  0  0  0
 14 22  1  0  0  0  0
 14 29  2  0  0  0  0
 15 26  2  0  0  0  0
 15 27  1  0  0  0  0
 16 28  1  0  0  0  0
 17 28  1  0  0  0  0
 17 31  2  0  0  0  0
 17 32  1  0  0  0  0
 18 20  2  0  0  0  0
 18 37  1  0  0  0  0
 19 21  2  0  0  0  0
 19 38  1  0  0  0  0
 20 46  1  0  0  0  0
 21 39  1  0  0  0  0
 22 30  2  0  0  0  0
 22 62  1  0  0  0  0
 23 83  1  0  0  0  0
 24 84  1  0  0  0  0
 25 27  2  0  0  0  0
 25 83  1  0  0  0  0
 26 85  1  0  0  0  0
 27 86  1  0  0  0  0
 28 67  2  0  0  0  0
 29 65  1  0  0  0  0
 29 68  1  0  0  0  0
 30 49  1  0  0  0  0
 30 68  1  0  0  0  0
 31 69  1  0  0  0  0
 31 72  1  0  0  0  0
 32 73  1  0  0  0  0
 32 78  2  0  0  0  0
 33 47  1  0  0  0  0
 33 74  1  0  0  0  0
 33 79  2  0  0  0  0
 34 63  1  0  0  0  0
 34 70  1  0  0  0  0
 34 80  2  0  0  0  0
 35 64  1  0  0  0  0
 35 75  1  0  0  0  0
 35 81  2  0  0  0  0
 36 71  1  0  0  0  0
 36 76  1  0  0  0  0
 36 82  2  0  0  0  0
 37 40  1  0  0  0  0
 38 47  1  0  0  0  0
 39 70  1  0  0  0  0
 40 42  1  0  0  0  0
 41 43  1  0  0  0  0
 41 44  1  0  0  0  0
 42 46  1  0  0  0  0
 43 48  1  0  0  0  0
 44 71  1  0  0  0  0
 45 48  1  0  0  0  0
 45 71  1  0  0  0  0
 46 74  1  0  0  0  0
 47 70  1  0  0  0  0
 48 69  1  0  0  0  0
 50 62  1  0  0  0  0
 51 62  1  0  0  0  0
 52 64  1  0  0  0  0
 53 65  1  0  0  0  0
 54 65  1  0  0  0  0
 55 66  1  0  0  0  0
 56 66  1  0  0  0  0
 57 66  1  0  0  0  0
 58 77  1  0  0  0  0
 59 60  1  0  0  0  0
 59 65  1  0  0  0  0
 60 84  1  0  0  0  0
 61 68  1  0  0  0  0
 61 76  1  0  0  0  0
 63 66  1  0  0  0  0
 63 75  1  0  0  0  0
 64 77  1  0  0  0  0
 67 69  1  0  0  0  0
M  CHG  1  77   1
M  ISO  4  36 100  60 101  76 100  84 101
M  END
> <Batch ID>
0108

> <Smiles>
CNC(C)C(=O)NC(C(=O)N1Cc2cc([101O:1][101CH2:1]CC(C)(C)c3cc(C(C)C)c(C)n3C[100NH:0][100C:0](=O)N3CCCC(n4nc(-c5ccc(Oc6ccc(F)cc6F)cc5)c(C(N)=O)c4N)C3)ccc2CC1C(=O)NC1CCCc2ccccc21)C(C)(C)C

> <Shape>
0.279

> <Color>
0.074

> <Negative vol penalty>
0.000

$$$$

  -OEChem-04052319533D

 83 90  0     1  0  0  0  0  0999 V2000
  -28.7677  -30.3842   19.5280 C   0  0  0  0  0  0  0  0  0  0  0  0
  -28.4123  -29.1774   20.1220 C   0  0  0  0  0  0  0  0  0  0  0  0
  -24.2170  -13.4957   21.0208 C   0  0  0  0  0  0  0  0  0  0  0  0
  -26.4450  -12.9094   20.2933 C   0  0  0  0  0  0  0  0  0  0  0  0
  -28.0076  -31.5282   19.7674 C   0  0  0  0  0  0  0  0  0  0  0  0
  -27.2970  -29.1142   20.9566 C   0  0  0  0  0  0  0  0  0  0  0  0
  -24.3969  -25.0697   20.0206 C   0  0  0  0  0  0  0  0  0  0  0  0
  -23.7814  -12.2033   20.7283 C   0  0  0  0  0  0  0  0  0  0  0  0
  -26.0094  -11.6170   20.0008 C   0  0  0  0  0  0  0  0  0  0  0  0
  -24.8326  -23.8440   20.5221 C   0  0  0  0  0  0  0  0  0  0  0  0
  -22.1659   -8.9539   20.5123 C   0  0  0  0  0  0  0  0  0  0  0  0
  -21.3560   -8.3145   21.4509 C   0  0  0  0  0  0  0  0  0  0  0  0
  -23.2940  -24.0589   22.3675 C   0  0  0  0  0  0  0  0  0  0  0  0
  -23.1150   -8.5021   23.0964 C   0  0  0  0  0  0  0  0  0  0  0  0
  -25.5488  -13.8487   20.8032 C   0  0  0  0  0  0  0  0  0  0  0  0
  -26.5210  -15.6494   22.3265 C   0  0  0  0  0  0  0  0  0  0  0  0
  -26.8768  -31.4769   20.5976 C   0  0  0  0  0  0  0  0  0  0  0  0
  -23.4125  -25.8057   20.6958 C   0  0  0  0  0  0  0  0  0  0  0  0
  -26.5218  -30.2589   21.2083 C   0  0  0  0  0  0  0  0  0  0  0  0
  -22.8456  -25.2925   21.8711 C   0  0  0  0  0  0  0  0  0  0  0  0
  -24.6776  -11.2639   20.2183 C   0  0  0  0  0  0  0  0  0  0  0  0
  -24.2832  -23.3398   21.6972 C   0  0  0  0  0  0  0  0  0  0  0  0
  -23.4504   -9.3673   20.8658 C   0  0  0  0  0  0  0  0  0  0  0  0
  -21.8305   -8.0887   22.7429 C   0  0  0  0  0  0  0  0  0  0  0  0
  -23.9249   -9.1415   22.1578 C   0  0  0  0  0  0  0  0  0  0  0  0
  -25.9993  -15.1838   21.1047 C   0  0  0  0  0  0  0  0  0  0  0  0
  -26.7966  -16.9756   22.0990 C   0  0  0  0  0  0  0  0  0  0  0  0
  -26.7372  -14.9460   23.5570 C   0  0  0  0  0  0  0  0  0  0  0  0
  -23.3041  -28.6651   22.0799 C   0  0  0  0  0  0  0  0  0  0  0  0
  -20.1548  -27.9581   22.4022 C   0  0  0  0  0  0  0  0  0  0  0  0
  -27.7206  -22.9196   22.6530 C   0  0  0  0  0  0  0  0  0  0  0  0
  -17.7268  -25.5674   22.5922 C   0  0  0  0  0  0  0  0  0  0  0  0
  -28.9607  -20.9173   18.9802 C   0  0  0  0  0  0  0  0  0  0  0  0
  -26.1136  -32.7501   20.8643 C   0  0  0  0  0  0  0  0  0  0  0  0
  -22.9343  -27.1136   20.1274 C   0  0  0  0  0  0  0  0  0  0  0  0
  -21.7716  -26.0340   22.6229 C   0  0  0  0  0  0  0  0  0  0  0  0
  -24.7288  -32.5162   21.4626 C   0  0  0  0  0  0  0  0  0  0  0  0
  -25.5457  -19.9839   18.2291 C   0  0  0  0  0  0  0  0  0  0  0  0
  -24.8034  -31.5045   22.6017 C   0  0  0  0  0  0  0  0  0  0  0  0
  -25.4058  -18.6812   19.0186 C   0  0  0  0  0  0  0  0  0  0  0  0
  -26.9380  -20.1133   17.6183 C   0  0  0  0  0  0  0  0  0  0  0  0
  -27.9159  -18.7076   19.3906 C   0  0  0  0  0  0  0  0  0  0  0  0
  -25.3044  -30.1448   22.1000 C   0  0  1  0  0  0  0  0  0  0  0  0
  -22.2938  -28.0210   21.1733 C   0  0  1  0  0  0  0  0  0  0  0  0
  -26.5374  -18.5280   20.0521 C   0  0  2  0  0  0  0  0  0  0  0  0
  -15.2506  -25.2941   22.8941 C   0  0  0  0  0  0  0  0  0  0  0  0
  -28.2837  -25.0192   17.8056 C   0  0  0  0  0  0  0  0  0  0  0  0
  -23.7180  -20.8209   23.9460 C   0  0  0  0  0  0  0  0  0  0  0  0
  -20.4549  -28.5508   25.3802 C   0  0  0  0  0  0  0  0  0  0  0  0
  -18.2799  -27.3712   25.7630 C   0  0  0  0  0  0  0  0  0  0  0  0
  -18.3509  -29.4253   24.3494 C   0  0  0  0  0  0  0  0  0  0  0  0
  -17.4329  -24.2560   19.9554 C   0  0  0  0  0  0  0  0  0  0  0  0
  -28.5449  -24.1960   22.5881 C   0  0  0  0  0  0  0  0  0  0  0  0
  -29.9003  -23.1529   18.4550 C   0  0  0  0  0  0  0  0  0  0  0  0
  -26.0773  -21.7638   24.1287 C   0  0  0  0  0  0  0  0  0  0  0  0
  -29.3969  -24.3124   21.3343 C   0  0  0  0  0  0  0  0  0  0  0  0
  -19.3158  -27.2682   23.4506 C   0  0  1  0  0  0  0  0  0  0  0  0
  -16.3862  -25.4354   21.8925 C   0  0  2  0  0  0  0  0  0  0  0  0
  -29.2563  -24.4811   18.8462 C   0  0  2  0  0  0  0  0  0  0  0  0
  -24.6579  -21.9697   23.6047 C   0  0  1  0  0  0  0  0  0  1  0  0
  -19.1220  -28.1406   24.7229 C   0  0  0  0  0  0  0  0  0  0  0  0
  -25.9455  -16.1368   20.1703 N   0  0  0  0  0  0  0  0  0  0  0  0
  -26.4369  -17.2145   20.8053 N   0  0  0  0  0  0  0  0  0  0  0  0
  -21.3420  -27.3114   22.0305 N   0  0  0  0  0  0  0  0  0  0  0  0
  -27.9684  -19.9768   18.6573 N   0  0  0  0  0  0  0  0  0  0  0  0
  -27.3090  -17.9490   22.8815 N   0  0  0  0  0  0  0  0  0  0  0  0
  -26.3989  -13.5873   23.6182 N   0  0  0  0  0  0  0  0  0  0  0  0
  -24.2428  -29.4347   21.4194 N   0  0  0  0  0  0  0  0  0  0  0  0
  -26.9588  -22.8569   23.8150 N   0  0  0  0  0  0  0  0  0  0  0  0
  -18.0710  -26.8876   22.7917 N   0  0  0  0  0  0  0  0  0  0  0  0
  -28.9456  -22.0895   18.2344 N   0  0  0  0  0  0  0  0  0  0  0  0
  -16.3810  -24.2386   21.0044 N   0  3  0  0  0  0  0  0  0  0  0  0
  -28.5264  -24.3136   20.1322 N   0  3  0  0  0  0  0  0  0  0  0  0
  -27.2010  -15.5097   24.5771 O   0  0  0  0  0  0  0  0  0  0  0  0
  -23.2363  -28.4789   23.2892 O   0  0  0  0  0  0  0  0  0  0  0  0
  -19.7674  -29.0278   21.9253 O   0  0  0  0  0  0  0  0  0  0  0  0
  -27.7329  -22.0655   21.7708 O   0  0  0  0  0  0  0  0  0  0  0  0
  -18.3996  -24.5964   22.9316 O   0  0  0  0  0  0  0  0  0  0  0  0
  -29.7956  -20.7286   19.8715 O   0  0  0  0  0  0  0  0  0  0  0  0
  -24.2529  -10.0026   19.9330 O   0  0  0  0  0  0  0  0  0  0  0  0
  -24.7072  -22.1439   22.1893 O   0  0  0  0  0  0  0  0  0  1  0  0
  -21.0521   -7.4761   23.6446 F   0  0  0  0  0  0  0  0  0  0  0  0
  -25.1575   -9.5374   22.5036 F   0  0  0  0  0  0  0  0  0  0  0  0
  1  2  1  0  0  0  0
  1  5  2  0  0  0  0
  2  6  2  0  0  0  0
  3  8  2  0  0  0  0
  3 15  1  0  0  0  0
  4  9  1  0  0  0  0
  4 15  2  0  0  0  0
  5 17  1  0  0  0  0
  6 19  1  0  0  0  0
  7 10  2  0  0  0  0
  7 18  1  0  0  0  0
  8 21  1  0  0  0  0
  9 21  2  0  0  0  0
 10 22  1  0  0  0  0
 11 12  2  0  0  0  0
 11 23  1  0  0  0  0
 12 24  1  0  0  0  0
 13 20  1  0  0  0  0
 13 22  2  0  0  0  0
 14 24  2  0  0  0  0
 14 25  1  0  0  0  0
 15 26  1  0  0  0  0
 16 26  1  0  0  0  0
 16 27  2  0  0  0  0
 16 28  1  0  0  0  0
 17 19  2  0  0  0  0
 17 34  1  0  0  0  0
 18 20  2  0  0  0  0
 18 35  1  0  0  0  0
 19 43  1  0  0  0  0
 20 36  1  0  0  0  0
 21 80  1  0  0  0  0
 22 81  1  0  0  0  0
 23 25  2  0  0  0  0
 23 80  1  0  0  0  0
 24 82  1  0  0  0  0
 25 83  1  0  0  0  0
 26 62  2  0  0  0  0
 27 63  1  0  0  0  0
 27 66  1  0  0  0  0
 28 67  1  0  0  0  0
 28 74  2  0  0  0  0
 29 44  1  0  0  0  0
 29 68  1  0  0  0  0
 29 75  2  0  0  0  0
 30 57  1  0  0  0  0
 30 64  1  0  0  0  0
 30 76  2  0  0  0  0
 31 53  1  0  0  0  0
 31 69  1  0  0  0  0
 31 77  2  0  0  0  0
 32 58  1  0  0  0  0
 32 70  1  0  0  0  0
 32 78  2  0  0  0  0
 33 65  1  0  0  0  0
 33 71  1  0  0  0  0
 33 79  2  0  0  0  0
 34 37  1  0  0  0  0
 35 44  1  0  0  0  0
 36 64  1  0  0  0  0
 37 39  1  0  0  0  0
 38 40  1  0  0  0  0
 38 41  1  0  0  0  0
 39 43  1  0  0  0  0
 40 45  1  0  0  0  0
 41 65  1  0  0  0  0
 42 45  1  0  0  0  0
 42 65  1  0  0  0  0
 43 68  1  0  0  0  0
 44 64  1  0  0  0  0
 45 63  1  0  0  0  0
 46 58  1  0  0  0  0
 47 59  1  0  0  0  0
 48 60  1  0  0  0  0
 49 61  1  0  0  0  0
 50 61  1  0  0  0  0
 51 61  1  0  0  0  0
 52 72  1  0  0  0  0
 53 56  1  0  0  0  0
 54 59  1  0  0  0  0
 54 71  1  0  0  0  0
 55 60  1  0  0  0  0
 55 69  1  0  0  0  0
 56 73  1  0  0  0  0
 57 61  1  0  0  0  0
 57 70  1  0  0  0  0
 58 72  1  0  0  0  0
 59 73  1  0  0  0  0
 60 81  1  0  0  0  0
 62 63  1  0  0  0  0
M  CHG  2  72   1  73   1
M  ISO  4  33 100  60 101  71 100  81 101
M  END
> <Batch ID>
0108

> <Smiles>
CNC(C)C(=O)NC(C(=O)N1Cc2cc([101O:1][101CH:1](C)CNC(=O)CCNC(C)C[100NH:0][100C:0](=O)N3CCCC(n4nc(-c5ccc(Oc6ccc(F)cc6F)cc5)c(C(N)=O)c4N)C3)ccc2CC1C(=O)NC1CCCc2ccccc21)C(C)(C)C

> <Shape>
0.242

> <Color>
0.062

> <Negative vol penalty>
0.000

$$$$

  -OEChem-04052319533D

 87 95  0     1  0  0  0  0  0999 V2000
  -20.5520  -32.0774   15.2716 C   0  0  0  0  0  0  0  0  0  0  0  0
  -21.7898  -31.4935   15.5209 C   0  0  0  0  0  0  0  0  0  0  0  0
  -23.0852   -9.9022   19.9393 C   0  0  0  0  0  0  0  0  0  0  0  0
  -23.8564   -9.9052   22.2289 C   0  0  0  0  0  0  0  0  0  0  0  0
  -19.4991  -31.8847   16.1650 C   0  0  0  0  0  0  0  0  0  0  0  0
  -21.9758  -30.7174   16.6643 C   0  0  0  0  0  0  0  0  0  0  0  0
  -25.5163  -25.7498   17.2065 C   0  0  0  0  0  0  0  0  0  0  0  0
  -22.3488   -8.7442   20.1888 C   0  0  0  0  0  0  0  0  0  0  0  0
  -23.1200   -8.7472   22.4785 C   0  0  0  0  0  0  0  0  0  0  0  0
  -26.8033  -25.5657   17.7100 C   0  0  0  0  0  0  0  0  0  0  0  0
  -19.8992   -7.9297   23.0940 C   0  0  0  0  0  0  0  0  0  0  0  0
  -19.1483   -7.8816   24.2685 C   0  0  0  0  0  0  0  0  0  0  0  0
  -25.8712  -24.9101   19.8361 C   0  0  0  0  0  0  0  0  0  0  0  0
  -20.4038   -5.9483   24.9919 C   0  0  0  0  0  0  0  0  0  0  0  0
  -29.3579  -18.7257   20.8782 C   0  0  0  0  0  0  0  0  0  0  0  0
  -23.8391  -10.4827   20.9594 C   0  0  0  0  0  0  0  0  0  0  0  0
  -24.1666  -13.0101   20.8466 C   0  0  0  0  0  0  0  0  0  0  0  0
  -19.6695  -31.0980   17.3150 C   0  0  0  0  0  0  0  0  0  0  0  0
  -24.3955  -25.5256   18.0187 C   0  0  0  0  0  0  0  0  0  0  0  0
  -20.9246  -30.5151   17.5747 C   0  0  0  0  0  0  0  0  0  0  0  0
  -24.5711  -25.0896   19.3398 C   0  0  0  0  0  0  0  0  0  0  0  0
  -22.3662   -8.1667   21.4584 C   0  0  0  0  0  0  0  0  0  0  0  0
  -26.9810  -25.1485   19.0258 C   0  0  0  0  0  0  0  0  0  0  0  0
  -20.9024   -6.9871   22.8684 C   0  0  0  0  0  0  0  0  0  0  0  0
  -19.4006   -6.8909   25.2174 C   0  0  0  0  0  0  0  0  0  0  0  0
  -21.1547   -5.9964   23.8174 C   0  0  0  0  0  0  0  0  0  0  0  0
  -24.6004  -11.6786   20.7021 C   0  0  0  0  0  0  0  0  0  0  0  0
  -30.5674  -18.0680   20.9200 C   0  0  0  0  0  0  0  0  0  0  0  0
  -30.1388  -20.0546   19.1889 C   0  0  0  0  0  0  0  0  0  0  0  0
  -31.3487  -19.3974   19.2311 C   0  0  0  0  0  0  0  0  0  0  0  0
  -25.2529  -13.7668   20.4807 C   0  0  0  0  0  0  0  0  0  0  0  0
  -22.8955  -13.5175   21.2737 C   0  0  0  0  0  0  0  0  0  0  0  0
  -22.0106  -27.3287   19.0979 C   0  0  0  0  0  0  0  0  0  0  0  0
  -20.8974  -24.4978   20.2244 C   0  0  0  0  0  0  0  0  0  0  0  0
  -21.5803  -21.3056   21.2199 C   0  0  0  0  0  0  0  0  0  0  0  0
  -30.7319  -14.8148   20.6457 C   0  0  0  0  0  0  0  0  0  0  0  0
  -18.5154  -30.9572   18.2758 C   0  0  0  0  0  0  0  0  0  0  0  0
  -23.0133  -25.7030   17.4525 C   0  0  0  0  0  0  0  0  0  0  0  0
  -23.4002  -24.8156   20.2467 C   0  0  0  0  0  0  0  0  0  0  0  0
  -18.6879  -29.8130   19.2715 C   0  0  0  0  0  0  0  0  0  0  0  0
  -29.5955  -12.4327   18.2560 C   0  0  0  0  0  0  0  0  0  0  0  0
  -20.0891  -29.8363   19.8740 C   0  0  0  0  0  0  0  0  0  0  0  0
  -28.1618  -12.1296   18.6950 C   0  0  0  0  0  0  0  0  0  0  0  0
  -30.5173  -12.6542   19.4532 C   0  0  0  0  0  0  0  0  0  0  0  0
  -28.6185  -13.3700   20.8517 C   0  0  0  0  0  0  0  0  0  0  0  0
  -21.1583  -29.6462   18.7914 C   0  0  1  0  0  0  0  0  0  0  0  0
  -21.9544  -25.9410   18.5246 C   0  0  1  0  0  0  0  0  0  0  0  0
  -27.6395  -13.1943   19.6783 C   0  0  2  0  0  0  0  0  0  0  0  0
  -29.3956  -20.6302   16.8649 C   0  0  0  0  0  0  0  0  0  0  0  0
  -32.8641  -18.6115   17.3765 C   0  0  0  0  0  0  0  0  0  0  0  0
  -33.7072  -20.2731   19.0745 C   0  0  0  0  0  0  0  0  0  0  0  0
  -20.4710  -19.2444   22.1243 C   0  0  0  0  0  0  0  0  0  0  0  0
  -28.9135  -24.6556   21.8000 C   0  0  0  0  0  0  0  0  0  0  0  0
  -20.7074  -25.8090   22.9730 C   0  0  0  0  0  0  0  0  0  0  0  0
  -20.5245  -23.5217   23.9745 C   0  0  0  0  0  0  0  0  0  0  0  0
  -18.7779  -24.3297   22.3873 C   0  0  0  0  0  0  0  0  0  0  0  0
  -22.3911  -19.6979   18.8711 C   0  0  0  0  0  0  0  0  0  0  0  0
  -30.7923  -16.9613   21.8899 C   0  0  0  0  0  0  0  0  0  0  0  0
  -28.8978  -22.2460   18.7414 C   0  0  0  0  0  0  0  0  0  0  0  0
  -29.3756  -22.9070   20.0440 C   0  0  0  0  0  0  0  0  0  0  0  0
  -29.8858  -21.1861   18.2075 C   0  0  1  0  0  0  0  0  0  0  0  0
  -32.4657  -19.7661   18.3157 C   0  0  0  0  0  0  0  0  0  0  0  0
  -21.0662  -23.7158   21.5047 C   0  0  1  0  0  0  0  0  0  0  0  0
  -20.9253  -19.9807   20.8736 C   0  0  2  0  0  0  0  0  0  0  0  0
  -28.3986  -23.9799   20.5361 C   0  0  2  0  0  0  0  0  0  1  0  0
  -20.2913  -24.3510   22.6936 C   0  0  0  0  0  0  0  0  0  0  0  0
  -29.1218  -19.7308   20.0118 N   0  0  0  0  0  0  0  0  0  0  0  0
  -25.8637  -11.5911   20.2772 N   0  0  0  0  0  0  0  0  0  0  0  0
  -31.5846  -18.3920   20.0972 N   0  0  0  0  0  0  0  0  0  0  0  0
  -26.2330  -12.8772   20.1516 N   0  0  0  0  0  0  0  0  0  0  0  0
  -22.0689  -25.0096   19.6487 N   0  0  0  0  0  0  0  0  0  0  0  0
  -29.9656  -13.6766   20.3455 N   0  0  0  0  0  0  0  0  0  0  0  0
  -25.4558  -15.0996   20.4114 N   0  0  0  0  0  0  0  0  0  0  0  0
  -21.8902  -12.6017   21.6127 N   0  0  0  0  0  0  0  0  0  0  0  0
  -21.2487  -28.2532   18.4093 N   0  0  0  0  0  0  0  0  0  0  0  0
  -20.6735  -22.3442   21.2001 N   0  0  0  0  0  0  0  0  0  0  0  0
  -30.1319  -15.7374   21.4939 N   0  0  0  0  0  0  0  0  0  0  0  0
  -21.8811  -19.1076   20.1354 N   0  3  0  0  0  0  0  0  0  0  0  0
  -22.6529  -14.7466   21.3365 O   0  0  0  0  0  0  0  0  0  0  0  0
  -22.6933  -27.5444   20.0924 O   0  0  0  0  0  0  0  0  0  0  0  0
  -19.7686  -24.6428   19.7488 O   0  0  0  0  0  0  0  0  0  0  0  0
  -22.7759  -21.4084   21.4852 O   0  0  0  0  0  0  0  0  0  0  0  0
  -31.8647  -14.9981   20.1871 O   0  0  0  0  0  0  0  0  0  0  0  0
  -21.6475   -7.0368   21.7023 O   0  0  0  0  0  0  0  0  0  0  0  0
  -28.2361  -24.9686   19.5200 O   0  0  0  0  0  0  0  0  0  1  0  0
  -18.6804   -6.8457   26.3459 F   0  0  0  0  0  0  0  0  0  0  0  0
  -22.1179   -5.0889   23.6068 F   0  0  0  0  0  0  0  0  0  0  0  0
  1  2  1  0  0  0  0
  1  5  2  0  0  0  0
  2  6  2  0  0  0  0
  3  8  2  0  0  0  0
  3 16  1  0  0  0  0
  4  9  1  0  0  0  0
  4 16  2  0  0  0  0
  5 18  1  0  0  0  0
  6 20  1  0  0  0  0
  7 10  2  0  0  0  0
  7 19  1  0  0  0  0
  8 22  1  0  0  0  0
  9 22  2  0  0  0  0
 10 23  1  0  0  0  0
 11 12  2  0  0  0  0
 11 24  1  0  0  0  0
 12 25  1  0  0  0  0
 13 21  1  0  0  0  0
 13 23  2  0  0  0  0
 14 25  2  0  0  0  0
 14 26  1  0  0  0  0
 15 28  1  0  0  0  0
 15 67  2  0  0  0  0
 16 27  1  0  0  0  0
 17 27  1  0  0  0  0
 17 31  2  0  0  0  0
 17 32  1  0  0  0  0
 18 20  2  0  0  0  0
 18 37  1  0  0  0  0
 19 21  2  0  0  0  0
 19 38  1  0  0  0  0
 20 46  1  0  0  0  0
 21 39  1  0  0  0  0
 22 84  1  0  0  0  0
 23 85  1  0  0  0  0
 24 26  2  0  0  0  0
 24 84  1  0  0  0  0
 25 86  1  0  0  0  0
 26 87  1  0  0  0  0
 27 68  2  0  0  0  0
 28 58  1  0  0  0  0
 28 69  2  0  0  0  0
 29 30  2  0  0  0  0
 29 61  1  0  0  0  0
 29 67  1  0  0  0  0
 30 62  1  0  0  0  0
 30 69  1  0  0  0  0
 31 70  1  0  0  0  0
 31 73  1  0  0  0  0
 32 74  1  0  0  0  0
 32 79  2  0  0  0  0
 33 47  1  0  0  0  0
 33 75  1  0  0  0  0
 33 80  2  0  0  0  0
 34 63  1  0  0  0  0
 34 71  1  0  0  0  0
 34 81  2  0  0  0  0
 35 64  1  0  0  0  0
 35 76  1  0  0  0  0
 35 82  2  0  0  0  0
 36 72  1  0  0  0  0
 36 77  1  0  0  0  0
 36 83  2  0  0  0  0
 37 40  1  0  0  0  0
 38 47  1  0  0  0  0
 39 71  1  0  0  0  0
 40 42  1  0  0  0  0
 41 43  1  0  0  0  0
 41 44  1  0  0  0  0
 42 46  1  0  0  0  0
 43 48  1  0  0  0  0
 44 72  1  0  0  0  0
 45 48  1  0  0  0  0
 45 72  1  0  0  0  0
 46 75  1  0  0  0  0
 47 71  1  0  0  0  0
 48 70  1  0  0  0  0
 49 61  1  0  0  0  0
 50 62  1  0  0  0  0
 51 62  1  0  0  0  0
 52 64  1  0  0  0  0
 53 65  1  0  0  0  0
 54 66  1  0  0  0  0
 55 66  1  0  0  0  0
 56 66  1  0  0  0  0
 57 78  1  0  0  0  0
 58 77  1  0  0  0  0
 59 60  1  0  0  0  0
 59 61  1  0  0  0  0
 60 65  1  0  0  0  0
 63 66  1  0  0  0  0
 63 76  1  0  0  0  0
 64 78  1  0  0  0  0
 65 85  1  0  0  0  0
 68 70  1  0  0  0  0
M  CHG  1  78   1
M  ISO  4  36 100  65 101  77 100  85 101
M  END
> <Batch ID>
0108

> <Smiles>
CNC(C)C(=O)NC(C(=O)N1Cc2cc([101O:1][101CH:1](C)CCC(C)c3ncc(C[100NH:0][100C:0](=O)N4CCCC(n5nc(-c6ccc(Oc7ccc(F)cc7F)cc6)c(C(N)=O)c5N)C4)nc3C(C)C)ccc2CC1C(=O)NC1CCCc2ccccc21)C(C)(C)C

> <Shape>
0.232

> <Color>
0.202

> <Negative vol penalty>
0.000

$$$$

  -OEChem-04052319533D

 87 95  0     1  0  0  0  0  0999 V2000
  -26.0023  -17.1553   24.4493 C   0  0  0  0  0  0  0  0  0  0  0  0
  -25.8776  -18.5262   24.2476 C   0  0  0  0  0  0  0  0  0  0  0  0
  -25.7354  -30.7109   21.9155 C   0  0  0  0  0  0  0  0  0  0  0  0
  -22.4539  -14.2001   21.8534 C   0  0  0  0  0  0  0  0  0  0  0  0
  -22.0786  -14.6882   19.5172 C   0  0  0  0  0  0  0  0  0  0  0  0
  -27.1319  -16.4834   23.9839 C   0  0  0  0  0  0  0  0  0  0  0  0
  -26.8830  -19.2261   23.5814 C   0  0  0  0  0  0  0  0  0  0  0  0
  -26.1711  -24.0228   19.8410 C   0  0  0  0  0  0  0  0  0  0  0  0
  -24.3501  -30.5518   21.9477 C   0  0  0  0  0  0  0  0  0  0  0  0
  -26.5037  -29.9566   21.0286 C   0  0  0  0  0  0  0  0  0  0  0  0
  -22.1510  -12.8584   21.6218 C   0  0  0  0  0  0  0  0  0  0  0  0
  -21.7757  -13.3465   19.2855 C   0  0  0  0  0  0  0  0  0  0  0  0
  -26.3009  -25.3963   20.0419 C   0  0  0  0  0  0  0  0  0  0  0  0
  -23.7014  -10.1399   20.3414 C   0  0  0  0  0  0  0  0  0  0  0  0
  -24.5391   -9.1792   20.9076 C   0  0  0  0  0  0  0  0  0  0  0  0
  -28.5572  -25.3010   19.1938 C   0  0  0  0  0  0  0  0  0  0  0  0
  -24.5011  -28.8839   20.2063 C   0  0  0  0  0  0  0  0  0  0  0  0
  -22.6687   -8.2750   22.1409 C   0  0  0  0  0  0  0  0  0  0  0  0
  -22.4176  -15.1150   20.8012 C   0  0  0  0  0  0  0  0  0  0  0  0
  -23.9955  -17.1129   20.9643 C   0  0  0  0  0  0  0  0  0  0  0  0
  -28.1471  -17.1737   23.3032 C   0  0  0  0  0  0  0  0  0  0  0  0
  -27.2389  -23.2750   19.3243 C   0  0  0  0  0  0  0  0  0  0  0  0
  -28.0278  -18.5630   23.1077 C   0  0  0  0  0  0  0  0  0  0  0  0
  -28.4375  -23.9186   18.9848 C   0  0  0  0  0  0  0  0  0  0  0  0
  -23.7329  -29.6383   21.0932 C   0  0  0  0  0  0  0  0  0  0  0  0
  -25.8865  -29.0431   20.1740 C   0  0  0  0  0  0  0  0  0  0  0  0
  -21.8120  -12.4315   20.3378 C   0  0  0  0  0  0  0  0  0  0  0  0
  -27.4951  -26.0352   19.7210 C   0  0  0  0  0  0  0  0  0  0  0  0
  -22.3472  -10.1683   20.6749 C   0  0  0  0  0  0  0  0  0  0  0  0
  -24.0228   -8.2467   21.8073 C   0  0  0  0  0  0  0  0  0  0  0  0
  -21.8309   -9.2359   21.5747 C   0  0  0  0  0  0  0  0  0  0  0  0
  -22.7298  -16.5013   21.0400 C   0  0  0  0  0  0  0  0  0  0  0  0
  -23.7598  -18.4295   21.2764 C   0  0  0  0  0  0  0  0  0  0  0  0
  -25.2702  -16.5419   20.6406 C   0  0  0  0  0  0  0  0  0  0  0  0
  -29.0185  -20.8692   20.3961 C   0  0  0  0  0  0  0  0  0  0  0  0
  -30.2357  -20.9434   17.3902 C   0  0  0  0  0  0  0  0  0  0  0  0
  -30.8261  -22.7362   14.5470 C   0  0  0  0  0  0  0  0  0  0  0  0
  -20.8382  -23.0152   20.6580 C   0  0  0  0  0  0  0  0  0  0  0  0
  -29.3714  -16.4126   22.8602 C   0  0  0  0  0  0  0  0  0  0  0  0
  -27.0738  -21.7987   19.0884 C   0  0  0  0  0  0  0  0  0  0  0  0
  -29.6069  -23.1645   18.4082 C   0  0  0  0  0  0  0  0  0  0  0  0
  -30.2169  -17.1627   21.8342 C   0  0  0  0  0  0  0  0  0  0  0  0
  -19.6379  -20.6839   23.1523 C   0  0  0  0  0  0  0  0  0  0  0  0
  -30.4234  -18.6103   22.2685 C   0  0  0  0  0  0  0  0  0  0  0  0
  -20.4481  -19.4315   22.8129 C   0  0  0  0  0  0  0  0  0  0  0  0
  -19.2301  -21.4375   21.8898 C   0  0  0  0  0  0  0  0  0  0  0  0
  -21.1774  -20.5602   20.6602 C   0  0  0  0  0  0  0  0  0  0  0  0
  -29.0854  -19.3528   22.3677 C   0  0  1  0  0  0  0  0  0  0  0  0
  -28.4017  -21.0494   19.0379 C   0  0  1  0  0  0  0  0  0  0  0  0
  -21.6392  -19.7662   21.8956 C   0  0  2  0  0  0  0  0  0  0  0  0
  -27.5200  -29.1006   18.2580 C   0  0  0  0  0  0  0  0  0  0  0  0
  -31.8732  -22.5381   12.2751 C   0  0  0  0  0  0  0  0  0  0  0  0
  -19.7902  -25.7612   19.3619 C   0  0  0  0  0  0  0  0  0  0  0  0
  -33.0062  -21.1507   18.6517 C   0  0  0  0  0  0  0  0  0  0  0  0
  -33.8861  -21.8951   16.4292 C   0  0  0  0  0  0  0  0  0  0  0  0
  -32.8727  -19.6286   16.6719 C   0  0  0  0  0  0  0  0  0  0  0  0
  -20.5879  -26.0137   23.2139 C   0  0  0  0  0  0  0  0  0  0  0  0
  -18.4092  -26.4433   22.0759 C   0  0  0  0  0  0  0  0  0  0  0  0
  -28.2571  -23.2923   13.1868 C   0  0  0  0  0  0  0  0  0  0  0  0
  -22.2514  -29.4698   21.1273 C   0  0  0  0  0  0  0  0  0  0  0  0
  -20.3489  -27.9114   21.5640 C   0  0  0  0  0  0  0  0  0  0  0  0
  -26.7192  -28.2252   19.2135 C   0  0  1  0  0  0  0  0  0  1  0  0
  -31.3769  -21.6664   16.7165 C   0  0  1  0  0  0  0  0  0  0  0  0
  -30.5914  -22.4095   13.0832 C   0  0  2  0  0  0  0  0  0  0  0  0
  -20.3693  -25.4504   20.7435 C   0  0  1  0  0  0  0  0  0  0  0  0
  -32.7643  -21.0994   17.1300 C   0  0  0  0  0  0  0  0  0  0  0  0
  -19.9425  -26.4476   21.8754 C   0  0  0  0  0  0  0  0  0  0  0  0
  -21.7618  -17.3589   21.3742 N   0  0  0  0  0  0  0  0  0  0  0  0
  -22.4195  -18.5228   21.5112 N   0  0  0  0  0  0  0  0  0  0  0  0
  -29.3986  -21.7218   18.2021 N   0  0  0  0  0  0  0  0  0  0  0  0
  -20.4115  -21.7419   21.0702 N   0  0  0  0  0  0  0  0  0  0  0  0
  -24.5703  -19.5050   21.3701 N   0  0  0  0  0  0  0  0  0  0  0  0
  -25.3337  -15.1733   20.3452 N   0  0  0  0  0  0  0  0  0  0  0  0
  -28.6131  -19.7215   21.0503 N   0  0  0  0  0  0  0  0  0  0  0  0
  -31.1094  -21.6055   15.2836 N   0  0  0  0  0  0  0  0  0  0  0  0
  -20.0538  -24.0806   21.0829 N   0  0  0  0  0  0  0  0  0  0  0  0
  -29.5754  -23.3325   12.5029 N   0  3  0  0  0  0  0  0  0  0  0  0
  -21.8218  -28.0857   21.4693 N   0  3  0  0  0  0  0  0  0  0  0  0
  -26.3243  -17.2218   20.6302 O   0  0  0  0  0  0  0  0  0  0  0  0
  -29.8052  -21.7084   20.8186 O   0  0  0  0  0  0  0  0  0  0  0  0
  -30.0882  -19.7339   17.1974 O   0  0  0  0  0  0  0  0  0  0  0  0
  -30.7679  -23.8805   14.9918 O   0  0  0  0  0  0  0  0  0  0  0  0
  -21.8472  -23.1905   19.9664 O   0  0  0  0  0  0  0  0  0  0  0  0
  -21.5167  -11.1223   20.1113 O   0  0  0  0  0  0  0  0  0  0  0  0
  -27.6246  -27.3756   19.9168 O   0  0  0  0  0  0  0  0  0  1  0  0
  -24.8271   -7.3231   22.3498 F   0  0  0  0  0  0  0  0  0  0  0  0
  -20.5306   -9.2574   21.8981 F   0  0  0  0  0  0  0  0  0  0  0  0
  1  2  1  0  0  0  0
  1  6  2  0  0  0  0
  2  7  2  0  0  0  0
  3  9  1  0  0  0  0
  3 10  2  0  0  0  0
  4 11  2  0  0  0  0
  4 19  1  0  0  0  0
  5 12  1  0  0  0  0
  5 19  2  0  0  0  0
  6 21  1  0  0  0  0
  7 23  1  0  0  0  0
  8 13  2  0  0  0  0
  8 22  1  0  0  0  0
  9 25  2  0  0  0  0
 10 26  1  0  0  0  0
 11 27  1  0  0  0  0
 12 27  2  0  0  0  0
 13 28  1  0  0  0  0
 14 15  2  0  0  0  0
 14 29  1  0  0  0  0
 15 30  1  0  0  0  0
 16 24  1  0  0  0  0
 16 28  2  0  0  0  0
 17 25  1  0  0  0  0
 17 26  2  0  0  0  0
 18 30  2  0  0  0  0
 18 31  1  0  0  0  0
 19 32  1  0  0  0  0
 20 32  1  0  0  0  0
 20 33  2  0  0  0  0
 20 34  1  0  0  0  0
 21 23  2  0  0  0  0
 21 39  1  0  0  0  0
 22 24  2  0  0  0  0
 22 40  1  0  0  0  0
 23 48  1  0  0  0  0
 24 41  1  0  0  0  0
 25 60  1  0  0  0  0
 26 62  1  0  0  0  0
 27 84  1  0  0  0  0
 28 85  1  0  0  0  0
 29 31  2  0  0  0  0
 29 84  1  0  0  0  0
 30 86  1  0  0  0  0
 31 87  1  0  0  0  0
 32 68  2  0  0  0  0
 33 69  1  0  0  0  0
 33 72  1  0  0  0  0
 34 73  1  0  0  0  0
 34 79  2  0  0  0  0
 35 49  1  0  0  0  0
 35 74  1  0  0  0  0
 35 80  2  0  0  0  0
 36 63  1  0  0  0  0
 36 70  1  0  0  0  0
 36 81  2  0  0  0  0
 37 64  1  0  0  0  0
 37 75  1  0  0  0  0
 37 82  2  0  0  0  0
 38 71  1  0  0  0  0
 38 76  1  0  0  0  0
 38 83  2  0  0  0  0
 39 42  1  0  0  0  0
 40 49  1  0  0  0  0
 41 70  1  0  0  0  0
 42 44  1  0  0  0  0
 43 45  1  0  0  0  0
 43 46  1  0  0  0  0
 44 48  1  0  0  0  0
 45 50  1  0  0  0  0
 46 71  1  0  0  0  0
 47 50  1  0  0  0  0
 47 71  1  0  0  0  0
 48 74  1  0  0  0  0
 49 70  1  0  0  0  0
 50 69  1  0  0  0  0
 51 62  1  0  0  0  0
 52 64  1  0  0  0  0
 53 65  1  0  0  0  0
 54 66  1  0  0  0  0
 55 66  1  0  0  0  0
 56 66  1  0  0  0  0
 57 67  1  0  0  0  0
 58 67  1  0  0  0  0
 59 77  1  0  0  0  0
 60 78  1  0  0  0  0
 61 67  1  0  0  0  0
 61 78  1  0  0  0  0
 62 85  1  0  0  0  0
 63 66  1  0  0  0  0
 63 75  1  0  0  0  0
 64 77  1  0  0  0  0
 65 67  1  0  0  0  0
 65 76  1  0  0  0  0
 68 69  1  0  0  0  0
M  CHG  2  77   1  78   1
M  ISO  4  38 100  62 101  76 100  85 101
M  END
> <Batch ID>
0108

> <Smiles>
CNC(C)C(=O)NC(C(=O)N1Cc2cc([101O:1][101CH:1](C)c3cccc(CNCC(C)(C)C(C)[100NH:0][100C:0](=O)N4CCCC(n5nc(-c6ccc(Oc7ccc(F)cc7F)cc6)c(C(N)=O)c5N)C4)c3)ccc2CC1C(=O)NC1CCCc2ccccc21)C(C)(C)C

> <Shape>
0.213

> <Color>
0.061

> <Negative vol penalty>
0.000

$$$$

  -OEChem-04052319533D

 88 96  0     1  0  0  0  0  0999 V2000
  -17.9396  -26.9678   22.4046 C   0  0  0  0  0  0  0  0  0  0  0  0
  -19.0908  -26.2176   22.1874 C   0  0  0  0  0  0  0  0  0  0  0  0
  -25.5898  -13.4495   21.1989 C   0  0  0  0  0  0  0  0  0  0  0  0
  -26.0737  -13.3229   18.8353 C   0  0  0  0  0  0  0  0  0  0  0  0
  -18.0391  -28.3299   22.6853 C   0  0  0  0  0  0  0  0  0  0  0  0
  -20.3424  -26.8293   22.2496 C   0  0  0  0  0  0  0  0  0  0  0  0
  -25.5552  -24.3485   24.2935 C   0  0  0  0  0  0  0  0  0  0  0  0
  -25.3828  -12.0705   21.2304 C   0  0  0  0  0  0  0  0  0  0  0  0
  -25.8668  -11.9438   18.8668 C   0  0  0  0  0  0  0  0  0  0  0  0
  -26.6380  -23.7663   23.6359 C   0  0  0  0  0  0  0  0  0  0  0  0
  -22.9323   -9.9001   20.3885 C   0  0  0  0  0  0  0  0  0  0  0  0
  -21.8146   -9.4289   21.0771 C   0  0  0  0  0  0  0  0  0  0  0  0
  -27.8161  -25.8694   23.7264 C   0  0  0  0  0  0  0  0  0  0  0  0
  -27.9627  -23.5856   18.1614 C   0  0  0  0  0  0  0  0  0  0  0  0
  -23.2543   -8.1625   22.5471 C   0  0  0  0  0  0  0  0  0  0  0  0
  -25.9352  -14.0758   20.0013 C   0  0  0  0  0  0  0  0  0  0  0  0
  -27.3611  -16.1835   20.1795 C   0  0  0  0  0  0  0  0  0  0  0  0
  -19.2930  -28.9566   22.7605 C   0  0  0  0  0  0  0  0  0  0  0  0
  -25.5905  -25.7007   24.6634 C   0  0  0  0  0  0  0  0  0  0  0  0
  -20.4587  -28.2014   22.5302 C   0  0  0  0  0  0  0  0  0  0  0  0
  -26.7336  -26.4657   24.3909 C   0  0  0  0  0  0  0  0  0  0  0  0
  -28.3732  -24.4787   19.1448 C   0  0  0  0  0  0  0  0  0  0  0  0
  -25.5213  -11.3176   20.0644 C   0  0  0  0  0  0  0  0  0  0  0  0
  -27.7675  -24.5274   23.3496 C   0  0  0  0  0  0  0  0  0  0  0  0
  -24.2110   -9.5025   20.7791 C   0  0  0  0  0  0  0  0  0  0  0  0
  -27.6023  -25.6024   19.4212 C   0  0  0  0  0  0  0  0  0  0  0  0
  -21.9756   -8.5601   22.1565 C   0  0  0  0  0  0  0  0  0  0  0  0
  -24.3720   -8.6338   21.8584 C   0  0  0  0  0  0  0  0  0  0  0  0
  -26.1485  -15.5004   19.9680 C   0  0  0  0  0  0  0  0  0  0  0  0
  -26.7830  -23.8593   17.4882 C   0  0  0  0  0  0  0  0  0  0  0  0
  -26.4388  -25.7859   18.6915 C   0  0  0  0  0  0  0  0  0  0  0  0
  -27.0362  -17.5108   20.0410 C   0  0  0  0  0  0  0  0  0  0  0  0
  -28.6648  -15.6647   20.4747 C   0  0  0  0  0  0  0  0  0  0  0  0
  -23.8825  -28.2756   23.9176 C   0  0  0  0  0  0  0  0  0  0  0  0
  -25.7065  -29.6699   26.2092 C   0  0  0  0  0  0  0  0  0  0  0  0
  -28.6102  -29.6649   28.0022 C   0  0  0  0  0  0  0  0  0  0  0  0
  -24.4040  -21.6199   17.3332 C   0  0  0  0  0  0  0  0  0  0  0  0
  -19.3480  -30.4413   23.0200 C   0  0  0  0  0  0  0  0  0  0  0  0
  -24.4251  -26.3069   25.3960 C   0  0  0  0  0  0  0  0  0  0  0  0
  -26.8295  -27.9162   24.7849 C   0  0  0  0  0  0  0  0  0  0  0  0
  -20.7304  -30.9357   23.4381 C   0  0  0  0  0  0  0  0  0  0  0  0
  -22.5266  -19.7817   19.7358 C   0  0  0  0  0  0  0  0  0  0  0  0
  -21.8043  -30.3543   22.5240 C   0  0  0  0  0  0  0  0  0  0  0  0
  -23.3984  -18.5579   20.0228 C   0  0  0  0  0  0  0  0  0  0  0  0
  -22.6040  -20.1982   18.2687 C   0  0  0  0  0  0  0  0  0  0  0  0
  -24.8423  -19.1913   18.0448 C   0  0  0  0  0  0  0  0  0  0  0  0
  -21.8356  -28.8238   22.6136 C   0  0  1  0  0  0  0  0  0  0  0  0
  -24.3636  -27.8259   25.2681 C   0  0  1  0  0  0  0  0  0  0  0  0
  -24.8406  -18.7674   19.5235 C   0  0  2  0  0  0  0  0  0  0  0  0
  -32.3143  -25.4667   17.3127 C   0  0  0  0  0  0  0  0  0  0  0  0
  -29.8325  -30.9524   29.7758 C   0  0  0  0  0  0  0  0  0  0  0  0
  -26.4352  -31.8043   24.1541 C   0  0  0  0  0  0  0  0  0  0  0  0
  -28.3366  -32.4820   25.6352 C   0  0  0  0  0  0  0  0  0  0  0  0
  -25.9885  -32.6798   26.4537 C   0  0  0  0  0  0  0  0  0  0  0  0
  -28.6242  -27.3452   29.8401 C   0  0  0  0  0  0  0  0  0  0  0  0
  -28.2019  -27.8400   19.9589 C   0  0  0  0  0  0  0  0  0  0  0  0
  -24.4736  -27.0124   18.1536 C   0  0  0  0  0  0  0  0  0  0  0  0
  -26.3120  -22.9225   16.4264 C   0  0  0  0  0  0  0  0  0  0  0  0
  -31.1002  -25.5260   18.2272 C   0  0  0  0  0  0  0  0  0  0  0  0
  -30.8976  -24.2019   18.9723 C   0  0  0  0  0  0  0  0  0  0  0  0
  -29.6007  -22.8912   20.7035 C   0  0  0  0  0  0  0  0  0  0  0  0
  -28.5413  -22.8958   21.8020 C   0  0  0  0  0  0  0  0  0  1  0  0
  -29.6630  -24.2117   19.9047 C   0  0  2  0  0  0  0  0  0  0  0  0
  -27.0338  -30.3888   26.2287 C   0  0  1  0  0  0  0  0  0  0  0  0
  -28.8755  -29.8055   29.4902 C   0  0  2  0  0  0  0  0  0  0  0  0
  -26.9463  -31.8119   25.6086 C   0  0  0  0  0  0  0  0  0  0  0  0
  -25.1293  -16.3255   19.7146 N   0  0  0  0  0  0  0  0  0  0  0  0
  -26.0077  -24.9403   17.7288 N   0  0  0  0  0  0  0  0  0  0  0  0
  -25.7006  -17.5408   19.7660 N   0  0  0  0  0  0  0  0  0  0  0  0
  -25.6616  -28.4650   25.4936 N   0  0  0  0  0  0  0  0  0  0  0  0
  -23.9983  -20.3821   17.8587 N   0  0  0  0  0  0  0  0  0  0  0  0
  -27.7654  -18.6435   20.1289 N   0  0  0  0  0  0  0  0  0  0  0  0
  -28.8227  -14.2762   20.5821 N   0  0  0  0  0  0  0  0  0  0  0  0
  -22.5098  -28.4020   23.8227 N   0  0  0  0  0  0  0  0  0  0  0  0
  -27.4891  -30.3677   27.6146 N   0  0  0  0  0  0  0  0  0  0  0  0
  -25.7436  -21.7116   16.9754 N   0  0  0  0  0  0  0  0  0  0  0  0
  -29.4708  -28.5509   30.0311 N   0  3  0  0  0  0  0  0  0  0  0  0
  -29.6567  -16.4111   20.6545 O   0  0  0  0  0  0  0  0  0  0  0  0
  -24.6966  -28.4934   23.0279 O   0  0  0  0  0  0  0  0  0  0  0  0
  -24.7467  -30.1559   26.8128 O   0  0  0  0  0  0  0  0  0  0  0  0
  -29.3281  -29.0011   27.2574 O   0  0  0  0  0  0  0  0  0  0  0  0
  -23.6311  -22.5745   17.1982 O   0  0  0  0  0  0  0  0  0  0  0  0
  -25.3197   -9.9719   20.0948 O   0  0  0  0  0  0  0  0  0  0  0  0
  -27.9767  -26.4931   20.3762 O   0  0  0  0  0  0  0  0  0  0  0  0
  -28.8254  -23.9618   22.7072 O   0  0  0  0  0  0  0  0  0  1  0  0
  -25.6539  -26.8827   18.9366 O   0  0  0  0  0  0  0  0  0  0  0  0
  -20.9023   -8.1088   22.8187 F   0  0  0  0  0  0  0  0  0  0  0  0
  -25.5980   -8.2492   22.2390 F   0  0  0  0  0  0  0  0  0  0  0  0
  1  2  1  0  0  0  0
  1  5  2  0  0  0  0
  2  6  2  0  0  0  0
  3  8  2  0  0  0  0
  3 16  1  0  0  0  0
  4  9  1  0  0  0  0
  4 16  2  0  0  0  0
  5 18  1  0  0  0  0
  6 20  1  0  0  0  0
  7 10  2  0  0  0  0
  7 19  1  0  0  0  0
  8 23  1  0  0  0  0
  9 23  2  0  0  0  0
 10 24  1  0  0  0  0
 11 12  2  0  0  0  0
 11 25  1  0  0  0  0
 12 27  1  0  0  0  0
 13 21  1  0  0  0  0
 13 24  2  0  0  0  0
 14 22  1  0  0  0  0
 14 30  2  0  0  0  0
 15 27  2  0  0  0  0
 15 28  1  0  0  0  0
 16 29  1  0  0  0  0
 17 29  1  0  0  0  0
 17 32  2  0  0  0  0
 17 33  1  0  0  0  0
 18 20  2  0  0  0  0
 18 38  1  0  0  0  0
 19 21  2  0  0  0  0
 19 39  1  0  0  0  0
 20 47  1  0  0  0  0
 21 40  1  0  0  0  0
 22 26  2  0  0  0  0
 22 63  1  0  0  0  0
 23 83  1  0  0  0  0
 24 85  1  0  0  0  0
 25 28  2  0  0  0  0
 25 83  1  0  0  0  0
 26 31  1  0  0  0  0
 26 84  1  0  0  0  0
 27 87  1  0  0  0  0
 28 88  1  0  0  0  0
 29 67  2  0  0  0  0
 30 58  1  0  0  0  0
 30 68  1  0  0  0  0
 31 68  2  0  0  0  0
 31 86  1  0  0  0  0
 32 69  1  0  0  0  0
 32 72  1  0  0  0  0
 33 73  1  0  0  0  0
 33 78  2  0  0  0  0
 34 48  1  0  0  0  0
 34 74  1  0  0  0  0
 34 79  2  0  0  0  0
 35 64  1  0  0  0  0
 35 70  1  0  0  0  0
 35 80  2  0  0  0  0
 36 65  1  0  0  0  0
 36 75  1  0  0  0  0
 36 81  2  0  0  0  0
 37 71  1  0  0  0  0
 37 76  1  0  0  0  0
 37 82  2  0  0  0  0
 38 41  1  0  0  0  0
 39 48  1  0  0  0  0
 40 70  1  0  0  0  0
 41 43  1  0  0  0  0
 42 44  1  0  0  0  0
 42 45  1  0  0  0  0
 43 47  1  0  0  0  0
 44 49  1  0  0  0  0
 45 71  1  0  0  0  0
 46 49  1  0  0  0  0
 46 71  1  0  0  0  0
 47 74  1  0  0  0  0
 48 70  1  0  0  0  0
 49 69  1  0  0  0  0
 50 59  1  0  0  0  0
 51 65  1  0  0  0  0
 52 66  1  0  0  0  0
 53 66  1  0  0  0  0
 54 66  1  0  0  0  0
 55 77  1  0  0  0  0
 56 84  1  0  0  0  0
 57 86  1  0  0  0  0
 58 76  1  0  0  0  0
 59 60  1  0  0  0  0
 60 63  1  0  0  0  0
 61 62  1  0  0  0  0
 61 63  1  0  0  0  0
 62 85  1  0  0  0  0
 64 66  1  0  0  0  0
 64 75  1  0  0  0  0
 65 77  1  0  0  0  0
 67 69  1  0  0  0  0
M  CHG  1  77   1
M  ISO  4  37 100  62 101  76 100  85 101
M  END
> <Batch ID>
0108

> <Smiles>
CCCC(C[101CH2:1][101O:1]c1ccc2c(c1)CN(C(=O)C(NC(=O)C(C)NC)C(C)(C)C)C(C(=O)NC1CCCc3ccccc31)C2)c1cc(C[100NH:0][100C:0](=O)N2CCCC(n3nc(-c4ccc(Oc5ccc(F)cc5F)cc4)c(C(N)=O)c3N)C2)nc(OC)c1OC

> <Shape>
0.253

> <Color>
0.073

> <Negative vol penalty>
0.000

$$$$

  -OEChem-04052319533D

 81 89  0     1  0  0  0  0  0999 V2000
  -18.1819  -32.8183   24.1504 C   0  0  0  0  0  0  0  0  0  0  0  0
  -19.4281  -33.0410   23.5735 C   0  0  0  0  0  0  0  0  0  0  0  0
  -24.4031  -13.5226   19.7045 C   0  0  0  0  0  0  0  0  0  0  0  0
  -26.0144  -13.9029   21.4640 C   0  0  0  0  0  0  0  0  0  0  0  0
  -17.8841  -31.5744   24.7052 C   0  0  0  0  0  0  0  0  0  0  0  0
  -20.3777  -32.0202   23.5522 C   0  0  0  0  0  0  0  0  0  0  0  0
  -25.7325  -29.4594   19.5415 C   0  0  0  0  0  0  0  0  0  0  0  0
  -24.4854  -12.1480   19.9262 C   0  0  0  0  0  0  0  0  0  0  0  0
  -26.0967  -12.5282   21.6858 C   0  0  0  0  0  0  0  0  0  0  0  0
  -27.0745  -29.0952   19.6420 C   0  0  0  0  0  0  0  0  0  0  0  0
  -24.0004   -8.5618   20.2718 C   0  0  0  0  0  0  0  0  0  0  0  0
  -22.8078   -7.8401   20.3194 C   0  0  0  0  0  0  0  0  0  0  0  0
  -26.4206  -26.9623   20.5599 C   0  0  0  0  0  0  0  0  0  0  0  0
  -22.0707   -9.1814   22.1888 C   0  0  0  0  0  0  0  0  0  0  0  0
  -25.1677  -14.4001   20.4733 C   0  0  0  0  0  0  0  0  0  0  0  0
  -24.2002  -16.7291   20.8571 C   0  0  0  0  0  0  0  0  0  0  0  0
  -18.8271  -30.5347   24.6820 C   0  0  0  0  0  0  0  0  0  0  0  0
  -24.7232  -28.5806   19.9603 C   0  0  0  0  0  0  0  0  0  0  0  0
  -20.0927  -30.7615   24.1084 C   0  0  0  0  0  0  0  0  0  0  0  0
  -25.0665  -27.3168   20.4612 C   0  0  0  0  0  0  0  0  0  0  0  0
  -25.3321  -11.6508   20.9168 C   0  0  0  0  0  0  0  0  0  0  0  0
  -27.4189  -27.8476   20.1540 C   0  0  0  0  0  0  0  0  0  0  0  0
  -24.2283   -9.5933   21.1827 C   0  0  0  0  0  0  0  0  0  0  0  0
  -21.8429   -8.1499   21.2779 C   0  0  0  0  0  0  0  0  0  0  0  0
  -23.2634   -9.9031   22.1412 C   0  0  0  0  0  0  0  0  0  0  0  0
  -25.0835  -15.8202   20.2444 C   0  0  0  0  0  0  0  0  0  0  0  0
  -24.5196  -17.9447   20.3030 C   0  0  0  0  0  0  0  0  0  0  0  0
  -23.1822  -16.4956   21.8392 C   0  0  0  0  0  0  0  0  0  0  0  0
  -22.4511  -28.6692   22.1814 C   0  0  0  0  0  0  0  0  0  0  0  0
  -21.5399  -25.8767   20.8052 C   0  0  0  0  0  0  0  0  0  0  0  0
  -22.4024  -23.1413   18.9557 C   0  0  0  0  0  0  0  0  0  0  0  0
  -29.7678  -19.6271   17.6159 C   0  0  0  0  0  0  0  0  0  0  0  0
  -18.4764  -29.2219   25.3364 C   0  0  0  0  0  0  0  0  0  0  0  0
  -23.2793  -28.9781   19.8203 C   0  0  0  0  0  0  0  0  0  0  0  0
  -24.0200  -26.3289   20.9057 C   0  0  0  0  0  0  0  0  0  0  0  0
  -19.4037  -28.0763   24.9389 C   0  0  0  0  0  0  0  0  0  0  0  0
  -26.3020  -19.9131   16.3325 C   0  0  0  0  0  0  0  0  0  0  0  0
  -20.8616  -28.5184   25.0157 C   0  0  0  0  0  0  0  0  0  0  0  0
  -25.5448  -18.9095   17.2003 C   0  0  0  0  0  0  0  0  0  0  0  0
  -31.7385  -21.8751   19.3763 C   0  0  0  0  0  0  0  0  0  0  0  0
  -29.3798  -21.8988   20.2807 C   0  0  0  0  0  0  0  0  0  0  0  0
  -27.7693  -19.5288   16.1709 C   0  0  0  0  0  0  0  0  0  0  0  0
  -31.5891  -20.3784   19.1171 C   0  0  0  0  0  0  0  0  0  0  0  0
  -29.2674  -20.4017   19.9778 C   0  0  0  0  0  0  0  0  0  0  0  0
  -27.7264  -18.3241   18.3318 C   0  0  0  0  0  0  0  0  0  0  0  0
  -21.1404  -29.6714   24.0438 C   0  0  1  0  0  0  0  0  0  0  0  0
  -22.3537  -28.2059   20.7554 C   0  0  1  0  0  0  0  0  0  0  0  0
  -26.2549  -18.7076   18.5500 C   0  0  2  0  0  0  0  0  0  0  0  0
  -30.8316  -22.3028   20.5284 C   0  0  0  0  0  0  0  0  0  0  0  0
  -21.4527  -21.0126   18.0264 C   0  0  0  0  0  0  0  0  0  0  0  0
  -21.6586  -24.6149   23.5808 C   0  0  0  0  0  0  0  0  0  0  0  0
  -21.6445  -22.3652   22.4823 C   0  0  0  0  0  0  0  0  0  0  0  0
  -19.7023  -23.9040   22.1943 C   0  0  0  0  0  0  0  0  0  0  0  0
  -22.9544  -23.9749   16.1702 C   0  0  0  0  0  0  0  0  0  0  0  0
  -32.0929  -24.2158   21.5030 C   0  0  0  0  0  0  0  0  0  0  0  0
  -30.4323  -25.9483   19.5530 C   0  0  0  0  0  0  0  0  0  0  0  0
  -30.8594  -24.5012   19.3588 C   0  0  0  0  0  0  0  0  0  0  0  0
  -29.0334  -26.1015   20.1374 C   0  0  0  0  0  0  0  0  0  1  0  0
  -21.8785  -24.4207   21.0156 C   0  0  1  0  0  0  0  0  0  0  0  0
  -21.7370  -22.4827   17.7608 C   0  0  2  0  0  0  0  0  0  0  0  0
  -21.2410  -23.8453   22.3118 C   0  0  0  0  0  0  0  0  0  0  0  0
  -25.9025  -16.4080   19.3681 N   0  0  0  0  0  0  0  0  0  0  0  0
  -25.5350  -17.6994   19.4261 N   0  0  0  0  0  0  0  0  0  0  0  0
  -22.6224  -26.7664   20.7549 N   0  0  0  0  0  0  0  0  0  0  0  0
  -28.4108  -19.2957   17.4650 N   0  0  0  0  0  0  0  0  0  0  0  0
  -30.1871  -20.0181   18.8965 N   0  0  0  0  0  0  0  0  0  0  0  0
  -24.0281  -19.1887   20.4853 N   0  0  0  0  0  0  0  0  0  0  0  0
  -22.9863  -15.1867   22.3004 N   0  0  0  0  0  0  0  0  0  0  0  0
  -21.2696  -29.1725   22.6915 N   0  0  0  0  0  0  0  0  0  0  0  0
  -21.4793  -23.7283   19.7951 N   0  0  0  0  0  0  0  0  0  0  0  0
  -22.6136  -22.5824   16.5597 N   0  3  0  0  0  0  0  0  0  0  0  0
  -30.9056  -23.7788   20.6819 N   0  3  1  0  0  0  0  0  0  0  0  0
  -22.4562  -17.4177   22.2823 O   0  0  0  0  0  0  0  0  0  0  0  0
  -23.5188  -28.5757   22.7755 O   0  0  0  0  0  0  0  0  0  0  0  0
  -20.3590  -26.2114   20.6826 O   0  0  0  0  0  0  0  0  0  0  0  0
  -23.6191  -23.1326   19.1292 O   0  0  0  0  0  0  0  0  0  0  0  0
  -30.5552  -19.5782   16.6626 O   0  0  0  0  0  0  0  0  0  0  0  0
  -25.4125  -10.3095   21.1336 O   0  0  0  0  0  0  0  0  0  0  0  0
  -28.7372  -27.4874   20.2545 O   0  0  0  0  0  0  0  0  0  1  0  0
  -20.6970   -7.4577   21.3225 F   0  0  0  0  0  0  0  0  0  0  0  0
  -23.4761  -10.8938   23.0182 F   0  0  0  0  0  0  0  0  0  0  0  0
  1  2  1  0  0  0  0
  1  5  2  0  0  0  0
  2  6  2  0  0  0  0
  3  8  2  0  0  0  0
  3 15  1  0  0  0  0
  4  9  1  0  0  0  0
  4 15  2  0  0  0  0
  5 17  1  0  0  0  0
  6 19  1  0  0  0  0
  7 10  2  0  0  0  0
  7 18  1  0  0  0  0
  8 21  1  0  0  0  0
  9 21  2  0  0  0  0
 10 22  1  0  0  0  0
 11 12  2  0  0  0  0
 11 23  1  0  0  0  0
 12 24  1  0  0  0  0
 13 20  1  0  0  0  0
 13 22  2  0  0  0  0
 14 24  2  0  0  0  0
 14 25  1  0  0  0  0
 15 26  1  0  0  0  0
 16 26  1  0  0  0  0
 16 27  2  0  0  0  0
 16 28  1  0  0  0  0
 17 19  2  0  0  0  0
 17 33  1  0  0  0  0
 18 20  2  0  0  0  0
 18 34  1  0  0  0  0
 19 46  1  0  0  0  0
 20 35  1  0  0  0  0
 21 78  1  0  0  0  0
 22 79  1  0  0  0  0
 23 25  2  0  0  0  0
 23 78  1  0  0  0  0
 24 80  1  0  0  0  0
 25 81  1  0  0  0  0
 26 62  2  0  0  0  0
 27 63  1  0  0  0  0
 27 67  1  0  0  0  0
 28 68  1  0  0  0  0
 28 73  2  0  0  0  0
 29 47  1  0  0  0  0
 29 69  1  0  0  0  0
 29 74  2  0  0  0  0
 30 59  1  0  0  0  0
 30 64  1  0  0  0  0
 30 75  2  0  0  0  0
 31 60  1  0  0  0  0
 31 70  1  0  0  0  0
 31 76  2  0  0  0  0
 32 65  1  0  0  0  0
 32 66  1  0  0  0  0
 32 77  2  0  0  0  0
 33 36  1  0  0  0  0
 34 47  1  0  0  0  0
 35 64  1  0  0  0  0
 36 38  1  0  0  0  0
 37 39  1  0  0  0  0
 37 42  1  0  0  0  0
 38 46  1  0  0  0  0
 39 48  1  0  0  0  0
 40 43  1  0  0  0  0
 40 49  1  0  0  0  0
 41 44  1  0  0  0  0
 41 49  1  0  0  0  0
 42 65  1  0  0  0  0
 43 66  1  0  0  0  0
 44 66  1  0  0  0  0
 45 48  1  0  0  0  0
 45 65  1  0  0  0  0
 46 69  1  0  0  0  0
 47 64  1  0  0  0  0
 48 63  1  0  0  0  0
 49 72  1  0  0  0  0
 50 60  1  0  0  0  0
 51 61  1  0  0  0  0
 52 61  1  0  0  0  0
 53 61  1  0  0  0  0
 54 71  1  0  0  0  0
 55 72  1  0  0  0  0
 56 57  1  0  0  0  0
 56 58  1  0  0  0  0
 57 72  1  0  0  0  0
 58 79  1  0  0  0  0
 59 61  1  0  0  0  0
 59 70  1  0  0  0  0
 60 71  1  0  0  0  0
 62 63  1  0  0  0  0
M  CHG  2  71   1  72   1
M  ISO  4  32 100  58 101  66 100  79 101
M  END
> <Batch ID>
0108

> <Smiles>
CNC(C)C(=O)NC(C(=O)N1Cc2cc([101O:1][101CH2:1]CCN(C)C3CC[100N:0]([100C:0](=O)N4CCCC(n5nc(-c6ccc(Oc7ccc(F)cc7F)cc6)c(C(N)=O)c5N)C4)CC3)ccc2CC1C(=O)NC1CCCc2ccccc21)C(C)(C)C

> <Shape>
0.211

> <Color>
0.098

> <Negative vol penalty>
0.000

$$$$

  -OEChem-04052319533D

 86 94  0     1  0  0  0  0  0999 V2000
  -31.3403  -19.4526   28.3110 C   0  0  0  0  0  0  0  0  0  0  0  0
  -30.5102  -20.5096   28.6665 C   0  0  0  0  0  0  0  0  0  0  0  0
  -29.4576  -17.3786   19.2762 C   0  0  0  0  0  0  0  0  0  0  0  0
  -28.1415  -17.8528   21.2459 C   0  0  0  0  0  0  0  0  0  0  0  0
  -31.3284  -18.9712   27.0036 C   0  0  0  0  0  0  0  0  0  0  0  0
  -29.6592  -21.0778   27.7179 C   0  0  0  0  0  0  0  0  0  0  0  0
  -25.9234  -25.8749   28.1161 C   0  0  0  0  0  0  0  0  0  0  0  0
  -29.6950  -16.0868   19.7458 C   0  0  0  0  0  0  0  0  0  0  0  0
  -28.3789  -16.5610   21.7156 C   0  0  0  0  0  0  0  0  0  0  0  0
  -25.9804  -27.2466   27.8733 C   0  0  0  0  0  0  0  0  0  0  0  0
  -30.3484  -12.5471   20.2542 C   0  0  0  0  0  0  0  0  0  0  0  0
  -30.2189  -11.4939   19.3489 C   0  0  0  0  0  0  0  0  0  0  0  0
  -25.0041  -26.8956   25.6955 C   0  0  0  0  0  0  0  0  0  0  0  0
  -27.9060  -12.0903   18.9859 C   0  0  0  0  0  0  0  0  0  0  0  0
  -27.0543  -28.7812   20.2933 C   0  0  0  0  0  0  0  0  0  0  0  0
  -28.6808  -18.2616   20.0263 C   0  0  0  0  0  0  0  0  0  0  0  0
  -27.3697  -20.0226   18.7273 C   0  0  0  0  0  0  0  0  0  0  0  0
  -30.4856  -19.5426   26.0360 C   0  0  0  0  0  0  0  0  0  0  0  0
  -25.4155  -25.0006   27.1445 C   0  0  0  0  0  0  0  0  0  0  0  0
  -29.6152  -20.5903   26.3992 C   0  0  0  0  0  0  0  0  0  0  0  0
  -24.9393  -25.5135   25.9294 C   0  0  0  0  0  0  0  0  0  0  0  0
  -25.2696  -27.4367   20.0160 C   0  0  0  0  0  0  0  0  0  0  0  0
  -26.6708  -27.4601   20.2238 C   0  0  0  0  0  0  0  0  0  0  0  0
  -29.1556  -15.6780   20.9655 C   0  0  0  0  0  0  0  0  0  0  0  0
  -25.5234  -27.7569   26.6617 C   0  0  0  0  0  0  0  0  0  0  0  0
  -29.2566  -13.3719   20.5255 C   0  0  0  0  0  0  0  0  0  0  0  0
  -28.9977  -11.2655   18.7147 C   0  0  0  0  0  0  0  0  0  0  0  0
  -28.0354  -13.1435   19.8913 C   0  0  0  0  0  0  0  0  0  0  0  0
  -28.4357  -19.5963   19.5420 C   0  0  0  0  0  0  0  0  0  0  0  0
  -24.8395  -28.7443   19.9646 C   0  0  0  0  0  0  0  0  0  0  0  0
  -27.5887  -21.3671   18.5509 C   0  0  0  0  0  0  0  0  0  0  0  0
  -26.2790  -19.2706   18.1790 C   0  0  0  0  0  0  0  0  0  0  0  0
  -26.6022  -22.5717   25.4725 C   0  0  0  0  0  0  0  0  0  0  0  0
  -23.5322  -22.2708   24.4688 C   0  0  0  0  0  0  0  0  0  0  0  0
  -20.4956  -23.7404   23.9527 C   0  0  0  0  0  0  0  0  0  0  0  0
  -28.9267  -26.3879   20.5518 C   0  0  0  0  0  0  0  0  0  0  0  0
  -30.5073  -18.9773   24.6376 C   0  0  0  0  0  0  0  0  0  0  0  0
  -25.3360  -23.5264   27.4324 C   0  0  0  0  0  0  0  0  0  0  0  0
  -24.3661  -24.6194   24.8615 C   0  0  0  0  0  0  0  0  0  0  0  0
  -29.9058  -19.9242   23.6043 C   0  0  0  0  0  0  0  0  0  0  0  0
  -31.6139  -24.2238   19.6728 C   0  0  0  0  0  0  0  0  0  0  0  0
  -28.5537  -20.4284   24.0862 C   0  0  0  0  0  0  0  0  0  0  0  0
  -30.9389  -22.8620   19.4934 C   0  0  0  0  0  0  0  0  0  0  0  0
  -30.9860  -25.0220   20.8140 C   0  0  0  0  0  0  0  0  0  0  0  0
  -28.8531  -23.8169   20.5540 C   0  0  0  0  0  0  0  0  0  0  0  0
  -28.7034  -21.2442   25.3766 C   0  0  1  0  0  0  0  0  0  0  0  0
  -25.2748  -22.6734   26.1691 C   0  0  1  0  0  0  0  0  0  0  0  0
  -29.4087  -23.0029   19.3740 C   0  0  2  0  0  0  0  0  0  0  0  0
  -24.4217  -26.2336   19.8805 C   0  0  0  0  0  0  0  0  0  0  0  0
  -23.4815  -29.2948   19.7694 C   0  0  0  0  0  0  0  0  0  0  0  0
  -18.1921  -23.2507   23.0860 C   0  0  0  0  0  0  0  0  0  0  0  0
  -24.5890  -22.3750   21.6083 C   0  0  0  0  0  0  0  0  0  0  0  0
  -22.2529  -22.8386   20.8362 C   0  0  0  0  0  0  0  0  0  0  0  0
  -22.7798  -20.6914   21.9914 C   0  0  0  0  0  0  0  0  0  0  0  0
  -27.3760  -31.5867   20.3653 C   0  0  0  0  0  0  0  0  0  0  0  0
  -25.4458  -31.7260   18.8161 C   0  0  0  0  0  0  0  0  0  0  0  0
  -19.2535  -24.3688   26.5644 C   0  0  0  0  0  0  0  0  0  0  0  0
  -25.2582  -31.0624   25.0874 C   0  0  0  0  0  0  0  0  0  0  0  0
  -24.7541  -31.6722   23.7880 C   0  0  0  0  0  0  0  0  0  0  0  0
  -25.0566  -31.6453   21.3088 C   0  0  0  0  0  0  0  0  0  0  0  0
  -25.0931  -29.5493   25.1591 C   0  0  0  0  0  0  0  0  0  1  0  0
  -22.7199  -22.8361   23.3288 C   0  0  1  0  0  0  0  0  0  0  0  0
  -19.0887  -23.2990   24.3134 C   0  0  2  0  0  0  0  0  0  0  0  0
  -23.0979  -22.2022   21.9603 C   0  0  0  0  0  0  0  0  0  0  0  0
  -25.9242  -31.0931   20.1462 C   0  0  0  0  0  0  0  0  0  0  0  0
  -29.2700  -20.5894   19.8609 N   0  0  0  0  0  0  0  0  0  0  0  0
  -25.9330  -29.5529   20.1340 N   0  0  0  0  0  0  0  0  0  0  0  0
  -28.7283  -21.6531   19.2434 N   0  0  0  0  0  0  0  0  0  0  0  0
  -24.3156  -23.1847   25.1878 N   0  0  0  0  0  0  0  0  0  0  0  0
  -29.5360  -25.1178   20.6315 N   0  0  0  0  0  0  0  0  0  0  0  0
  -26.9156  -22.3206   17.8726 N   0  0  0  0  0  0  0  0  0  0  0  0
  -26.2054  -17.8993   18.4591 N   0  0  0  0  0  0  0  0  0  0  0  0
  -27.5480  -26.3540   20.3451 N   0  0  0  0  0  0  0  0  0  0  0  0
  -27.3898  -21.5251   25.9126 N   0  0  0  0  0  0  0  0  0  0  0  0
  -21.3197  -22.6640   23.7006 N   0  0  0  0  0  0  0  0  0  0  0  0
  -18.4867  -24.2415   25.2984 N   0  3  0  0  0  0  0  0  0  0  0  0
  -25.5190  -31.1458   22.6333 N   0  3  0  0  0  0  0  0  0  0  0  0
  -25.4049  -19.7958   17.4485 O   0  0  0  0  0  0  0  0  0  0  0  0
  -26.8898  -23.3818   24.5992 O   0  0  0  0  0  0  0  0  0  0  0  0
  -23.4684  -21.0642   24.7168 O   0  0  0  0  0  0  0  0  0  0  0  0
  -20.8292  -24.9219   23.8963 O   0  0  0  0  0  0  0  0  0  0  0  0
  -29.5837  -27.4290   20.6319 O   0  0  0  0  0  0  0  0  0  0  0  0
  -29.3869  -14.4175   21.4239 O   0  0  0  0  0  0  0  0  0  0  0  0
  -25.5786  -29.0953   26.4218 O   0  0  0  0  0  0  0  0  0  1  0  0
  -28.8740  -10.2550   17.8442 F   0  0  0  0  0  0  0  0  0  0  0  0
  -26.9833  -13.9332   20.1469 F   0  0  0  0  0  0  0  0  0  0  0  0
  1  2  1  0  0  0  0
  1  5  2  0  0  0  0
  2  6  2  0  0  0  0
  3  8  2  0  0  0  0
  3 16  1  0  0  0  0
  4  9  1  0  0  0  0
  4 16  2  0  0  0  0
  5 18  1  0  0  0  0
  6 20  1  0  0  0  0
  7 10  2  0  0  0  0
  7 19  1  0  0  0  0
  8 24  1  0  0  0  0
  9 24  2  0  0  0  0
 10 25  1  0  0  0  0
 11 12  2  0  0  0  0
 11 26  1  0  0  0  0
 12 27  1  0  0  0  0
 13 21  1  0  0  0  0
 13 25  2  0  0  0  0
 14 27  2  0  0  0  0
 14 28  1  0  0  0  0
 15 23  2  0  0  0  0
 15 67  1  0  0  0  0
 16 29  1  0  0  0  0
 17 29  1  0  0  0  0
 17 31  2  0  0  0  0
 17 32  1  0  0  0  0
 18 20  2  0  0  0  0
 18 37  1  0  0  0  0
 19 21  2  0  0  0  0
 19 38  1  0  0  0  0
 20 46  1  0  0  0  0
 21 39  1  0  0  0  0
 22 23  1  0  0  0  0
 22 30  2  0  0  0  0
 22 49  1  0  0  0  0
 23 73  1  0  0  0  0
 24 83  1  0  0  0  0
 25 84  1  0  0  0  0
 26 28  2  0  0  0  0
 26 83  1  0  0  0  0
 27 85  1  0  0  0  0
 28 86  1  0  0  0  0
 29 66  2  0  0  0  0
 30 50  1  0  0  0  0
 30 67  1  0  0  0  0
 31 68  1  0  0  0  0
 31 71  1  0  0  0  0
 32 72  1  0  0  0  0
 32 78  2  0  0  0  0
 33 47  1  0  0  0  0
 33 74  1  0  0  0  0
 33 79  2  0  0  0  0
 34 62  1  0  0  0  0
 34 69  1  0  0  0  0
 34 80  2  0  0  0  0
 35 63  1  0  0  0  0
 35 75  1  0  0  0  0
 35 81  2  0  0  0  0
 36 70  1  0  0  0  0
 36 73  1  0  0  0  0
 36 82  2  0  0  0  0
 37 40  1  0  0  0  0
 38 47  1  0  0  0  0
 39 69  1  0  0  0  0
 40 42  1  0  0  0  0
 41 43  1  0  0  0  0
 41 44  1  0  0  0  0
 42 46  1  0  0  0  0
 43 48  1  0  0  0  0
 44 70  1  0  0  0  0
 45 48  1  0  0  0  0
 45 70  1  0  0  0  0
 46 74  1  0  0  0  0
 47 69  1  0  0  0  0
 48 68  1  0  0  0  0
 51 63  1  0  0  0  0
 52 64  1  0  0  0  0
 53 64  1  0  0  0  0
 54 64  1  0  0  0  0
 55 65  1  0  0  0  0
 56 65  1  0  0  0  0
 57 76  1  0  0  0  0
 58 59  1  0  0  0  0
 58 61  1  0  0  0  0
 59 77  1  0  0  0  0
 60 65  1  0  0  0  0
 60 77  1  0  0  0  0
 61 84  1  0  0  0  0
 62 64  1  0  0  0  0
 62 75  1  0  0  0  0
 63 76  1  0  0  0  0
 65 67  1  0  0  0  0
 66 68  1  0  0  0  0
M  CHG  2  76   1  77   1
M  ISO  4  36 100  61 101  73 100  84 101
M  END
> <Batch ID>
0108

> <Smiles>
CNC(C)C(=O)NC(C(=O)N1Cc2cc([101O:1][101CH2:1]CCNCC(C)(C)n3cc([100NH:0][100C:0](=O)N4CCCC(n5nc(-c6ccc(Oc7ccc(F)cc7F)cc6)c(C(N)=O)c5N)C4)c(C)c3C)ccc2CC1C(=O)NC1CCCc2ccccc21)C(C)(C)C

> <Shape>
0.208

> <Color>
0.053

> <Negative vol penalty>
0.000

$$$$

  -OEChem-04052319533D

 82 89  0     1  0  0  0  0  0999 V2000
  -18.6898  -27.9843   23.5470 C   0  0  0  0  0  0  0  0  0  0  0  0
  -18.5618  -26.6829   23.0721 C   0  0  0  0  0  0  0  0  0  0  0  0
  -21.4725  -14.6428   21.4464 C   0  0  0  0  0  0  0  0  0  0  0  0
  -21.7625  -14.8716   19.0588 C   0  0  0  0  0  0  0  0  0  0  0  0
  -19.6276  -28.8441   22.9768 C   0  0  0  0  0  0  0  0  0  0  0  0
  -19.3709  -26.2410   22.0259 C   0  0  0  0  0  0  0  0  0  0  0  0
  -22.6252  -20.3409   19.5938 C   0  0  0  0  0  0  0  0  0  0  0  0
  -20.1616  -15.1053   21.3316 C   0  0  0  0  0  0  0  0  0  0  0  0
  -20.4515  -15.3341   18.9439 C   0  0  0  0  0  0  0  0  0  0  0  0
  -22.7400  -19.5742   18.4350 C   0  0  0  0  0  0  0  0  0  0  0  0
  -17.2988  -16.9158   18.0674 C   0  0  0  0  0  0  0  0  0  0  0  0
  -17.0733  -18.0320   17.2619 C   0  0  0  0  0  0  0  0  0  0  0  0
  -24.3800  -21.1229   17.5801 C   0  0  0  0  0  0  0  0  0  0  0  0
  -18.5471  -19.3391   18.6607 C   0  0  0  0  0  0  0  0  0  0  0  0
  -22.2730  -14.5260   20.3100 C   0  0  0  0  0  0  0  0  0  0  0  0
  -24.0680  -12.7139   20.3535 C   0  0  0  0  0  0  0  0  0  0  0  0
  -20.4552  -28.4095   21.9295 C   0  0  0  0  0  0  0  0  0  0  0  0
  -23.3802  -21.5123   19.7499 C   0  0  0  0  0  0  0  0  0  0  0  0
  -20.3196  -27.0962   21.4402 C   0  0  0  0  0  0  0  0  0  0  0  0
  -24.2749  -21.9014   18.7428 C   0  0  0  0  0  0  0  0  0  0  0  0
  -19.6511  -15.4509   20.0803 C   0  0  0  0  0  0  0  0  0  0  0  0
  -23.6154  -19.9667   17.4267 C   0  0  0  0  0  0  0  0  0  0  0  0
  -18.1484  -17.0112   19.1696 C   0  0  0  0  0  0  0  0  0  0  0  0
  -17.6975  -19.2436   17.5585 C   0  0  0  0  0  0  0  0  0  0  0  0
  -18.7726  -18.2229   19.4662 C   0  0  0  0  0  0  0  0  0  0  0  0
  -23.6274  -14.0489   20.4281 C   0  0  0  0  0  0  0  0  0  0  0  0
  -25.4285  -12.7913   20.5253 C   0  0  0  0  0  0  0  0  0  0  0  0
  -23.3148  -11.5115   20.1472 C   0  0  0  0  0  0  0  0  0  0  0  0
  -22.6905  -24.5944   20.1087 C   0  0  0  0  0  0  0  0  0  0  0  0
  -25.8935  -24.8596   20.5476 C   0  0  0  0  0  0  0  0  0  0  0  0
  -26.6892  -18.1840   16.3631 C   0  0  0  0  0  0  0  0  0  0  0  0
  -29.0079  -23.5718   20.0101 C   0  0  0  0  0  0  0  0  0  0  0  0
  -29.4197  -17.1480   19.5553 C   0  0  0  0  0  0  0  0  0  0  0  0
  -21.4215  -29.3899   21.3132 C   0  0  0  0  0  0  0  0  0  0  0  0
  -23.2645  -22.3139   21.0174 C   0  0  0  0  0  0  0  0  0  0  0  0
  -25.1228  -23.1395   18.8704 C   0  0  0  0  0  0  0  0  0  0  0  0
  -22.4992  -28.7275   20.4587 C   0  0  0  0  0  0  0  0  0  0  0  0
  -28.7909  -15.4663   22.6299 C   0  0  0  0  0  0  0  0  0  0  0  0
  -21.8796  -27.6906   19.5273 C   0  0  0  0  0  0  0  0  0  0  0  0
  -27.4360  -14.7919   22.4075 C   0  0  0  0  0  0  0  0  0  0  0  0
  -28.8609  -16.8308   21.9477 C   0  0  0  0  0  0  0  0  0  0  0  0
  -27.1704  -16.1486   20.2892 C   0  0  0  0  0  0  0  0  0  0  0  0
  -21.1962  -26.5722   20.3234 C   0  0  1  0  0  0  0  0  0  0  0  0
  -23.7022  -23.7655   20.8484 C   0  0  1  0  0  0  0  0  0  0  0  0
  -27.0717  -14.7453   20.9114 C   0  0  2  0  0  0  0  0  0  0  0  0
  -22.7597  -17.1537   14.4512 C   0  0  0  0  0  0  0  0  0  0  0  0
  -27.8748  -18.3164   13.2897 C   0  0  0  0  0  0  0  0  0  0  0  0
  -31.4339  -24.0317   20.4576 C   0  0  0  0  0  0  0  0  0  0  0  0
  -25.8901  -26.9898   18.3630 C   0  0  0  0  0  0  0  0  0  0  0  0
  -28.3733  -26.7194   18.1924 C   0  0  0  0  0  0  0  0  0  0  0  0
  -27.3502  -27.5105   20.3255 C   0  0  0  0  0  0  0  0  0  0  0  0
  -29.3158  -21.0698   21.5606 C   0  0  0  0  0  0  0  0  0  0  0  0
  -25.4483  -17.6530   15.6508 C   0  0  0  0  0  0  0  0  0  0  0  0
  -23.0410  -16.9491   15.9343 C   0  0  0  0  0  0  0  0  0  0  0  0
  -28.0000  -17.3355   14.4054 C   0  0  0  0  0  0  0  0  0  0  0  0
  -29.8393  -17.3905   17.1213 C   0  0  0  0  0  0  0  0  0  0  0  0
  -29.1796  -18.4529   16.2575 C   0  0  0  0  0  0  0  0  0  0  0  0
  -27.0808  -25.0907   19.6443 C   0  0  1  0  0  0  0  0  0  0  0  0
  -30.1757  -23.3341   20.9504 C   0  0  2  0  0  0  0  0  0  0  0  0
  -24.1555  -17.8675   16.4482 C   0  0  2  0  0  0  0  0  0  1  0  0
  -27.1563  -26.5552   19.1278 C   0  0  0  0  0  0  0  0  0  0  0  0
  -24.6270  -14.9112   20.6316 N   0  0  0  0  0  0  0  0  0  0  0  0
  -25.7092  -14.1162   20.6864 N   0  0  0  0  0  0  0  0  0  0  0  0
  -24.9693  -23.8933   20.1257 N   0  0  0  0  0  0  0  0  0  0  0  0
  -28.5059  -16.7168   20.5311 N   0  0  0  0  0  0  0  0  0  0  0  0
  -26.4002  -11.8545   20.5528 N   0  0  0  0  0  0  0  0  0  0  0  0
  -21.9259  -11.6120   19.9889 N   0  0  0  0  0  0  0  0  0  0  0  0
  -22.1808  -25.6478   20.8435 N   0  0  0  0  0  0  0  0  0  0  0  0
  -28.2551  -24.6608   20.3957 N   0  0  0  0  0  0  0  0  0  0  0  0
  -29.0070  -16.9987   18.2369 N   0  0  0  0  0  0  0  0  0  0  0  0
  -27.9076  -17.9977   15.7008 N   0  0  0  0  0  0  0  0  0  0  0  0
  -30.4607  -21.8757   21.0640 N   0  3  0  0  0  0  0  0  0  0  0  0
  -23.8554  -10.3799   20.1209 O   0  0  0  0  0  0  0  0  0  0  0  0
  -22.3952  -24.3008   18.9562 O   0  0  0  0  0  0  0  0  0  0  0  0
  -25.7935  -25.5074   21.5926 O   0  0  0  0  0  0  0  0  0  0  0  0
  -26.5920  -18.7419   17.4592 O   0  0  0  0  0  0  0  0  0  0  0  0
  -28.7878  -22.8646   19.0293 O   0  0  0  0  0  0  0  0  0  0  0  0
  -30.5238  -17.6254   19.8380 O   0  0  0  0  0  0  0  0  0  0  0  0
  -18.3719  -15.9019   19.9679 O   0  0  0  0  0  0  0  0  0  0  0  0
  -23.7289  -19.2205   16.2944 O   0  0  0  0  0  0  0  0  0  1  0  0
  -17.4820  -20.3150   16.7840 F   0  0  0  0  0  0  0  0  0  0  0  0
  -19.5908  -18.3204   20.5230 F   0  0  0  0  0  0  0  0  0  0  0  0
  1  2  1  0  0  0  0
  1  5  2  0  0  0  0
  2  6  2  0  0  0  0
  3  8  2  0  0  0  0
  3 15  1  0  0  0  0
  4  9  1  0  0  0  0
  4 15  2  0  0  0  0
  5 17  1  0  0  0  0
  6 19  1  0  0  0  0
  7 10  2  0  0  0  0
  7 18  1  0  0  0  0
  8 21  1  0  0  0  0
  9 21  2  0  0  0  0
 10 22  1  0  0  0  0
 11 12  2  0  0  0  0
 11 23  1  0  0  0  0
 12 24  1  0  0  0  0
 13 20  1  0  0  0  0
 13 22  2  0  0  0  0
 14 24  2  0  0  0  0
 14 25  1  0  0  0  0
 15 26  1  0  0  0  0
 16 26  1  0  0  0  0
 16 27  2  0  0  0  0
 16 28  1  0  0  0  0
 17 19  2  0  0  0  0
 17 34  1  0  0  0  0
 18 20  2  0  0  0  0
 18 35  1  0  0  0  0
 19 43  1  0  0  0  0
 20 36  1  0  0  0  0
 21 79  1  0  0  0  0
 22 80  1  0  0  0  0
 23 25  2  0  0  0  0
 23 79  1  0  0  0  0
 24 81  1  0  0  0  0
 25 82  1  0  0  0  0
 26 62  2  0  0  0  0
 27 63  1  0  0  0  0
 27 66  1  0  0  0  0
 28 67  1  0  0  0  0
 28 73  2  0  0  0  0
 29 44  1  0  0  0  0
 29 68  1  0  0  0  0
 29 74  2  0  0  0  0
 30 58  1  0  0  0  0
 30 64  1  0  0  0  0
 30 75  2  0  0  0  0
 31 53  1  0  0  0  0
 31 71  1  0  0  0  0
 31 76  2  0  0  0  0
 32 59  1  0  0  0  0
 32 69  1  0  0  0  0
 32 77  2  0  0  0  0
 33 65  1  0  0  0  0
 33 70  1  0  0  0  0
 33 78  2  0  0  0  0
 34 37  1  0  0  0  0
 35 44  1  0  0  0  0
 36 64  1  0  0  0  0
 37 39  1  0  0  0  0
 38 40  1  0  0  0  0
 38 41  1  0  0  0  0
 39 43  1  0  0  0  0
 40 45  1  0  0  0  0
 41 65  1  0  0  0  0
 42 45  1  0  0  0  0
 42 65  1  0  0  0  0
 43 68  1  0  0  0  0
 44 64  1  0  0  0  0
 45 63  1  0  0  0  0
 46 54  1  0  0  0  0
 47 55  1  0  0  0  0
 48 59  1  0  0  0  0
 49 61  1  0  0  0  0
 50 61  1  0  0  0  0
 51 61  1  0  0  0  0
 52 72  1  0  0  0  0
 53 60  1  0  0  0  0
 54 60  1  0  0  0  0
 55 71  1  0  0  0  0
 56 57  1  0  0  0  0
 56 70  1  0  0  0  0
 57 71  1  0  0  0  0
 58 61  1  0  0  0  0
 58 69  1  0  0  0  0
 59 72  1  0  0  0  0
 60 80  1  0  0  0  0
 62 63  1  0  0  0  0
M  CHG  1  72   1
M  ISO  4  33 100  60 101  70 100  80 101
M  END
> <Batch ID>
0108

> <Smiles>
CCN(CC[100NH:0][100C:0](=O)N1CCCC(n2nc(-c3ccc(Oc4ccc(F)cc4F)cc3)c(C(N)=O)c2N)C1)C(=O)C[101CH:1](CC)[101O:1]c1ccc2c(c1)CN(C(=O)C(NC(=O)C(C)NC)C(C)(C)C)C(C(=O)NC1CCCc3ccccc31)C2

> <Shape>
0.171

> <Color>
0.085

> <Negative vol penalty>
0.000

$$$$

  -OEChem-04052319533D

 80 87  0     1  0  0  0  0  0999 V2000
  -27.4683  -21.7636   16.5336 C   0  0  0  0  0  0  0  0  0  0  0  0
  -26.3179  -22.3019   17.1012 C   0  0  0  0  0  0  0  0  0  0  0  0
  -26.8584  -18.0758   18.9864 C   0  0  0  0  0  0  0  0  0  0  0  0
  -27.0453  -18.1997   21.3919 C   0  0  0  0  0  0  0  0  0  0  0  0
  -28.6558  -21.7332   17.2636 C   0  0  0  0  0  0  0  0  0  0  0  0
  -26.3540  -22.8092   18.3996 C   0  0  0  0  0  0  0  0  0  0  0  0
  -23.9873  -27.2673   18.8103 C   0  0  0  0  0  0  0  0  0  0  0  0
  -28.2341  -17.8670   18.8902 C   0  0  0  0  0  0  0  0  0  0  0  0
  -28.4210  -17.9908   21.2958 C   0  0  0  0  0  0  0  0  0  0  0  0
  -22.5944  -27.2460   18.8652 C   0  0  0  0  0  0  0  0  0  0  0  0
  -31.9295  -17.1305   21.7068 C   0  0  0  0  0  0  0  0  0  0  0  0
  -32.5105  -16.2169   22.5863 C   0  0  0  0  0  0  0  0  0  0  0  0
  -22.6910  -27.4950   21.2626 C   0  0  0  0  0  0  0  0  0  0  0  0
  -31.0992  -14.4671   21.7010 C   0  0  0  0  0  0  0  0  0  0  0  0
  -26.2639  -18.2422   20.2372 C   0  0  0  0  0  0  0  0  0  0  0  0
  -23.8407  -17.4783   20.4657 C   0  0  0  0  0  0  0  0  0  0  0  0
  -28.7089  -22.2491   18.5681 C   0  0  0  0  0  0  0  0  0  0  0  0
  -24.7440  -27.3918   19.9843 C   0  0  0  0  0  0  0  0  0  0  0  0
  -27.5430  -22.7844   19.1482 C   0  0  0  0  0  0  0  0  0  0  0  0
  -24.0933  -27.5201   21.2197 C   0  0  0  0  0  0  0  0  0  0  0  0
  -29.0155  -17.8244   20.0449 C   0  0  0  0  0  0  0  0  0  0  0  0
  -21.9460  -27.3570   20.0917 C   0  0  0  0  0  0  0  0  0  0  0  0
  -30.9332  -16.7124   20.8245 C   0  0  0  0  0  0  0  0  0  0  0  0
  -32.0954  -14.8853   22.5834 C   0  0  0  0  0  0  0  0  0  0  0  0
  -30.5181  -15.3807   20.8216 C   0  0  0  0  0  0  0  0  0  0  0  0
  -24.8429  -18.4586   20.3372 C   0  0  0  0  0  0  0  0  0  0  0  0
  -22.6681  -18.1913   20.5210 C   0  0  0  0  0  0  0  0  0  0  0  0
  -23.9592  -16.0509   20.5296 C   0  0  0  0  0  0  0  0  0  0  0  0
  -26.8824  -25.5752   21.4780 C   0  0  0  0  0  0  0  0  0  0  0  0
  -27.1655  -28.1706   23.4030 C   0  0  0  0  0  0  0  0  0  0  0  0
  -25.7586  -31.0170   24.6544 C   0  0  0  0  0  0  0  0  0  0  0  0
  -19.7127  -22.3387   22.5240 C   0  0  0  0  0  0  0  0  0  0  0  0
  -30.0037  -22.1513   19.3352 C   0  0  0  0  0  0  0  0  0  0  0  0
  -26.2453  -27.4400   19.9055 C   0  0  0  0  0  0  0  0  0  0  0  0
  -24.8594  -27.6764   22.5071 C   0  0  0  0  0  0  0  0  0  0  0  0
  -30.0505  -23.0499   20.5684 C   0  0  0  0  0  0  0  0  0  0  0  0
  -21.7404  -23.0820   19.6199 C   0  0  0  0  0  0  0  0  0  0  0  0
  -28.7604  -22.9211   21.3720 C   0  0  0  0  0  0  0  0  0  0  0  0
  -22.6501  -21.8535   19.5616 C   0  0  0  0  0  0  0  0  0  0  0  0
  -21.4726  -23.5036   21.0617 C   0  0  0  0  0  0  0  0  0  0  0  0
  -21.8131  -21.1992   21.8662 C   0  0  0  0  0  0  0  0  0  0  0  0
  -27.5484  -23.3669   20.5449 C   0  0  1  0  0  0  0  0  0  0  0  0
  -26.9251  -27.0540   21.2156 C   0  0  1  0  0  0  0  0  0  0  0  0
  -22.1033  -20.7094   20.4358 C   0  0  2  0  0  0  0  0  0  0  0  0
  -26.2175  -32.9101   26.2364 C   0  0  0  0  0  0  0  0  0  0  0  0
  -17.9334  -28.4916   20.4050 C   0  0  0  0  0  0  0  0  0  0  0  0
  -16.2099  -27.5613   22.5395 C   0  0  0  0  0  0  0  0  0  0  0  0
  -26.6425  -26.3168   25.7694 C   0  0  0  0  0  0  0  0  0  0  0  0
  -26.1710  -28.3427   27.1628 C   0  0  0  0  0  0  0  0  0  0  0  0
  -28.4305  -28.0222   26.1555 C   0  0  0  0  0  0  0  0  0  0  0  0
  -25.5302  -33.0291   22.4961 C   0  0  0  0  0  0  0  0  0  0  0  0
  -17.8517  -26.1960   24.8707 C   0  0  0  0  0  0  0  0  0  0  0  0
  -17.6596  -23.6063   23.1025 C   0  0  0  0  0  0  0  0  0  0  0  0
  -17.0160  -24.9616   22.8761 C   0  0  0  0  0  0  0  0  0  0  0  0
  -19.9881  -27.4542   21.4382 C   0  0  0  0  0  0  0  0  0  1  0  0
  -26.4859  -28.6452   24.6647 C   0  0  1  0  0  0  0  0  0  0  0  0
  -26.2978  -32.4290   24.7960 C   0  0  2  0  0  0  0  0  0  0  0  0
  -18.4593  -27.3669   21.3108 C   0  0  1  0  0  0  0  0  0  0  0  0
  -17.7137  -27.3426   22.6643 C   0  0  2  0  0  0  0  0  0  0  0  0
  -26.9178  -27.8269   25.9142 C   0  0  0  0  0  0  0  0  0  0  0  0
  -24.3500  -19.6997   20.3121 N   0  0  0  0  0  0  0  0  0  0  0  0
  -23.0252  -19.5041   20.4255 N   0  0  0  0  0  0  0  0  0  0  0  0
  -26.3256  -27.7115   22.3786 N   0  0  0  0  0  0  0  0  0  0  0  0
  -20.9364  -22.3746   21.8349 N   0  0  0  0  0  0  0  0  0  0  0  0
  -21.3766  -17.8171   20.6413 N   0  0  0  0  0  0  0  0  0  0  0  0
  -25.2385  -15.4828   20.4587 N   0  0  0  0  0  0  0  0  0  0  0  0
  -27.4766  -24.8114   20.4916 N   0  0  0  0  0  0  0  0  0  0  0  0
  -26.7595  -30.0748   24.7629 N   0  0  0  0  0  0  0  0  0  0  0  0
  -18.9452  -23.4946   22.4500 N   0  0  0  0  0  0  0  0  0  0  0  0
  -25.5181  -33.3692   23.9422 N   0  3  0  0  0  0  0  0  0  0  0  0
  -17.9314  -26.0500   23.3734 N   0  3  1  0  0  0  0  0  0  0  0  0
  -22.9589  -15.3005   20.6295 O   0  0  0  0  0  0  0  0  0  0  0  0
  -26.3510  -25.1581   22.5004 O   0  0  0  0  0  0  0  0  0  0  0  0
  -28.3960  -28.2127   23.3265 O   0  0  0  0  0  0  0  0  0  0  0  0
  -24.5681  -30.7739   24.4700 O   0  0  0  0  0  0  0  0  0  0  0  0
  -19.3297  -21.3473   23.1545 O   0  0  0  0  0  0  0  0  0  0  0  0
  -30.3579  -17.6204   19.9515 O   0  0  0  0  0  0  0  0  0  0  0  0
  -20.5865  -27.3358   20.1481 O   0  0  0  0  0  0  0  0  0  1  0  0
  -32.6545  -14.0078   23.4269 F   0  0  0  0  0  0  0  0  0  0  0  0
  -29.5623  -14.9729   19.9755 F   0  0  0  0  0  0  0  0  0  0  0  0
  1  2  1  0  0  0  0
  1  5  2  0  0  0  0
  2  6  2  0  0  0  0
  3  8  2  0  0  0  0
  3 15  1  0  0  0  0
  4  9  1  0  0  0  0
  4 15  2  0  0  0  0
  5 17  1  0  0  0  0
  6 19  1  0  0  0  0
  7 10  2  0  0  0  0
  7 18  1  0  0  0  0
  8 21  1  0  0  0  0
  9 21  2  0  0  0  0
 10 22  1  0  0  0  0
 11 12  2  0  0  0  0
 11 23  1  0  0  0  0
 12 24  1  0  0  0  0
 13 20  1  0  0  0  0
 13 22  2  0  0  0  0
 14 24  2  0  0  0  0
 14 25  1  0  0  0  0
 15 26  1  0  0  0  0
 16 26  1  0  0  0  0
 16 27  2  0  0  0  0
 16 28  1  0  0  0  0
 17 19  2  0  0  0  0
 17 33  1  0  0  0  0
 18 20  2  0  0  0  0
 18 34  1  0  0  0  0
 19 42  1  0  0  0  0
 20 35  1  0  0  0  0
 21 77  1  0  0  0  0
 22 78  1  0  0  0  0
 23 25  2  0  0  0  0
 23 77  1  0  0  0  0
 24 79  1  0  0  0  0
 25 80  1  0  0  0  0
 26 61  2  0  0  0  0
 27 62  1  0  0  0  0
 27 65  1  0  0  0  0
 28 66  1  0  0  0  0
 28 72  2  0  0  0  0
 29 43  1  0  0  0  0
 29 67  1  0  0  0  0
 29 73  2  0  0  0  0
 30 56  1  0  0  0  0
 30 63  1  0  0  0  0
 30 74  2  0  0  0  0
 31 57  1  0  0  0  0
 31 68  1  0  0  0  0
 31 75  2  0  0  0  0
 32 64  1  0  0  0  0
 32 69  1  0  0  0  0
 32 76  2  0  0  0  0
 33 36  1  0  0  0  0
 34 43  1  0  0  0  0
 35 63  1  0  0  0  0
 36 38  1  0  0  0  0
 37 39  1  0  0  0  0
 37 40  1  0  0  0  0
 38 42  1  0  0  0  0
 39 44  1  0  0  0  0
 40 64  1  0  0  0  0
 41 44  1  0  0  0  0
 41 64  1  0  0  0  0
 42 67  1  0  0  0  0
 43 63  1  0  0  0  0
 44 62  1  0  0  0  0
 45 57  1  0  0  0  0
 46 58  1  0  0  0  0
 47 59  1  0  0  0  0
 48 60  1  0  0  0  0
 49 60  1  0  0  0  0
 50 60  1  0  0  0  0
 51 70  1  0  0  0  0
 52 71  1  0  0  0  0
 53 54  1  0  0  0  0
 53 69  1  0  0  0  0
 54 71  1  0  0  0  0
 55 58  1  0  0  0  0
 55 78  1  0  0  0  0
 56 60  1  0  0  0  0
 56 68  1  0  0  0  0
 57 70  1  0  0  0  0
 58 59  1  0  0  0  0
 59 71  1  0  0  0  0
 61 62  1  0  0  0  0
M  CHG  2  70   1  71   1
M  ISO  4  32 100  55 101  69 100  78 101
M  END
> <Batch ID>
0108

> <Smiles>
CNC(C)C(=O)NC(C(=O)N1Cc2cc([101O:1][101CH2:1]C(C)C(C)N(C)CC[100NH:0][100C:0](=O)N3CCCC(n4nc(-c5ccc(Oc6ccc(F)cc6F)cc5)c(C(N)=O)c4N)C3)ccc2CC1C(=O)NC1CCCc2ccccc21)C(C)(C)C

> <Shape>
0.192

> <Color>
0.060

> <Negative vol penalty>
0.000

$$$$

  -OEChem-04052319533D

 83 90  0     1  0  0  0  0  0999 V2000
  -18.4314  -25.0766   24.7203 C   0  0  0  0  0  0  0  0  0  0  0  0
  -19.6677  -24.7777   24.1567 C   0  0  0  0  0  0  0  0  0  0  0  0
  -25.8302  -14.4338   21.5021 C   0  0  0  0  0  0  0  0  0  0  0  0
  -27.2489  -14.1406   19.5686 C   0  0  0  0  0  0  0  0  0  0  0  0
  -17.8365  -26.3139   24.4769 C   0  0  0  0  0  0  0  0  0  0  0  0
  -20.3092  -25.7154   23.3483 C   0  0  0  0  0  0  0  0  0  0  0  0
  -26.3406  -26.6801   22.9034 C   0  0  0  0  0  0  0  0  0  0  0  0
  -25.5619  -13.0651   21.5127 C   0  0  0  0  0  0  0  0  0  0  0  0
  -26.9806  -12.7719   19.5792 C   0  0  0  0  0  0  0  0  0  0  0  0
  -27.2931  -26.2532   21.9792 C   0  0  0  0  0  0  0  0  0  0  0  0
  -23.5829  -10.9021   19.8306 C   0  0  0  0  0  0  0  0  0  0  0  0
  -22.2583  -10.5035   20.0099 C   0  0  0  0  0  0  0  0  0  0  0  0
  -27.0559  -28.3344   20.7826 C   0  0  0  0  0  0  0  0  0  0  0  0
  -22.8901   -9.3032   22.0092 C   0  0  0  0  0  0  0  0  0  0  0  0
  -26.6737  -14.9716   20.5299 C   0  0  0  0  0  0  0  0  0  0  0  0
  -27.9966  -17.0525   21.1840 C   0  0  0  0  0  0  0  0  0  0  0  0
  -18.4755  -27.2709   23.6730 C   0  0  0  0  0  0  0  0  0  0  0  0
  -25.7296  -27.9349   22.7678 C   0  0  0  0  0  0  0  0  0  0  0  0
  -19.7216  -26.9661   23.0928 C   0  0  0  0  0  0  0  0  0  0  0  0
  -26.0978  -28.7759   21.7080 C   0  0  0  0  0  0  0  0  0  0  0  0
  -26.1371  -12.2341   20.5513 C   0  0  0  0  0  0  0  0  0  0  0  0
  -27.6488  -27.0792   20.9169 C   0  0  0  0  0  0  0  0  0  0  0  0
  -24.5611  -10.5012   20.7406 C   0  0  0  0  0  0  0  0  0  0  0  0
  -21.9119   -9.7041   21.0992 C   0  0  0  0  0  0  0  0  0  0  0  0
  -24.2147   -9.7018   21.8299 C   0  0  0  0  0  0  0  0  0  0  0  0
  -26.9509  -16.3855   20.5180 C   0  0  0  0  0  0  0  0  0  0  0  0
  -27.8242  -18.3750   20.8559 C   0  0  0  0  0  0  0  0  0  0  0  0
  -29.0313  -16.5237   22.0239 C   0  0  0  0  0  0  0  0  0  0  0  0
  -22.7476  -28.9415   22.3221 C   0  0  0  0  0  0  0  0  0  0  0  0
  -24.0889  -31.8674   22.7254 C   0  0  0  0  0  0  0  0  0  0  0  0
  -26.8854  -33.8178   22.5776 C   0  0  0  0  0  0  0  0  0  0  0  0
  -26.7652  -22.3577   17.0927 C   0  0  0  0  0  0  0  0  0  0  0  0
  -17.7714  -28.5764   23.3999 C   0  0  0  0  0  0  0  0  0  0  0  0
  -24.7234  -28.3917   23.7884 C   0  0  0  0  0  0  0  0  0  0  0  0
  -25.4862  -30.1406   21.5291 C   0  0  0  0  0  0  0  0  0  0  0  0
  -18.6901  -29.6577   22.8368 C   0  0  0  0  0  0  0  0  0  0  0  0
  -23.9696  -20.7261   18.5755 C   0  0  0  0  0  0  0  0  0  0  0  0
  -19.5553  -29.0921   21.7151 C   0  0  0  0  0  0  0  0  0  0  0  0
  -24.5813  -19.5038   19.2622 C   0  0  0  0  0  0  0  0  0  0  0  0
  -24.6720  -21.0433   17.2572 C   0  0  0  0  0  0  0  0  0  0  0  0
  -26.7476  -19.9716   18.0427 C   0  0  0  0  0  0  0  0  0  0  0  0
  -20.4603  -27.9666   22.2305 C   0  0  1  0  0  0  0  0  0  0  0  0
  -23.7897  -29.4775   23.2625 C   0  0  1  0  0  0  0  0  0  0  0  0
  -26.1088  -19.6460   19.4037 C   0  0  2  0  0  0  0  0  0  0  0  0
  -27.6616  -36.1783   22.9286 C   0  0  0  0  0  0  0  0  0  0  0  0
  -28.8757  -26.7569   16.2551 C   0  0  0  0  0  0  0  0  0  0  0  0
  -22.8192  -32.6769   20.0716 C   0  0  0  0  0  0  0  0  0  0  0  0
  -24.3666  -34.6442   20.0112 C   0  0  0  0  0  0  0  0  0  0  0  0
  -22.7048  -34.4230   21.8584 C   0  0  0  0  0  0  0  0  0  0  0  0
  -30.7208  -23.5682   18.9147 C   0  0  0  0  0  0  0  0  0  0  0  0
  -30.8527  -21.7272   17.2363 C   0  0  0  0  0  0  0  0  0  0  0  0
  -31.4749  -24.0261   16.5873 C   0  0  0  0  0  0  0  0  0  0  0  0
  -28.7527  -22.7557   13.1984 C   0  0  0  0  0  0  0  0  0  0  0  0
  -28.7621  -33.0055   24.7170 C   0  0  0  0  0  0  0  0  0  0  0  0
  -28.3846  -24.7679   17.8316 C   0  0  0  0  0  0  0  0  0  0  0  0
  -28.7361  -23.7716   15.4802 C   0  0  0  0  0  0  0  0  0  0  0  0
  -28.4526  -27.1566   18.6800 C   0  0  0  0  0  0  0  0  0  1  0  0
  -24.7158  -32.8914   21.8103 C   0  0  1  0  0  0  0  0  0  0  0  0
  -27.4753  -34.8093   23.5642 C   0  0  2  0  0  0  0  0  0  0  0  0
  -29.0415  -26.1671   17.6555 C   0  0  2  0  0  0  0  0  0  0  0  0
  -23.6619  -33.6324   20.9399 C   0  0  0  0  0  0  0  0  0  0  0  0
  -30.4558  -23.2100   17.4330 C   0  0  0  0  0  0  0  0  0  0  0  0
  -28.9386  -23.5527   17.0055 C   0  0  1  0  0  0  0  0  0  0  0  0
  -26.1718  -17.2159   19.8199 N   0  0  0  0  0  0  0  0  0  0  0  0
  -26.7282  -18.4182   20.0453 N   0  0  0  0  0  0  0  0  0  0  0  0
  -24.5027  -30.5393   22.5495 N   0  0  0  0  0  0  0  0  0  0  0  0
  -26.1174  -21.1670   17.4608 N   0  0  0  0  0  0  0  0  0  0  0  0
  -28.5047  -19.4936   21.1847 N   0  0  0  0  0  0  0  0  0  0  0  0
  -29.0620  -15.1420   22.2569 N   0  0  0  0  0  0  0  0  0  0  0  0
  -21.5913  -28.5156   22.9473 N   0  0  0  0  0  0  0  0  0  0  0  0
  -25.5101  -33.7690   22.6631 N   0  0  0  0  0  0  0  0  0  0  0  0
  -28.1346  -22.3942   17.3253 N   0  0  0  0  0  0  0  0  0  0  0  0
  -28.8297  -22.5395   14.6719 N   0  3  0  0  0  0  0  0  0  0  0  0
  -28.8012  -34.3316   24.0485 N   0  3  0  0  0  0  0  0  0  0  0  0
  -29.8931  -17.2569   22.5655 O   0  0  0  0  0  0  0  0  0  0  0  0
  -22.9752  -28.9175   21.1182 O   0  0  0  0  0  0  0  0  0  0  0  0
  -23.2677  -32.2334   23.5700 O   0  0  0  0  0  0  0  0  0  0  0  0
  -27.5754  -33.1558   21.8055 O   0  0  0  0  0  0  0  0  0  0  0  0
  -26.1666  -23.3193   16.5987 O   0  0  0  0  0  0  0  0  0  0  0  0
  -25.8756  -10.8984   20.5616 O   0  0  0  0  0  0  0  0  0  0  0  0
  -28.5842  -26.6618   20.0067 O   0  0  0  0  0  0  0  0  0  1  0  0
  -20.6395   -9.3227   21.2721 F   0  0  0  0  0  0  0  0  0  0  0  0
  -25.1499   -9.3145   22.7080 F   0  0  0  0  0  0  0  0  0  0  0  0
  1  2  1  0  0  0  0
  1  5  2  0  0  0  0
  2  6  2  0  0  0  0
  3  8  2  0  0  0  0
  3 15  1  0  0  0  0
  4  9  1  0  0  0  0
  4 15  2  0  0  0  0
  5 17  1  0  0  0  0
  6 19  1  0  0  0  0
  7 10  2  0  0  0  0
  7 18  1  0  0  0  0
  8 21  1  0  0  0  0
  9 21  2  0  0  0  0
 10 22  1  0  0  0  0
 11 12  2  0  0  0  0
 11 23  1  0  0  0  0
 12 24  1  0  0  0  0
 13 20  1  0  0  0  0
 13 22  2  0  0  0  0
 14 24  2  0  0  0  0
 14 25  1  0  0  0  0
 15 26  1  0  0  0  0
 16 26  1  0  0  0  0
 16 27  2  0  0  0  0
 16 28  1  0  0  0  0
 17 19  2  0  0  0  0
 17 33  1  0  0  0  0
 18 20  2  0  0  0  0
 18 34  1  0  0  0  0
 19 42  1  0  0  0  0
 20 35  1  0  0  0  0
 21 80  1  0  0  0  0
 22 81  1  0  0  0  0
 23 25  2  0  0  0  0
 23 80  1  0  0  0  0
 24 82  1  0  0  0  0
 25 83  1  0  0  0  0
 26 64  2  0  0  0  0
 27 65  1  0  0  0  0
 27 68  1  0  0  0  0
 28 69  1  0  0  0  0
 28 75  2  0  0  0  0
 29 43  1  0  0  0  0
 29 70  1  0  0  0  0
 29 76  2  0  0  0  0
 30 58  1  0  0  0  0
 30 66  1  0  0  0  0
 30 77  2  0  0  0  0
 31 59  1  0  0  0  0
 31 71  1  0  0  0  0
 31 78  2  0  0  0  0
 32 67  1  0  0  0  0
 32 72  1  0  0  0  0
 32 79  2  0  0  0  0
 33 36  1  0  0  0  0
 34 43  1  0  0  0  0
 35 66  1  0  0  0  0
 36 38  1  0  0  0  0
 37 39  1  0  0  0  0
 37 40  1  0  0  0  0
 38 42  1  0  0  0  0
 39 44  1  0  0  0  0
 40 67  1  0  0  0  0
 41 44  1  0  0  0  0
 41 67  1  0  0  0  0
 42 70  1  0  0  0  0
 43 66  1  0  0  0  0
 44 65  1  0  0  0  0
 45 59  1  0  0  0  0
 46 60  1  0  0  0  0
 47 61  1  0  0  0  0
 48 61  1  0  0  0  0
 49 61  1  0  0  0  0
 50 62  1  0  0  0  0
 51 62  1  0  0  0  0
 52 62  1  0  0  0  0
 53 73  1  0  0  0  0
 54 74  1  0  0  0  0
 55 60  1  0  0  0  0
 55 63  1  0  0  0  0
 56 63  1  0  0  0  0
 56 73  1  0  0  0  0
 57 60  1  0  0  0  0
 57 81  1  0  0  0  0
 58 61  1  0  0  0  0
 58 71  1  0  0  0  0
 59 74  1  0  0  0  0
 62 63  1  0  0  0  0
 63 72  1  0  0  0  0
 64 65  1  0  0  0  0
M  CHG  2  73   1  74   1
M  ISO  4  32 100  57 101  72 100  81 101
M  END
> <Batch ID>
0108

> <Smiles>
CNCC(CC(C)[101CH2:1][101O:1]c1ccc2c(c1)CN(C(=O)C(NC(=O)C(C)NC)C(C)(C)C)C(C(=O)NC1CCCc3ccccc31)C2)([100NH:0][100C:0](=O)N1CCCC(n2nc(-c3ccc(Oc4ccc(F)cc4F)cc3)c(C(N)=O)c2N)C1)C(C)(C)C

> <Shape>
0.260

> <Color>
0.078

> <Negative vol penalty>
0.000

$$$$

  -OEChem-04052319533D

 84 92  0     1  0  0  0  0  0999 V2000
  -27.8528  -10.9978   22.3427 C   0  0  0  0  0  0  0  0  0  0  0  0
  -28.4886  -11.9727   21.5806 C   0  0  0  0  0  0  0  0  0  0  0  0
  -25.0509  -27.0159   20.3833 C   0  0  0  0  0  0  0  0  0  0  0  0
  -26.4625  -27.1538   22.3392 C   0  0  0  0  0  0  0  0  0  0  0  0
  -26.4627  -10.8930   22.3193 C   0  0  0  0  0  0  0  0  0  0  0  0
  -27.7347  -12.8426   20.7937 C   0  0  0  0  0  0  0  0  0  0  0  0
  -28.9560  -18.7243   19.6020 C   0  0  0  0  0  0  0  0  0  0  0  0
  -24.0044  -27.5992   21.0974 C   0  0  0  0  0  0  0  0  0  0  0  0
  -25.4159  -27.7372   23.0533 C   0  0  0  0  0  0  0  0  0  0  0  0
  -29.5525  -19.3562   18.5117 C   0  0  0  0  0  0  0  0  0  0  0  0
  -21.7035  -26.6344   23.3776 C   0  0  0  0  0  0  0  0  0  0  0  0
  -20.4373  -26.0627   23.2535 C   0  0  0  0  0  0  0  0  0  0  0  0
  -27.3705  -19.8110   17.5893 C   0  0  0  0  0  0  0  0  0  0  0  0
  -19.5803  -28.1487   22.3867 C   0  0  0  0  0  0  0  0  0  0  0  0
  -26.2800  -26.7931   21.0041 C   0  0  0  0  0  0  0  0  0  0  0  0
  -27.3708  -24.9212   19.6574 C   0  0  0  0  0  0  0  0  0  0  0  0
  -25.6907  -11.7683   21.5392 C   0  0  0  0  0  0  0  0  0  0  0  0
  -27.5602  -18.6212   19.6889 C   0  0  0  0  0  0  0  0  0  0  0  0
  -26.3330  -12.7485   20.7588 C   0  0  0  0  0  0  0  0  0  0  0  0
  -26.7587  -19.1796   18.6829 C   0  0  0  0  0  0  0  0  0  0  0  0
  -24.1869  -27.9599   22.4324 C   0  0  0  0  0  0  0  0  0  0  0  0
  -28.7598  -19.8971   17.5037 C   0  0  0  0  0  0  0  0  0  0  0  0
  -21.9081  -27.9634   23.0064 C   0  0  0  0  0  0  0  0  0  0  0  0
  -19.3757  -26.8198   22.7580 C   0  0  0  0  0  0  0  0  0  0  0  0
  -20.8465  -28.7205   22.5109 C   0  0  0  0  0  0  0  0  0  0  0  0
  -27.3613  -26.1901   20.2671 C   0  0  0  0  0  0  0  0  0  0  0  0
  -28.6183  -24.8216   19.0915 C   0  0  0  0  0  0  0  0  0  0  0  0
  -26.3437  -23.9221   19.6069 C   0  0  0  0  0  0  0  0  0  0  0  0
  -25.4904  -16.2106   19.7808 C   0  0  0  0  0  0  0  0  0  0  0  0
  -23.3430  -18.5862   20.2984 C   0  0  0  0  0  0  0  0  0  0  0  0
  -22.5350  -21.8849   19.9633 C   0  0  0  0  0  0  0  0  0  0  0  0
  -32.8161  -27.0231   16.1458 C   0  0  0  0  0  0  0  0  0  0  0  0
  -24.1939  -11.5858   21.5093 C   0  0  0  0  0  0  0  0  0  0  0  0
  -26.9315  -17.9600   20.8847 C   0  0  0  0  0  0  0  0  0  0  0  0
  -25.2550  -19.1134   18.7390 C   0  0  0  0  0  0  0  0  0  0  0  0
  -23.4450  -12.7879   20.9397 C   0  0  0  0  0  0  0  0  0  0  0  0
  -32.7215  -27.7295   19.6342 C   0  0  0  0  0  0  0  0  0  0  0  0
  -24.1078  -13.2689   19.6527 C   0  0  0  0  0  0  0  0  0  0  0  0
  -31.3178  -27.2933   20.0578 C   0  0  0  0  0  0  0  0  0  0  0  0
  -30.7039  -21.7157   14.1622 C   0  0  0  0  0  0  0  0  0  0  0  0
  -32.1245  -21.2809   16.1976 C   0  0  0  0  0  0  0  0  0  0  0  0
  -32.7231  -28.3470   18.2375 C   0  0  0  0  0  0  0  0  0  0  0  0
  -30.7084  -27.0725   17.6126 C   0  0  0  0  0  0  0  0  0  0  0  0
  -31.7625  -22.6748   13.6359 C   0  0  0  0  0  0  0  0  0  0  0  0
  -33.1762  -22.2419   15.6610 C   0  0  0  0  0  0  0  0  0  0  0  0
  -25.5482  -13.7266   19.9117 C   0  0  1  0  0  0  0  0  0  0  0  0
  -25.5157  -17.4599   20.6153 C   0  0  1  0  0  0  0  0  0  0  0  0
  -31.3104  -20.6388   15.0687 C   0  0  0  0  0  0  0  0  0  0  0  0
  -30.6650  -26.3928   18.9919 C   0  0  2  0  0  0  0  0  0  0  0  0
  -21.2157  -24.0000   20.2518 C   0  0  0  0  0  0  0  0  0  0  0  0
  -30.8373  -16.9863   14.4613 C   0  0  0  0  0  0  0  0  0  0  0  0
  -29.4119  -17.5201   12.4755 C   0  0  0  0  0  0  0  0  0  0  0  0
  -21.7377  -17.4759   17.9531 C   0  0  0  0  0  0  0  0  0  0  0  0
  -20.4767  -19.6376   17.8832 C   0  0  0  0  0  0  0  0  0  0  0  0
  -20.3605  -18.1931   19.9136 C   0  0  0  0  0  0  0  0  0  0  0  0
  -23.9206  -22.5410   22.4947 C   0  0  0  0  0  0  0  0  0  0  0  0
  -29.4206  -19.0625   14.5100 C   0  0  0  0  0  0  0  0  0  0  0  0
  -32.7611  -25.6386   14.0869 C   0  0  0  0  0  0  0  0  0  0  0  0
  -33.4885  -24.3307   14.3369 C   0  0  0  0  0  0  0  0  0  0  0  0
  -22.4883  -19.4653   19.4177 C   0  0  1  0  0  0  0  0  0  0  0  0
  -21.9849  -22.8931   20.9560 C   0  0  2  0  0  0  0  0  0  0  0  0
  -30.2210  -19.7304   15.6348 C   0  0  2  0  0  0  0  0  0  1  0  0
  -30.2435  -18.1144   13.6130 C   0  0  0  0  0  0  0  0  0  0  0  0
  -21.2941  -18.6927   18.7896 C   0  0  0  0  0  0  0  0  0  0  0  0
  -28.5115  -26.8491   20.1041 N   0  0  0  0  0  0  0  0  0  0  0  0
  -29.2555  -25.9911   19.3855 N   0  0  0  0  0  0  0  0  0  0  0  0
  -24.6878  -18.4512   19.9253 N   0  0  0  0  0  0  0  0  0  0  0  0
  -32.0917  -27.4422   17.2739 N   0  0  0  0  0  0  0  0  0  0  0  0
  -29.2215  -23.8485   18.3761 N   0  0  0  0  0  0  0  0  0  0  0  0
  -25.4327  -23.9535   18.5423 N   0  0  0  0  0  0  0  0  0  0  0  0
  -25.5598  -15.0421   20.5150 N   0  0  0  0  0  0  0  0  0  0  0  0
  -22.0965  -20.6067   20.2375 N   0  0  0  0  0  0  0  0  0  0  0  0
  -32.1458  -26.1612   15.2865 N   0  0  0  0  0  0  0  0  0  0  0  0
  -32.5107  -23.2844   14.7962 N   0  3  0  0  0  0  0  0  0  0  0  0
  -23.0950  -23.5133   21.7332 N   0  3  0  0  0  0  0  0  0  0  0  0
  -26.2271  -23.0377   20.4889 O   0  0  0  0  0  0  0  0  0  0  0  0
  -25.4121  -16.3003   18.5611 O   0  0  0  0  0  0  0  0  0  0  0  0
  -22.8379  -18.0451   21.2852 O   0  0  0  0  0  0  0  0  0  0  0  0
  -23.2762  -22.2003   19.0350 O   0  0  0  0  0  0  0  0  0  0  0  0
  -33.9764  -27.3857   15.9239 O   0  0  0  0  0  0  0  0  0  0  0  0
  -23.1659  -28.5294   23.1296 O   0  0  0  0  0  0  0  0  0  0  0  0
  -29.3395  -20.5138   16.4381 O   0  0  0  0  0  0  0  0  0  1  0  0
  -18.1602  -26.2701   22.6373 F   0  0  0  0  0  0  0  0  0  0  0  0
  -21.0373  -29.9973   22.1515 F   0  0  0  0  0  0  0  0  0  0  0  0
  1  2  1  0  0  0  0
  1  5  2  0  0  0  0
  2  6  2  0  0  0  0
  3  8  2  0  0  0  0
  3 15  1  0  0  0  0
  4  9  1  0  0  0  0
  4 15  2  0  0  0  0
  5 17  1  0  0  0  0
  6 19  1  0  0  0  0
  7 10  2  0  0  0  0
  7 18  1  0  0  0  0
  8 21  1  0  0  0  0
  9 21  2  0  0  0  0
 10 22  1  0  0  0  0
 11 12  2  0  0  0  0
 11 23  1  0  0  0  0
 12 24  1  0  0  0  0
 13 20  1  0  0  0  0
 13 22  2  0  0  0  0
 14 24  2  0  0  0  0
 14 25  1  0  0  0  0
 15 26  1  0  0  0  0
 16 26  1  0  0  0  0
 16 27  2  0  0  0  0
 16 28  1  0  0  0  0
 17 19  2  0  0  0  0
 17 33  1  0  0  0  0
 18 20  2  0  0  0  0
 18 34  1  0  0  0  0
 19 46  1  0  0  0  0
 20 35  1  0  0  0  0
 21 81  1  0  0  0  0
 22 82  1  0  0  0  0
 23 25  2  0  0  0  0
 23 81  1  0  0  0  0
 24 83  1  0  0  0  0
 25 84  1  0  0  0  0
 26 65  2  0  0  0  0
 27 66  1  0  0  0  0
 27 69  1  0  0  0  0
 28 70  1  0  0  0  0
 28 76  2  0  0  0  0
 29 47  1  0  0  0  0
 29 71  1  0  0  0  0
 29 77  2  0  0  0  0
 30 60  1  0  0  0  0
 30 67  1  0  0  0  0
 30 78  2  0  0  0  0
 31 61  1  0  0  0  0
 31 72  1  0  0  0  0
 31 79  2  0  0  0  0
 32 68  1  0  0  0  0
 32 73  1  0  0  0  0
 32 80  2  0  0  0  0
 33 36  1  0  0  0  0
 34 47  1  0  0  0  0
 35 67  1  0  0  0  0
 36 38  1  0  0  0  0
 37 39  1  0  0  0  0
 37 42  1  0  0  0  0
 38 46  1  0  0  0  0
 39 49  1  0  0  0  0
 40 44  1  0  0  0  0
 40 48  1  0  0  0  0
 41 45  1  0  0  0  0
 41 48  1  0  0  0  0
 42 68  1  0  0  0  0
 43 49  1  0  0  0  0
 43 68  1  0  0  0  0
 44 74  1  0  0  0  0
 45 74  1  0  0  0  0
 46 71  1  0  0  0  0
 47 67  1  0  0  0  0
 48 62  1  0  0  0  0
 49 66  1  0  0  0  0
 50 61  1  0  0  0  0
 51 63  1  0  0  0  0
 52 63  1  0  0  0  0
 53 64  1  0  0  0  0
 54 64  1  0  0  0  0
 55 64  1  0  0  0  0
 56 75  1  0  0  0  0
 57 62  1  0  0  0  0
 57 63  1  0  0  0  0
 58 59  1  0  0  0  0
 58 73  1  0  0  0  0
 59 74  1  0  0  0  0
 60 64  1  0  0  0  0
 60 72  1  0  0  0  0
 61 75  1  0  0  0  0
 62 82  1  0  0  0  0
 65 66  1  0  0  0  0
M  CHG  2  74   1  75   1
M  ISO  4  32 100  62 101  73 100  82 101
M  END
> <Batch ID>
0108

> <Smiles>
CNC(C)C(=O)NC(C(=O)N1Cc2cc([101O:1][101CH:1](CC(C)C)C3CCN(CC[100NH:0][100C:0](=O)N4CCCC(n5nc(-c6ccc(Oc7ccc(F)cc7F)cc6)c(C(N)=O)c5N)C4)CC3)ccc2CC1C(=O)NC1CCCc2ccccc21)C(C)(C)C

> <Shape>
0.173

> <Color>
0.079

> <Negative vol penalty>
0.000

$$$$

  -OEChem-04052319533D

 86 94  0     1  0  0  0  0  0999 V2000
  -16.6747  -29.1147   24.0950 C   0  0  0  0  0  0  0  0  0  0  0  0
  -17.0828  -28.5194   22.9057 C   0  0  0  0  0  0  0  0  0  0  0  0
  -27.4675  -17.2116   22.5207 C   0  0  0  0  0  0  0  0  0  0  0  0
  -28.6557  -15.9416   20.8437 C   0  0  0  0  0  0  0  0  0  0  0  0
  -17.4494  -30.1204   24.6715 C   0  0  0  0  0  0  0  0  0  0  0  0
  -18.2654  -28.9303   22.2916 C   0  0  0  0  0  0  0  0  0  0  0  0
  -22.1913  -25.4323   19.1519 C   0  0  0  0  0  0  0  0  0  0  0  0
  -26.7786  -16.0609   22.9041 C   0  0  0  0  0  0  0  0  0  0  0  0
  -27.9669  -14.7909   21.2271 C   0  0  0  0  0  0  0  0  0  0  0  0
  -22.3680  -25.2141   17.7863 C   0  0  0  0  0  0  0  0  0  0  0  0
  -24.9093  -13.4360   20.7309 C   0  0  0  0  0  0  0  0  0  0  0  0
  -24.3910  -12.6245   19.7218 C   0  0  0  0  0  0  0  0  0  0  0  0
  -24.1095  -26.8830   17.7512 C   0  0  0  0  0  0  0  0  0  0  0  0
  -25.7409  -10.7823   20.5099 C   0  0  0  0  0  0  0  0  0  0  0  0
  -28.4060  -17.1520   21.4904 C   0  0  0  0  0  0  0  0  0  0  0  0
  -30.3420  -18.8091   21.6060 C   0  0  0  0  0  0  0  0  0  0  0  0
  -18.6471  -30.5370   24.0693 C   0  0  0  0  0  0  0  0  0  0  0  0
  -22.9662  -26.3868   19.8264 C   0  0  0  0  0  0  0  0  0  0  0  0
  -19.0562  -29.9434   22.8599 C   0  0  0  0  0  0  0  0  0  0  0  0
  -23.9424  -27.1096   19.1259 C   0  0  0  0  0  0  0  0  0  0  0  0
  -27.0283  -14.8506   22.2573 C   0  0  0  0  0  0  0  0  0  0  0  0
  -23.3252  -25.9416   17.0851 C   0  0  0  0  0  0  0  0  0  0  0  0
  -25.8435  -12.9207   21.6295 C   0  0  0  0  0  0  0  0  0  0  0  0
  -24.8068  -11.2976   19.6113 C   0  0  0  0  0  0  0  0  0  0  0  0
  -26.2593  -11.5939   21.5190 C   0  0  0  0  0  0  0  0  0  0  0  0
  -29.1175  -18.3404   21.0936 C   0  0  0  0  0  0  0  0  0  0  0  0
  -30.5882  -19.9640   20.9046 C   0  0  0  0  0  0  0  0  0  0  0  0
  -31.1819  -18.2504   22.6249 C   0  0  0  0  0  0  0  0  0  0  0  0
  -22.3408  -29.0713   21.4095 C   0  0  0  0  0  0  0  0  0  0  0  0
  -30.8332  -21.7915   12.5564 C   0  0  0  0  0  0  0  0  0  0  0  0
  -25.5098  -28.9478   22.0912 C   0  0  0  0  0  0  0  0  0  0  0  0
  -28.6168  -27.8283   21.2311 C   0  0  0  0  0  0  0  0  0  0  0  0
  -30.4540  -22.3530   15.6843 C   0  0  0  0  0  0  0  0  0  0  0  0
  -19.4267  -31.6607   24.7050 C   0  0  0  0  0  0  0  0  0  0  0  0
  -22.7817  -26.5912   21.3051 C   0  0  0  0  0  0  0  0  0  0  0  0
  -24.8140  -28.1314   19.8076 C   0  0  0  0  0  0  0  0  0  0  0  0
  -20.8581  -31.7778   24.1876 C   0  0  0  0  0  0  0  0  0  0  0  0
  -27.3098  -21.1686   17.4637 C   0  0  0  0  0  0  0  0  0  0  0  0
  -20.8837  -31.6949   22.6647 C   0  0  0  0  0  0  0  0  0  0  0  0
  -30.2456  -24.2320   12.4701 C   0  0  0  0  0  0  0  0  0  0  0  0
  -28.7445  -24.1833   12.1807 C   0  0  0  0  0  0  0  0  0  0  0  0
  -27.8321  -21.5975   18.8330 C   0  0  0  0  0  0  0  0  0  0  0  0
  -28.1641  -21.7339   16.3301 C   0  0  0  0  0  0  0  0  0  0  0  0
  -28.4297  -22.7626   14.2279 C   0  0  0  0  0  0  0  0  0  0  0  0
  -30.0359  -20.9038   17.7232 C   0  0  0  0  0  0  0  0  0  0  0  0
  -20.3455  -30.3445   22.1766 C   0  0  1  0  0  0  0  0  0  0  0  0
  -23.2719  -27.9536   21.7857 C   0  0  1  0  0  0  0  0  0  0  0  0
  -30.7363  -23.0713   13.3368 C   0  0  1  0  0  0  0  0  0  0  0  0
  -27.9334  -23.9945   13.4674 C   0  0  2  0  0  0  0  0  0  0  0  0
  -29.3188  -21.2312   19.0446 C   0  0  2  0  0  0  0  0  0  0  0  0
  -31.0161  -27.9216   21.9606 C   0  0  0  0  0  0  0  0  0  0  0  0
  -33.3406  -20.8350   10.0377 C   0  0  0  0  0  0  0  0  0  0  0  0
  -30.8878  -20.7645    9.4681 C   0  0  0  0  0  0  0  0  0  0  0  0
  -25.7261  -31.7918   21.0075 C   0  0  0  0  0  0  0  0  0  0  0  0
  -28.2063  -31.4775   20.8733 C   0  0  0  0  0  0  0  0  0  0  0  0
  -27.0541  -31.3624   23.0827 C   0  0  0  0  0  0  0  0  0  0  0  0
  -28.7394  -24.8944   21.6006 C   0  0  0  0  0  0  0  0  0  0  0  0
  -26.4436  -23.8703   13.1559 C   0  0  0  0  0  0  0  0  0  0  0  0
  -25.5928  -24.2102   14.3767 C   0  0  0  0  0  0  0  0  0  0  0  0
  -24.0998  -24.1213   14.0477 C   0  0  0  0  0  0  0  0  0  0  0  0
  -23.2238  -24.4235   15.2573 C   0  0  0  0  0  0  0  0  0  1  0  0
  -26.7657  -29.4673   21.4342 C   0  0  1  0  0  0  0  0  0  0  0  0
  -29.7059  -27.1542   22.0459 C   0  0  2  0  0  0  0  0  0  0  0  0
  -31.9230  -20.7420   10.5832 C   0  0  0  0  0  0  0  0  0  0  0  0
  -26.9205  -31.0070   21.5859 C   0  0  0  0  0  0  0  0  0  0  0  0
  -28.6202  -19.1330   20.1403 N   0  0  0  0  0  0  0  0  0  0  0  0
  -29.5369  -20.1114   20.0483 N   0  0  0  0  0  0  0  0  0  0  0  0
  -24.5914  -28.2996   21.2532 N   0  0  0  0  0  0  0  0  0  0  0  0
  -29.5933  -21.7882   16.6406 N   0  0  0  0  0  0  0  0  0  0  0  0
  -29.8735  -22.8369   14.4988 N   0  0  0  0  0  0  0  0  0  0  0  0
  -31.5992  -20.8578   20.9430 N   0  0  0  0  0  0  0  0  0  0  0  0
  -30.7795  -17.0588   23.2433 N   0  0  0  0  0  0  0  0  0  0  0  0
  -21.3472  -29.3127   22.3389 N   0  0  0  0  0  0  0  0  0  0  0  0
  -31.6820  -21.8590   11.4681 N   0  0  0  0  0  0  0  0  0  0  0  0
  -27.8695  -28.6974   21.9975 N   0  0  0  0  0  0  0  0  0  0  0  0
  -29.9400  -25.7680   21.5513 N   0  3  0  0  0  0  0  0  0  0  0  0
  -32.2492  -18.8005   22.9880 O   0  0  0  0  0  0  0  0  0  0  0  0
  -22.5121  -29.6712   20.3548 O   0  0  0  0  0  0  0  0  0  0  0  0
  -30.1869  -20.8143   12.9157 O   0  0  0  0  0  0  0  0  0  0  0  0
  -25.3527  -29.1047   23.3046 O   0  0  0  0  0  0  0  0  0  0  0  0
  -28.4484  -27.6087   20.0336 O   0  0  0  0  0  0  0  0  0  0  0  0
  -31.6734  -22.4294   15.8845 O   0  0  0  0  0  0  0  0  0  0  0  0
  -26.3565  -13.7275   22.6313 O   0  0  0  0  0  0  0  0  0  0  0  0
  -23.5006  -25.7295   15.7419 O   0  0  0  0  0  0  0  0  0  1  0  0
  -24.3078  -10.5180   18.6431 F   0  0  0  0  0  0  0  0  0  0  0  0
  -27.1556  -11.0929   22.3801 F   0  0  0  0  0  0  0  0  0  0  0  0
  1  2  1  0  0  0  0
  1  5  2  0  0  0  0
  2  6  2  0  0  0  0
  3  8  2  0  0  0  0
  3 15  1  0  0  0  0
  4  9  1  0  0  0  0
  4 15  2  0  0  0  0
  5 17  1  0  0  0  0
  6 19  1  0  0  0  0
  7 10  2  0  0  0  0
  7 18  1  0  0  0  0
  8 21  1  0  0  0  0
  9 21  2  0  0  0  0
 10 22  1  0  0  0  0
 11 12  2  0  0  0  0
 11 23  1  0  0  0  0
 12 24  1  0  0  0  0
 13 20  1  0  0  0  0
 13 22  2  0  0  0  0
 14 24  2  0  0  0  0
 14 25  1  0  0  0  0
 15 26  1  0  0  0  0
 16 26  1  0  0  0  0
 16 27  2  0  0  0  0
 16 28  1  0  0  0  0
 17 19  2  0  0  0  0
 17 34  1  0  0  0  0
 18 20  2  0  0  0  0
 18 35  1  0  0  0  0
 19 46  1  0  0  0  0
 20 36  1  0  0  0  0
 21 83  1  0  0  0  0
 22 84  1  0  0  0  0
 23 25  2  0  0  0  0
 23 83  1  0  0  0  0
 24 85  1  0  0  0  0
 25 86  1  0  0  0  0
 26 66  2  0  0  0  0
 27 67  1  0  0  0  0
 27 71  1  0  0  0  0
 28 72  1  0  0  0  0
 28 77  2  0  0  0  0
 29 47  1  0  0  0  0
 29 73  1  0  0  0  0
 29 78  2  0  0  0  0
 30 48  1  0  0  0  0
 30 74  1  0  0  0  0
 30 79  2  0  0  0  0
 31 62  1  0  0  0  0
 31 68  1  0  0  0  0
 31 80  2  0  0  0  0
 32 63  1  0  0  0  0
 32 75  1  0  0  0  0
 32 81  2  0  0  0  0
 33 69  1  0  0  0  0
 33 70  1  0  0  0  0
 33 82  2  0  0  0  0
 34 37  1  0  0  0  0
 35 47  1  0  0  0  0
 36 68  1  0  0  0  0
 37 39  1  0  0  0  0
 38 42  1  0  0  0  0
 38 43  1  0  0  0  0
 39 46  1  0  0  0  0
 40 41  1  0  0  0  0
 40 48  1  0  0  0  0
 41 49  1  0  0  0  0
 42 50  1  0  0  0  0
 43 69  1  0  0  0  0
 44 49  1  0  0  0  0
 44 70  1  0  0  0  0
 45 50  1  0  0  0  0
 45 69  1  0  0  0  0
 46 73  1  0  0  0  0
 47 68  1  0  0  0  0
 48 70  1  0  0  0  0
 49 58  1  0  0  0  0
 50 67  1  0  0  0  0
 51 63  1  0  0  0  0
 52 64  1  0  0  0  0
 53 64  1  0  0  0  0
 54 65  1  0  0  0  0
 55 65  1  0  0  0  0
 56 65  1  0  0  0  0
 57 76  1  0  0  0  0
 58 59  1  0  0  0  0
 59 60  1  0  0  0  0
 60 61  1  0  0  0  0
 61 84  1  0  0  0  0
 62 65  1  0  0  0  0
 62 75  1  0  0  0  0
 63 76  1  0  0  0  0
 64 74  1  0  0  0  0
 66 67  1  0  0  0  0
M  CHG  1  76   1
M  ISO  4  33 100  61 101  70 100  84 101
M  END
> <Batch ID>
0108

> <Smiles>
CNC(C)C(=O)NC(C(=O)N1Cc2cc([101O:1][101CH2:1]CCCC3CCC(C(=O)NC(C)C)[100N:0]([100C:0](=O)N4CCCC(n5nc(-c6ccc(Oc7ccc(F)cc7F)cc6)c(C(N)=O)c5N)C4)C3)ccc2CC1C(=O)NC1CCCc2ccccc21)C(C)(C)C

> <Shape>
0.203

> <Color>
0.063

> <Negative vol penalty>
0.000

$$$$

  -OEChem-04052319533D

 84 92  0     1  0  0  0  0  0999 V2000
  -29.5227  -25.1471   17.1955 C   0  0  0  0  0  0  0  0  0  0  0  0
  -28.1552  -25.4023   17.2114 C   0  0  0  0  0  0  0  0  0  0  0  0
  -26.5249  -17.7526   22.3338 C   0  0  0  0  0  0  0  0  0  0  0  0
  -24.4317  -18.5495   21.4279 C   0  0  0  0  0  0  0  0  0  0  0  0
  -30.2920  -25.4043   18.3295 C   0  0  0  0  0  0  0  0  0  0  0  0
  -27.5560  -25.9140   18.3619 C   0  0  0  0  0  0  0  0  0  0  0  0
  -22.8681  -29.8453   18.6339 C   0  0  0  0  0  0  0  0  0  0  0  0
  -26.4011  -16.5801   21.5885 C   0  0  0  0  0  0  0  0  0  0  0  0
  -24.3078  -17.3769   20.6826 C   0  0  0  0  0  0  0  0  0  0  0  0
  -21.5008  -29.6621   18.8359 C   0  0  0  0  0  0  0  0  0  0  0  0
  -24.6917  -13.6710   21.7884 C   0  0  0  0  0  0  0  0  0  0  0  0
  -24.9609  -12.4633   22.4322 C   0  0  0  0  0  0  0  0  0  0  0  0
  -21.7915  -30.1285   21.1848 C   0  0  0  0  0  0  0  0  0  0  0  0
  -26.7257  -12.0107   20.8454 C   0  0  0  0  0  0  0  0  0  0  0  0
  -19.9210  -25.0878   23.0191 C   0  0  0  0  0  0  0  0  0  0  0  0
  -25.5402  -18.7373   22.2535 C   0  0  0  0  0  0  0  0  0  0  0  0
  -26.7060  -20.8960   22.9525 C   0  0  0  0  0  0  0  0  0  0  0  0
  -29.7036  -25.9285   19.4912 C   0  0  0  0  0  0  0  0  0  0  0  0
  -23.7104  -30.1613   19.7095 C   0  0  0  0  0  0  0  0  0  0  0  0
  -28.3179  -26.1773   19.5130 C   0  0  0  0  0  0  0  0  0  0  0  0
  -23.1687  -30.3177   20.9933 C   0  0  0  0  0  0  0  0  0  0  0  0
  -25.2926  -16.3922   20.7629 C   0  0  0  0  0  0  0  0  0  0  0  0
  -20.9628  -29.8009   20.1120 C   0  0  0  0  0  0  0  0  0  0  0  0
  -25.4395  -14.0486   20.6730 C   0  0  0  0  0  0  0  0  0  0  0  0
  -25.9779  -11.6332   21.9608 C   0  0  0  0  0  0  0  0  0  0  0  0
  -26.4564  -13.2185   20.2016 C   0  0  0  0  0  0  0  0  0  0  0  0
  -25.6672  -19.9485   23.0236 C   0  0  0  0  0  0  0  0  0  0  0  0
  -18.3461  -26.7143   23.3408 C   0  0  0  0  0  0  0  0  0  0  0  0
  -18.4325  -26.5288   24.7030 C   0  0  0  0  0  0  0  0  0  0  0  0
  -20.0081  -24.9027   24.3813 C   0  0  0  0  0  0  0  0  0  0  0  0
  -26.3630  -21.8515   23.8776 C   0  0  0  0  0  0  0  0  0  0  0  0
  -27.8762  -20.9111   22.1243 C   0  0  0  0  0  0  0  0  0  0  0  0
  -26.1955  -28.7509   21.1019 C   0  0  0  0  0  0  0  0  0  0  0  0
  -26.3254  -31.5192   22.7878 C   0  0  0  0  0  0  0  0  0  0  0  0
  -24.6908  -34.2744   23.9641 C   0  0  0  0  0  0  0  0  0  0  0  0
  -21.1423  -23.5895   26.2076 C   0  0  0  0  0  0  0  0  0  0  0  0
  -30.5677  -26.1459   20.7080 C   0  0  0  0  0  0  0  0  0  0  0  0
  -25.1790  -30.3820   19.4703 C   0  0  0  0  0  0  0  0  0  0  0  0
  -24.0270  -30.6760   22.1779 C   0  0  0  0  0  0  0  0  0  0  0  0
  -29.9207  -27.0398   21.7628 C   0  0  0  0  0  0  0  0  0  0  0  0
  -23.9788  -22.3917   27.9956 C   0  0  0  0  0  0  0  0  0  0  0  0
  -28.4762  -26.6158   22.0086 C   0  0  0  0  0  0  0  0  0  0  0  0
  -24.8311  -21.7208   26.9160 C   0  0  0  0  0  0  0  0  0  0  0  0
  -22.4855  -22.1804   27.7520 C   0  0  0  0  0  0  0  0  0  0  0  0
  -22.8667  -21.8921   25.3353 C   0  0  0  0  0  0  0  0  0  0  0  0
  -27.6357  -26.7556   20.7337 C   0  0  1  0  0  0  0  0  0  0  0  0
  -26.0236  -30.1957   20.7270 C   0  0  1  0  0  0  0  0  0  0  0  0
  -24.3760  -22.1324   25.5021 C   0  0  2  0  0  0  0  0  0  0  0  0
  -16.0093  -27.1389   22.5350 C   0  0  0  0  0  0  0  0  0  0  0  0
  -18.4619  -28.1935   26.5955 C   0  0  0  0  0  0  0  0  0  0  0  0
  -16.6404  -26.4550   26.4741 C   0  0  0  0  0  0  0  0  0  0  0  0
  -24.3858  -36.5004   25.0817 C   0  0  0  0  0  0  0  0  0  0  0  0
  -26.2705  -29.8290   25.3275 C   0  0  0  0  0  0  0  0  0  0  0  0
  -25.6778  -31.8973   26.6078 C   0  0  0  0  0  0  0  0  0  0  0  0
  -27.8540  -31.7635   25.3958 C   0  0  0  0  0  0  0  0  0  0  0  0
  -25.2339  -35.7407   21.4514 C   0  0  0  0  0  0  0  0  0  0  0  0
  -17.9263  -28.3437   21.4208 C   0  0  0  0  0  0  0  0  0  0  0  0
  -19.2237  -29.1290   21.5885 C   0  0  0  0  0  0  0  0  0  1  0  0
  -17.4037  -27.7431   22.7401 C   0  0  2  0  0  0  0  0  0  0  0  0
  -17.6055  -27.3290   25.6504 C   0  0  0  0  0  0  0  0  0  0  0  0
  -25.7132  -32.0168   24.0749 C   0  0  1  0  0  0  0  0  0  0  0  0
  -25.0558  -35.7477   23.9427 C   0  0  2  0  0  0  0  0  0  0  0  0
  -26.3627  -31.3680   25.3297 C   0  0  0  0  0  0  0  0  0  0  0  0
  -19.0884  -25.9970   22.4744 N   0  0  0  0  0  0  0  0  0  0  0  0
  -24.7343  -20.2726   23.9228 N   0  0  0  0  0  0  0  0  0  0  0  0
  -19.2654  -25.6198   25.2477 N   0  0  0  0  0  0  0  0  0  0  0  0
  -25.1857  -21.4344   24.4254 N   0  0  0  0  0  0  0  0  0  0  0  0
  -25.4578  -30.8753   21.8941 N   0  0  0  0  0  0  0  0  0  0  0  0
  -22.1267  -22.5961   26.3944 N   0  0  0  0  0  0  0  0  0  0  0  0
  -26.9566  -22.9994   24.2678 N   0  0  0  0  0  0  0  0  0  0  0  0
  -27.8001  -21.5345   20.8714 N   0  0  0  0  0  0  0  0  0  0  0  0
  -20.9085  -23.9261   24.8748 N   0  0  0  0  0  0  0  0  0  0  0  0
  -27.2848  -28.1416   20.5090 N   0  0  0  0  0  0  0  0  0  0  0  0
  -25.8098  -33.4720   24.0370 N   0  0  0  0  0  0  0  0  0  0  0  0
  -24.6314  -36.3679   22.6558 N   0  3  0  0  0  0  0  0  0  0  0  0
  -28.9528  -20.3729   22.4778 O   0  0  0  0  0  0  0  0  0  0  0  0
  -25.3997  -28.2281   21.8733 O   0  0  0  0  0  0  0  0  0  0  0  0
  -27.5275  -31.7015   22.5797 O   0  0  0  0  0  0  0  0  0  0  0  0
  -23.5290  -33.8753   23.9242 O   0  0  0  0  0  0  0  0  0  0  0  0
  -20.5697  -24.1230   27.1613 O   0  0  0  0  0  0  0  0  0  0  0  0
  -25.1715  -15.2483   20.0354 O   0  0  0  0  0  0  0  0  0  0  0  0
  -19.6287  -29.6220   20.3121 O   0  0  0  0  0  0  0  0  0  1  0  0
  -26.2373  -10.4742   22.5801 F   0  0  0  0  0  0  0  0  0  0  0  0
  -27.1790  -13.5764   19.1312 F   0  0  0  0  0  0  0  0  0  0  0  0
  1  2  1  0  0  0  0
  1  5  2  0  0  0  0
  2  6  2  0  0  0  0
  3  8  2  0  0  0  0
  3 16  1  0  0  0  0
  4  9  1  0  0  0  0
  4 16  2  0  0  0  0
  5 18  1  0  0  0  0
  6 20  1  0  0  0  0
  7 10  2  0  0  0  0
  7 19  1  0  0  0  0
  8 22  1  0  0  0  0
  9 22  2  0  0  0  0
 10 23  1  0  0  0  0
 11 12  2  0  0  0  0
 11 24  1  0  0  0  0
 12 25  1  0  0  0  0
 13 21  1  0  0  0  0
 13 23  2  0  0  0  0
 14 25  2  0  0  0  0
 14 26  1  0  0  0  0
 15 30  1  0  0  0  0
 15 64  2  0  0  0  0
 16 27  1  0  0  0  0
 17 27  1  0  0  0  0
 17 31  2  0  0  0  0
 17 32  1  0  0  0  0
 18 20  2  0  0  0  0
 18 37  1  0  0  0  0
 19 21  2  0  0  0  0
 19 38  1  0  0  0  0
 20 46  1  0  0  0  0
 21 39  1  0  0  0  0
 22 81  1  0  0  0  0
 23 82  1  0  0  0  0
 24 26  2  0  0  0  0
 24 81  1  0  0  0  0
 25 83  1  0  0  0  0
 26 84  1  0  0  0  0
 27 65  2  0  0  0  0
 28 29  2  0  0  0  0
 28 59  1  0  0  0  0
 28 64  1  0  0  0  0
 29 60  1  0  0  0  0
 29 66  1  0  0  0  0
 30 66  2  0  0  0  0
 30 72  1  0  0  0  0
 31 67  1  0  0  0  0
 31 70  1  0  0  0  0
 32 71  1  0  0  0  0
 32 76  2  0  0  0  0
 33 47  1  0  0  0  0
 33 73  1  0  0  0  0
 33 77  2  0  0  0  0
 34 61  1  0  0  0  0
 34 68  1  0  0  0  0
 34 78  2  0  0  0  0
 35 62  1  0  0  0  0
 35 74  1  0  0  0  0
 35 79  2  0  0  0  0
 36 69  1  0  0  0  0
 36 72  1  0  0  0  0
 36 80  2  0  0  0  0
 37 40  1  0  0  0  0
 38 47  1  0  0  0  0
 39 68  1  0  0  0  0
 40 42  1  0  0  0  0
 41 43  1  0  0  0  0
 41 44  1  0  0  0  0
 42 46  1  0  0  0  0
 43 48  1  0  0  0  0
 44 69  1  0  0  0  0
 45 48  1  0  0  0  0
 45 69  1  0  0  0  0
 46 73  1  0  0  0  0
 47 68  1  0  0  0  0
 48 67  1  0  0  0  0
 49 59  1  0  0  0  0
 50 60  1  0  0  0  0
 51 60  1  0  0  0  0
 52 62  1  0  0  0  0
 53 63  1  0  0  0  0
 54 63  1  0  0  0  0
 55 63  1  0  0  0  0
 56 75  1  0  0  0  0
 57 58  1  0  0  0  0
 57 59  1  0  0  0  0
 58 82  1  0  0  0  0
 61 63  1  0  0  0  0
 61 74  1  0  0  0  0
 62 75  1  0  0  0  0
 65 67  1  0  0  0  0
M  CHG  1  75   1
M  ISO  4  36 100  58 101  72 100  82 101
M  END
> <Batch ID>
0108

> <Smiles>
CNC(C)C(=O)NC(C(=O)N1Cc2cc([101O:1][101CH2:1]CC(C)c3ncc([100NH:0][100C:0](=O)N4CCCC(n5nc(-c6ccc(Oc7ccc(F)cc7F)cc6)c(C(N)=O)c5N)C4)nc3C(C)C)ccc2CC1C(=O)NC1CCCc2ccccc21)C(C)(C)C

> <Shape>
0.267

> <Color>
0.072

> <Negative vol penalty>
0.000

$$$$

  -OEChem-04052319533D

 90 98  0     1  0  0  0  0  0999 V2000
  -17.4654  -25.6932   20.6888 C   0  0  0  0  0  0  0  0  0  0  0  0
  -18.5032  -26.3586   20.0441 C   0  0  0  0  0  0  0  0  0  0  0  0
  -25.6946  -14.6191   20.8561 C   0  0  0  0  0  0  0  0  0  0  0  0
  -25.9038  -14.6198   18.4492 C   0  0  0  0  0  0  0  0  0  0  0  0
  -17.4355  -25.6340   22.0815 C   0  0  0  0  0  0  0  0  0  0  0  0
  -19.5112  -26.9662   20.7919 C   0  0  0  0  0  0  0  0  0  0  0  0
  -25.4318  -27.4327   19.2969 C   0  0  0  0  0  0  0  0  0  0  0  0
  -24.6990  -13.6461   20.7693 C   0  0  0  0  0  0  0  0  0  0  0  0
  -24.9081  -13.6468   18.3624 C   0  0  0  0  0  0  0  0  0  0  0  0
  -26.1780  -28.4662   18.7322 C   0  0  0  0  0  0  0  0  0  0  0  0
  -24.5180  -10.3021   20.3028 C   0  0  0  0  0  0  0  0  0  0  0  0
  -24.5878   -9.2228   21.1837 C   0  0  0  0  0  0  0  0  0  0  0  0
  -26.8668  -29.1648   20.9360 C   0  0  0  0  0  0  0  0  0  0  0  0
  -29.3190  -27.9870   18.3564 C   0  0  0  0  0  0  0  0  0  0  0  0
  -22.4267   -9.8185   22.0849 C   0  0  0  0  0  0  0  0  0  0  0  0
  -28.0898  -26.7258   16.2722 C   0  0  0  0  0  0  0  0  0  0  0  0
  -26.2970  -15.1060   19.6960 C   0  0  0  0  0  0  0  0  0  0  0  0
  -28.7119  -15.9011   19.9052 C   0  0  0  0  0  0  0  0  0  0  0  0
  -18.4488  -26.2329   22.8464 C   0  0  0  0  0  0  0  0  0  0  0  0
  -25.3886  -27.2639   20.6883 C   0  0  0  0  0  0  0  0  0  0  0  0
  -19.4941  -26.9162   22.1961 C   0  0  0  0  0  0  0  0  0  0  0  0
  -26.1213  -28.1268   21.5157 C   0  0  0  0  0  0  0  0  0  0  0  0
  -29.5614  -26.6353   18.1384 C   0  0  0  0  0  0  0  0  0  0  0  0
  -28.9390  -25.9853   17.0785 C   0  0  0  0  0  0  0  0  0  0  0  0
  -24.3057  -13.1599   19.5225 C   0  0  0  0  0  0  0  0  0  0  0  0
  -26.8933  -29.3342   19.5519 C   0  0  0  0  0  0  0  0  0  0  0  0
  -23.4026  -11.1397   20.3131 C   0  0  0  0  0  0  0  0  0  0  0  0
  -23.5422   -8.9810   22.0747 C   0  0  0  0  0  0  0  0  0  0  0  0
  -22.3570  -10.8978   21.2041 C   0  0  0  0  0  0  0  0  0  0  0  0
  -27.3252  -16.1115   19.7850 C   0  0  0  0  0  0  0  0  0  0  0  0
  -28.4529  -28.6380   17.4928 C   0  0  0  0  0  0  0  0  0  0  0  0
  -29.2482  -17.1647   19.9513 C   0  0  0  0  0  0  0  0  0  0  0  0
  -29.4493  -14.6732   19.9693 C   0  0  0  0  0  0  0  0  0  0  0  0
  -23.0969  -27.3556   22.8890 C   0  0  0  0  0  0  0  0  0  0  0  0
  -25.4833  -26.3733   24.8543 C   0  0  0  0  0  0  0  0  0  0  0  0
  -28.8333  -26.2019   25.4828 C   0  0  0  0  0  0  0  0  0  0  0  0
  -28.4757  -22.2987   17.6153 C   0  0  0  0  0  0  0  0  0  0  0  0
  -18.3485  -26.1832   24.3504 C   0  0  0  0  0  0  0  0  0  0  0  0
  -24.6004  -26.1278   21.2803 C   0  0  0  0  0  0  0  0  0  0  0  0
  -26.1244  -27.9760   23.0142 C   0  0  0  0  0  0  0  0  0  0  0  0
  -19.6545  -26.5315   25.0599 C   0  0  0  0  0  0  0  0  0  0  0  0
  -27.4937  -21.6582   21.0392 C   0  0  0  0  0  0  0  0  0  0  0  0
  -20.2754  -27.7844   24.4503 C   0  0  0  0  0  0  0  0  0  0  0  0
  -27.4868  -20.1288   21.0726 C   0  0  0  0  0  0  0  0  0  0  0  0
  -26.9827  -22.1842   19.7012 C   0  0  0  0  0  0  0  0  0  0  0  0
  -27.7093  -20.1328   18.5447 C   0  0  0  0  0  0  0  0  0  0  0  0
  -20.6190  -27.5665   22.9719 C   0  0  1  0  0  0  0  0  0  0  0  0
  -24.2150  -26.3635   22.7375 C   0  0  1  0  0  0  0  0  0  0  0  0
  -28.2364  -19.5386   19.8635 C   0  0  2  0  0  0  0  0  0  0  0  0
  -30.9519  -25.5388   26.6529 C   0  0  0  0  0  0  0  0  0  0  0  0
  -33.1640  -25.0096   17.3420 C   0  0  0  0  0  0  0  0  0  0  0  0
  -33.7705  -27.4269   17.5894 C   0  0  0  0  0  0  0  0  0  0  0  0
  -33.2329  -27.4323   21.7954 C   0  0  0  0  0  0  0  0  0  0  0  0
  -32.7740  -25.0364   22.4461 C   0  0  0  0  0  0  0  0  0  0  0  0
  -29.4517  -30.9488   17.6054 C   0  0  0  0  0  0  0  0  0  0  0  0
  -27.1196  -30.6281   16.6959 C   0  0  0  0  0  0  0  0  0  0  0  0
  -24.7927  -28.7301   26.6651 C   0  0  0  0  0  0  0  0  0  0  0  0
  -27.0043  -28.4190   27.7965 C   0  0  0  0  0  0  0  0  0  0  0  0
  -25.2993  -26.5997   27.8731 C   0  0  0  0  0  0  0  0  0  0  0  0
  -29.0599  -23.7073   23.9065 C   0  0  0  0  0  0  0  0  0  0  0  0
  -30.4900  -25.9050   19.0510 C   0  0  0  0  0  0  0  0  0  0  0  0
  -29.1626  -24.5394   16.8001 C   0  0  0  0  0  0  0  0  0  0  0  0
  -26.5185  -27.0654   25.7078 C   0  0  1  0  0  0  0  0  0  0  0  0
  -29.7203  -25.0461   25.9091 C   0  0  2  0  0  0  0  0  0  0  0  0
  -32.6361  -26.4017   17.7024 C   0  0  0  0  0  0  0  0  0  0  0  0
  -32.4248  -26.1778   21.5046 C   0  0  0  0  0  0  0  0  0  0  0  0
  -31.9246  -26.4765   19.0758 C   0  0  2  0  0  0  0  0  0  0  0  0
  -28.1625  -30.1222   17.7015 C   0  0  0  0  0  0  0  0  0  1  0  0
  -25.9023  -27.7078   26.9825 C   0  0  0  0  0  0  0  0  0  0  0  0
  -27.8298  -28.0402   16.4526 N   0  0  0  0  0  0  0  0  0  0  0  0
  -27.0008  -17.4069   19.7567 N   0  0  0  0  0  0  0  0  0  0  0  0
  -28.1913  -18.0218   19.8598 N   0  0  0  0  0  0  0  0  0  0  0  0
  -25.3333  -26.8538   23.5457 N   0  0  0  0  0  0  0  0  0  0  0  0
  -27.7500  -21.5981   18.5931 N   0  0  0  0  0  0  0  0  0  0  0  0
  -30.5161  -17.6151   20.0609 N   0  0  0  0  0  0  0  0  0  0  0  0
  -28.7418  -13.4649   19.9082 N   0  0  0  0  0  0  0  0  0  0  0  0
  -21.8356  -26.7929   22.8444 N   0  0  0  0  0  0  0  0  0  0  0  0
  -27.5532  -26.0734   25.9791 N   0  0  0  0  0  0  0  0  0  0  0  0
  -28.4578  -23.6835   17.7284 N   0  0  0  0  0  0  0  0  0  0  0  0
  -30.1693  -24.2710   24.7181 N   0  3  0  0  0  0  0  0  0  0  0  0
  -32.7114  -25.7454   20.1141 N   0  3  0  0  0  0  0  0  0  0  0  0
  -30.6973  -14.6482   20.0941 O   0  0  0  0  0  0  0  0  0  0  0  0
  -23.3590  -28.5435   23.0370 O   0  0  0  0  0  0  0  0  0  0  0  0
  -24.8366  -25.4362   25.3289 O   0  0  0  0  0  0  0  0  0  0  0  0
  -29.2366  -27.1281   24.7828 O   0  0  0  0  0  0  0  0  0  0  0  0
  -29.0984  -21.7318   16.7110 O   0  0  0  0  0  0  0  0  0  0  0  0
  -23.3344  -12.2103   19.4374 O   0  0  0  0  0  0  0  0  0  0  0  0
  -27.6220  -30.3441   19.0034 O   0  0  0  0  0  0  0  0  0  1  0  0
  -23.6087   -7.9436   22.9194 F   0  0  0  0  0  0  0  0  0  0  0  0
  -21.2823  -11.6983   21.2177 F   0  0  0  0  0  0  0  0  0  0  0  0
  1  2  1  0  0  0  0
  1  5  2  0  0  0  0
  2  6  2  0  0  0  0
  3  8  2  0  0  0  0
  3 17  1  0  0  0  0
  4  9  1  0  0  0  0
  4 17  2  0  0  0  0
  5 19  1  0  0  0  0
  6 21  1  0  0  0  0
  7 10  2  0  0  0  0
  7 20  1  0  0  0  0
  8 25  1  0  0  0  0
  9 25  2  0  0  0  0
 10 26  1  0  0  0  0
 11 12  2  0  0  0  0
 11 27  1  0  0  0  0
 12 28  1  0  0  0  0
 13 22  1  0  0  0  0
 13 26  2  0  0  0  0
 14 23  2  0  0  0  0
 14 31  1  0  0  0  0
 15 28  2  0  0  0  0
 15 29  1  0  0  0  0
 16 24  2  0  0  0  0
 16 70  1  0  0  0  0
 17 30  1  0  0  0  0
 18 30  1  0  0  0  0
 18 32  2  0  0  0  0
 18 33  1  0  0  0  0
 19 21  2  0  0  0  0
 19 38  1  0  0  0  0
 20 22  2  0  0  0  0
 20 39  1  0  0  0  0
 21 47  1  0  0  0  0
 22 40  1  0  0  0  0
 23 24  1  0  0  0  0
 23 61  1  0  0  0  0
 24 62  1  0  0  0  0
 25 87  1  0  0  0  0
 26 88  1  0  0  0  0
 27 29  2  0  0  0  0
 27 87  1  0  0  0  0
 28 89  1  0  0  0  0
 29 90  1  0  0  0  0
 30 71  2  0  0  0  0
 31 68  1  0  0  0  0
 31 70  2  0  0  0  0
 32 72  1  0  0  0  0
 32 75  1  0  0  0  0
 33 76  1  0  0  0  0
 33 82  2  0  0  0  0
 34 48  1  0  0  0  0
 34 77  1  0  0  0  0
 34 83  2  0  0  0  0
 35 63  1  0  0  0  0
 35 73  1  0  0  0  0
 35 84  2  0  0  0  0
 36 64  1  0  0  0  0
 36 78  1  0  0  0  0
 36 85  2  0  0  0  0
 37 74  1  0  0  0  0
 37 79  1  0  0  0  0
 37 86  2  0  0  0  0
 38 41  1  0  0  0  0
 39 48  1  0  0  0  0
 40 73  1  0  0  0  0
 41 43  1  0  0  0  0
 42 44  1  0  0  0  0
 42 45  1  0  0  0  0
 43 47  1  0  0  0  0
 44 49  1  0  0  0  0
 45 74  1  0  0  0  0
 46 49  1  0  0  0  0
 46 74  1  0  0  0  0
 47 77  1  0  0  0  0
 48 73  1  0  0  0  0
 49 72  1  0  0  0  0
 50 64  1  0  0  0  0
 51 65  1  0  0  0  0
 52 65  1  0  0  0  0
 53 66  1  0  0  0  0
 54 66  1  0  0  0  0
 55 68  1  0  0  0  0
 56 68  1  0  0  0  0
 57 69  1  0  0  0  0
 58 69  1  0  0  0  0
 59 69  1  0  0  0  0
 60 80  1  0  0  0  0
 61 67  1  0  0  0  0
 62 79  1  0  0  0  0
 63 69  1  0  0  0  0
 63 78  1  0  0  0  0
 64 80  1  0  0  0  0
 65 67  1  0  0  0  0
 66 81  1  0  0  0  0
 67 81  1  0  0  0  0
 68 88  1  0  0  0  0
 71 72  1  0  0  0  0
M  CHG  2  80   1  81   1
M  ISO  4  37 100  68 101  79 100  88 101
M  END
> <Batch ID>
0108

> <Smiles>
CNC(C)C(=O)NC(C(=O)N1Cc2cc([101O:1][101C:1](C)(C)c3cc(CC(NC(C)C)C(C)C)c(C[100NH:0][100C:0](=O)N4CCCC(n5nc(-c6ccc(Oc7ccc(F)cc7F)cc6)c(C(N)=O)c5N)C4)cn3)ccc2CC1C(=O)NC1CCCc2ccccc21)C(C)(C)C

> <Shape>
0.221

> <Color>
0.068

> <Negative vol penalty>
0.000

$$$$

  -OEChem-04052319533D

 86 94  0     1  0  0  0  0  0999 V2000
  -27.2748  -23.0102   16.0966 C   0  0  0  0  0  0  0  0  0  0  0  0
  -27.8563  -21.8271   16.5412 C   0  0  0  0  0  0  0  0  0  0  0  0
  -24.4402  -28.5411   19.5234 C   0  0  0  0  0  0  0  0  0  0  0  0
  -24.3882  -27.0024   21.3853 C   0  0  0  0  0  0  0  0  0  0  0  0
  -26.3256  -23.6585   16.8856 C   0  0  0  0  0  0  0  0  0  0  0  0
  -27.4896  -21.2922   17.7756 C   0  0  0  0  0  0  0  0  0  0  0  0
  -26.6923  -16.2956   17.5683 C   0  0  0  0  0  0  0  0  0  0  0  0
  -31.6838  -13.2419   21.3824 C   0  0  0  0  0  0  0  0  0  0  0  0
  -23.0514  -28.4634   19.4203 C   0  0  0  0  0  0  0  0  0  0  0  0
  -22.9993  -26.9247   21.2823 C   0  0  0  0  0  0  0  0  0  0  0  0
  -27.8167  -15.4715   17.5533 C   0  0  0  0  0  0  0  0  0  0  0  0
  -19.4071  -26.6009   21.7403 C   0  0  0  0  0  0  0  0  0  0  0  0
  -18.6633  -26.6788   22.9176 C   0  0  0  0  0  0  0  0  0  0  0  0
  -30.7608  -13.0641   20.3577 C   0  0  0  0  0  0  0  0  0  0  0  0
  -27.5289  -15.0462   19.9104 C   0  0  0  0  0  0  0  0  0  0  0  0
  -19.5819  -28.8706   23.3529 C   0  0  0  0  0  0  0  0  0  0  0  0
  -25.1086  -27.8106   20.5059 C   0  0  0  0  0  0  0  0  0  0  0  0
  -27.2892  -28.8000   21.3856 C   0  0  0  0  0  0  0  0  0  0  0  0
  -25.9400  -23.1262   18.1260 C   0  0  0  0  0  0  0  0  0  0  0  0
  -25.9829  -16.5102   18.7588 C   0  0  0  0  0  0  0  0  0  0  0  0
  -26.5353  -21.9348   18.5826 C   0  0  0  0  0  0  0  0  0  0  0  0
  -26.3943  -15.8715   19.9372 C   0  0  0  0  0  0  0  0  0  0  0  0
  -32.0662  -14.5270   21.7508 C   0  0  0  0  0  0  0  0  0  0  0  0
  -22.3309  -27.6552   20.2997 C   0  0  0  0  0  0  0  0  0  0  0  0
  -28.2369  -14.8489   18.7251 C   0  0  0  0  0  0  0  0  0  0  0  0
  -20.2384  -27.6578   21.3692 C   0  0  0  0  0  0  0  0  0  0  0  0
  -18.7507  -27.8136   23.7239 C   0  0  0  0  0  0  0  0  0  0  0  0
  -20.3257  -28.7926   22.1755 C   0  0  0  0  0  0  0  0  0  0  0  0
  -26.5434  -27.8901   20.6125 C   0  0  0  0  0  0  0  0  0  0  0  0
  -31.5010  -15.5925   21.0688 C   0  0  0  0  0  0  0  0  0  0  0  0
  -30.2541  -14.1950   19.7379 C   0  0  0  0  0  0  0  0  0  1  0  0
  -28.5986  -28.4627   21.1445 C   0  0  0  0  0  0  0  0  0  0  0  0
  -26.8387  -29.8557   22.2448 C   0  0  0  0  0  0  0  0  0  0  0  0
  -25.3274  -19.0513   20.5523 C   0  0  0  0  0  0  0  0  0  0  0  0
  -23.4931  -16.9362   22.1905 C   0  0  0  0  0  0  0  0  0  0  0  0
  -30.6442  -20.4954   20.8320 C   0  0  0  0  0  0  0  0  0  0  0  0
  -22.8756  -13.6904   23.0452 C   0  0  0  0  0  0  0  0  0  0  0  0
  -31.2478  -23.3783   19.4176 C   0  0  0  0  0  0  0  0  0  0  0  0
  -24.9446  -23.8878   18.9650 C   0  0  0  0  0  0  0  0  0  0  0  0
  -24.7564  -17.3808   18.7525 C   0  0  0  0  0  0  0  0  0  0  0  0
  -25.6556  -16.0530   21.2371 C   0  0  0  0  0  0  0  0  0  0  0  0
  -24.3360  -23.0572   20.0919 C   0  0  0  0  0  0  0  0  0  0  0  0
  -31.4126  -26.5391   17.7870 C   0  0  0  0  0  0  0  0  0  0  0  0
  -25.4238  -22.2904   20.8373 C   0  0  0  0  0  0  0  0  0  0  0  0
  -30.2507  -27.3259   18.3960 C   0  0  0  0  0  0  0  0  0  0  0  0
  -31.0636  -25.0629   17.6108 C   0  0  0  0  0  0  0  0  0  0  0  0
  -29.4158  -25.1782   19.4397 C   0  0  0  0  0  0  0  0  0  0  0  0
  -26.1455  -21.3101   19.9047 C   0  0  1  0  0  0  0  0  0  0  0  0
  -24.4116  -17.9373   20.1305 C   0  0  1  0  0  0  0  0  0  0  0  0
  -29.7399  -26.6612   19.6885 C   0  0  2  0  0  0  0  0  0  0  0  0
  -33.0574  -14.7238   22.8454 C   0  0  0  0  0  0  0  0  0  0  0  0
  -33.1564  -17.4176   20.6634 C   0  0  0  0  0  0  0  0  0  0  0  0
  -21.3315  -12.2775   24.4297 C   0  0  0  0  0  0  0  0  0  0  0  0
  -29.4923  -17.7228   22.0374 C   0  0  0  0  0  0  0  0  0  0  0  0
  -24.9644  -17.8084   24.7173 C   0  0  0  0  0  0  0  0  0  0  0  0
  -24.0887  -15.7556   25.8519 C   0  0  0  0  0  0  0  0  0  0  0  0
  -22.5014  -17.4831   25.0040 C   0  0  0  0  0  0  0  0  0  0  0  0
  -21.9044  -12.2180   20.6688 C   0  0  0  0  0  0  0  0  0  0  0  0
  -31.3119  -21.7689   21.3056 C   0  0  0  0  0  0  0  0  0  0  0  0
  -31.8754  -16.9947   21.4215 C   0  0  1  0  0  0  0  0  0  0  0  0
  -23.7190  -16.0028   23.3553 C   0  0  1  0  0  0  0  0  0  0  0  0
  -21.5930  -12.8785   23.0574 C   0  0  2  0  0  0  0  0  0  0  0  0
  -30.7284  -18.0322   21.1911 C   0  0  2  0  0  0  0  0  0  0  0  0
  -23.8336  -16.7604   24.7082 C   0  0  0  0  0  0  0  0  0  0  0  0
  -27.3148  -27.0388   19.9312 N   0  0  0  0  0  0  0  0  0  0  0  0
  -30.6016  -15.4590   20.0683 N   0  0  0  0  0  0  0  0  0  0  0  0
  -28.5590  -27.4124   20.2753 N   0  0  0  0  0  0  0  0  0  0  0  0
  -24.4661  -16.9188   21.1812 N   0  0  0  0  0  0  0  0  0  0  0  0
  -30.5876  -24.4922   18.8731 N   0  0  0  0  0  0  0  0  0  0  0  0
  -29.7685  -28.9650   21.5932 N   0  0  0  0  0  0  0  0  0  0  0  0
  -25.4595  -30.0655   22.3787 N   0  0  0  0  0  0  0  0  0  0  0  0
  -25.3366  -20.1298   19.6884 N   0  0  0  0  0  0  0  0  0  0  0  0
  -22.6390  -15.0231   23.3087 N   0  0  0  0  0  0  0  0  0  0  0  0
  -31.1578  -19.3846   21.4819 N   0  0  0  0  0  0  0  0  0  0  0  0
  -30.7363  -22.9040   20.6193 N   0  0  0  0  0  0  0  0  0  0  0  0
  -21.6730  -11.7689   22.0658 N   0  3  0  0  0  0  0  0  0  0  0  0
  -27.6360  -30.6016   22.8624 O   0  0  0  0  0  0  0  0  0  0  0  0
  -25.9766  -18.9413   21.5859 O   0  0  0  0  0  0  0  0  0  0  0  0
  -22.4865  -17.6491   22.1733 O   0  0  0  0  0  0  0  0  0  0  0  0
  -29.7855  -20.4711   19.9540 O   0  0  0  0  0  0  0  0  0  0  0  0
  -23.9777  -13.1917   22.8278 O   0  0  0  0  0  0  0  0  0  0  0  0
  -32.2242  -22.8492   18.8757 O   0  0  0  0  0  0  0  0  0  0  0  0
  -20.9756  -27.5792   20.1996 O   0  0  0  0  0  0  0  0  0  0  0  0
  -29.3345  -14.0446   18.7134 O   0  0  0  0  0  0  0  0  0  1  0  0
  -18.0351  -27.8890   24.8538 F   0  0  0  0  0  0  0  0  0  0  0  0
  -21.1217  -29.8117   21.8236 F   0  0  0  0  0  0  0  0  0  0  0  0
  1  2  1  0  0  0  0
  1  5  2  0  0  0  0
  2  6  2  0  0  0  0
  3  9  2  0  0  0  0
  3 17  1  0  0  0  0
  4 10  1  0  0  0  0
  4 17  2  0  0  0  0
  5 19  1  0  0  0  0
  6 21  1  0  0  0  0
  7 11  2  0  0  0  0
  7 20  1  0  0  0  0
  8 14  2  0  0  0  0
  8 23  1  0  0  0  0
  9 24  1  0  0  0  0
 10 24  2  0  0  0  0
 11 25  1  0  0  0  0
 12 13  2  0  0  0  0
 12 26  1  0  0  0  0
 13 27  1  0  0  0  0
 14 31  1  0  0  0  0
 15 22  1  0  0  0  0
 15 25  2  0  0  0  0
 16 27  2  0  0  0  0
 16 28  1  0  0  0  0
 17 29  1  0  0  0  0
 18 29  1  0  0  0  0
 18 32  2  0  0  0  0
 18 33  1  0  0  0  0
 19 21  2  0  0  0  0
 19 39  1  0  0  0  0
 20 22  2  0  0  0  0
 20 40  1  0  0  0  0
 21 48  1  0  0  0  0
 22 41  1  0  0  0  0
 23 30  2  0  0  0  0
 23 51  1  0  0  0  0
 24 83  1  0  0  0  0
 25 84  1  0  0  0  0
 26 28  2  0  0  0  0
 26 83  1  0  0  0  0
 27 85  1  0  0  0  0
 28 86  1  0  0  0  0
 29 65  2  0  0  0  0
 30 60  1  0  0  0  0
 30 66  1  0  0  0  0
 31 66  2  0  0  0  0
 31 84  1  0  0  0  0
 32 67  1  0  0  0  0
 32 70  1  0  0  0  0
 33 71  1  0  0  0  0
 33 77  2  0  0  0  0
 34 49  1  0  0  0  0
 34 72  1  0  0  0  0
 34 78  2  0  0  0  0
 35 61  1  0  0  0  0
 35 68  1  0  0  0  0
 35 79  2  0  0  0  0
 36 59  1  0  0  0  0
 36 74  1  0  0  0  0
 36 80  2  0  0  0  0
 37 62  1  0  0  0  0
 37 73  1  0  0  0  0
 37 81  2  0  0  0  0
 38 69  1  0  0  0  0
 38 75  1  0  0  0  0
 38 82  2  0  0  0  0
 39 42  1  0  0  0  0
 40 49  1  0  0  0  0
 41 68  1  0  0  0  0
 42 44  1  0  0  0  0
 43 45  1  0  0  0  0
 43 46  1  0  0  0  0
 44 48  1  0  0  0  0
 45 50  1  0  0  0  0
 46 69  1  0  0  0  0
 47 50  1  0  0  0  0
 47 69  1  0  0  0  0
 48 72  1  0  0  0  0
 49 68  1  0  0  0  0
 50 67  1  0  0  0  0
 52 60  1  0  0  0  0
 53 62  1  0  0  0  0
 54 63  1  0  0  0  0
 55 64  1  0  0  0  0
 56 64  1  0  0  0  0
 57 64  1  0  0  0  0
 58 76  1  0  0  0  0
 59 75  1  0  0  0  0
 60 63  1  0  0  0  0
 61 64  1  0  0  0  0
 61 73  1  0  0  0  0
 62 76  1  0  0  0  0
 63 74  1  0  0  0  0
 65 67  1  0  0  0  0
M  CHG  1  76   1
M  ISO  4  31 101  38 100  75 100  84 101
M  END
> <Batch ID>
0108

> <Smiles>
CNC(C)C(=O)NC(C(=O)N1Cc2cc([101O:1][101c:1]3ccc(C)c(C(C)C(C)NC(=O)C[100NH:0][100C:0](=O)N4CCCC(n5nc(-c6ccc(Oc7ccc(F)cc7F)cc6)c(C(N)=O)c5N)C4)n3)ccc2CC1C(=O)NC1CCCc2ccccc21)C(C)(C)C

> <Shape>
0.231

> <Color>
0.046

> <Negative vol penalty>
0.000

$$$$

  -OEChem-04052319533D

 80 88  0     1  0  0  0  0  0999 V2000
  -23.5236  -17.9226   24.5878 C   0  0  0  0  0  0  0  0  0  0  0  0
  -24.0915  -18.7190   23.5985 C   0  0  0  0  0  0  0  0  0  0  0  0
  -25.8605  -15.4444   21.8437 C   0  0  0  0  0  0  0  0  0  0  0  0
  -25.5679  -16.5775   19.7301 C   0  0  0  0  0  0  0  0  0  0  0  0
  -22.2430  -18.2069   25.0601 C   0  0  0  0  0  0  0  0  0  0  0  0
  -23.3787  -19.7996   23.0803 C   0  0  0  0  0  0  0  0  0  0  0  0
  -26.2148  -23.9734   22.6550 C   0  0  0  0  0  0  0  0  0  0  0  0
  -24.5481  -14.9768   21.7748 C   0  0  0  0  0  0  0  0  0  0  0  0
  -24.2555  -16.1099   19.6611 C   0  0  0  0  0  0  0  0  0  0  0  0
  -27.0902  -24.0407   21.5720 C   0  0  0  0  0  0  0  0  0  0  0  0
  -21.3906  -13.1871   21.9797 C   0  0  0  0  0  0  0  0  0  0  0  0
  -21.1623  -11.8471   22.2923 C   0  0  0  0  0  0  0  0  0  0  0  0
  -31.5882  -27.0324   20.4170 C   0  0  0  0  0  0  0  0  0  0  0  0
  -30.5769  -27.5242   19.5576 C   0  0  0  0  0  0  0  0  0  0  0  0
  -25.5155  -25.4377   20.3938 C   0  0  0  0  0  0  0  0  0  0  0  0
  -22.6307  -11.1775   20.4944 C   0  0  0  0  0  0  0  0  0  0  0  0
  -26.3703  -16.2447   20.8214 C   0  0  0  0  0  0  0  0  0  0  0  0
  -28.8809  -16.0971   20.3937 C   0  0  0  0  0  0  0  0  0  0  0  0
  -21.5179  -19.2973   24.5543 C   0  0  0  0  0  0  0  0  0  0  0  0
  -24.9764  -24.6298   22.6111 C   0  0  0  0  0  0  0  0  0  0  0  0
  -22.0867  -20.0979   23.5454 C   0  0  0  0  0  0  0  0  0  0  0  0
  -24.6273  -25.3792   21.4786 C   0  0  0  0  0  0  0  0  0  0  0  0
  -23.7457  -15.3095   20.6835 C   0  0  0  0  0  0  0  0  0  0  0  0
  -26.7394  -24.7705   20.4400 C   0  0  0  0  0  0  0  0  0  0  0  0
  -22.2389  -13.5224   20.9244 C   0  0  0  0  0  0  0  0  0  0  0  0
  -21.7824  -10.8423   21.5497 C   0  0  0  0  0  0  0  0  0  0  0  0
  -22.8590  -12.5176   20.1818 C   0  0  0  0  0  0  0  0  0  0  0  0
  -27.7257  -16.7285   20.8923 C   0  0  0  0  0  0  0  0  0  0  0  0
  -31.5803  -25.6645   20.2725 C   0  0  0  0  0  0  0  0  0  0  0  0
  -30.0233  -26.4219   18.9490 C   0  0  0  0  0  0  0  0  0  0  0  0
  -29.9053  -16.9552   20.7110 C   0  0  0  0  0  0  0  0  0  0  0  0
  -29.0159  -14.8467   19.7052 C   0  0  0  0  0  0  0  0  0  0  0  0
  -21.9393  -23.7005   22.7374 C   0  0  0  0  0  0  0  0  0  0  0  0
  -21.3710  -26.8936   22.7943 C   0  0  0  0  0  0  0  0  0  0  0  0
  -22.4540  -30.0429   22.0485 C   0  0  0  0  0  0  0  0  0  0  0  0
  -30.9669  -22.5423   20.9738 C   0  0  0  0  0  0  0  0  0  0  0  0
  -20.1182  -19.5369   25.0624 C   0  0  0  0  0  0  0  0  0  0  0  0
  -24.0549  -24.5694   23.7983 C   0  0  0  0  0  0  0  0  0  0  0  0
  -23.3183  -26.1188   21.3897 C   0  0  0  0  0  0  0  0  0  0  0  0
  -19.5778  -20.9246   24.7272 C   0  0  0  0  0  0  0  0  0  0  0  0
  -30.5054  -20.6036   23.9946 C   0  0  0  0  0  0  0  0  0  0  0  0
  -19.8491  -21.2644   23.2651 C   0  0  0  0  0  0  0  0  0  0  0  0
  -29.8490  -19.3358   23.4451 C   0  0  0  0  0  0  0  0  0  0  0  0
  -30.0159  -21.8448   23.2545 C   0  0  0  0  0  0  0  0  0  0  0  0
  -29.5455  -20.5276   21.2254 C   0  0  0  0  0  0  0  0  0  0  0  0
  -21.3547  -21.2938   22.9758 C   0  0  1  0  0  0  0  0  0  0  0  0
  -22.5994  -24.8531   23.4399 C   0  0  1  0  0  0  0  0  0  0  0  0
  -30.0161  -19.2354   21.9173 C   0  0  2  0  0  0  0  0  0  0  0  0
  -21.7545  -32.4493   22.1799 C   0  0  0  0  0  0  0  0  0  0  0  0
  -19.4960  -26.4755   20.4238 C   0  0  0  0  0  0  0  0  0  0  0  0
  -19.5821  -28.9431   20.0097 C   0  0  0  0  0  0  0  0  0  0  0  0
  -18.6508  -28.0718   22.1535 C   0  0  0  0  0  0  0  0  0  0  0  0
  -24.7413  -30.7329   23.7952 C   0  0  0  0  0  0  0  0  0  0  0  0
  -32.3730  -24.5845   20.8768 C   0  0  0  0  0  0  0  0  0  0  0  0
  -27.5496  -26.0224   18.5873 C   0  0  0  0  0  0  0  0  0  1  0  0
  -28.9158  -26.2479   17.9358 C   0  0  2  0  0  0  0  0  0  0  0  0
  -21.1437  -27.9579   21.7480 C   0  0  1  0  0  0  0  0  0  0  0  0
  -22.4940  -31.3162   22.8741 C   0  0  2  0  0  0  0  0  0  0  0  0
  -19.7421  -27.8466   21.0843 C   0  0  0  0  0  0  0  0  0  0  0  0
  -27.9907  -17.8974   21.4817 N   0  0  0  0  0  0  0  0  0  0  0  0
  -29.3242  -18.0073   21.3555 N   0  0  0  0  0  0  0  0  0  0  0  0
  -22.4485  -26.0241   22.5737 N   0  0  0  0  0  0  0  0  0  0  0  0
  -30.2205  -21.6927   21.8070 N   0  0  0  0  0  0  0  0  0  0  0  0
  -31.2376  -16.9048   20.4987 N   0  0  0  0  0  0  0  0  0  0  0  0
  -27.8613  -14.0906   19.4606 N   0  0  0  0  0  0  0  0  0  0  0  0
  -21.9391  -22.5247   23.4634 N   0  0  0  0  0  0  0  0  0  0  0  0
  -21.3940  -29.2362   22.4049 N   0  0  0  0  0  0  0  0  0  0  0  0
  -31.5684  -23.6262   21.6016 N   0  0  0  0  0  0  0  0  0  0  0  0
  -29.1792  -25.1102   16.9971 N   0  3  0  0  0  0  0  0  0  0  0  0
  -23.9039  -31.7435   23.0991 N   0  3  0  0  0  0  0  0  0  0  0  0
  -30.1293  -14.4049   19.3329 O   0  0  0  0  0  0  0  0  0  0  0  0
  -21.4640  -23.8660   21.6201 O   0  0  0  0  0  0  0  0  0  0  0  0
  -20.6245  -26.8404   23.7749 O   0  0  0  0  0  0  0  0  0  0  0  0
  -23.2782  -29.7909   21.1723 O   0  0  0  0  0  0  0  0  0  0  0  0
  -31.0927  -22.3465   19.7601 O   0  0  0  0  0  0  0  0  0  0  0  0
  -30.6294  -25.2843   19.3793 O   0  0  0  0  0  0  0  0  0  0  0  0
  -22.4651  -14.8533   20.6157 O   0  0  0  0  0  0  0  0  0  0  0  0
  -27.5917  -24.8374   19.3812 O   0  0  0  0  0  0  0  0  0  1  0  0
  -21.5643   -9.5555   21.8510 F   0  0  0  0  0  0  0  0  0  0  0  0
  -23.6759  -12.8335   19.1675 F   0  0  0  0  0  0  0  0  0  0  0  0
  1  2  1  0  0  0  0
  1  5  2  0  0  0  0
  2  6  2  0  0  0  0
  3  8  2  0  0  0  0
  3 17  1  0  0  0  0
  4  9  1  0  0  0  0
  4 17  2  0  0  0  0
  5 19  1  0  0  0  0
  6 21  1  0  0  0  0
  7 10  2  0  0  0  0
  7 20  1  0  0  0  0
  8 23  1  0  0  0  0
  9 23  2  0  0  0  0
 10 24  1  0  0  0  0
 11 12  2  0  0  0  0
 11 25  1  0  0  0  0
 12 26  1  0  0  0  0
 13 14  1  0  0  0  0
 13 29  2  0  0  0  0
 14 30  2  0  0  0  0
 15 22  1  0  0  0  0
 15 24  2  0  0  0  0
 16 26  2  0  0  0  0
 16 27  1  0  0  0  0
 17 28  1  0  0  0  0
 18 28  1  0  0  0  0
 18 31  2  0  0  0  0
 18 32  1  0  0  0  0
 19 21  2  0  0  0  0
 19 37  1  0  0  0  0
 20 22  2  0  0  0  0
 20 38  1  0  0  0  0
 21 46  1  0  0  0  0
 22 39  1  0  0  0  0
 23 77  1  0  0  0  0
 24 78  1  0  0  0  0
 25 27  2  0  0  0  0
 25 77  1  0  0  0  0
 26 79  1  0  0  0  0
 27 80  1  0  0  0  0
 28 60  2  0  0  0  0
 29 54  1  0  0  0  0
 29 76  1  0  0  0  0
 30 56  1  0  0  0  0
 30 76  1  0  0  0  0
 31 61  1  0  0  0  0
 31 64  1  0  0  0  0
 32 65  1  0  0  0  0
 32 71  2  0  0  0  0
 33 47  1  0  0  0  0
 33 66  1  0  0  0  0
 33 72  2  0  0  0  0
 34 57  1  0  0  0  0
 34 62  1  0  0  0  0
 34 73  2  0  0  0  0
 35 58  1  0  0  0  0
 35 67  1  0  0  0  0
 35 74  2  0  0  0  0
 36 63  1  0  0  0  0
 36 68  1  0  0  0  0
 36 75  2  0  0  0  0
 37 40  1  0  0  0  0
 38 47  1  0  0  0  0
 39 62  1  0  0  0  0
 40 42  1  0  0  0  0
 41 43  1  0  0  0  0
 41 44  1  0  0  0  0
 42 46  1  0  0  0  0
 43 48  1  0  0  0  0
 44 63  1  0  0  0  0
 45 48  1  0  0  0  0
 45 63  1  0  0  0  0
 46 66  1  0  0  0  0
 47 62  1  0  0  0  0
 48 61  1  0  0  0  0
 49 58  1  0  0  0  0
 50 59  1  0  0  0  0
 51 59  1  0  0  0  0
 52 59  1  0  0  0  0
 53 70  1  0  0  0  0
 54 68  1  0  0  0  0
 55 56  1  0  0  0  0
 55 78  1  0  0  0  0
 56 69  1  0  0  0  0
 57 59  1  0  0  0  0
 57 67  1  0  0  0  0
 58 70  1  0  0  0  0
 60 61  1  0  0  0  0
M  CHG  2  69   1  70   1
M  ISO  4  36 100  55 101  68 100  78 101
M  END
> <Batch ID>
0108

> <Smiles>
CNC(C)C(=O)NC(C(=O)N1Cc2cc([101O:1][101CH2:1]C(N)c3ccc(C[100NH:0][100C:0](=O)N4CCCC(n5nc(-c6ccc(Oc7ccc(F)cc7F)cc6)c(C(N)=O)c5N)C4)o3)ccc2CC1C(=O)NC1CCCc2ccccc21)C(C)(C)C

> <Shape>
0.211

> <Color>
0.058

> <Negative vol penalty>
0.000

$$$$

  -OEChem-04052319533D

 78 85  0     1  0  0  0  0  0999 V2000
  -20.7766  -16.2273   31.7022 C   0  0  0  0  0  0  0  0  0  0  0  0
  -21.8619  -16.5195   30.8823 C   0  0  0  0  0  0  0  0  0  0  0  0
  -23.0005   -9.8944   19.9816 C   0  0  0  0  0  0  0  0  0  0  0  0
  -23.7311   -9.9438   22.2840 C   0  0  0  0  0  0  0  0  0  0  0  0
  -19.5381  -15.9270   31.1367 C   0  0  0  0  0  0  0  0  0  0  0  0
  -21.7095  -16.5104   29.4963 C   0  0  0  0  0  0  0  0  0  0  0  0
  -24.5119  -20.1661   25.4605 C   0  0  0  0  0  0  0  0  0  0  0  0
  -22.2358   -8.7588   20.2486 C   0  0  0  0  0  0  0  0  0  0  0  0
  -22.9663   -8.8082   22.5510 C   0  0  0  0  0  0  0  0  0  0  0  0
  -25.6298  -19.9831   24.6476 C   0  0  0  0  0  0  0  0  0  0  0  0
  -23.2131   -5.4700   22.0752 C   0  0  0  0  0  0  0  0  0  0  0  0
  -23.8035   -4.4527   22.8249 C   0  0  0  0  0  0  0  0  0  0  0  0
  -24.1882  -19.3675   22.8140 C   0  0  0  0  0  0  0  0  0  0  0  0
  -22.0833   -4.6921   24.5044 C   0  0  0  0  0  0  0  0  0  0  0  0
  -23.7482  -10.4869   20.9993 C   0  0  0  0  0  0  0  0  0  0  0  0
  -24.1304  -13.0031   20.8249 C   0  0  0  0  0  0  0  0  0  0  0  0
  -19.3680  -15.9237   29.7433 C   0  0  0  0  0  0  0  0  0  0  0  0
  -23.2222  -19.9402   24.9585 C   0  0  0  0  0  0  0  0  0  0  0  0
  -20.4678  -16.2084   28.9116 C   0  0  0  0  0  0  0  0  0  0  0  0
  -23.0555  -19.5508   23.6218 C   0  0  0  0  0  0  0  0  0  0  0  0
  -22.2187   -8.2157   21.5333 C   0  0  0  0  0  0  0  0  0  0  0  0
  -25.4682  -19.5810   23.3250 C   0  0  0  0  0  0  0  0  0  0  0  0
  -22.0579   -6.0985   22.5401 C   0  0  0  0  0  0  0  0  0  0  0  0
  -23.2387   -4.0637   24.0394 C   0  0  0  0  0  0  0  0  0  0  0  0
  -21.4930   -5.7095   23.7547 C   0  0  0  0  0  0  0  0  0  0  0  0
  -24.5387  -11.6596   20.7240 C   0  0  0  0  0  0  0  0  0  0  0  0
  -25.2385  -13.7272   20.4586 C   0  0  0  0  0  0  0  0  0  0  0  0
  -22.8627  -13.5477   21.2150 C   0  0  0  0  0  0  0  0  0  0  0  0
  -20.8562  -17.9406   25.6710 C   0  0  0  0  0  0  0  0  0  0  0  0
  -19.2363  -19.6912   23.4725 C   0  0  0  0  0  0  0  0  0  0  0  0
  -19.3499  -21.7412   20.7464 C   0  0  0  0  0  0  0  0  0  0  0  0
  -30.7344  -14.6674   20.6952 C   0  0  0  0  0  0  0  0  0  0  0  0
  -18.0219  -15.5467   29.1771 C   0  0  0  0  0  0  0  0  0  0  0  0
  -22.0253  -20.1679   25.8405 C   0  0  0  0  0  0  0  0  0  0  0  0
  -21.6913  -19.3148   23.0288 C   0  0  0  0  0  0  0  0  0  0  0  0
  -17.8512  -15.9253   27.7082 C   0  0  0  0  0  0  0  0  0  0  0  0
  -29.5908  -12.2449   18.3499 C   0  0  0  0  0  0  0  0  0  0  0  0
  -19.0793  -15.5107   26.9039 C   0  0  0  0  0  0  0  0  0  0  0  0
  -28.1436  -11.9832   18.7707 C   0  0  0  0  0  0  0  0  0  0  0  0
  -30.4958  -12.4800   19.5573 C   0  0  0  0  0  0  0  0  0  0  0  0
  -28.5880  -13.2722   20.9014 C   0  0  0  0  0  0  0  0  0  0  0  0
  -20.3361  -16.2330   27.4042 C   0  0  1  0  0  0  0  0  0  0  0  0
  -20.7857  -19.4116   25.3726 C   0  0  1  0  0  0  0  0  0  0  0  0
  -27.6264  -13.0847   19.7154 C   0  0  2  0  0  0  0  0  0  0  0  0
  -31.8711  -15.6983   23.9701 C   0  0  0  0  0  0  0  0  0  0  0  0
  -17.8620  -22.9806   19.1503 C   0  0  0  0  0  0  0  0  0  0  0  0
  -18.5792  -17.0709   22.0541 C   0  0  0  0  0  0  0  0  0  0  0  0
  -17.9449  -18.4050   20.0326 C   0  0  0  0  0  0  0  0  0  0  0  0
  -16.6852  -18.7003   22.1654 C   0  0  0  0  0  0  0  0  0  0  0  0
  -31.1690  -17.6387   20.6142 C   0  0  0  0  0  0  0  0  0  0  0  0
  -20.4901  -24.3566   21.5326 C   0  0  0  0  0  0  0  0  0  0  0  0
  -32.0981  -16.4893   22.6857 C   0  0  0  0  0  0  0  0  0  0  0  0
  -28.5726  -18.1391   22.1932 C   0  0  0  0  0  0  0  0  0  0  0  0
  -29.8950  -17.6784   22.8165 C   0  0  0  0  0  0  0  0  0  0  0  0
  -27.7664  -18.9902   23.1671 C   0  0  0  0  0  0  0  0  0  1  0  0
  -19.0364  -19.6108   21.9783 C   0  0  1  0  0  0  0  0  0  0  0  0
  -18.6549  -23.0569   20.4458 C   0  0  2  0  0  0  0  0  0  0  0  0
  -18.0874  -18.4492   21.5690 C   0  0  0  0  0  0  0  0  0  0  0  0
  -30.8176  -16.8453   21.8823 C   0  0  1  0  0  0  0  0  0  0  0  0
  -25.8072  -11.5349   20.3247 N   0  0  0  0  0  0  0  0  0  0  0  0
  -26.2055  -12.8092   20.1714 N   0  0  0  0  0  0  0  0  0  0  0  0
  -20.5524  -19.5445   23.9331 N   0  0  0  0  0  0  0  0  0  0  0  0
  -29.9499  -13.5373   20.4117 N   0  0  0  0  0  0  0  0  0  0  0  0
  -25.4703  -15.0533   20.3573 N   0  0  0  0  0  0  0  0  0  0  0  0
  -21.8327  -12.6621   21.5600 N   0  0  0  0  0  0  0  0  0  0  0  0
  -20.3648  -17.5948   26.9153 N   0  0  0  0  0  0  0  0  0  0  0  0
  -18.5817  -20.9310   21.5556 N   0  0  0  0  0  0  0  0  0  0  0  0
  -30.1390  -15.6248   21.5074 N   0  0  0  0  0  0  0  0  0  0  0  0
  -19.6553  -24.1544   20.3206 N   0  3  0  0  0  0  0  0  0  0  0  0
  -22.6448  -14.7828   21.2405 O   0  0  0  0  0  0  0  0  0  0  0  0
  -21.3207  -17.1759   24.8336 O   0  0  0  0  0  0  0  0  0  0  0  0
  -18.2616  -19.8845   24.2034 O   0  0  0  0  0  0  0  0  0  0  0  0
  -20.4613  -21.4587   20.3042 O   0  0  0  0  0  0  0  0  0  0  0  0
  -31.8787  -14.8150   20.2525 O   0  0  0  0  0  0  0  0  0  0  0  0
  -21.4725   -7.1078   21.7943 O   0  0  0  0  0  0  0  0  0  0  0  0
  -26.5576  -19.4010   22.5296 O   0  0  0  0  0  0  0  0  0  1  0  0
  -23.8049   -3.0857   24.7585 F   0  0  0  0  0  0  0  0  0  0  0  0
  -20.3825   -6.3087   24.2059 F   0  0  0  0  0  0  0  0  0  0  0  0
  1  2  1  0  0  0  0
  1  5  2  0  0  0  0
  2  6  2  0  0  0  0
  3  8  2  0  0  0  0
  3 15  1  0  0  0  0
  4  9  1  0  0  0  0
  4 15  2  0  0  0  0
  5 17  1  0  0  0  0
  6 19  1  0  0  0  0
  7 10  2  0  0  0  0
  7 18  1  0  0  0  0
  8 21  1  0  0  0  0
  9 21  2  0  0  0  0
 10 22  1  0  0  0  0
 11 12  2  0  0  0  0
 11 23  1  0  0  0  0
 12 24  1  0  0  0  0
 13 20  1  0  0  0  0
 13 22  2  0  0  0  0
 14 24  2  0  0  0  0
 14 25  1  0  0  0  0
 15 26  1  0  0  0  0
 16 26  1  0  0  0  0
 16 27  2  0  0  0  0
 16 28  1  0  0  0  0
 17 19  2  0  0  0  0
 17 33  1  0  0  0  0
 18 20  2  0  0  0  0
 18 34  1  0  0  0  0
 19 42  1  0  0  0  0
 20 35  1  0  0  0  0
 21 75  1  0  0  0  0
 22 76  1  0  0  0  0
 23 25  2  0  0  0  0
 23 75  1  0  0  0  0
 24 77  1  0  0  0  0
 25 78  1  0  0  0  0
 26 60  2  0  0  0  0
 27 61  1  0  0  0  0
 27 64  1  0  0  0  0
 28 65  1  0  0  0  0
 28 70  2  0  0  0  0
 29 43  1  0  0  0  0
 29 66  1  0  0  0  0
 29 71  2  0  0  0  0
 30 56  1  0  0  0  0
 30 62  1  0  0  0  0
 30 72  2  0  0  0  0
 31 57  1  0  0  0  0
 31 67  1  0  0  0  0
 31 73  2  0  0  0  0
 32 63  1  0  0  0  0
 32 68  1  0  0  0  0
 32 74  2  0  0  0  0
 33 36  1  0  0  0  0
 34 43  1  0  0  0  0
 35 62  1  0  0  0  0
 36 38  1  0  0  0  0
 37 39  1  0  0  0  0
 37 40  1  0  0  0  0
 38 42  1  0  0  0  0
 39 44  1  0  0  0  0
 40 63  1  0  0  0  0
 41 44  1  0  0  0  0
 41 63  1  0  0  0  0
 42 66  1  0  0  0  0
 43 62  1  0  0  0  0
 44 61  1  0  0  0  0
 45 52  1  0  0  0  0
 46 57  1  0  0  0  0
 47 58  1  0  0  0  0
 48 58  1  0  0  0  0
 49 58  1  0  0  0  0
 50 59  1  0  0  0  0
 51 69  1  0  0  0  0
 52 59  1  0  0  0  0
 53 54  1  0  0  0  0
 53 55  1  0  0  0  0
 54 59  1  0  0  0  0
 55 76  1  0  0  0  0
 56 58  1  0  0  0  0
 56 67  1  0  0  0  0
 57 69  1  0  0  0  0
 59 68  1  0  0  0  0
 60 61  1  0  0  0  0
M  CHG  1  69   1
M  ISO  4  32 100  55 101  68 100  76 101
M  END
> <Batch ID>
0108

> <Smiles>
CCC(C)(CC[101CH2:1][101O:1]c1ccc2c(c1)CN(C(=O)C(NC(=O)C(C)NC)C(C)(C)C)C(C(=O)NC1CCCc3ccccc31)C2)[100NH:0][100C:0](=O)N1CCCC(n2nc(-c3ccc(Oc4ccc(F)cc4F)cc3)c(C(N)=O)c2N)C1

> <Shape>
0.187

> <Color>
0.206

> <Negative vol penalty>
0.000

$$$$

  -OEChem-04052319533D

 83 91  0     1  0  0  0  0  0999 V2000
  -25.1766  -35.4060   22.3846 C   0  0  0  0  0  0  0  0  0  0  0  0
  -25.8696  -34.2068   22.2533 C   0  0  0  0  0  0  0  0  0  0  0  0
  -24.5341  -13.9369   19.5917 C   0  0  0  0  0  0  0  0  0  0  0  0
  -25.6800  -14.5223   21.6365 C   0  0  0  0  0  0  0  0  0  0  0  0
  -23.9029  -35.4152   22.9517 C   0  0  0  0  0  0  0  0  0  0  0  0
  -25.2897  -33.0163   22.6900 C   0  0  0  0  0  0  0  0  0  0  0  0
  -25.8577  -29.2431   19.3605 C   0  0  0  0  0  0  0  0  0  0  0  0
  -24.6893  -12.5837   19.8921 C   0  0  0  0  0  0  0  0  0  0  0  0
  -25.8352  -13.1690   21.9369 C   0  0  0  0  0  0  0  0  0  0  0  0
  -27.1009  -28.6134   19.3178 C   0  0  0  0  0  0  0  0  0  0  0  0
  -23.2207  -10.2936   21.9000 C   0  0  0  0  0  0  0  0  0  0  0  0
  -22.1154   -9.4605   21.7279 C   0  0  0  0  0  0  0  0  0  0  0  0
  -26.2251  -26.8069   20.6553 C   0  0  0  0  0  0  0  0  0  0  0  0
  -30.0751  -24.1869   20.5304 C   0  0  0  0  0  0  0  0  0  0  0  0
  -23.3570   -8.1436   20.1274 C   0  0  0  0  0  0  0  0  0  0  0  0
  -28.7246  -24.2774   22.3298 C   0  0  0  0  0  0  0  0  0  0  0  0
  -25.0296  -14.9063   20.4638 C   0  0  0  0  0  0  0  0  0  0  0  0
  -23.7959  -17.1385   20.5171 C   0  0  0  0  0  0  0  0  0  0  0  0
  -23.3031  -34.2229   23.3867 C   0  0  0  0  0  0  0  0  0  0  0  0
  -24.7901  -28.6637   20.0613 C   0  0  0  0  0  0  0  0  0  0  0  0
  -24.0073  -33.0098   23.2646 C   0  0  0  0  0  0  0  0  0  0  0  0
  -24.9687  -27.4300   20.7032 C   0  0  0  0  0  0  0  0  0  0  0  0
  -29.3048  -25.0501   21.3481 C   0  0  0  0  0  0  0  0  0  0  0  0
  -25.3398  -12.1997   21.0647 C   0  0  0  0  0  0  0  0  0  0  0  0
  -27.2856  -27.3966   19.9677 C   0  0  0  0  0  0  0  0  0  0  0  0
  -24.3943  -10.0518   21.1858 C   0  0  0  0  0  0  0  0  0  0  0  0
  -22.1835   -8.3855   20.8416 C   0  0  0  0  0  0  0  0  0  0  0  0
  -24.4624   -8.9768   20.2995 C   0  0  0  0  0  0  0  0  0  0  0  0
  -24.8701  -16.3043   20.1538 C   0  0  0  0  0  0  0  0  0  0  0  0
  -29.9419  -22.9129   21.0371 C   0  0  0  0  0  0  0  0  0  0  0  0
  -24.1181  -18.3638   19.9868 C   0  0  0  0  0  0  0  0  0  0  0  0
  -22.6127  -16.8331   21.2671 C   0  0  0  0  0  0  0  0  0  0  0  0
  -23.0122  -29.5234   22.5520 C   0  0  0  0  0  0  0  0  0  0  0  0
  -21.3511  -26.8416   21.7963 C   0  0  0  0  0  0  0  0  0  0  0  0
  -21.3278  -23.7716   20.3058 C   0  0  0  0  0  0  0  0  0  0  0  0
  -29.3252  -20.9303   18.5201 C   0  0  0  0  0  0  0  0  0  0  0  0
  -21.9437  -34.2891   24.0365 C   0  0  0  0  0  0  0  0  0  0  0  0
  -23.4480  -29.3425   20.0754 C   0  0  0  0  0  0  0  0  0  0  0  0
  -23.8490  -26.7563   21.4522 C   0  0  0  0  0  0  0  0  0  0  0  0
  -21.2472  -32.9341   24.1312 C   0  0  0  0  0  0  0  0  0  0  0  0
  -26.5399  -20.3616   16.3764 C   0  0  0  0  0  0  0  0  0  0  0  0
  -22.2113  -31.8737   24.6536 C   0  0  0  0  0  0  0  0  0  0  0  0
  -25.6992  -19.3326   17.1342 C   0  0  0  0  0  0  0  0  0  0  0  0
  -28.0355  -20.1189   16.5669 C   0  0  0  0  0  0  0  0  0  0  0  0
  -27.6348  -19.0080   18.7300 C   0  0  0  0  0  0  0  0  0  0  0  0
  -23.4016  -31.6943   23.7037 C   0  0  1  0  0  0  0  0  0  0  0  0
  -22.5741  -28.9142   21.2502 C   0  0  1  0  0  0  0  0  0  0  0  0
  -26.1194  -19.2452   18.6137 C   0  0  2  0  0  0  0  0  0  0  0  0
  -19.8367  -21.7976   19.8846 C   0  0  0  0  0  0  0  0  0  0  0  0
  -27.2064  -21.6281   22.9083 C   0  0  0  0  0  0  0  0  0  0  0  0
  -29.2170  -22.0101   24.3974 C   0  0  0  0  0  0  0  0  0  0  0  0
  -21.7203  -25.9482   24.6904 C   0  0  0  0  0  0  0  0  0  0  0  0
  -21.0786  -23.6334   23.9845 C   0  0  0  0  0  0  0  0  0  0  0  0
  -19.4481  -25.5058   23.7438 C   0  0  0  0  0  0  0  0  0  0  0  0
  -21.5217  -24.1044   17.3714 C   0  0  0  0  0  0  0  0  0  0  0  0
  -30.5304  -21.6406   20.5700 C   0  0  0  0  0  0  0  0  0  0  0  0
  -30.5025  -27.2502   21.2089 C   0  0  0  0  0  0  0  0  0  0  0  0
  -29.1480  -26.5445   21.1765 C   0  0  1  0  0  0  0  0  0  1  0  0
  -21.4362  -25.3858   22.1866 C   0  0  1  0  0  0  0  0  0  0  0  0
  -20.3455  -23.1255   19.3455 C   0  0  2  0  0  0  0  0  0  0  0  0
  -28.7172  -21.8641   22.9589 C   0  0  0  0  0  0  0  0  0  0  0  0
  -20.9426  -25.1317   23.6389 C   0  0  0  0  0  0  0  0  0  0  0  0
  -25.8047  -16.9454   19.4471 N   0  0  0  0  0  0  0  0  0  0  0  0
  -29.1186  -22.9800   22.1306 N   0  0  0  0  0  0  0  0  0  0  0  0
  -25.3188  -18.1955   19.3620 N   0  0  0  0  0  0  0  0  0  0  0  0
  -22.5573  -27.4626   21.4424 N   0  0  0  0  0  0  0  0  0  0  0  0
  -28.3682  -20.0482   17.9918 N   0  0  0  0  0  0  0  0  0  0  0  0
  -23.4887  -19.5580   19.9985 N   0  0  0  0  0  0  0  0  0  0  0  0
  -22.4393  -15.5245   21.7380 N   0  0  0  0  0  0  0  0  0  0  0  0
  -23.0159  -30.9052   22.5535 N   0  0  0  0  0  0  0  0  0  0  0  0
  -20.6998  -24.6462   21.1672 N   0  0  0  0  0  0  0  0  0  0  0  0
  -29.5767  -20.8005   19.8805 N   0  0  0  0  0  0  0  0  0  0  0  0
  -30.3024  -28.6995   21.4693 N   0  3  0  0  0  0  0  0  0  0  0  0
  -20.9955  -22.8796   18.0272 N   0  3  0  0  0  0  0  0  0  0  0  0
  -21.7274  -17.6912   21.4983 O   0  0  0  0  0  0  0  0  0  0  0  0
  -23.3224  -28.7938   23.4864 O   0  0  0  0  0  0  0  0  0  0  0  0
  -20.2537  -27.4050   21.7984 O   0  0  0  0  0  0  0  0  0  0  0  0
  -22.5312  -23.5224   20.2955 O   0  0  0  0  0  0  0  0  0  0  0  0
  -29.9082  -21.7747   17.8316 O   0  0  0  0  0  0  0  0  0  0  0  0
  -25.4911  -10.8793   21.3583 O   0  0  0  0  0  0  0  0  0  0  0  0
  -28.4981  -26.7801   19.9281 O   0  0  0  0  0  0  0  0  0  1  0  0
  -21.1224   -7.5846   20.6776 F   0  0  0  0  0  0  0  0  0  0  0  0
  -25.5875   -8.7388   19.6115 F   0  0  0  0  0  0  0  0  0  0  0  0
  1  2  1  0  0  0  0
  1  5  2  0  0  0  0
  2  6  2  0  0  0  0
  3  8  2  0  0  0  0
  3 17  1  0  0  0  0
  4  9  1  0  0  0  0
  4 17  2  0  0  0  0
  5 19  1  0  0  0  0
  6 21  1  0  0  0  0
  7 10  2  0  0  0  0
  7 20  1  0  0  0  0
  8 24  1  0  0  0  0
  9 24  2  0  0  0  0
 10 25  1  0  0  0  0
 11 12  2  0  0  0  0
 11 26  1  0  0  0  0
 12 27  1  0  0  0  0
 13 22  1  0  0  0  0
 13 25  2  0  0  0  0
 14 23  1  0  0  0  0
 14 30  2  0  0  0  0
 15 27  2  0  0  0  0
 15 28  1  0  0  0  0
 16 23  2  0  0  0  0
 16 64  1  0  0  0  0
 17 29  1  0  0  0  0
 18 29  1  0  0  0  0
 18 31  2  0  0  0  0
 18 32  1  0  0  0  0
 19 21  2  0  0  0  0
 19 37  1  0  0  0  0
 20 22  2  0  0  0  0
 20 38  1  0  0  0  0
 21 46  1  0  0  0  0
 22 39  1  0  0  0  0
 23 58  1  0  0  0  0
 24 80  1  0  0  0  0
 25 81  1  0  0  0  0
 26 28  2  0  0  0  0
 26 80  1  0  0  0  0
 27 82  1  0  0  0  0
 28 83  1  0  0  0  0
 29 63  2  0  0  0  0
 30 56  1  0  0  0  0
 30 64  1  0  0  0  0
 31 65  1  0  0  0  0
 31 68  1  0  0  0  0
 32 69  1  0  0  0  0
 32 75  2  0  0  0  0
 33 47  1  0  0  0  0
 33 70  1  0  0  0  0
 33 76  2  0  0  0  0
 34 59  1  0  0  0  0
 34 66  1  0  0  0  0
 34 77  2  0  0  0  0
 35 60  1  0  0  0  0
 35 71  1  0  0  0  0
 35 78  2  0  0  0  0
 36 67  1  0  0  0  0
 36 72  1  0  0  0  0
 36 79  2  0  0  0  0
 37 40  1  0  0  0  0
 38 47  1  0  0  0  0
 39 66  1  0  0  0  0
 40 42  1  0  0  0  0
 41 43  1  0  0  0  0
 41 44  1  0  0  0  0
 42 46  1  0  0  0  0
 43 48  1  0  0  0  0
 44 67  1  0  0  0  0
 45 48  1  0  0  0  0
 45 67  1  0  0  0  0
 46 70  1  0  0  0  0
 47 66  1  0  0  0  0
 48 65  1  0  0  0  0
 49 60  1  0  0  0  0
 50 61  1  0  0  0  0
 51 61  1  0  0  0  0
 52 62  1  0  0  0  0
 53 62  1  0  0  0  0
 54 62  1  0  0  0  0
 55 74  1  0  0  0  0
 56 72  1  0  0  0  0
 57 58  1  0  0  0  0
 57 73  1  0  0  0  0
 58 81  1  0  0  0  0
 59 62  1  0  0  0  0
 59 71  1  0  0  0  0
 60 74  1  0  0  0  0
 61 64  1  0  0  0  0
 63 65  1  0  0  0  0
M  CHG  2  73   1  74   1
M  ISO  4  36 100  58 101  72 100  81 101
M  END
> <Batch ID>
0108

> <Smiles>
CNC(C)C(=O)NC(C(=O)N1Cc2cc([101O:1][101CH:1](CN)c3cc(C[100NH:0][100C:0](=O)N4CCCC(n5nc(-c6ccc(Oc7ccc(F)cc7F)cc6)c(C(N)=O)c5N)C4)n(C(C)C)c3)ccc2CC1C(=O)NC1CCCc2ccccc21)C(C)(C)C

> <Shape>
0.225

> <Color>
0.087

> <Negative vol penalty>
0.000

$$$$

  -OEChem-04052319533D

 89 98  0     1  0  0  0  0  0999 V2000
  -32.4013  -23.3772   17.3604 C   0  0  0  0  0  0  0  0  0  0  0  0
  -31.8742  -22.4456   18.2491 C   0  0  0  0  0  0  0  0  0  0  0  0
  -23.4940   -9.7027   20.6426 C   0  0  0  0  0  0  0  0  0  0  0  0
  -24.0991  -10.2732   22.9110 C   0  0  0  0  0  0  0  0  0  0  0  0
  -31.9832  -24.7061   17.4161 C   0  0  0  0  0  0  0  0  0  0  0  0
  -30.9295  -22.8427   19.1948 C   0  0  0  0  0  0  0  0  0  0  0  0
  -27.0424  -19.6144   19.5316 C   0  0  0  0  0  0  0  0  0  0  0  0
  -32.7656  -16.5730   23.5556 C   0  0  0  0  0  0  0  0  0  0  0  0
  -32.2492  -15.6078   22.6912 C   0  0  0  0  0  0  0  0  0  0  0  0
  -22.8760   -8.5390   21.1001 C   0  0  0  0  0  0  0  0  0  0  0  0
  -23.4810   -9.1094   23.3685 C   0  0  0  0  0  0  0  0  0  0  0  0
  -27.2531  -18.4366   20.2473 C   0  0  0  0  0  0  0  0  0  0  0  0
  -23.8136   -5.4502   22.1023 C   0  0  0  0  0  0  0  0  0  0  0  0
  -24.0608   -4.2684   21.4038 C   0  0  0  0  0  0  0  0  0  0  0  0
  -26.1359  -19.4028   22.1546 C   0  0  0  0  0  0  0  0  0  0  0  0
  -31.4211  -15.6817   25.3542 C   0  0  0  0  0  0  0  0  0  0  0  0
  -28.1879  -15.4057   24.3275 C   0  0  0  0  0  0  0  0  0  0  0  0
  -21.7008   -4.0526   20.9338 C   0  0  0  0  0  0  0  0  0  0  0  0
  -25.8765  -14.9652   24.6741 C   0  0  0  0  0  0  0  0  0  0  0  0
  -24.1056  -10.5698   21.5481 C   0  0  0  0  0  0  0  0  0  0  0  0
  -24.1560  -13.0403   20.9143 C   0  0  0  0  0  0  0  0  0  0  0  0
  -31.0258  -25.1177   18.3566 C   0  0  0  0  0  0  0  0  0  0  0  0
  -26.3854  -20.7010   20.1267 C   0  0  0  0  0  0  0  0  0  0  0  0
  -30.4992  -24.1786   19.2639 C   0  0  0  0  0  0  0  0  0  0  0  0
  -25.9159  -20.5924   21.4435 C   0  0  0  0  0  0  0  0  0  0  0  0
  -32.3516  -16.6099   24.8872 C   0  0  0  0  0  0  0  0  0  0  0  0
  -26.8652  -15.8179   24.2102 C   0  0  0  0  0  0  0  0  0  0  0  0
  -30.9046  -14.7164   24.4898 C   0  0  0  0  0  0  0  0  0  0  0  0
  -28.4775  -14.1708   24.8971 C   0  0  0  0  0  0  0  0  0  0  0  0
  -31.3187  -14.6795   23.1582 C   0  0  0  0  0  0  0  0  0  0  0  0
  -22.8695   -8.2423   22.4630 C   0  0  0  0  0  0  0  0  0  0  0  0
  -26.8024  -18.3317   21.5599 C   0  0  0  0  0  0  0  0  0  0  0  0
  -22.5100   -5.9331   22.2167 C   0  0  0  0  0  0  0  0  0  0  0  0
  -23.0045   -3.5696   20.8195 C   0  0  0  0  0  0  0  0  0  0  0  0
  -21.4536   -5.2343   21.6324 C   0  0  0  0  0  0  0  0  0  0  0  0
  -24.7447  -11.7719   21.0760 C   0  0  0  0  0  0  0  0  0  0  0  0
  -27.4166  -13.3918   25.3305 C   0  0  0  0  0  0  0  0  0  0  0  0
  -25.1737  -13.8338   20.4442 C   0  0  0  0  0  0  0  0  0  0  0  0
  -22.8095  -13.4636   21.1665 C   0  0  0  0  0  0  0  0  0  0  0  0
  -27.1861  -23.6964   20.8271 C   0  0  0  0  0  0  0  0  0  0  0  0
  -24.0569  -23.9285   21.6496 C   0  0  0  0  0  0  0  0  0  0  0  0
  -21.1989  -22.3526   22.6471 C   0  0  0  0  0  0  0  0  0  0  0  0
  -31.1236  -13.5478   20.9160 C   0  0  0  0  0  0  0  0  0  0  0  0
  -30.6399  -26.5747   18.4096 C   0  0  0  0  0  0  0  0  0  0  0  0
  -26.1424  -21.9550   19.3324 C   0  0  0  0  0  0  0  0  0  0  0  0
  -25.1871  -21.7227   22.1214 C   0  0  0  0  0  0  0  0  0  0  0  0
  -29.3577  -26.8370   19.1955 C   0  0  0  0  0  0  0  0  0  0  0  0
  -29.2270  -13.6114   17.9034 C   0  0  0  0  0  0  0  0  0  0  0  0
  -29.3787  -26.0797   20.5194 C   0  0  0  0  0  0  0  0  0  0  0  0
  -27.8076  -13.2683   18.3612 C   0  0  0  0  0  0  0  0  0  0  0  0
  -30.2804  -12.8336   18.6903 C   0  0  0  0  0  0  0  0  0  0  0  0
  -28.7520  -12.6010   20.6084 C   0  0  0  0  0  0  0  0  0  0  0  0
  -29.4542  -24.5657   20.2878 C   0  0  1  0  0  0  0  0  0  0  0  0
  -25.9165  -23.1831   20.2088 C   0  0  1  0  0  0  0  0  0  0  0  0
  -27.6590  -13.4081   19.8889 C   0  0  2  0  0  0  0  0  0  0  0  0
  -27.6678  -12.0564   25.9510 C   0  0  0  0  0  0  0  0  0  0  0  0
  -33.6907  -17.0270   26.9816 C   0  0  0  0  0  0  0  0  0  0  0  0
  -31.8130  -18.5877   26.3543 C   0  0  0  0  0  0  0  0  0  0  0  0
  -18.8133  -22.8114   23.2764 C   0  0  0  0  0  0  0  0  0  0  0  0
  -24.9771  -24.9791   24.3624 C   0  0  0  0  0  0  0  0  0  0  0  0
  -22.6793  -24.5171   25.2427 C   0  0  0  0  0  0  0  0  0  0  0  0
  -22.9984  -26.1678   23.3999 C   0  0  0  0  0  0  0  0  0  0  0  0
  -20.1713  -20.6867   20.4272 C   0  0  0  0  0  0  0  0  0  0  0  0
  -29.8924  -13.7222   25.0242 C   0  0  0  0  0  0  0  0  0  0  0  0
  -26.5191  -17.1449   23.6013 C   0  0  0  0  0  0  0  0  0  1  0  0
  -32.9021  -17.6436   25.8108 C   0  0  0  0  0  0  0  0  0  0  0  0
  -23.2641  -23.7010   22.9140 C   0  0  1  0  0  0  0  0  0  0  0  0
  -19.7682  -22.4507   22.1491 C   0  0  2  0  0  0  0  0  0  0  0  0
  -23.4951  -24.8205   23.9679 C   0  0  0  0  0  0  0  0  0  0  0  0
  -26.1190  -13.7585   25.2332 N   0  0  0  0  0  0  0  0  0  0  0  0
  -26.0363  -11.7557   20.7361 N   0  0  0  0  0  0  0  0  0  0  0  0
  -26.2675  -13.0238   20.3560 N   0  0  0  0  0  0  0  0  0  0  0  0
  -24.9794  -22.9304   21.3053 N   0  0  0  0  0  0  0  0  0  0  0  0
  -30.0796  -13.0167   20.1294 N   0  0  0  0  0  0  0  0  0  0  0  0
  -25.2308  -15.1383   20.1016 N   0  0  0  0  0  0  0  0  0  0  0  0
  -21.8917  -12.5201   21.6479 N   0  0  0  0  0  0  0  0  0  0  0  0
  -30.8058  -13.7069   22.2645 N   0  0  0  0  0  0  0  0  0  0  0  0
  -28.1573  -24.0470   19.9088 N   0  0  0  0  0  0  0  0  0  0  0  0
  -21.8733  -23.5464   22.5015 N   0  0  0  0  0  0  0  0  0  0  0  0
  -19.3336  -21.1513   21.5628 N   0  3  0  0  0  0  0  0  0  0  0  0
  -22.4274  -14.6396   20.9554 O   0  0  0  0  0  0  0  0  0  0  0  0
  -27.2773  -23.7703   22.0469 O   0  0  0  0  0  0  0  0  0  0  0  0
  -23.8597  -24.9507   20.9879 O   0  0  0  0  0  0  0  0  0  0  0  0
  -21.6698  -21.3213   23.1216 O   0  0  0  0  0  0  0  0  0  0  0  0
  -32.2096  -13.8654   20.4243 O   0  0  0  0  0  0  0  0  0  0  0  0
  -22.2663   -7.1069   22.9098 O   0  0  0  0  0  0  0  0  0  0  0  0
  -27.0073  -17.1834   22.2609 O   0  0  0  0  0  0  0  0  0  1  0  0
  -23.2422   -2.4356   20.1475 F   0  0  0  0  0  0  0  0  0  0  0  0
  -20.1993   -5.6940   21.7378 F   0  0  0  0  0  0  0  0  0  0  0  0
  1  2  1  0  0  0  0
  1  5  2  0  0  0  0
  2  6  2  0  0  0  0
  3 10  2  0  0  0  0
  3 20  1  0  0  0  0
  4 11  1  0  0  0  0
  4 20  2  0  0  0  0
  5 22  1  0  0  0  0
  6 24  1  0  0  0  0
  7 12  2  0  0  0  0
  7 23  1  0  0  0  0
  8  9  2  0  0  0  0
  8 26  1  0  0  0  0
  9 30  1  0  0  0  0
 10 31  1  0  0  0  0
 11 31  2  0  0  0  0
 12 32  1  0  0  0  0
 13 14  2  0  0  0  0
 13 33  1  0  0  0  0
 14 34  1  0  0  0  0
 15 25  1  0  0  0  0
 15 32  2  0  0  0  0
 16 26  2  0  0  0  0
 16 28  1  0  0  0  0
 17 27  2  0  0  0  0
 17 29  1  0  0  0  0
 18 34  2  0  0  0  0
 18 35  1  0  0  0  0
 19 27  1  0  0  0  0
 19 70  2  0  0  0  0
 20 36  1  0  0  0  0
 21 36  1  0  0  0  0
 21 38  2  0  0  0  0
 21 39  1  0  0  0  0
 22 24  2  0  0  0  0
 22 44  1  0  0  0  0
 23 25  2  0  0  0  0
 23 45  1  0  0  0  0
 24 53  1  0  0  0  0
 25 46  1  0  0  0  0
 26 66  1  0  0  0  0
 27 65  1  0  0  0  0
 28 30  2  0  0  0  0
 28 64  1  0  0  0  0
 29 37  2  0  0  0  0
 29 64  1  0  0  0  0
 30 77  1  0  0  0  0
 31 86  1  0  0  0  0
 32 87  1  0  0  0  0
 33 35  2  0  0  0  0
 33 86  1  0  0  0  0
 34 88  1  0  0  0  0
 35 89  1  0  0  0  0
 36 71  2  0  0  0  0
 37 56  1  0  0  0  0
 37 70  1  0  0  0  0
 38 72  1  0  0  0  0
 38 75  1  0  0  0  0
 39 76  1  0  0  0  0
 39 81  2  0  0  0  0
 40 54  1  0  0  0  0
 40 78  1  0  0  0  0
 40 82  2  0  0  0  0
 41 67  1  0  0  0  0
 41 73  1  0  0  0  0
 41 83  2  0  0  0  0
 42 68  1  0  0  0  0
 42 79  1  0  0  0  0
 42 84  2  0  0  0  0
 43 74  1  0  0  0  0
 43 77  1  0  0  0  0
 43 85  2  0  0  0  0
 44 47  1  0  0  0  0
 45 54  1  0  0  0  0
 46 73  1  0  0  0  0
 47 49  1  0  0  0  0
 48 50  1  0  0  0  0
 48 51  1  0  0  0  0
 49 53  1  0  0  0  0
 50 55  1  0  0  0  0
 51 74  1  0  0  0  0
 52 55  1  0  0  0  0
 52 74  1  0  0  0  0
 53 78  1  0  0  0  0
 54 73  1  0  0  0  0
 55 72  1  0  0  0  0
 57 66  1  0  0  0  0
 58 66  1  0  0  0  0
 59 68  1  0  0  0  0
 60 69  1  0  0  0  0
 61 69  1  0  0  0  0
 62 69  1  0  0  0  0
 63 80  1  0  0  0  0
 65 87  1  0  0  0  0
 67 69  1  0  0  0  0
 67 79  1  0  0  0  0
 68 80  1  0  0  0  0
 71 72  1  0  0  0  0
M  CHG  1  80   1
M  ISO  4  43 100  65 101  77 100  87 101
M  END
> <Batch ID>
0108

> <Smiles>
CNC(C)C(=O)NC(C(=O)N1Cc2cc([101O:1][101CH2:1]c3cnc(C)c(Cc4cc(C(C)C)ccc4[100NH:0][100C:0](=O)N4CCCC(n5nc(-c6ccc(Oc7ccc(F)cc7F)cc6)c(C(N)=O)c5N)C4)c3)ccc2CC1C(=O)NC1CCCc2ccccc21)C(C)(C)C

> <Shape>
0.199

> <Color>
0.143

> <Negative vol penalty>
0.000

$$$$

  -OEChem-04052319533D

 86 94  0     1  0  0  0  0  0999 V2000
  -21.9345  -13.1834   23.0684 C   0  0  0  0  0  0  0  0  0  0  0  0
  -21.9321  -14.5193   23.4568 C   0  0  0  0  0  0  0  0  0  0  0  0
  -29.2027  -17.7863   19.1617 C   0  0  0  0  0  0  0  0  0  0  0  0
  -30.3619  -18.2323   21.2339 C   0  0  0  0  0  0  0  0  0  0  0  0
  -22.6006  -12.7978   21.9059 C   0  0  0  0  0  0  0  0  0  0  0  0
  -22.5969  -15.4702   22.6834 C   0  0  0  0  0  0  0  0  0  0  0  0
  -22.1785  -22.3438   20.7096 C   0  0  0  0  0  0  0  0  0  0  0  0
  -29.6969  -16.4820   19.1659 C   0  0  0  0  0  0  0  0  0  0  0  0
  -30.8561  -16.9279   21.2383 C   0  0  0  0  0  0  0  0  0  0  0  0
  -22.9519  -23.5032   20.6743 C   0  0  0  0  0  0  0  0  0  0  0  0
  -28.9947  -13.5572   20.7105 C   0  0  0  0  0  0  0  0  0  0  0  0
  -28.1039  -12.5255   20.4145 C   0  0  0  0  0  0  0  0  0  0  0  0
  -24.0021  -22.7336   18.6436 C   0  0  0  0  0  0  0  0  0  0  0  0
  -29.4675  -11.8907   18.5237 C   0  0  0  0  0  0  0  0  0  0  0  0
  -26.5172  -27.1724   21.1043 C   0  0  0  0  0  0  0  0  0  0  0  0
  -29.5352  -18.6615   20.1957 C   0  0  0  0  0  0  0  0  0  0  0  0
  -27.8238  -20.4654   20.7657 C   0  0  0  0  0  0  0  0  0  0  0  0
  -23.2658  -13.7460   21.1127 C   0  0  0  0  0  0  0  0  0  0  0  0
  -22.3191  -21.3638   19.7164 C   0  0  0  0  0  0  0  0  0  0  0  0
  -23.2738  -15.0968   21.5099 C   0  0  0  0  0  0  0  0  0  0  0  0
  -23.2275  -21.5638   18.6671 C   0  0  0  0  0  0  0  0  0  0  0  0
  -27.0909  -28.3182   20.5988 C   0  0  0  0  0  0  0  0  0  0  0  0
  -26.2486  -28.7914   19.5626 C   0  0  0  0  0  0  0  0  0  0  0  0
  -30.5235  -16.0528   20.2042 C   0  0  0  0  0  0  0  0  0  0  0  0
  -23.8660  -23.6970   19.6428 C   0  0  0  0  0  0  0  0  0  0  0  0
  -30.1219  -13.7557   19.9131 C   0  0  0  0  0  0  0  0  0  0  0  0
  -28.3403  -11.6923   19.3211 C   0  0  0  0  0  0  0  0  0  0  0  0
  -30.3583  -12.9225   18.8198 C   0  0  0  0  0  0  0  0  0  0  0  0
  -29.0255  -20.0092   20.1915 C   0  0  0  0  0  0  0  0  0  0  0  0
  -25.1857  -27.9205   19.4666 C   0  0  0  0  0  0  0  0  0  0  0  0
  -27.8006  -21.8107   20.4902 C   0  0  0  0  0  0  0  0  0  0  0  0
  -26.8185  -19.7380   21.4841 C   0  0  0  0  0  0  0  0  0  0  0  0
  -23.2005  -18.3100   19.6871 C   0  0  0  0  0  0  0  0  0  0  0  0
  -22.3364  -18.4947   16.5660 C   0  0  0  0  0  0  0  0  0  0  0  0
  -21.8347  -20.4426   13.8090 C   0  0  0  0  0  0  0  0  0  0  0  0
  -30.3498  -26.7679   20.2200 C   0  0  0  0  0  0  0  0  0  0  0  0
  -24.0120  -13.2743   19.8898 C   0  0  0  0  0  0  0  0  0  0  0  0
  -21.4583  -20.1310   19.7542 C   0  0  0  0  0  0  0  0  0  0  0  0
  -23.4019  -20.5516   17.5655 C   0  0  0  0  0  0  0  0  0  0  0  0
  -24.3759  -14.4009   18.9262 C   0  0  0  0  0  0  0  0  0  0  0  0
  -30.7046  -24.5937   17.4229 C   0  0  0  0  0  0  0  0  0  0  0  0
  -24.9720  -15.5816   19.6860 C   0  0  0  0  0  0  0  0  0  0  0  0
  -30.2064  -23.2442   17.9431 C   0  0  0  0  0  0  0  0  0  0  0  0
  -31.4577  -25.3707   18.5004 C   0  0  0  0  0  0  0  0  0  0  0  0
  -30.2200  -24.2036   20.2836 C   0  0  0  0  0  0  0  0  0  0  0  0
  -23.9626  -16.1615   20.6842 C   0  0  1  0  0  0  0  0  0  0  0  0
  -22.0520  -18.9635   18.9720 C   0  0  1  0  0  0  0  0  0  0  0  0
  -29.4060  -23.4076   19.2492 C   0  0  2  0  0  0  0  0  0  0  0  0
  -24.4098  -27.8018   17.0713 C   0  0  0  0  0  0  0  0  0  0  0  0
  -23.1266  -29.1828   18.7449 C   0  0  0  0  0  0  0  0  0  0  0  0
  -21.1661  -20.3040   11.3943 C   0  0  0  0  0  0  0  0  0  0  0  0
  -26.4264  -31.6695   20.4654 C   0  0  0  0  0  0  0  0  0  0  0  0
  -27.1818  -32.0969   18.1006 C   0  0  0  0  0  0  0  0  0  0  0  0
  -25.0991  -17.4048   15.8662 C   0  0  0  0  0  0  0  0  0  0  0  0
  -24.7299  -18.1746   13.5126 C   0  0  0  0  0  0  0  0  0  0  0  0
  -23.2270  -16.4512   14.5095 C   0  0  0  0  0  0  0  0  0  0  0  0
  -19.4703  -22.1685   14.2445 C   0  0  0  0  0  0  0  0  0  0  0  0
  -28.3534  -28.9281   21.0631 C   0  0  0  0  0  0  0  0  0  0  0  0
  -29.1760  -28.0308   22.0050 C   0  0  0  0  0  0  0  0  0  0  0  0
  -24.4330  -25.7799   20.6566 C   0  0  0  0  0  0  0  0  0  1  0  0
  -24.0171  -27.9337   18.5599 C   0  0  0  0  0  0  0  0  0  0  0  0
  -23.0426  -18.8519   15.2805 C   0  0  1  0  0  0  0  0  0  0  0  0
  -20.6841  -20.5132   12.8214 C   0  0  2  0  0  0  0  0  0  0  0  0
  -27.1423  -31.0998   19.2494 C   0  0  0  0  0  0  0  0  0  0  0  0
  -24.0230  -17.7390   14.8138 C   0  0  0  0  0  0  0  0  0  0  0  0
  -29.7156  -20.9855   19.5960 N   0  0  0  0  0  0  0  0  0  0  0  0
  -25.3594  -26.9405   20.4087 N   0  0  0  0  0  0  0  0  0  0  0  0
  -28.9450  -22.0685   19.7944 N   0  0  0  0  0  0  0  0  0  0  0  0
  -22.5418  -19.3597   17.6501 N   0  0  0  0  0  0  0  0  0  0  0  0
  -30.6433  -25.4916   19.7120 N   0  0  0  0  0  0  0  0  0  0  0  0
  -26.9130  -22.7865   20.7775 N   0  0  0  0  0  0  0  0  0  0  0  0
  -26.9999  -18.3618   21.6780 N   0  0  0  0  0  0  0  0  0  0  0  0
  -26.4452  -29.8922   18.8050 N   0  0  0  0  0  0  0  0  0  0  0  0
  -22.9867  -16.9807   19.9979 N   0  0  0  0  0  0  0  0  0  0  0  0
  -21.9964  -19.1701   14.3147 N   0  0  0  0  0  0  0  0  0  0  0  0
  -29.5670  -26.7932   21.3677 N   0  0  0  0  0  0  0  0  0  0  0  0
  -20.0138  -21.8418   12.9010 N   0  3  0  0  0  0  0  0  0  0  0  0
  -25.7820  -20.2890   21.9263 O   0  0  0  0  0  0  0  0  0  0  0  0
  -24.2069  -18.9631   19.9371 O   0  0  0  0  0  0  0  0  0  0  0  0
  -21.6228  -17.4892   16.6047 O   0  0  0  0  0  0  0  0  0  0  0  0
  -22.5237  -21.4179   14.0999 O   0  0  0  0  0  0  0  0  0  0  0  0
  -30.7509  -27.8080   19.6869 O   0  0  0  0  0  0  0  0  0  0  0  0
  -31.0057  -14.7800   20.2088 O   0  0  0  0  0  0  0  0  0  0  0  0
  -24.6226  -24.8275   19.6063 O   0  0  0  0  0  0  0  0  0  1  0  0
  -27.4855  -10.7006   19.0378 F   0  0  0  0  0  0  0  0  0  0  0  0
  -31.4400  -13.1076   18.0508 F   0  0  0  0  0  0  0  0  0  0  0  0
  1  2  1  0  0  0  0
  1  5  2  0  0  0  0
  2  6  2  0  0  0  0
  3  8  2  0  0  0  0
  3 16  1  0  0  0  0
  4  9  1  0  0  0  0
  4 16  2  0  0  0  0
  5 18  1  0  0  0  0
  6 20  1  0  0  0  0
  7 10  2  0  0  0  0
  7 19  1  0  0  0  0
  8 24  1  0  0  0  0
  9 24  2  0  0  0  0
 10 25  1  0  0  0  0
 11 12  2  0  0  0  0
 11 26  1  0  0  0  0
 12 27  1  0  0  0  0
 13 21  1  0  0  0  0
 13 25  2  0  0  0  0
 14 27  2  0  0  0  0
 14 28  1  0  0  0  0
 15 22  2  0  0  0  0
 15 67  1  0  0  0  0
 16 29  1  0  0  0  0
 17 29  1  0  0  0  0
 17 31  2  0  0  0  0
 17 32  1  0  0  0  0
 18 20  2  0  0  0  0
 18 37  1  0  0  0  0
 19 21  2  0  0  0  0
 19 38  1  0  0  0  0
 20 46  1  0  0  0  0
 21 39  1  0  0  0  0
 22 23  1  0  0  0  0
 22 58  1  0  0  0  0
 23 30  2  0  0  0  0
 23 73  1  0  0  0  0
 24 83  1  0  0  0  0
 25 84  1  0  0  0  0
 26 28  2  0  0  0  0
 26 83  1  0  0  0  0
 27 85  1  0  0  0  0
 28 86  1  0  0  0  0
 29 66  2  0  0  0  0
 30 61  1  0  0  0  0
 30 67  1  0  0  0  0
 31 68  1  0  0  0  0
 31 71  1  0  0  0  0
 32 72  1  0  0  0  0
 32 78  2  0  0  0  0
 33 47  1  0  0  0  0
 33 74  1  0  0  0  0
 33 79  2  0  0  0  0
 34 62  1  0  0  0  0
 34 69  1  0  0  0  0
 34 80  2  0  0  0  0
 35 63  1  0  0  0  0
 35 75  1  0  0  0  0
 35 81  2  0  0  0  0
 36 70  1  0  0  0  0
 36 76  1  0  0  0  0
 36 82  2  0  0  0  0
 37 40  1  0  0  0  0
 38 47  1  0  0  0  0
 39 69  1  0  0  0  0
 40 42  1  0  0  0  0
 41 43  1  0  0  0  0
 41 44  1  0  0  0  0
 42 46  1  0  0  0  0
 43 48  1  0  0  0  0
 44 70  1  0  0  0  0
 45 48  1  0  0  0  0
 45 70  1  0  0  0  0
 46 74  1  0  0  0  0
 47 69  1  0  0  0  0
 48 68  1  0  0  0  0
 49 61  1  0  0  0  0
 50 61  1  0  0  0  0
 51 63  1  0  0  0  0
 52 64  1  0  0  0  0
 53 64  1  0  0  0  0
 54 65  1  0  0  0  0
 55 65  1  0  0  0  0
 56 65  1  0  0  0  0
 57 77  1  0  0  0  0
 58 59  1  0  0  0  0
 59 76  1  0  0  0  0
 60 67  1  0  0  0  0
 60 84  1  0  0  0  0
 62 65  1  0  0  0  0
 62 75  1  0  0  0  0
 63 77  1  0  0  0  0
 64 73  1  0  0  0  0
 66 68  1  0  0  0  0
M  CHG  1  77   1
M  ISO  4  36 100  60 101  76 100  84 101
M  END
> <Batch ID>
0108

> <Smiles>
CNC(C)C(=O)NC(C(=O)N1Cc2cc([101O:1][101CH2:1]n3cc(CC[100NH:0][100C:0](=O)N4CCCC(n5nc(-c6ccc(Oc7ccc(F)cc7F)cc6)c(C(N)=O)c5N)C4)c(NC(C)C)c3C(C)C)ccc2CC1C(=O)NC1CCCc2ccccc21)C(C)(C)C

> <Shape>
0.238

> <Color>
0.054

> <Negative vol penalty>
0.000

$$$$

  -OEChem-04052319533D

 88 97  0     1  0  0  0  0  0999 V2000
  -15.5389  -27.4462   24.9169 C   0  0  0  0  0  0  0  0  0  0  0  0
  -16.1901  -26.2183   24.8568 C   0  0  0  0  0  0  0  0  0  0  0  0
  -30.7752  -20.7271   19.2702 C   0  0  0  0  0  0  0  0  0  0  0  0
  -28.7430  -20.1917   18.0784 C   0  0  0  0  0  0  0  0  0  0  0  0
  -16.0182  -28.5252   24.1753 C   0  0  0  0  0  0  0  0  0  0  0  0
  -17.3205  -26.0684   24.0542 C   0  0  0  0  0  0  0  0  0  0  0  0
  -24.6084  -16.2846   21.4697 C   0  0  0  0  0  0  0  0  0  0  0  0
  -22.2107  -22.5642   25.1999 C   0  0  0  0  0  0  0  0  0  0  0  0
  -24.1135  -17.4700   22.0133 C   0  0  0  0  0  0  0  0  0  0  0  0
  -31.0977  -21.6718   18.2960 C   0  0  0  0  0  0  0  0  0  0  0  0
  -29.0655  -21.1365   17.1042 C   0  0  0  0  0  0  0  0  0  0  0  0
  -22.5774  -21.2930   24.7603 C   0  0  0  0  0  0  0  0  0  0  0  0
  -32.2778  -24.4801   16.3121 C   0  0  0  0  0  0  0  0  0  0  0  0
  -32.7369  -25.7249   16.7427 C   0  0  0  0  0  0  0  0  0  0  0  0
  -23.9244  -22.2886   23.0243 C   0  0  0  0  0  0  0  0  0  0  0  0
  -23.9512  -16.4094   24.1780 C   0  0  0  0  0  0  0  0  0  0  0  0
  -30.6624  -26.0794   17.9292 C   0  0  0  0  0  0  0  0  0  0  0  0
  -29.5979  -19.9870   19.1614 C   0  0  0  0  0  0  0  0  0  0  0  0
  -28.5193  -19.2214   21.3427 C   0  0  0  0  0  0  0  0  0  0  0  0
  -17.1607  -28.3911   23.3708 C   0  0  0  0  0  0  0  0  0  0  0  0
  -22.6902  -23.7090   24.5472 C   0  0  0  0  0  0  0  0  0  0  0  0
  -17.8148  -27.1463   23.3002 C   0  0  0  0  0  0  0  0  0  0  0  0
  -24.7746  -15.1616   22.2802 C   0  0  0  0  0  0  0  0  0  0  0  0
  -23.5643  -23.5732   23.4592 C   0  0  0  0  0  0  0  0  0  0  0  0
  -23.7849  -17.5324   23.3675 C   0  0  0  0  0  0  0  0  0  0  0  0
  -24.4460  -15.2240   23.6344 C   0  0  0  0  0  0  0  0  0  0  0  0
  -30.2428  -21.8766   17.2130 C   0  0  0  0  0  0  0  0  0  0  0  0
  -23.4321  -21.1550   23.6705 C   0  0  0  0  0  0  0  0  0  0  0  0
  -31.0110  -24.0350   16.6900 C   0  0  0  0  0  0  0  0  0  0  0  0
  -31.9291  -26.5245   17.5512 C   0  0  0  0  0  0  0  0  0  0  0  0
  -30.2033  -24.8346   17.4986 C   0  0  0  0  0  0  0  0  0  0  0  0
  -29.2645  -19.0105   20.1671 C   0  0  0  0  0  0  0  0  0  0  0  0
  -28.4847  -17.9912   21.9525 C   0  0  0  0  0  0  0  0  0  0  0  0
  -27.9125  -20.4218   21.8390 C   0  0  0  0  0  0  0  0  0  0  0  0
  -21.3477  -26.1170   22.9652 C   0  0  0  0  0  0  0  0  0  0  0  0
  -24.3783  -27.2731   22.9333 C   0  0  0  0  0  0  0  0  0  0  0  0
  -27.7258  -26.6316   23.1048 C   0  0  0  0  0  0  0  0  0  0  0  0
  -28.1499  -12.3835   20.1354 C   0  0  0  0  0  0  0  0  0  0  0  0
  -17.6137  -29.5729   22.5505 C   0  0  0  0  0  0  0  0  0  0  0  0
  -22.3064  -25.0735   25.0504 C   0  0  0  0  0  0  0  0  0  0  0  0
  -24.1229  -24.7708   22.7366 C   0  0  0  0  0  0  0  0  0  0  0  0
  -19.0368  -29.4337   22.0159 C   0  0  0  0  0  0  0  0  0  0  0  0
  -31.1714  -13.8580   21.6824 C   0  0  0  0  0  0  0  0  0  0  0  0
  -19.2456  -28.0504   21.4078 C   0  0  0  0  0  0  0  0  0  0  0  0
  -30.9474  -15.3569   21.4844 C   0  0  0  0  0  0  0  0  0  0  0  0
  -30.4888  -13.0320   20.5957 C   0  0  0  0  0  0  0  0  0  0  0  0
  -25.7926  -11.7702   19.6882 C   0  0  0  0  0  0  0  0  0  0  0  0
  -26.2792  -14.0635   20.4758 C   0  0  0  0  0  0  0  0  0  0  0  0
  -28.8191  -14.8203   20.2387 C   0  0  0  0  0  0  0  0  0  0  0  0
  -24.8297  -11.5513   20.8434 C   0  0  0  0  0  0  0  0  0  0  0  0
  -19.0585  -26.9511   22.4604 C   0  0  1  0  0  0  0  0  0  0  0  0
  -25.3154  -13.8822   21.6658 C   0  0  2  0  0  0  0  0  0  0  0  0
  -22.4452  -26.1620   23.9905 C   0  0  1  0  0  0  0  0  0  0  0  0
  -29.4474  -15.6727   21.3511 C   0  0  2  0  0  0  0  0  0  0  0  0
  -24.6151  -14.0344   24.5216 C   0  0  0  0  0  0  0  0  0  0  0  0
  -29.9580  -27.7745   23.0104 C   0  0  0  0  0  0  0  0  0  0  0  0
  -21.2829  -12.9795   21.9980 C   0  0  0  0  0  0  0  0  0  0  0  0
  -20.7666  -13.1410   19.5453 C   0  0  0  0  0  0  0  0  0  0  0  0
  -24.1123  -27.5373   19.9052 C   0  0  0  0  0  0  0  0  0  0  0  0
  -26.6028  -27.7579   19.7756 C   0  0  0  0  0  0  0  0  0  0  0  0
  -25.2654  -29.4548   21.0224 C   0  0  0  0  0  0  0  0  0  0  0  0
  -28.4183  -25.7595   25.8469 C   0  0  0  0  0  0  0  0  0  0  0  0
  -23.2555  -18.7997   23.9486 C   0  0  0  0  0  0  0  0  0  1  0  0
  -23.1734  -13.3810   20.3403 C   0  0  0  0  0  0  0  0  0  0  0  0
  -25.5620  -27.1444   22.0052 C   0  0  1  0  0  0  0  0  0  0  0  0
  -28.8360  -27.2814   23.9109 C   0  0  2  0  0  0  0  0  0  0  0  0
  -21.8093  -12.7259   20.5845 C   0  0  0  0  0  0  0  0  0  0  0  0
  -25.3737  -27.9508   20.6893 C   0  0  0  0  0  0  0  0  0  0  0  0
  -29.6739  -17.7459   20.0359 N   0  0  0  0  0  0  0  0  0  0  0  0
  -29.1843  -17.1511   21.1371 N   0  0  0  0  0  0  0  0  0  0  0  0
  -23.7132  -26.0835   23.2624 N   0  0  0  0  0  0  0  0  0  0  0  0
  -29.0765  -13.3889   20.4577 N   0  0  0  0  0  0  0  0  0  0  0  0
  -26.8058  -12.7702   20.0174 N   0  0  0  0  0  0  0  0  0  0  0  0
  -27.9244  -17.5569   23.1014 N   0  0  0  0  0  0  0  0  0  0  0  0
  -28.0446  -21.5973   21.0872 N   0  0  0  0  0  0  0  0  0  0  0  0
  -20.2300  -26.8552   23.3048 N   0  0  0  0  0  0  0  0  0  0  0  0
  -26.7340  -27.5334   22.7820 N   0  0  0  0  0  0  0  0  0  0  0  0
  -24.2292  -12.8684   21.2879 N   0  3  1  0  0  0  0  0  0  0  0  0
  -29.4076  -26.3080   24.8839 N   0  3  0  0  0  0  0  0  0  0  0  0
  -27.2861  -20.4549   22.9253 O   0  0  0  0  0  0  0  0  0  0  0  0
  -21.5040  -25.4624   21.9411 O   0  0  0  0  0  0  0  0  0  0  0  0
  -24.0601  -28.3872   23.3566 O   0  0  0  0  0  0  0  0  0  0  0  0
  -27.7392  -25.4437   22.7896 O   0  0  0  0  0  0  0  0  0  0  0  0
  -28.5039  -11.2098   19.9671 O   0  0  0  0  0  0  0  0  0  0  0  0
  -30.5571  -22.7986   16.2624 O   0  0  0  0  0  0  0  0  0  0  0  0
  -23.7936  -19.9069   23.2360 O   0  0  0  0  0  0  0  0  0  1  0  0
  -32.3707  -27.7192   17.9659 F   0  0  0  0  0  0  0  0  0  0  0  0
  -28.9859  -24.4118   17.8659 F   0  0  0  0  0  0  0  0  0  0  0  0
  1  2  1  0  0  0  0
  1  5  2  0  0  0  0
  2  6  2  0  0  0  0
  3 10  2  0  0  0  0
  3 18  1  0  0  0  0
  4 11  1  0  0  0  0
  4 18  2  0  0  0  0
  5 20  1  0  0  0  0
  6 22  1  0  0  0  0
  7  9  2  0  0  0  0
  7 23  1  0  0  0  0
  8 12  2  0  0  0  0
  8 21  1  0  0  0  0
  9 25  1  0  0  0  0
 10 27  1  0  0  0  0
 11 27  2  0  0  0  0
 12 28  1  0  0  0  0
 13 14  2  0  0  0  0
 13 29  1  0  0  0  0
 14 30  1  0  0  0  0
 15 24  1  0  0  0  0
 15 28  2  0  0  0  0
 16 25  2  0  0  0  0
 16 26  1  0  0  0  0
 17 30  2  0  0  0  0
 17 31  1  0  0  0  0
 18 32  1  0  0  0  0
 19 32  1  0  0  0  0
 19 33  2  0  0  0  0
 19 34  1  0  0  0  0
 20 22  2  0  0  0  0
 20 39  1  0  0  0  0
 21 24  2  0  0  0  0
 21 40  1  0  0  0  0
 22 51  1  0  0  0  0
 23 26  2  0  0  0  0
 23 52  1  0  0  0  0
 24 41  1  0  0  0  0
 25 63  1  0  0  0  0
 26 55  1  0  0  0  0
 27 85  1  0  0  0  0
 28 86  1  0  0  0  0
 29 31  2  0  0  0  0
 29 85  1  0  0  0  0
 30 87  1  0  0  0  0
 31 88  1  0  0  0  0
 32 69  2  0  0  0  0
 33 70  1  0  0  0  0
 33 74  1  0  0  0  0
 34 75  1  0  0  0  0
 34 80  2  0  0  0  0
 35 53  1  0  0  0  0
 35 76  1  0  0  0  0
 35 81  2  0  0  0  0
 36 65  1  0  0  0  0
 36 71  1  0  0  0  0
 36 82  2  0  0  0  0
 37 66  1  0  0  0  0
 37 77  1  0  0  0  0
 37 83  2  0  0  0  0
 38 72  1  0  0  0  0
 38 73  1  0  0  0  0
 38 84  2  0  0  0  0
 39 42  1  0  0  0  0
 40 53  1  0  0  0  0
 41 71  1  0  0  0  0
 42 44  1  0  0  0  0
 43 45  1  0  0  0  0
 43 46  1  0  0  0  0
 44 51  1  0  0  0  0
 45 54  1  0  0  0  0
 46 72  1  0  0  0  0
 47 50  1  0  0  0  0
 47 73  1  0  0  0  0
 48 52  1  0  0  0  0
 48 73  1  0  0  0  0
 49 54  1  0  0  0  0
 49 72  1  0  0  0  0
 50 78  1  0  0  0  0
 51 76  1  0  0  0  0
 52 78  1  0  0  0  0
 53 71  1  0  0  0  0
 54 70  1  0  0  0  0
 56 66  1  0  0  0  0
 57 67  1  0  0  0  0
 58 67  1  0  0  0  0
 59 68  1  0  0  0  0
 60 68  1  0  0  0  0
 61 68  1  0  0  0  0
 62 79  1  0  0  0  0
 63 86  1  0  0  0  0
 64 67  1  0  0  0  0
 64 78  1  0  0  0  0
 65 68  1  0  0  0  0
 65 77  1  0  0  0  0
 66 79  1  0  0  0  0
 69 70  1  0  0  0  0
M  CHG  2  78   1  79   1
M  ISO  4  38 100  63 101  73 100  86 101
M  END
> <Batch ID>
0108

> <Smiles>
CNC(C)C(=O)NC(C(=O)N1Cc2cc([101O:1][101CH2:1]c3ccc(C4C[100N:0]([100C:0](=O)N5CCCC(n6nc(-c7ccc(Oc8ccc(F)cc8F)cc7)c(C(N)=O)c6N)C5)CCN4CC(C)C)c(C)c3)ccc2CC1C(=O)NC1CCCc2ccccc21)C(C)(C)C

> <Shape>
0.235

> <Color>
0.044

> <Negative vol penalty>
0.000

$$$$

  -OEChem-04052319533D

 85 93  0     1  0  0  0  0  0999 V2000
  -23.0127  -36.1293   22.1696 C   0  0  0  0  0  0  0  0  0  0  0  0
  -22.3301  -35.0051   21.7161 C   0  0  0  0  0  0  0  0  0  0  0  0
  -23.3625  -10.0250   22.2995 C   0  0  0  0  0  0  0  0  0  0  0  0
  -23.3512   -9.7454   19.8997 C   0  0  0  0  0  0  0  0  0  0  0  0
  -24.2999  -36.3964   21.7051 C   0  0  0  0  0  0  0  0  0  0  0  0
  -22.9339  -34.1479   20.7968 C   0  0  0  0  0  0  0  0  0  0  0  0
  -24.2722  -26.4650   21.2530 C   0  0  0  0  0  0  0  0  0  0  0  0
  -22.5642   -8.8894   22.4356 C   0  0  0  0  0  0  0  0  0  0  0  0
  -22.5529   -8.6097   20.0358 C   0  0  0  0  0  0  0  0  0  0  0  0
  -24.7046  -25.1390   21.2836 C   0  0  0  0  0  0  0  0  0  0  0  0
  -22.9749   -5.5337   22.3735 C   0  0  0  0  0  0  0  0  0  0  0  0
  -23.3253   -4.6091   23.3573 C   0  0  0  0  0  0  0  0  0  0  0  0
  -26.5077  -25.6807   19.7658 C   0  0  0  0  0  0  0  0  0  0  0  0
  -21.1803   -4.9292   24.4222 C   0  0  0  0  0  0  0  0  0  0  0  0
  -23.7560  -10.4531   21.0315 C   0  0  0  0  0  0  0  0  0  0  0  0
  -24.2722  -12.9365   21.3034 C   0  0  0  0  0  0  0  0  0  0  0  0
  -24.9235  -35.5368   20.7870 C   0  0  0  0  0  0  0  0  0  0  0  0
  -24.9659  -27.4083   20.4898 C   0  0  0  0  0  0  0  0  0  0  0  0
  -24.2301  -34.4045   20.3185 C   0  0  0  0  0  0  0  0  0  0  0  0
  -26.0866  -27.0129   19.7411 C   0  0  0  0  0  0  0  0  0  0  0  0
  -22.1594   -8.1817   21.3037 C   0  0  0  0  0  0  0  0  0  0  0  0
  -25.8194  -24.7478   20.5417 C   0  0  0  0  0  0  0  0  0  0  0  0
  -21.7272   -6.1562   22.4141 C   0  0  0  0  0  0  0  0  0  0  0  0
  -22.4280   -4.3068   24.3816 C   0  0  0  0  0  0  0  0  0  0  0  0
  -20.8300   -5.8539   23.4384 C   0  0  0  0  0  0  0  0  0  0  0  0
  -24.5803  -11.6264   20.8903 C   0  0  0  0  0  0  0  0  0  0  0  0
  -25.3720  -13.6771   20.9450 C   0  0  0  0  0  0  0  0  0  0  0  0
  -23.0969  -13.4390   21.9530 C   0  0  0  0  0  0  0  0  0  0  0  0
  -25.2461  -30.9796   19.3749 C   0  0  0  0  0  0  0  0  0  0  0  0
  -28.0993  -29.9852   19.9052 C   0  0  0  0  0  0  0  0  0  0  0  0
  -31.0352  -28.6372   21.0008 C   0  0  0  0  0  0  0  0  0  0  0  0
  -30.9050  -14.3417   20.6467 C   0  0  0  0  0  0  0  0  0  0  0  0
  -26.2977  -35.8925   20.2774 C   0  0  0  0  0  0  0  0  0  0  0  0
  -24.4995  -28.8344   20.3786 C   0  0  0  0  0  0  0  0  0  0  0  0
  -26.7812  -28.0546   18.9072 C   0  0  0  0  0  0  0  0  0  0  0  0
  -27.0114  -34.7318   19.5891 C   0  0  0  0  0  0  0  0  0  0  0  0
  -29.3396  -12.4863   18.0422 C   0  0  0  0  0  0  0  0  0  0  0  0
  -26.0724  -34.0319   18.6118 C   0  0  0  0  0  0  0  0  0  0  0  0
  -27.9394  -12.2002   18.5876 C   0  0  0  0  0  0  0  0  0  0  0  0
  -30.3952  -12.4390   19.1447 C   0  0  0  0  0  0  0  0  0  0  0  0
  -28.7151  -13.0157   20.8530 C   0  0  0  0  0  0  0  0  0  0  0  0
  -31.7884  -18.7015   22.0213 C   0  0  0  0  0  0  0  0  0  0  0  0
  -29.1084  -19.1393   21.0590 C   0  0  0  0  0  0  0  0  0  0  0  0
  -24.8610  -33.4375   19.3403 C   0  0  1  0  0  0  0  0  0  0  0  0
  -25.6581  -29.8408   20.2609 C   0  0  1  0  0  0  0  0  0  0  0  0
  -27.6089  -13.1075   19.7879 C   0  0  2  0  0  0  0  0  0  0  0  0
  -29.9861  -20.2822   21.5885 C   0  0  2  0  0  0  0  0  0  0  0  0
  -30.9539  -17.5338   21.4930 C   0  0  1  0  0  0  0  0  0  0  0  0
  -33.4740  -29.1709   21.2554 C   0  0  0  0  0  0  0  0  0  0  0  0
  -27.8027  -22.0424   22.6188 C   0  0  0  0  0  0  0  0  0  0  0  0
  -33.7396  -20.6981   21.5043 C   0  0  0  0  0  0  0  0  0  0  0  0
  -32.1158  -21.1769   23.3698 C   0  0  0  0  0  0  0  0  0  0  0  0
  -28.4953  -29.5883   16.9069 C   0  0  0  0  0  0  0  0  0  0  0  0
  -30.9252  -29.1830   17.3534 C   0  0  0  0  0  0  0  0  0  0  0  0
  -29.9065  -31.3893   17.9166 C   0  0  0  0  0  0  0  0  0  0  0  0
  -30.9225  -28.2945   23.9383 C   0  0  0  0  0  0  0  0  0  0  0  0
  -29.5498  -21.5743   20.8838 C   0  0  0  0  0  0  0  0  0  0  0  0
  -31.2661  -16.2310   22.2150 C   0  0  0  0  0  0  0  0  0  0  0  0
  -27.6347  -23.2174   20.3987 C   0  0  0  0  0  0  0  0  0  1  0  0
  -29.3512  -29.3700   19.3330 C   0  0  1  0  0  0  0  0  0  0  0  0
  -32.1093  -29.1792   21.9265 C   0  0  2  0  0  0  0  0  0  0  0  0
  -28.0683  -21.9304   21.1131 C   0  0  2  0  0  0  0  0  0  0  0  0
  -32.3009  -21.0379   21.8658 C   0  0  0  0  0  0  0  0  0  0  0  0
  -29.6496  -29.8668   17.8902 C   0  0  0  0  0  0  0  0  0  0  0  0
  -25.7816  -11.5367   20.3135 N   0  0  0  0  0  0  0  0  0  0  0  0
  -26.2381  -12.7999   20.3615 N   0  0  0  0  0  0  0  0  0  0  0  0
  -26.8962  -29.3103   19.6653 N   0  0  0  0  0  0  0  0  0  0  0  0
  -30.0228  -13.3223   20.2523 N   0  0  0  0  0  0  0  0  0  0  0  0
  -31.4190  -19.9749   21.3754 N   0  0  1  0  0  0  0  0  0  0  0  0
  -25.6730  -14.9866   21.0752 N   0  0  0  0  0  0  0  0  0  0  0  0
  -22.0389  -13.8994   21.1574 N   0  0  0  0  0  0  0  0  0  0  0  0
  -25.2271  -32.2072   20.0088 N   0  0  0  0  0  0  0  0  0  0  0  0
  -30.4160  -29.6447   20.2917 N   0  0  0  0  0  0  0  0  0  0  0  0
  -30.4721  -15.1376   21.7002 N   0  0  0  0  0  0  0  0  0  0  0  0
  -29.5099  -17.8588   21.7069 N   0  3  0  0  0  0  0  0  0  0  0  0
  -32.1897  -28.3548   23.1654 N   0  3  0  0  0  0  0  0  0  0  0  0
  -22.9948  -13.4937   23.2020 O   0  0  0  0  0  0  0  0  0  0  0  0
  -24.9672  -30.7619   18.2016 O   0  0  0  0  0  0  0  0  0  0  0  0
  -28.1821  -31.0385   20.5431 O   0  0  0  0  0  0  0  0  0  0  0  0
  -30.7742  -27.4394   20.9127 O   0  0  0  0  0  0  0  0  0  0  0  0
  -31.9952  -14.5320   20.0970 O   0  0  0  0  0  0  0  0  0  0  0  0
  -21.3805   -7.0733   21.4362 O   0  0  0  0  0  0  0  0  0  0  0  0
  -26.2389  -23.4527   20.5797 O   0  0  0  0  0  0  0  0  0  1  0  0
  -22.7640   -3.4177   25.3254 F   0  0  0  0  0  0  0  0  0  0  0  0
  -19.6294   -6.4478   23.4819 F   0  0  0  0  0  0  0  0  0  0  0  0
  1  2  1  0  0  0  0
  1  5  2  0  0  0  0
  2  6  2  0  0  0  0
  3  8  2  0  0  0  0
  3 15  1  0  0  0  0
  4  9  1  0  0  0  0
  4 15  2  0  0  0  0
  5 17  1  0  0  0  0
  6 19  1  0  0  0  0
  7 10  2  0  0  0  0
  7 18  1  0  0  0  0
  8 21  1  0  0  0  0
  9 21  2  0  0  0  0
 10 22  1  0  0  0  0
 11 12  2  0  0  0  0
 11 23  1  0  0  0  0
 12 24  1  0  0  0  0
 13 20  1  0  0  0  0
 13 22  2  0  0  0  0
 14 24  2  0  0  0  0
 14 25  1  0  0  0  0
 15 26  1  0  0  0  0
 16 26  1  0  0  0  0
 16 27  2  0  0  0  0
 16 28  1  0  0  0  0
 17 19  2  0  0  0  0
 17 33  1  0  0  0  0
 18 20  2  0  0  0  0
 18 34  1  0  0  0  0
 19 44  1  0  0  0  0
 20 35  1  0  0  0  0
 21 82  1  0  0  0  0
 22 83  1  0  0  0  0
 23 25  2  0  0  0  0
 23 82  1  0  0  0  0
 24 84  1  0  0  0  0
 25 85  1  0  0  0  0
 26 65  2  0  0  0  0
 27 66  1  0  0  0  0
 27 70  1  0  0  0  0
 28 71  1  0  0  0  0
 28 77  2  0  0  0  0
 29 45  1  0  0  0  0
 29 72  1  0  0  0  0
 29 78  2  0  0  0  0
 30 60  1  0  0  0  0
 30 67  1  0  0  0  0
 30 79  2  0  0  0  0
 31 61  1  0  0  0  0
 31 73  1  0  0  0  0
 31 80  2  0  0  0  0
 32 68  1  0  0  0  0
 32 74  1  0  0  0  0
 32 81  2  0  0  0  0
 33 36  1  0  0  0  0
 34 45  1  0  0  0  0
 35 67  1  0  0  0  0
 36 38  1  0  0  0  0
 37 39  1  0  0  0  0
 37 40  1  0  0  0  0
 38 44  1  0  0  0  0
 39 46  1  0  0  0  0
 40 68  1  0  0  0  0
 41 46  1  0  0  0  0
 41 68  1  0  0  0  0
 42 48  1  0  0  0  0
 42 69  1  0  0  0  0
 43 47  1  0  0  0  0
 43 75  1  0  0  0  0
 44 72  1  0  0  0  0
 45 67  1  0  0  0  0
 46 66  1  0  0  0  0
 47 57  1  0  0  0  0
 47 69  1  0  0  0  0
 48 58  1  0  0  0  0
 48 75  1  0  0  0  0
 49 61  1  0  0  0  0
 50 62  1  0  0  0  0
 51 63  1  0  0  0  0
 52 63  1  0  0  0  0
 53 64  1  0  0  0  0
 54 64  1  0  0  0  0
 55 64  1  0  0  0  0
 56 76  1  0  0  0  0
 57 62  1  0  0  0  0
 58 74  1  0  0  0  0
 59 62  1  0  0  0  0
 59 83  1  0  0  0  0
 60 64  1  0  0  0  0
 60 73  1  0  0  0  0
 61 76  1  0  0  0  0
 63 69  1  0  0  0  0
 65 66  1  0  0  0  0
M  CHG  2  75   1  76   1
M  ISO  4  32 100  59 101  74 100  83 101
M  END
> <Batch ID>
0108

> <Smiles>
CNC(C)C(=O)NC(C(=O)N1Cc2cc([101O:1][101CH2:1]C(C)CC3CNC(C[100NH:0][100C:0](=O)N4CCCC(n5nc(-c6ccc(Oc7ccc(F)cc7F)cc6)c(C(N)=O)c5N)C4)CN3C(C)C)ccc2CC1C(=O)NC1CCCc2ccccc21)C(C)(C)C

> <Shape>
0.273

> <Color>
0.170

> <Negative vol penalty>
0.000

$$$$

  -OEChem-04052319533D

 81 89  0     1  0  0  0  0  0999 V2000
  -19.8063  -33.1762   25.8950 C   0  0  0  0  0  0  0  0  0  0  0  0
  -19.7176  -32.1574   24.9517 C   0  0  0  0  0  0  0  0  0  0  0  0
  -23.2328  -10.1110   22.1937 C   0  0  0  0  0  0  0  0  0  0  0  0
  -23.8970   -9.4650   19.9624 C   0  0  0  0  0  0  0  0  0  0  0  0
  -20.9046  -34.0350   25.8905 C   0  0  0  0  0  0  0  0  0  0  0  0
  -20.7267  -31.9977   24.0027 C   0  0  0  0  0  0  0  0  0  0  0  0
  -22.0998  -27.1579   23.4228 C   0  0  0  0  0  0  0  0  0  0  0  0
  -22.4473   -8.9626   22.2924 C   0  0  0  0  0  0  0  0  0  0  0  0
  -23.1115   -8.3165   20.0611 C   0  0  0  0  0  0  0  0  0  0  0  0
  -21.2628  -26.3457   22.6589 C   0  0  0  0  0  0  0  0  0  0  0  0
  -22.9150   -5.6694   22.9000 C   0  0  0  0  0  0  0  0  0  0  0  0
  -22.9920   -4.9309   24.0808 C   0  0  0  0  0  0  0  0  0  0  0  0
  -22.7425  -26.6061   20.7717 C   0  0  0  0  0  0  0  0  0  0  0  0
  -20.6300   -5.2776   24.4518 C   0  0  0  0  0  0  0  0  0  0  0  0
  -23.9576  -10.3622   21.0287 C   0  0  0  0  0  0  0  0  0  0  0  0
  -26.1220  -11.6872   21.2884 C   0  0  0  0  0  0  0  0  0  0  0  0
  -21.9324  -33.8797   24.9471 C   0  0  0  0  0  0  0  0  0  0  0  0
  -23.2607  -27.7101   22.8627 C   0  0  0  0  0  0  0  0  0  0  0  0
  -21.8392  -32.8561   23.9848 C   0  0  0  0  0  0  0  0  0  0  0  0
  -23.5939  -27.4229   21.5313 C   0  0  0  0  0  0  0  0  0  0  0  0
  -22.3867   -8.0653   21.2262 C   0  0  0  0  0  0  0  0  0  0  0  0
  -21.5825  -26.0721   21.3323 C   0  0  0  0  0  0  0  0  0  0  0  0
  -21.6955   -6.2122   22.4951 C   0  0  0  0  0  0  0  0  0  0  0  0
  -21.8495   -4.7349   24.8566 C   0  0  0  0  0  0  0  0  0  0  0  0
  -20.5530   -6.0162   23.2710 C   0  0  0  0  0  0  0  0  0  0  0  0
  -24.7688  -11.5486   20.9259 C   0  0  0  0  0  0  0  0  0  0  0  0
  -26.4229  -12.9956   20.9982 C   0  0  0  0  0  0  0  0  0  0  0  0
  -27.0262  -10.7198   21.8381 C   0  0  0  0  0  0  0  0  0  0  0  0
  -24.3041  -30.6633   22.3210 C   0  0  0  0  0  0  0  0  0  0  0  0
  -27.0182  -29.1238   21.4342 C   0  0  0  0  0  0  0  0  0  0  0  0
  -28.4847  -26.2602   20.2959 C   0  0  0  0  0  0  0  0  0  0  0  0
  -25.3765  -18.2622   21.0347 C   0  0  0  0  0  0  0  0  0  0  0  0
  -23.0769  -34.8620   24.9520 C   0  0  0  0  0  0  0  0  0  0  0  0
  -24.1671  -28.5624   23.7079 C   0  0  0  0  0  0  0  0  0  0  0  0
  -24.8394  -27.9747   20.8888 C   0  0  0  0  0  0  0  0  0  0  0  0
  -24.2865  -34.3920   24.1481 C   0  0  0  0  0  0  0  0  0  0  0  0
  -25.5118  -21.6508   19.5432 C   0  0  0  0  0  0  0  0  0  0  0  0
  -23.8346  -16.4881   18.4258 C   0  0  0  0  0  0  0  0  0  0  0  0
  -23.8479  -33.8496   22.7915 C   0  0  0  0  0  0  0  0  0  0  0  0
  -24.2111  -22.2782   20.0383 C   0  0  0  0  0  0  0  0  0  0  0  0
  -24.0484  -15.0425   18.8736 C   0  0  0  0  0  0  0  0  0  0  0  0
  -26.0251  -20.5826   20.5026 C   0  0  0  0  0  0  0  0  0  0  0  0
  -23.4749  -17.4034   19.5972 C   0  0  0  0  0  0  0  0  0  0  0  0
  -23.7226  -20.1522   21.2983 C   0  0  0  0  0  0  0  0  0  0  0  0
  -24.6481  -15.8983   21.1705 C   0  0  0  0  0  0  0  0  0  0  0  0
  -22.9257  -32.6353   22.9548 C   0  0  1  0  0  0  0  0  0  0  0  0
  -25.0550  -29.4898   22.8838 C   0  0  1  0  0  0  0  0  0  0  0  0
  -23.1576  -21.2032   20.3367 C   0  0  1  0  0  0  0  0  0  0  0  0
  -25.0682  -14.9656   20.0239 C   0  0  1  0  0  0  0  0  0  0  0  0
  -30.7136  -25.3185   19.6306 C   0  0  0  0  0  0  0  0  0  0  0  0
  -26.8728  -30.6497   18.7960 C   0  0  0  0  0  0  0  0  0  0  0  0
  -28.5087  -29.0134   17.8397 C   0  0  0  0  0  0  0  0  0  0  0  0
  -29.1706  -30.4563   19.7639 C   0  0  0  0  0  0  0  0  0  0  0  0
  -28.3727  -24.1931   22.4109 C   0  0  0  0  0  0  0  0  0  0  0  0
  -21.8908  -21.8335   20.9111 C   0  0  0  0  0  0  0  0  0  0  0  0
  -21.0431  -22.4711   19.8095 C   0  0  0  0  0  0  0  0  0  0  0  0
  -20.0318  -24.2699   21.2731 C   0  0  0  0  0  0  0  0  0  1  0  0
  -27.5499  -28.5530   20.1418 C   0  0  1  0  0  0  0  0  0  0  0  0
  -29.7156  -25.5044   20.7630 C   0  0  2  0  0  0  0  0  0  0  0  0
  -19.7479  -23.1031   20.3307 C   0  0  1  0  0  0  0  0  0  0  0  0
  -28.0009  -29.6592   19.1466 C   0  0  0  0  0  0  0  0  0  0  0  0
  -24.2461  -12.6787   20.4426 N   0  0  0  0  0  0  0  0  0  0  0  0
  -25.2762  -13.5400   20.4994 N   0  0  0  0  0  0  0  0  0  0  0  0
  -25.6902  -28.8078   21.7544 N   0  0  0  0  0  0  0  0  0  0  0  0
  -24.9911  -19.5940   20.8070 N   0  0  0  0  0  0  0  0  0  0  0  0
  -24.4527  -17.2659   20.6848 N   0  0  0  0  0  0  0  0  0  0  0  0
  -27.5538  -13.7220   21.1238 N   0  0  0  0  0  0  0  0  0  0  0  0
  -26.5534   -9.4217   22.0740 N   0  0  0  0  0  0  0  0  0  0  0  0
  -23.6974  -31.4544   23.2778 N   0  0  0  0  0  0  0  0  0  0  0  0
  -28.6053  -27.6166   20.5128 N   0  0  0  0  0  0  0  0  0  0  0  0
  -18.9474  -23.6230   19.1826 N   0  3  0  0  0  0  0  0  0  0  0  0
  -29.3330  -24.1593   21.2780 N   0  3  0  0  0  0  0  0  0  0  0  0
  -28.2136  -11.0027   22.1273 O   0  0  0  0  0  0  0  0  0  0  0  0
  -24.2785  -30.8389   21.1084 O   0  0  0  0  0  0  0  0  0  0  0  0
  -27.7562  -29.8184   22.1374 O   0  0  0  0  0  0  0  0  0  0  0  0
  -27.5149  -25.7035   19.7859 O   0  0  0  0  0  0  0  0  0  0  0  0
  -26.4804  -17.9817   21.5184 O   0  0  0  0  0  0  0  0  0  0  0  0
  -21.6205   -6.9445   21.3222 O   0  0  0  0  0  0  0  0  0  0  0  0
  -20.7613  -25.2748   20.5792 O   0  0  0  0  0  0  0  0  0  1  0  0
  -21.9234   -4.0244   25.9897 F   0  0  0  0  0  0  0  0  0  0  0  0
  -19.3783   -6.5342   22.8866 F   0  0  0  0  0  0  0  0  0  0  0  0
  1  2  1  0  0  0  0
  1  5  2  0  0  0  0
  2  6  2  0  0  0  0
  3  8  2  0  0  0  0
  3 15  1  0  0  0  0
  4  9  1  0  0  0  0
  4 15  2  0  0  0  0
  5 17  1  0  0  0  0
  6 19  1  0  0  0  0
  7 10  2  0  0  0  0
  7 18  1  0  0  0  0
  8 21  1  0  0  0  0
  9 21  2  0  0  0  0
 10 22  1  0  0  0  0
 11 12  2  0  0  0  0
 11 23  1  0  0  0  0
 12 24  1  0  0  0  0
 13 20  1  0  0  0  0
 13 22  2  0  0  0  0
 14 24  2  0  0  0  0
 14 25  1  0  0  0  0
 15 26  1  0  0  0  0
 16 26  1  0  0  0  0
 16 27  2  0  0  0  0
 16 28  1  0  0  0  0
 17 19  2  0  0  0  0
 17 33  1  0  0  0  0
 18 20  2  0  0  0  0
 18 34  1  0  0  0  0
 19 46  1  0  0  0  0
 20 35  1  0  0  0  0
 21 78  1  0  0  0  0
 22 79  1  0  0  0  0
 23 25  2  0  0  0  0
 23 78  1  0  0  0  0
 24 80  1  0  0  0  0
 25 81  1  0  0  0  0
 26 62  2  0  0  0  0
 27 63  1  0  0  0  0
 27 67  1  0  0  0  0
 28 68  1  0  0  0  0
 28 73  2  0  0  0  0
 29 47  1  0  0  0  0
 29 69  1  0  0  0  0
 29 74  2  0  0  0  0
 30 58  1  0  0  0  0
 30 64  1  0  0  0  0
 30 75  2  0  0  0  0
 31 59  1  0  0  0  0
 31 70  1  0  0  0  0
 31 76  2  0  0  0  0
 32 65  1  0  0  0  0
 32 66  1  0  0  0  0
 32 77  2  0  0  0  0
 33 36  1  0  0  0  0
 34 47  1  0  0  0  0
 35 64  1  0  0  0  0
 36 39  1  0  0  0  0
 37 40  1  0  0  0  0
 37 42  1  0  0  0  0
 38 41  1  0  0  0  0
 38 43  1  0  0  0  0
 39 46  1  0  0  0  0
 40 48  1  0  0  0  0
 41 49  1  0  0  0  0
 42 65  1  0  0  0  0
 43 66  1  0  0  0  0
 44 48  1  0  0  0  0
 44 65  1  0  0  0  0
 45 49  1  0  0  0  0
 45 66  1  0  0  0  0
 46 69  1  0  0  0  0
 47 64  1  0  0  0  0
 48 55  1  0  0  0  0
 49 63  1  0  0  0  0
 50 59  1  0  0  0  0
 51 61  1  0  0  0  0
 52 61  1  0  0  0  0
 53 61  1  0  0  0  0
 54 72  1  0  0  0  0
 55 56  1  0  0  0  0
 56 60  1  0  0  0  0
 57 60  1  0  0  0  0
 57 79  1  0  0  0  0
 58 61  1  0  0  0  0
 58 70  1  0  0  0  0
 59 72  1  0  0  0  0
 60 71  1  0  0  0  0
 62 63  1  0  0  0  0
M  CHG  2  71   1  72   1
M  ISO  4  32 100  57 101  65 100  79 101
M  END
> <Batch ID>
0108

> <Smiles>
CNC(C)C(=O)NC(C(=O)N1Cc2cc([101O:1][101CH2:1]C(N)CCC3CCC[100N:0]([100C:0](=O)N4CCCC(n5nc(-c6ccc(Oc7ccc(F)cc7F)cc6)c(C(N)=O)c5N)C4)C3)ccc2CC1C(=O)NC1CCCc2ccccc21)C(C)(C)C

> <Shape>
0.216

> <Color>
0.079

> <Negative vol penalty>
0.000

$$$$

  -OEChem-04052319533D

 77 84  0     1  0  0  0  0  0999 V2000
  -24.7940  -36.4584   21.9656 C   0  0  0  0  0  0  0  0  0  0  0  0
  -25.5937  -35.7789   21.0523 C   0  0  0  0  0  0  0  0  0  0  0  0
  -26.4253  -12.9835   21.7235 C   0  0  0  0  0  0  0  0  0  0  0  0
  -25.6787  -13.4556   19.4747 C   0  0  0  0  0  0  0  0  0  0  0  0
  -24.5563  -35.9104   23.2254 C   0  0  0  0  0  0  0  0  0  0  0  0
  -26.1571  -34.5512   21.3987 C   0  0  0  0  0  0  0  0  0  0  0  0
  -28.0626  -28.2729   18.5233 C   0  0  0  0  0  0  0  0  0  0  0  0
  -25.6277  -11.8395   21.7482 C   0  0  0  0  0  0  0  0  0  0  0  0
  -24.8812  -12.3115   19.4994 C   0  0  0  0  0  0  0  0  0  0  0  0
  -29.1572  -27.4132   18.4425 C   0  0  0  0  0  0  0  0  0  0  0  0
  -23.5111   -8.9892   22.5349 C   0  0  0  0  0  0  0  0  0  0  0  0
  -22.7467   -8.7542   23.6777 C   0  0  0  0  0  0  0  0  0  0  0  0
  -28.6131  -26.5256   20.6185 C   0  0  0  0  0  0  0  0  0  0  0  0
  -21.5966  -10.8519   23.3398 C   0  0  0  0  0  0  0  0  0  0  0  0
  -26.4508  -13.7916   20.5868 C   0  0  0  0  0  0  0  0  0  0  0  0
  -28.6129  -15.0683   20.1361 C   0  0  0  0  0  0  0  0  0  0  0  0
  -25.1092  -34.6708   23.5840 C   0  0  0  0  0  0  0  0  0  0  0  0
  -27.2400  -28.2731   19.6590 C   0  0  0  0  0  0  0  0  0  0  0  0
  -25.9277  -33.9867   22.6650 C   0  0  0  0  0  0  0  0  0  0  0  0
  -27.5071  -27.3844   20.7102 C   0  0  0  0  0  0  0  0  0  0  0  0
  -24.8557  -11.5035   20.6361 C   0  0  0  0  0  0  0  0  0  0  0  0
  -29.4343  -26.5414   19.4914 C   0  0  0  0  0  0  0  0  0  0  0  0
  -23.3183  -10.1556   21.7945 C   0  0  0  0  0  0  0  0  0  0  0  0
  -21.7894   -9.6855   24.0802 C   0  0  0  0  0  0  0  0  0  0  0  0
  -22.3611  -11.0869   22.1970 C   0  0  0  0  0  0  0  0  0  0  0  0
  -27.2741  -14.9739   20.5609 C   0  0  0  0  0  0  0  0  0  0  0  0
  -28.9345  -16.3927   20.3064 C   0  0  0  0  0  0  0  0  0  0  0  0
  -29.4875  -14.0500   19.6324 C   0  0  0  0  0  0  0  0  0  0  0  0
  -26.4781  -30.4190   21.8766 C   0  0  0  0  0  0  0  0  0  0  0  0
  -24.4204  -28.1079   22.8497 C   0  0  0  0  0  0  0  0  0  0  0  0
  -23.6201  -24.7915   22.9385 C   0  0  0  0  0  0  0  0  0  0  0  0
  -27.6802  -21.8082   19.8112 C   0  0  0  0  0  0  0  0  0  0  0  0
  -24.8627  -34.1409   24.9743 C   0  0  0  0  0  0  0  0  0  0  0  0
  -26.0475  -29.1878   19.7192 C   0  0  0  0  0  0  0  0  0  0  0  0
  -26.6429  -27.3312   21.9425 C   0  0  0  0  0  0  0  0  0  0  0  0
  -25.1910  -32.6581   25.1281 C   0  0  0  0  0  0  0  0  0  0  0  0
  -26.4539  -20.1034   22.6864 C   0  0  0  0  0  0  0  0  0  0  0  0
  -26.5444  -32.3429   24.4989 C   0  0  0  0  0  0  0  0  0  0  0  0
  -26.6626  -18.6253   22.3520 C   0  0  0  0  0  0  0  0  0  0  0  0
  -26.0563  -20.9105   21.4525 C   0  0  0  0  0  0  0  0  0  0  0  0
  -27.1772  -19.2944   19.9674 C   0  0  0  0  0  0  0  0  0  0  0  0
  -26.5364  -32.6410   22.9947 C   0  0  1  0  0  0  0  0  0  0  0  0
  -25.5781  -29.4645   21.1441 C   0  0  1  0  0  0  0  0  0  0  0  0
  -27.6340  -18.4498   21.1692 C   0  0  2  0  0  0  0  0  0  0  0  0
  -21.8985  -23.2040   23.8403 C   0  0  0  0  0  0  0  0  0  0  0  0
  -25.6463  -28.3629   25.6321 C   0  0  0  0  0  0  0  0  0  0  0  0
  -24.5960  -26.1675   26.2200 C   0  0  0  0  0  0  0  0  0  0  0  0
  -23.1582  -28.1118   25.6074 C   0  0  0  0  0  0  0  0  0  0  0  0
  -31.9939  -23.4669   16.7578 C   0  0  0  0  0  0  0  0  0  0  0  0
  -32.8606  -23.9982   19.0397 C   0  0  0  0  0  0  0  0  0  0  0  0
  -22.8577  -23.8933   20.2236 C   0  0  0  0  0  0  0  0  0  0  0  0
  -30.6743  -22.8028   18.8311 C   0  0  0  0  0  0  0  0  0  0  0  0
  -29.3422  -22.5534   18.1255 C   0  0  0  0  0  0  0  0  0  0  0  0
  -30.8918  -25.2622   18.1148 C   0  0  0  0  0  0  0  0  0  1  0  0
  -24.4958  -26.9437   23.8078 C   0  0  1  0  0  0  0  0  0  0  0  0
  -22.3194  -24.0613   22.6568 C   0  0  2  0  0  0  0  0  0  0  0  0
  -24.4917  -27.3986   25.2946 C   0  0  0  0  0  0  0  0  0  0  0  0
  -31.5826  -23.8830   18.1813 C   0  0  0  0  0  0  0  0  0  0  0  0
  -26.7792  -16.1449   20.9705 N   0  0  0  0  0  0  0  0  0  0  0  0
  -27.8126  -16.9878   20.8038 N   0  0  0  0  0  0  0  0  0  0  0  0
  -25.4923  -28.2495   21.9570 N   0  0  0  0  0  0  0  0  0  0  0  0
  -27.0189  -20.7011   20.3683 N   0  0  0  0  0  0  0  0  0  0  0  0
  -30.0647  -17.0947   20.0777 N   0  0  0  0  0  0  0  0  0  0  0  0
  -28.9962  -12.7420   19.5218 N   0  0  0  0  0  0  0  0  0  0  0  0
  -25.8554  -31.5868   22.2742 N   0  0  0  0  0  0  0  0  0  0  0  0
  -23.3975  -26.0513   23.4530 N   0  0  0  0  0  0  0  0  0  0  0  0
  -28.5808  -21.5210   18.7928 N   0  0  0  0  0  0  0  0  0  0  0  0
  -22.4687  -23.1778   21.4660 N   0  3  0  0  0  0  0  0  0  0  0  0
  -30.6748  -14.2895   19.3060 O   0  0  0  0  0  0  0  0  0  0  0  0
  -27.6504  -30.1177   22.0683 O   0  0  0  0  0  0  0  0  0  0  0  0
  -23.4431  -28.8595   22.8870 O   0  0  0  0  0  0  0  0  0  0  0  0
  -24.7233  -24.2927   22.7271 O   0  0  0  0  0  0  0  0  0  0  0  0
  -27.4865  -22.9661   20.1968 O   0  0  0  0  0  0  0  0  0  0  0  0
  -24.0775  -10.3870   20.6597 O   0  0  0  0  0  0  0  0  0  0  0  0
  -30.5025  -25.7017   19.4154 O   0  0  0  0  0  0  0  0  0  1  0  0
  -21.0544   -9.4589   25.1768 F   0  0  0  0  0  0  0  0  0  0  0  0
  -22.1705  -12.2087   21.4892 F   0  0  0  0  0  0  0  0  0  0  0  0
  1  2  1  0  0  0  0
  1  5  2  0  0  0  0
  2  6  2  0  0  0  0
  3  8  2  0  0  0  0
  3 15  1  0  0  0  0
  4  9  1  0  0  0  0
  4 15  2  0  0  0  0
  5 17  1  0  0  0  0
  6 19  1  0  0  0  0
  7 10  2  0  0  0  0
  7 18  1  0  0  0  0
  8 21  1  0  0  0  0
  9 21  2  0  0  0  0
 10 22  1  0  0  0  0
 11 12  2  0  0  0  0
 11 23  1  0  0  0  0
 12 24  1  0  0  0  0
 13 20  1  0  0  0  0
 13 22  2  0  0  0  0
 14 24  2  0  0  0  0
 14 25  1  0  0  0  0
 15 26  1  0  0  0  0
 16 26  1  0  0  0  0
 16 27  2  0  0  0  0
 16 28  1  0  0  0  0
 17 19  2  0  0  0  0
 17 33  1  0  0  0  0
 18 20  2  0  0  0  0
 18 34  1  0  0  0  0
 19 42  1  0  0  0  0
 20 35  1  0  0  0  0
 21 74  1  0  0  0  0
 22 75  1  0  0  0  0
 23 25  2  0  0  0  0
 23 74  1  0  0  0  0
 24 76  1  0  0  0  0
 25 77  1  0  0  0  0
 26 59  2  0  0  0  0
 27 60  1  0  0  0  0
 27 63  1  0  0  0  0
 28 64  1  0  0  0  0
 28 69  2  0  0  0  0
 29 43  1  0  0  0  0
 29 65  1  0  0  0  0
 29 70  2  0  0  0  0
 30 55  1  0  0  0  0
 30 61  1  0  0  0  0
 30 71  2  0  0  0  0
 31 56  1  0  0  0  0
 31 66  1  0  0  0  0
 31 72  2  0  0  0  0
 32 62  1  0  0  0  0
 32 67  1  0  0  0  0
 32 73  2  0  0  0  0
 33 36  1  0  0  0  0
 34 43  1  0  0  0  0
 35 61  1  0  0  0  0
 36 38  1  0  0  0  0
 37 39  1  0  0  0  0
 37 40  1  0  0  0  0
 38 42  1  0  0  0  0
 39 44  1  0  0  0  0
 40 62  1  0  0  0  0
 41 44  1  0  0  0  0
 41 62  1  0  0  0  0
 42 65  1  0  0  0  0
 43 61  1  0  0  0  0
 44 60  1  0  0  0  0
 45 56  1  0  0  0  0
 46 57  1  0  0  0  0
 47 57  1  0  0  0  0
 48 57  1  0  0  0  0
 49 58  1  0  0  0  0
 50 58  1  0  0  0  0
 51 68  1  0  0  0  0
 52 53  1  0  0  0  0
 52 58  1  0  0  0  0
 53 67  1  0  0  0  0
 54 58  1  0  0  0  0
 54 75  1  0  0  0  0
 55 57  1  0  0  0  0
 55 66  1  0  0  0  0
 56 68  1  0  0  0  0
 59 60  1  0  0  0  0
M  CHG  1  68   1
M  ISO  4  32 100  54 101  67 100  75 101
M  END
> <Batch ID>
0108

> <Smiles>
CNC(C)C(=O)NC(C(=O)N1Cc2cc([101O:1][101CH2:1]C(C)(C)CC[100NH:0][100C:0](=O)N3CCCC(n4nc(-c5ccc(Oc6ccc(F)cc6F)cc5)c(C(N)=O)c4N)C3)ccc2CC1C(=O)NC1CCCc2ccccc21)C(C)(C)C

> <Shape>
0.260

> <Color>
0.077

> <Negative vol penalty>
0.000

$$$$

  -OEChem-04052319533D

 85 93  0     1  0  0  0  0  0999 V2000
  -27.8301  -20.4661   15.2883 C   0  0  0  0  0  0  0  0  0  0  0  0
  -28.1421  -19.3044   15.9856 C   0  0  0  0  0  0  0  0  0  0  0  0
  -26.2084  -29.2433   19.4688 C   0  0  0  0  0  0  0  0  0  0  0  0
  -26.0336  -28.4887   21.7573 C   0  0  0  0  0  0  0  0  0  0  0  0
  -26.6887  -21.1909   15.6244 C   0  0  0  0  0  0  0  0  0  0  0  0
  -27.3064  -18.8607   17.0111 C   0  0  0  0  0  0  0  0  0  0  0  0
  -28.3208  -14.4666   18.9773 C   0  0  0  0  0  0  0  0  0  0  0  0
  -29.6043  -18.8686   24.8789 C   0  0  0  0  0  0  0  0  0  0  0  0
  -28.6558  -19.8873   24.9693 C   0  0  0  0  0  0  0  0  0  0  0  0
  -24.9907  -29.9115   19.5961 C   0  0  0  0  0  0  0  0  0  0  0  0
  -24.8159  -29.1570   21.8846 C   0  0  0  0  0  0  0  0  0  0  0  0
  -29.4203  -14.2473   19.8060 C   0  0  0  0  0  0  0  0  0  0  0  0
  -21.4868  -30.3650   22.7019 C   0  0  0  0  0  0  0  0  0  0  0  0
  -20.4370  -29.6872   23.3216 C   0  0  0  0  0  0  0  0  0  0  0  0
  -27.9637  -14.2500   21.7290 C   0  0  0  0  0  0  0  0  0  0  0  0
  -30.2652  -19.6773   22.7003 C   0  0  0  0  0  0  0  0  0  0  0  0
  -20.5408  -27.9729   21.6224 C   0  0  0  0  0  0  0  0  0  0  0  0
  -26.7299  -28.5319   20.5494 C   0  0  0  0  0  0  0  0  0  0  0  0
  -29.2710  -28.3537   20.6857 C   0  0  0  0  0  0  0  0  0  0  0  0
  -25.8459  -20.7619   16.6629 C   0  0  0  0  0  0  0  0  0  0  0  0
  -27.0337  -14.5902   19.5201 C   0  0  0  0  0  0  0  0  0  0  0  0
  -26.1370  -19.5654   17.3493 C   0  0  0  0  0  0  0  0  0  0  0  0
  -26.8492  -14.4682   20.9047 C   0  0  0  0  0  0  0  0  0  0  0  0
  -30.4090  -18.7636   23.7443 C   0  0  0  0  0  0  0  0  0  0  0  0
  -28.5119  -20.8010   23.9252 C   0  0  0  0  0  0  0  0  0  0  0  0
  -29.3166  -20.6960   22.7907 C   0  0  0  0  0  0  0  0  0  0  0  0
  -24.2944  -29.8684   20.8040 C   0  0  0  0  0  0  0  0  0  0  0  0
  -29.2422  -14.1419   21.1824 C   0  0  0  0  0  0  0  0  0  0  0  0
  -22.0636  -29.8468   21.5423 C   0  0  0  0  0  0  0  0  0  0  0  0
  -19.9640  -28.4911   22.7819 C   0  0  0  0  0  0  0  0  0  0  0  0
  -21.5906  -28.6507   21.0026 C   0  0  0  0  0  0  0  0  0  0  0  0
  -27.9875  -27.8409   20.4184 C   0  0  0  0  0  0  0  0  0  0  0  0
  -30.1217  -27.3117   20.4079 C   0  0  0  0  0  0  0  0  0  0  0  0
  -29.6596  -29.6554   21.1441 C   0  0  0  0  0  0  0  0  0  0  0  0
  -24.8401  -16.8895   19.5900 C   0  0  0  0  0  0  0  0  0  0  0  0
  -23.0267  -14.5809   20.9699 C   0  0  0  0  0  0  0  0  0  0  0  0
  -22.9025  -11.6643   22.7377 C   0  0  0  0  0  0  0  0  0  0  0  0
  -29.4297  -21.3766   20.3678 C   0  0  0  0  0  0  0  0  0  0  0  0
  -24.6191  -21.5804   16.9797 C   0  0  0  0  0  0  0  0  0  0  0  0
  -25.8546  -14.7999   18.6101 C   0  0  0  0  0  0  0  0  0  0  0  0
  -25.4855  -14.5732   21.5354 C   0  0  0  0  0  0  0  0  0  0  0  0
  -24.0430  -21.2785   18.3593 C   0  0  0  0  0  0  0  0  0  0  0  0
  -30.4941  -23.4148   17.6493 C   0  0  0  0  0  0  0  0  0  0  0  0
  -23.8931  -19.7757   18.5425 C   0  0  0  0  0  0  0  0  0  0  0  0
  -30.0943  -24.8285   18.0779 C   0  0  0  0  0  0  0  0  0  0  0  0
  -29.4658  -22.3757   18.0928 C   0  0  0  0  0  0  0  0  0  0  0  0
  -28.7324  -23.8171   19.9512 C   0  0  0  0  0  0  0  0  0  0  0  0
  -25.2593  -19.0801   18.4888 C   0  0  1  0  0  0  0  0  0  0  0  0
  -24.6561  -15.4231   19.3190 C   0  0  1  0  0  0  0  0  0  0  0  0
  -29.7699  -24.8904   19.5834 C   0  0  2  0  0  0  0  0  0  0  0  0
  -27.7701  -22.8247   25.2321 C   0  0  0  0  0  0  0  0  0  0  0  0
  -26.0564  -21.3230   24.1536 C   0  0  0  0  0  0  0  0  0  0  0  0
  -21.2774  -10.0418   23.7494 C   0  0  0  0  0  0  0  0  0  0  0  0
  -32.5536  -13.3067   21.3548 C   0  0  0  0  0  0  0  0  0  0  0  0
  -22.5076  -16.5315   23.2580 C   0  0  0  0  0  0  0  0  0  0  0  0
  -21.7123  -14.5970   24.6341 C   0  0  0  0  0  0  0  0  0  0  0  0
  -20.5086  -15.2125   22.5377 C   0  0  0  0  0  0  0  0  0  0  0  0
  -23.8821   -9.4462   21.0408 C   0  0  0  0  0  0  0  0  0  0  0  0
  -31.4291  -17.6677   23.6480 C   0  0  0  0  0  0  0  0  0  0  0  0
  -32.0382  -15.5024   22.5621 C   0  0  0  0  0  0  0  0  0  0  0  0
  -27.4871  -21.8814   24.0490 C   0  0  0  0  0  0  0  0  0  0  0  0
  -22.7821  -14.1170   22.3855 C   0  0  1  0  0  0  0  0  0  0  0  0
  -22.1068  -10.3895   22.5231 C   0  0  2  0  0  0  0  0  0  0  0  0
  -31.5696  -14.4508   21.5616 C   0  0  2  0  0  0  0  0  0  1  0  0
  -21.9037  -15.1144   23.1925 C   0  0  0  0  0  0  0  0  0  0  0  0
  -28.0154  -26.5719   20.0026 N   0  0  0  0  0  0  0  0  0  0  0  0
  -29.3269  -26.2785   20.0065 N   0  0  0  0  0  0  0  0  0  0  0  0
  -24.3649  -14.7847   20.6043 N   0  0  0  0  0  0  0  0  0  0  0  0
  -29.2119  -22.4912   19.5305 N   0  0  0  0  0  0  0  0  0  0  0  0
  -31.4645  -27.1876   20.4704 N   0  0  0  0  0  0  0  0  0  0  0  0
  -28.6582  -30.6070   21.3806 N   0  0  0  0  0  0  0  0  0  0  0  0
  -29.1860  -21.6149   21.7200 N   0  0  0  0  0  0  0  0  0  0  0  0
  -25.0589  -17.6481   18.4559 N   0  0  0  0  0  0  0  0  0  0  0  0
  -22.2214  -12.7740   22.2839 N   0  0  0  0  0  0  0  0  0  0  0  0
  -23.0226   -9.2493   22.2364 N   0  3  0  0  0  0  0  0  0  0  0  0
  -31.0232  -16.5727   22.7256 N   0  3  0  0  0  0  0  0  0  0  0  0
  -30.8605  -29.9707   21.3225 O   0  0  0  0  0  0  0  0  0  0  0  0
  -24.7860  -17.3024   20.7425 O   0  0  0  0  0  0  0  0  0  0  0  0
  -22.0665  -14.7491   20.2141 O   0  0  0  0  0  0  0  0  0  0  0  0
  -24.0153  -11.6751   23.2593 O   0  0  0  0  0  0  0  0  0  0  0  0
  -29.8309  -20.2986   19.9219 O   0  0  0  0  0  0  0  0  0  0  0  0
  -23.1063  -30.5205   20.9286 O   0  0  0  0  0  0  0  0  0  0  0  0
  -30.3138  -13.9286   21.9936 O   0  0  0  0  0  0  0  0  0  1  0  0
  -18.9569  -27.8395   23.3780 F   0  0  0  0  0  0  0  0  0  0  0  0
  -22.1415  -28.1473   19.8895 F   0  0  0  0  0  0  0  0  0  0  0  0
  1  2  1  0  0  0  0
  1  5  2  0  0  0  0
  2  6  2  0  0  0  0
  3 10  2  0  0  0  0
  3 18  1  0  0  0  0
  4 11  1  0  0  0  0
  4 18  2  0  0  0  0
  5 20  1  0  0  0  0
  6 22  1  0  0  0  0
  7 12  2  0  0  0  0
  7 21  1  0  0  0  0
  8  9  2  0  0  0  0
  8 24  1  0  0  0  0
  9 25  1  0  0  0  0
 10 27  1  0  0  0  0
 11 27  2  0  0  0  0
 12 28  1  0  0  0  0
 13 14  2  0  0  0  0
 13 29  1  0  0  0  0
 14 30  1  0  0  0  0
 15 23  1  0  0  0  0
 15 28  2  0  0  0  0
 16 24  2  0  0  0  0
 16 26  1  0  0  0  0
 17 30  2  0  0  0  0
 17 31  1  0  0  0  0
 18 32  1  0  0  0  0
 19 32  1  0  0  0  0
 19 33  2  0  0  0  0
 19 34  1  0  0  0  0
 20 22  2  0  0  0  0
 20 39  1  0  0  0  0
 21 23  2  0  0  0  0
 21 40  1  0  0  0  0
 22 48  1  0  0  0  0
 23 41  1  0  0  0  0
 24 59  1  0  0  0  0
 25 26  2  0  0  0  0
 25 61  1  0  0  0  0
 26 72  1  0  0  0  0
 27 82  1  0  0  0  0
 28 83  1  0  0  0  0
 29 31  2  0  0  0  0
 29 82  1  0  0  0  0
 30 84  1  0  0  0  0
 31 85  1  0  0  0  0
 32 66  2  0  0  0  0
 33 67  1  0  0  0  0
 33 70  1  0  0  0  0
 34 71  1  0  0  0  0
 34 77  2  0  0  0  0
 35 49  1  0  0  0  0
 35 73  1  0  0  0  0
 35 78  2  0  0  0  0
 36 62  1  0  0  0  0
 36 68  1  0  0  0  0
 36 79  2  0  0  0  0
 37 63  1  0  0  0  0
 37 74  1  0  0  0  0
 37 80  2  0  0  0  0
 38 69  1  0  0  0  0
 38 72  1  0  0  0  0
 38 81  2  0  0  0  0
 39 42  1  0  0  0  0
 40 49  1  0  0  0  0
 41 68  1  0  0  0  0
 42 44  1  0  0  0  0
 43 45  1  0  0  0  0
 43 46  1  0  0  0  0
 44 48  1  0  0  0  0
 45 50  1  0  0  0  0
 46 69  1  0  0  0  0
 47 50  1  0  0  0  0
 47 69  1  0  0  0  0
 48 73  1  0  0  0  0
 49 68  1  0  0  0  0
 50 67  1  0  0  0  0
 51 61  1  0  0  0  0
 52 61  1  0  0  0  0
 53 63  1  0  0  0  0
 54 64  1  0  0  0  0
 55 65  1  0  0  0  0
 56 65  1  0  0  0  0
 57 65  1  0  0  0  0
 58 75  1  0  0  0  0
 59 76  1  0  0  0  0
 60 64  1  0  0  0  0
 60 76  1  0  0  0  0
 62 65  1  0  0  0  0
 62 74  1  0  0  0  0
 63 75  1  0  0  0  0
 64 83  1  0  0  0  0
 66 67  1  0  0  0  0
M  CHG  2  75   1  76   1
M  ISO  4  38 100  64 101  72 100  83 101
M  END
> <Batch ID>
0108

> <Smiles>
CNC(C)C(=O)NC(C(=O)N1Cc2cc([101O:1][101CH:1](C)CNCc3ccc(C(C)C)c([100NH:0][100C:0](=O)N4CCCC(n5nc(-c6ccc(Oc7ccc(F)cc7F)cc6)c(C(N)=O)c5N)C4)c3)ccc2CC1C(=O)NC1CCCc2ccccc21)C(C)(C)C

> <Shape>
0.262

> <Color>
0.070

> <Negative vol penalty>
0.000

$$$$

  -OEChem-04052319533D

 83 91  0     1  0  0  0  0  0999 V2000
  -16.7686  -30.5067   23.2826 C   0  0  0  0  0  0  0  0  0  0  0  0
  -17.7981  -30.8094   22.3973 C   0  0  0  0  0  0  0  0  0  0  0  0
  -30.7554  -18.0093   21.8639 C   0  0  0  0  0  0  0  0  0  0  0  0
  -28.5123  -17.6787   21.0292 C   0  0  0  0  0  0  0  0  0  0  0  0
  -17.0307  -29.7448   24.4205 C   0  0  0  0  0  0  0  0  0  0  0  0
  -19.0907  -30.3514   22.6500 C   0  0  0  0  0  0  0  0  0  0  0  0
  -24.9929  -28.1348   19.2490 C   0  0  0  0  0  0  0  0  0  0  0  0
  -31.5198  -28.5690   17.5290 C   0  0  0  0  0  0  0  0  0  0  0  0
  -32.1790  -27.5709   16.8115 C   0  0  0  0  0  0  0  0  0  0  0  0
  -30.9295  -16.6276   21.9431 C   0  0  0  0  0  0  0  0  0  0  0  0
  -28.6865  -16.2971   21.1084 C   0  0  0  0  0  0  0  0  0  0  0  0
  -26.3636  -28.3844   19.1964 C   0  0  0  0  0  0  0  0  0  0  0  0
  -30.1957  -13.8709   19.3037 C   0  0  0  0  0  0  0  0  0  0  0  0
  -29.7718  -13.1026   18.2195 C   0  0  0  0  0  0  0  0  0  0  0  0
  -26.6830  -27.0096   21.1527 C   0  0  0  0  0  0  0  0  0  0  0  0
  -31.5194  -27.1587   19.4906 C   0  0  0  0  0  0  0  0  0  0  0  0
  -28.2432  -11.9108   19.6617 C   0  0  0  0  0  0  0  0  0  0  0  0
  -29.5467  -18.5349   21.4070 C   0  0  0  0  0  0  0  0  0  0  0  0
  -29.4400  -20.8900   22.3815 C   0  0  0  0  0  0  0  0  0  0  0  0
  -18.3252  -29.2691   24.6823 C   0  0  0  0  0  0  0  0  0  0  0  0
  -24.4547  -27.3282   20.2620 C   0  0  0  0  0  0  0  0  0  0  0  0
  -19.3707  -29.5837   23.7932 C   0  0  0  0  0  0  0  0  0  0  0  0
  -25.3055  -26.7492   21.2145 C   0  0  0  0  0  0  0  0  0  0  0  0
  -31.1901  -28.3629   18.8686 C   0  0  0  0  0  0  0  0  0  0  0  0
  -32.5084  -26.3666   17.4336 C   0  0  0  0  0  0  0  0  0  0  0  0
  -29.8951  -15.7715   21.5653 C   0  0  0  0  0  0  0  0  0  0  0  0
  -27.2085  -27.8242   20.1500 C   0  0  0  0  0  0  0  0  0  0  0  0
  -29.6434  -13.6591   20.5670 C   0  0  0  0  0  0  0  0  0  0  0  0
  -32.1786  -26.1605   18.7732 C   0  0  0  0  0  0  0  0  0  0  0  0
  -28.7955  -12.1226   18.3984 C   0  0  0  0  0  0  0  0  0  0  0  0
  -28.6671  -12.6791   20.7459 C   0  0  0  0  0  0  0  0  0  0  0  0
  -29.3660  -19.9620   21.3255 C   0  0  0  0  0  0  0  0  0  0  0  0
  -29.1960  -22.1048   21.7889 C   0  0  0  0  0  0  0  0  0  0  0  0
  -29.7056  -20.6732   23.7737 C   0  0  0  0  0  0  0  0  0  0  0  0
  -22.3777  -27.7820   22.6250 C   0  0  0  0  0  0  0  0  0  0  0  0
  -22.7248  -24.5814   23.0225 C   0  0  0  0  0  0  0  0  0  0  0  0
  -24.6502  -21.7988   22.5789 C   0  0  0  0  0  0  0  0  0  0  0  0
  -29.8823  -24.1231   16.1937 C   0  0  0  0  0  0  0  0  0  0  0  0
  -18.5695  -28.4892   25.9499 C   0  0  0  0  0  0  0  0  0  0  0  0
  -22.9774  -27.0469   20.2892 C   0  0  0  0  0  0  0  0  0  0  0  0
  -24.7801  -25.8596   22.3104 C   0  0  0  0  0  0  0  0  0  0  0  0
  -19.8916  -27.7262   25.9504 C   0  0  0  0  0  0  0  0  0  0  0  0
  -26.8736  -24.0707   18.0967 C   0  0  0  0  0  0  0  0  0  0  0  0
  -21.0252  -28.6222   25.4617 C   0  0  0  0  0  0  0  0  0  0  0  0
  -27.1779  -23.0954   19.2353 C   0  0  0  0  0  0  0  0  0  0  0  0
  -27.5281  -23.6326   16.7884 C   0  0  0  0  0  0  0  0  0  0  0  0
  -29.2841  -22.4114   18.0127 C   0  0  0  0  0  0  0  0  0  0  0  0
  -20.7810  -29.0841   24.0200 C   0  0  1  0  0  0  0  0  0  0  0  0
  -22.4741  -26.6283   21.6672 C   0  0  1  0  0  0  0  0  0  0  0  0
  -28.6916  -22.8406   19.3658 C   0  0  2  0  0  0  0  0  0  0  0  0
  -25.2653  -19.3660   22.5961 C   0  0  0  0  0  0  0  0  0  0  0  0
  -23.3898  -25.1430   25.9469 C   0  0  0  0  0  0  0  0  0  0  0  0
  -24.3216  -22.8248   26.1078 C   0  0  0  0  0  0  0  0  0  0  0  0
  -21.9081  -23.1629   25.5757 C   0  0  0  0  0  0  0  0  0  0  0  0
  -23.5158  -21.3737   19.8787 C   0  0  0  0  0  0  0  0  0  0  0  0
  -32.1194  -24.8650   20.7666 C   0  0  0  0  0  0  0  0  0  0  0  0
  -30.4774  -29.4436   19.6447 C   0  0  0  0  0  0  0  0  0  0  0  0
  -33.2126  -25.3090   16.6497 C   0  0  0  0  0  0  0  0  0  0  0  0
  -32.2866  -24.5163   15.7204 C   0  0  0  0  0  0  0  0  0  0  0  0
  -28.9604  -29.3181   19.5543 C   0  0  0  0  0  0  0  0  0  1  0  0
  -23.6503  -23.6977   23.8234 C   0  0  1  0  0  0  0  0  0  0  0  0
  -24.3169  -20.4182   22.0429 C   0  0  2  0  0  0  0  0  0  0  0  0
  -23.3274  -23.7254   25.3441 C   0  0  0  0  0  0  0  0  0  0  0  0
  -29.0960  -20.5379   20.1510 N   0  0  0  0  0  0  0  0  0  0  0  0
  -28.9981  -21.8408   20.4655 N   0  0  0  0  0  0  0  0  0  0  0  0
  -23.3276  -25.6196   22.2983 N   0  0  0  0  0  0  0  0  0  0  0  0
  -28.9631  -23.4093   16.9802 N   0  0  0  0  0  0  0  0  0  0  0  0
  -29.1335  -23.3623   22.2760 N   0  0  0  0  0  0  0  0  0  0  0  0
  -28.6232  -20.4314   24.6307 N   0  0  0  0  0  0  0  0  0  0  0  0
  -21.0984  -28.0228   23.0887 N   0  0  0  0  0  0  0  0  0  0  0  0
  -23.5722  -22.3717   23.2200 N   0  0  0  0  0  0  0  0  0  0  0  0
  -31.2228  -23.8563   16.4440 N   0  0  0  0  0  0  0  0  0  0  0  0
  -24.4133  -20.4027   20.5559 N   0  3  0  0  0  0  0  0  0  0  0  0
  -30.8668  -20.7096   24.2467 O   0  0  0  0  0  0  0  0  0  0  0  0
  -23.3892  -28.4064   22.9225 O   0  0  0  0  0  0  0  0  0  0  0  0
  -21.5123  -24.3543   23.0331 O   0  0  0  0  0  0  0  0  0  0  0  0
  -25.7573  -22.3156   22.4457 O   0  0  0  0  0  0  0  0  0  0  0  0
  -29.5343  -24.9417   15.3360 O   0  0  0  0  0  0  0  0  0  0  0  0
  -30.0648  -14.4232   21.6423 O   0  0  0  0  0  0  0  0  0  0  0  0
  -32.4940  -24.9907   19.3963 O   0  0  0  0  0  0  0  0  0  0  0  0
  -28.5466  -28.0667   20.1013 O   0  0  0  0  0  0  0  0  0  1  0  0
  -28.3874  -11.3859   17.3568 F   0  0  0  0  0  0  0  0  0  0  0  0
  -28.1320  -12.4718   21.9569 F   0  0  0  0  0  0  0  0  0  0  0  0
  1  2  1  0  0  0  0
  1  5  2  0  0  0  0
  2  6  2  0  0  0  0
  3 10  2  0  0  0  0
  3 18  1  0  0  0  0
  4 11  1  0  0  0  0
  4 18  2  0  0  0  0
  5 20  1  0  0  0  0
  6 22  1  0  0  0  0
  7 12  2  0  0  0  0
  7 21  1  0  0  0  0
  8  9  2  0  0  0  0
  8 24  1  0  0  0  0
  9 25  1  0  0  0  0
 10 26  1  0  0  0  0
 11 26  2  0  0  0  0
 12 27  1  0  0  0  0
 13 14  2  0  0  0  0
 13 28  1  0  0  0  0
 14 30  1  0  0  0  0
 15 23  1  0  0  0  0
 15 27  2  0  0  0  0
 16 24  2  0  0  0  0
 16 29  1  0  0  0  0
 17 30  2  0  0  0  0
 17 31  1  0  0  0  0
 18 32  1  0  0  0  0
 19 32  1  0  0  0  0
 19 33  2  0  0  0  0
 19 34  1  0  0  0  0
 20 22  2  0  0  0  0
 20 39  1  0  0  0  0
 21 23  2  0  0  0  0
 21 40  1  0  0  0  0
 22 48  1  0  0  0  0
 23 41  1  0  0  0  0
 24 57  1  0  0  0  0
 25 29  2  0  0  0  0
 25 58  1  0  0  0  0
 26 79  1  0  0  0  0
 27 81  1  0  0  0  0
 28 31  2  0  0  0  0
 28 79  1  0  0  0  0
 29 80  1  0  0  0  0
 30 82  1  0  0  0  0
 31 83  1  0  0  0  0
 32 64  2  0  0  0  0
 33 65  1  0  0  0  0
 33 68  1  0  0  0  0
 34 69  1  0  0  0  0
 34 74  2  0  0  0  0
 35 49  1  0  0  0  0
 35 70  1  0  0  0  0
 35 75  2  0  0  0  0
 36 61  1  0  0  0  0
 36 66  1  0  0  0  0
 36 76  2  0  0  0  0
 37 62  1  0  0  0  0
 37 71  1  0  0  0  0
 37 77  2  0  0  0  0
 38 67  1  0  0  0  0
 38 72  1  0  0  0  0
 38 78  2  0  0  0  0
 39 42  1  0  0  0  0
 40 49  1  0  0  0  0
 41 66  1  0  0  0  0
 42 44  1  0  0  0  0
 43 45  1  0  0  0  0
 43 46  1  0  0  0  0
 44 48  1  0  0  0  0
 45 50  1  0  0  0  0
 46 67  1  0  0  0  0
 47 50  1  0  0  0  0
 47 67  1  0  0  0  0
 48 70  1  0  0  0  0
 49 66  1  0  0  0  0
 50 65  1  0  0  0  0
 51 62  1  0  0  0  0
 52 63  1  0  0  0  0
 53 63  1  0  0  0  0
 54 63  1  0  0  0  0
 55 73  1  0  0  0  0
 56 80  1  0  0  0  0
 57 60  1  0  0  0  0
 58 59  1  0  0  0  0
 59 72  1  0  0  0  0
 60 81  1  0  0  0  0
 61 63  1  0  0  0  0
 61 71  1  0  0  0  0
 62 73  1  0  0  0  0
 64 65  1  0  0  0  0
M  CHG  1  73   1
M  ISO  4  38 100  60 101  72 100  81 101
M  END
> <Batch ID>
0108

> <Smiles>
CNC(C)C(=O)NC(C(=O)N1Cc2cc([101O:1][101CH2:1]Cc3ccc(CC[100NH:0][100C:0](=O)N4CCCC(n5nc(-c6ccc(Oc7ccc(F)cc7F)cc6)c(C(N)=O)c5N)C4)c(OC)c3)ccc2CC1C(=O)NC1CCCc2ccccc21)C(C)(C)C

> <Shape>
0.223

> <Color>
0.081

> <Negative vol penalty>
0.000

$$$$

  -OEChem-04052319533D

 86 94  0     1  0  0  0  0  0999 V2000
  -16.0013  -26.1652   24.3419 C   0  0  0  0  0  0  0  0  0  0  0  0
  -16.9750  -25.5984   23.5258 C   0  0  0  0  0  0  0  0  0  0  0  0
  -32.0181  -18.9075   18.3506 C   0  0  0  0  0  0  0  0  0  0  0  0
  -30.8597  -19.5625   20.3671 C   0  0  0  0  0  0  0  0  0  0  0  0
  -15.9949  -27.5415   24.5648 C   0  0  0  0  0  0  0  0  0  0  0  0
  -17.9423  -26.4078   22.9311 C   0  0  0  0  0  0  0  0  0  0  0  0
  -22.5990  -24.4496   23.2848 C   0  0  0  0  0  0  0  0  0  0  0  0
  -31.9972  -20.2304   17.9089 C   0  0  0  0  0  0  0  0  0  0  0  0
  -30.8388  -20.8854   19.9254 C   0  0  0  0  0  0  0  0  0  0  0  0
  -22.9263  -23.4218   22.4014 C   0  0  0  0  0  0  0  0  0  0  0  0
  -29.0492  -22.7587   17.7531 C   0  0  0  0  0  0  0  0  0  0  0  0
  -27.8539  -23.4660   17.8816 C   0  0  0  0  0  0  0  0  0  0  0  0
  -24.0978  -25.0027   21.0057 C   0  0  0  0  0  0  0  0  0  0  0  0
  -22.7768  -16.4821   21.1721 C   0  0  0  0  0  0  0  0  0  0  0  0
  -28.9626  -25.0829   19.2936 C   0  0  0  0  0  0  0  0  0  0  0  0
  -24.8087  -16.6802   22.1219 C   0  0  0  0  0  0  0  0  0  0  0  0
  -31.4493  -18.5736   19.5797 C   0  0  0  0  0  0  0  0  0  0  0  0
  -32.4670  -16.5848   20.8114 C   0  0  0  0  0  0  0  0  0  0  0  0
  -16.9683  -28.3669   23.9803 C   0  0  0  0  0  0  0  0  0  0  0  0
  -23.0100  -25.7657   23.0292 C   0  0  0  0  0  0  0  0  0  0  0  0
  -17.9481  -27.7966   23.1453 C   0  0  0  0  0  0  0  0  0  0  0  0
  -23.7766  -26.0449   21.8887 C   0  0  0  0  0  0  0  0  0  0  0  0
  -23.9484  -17.2769   21.2268 C   0  0  0  0  0  0  0  0  0  0  0  0
  -31.4076  -21.2194   18.6963 C   0  0  0  0  0  0  0  0  0  0  0  0
  -23.6733  -23.6988   21.2602 C   0  0  0  0  0  0  0  0  0  0  0  0
  -30.2012  -23.2134   18.3949 C   0  0  0  0  0  0  0  0  0  0  0  0
  -27.8106  -24.6281   18.6518 C   0  0  0  0  0  0  0  0  0  0  0  0
  -30.1579  -24.3755   19.1651 C   0  0  0  0  0  0  0  0  0  0  0  0
  -31.4701  -17.2071   20.0363 C   0  0  0  0  0  0  0  0  0  0  0  0
  -22.9569  -15.4241   22.0356 C   0  0  0  0  0  0  0  0  0  0  0  0
  -32.0206  -15.2962   20.9745 C   0  0  0  0  0  0  0  0  0  0  0  0
  -33.6873  -17.1235   21.3369 C   0  0  0  0  0  0  0  0  0  0  0  0
  -21.5143  -28.5210   22.5048 C   0  0  0  0  0  0  0  0  0  0  0  0
  -24.5241  -29.7264   22.6071 C   0  0  0  0  0  0  0  0  0  0  0  0
  -27.8748  -29.1870   22.2486 C   0  0  0  0  0  0  0  0  0  0  0  0
  -26.5681  -12.8247   20.8617 C   0  0  0  0  0  0  0  0  0  0  0  0
  -16.8925  -29.8553   24.2124 C   0  0  0  0  0  0  0  0  0  0  0  0
  -22.6715  -26.8585   24.0058 C   0  0  0  0  0  0  0  0  0  0  0  0
  -24.2595  -27.4375   21.5792 C   0  0  0  0  0  0  0  0  0  0  0  0
  -18.1766  -30.5950   23.8464 C   0  0  0  0  0  0  0  0  0  0  0  0
  -29.3549  -11.9562   18.8230 C   0  0  0  0  0  0  0  0  0  0  0  0
  -18.6892  -30.1336   22.4858 C   0  0  0  0  0  0  0  0  0  0  0  0
  -30.3029  -13.1473   18.9727 C   0  0  0  0  0  0  0  0  0  0  0  0
  -27.8927  -12.3965   18.8126 C   0  0  0  0  0  0  0  0  0  0  0  0
  -28.4363  -14.4194   20.1112 C   0  0  0  0  0  0  0  0  0  0  0  0
  -19.0289  -28.6384   22.5024 C   0  0  1  0  0  0  0  0  0  0  0  0
  -22.7046  -28.2497   23.3807 C   0  0  1  0  0  0  0  0  0  0  0  0
  -29.9201  -14.0200   20.1831 C   0  0  2  0  0  0  0  0  0  0  0  0
  -21.7329  -13.4102   21.1415 C   0  0  0  0  0  0  0  0  0  0  0  0
  -20.7286  -14.7669   23.0138 C   0  0  0  0  0  0  0  0  0  0  0  0
  -30.0838  -30.3726   22.3586 C   0  0  0  0  0  0  0  0  0  0  0  0
  -26.5033  -18.5077   19.8103 C   0  0  0  0  0  0  0  0  0  0  0  0
  -23.9687  -31.0078   19.8942 C   0  0  0  0  0  0  0  0  0  0  0  0
  -26.4347  -31.3497   19.6289 C   0  0  0  0  0  0  0  0  0  0  0  0
  -25.2170  -32.4635   21.4996 C   0  0  0  0  0  0  0  0  0  0  0  0
  -28.8293  -27.4494   24.4460 C   0  0  0  0  0  0  0  0  0  0  0  0
  -25.1869  -20.6325   20.1231 C   0  0  0  0  0  0  0  0  0  0  0  0
  -24.7818  -14.6545   23.5755 C   0  0  0  0  0  0  0  0  0  0  0  0
  -25.3389  -13.3810   22.9447 C   0  0  0  0  0  0  0  0  0  0  0  0
  -24.1495  -21.3900   20.9458 C   0  0  0  0  0  0  0  0  0  1  0  0
  -22.0516  -14.3032   22.3623 C   0  0  0  0  0  0  0  0  0  0  0  0
  -25.6140  -29.9683   21.5909 C   0  0  1  0  0  0  0  0  0  0  0  0
  -29.0548  -29.5592   23.1281 C   0  0  2  0  0  0  0  0  0  0  0  0
  -25.4155  -19.2027   20.6232 C   0  0  1  0  0  0  0  0  0  0  0  0
  -25.2980  -31.1713   20.6579 C   0  0  0  0  0  0  0  0  0  0  0  0
  -30.4662  -16.3817   19.7283 N   0  0  0  0  0  0  0  0  0  0  0  0
  -24.1954  -15.5550   22.6075 N   0  0  0  0  0  0  0  0  0  0  0  0
  -30.8300  -15.2275   20.3128 N   0  0  0  0  0  0  0  0  0  0  0  0
  -23.8975  -28.4730   22.5612 N   0  0  0  0  0  0  0  0  0  0  0  0
  -27.5944  -13.2191   19.9875 N   0  0  0  0  0  0  0  0  0  0  0  0
  -32.5344  -14.2264   21.6180 N   0  0  0  0  0  0  0  0  0  0  0  0
  -33.9924  -18.4662   21.0752 N   0  0  0  0  0  0  0  0  0  0  0  0
  -24.1904  -18.4383   20.5153 N   0  0  0  0  0  0  0  0  0  0  0  0
  -20.3005  -28.4162   23.1568 N   0  0  0  0  0  0  0  0  0  0  0  0
  -26.8536  -30.1082   22.3473 N   0  0  0  0  0  0  0  0  0  0  0  0
  -26.3550  -13.6571   21.9537 N   0  0  0  0  0  0  0  0  0  0  0  0
  -29.7201  -28.3316   23.6490 N   0  3  0  0  0  0  0  0  0  0  0  0
  -34.4916  -16.4302   22.0047 O   0  0  0  0  0  0  0  0  0  0  0  0
  -21.6846  -28.8058   21.3251 O   0  0  0  0  0  0  0  0  0  0  0  0
  -24.2441  -30.6142   23.4164 O   0  0  0  0  0  0  0  0  0  0  0  0
  -27.8619  -28.1817   21.5416 O   0  0  0  0  0  0  0  0  0  0  0  0
  -25.8953  -11.8033   20.6852 O   0  0  0  0  0  0  0  0  0  0  0  0
  -31.3873  -22.5104   18.2657 O   0  0  0  0  0  0  0  0  0  0  0  0
  -23.9937  -22.6976   20.3959 O   0  0  0  0  0  0  0  0  0  1  0  0
  -26.6630  -25.3082   18.7739 F   0  0  0  0  0  0  0  0  0  0  0  0
  -31.2616  -24.8178   19.7831 F   0  0  0  0  0  0  0  0  0  0  0  0
  1  2  1  0  0  0  0
  1  5  2  0  0  0  0
  2  6  2  0  0  0  0
  3  8  2  0  0  0  0
  3 17  1  0  0  0  0
  4  9  1  0  0  0  0
  4 17  2  0  0  0  0
  5 19  1  0  0  0  0
  6 21  1  0  0  0  0
  7 10  2  0  0  0  0
  7 20  1  0  0  0  0
  8 24  1  0  0  0  0
  9 24  2  0  0  0  0
 10 25  1  0  0  0  0
 11 12  2  0  0  0  0
 11 26  1  0  0  0  0
 12 27  1  0  0  0  0
 13 22  1  0  0  0  0
 13 25  2  0  0  0  0
 14 23  1  0  0  0  0
 14 30  2  0  0  0  0
 15 27  2  0  0  0  0
 15 28  1  0  0  0  0
 16 23  2  0  0  0  0
 16 67  1  0  0  0  0
 17 29  1  0  0  0  0
 18 29  1  0  0  0  0
 18 31  2  0  0  0  0
 18 32  1  0  0  0  0
 19 21  2  0  0  0  0
 19 37  1  0  0  0  0
 20 22  2  0  0  0  0
 20 38  1  0  0  0  0
 21 46  1  0  0  0  0
 22 39  1  0  0  0  0
 23 73  1  0  0  0  0
 24 83  1  0  0  0  0
 25 84  1  0  0  0  0
 26 28  2  0  0  0  0
 26 83  1  0  0  0  0
 27 85  1  0  0  0  0
 28 86  1  0  0  0  0
 29 66  2  0  0  0  0
 30 61  1  0  0  0  0
 30 67  1  0  0  0  0
 31 68  1  0  0  0  0
 31 71  1  0  0  0  0
 32 72  1  0  0  0  0
 32 78  2  0  0  0  0
 33 47  1  0  0  0  0
 33 74  1  0  0  0  0
 33 79  2  0  0  0  0
 34 62  1  0  0  0  0
 34 69  1  0  0  0  0
 34 80  2  0  0  0  0
 35 63  1  0  0  0  0
 35 75  1  0  0  0  0
 35 81  2  0  0  0  0
 36 70  1  0  0  0  0
 36 76  1  0  0  0  0
 36 82  2  0  0  0  0
 37 40  1  0  0  0  0
 38 47  1  0  0  0  0
 39 69  1  0  0  0  0
 40 42  1  0  0  0  0
 41 43  1  0  0  0  0
 41 44  1  0  0  0  0
 42 46  1  0  0  0  0
 43 48  1  0  0  0  0
 44 70  1  0  0  0  0
 45 48  1  0  0  0  0
 45 70  1  0  0  0  0
 46 74  1  0  0  0  0
 47 69  1  0  0  0  0
 48 68  1  0  0  0  0
 49 61  1  0  0  0  0
 50 61  1  0  0  0  0
 51 63  1  0  0  0  0
 52 64  1  0  0  0  0
 53 65  1  0  0  0  0
 54 65  1  0  0  0  0
 55 65  1  0  0  0  0
 56 77  1  0  0  0  0
 57 60  1  0  0  0  0
 57 64  1  0  0  0  0
 58 59  1  0  0  0  0
 58 67  1  0  0  0  0
 59 76  1  0  0  0  0
 60 84  1  0  0  0  0
 62 65  1  0  0  0  0
 62 75  1  0  0  0  0
 63 77  1  0  0  0  0
 64 73  1  0  0  0  0
 66 68  1  0  0  0  0
M  CHG  1  77   1
M  ISO  4  36 100  60 101  76 100  84 101
M  END
> <Batch ID>
0108

> <Smiles>
CNC(C)C(=O)NC(C(=O)N1Cc2cc([101O:1][101CH2:1]CC(C)Nc3cc(C(C)C)n(CC[100NH:0][100C:0](=O)N4CCCC(n5nc(-c6ccc(Oc7ccc(F)cc7F)cc6)c(C(N)=O)c5N)C4)c3)ccc2CC1C(=O)NC1CCCc2ccccc21)C(C)(C)C

> <Shape>
0.236

> <Color>
0.059

> <Negative vol penalty>
0.000

$$$$

  -OEChem-04052319533D

 80 87  0     1  0  0  0  0  0999 V2000
  -27.9646  -33.7221   25.7580 C   0  0  0  0  0  0  0  0  0  0  0  0
  -28.1191  -32.4819   25.1470 C   0  0  0  0  0  0  0  0  0  0  0  0
  -21.9336  -15.0731   22.7667 C   0  0  0  0  0  0  0  0  0  0  0  0
  -23.4692  -14.6948   20.9402 C   0  0  0  0  0  0  0  0  0  0  0  0
  -26.6944  -34.1623   26.1279 C   0  0  0  0  0  0  0  0  0  0  0  0
  -27.0035  -31.6806   24.9064 C   0  0  0  0  0  0  0  0  0  0  0  0
  -27.0327  -29.6521   20.2664 C   0  0  0  0  0  0  0  0  0  0  0  0
  -21.4345  -13.7795   22.6150 C   0  0  0  0  0  0  0  0  0  0  0  0
  -22.9701  -13.4012   20.7885 C   0  0  0  0  0  0  0  0  0  0  0  0
  -27.8605  -28.5496   20.0587 C   0  0  0  0  0  0  0  0  0  0  0  0
  -23.3298  -10.4010   22.3018 C   0  0  0  0  0  0  0  0  0  0  0  0
  -24.2518   -9.3676   22.1359 C   0  0  0  0  0  0  0  0  0  0  0  0
  -25.9567  -27.0854   20.2847 C   0  0  0  0  0  0  0  0  0  0  0  0
  -23.2750   -8.8407   19.9899 C   0  0  0  0  0  0  0  0  0  0  0  0
  -22.9509  -15.5308   21.9293 C   0  0  0  0  0  0  0  0  0  0  0  0
  -24.5384  -17.2750   22.9016 C   0  0  0  0  0  0  0  0  0  0  0  0
  -25.5616  -33.3701   25.8830 C   0  0  0  0  0  0  0  0  0  0  0  0
  -25.6603  -29.4785   20.4961 C   0  0  0  0  0  0  0  0  0  0  0  0
  -25.7171  -32.1100   25.2746 C   0  0  0  0  0  0  0  0  0  0  0  0
  -25.1133  -28.1875   20.4926 C   0  0  0  0  0  0  0  0  0  0  0  0
  -21.9527  -12.9435   21.6259 C   0  0  0  0  0  0  0  0  0  0  0  0
  -27.3230  -27.2658   20.0707 C   0  0  0  0  0  0  0  0  0  0  0  0
  -22.3803  -10.6542   21.3118 C   0  0  0  0  0  0  0  0  0  0  0  0
  -24.2245   -8.5875   20.9799 C   0  0  0  0  0  0  0  0  0  0  0  0
  -22.3529   -9.8741   20.1559 C   0  0  0  0  0  0  0  0  0  0  0  0
  -23.4666  -16.8672   22.0851 C   0  0  0  0  0  0  0  0  0  0  0  0
  -24.6299  -18.6300   22.6968 C   0  0  0  0  0  0  0  0  0  0  0  0
  -25.3765  -16.4983   23.7677 C   0  0  0  0  0  0  0  0  0  0  0  0
  -23.6874  -30.1368   22.8998 C   0  0  0  0  0  0  0  0  0  0  0  0
  -21.4231  -29.1446   20.7996 C   0  0  0  0  0  0  0  0  0  0  0  0
  -20.6426  -27.2935   18.0408 C   0  0  0  0  0  0  0  0  0  0  0  0
  -23.0171  -22.1856   18.1572 C   0  0  0  0  0  0  0  0  0  0  0  0
  -24.2144  -33.8678   26.3436 C   0  0  0  0  0  0  0  0  0  0  0  0
  -24.7764  -30.6797   20.6919 C   0  0  0  0  0  0  0  0  0  0  0  0
  -23.6429  -27.9485   20.7144 C   0  0  0  0  0  0  0  0  0  0  0  0
  -23.0414  -33.1208   25.7140 C   0  0  0  0  0  0  0  0  0  0  0  0
  -21.9619  -22.4319   21.5487 C   0  0  0  0  0  0  0  0  0  0  0  0
  -23.2766  -31.6147   25.7685 C   0  0  0  0  0  0  0  0  0  0  0  0
  -22.3246  -21.0705   22.1444 C   0  0  0  0  0  0  0  0  0  0  0  0
  -21.4881  -22.3069   20.1023 C   0  0  0  0  0  0  0  0  0  0  0  0
  -22.7775  -20.2281   19.8026 C   0  0  0  0  0  0  0  0  0  0  0  0
  -24.5285  -31.2227   24.9745 C   0  0  1  0  0  0  0  0  0  0  0  0
  -23.4802  -30.3542   21.4276 C   0  0  1  0  0  0  0  0  0  0  0  0
  -23.3141  -20.3092   21.2420 C   0  0  2  0  0  0  0  0  0  0  0  0
  -18.7025  -26.6487   16.5855 C   0  0  0  0  0  0  0  0  0  0  0  0
  -28.5115  -25.9902   17.5416 C   0  0  0  0  0  0  0  0  0  0  0  0
  -20.4604  -27.2028   22.9474 C   0  0  0  0  0  0  0  0  0  0  0  0
  -19.2032  -25.9681   21.1689 C   0  0  0  0  0  0  0  0  0  0  0  0
  -18.6327  -28.3428   21.6768 C   0  0  0  0  0  0  0  0  0  0  0  0
  -27.5091  -23.3795   20.3100 C   0  0  0  0  0  0  0  0  0  0  0  0
  -29.7555  -23.7647   19.3149 C   0  0  0  0  0  0  0  0  0  0  0  0
  -21.8761  -28.5276   15.6504 C   0  0  0  0  0  0  0  0  0  0  0  0
  -24.6002  -21.9193   16.2645 C   0  0  0  0  0  0  0  0  0  0  0  0
  -26.1086  -21.9781   16.4178 C   0  0  0  0  0  0  0  0  0  0  0  0
  -27.9178  -22.9244   17.8566 C   0  0  0  0  0  0  0  0  0  0  0  0
  -20.7866  -27.8182   20.4612 C   0  0  1  0  0  0  0  0  0  0  0  0
  -19.8448  -27.6308   16.7941 C   0  0  2  0  0  0  0  0  0  0  0  0
  -27.8298  -25.3539   18.7503 C   0  0  1  0  0  0  0  0  0  1  0  0
  -19.7988  -27.3370   21.5613 C   0  0  0  0  0  0  0  0  0  0  0  0
  -28.2386  -23.8730   19.0375 C   0  0  0  0  0  0  0  0  0  0  0  0
  -22.9164  -17.8812   21.4119 N   0  0  0  0  0  0  0  0  0  0  0  0
  -23.6454  -18.9395   21.8051 N   0  0  0  0  0  0  0  0  0  0  0  0
  -22.8210  -29.1547   20.9074 N   0  0  0  0  0  0  0  0  0  0  0  0
  -22.4721  -21.5767   19.2996 N   0  0  0  0  0  0  0  0  0  0  0  0
  -25.4555  -19.5751   23.1943 N   0  0  0  0  0  0  0  0  0  0  0  0
  -25.1457  -15.1190   23.8603 N   0  0  0  0  0  0  0  0  0  0  0  0
  -24.2458  -31.2176   23.5551 N   0  0  0  0  0  0  0  0  0  0  0  0
  -20.1811  -27.9803   19.1438 N   0  0  0  0  0  0  0  0  0  0  0  0
  -23.9472  -21.4270   17.4570 N   0  0  0  0  0  0  0  0  0  0  0  0
  -20.7232  -27.5926   15.5909 N   0  3  0  0  0  0  0  0  0  0  0  0
  -26.4637  -22.8442   17.5752 N   0  3  0  0  0  0  0  0  0  0  0  0
  -26.2921  -17.0148   24.4521 O   0  0  0  0  0  0  0  0  0  0  0  0
  -23.3632  -29.0680   23.4042 O   0  0  0  0  0  0  0  0  0  0  0  0
  -20.7069  -30.1368   20.9554 O   0  0  0  0  0  0  0  0  0  0  0  0
  -21.5789  -26.4974   18.0373 O   0  0  0  0  0  0  0  0  0  0  0  0
  -22.7025  -23.3232   17.7915 O   0  0  0  0  0  0  0  0  0  0  0  0
  -21.4661  -11.6810   21.4777 O   0  0  0  0  0  0  0  0  0  0  0  0
  -28.1288  -26.1879   19.8689 O   0  0  0  0  0  0  0  0  0  1  0  0
  -25.1109   -7.5961   20.8200 F   0  0  0  0  0  0  0  0  0  0  0  0
  -21.4439  -10.1133   19.2008 F   0  0  0  0  0  0  0  0  0  0  0  0
  1  2  1  0  0  0  0
  1  5  2  0  0  0  0
  2  6  2  0  0  0  0
  3  8  2  0  0  0  0
  3 15  1  0  0  0  0
  4  9  1  0  0  0  0
  4 15  2  0  0  0  0
  5 17  1  0  0  0  0
  6 19  1  0  0  0  0
  7 10  2  0  0  0  0
  7 18  1  0  0  0  0
  8 21  1  0  0  0  0
  9 21  2  0  0  0  0
 10 22  1  0  0  0  0
 11 12  2  0  0  0  0
 11 23  1  0  0  0  0
 12 24  1  0  0  0  0
 13 20  1  0  0  0  0
 13 22  2  0  0  0  0
 14 24  2  0  0  0  0
 14 25  1  0  0  0  0
 15 26  1  0  0  0  0
 16 26  1  0  0  0  0
 16 27  2  0  0  0  0
 16 28  1  0  0  0  0
 17 19  2  0  0  0  0
 17 33  1  0  0  0  0
 18 20  2  0  0  0  0
 18 34  1  0  0  0  0
 19 42  1  0  0  0  0
 20 35  1  0  0  0  0
 21 77  1  0  0  0  0
 22 78  1  0  0  0  0
 23 25  2  0  0  0  0
 23 77  1  0  0  0  0
 24 79  1  0  0  0  0
 25 80  1  0  0  0  0
 26 61  2  0  0  0  0
 27 62  1  0  0  0  0
 27 65  1  0  0  0  0
 28 66  1  0  0  0  0
 28 72  2  0  0  0  0
 29 43  1  0  0  0  0
 29 67  1  0  0  0  0
 29 73  2  0  0  0  0
 30 56  1  0  0  0  0
 30 63  1  0  0  0  0
 30 74  2  0  0  0  0
 31 57  1  0  0  0  0
 31 68  1  0  0  0  0
 31 75  2  0  0  0  0
 32 64  1  0  0  0  0
 32 69  1  0  0  0  0
 32 76  2  0  0  0  0
 33 36  1  0  0  0  0
 34 43  1  0  0  0  0
 35 63  1  0  0  0  0
 36 38  1  0  0  0  0
 37 39  1  0  0  0  0
 37 40  1  0  0  0  0
 38 42  1  0  0  0  0
 39 44  1  0  0  0  0
 40 64  1  0  0  0  0
 41 44  1  0  0  0  0
 41 64  1  0  0  0  0
 42 67  1  0  0  0  0
 43 63  1  0  0  0  0
 44 62  1  0  0  0  0
 45 57  1  0  0  0  0
 46 58  1  0  0  0  0
 47 59  1  0  0  0  0
 48 59  1  0  0  0  0
 49 59  1  0  0  0  0
 50 60  1  0  0  0  0
 51 60  1  0  0  0  0
 52 70  1  0  0  0  0
 53 54  1  0  0  0  0
 53 69  1  0  0  0  0
 54 71  1  0  0  0  0
 55 60  1  0  0  0  0
 55 71  1  0  0  0  0
 56 59  1  0  0  0  0
 56 68  1  0  0  0  0
 57 70  1  0  0  0  0
 58 60  1  0  0  0  0
 58 78  1  0  0  0  0
 61 62  1  0  0  0  0
M  CHG  2  70   1  71   1
M  ISO  4  32 100  58 101  69 100  78 101
M  END
> <Batch ID>
0108

> <Smiles>
CNC(C)C(=O)NC(C(=O)N1Cc2cc([101O:1][101CH:1](C)C(C)(C)CNCC[100NH:0][100C:0](=O)N3CCCC(n4nc(-c5ccc(Oc6ccc(F)cc6F)cc5)c(C(N)=O)c4N)C3)ccc2CC1C(=O)NC1CCCc2ccccc21)C(C)(C)C

> <Shape>
0.219

> <Color>
0.069

> <Negative vol penalty>
0.000

$$$$

  -OEChem-04052319533D

 84 92  0     1  0  0  0  0  0999 V2000
  -36.6716  -27.6202   26.4328 C   0  0  0  0  0  0  0  0  0  0  0  0
  -35.5181  -26.9281   26.0780 C   0  0  0  0  0  0  0  0  0  0  0  0
  -23.2584  -10.1711   22.1556 C   0  0  0  0  0  0  0  0  0  0  0  0
  -23.5213   -9.5520   19.8351 C   0  0  0  0  0  0  0  0  0  0  0  0
  -36.8933  -28.9041   25.9364 C   0  0  0  0  0  0  0  0  0  0  0  0
  -34.5850  -27.5201   25.2275 C   0  0  0  0  0  0  0  0  0  0  0  0
  -32.9492  -24.3513   21.6319 C   0  0  0  0  0  0  0  0  0  0  0  0
  -22.5041   -9.0190   22.3775 C   0  0  0  0  0  0  0  0  0  0  0  0
  -22.7669   -8.3999   20.0570 C   0  0  0  0  0  0  0  0  0  0  0  0
  -31.9975  -23.4028   22.0040 C   0  0  0  0  0  0  0  0  0  0  0  0
  -23.0758   -5.7210   22.8557 C   0  0  0  0  0  0  0  0  0  0  0  0
  -23.3601   -4.9697   23.9960 C   0  0  0  0  0  0  0  0  0  0  0  0
  -30.2603  -24.7838   21.0584 C   0  0  0  0  0  0  0  0  0  0  0  0
  -21.0994   -5.3043   24.7800 C   0  0  0  0  0  0  0  0  0  0  0  0
  -23.7670  -10.4376   20.8843 C   0  0  0  0  0  0  0  0  0  0  0  0
  -24.1336  -12.9617   20.8353 C   0  0  0  0  0  0  0  0  0  0  0  0
  -35.9672  -29.5083   25.0716 C   0  0  0  0  0  0  0  0  0  0  0  0
  -32.5617  -25.5302   20.9789 C   0  0  0  0  0  0  0  0  0  0  0  0
  -34.7939  -28.8138   24.7201 C   0  0  0  0  0  0  0  0  0  0  0  0
  -31.2093  -25.7445   20.6768 C   0  0  0  0  0  0  0  0  0  0  0  0
  -22.2583   -8.1334   21.3282 C   0  0  0  0  0  0  0  0  0  0  0  0
  -30.6525  -23.6203   21.7198 C   0  0  0  0  0  0  0  0  0  0  0  0
  -21.8034   -6.2640   22.6775 C   0  0  0  0  0  0  0  0  0  0  0  0
  -22.3719   -4.7613   24.9582 C   0  0  0  0  0  0  0  0  0  0  0  0
  -20.8152   -6.0557   23.6397 C   0  0  0  0  0  0  0  0  0  0  0  0
  -24.5458  -11.6278   20.6543 C   0  0  0  0  0  0  0  0  0  0  0  0
  -25.2300  -13.7106   20.4837 C   0  0  0  0  0  0  0  0  0  0  0  0
  -22.8725  -13.4776   21.2814 C   0  0  0  0  0  0  0  0  0  0  0  0
  -30.7465  -14.5993   20.7437 C   0  0  0  0  0  0  0  0  0  0  0  0
  -32.7387  -28.6311   21.6549 C   0  0  0  0  0  0  0  0  0  0  0  0
  -31.5959  -28.9564   18.6365 C   0  0  0  0  0  0  0  0  0  0  0  0
  -30.1345  -28.6215   15.5707 C   0  0  0  0  0  0  0  0  0  0  0  0
  -36.2274  -30.9164   24.5983 C   0  0  0  0  0  0  0  0  0  0  0  0
  -33.6035  -26.5311   20.5603 C   0  0  0  0  0  0  0  0  0  0  0  0
  -30.7437  -26.9843   19.9594 C   0  0  0  0  0  0  0  0  0  0  0  0
  -35.3699  -31.3256   23.4035 C   0  0  0  0  0  0  0  0  0  0  0  0
  -29.5349  -12.3889   18.1969 C   0  0  0  0  0  0  0  0  0  0  0  0
  -33.9140  -30.9319   23.6315 C   0  0  0  0  0  0  0  0  0  0  0  0
  -31.2426  -16.1379   22.6088 C   0  0  0  0  0  0  0  0  0  0  0  0
  -29.4026  -16.6695   20.9611 C   0  0  0  0  0  0  0  0  0  0  0  0
  -30.6964  -17.1991   23.5617 C   0  0  0  0  0  0  0  0  0  0  0  0
  -28.8549  -17.7298   21.9140 C   0  0  0  0  0  0  0  0  0  0  0  0
  -28.1055  -12.0797   18.6402 C   0  0  0  0  0  0  0  0  0  0  0  0
  -30.4686  -12.5469   19.3929 C   0  0  0  0  0  0  0  0  0  0  0  0
  -28.5861  -13.2590   20.8319 C   0  0  0  0  0  0  0  0  0  0  0  0
  -33.7702  -29.4124   23.7801 C   0  0  1  0  0  0  0  0  0  0  0  0
  -30.1417  -15.5647   21.7161 C   0  0  0  0  0  0  0  0  0  0  0  0
  -33.0377  -27.9334   20.3582 C   0  0  1  0  0  0  0  0  0  0  0  0
  -29.9583  -18.3129   22.8070 C   0  0  0  0  0  0  0  0  0  0  0  0
  -27.6038  -13.1221   19.6551 C   0  0  2  0  0  0  0  0  0  0  0  0
  -29.1805  -29.9745   13.6848 C   0  0  0  0  0  0  0  0  0  0  0  0
  -25.3059  -18.7004   25.3708 C   0  0  0  0  0  0  0  0  0  0  0  0
  -26.8387  -17.3080   26.7923 C   0  0  0  0  0  0  0  0  0  0  0  0
  -29.0868  -29.4871   20.2897 C   0  0  0  0  0  0  0  0  0  0  0  0
  -27.8639  -29.9543   18.1556 C   0  0  0  0  0  0  0  0  0  0  0  0
  -29.7926  -31.3876   18.8253 C   0  0  0  0  0  0  0  0  0  0  0  0
  -32.1181  -27.5567   13.6496 C   0  0  0  0  0  0  0  0  0  0  0  0
  -28.9989  -20.6378   23.0800 C   0  0  0  0  0  0  0  0  0  0  0  0
  -27.7345  -19.4072   25.6638 C   0  0  0  0  0  0  0  0  0  0  0  0
  -30.1929  -21.5272   22.7511 C   0  0  0  0  0  0  0  0  0  1  0  0
  -30.2217  -29.0312   18.0159 C   0  0  1  0  0  0  0  0  0  0  0  0
  -30.4213  -29.2922   14.2395 C   0  0  2  0  0  0  0  0  0  0  0  0
  -29.3779  -19.3335   23.7843 C   0  0  1  0  0  0  0  0  0  0  0  0
  -26.5205  -18.7209   26.3002 C   0  0  0  0  0  0  0  0  0  0  0  0
  -29.2545  -29.9401   18.8256 C   0  0  0  0  0  0  0  0  0  0  0  0
  -25.8057  -11.5317   20.2212 N   0  0  0  0  0  0  0  0  0  0  0  0
  -26.1945  -12.8147   20.1270 N   0  0  0  0  0  0  0  0  0  0  0  0
  -29.9458  -13.5291   20.3442 N   0  0  0  0  0  0  0  0  0  0  0  0
  -31.7996  -27.9361   19.5764 N   0  0  0  0  0  0  0  0  0  0  0  0
  -25.4534  -15.0415   20.4478 N   0  0  0  0  0  0  0  0  0  0  0  0
  -21.8545  -12.5690   21.6016 N   0  0  0  0  0  0  0  0  0  0  0  0
  -33.8346  -28.7696   22.4850 N   0  0  0  0  0  0  0  0  0  0  0  0
  -30.4206  -29.4523   16.6334 N   0  0  0  0  0  0  0  0  0  0  0  0
  -30.8900  -28.2875   13.2436 N   0  3  0  0  0  0  0  0  0  0  0  0
  -28.1711  -18.7301   24.4153 N   0  3  0  0  0  0  0  0  0  0  0  0
  -22.6494  -14.7083   21.3772 O   0  0  0  0  0  0  0  0  0  0  0  0
  -31.8986  -14.7888   20.3448 O   0  0  0  0  0  0  0  0  0  0  0  0
  -31.5983  -29.0165   21.8846 O   0  0  0  0  0  0  0  0  0  0  0  0
  -32.4589  -29.7687   18.2946 O   0  0  0  0  0  0  0  0  0  0  0  0
  -29.6966  -27.4765   15.6591 O   0  0  0  0  0  0  0  0  0  0  0  0
  -21.5225   -7.0090   21.5445 O   0  0  0  0  0  0  0  0  0  0  0  0
  -29.7215  -22.6964   22.0825 O   0  0  0  0  0  0  0  0  0  1  0  0
  -22.6446   -4.0385   26.0524 F   0  0  0  0  0  0  0  0  0  0  0  0
  -19.5906   -6.5738   23.4735 F   0  0  0  0  0  0  0  0  0  0  0  0
  1  2  1  0  0  0  0
  1  5  2  0  0  0  0
  2  6  2  0  0  0  0
  3  8  2  0  0  0  0
  3 15  1  0  0  0  0
  4  9  1  0  0  0  0
  4 15  2  0  0  0  0
  5 17  1  0  0  0  0
  6 19  1  0  0  0  0
  7 10  2  0  0  0  0
  7 18  1  0  0  0  0
  8 21  1  0  0  0  0
  9 21  2  0  0  0  0
 10 22  1  0  0  0  0
 11 12  2  0  0  0  0
 11 23  1  0  0  0  0
 12 24  1  0  0  0  0
 13 20  1  0  0  0  0
 13 22  2  0  0  0  0
 14 24  2  0  0  0  0
 14 25  1  0  0  0  0
 15 26  1  0  0  0  0
 16 26  1  0  0  0  0
 16 27  2  0  0  0  0
 16 28  1  0  0  0  0
 17 19  2  0  0  0  0
 17 33  1  0  0  0  0
 18 20  2  0  0  0  0
 18 34  1  0  0  0  0
 19 46  1  0  0  0  0
 20 35  1  0  0  0  0
 21 81  1  0  0  0  0
 22 82  1  0  0  0  0
 23 25  2  0  0  0  0
 23 81  1  0  0  0  0
 24 83  1  0  0  0  0
 25 84  1  0  0  0  0
 26 66  2  0  0  0  0
 27 67  1  0  0  0  0
 27 70  1  0  0  0  0
 28 71  1  0  0  0  0
 28 76  2  0  0  0  0
 29 47  1  0  0  0  0
 29 68  1  0  0  0  0
 29 77  2  0  0  0  0
 30 48  1  0  0  0  0
 30 72  1  0  0  0  0
 30 78  2  0  0  0  0
 31 61  1  0  0  0  0
 31 69  1  0  0  0  0
 31 79  2  0  0  0  0
 32 62  1  0  0  0  0
 32 73  1  0  0  0  0
 32 80  2  0  0  0  0
 33 36  1  0  0  0  0
 34 48  1  0  0  0  0
 35 69  1  0  0  0  0
 36 38  1  0  0  0  0
 37 43  1  0  0  0  0
 37 44  1  0  0  0  0
 38 46  1  0  0  0  0
 39 41  1  0  0  0  0
 39 47  1  0  0  0  0
 40 42  1  0  0  0  0
 40 47  1  0  0  0  0
 41 49  1  0  0  0  0
 42 49  1  0  0  0  0
 43 50  1  0  0  0  0
 44 68  1  0  0  0  0
 45 50  1  0  0  0  0
 45 68  1  0  0  0  0
 46 72  1  0  0  0  0
 48 69  1  0  0  0  0
 49 63  1  0  0  0  0
 50 67  1  0  0  0  0
 51 62  1  0  0  0  0
 52 64  1  0  0  0  0
 53 64  1  0  0  0  0
 54 65  1  0  0  0  0
 55 65  1  0  0  0  0
 56 65  1  0  0  0  0
 57 74  1  0  0  0  0
 58 60  1  0  0  0  0
 58 63  1  0  0  0  0
 59 64  1  0  0  0  0
 59 75  1  0  0  0  0
 60 82  1  0  0  0  0
 61 65  1  0  0  0  0
 61 73  1  0  0  0  0
 62 74  1  0  0  0  0
 63 75  1  0  0  0  0
 66 67  1  0  0  0  0
M  CHG  2  74   1  75   1
M  ISO  4  29 100  47 100  60 101  82 101
M  END
> <Batch ID>
0108

> <Smiles>
CNC(C)C(=O)NC(C(=O)N1Cc2cc([101O:1][101CH2:1]CC(NCC(C)C)C3CC[100CH:0]([100C:0](=O)N4CCCC(n5nc(-c6ccc(Oc7ccc(F)cc7F)cc6)c(C(N)=O)c5N)C4)CC3)ccc2CC1C(=O)NC1CCCc2ccccc21)C(C)(C)C

> <Shape>
0.211

> <Color>
0.206

> <Negative vol penalty>
0.000

$$$$

  -OEChem-04052319533D

 86 94  0     1  0  0  0  0  0999 V2000
  -17.0264  -31.3141   20.5199 C   0  0  0  0  0  0  0  0  0  0  0  0
  -18.2918  -31.8915   20.5512 C   0  0  0  0  0  0  0  0  0  0  0  0
  -22.4408  -18.4632   23.8264 C   0  0  0  0  0  0  0  0  0  0  0  0
  -21.3406  -18.9245   21.7255 C   0  0  0  0  0  0  0  0  0  0  0  0
  -16.7325  -30.2362   21.3539 C   0  0  0  0  0  0  0  0  0  0  0  0
  -19.2636  -31.3919   21.4174 C   0  0  0  0  0  0  0  0  0  0  0  0
  -25.5498  -28.9239   18.9107 C   0  0  0  0  0  0  0  0  0  0  0  0
  -21.4419  -19.1631   24.5032 C   0  0  0  0  0  0  0  0  0  0  0  0
  -20.3417  -19.6243   22.4023 C   0  0  0  0  0  0  0  0  0  0  0  0
  -26.8587  -28.6293   18.5282 C   0  0  0  0  0  0  0  0  0  0  0  0
  -18.9891  -20.5207   26.8174 C   0  0  0  0  0  0  0  0  0  0  0  0
  -18.4616  -19.9434   27.9724 C   0  0  0  0  0  0  0  0  0  0  0  0
  -24.5796  -22.1264   14.9229 C   0  0  0  0  0  0  0  0  0  0  0  0
  -27.4037  -28.0390   20.8091 C   0  0  0  0  0  0  0  0  0  0  0  0
  -17.7408  -18.0292   26.6864 C   0  0  0  0  0  0  0  0  0  0  0  0
  -23.4080  -22.6748   15.4195 C   0  0  0  0  0  0  0  0  0  0  0  0
  -24.4668  -23.4567   17.3025 C   0  0  0  0  0  0  0  0  0  0  0  0
  -22.3902  -18.3440   22.4376 C   0  0  0  0  0  0  0  0  0  0  0  0
  -23.4377  -16.2485   21.4280 C   0  0  0  0  0  0  0  0  0  0  0  0
  -17.7042  -29.7169   22.2238 C   0  0  0  0  0  0  0  0  0  0  0  0
  -25.1583  -28.7622   20.2426 C   0  0  0  0  0  0  0  0  0  0  0  0
  -18.9820  -30.3068   22.2648 C   0  0  0  0  0  0  0  0  0  0  0  0
  -26.0907  -28.3206   21.1957 C   0  0  0  0  0  0  0  0  0  0  0  0
  -25.7368  -22.2683   15.6805 C   0  0  0  0  0  0  0  0  0  0  0  0
  -25.6879  -22.9447   16.8943 C   0  0  0  0  0  0  0  0  0  0  0  0
  -20.3923  -19.7436   23.7912 C   0  0  0  0  0  0  0  0  0  0  0  0
  -27.7834  -28.1883   19.4751 C   0  0  0  0  0  0  0  0  0  0  0  0
  -18.8924  -19.8523   25.5969 C   0  0  0  0  0  0  0  0  0  0  0  0
  -17.8374  -18.6976   27.9069 C   0  0  0  0  0  0  0  0  0  0  0  0
  -18.2683  -18.6066   25.5314 C   0  0  0  0  0  0  0  0  0  0  0  0
  -23.4220  -17.6216   21.7378 C   0  0  0  0  0  0  0  0  0  0  0  0
  -24.6250  -16.0599   20.7638 C   0  0  0  0  0  0  0  0  0  0  0  0
  -22.4658  -15.2341   21.7148 C   0  0  0  0  0  0  0  0  0  0  0  0
  -22.3996  -28.9978   22.7743 C   0  0  0  0  0  0  0  0  0  0  0  0
  -29.0432  -24.4225   18.1510 C   0  0  0  0  0  0  0  0  0  0  0  0
  -23.9698  -26.4387   23.4031 C   0  0  0  0  0  0  0  0  0  0  0  0
  -25.2604  -23.5856   23.0908 C   0  0  0  0  0  0  0  0  0  0  0  0
  -28.1493  -19.7178   17.5936 C   0  0  0  0  0  0  0  0  0  0  0  0
  -17.3252  -28.5808   23.1404 C   0  0  0  0  0  0  0  0  0  0  0  0
  -23.7757  -29.1261   20.7111 C   0  0  0  0  0  0  0  0  0  0  0  0
  -25.6342  -28.1944   22.6235 C   0  0  0  0  0  0  0  0  0  0  0  0
  -18.5265  -27.8713   23.7599 C   0  0  0  0  0  0  0  0  0  0  0  0
  -29.0655  -17.8153   20.4602 C   0  0  0  0  0  0  0  0  0  0  0  0
  -19.5278  -28.8882   24.2984 C   0  0  0  0  0  0  0  0  0  0  0  0
  -27.7244  -17.4260   21.0848 C   0  0  0  0  0  0  0  0  0  0  0  0
  -29.0215  -19.2177   19.8576 C   0  0  0  0  0  0  0  0  0  0  0  0
  -26.5856  -19.0551   19.5203 C   0  0  0  0  0  0  0  0  0  0  0  0
  -20.0705  -29.7772   23.1729 C   0  0  1  0  0  0  0  0  0  0  0  0
  -23.2561  -28.2061   21.8304 C   0  0  1  0  0  0  0  0  0  0  0  0
  -26.5640  -17.6271   20.0917 C   0  0  2  0  0  0  0  0  0  0  0  0
  -26.0277  -21.3528   23.9411 C   0  0  0  0  0  0  0  0  0  0  0  0
  -25.4193  -27.9058   25.6504 C   0  0  0  0  0  0  0  0  0  0  0  0
  -26.3621  -25.7052   26.3831 C   0  0  0  0  0  0  0  0  0  0  0  0
  -23.8953  -26.0751   26.4121 C   0  0  0  0  0  0  0  0  0  0  0  0
  -23.4822  -22.1335   21.2231 C   0  0  0  0  0  0  0  0  0  0  0  0
  -27.0156  -21.6896   15.1725 C   0  0  0  0  0  0  0  0  0  0  0  0
  -26.9134  -23.1287   17.7554 C   0  0  0  0  0  0  0  0  0  0  0  0
  -27.8307  -24.2425   17.2546 C   0  0  0  0  0  0  0  0  0  0  0  0
  -30.0374  -25.4956   17.7370 C   0  0  0  0  0  0  0  0  0  0  0  0
  -30.7259  -26.1821   18.9123 C   0  0  0  0  0  0  0  0  0  0  0  0
  -27.1274  -20.1748   15.3786 C   0  0  0  0  0  0  0  0  0  0  0  0
  -29.7443  -26.8918   19.8377 C   0  0  0  0  0  0  0  0  0  1  0  0
  -25.0812  -25.7993   24.1964 C   0  0  1  0  0  0  0  0  0  0  0  0
  -24.8947  -22.1249   23.2831 C   0  0  2  0  0  0  0  0  0  0  0  0
  -25.1937  -26.3808   25.6340 C   0  0  0  0  0  0  0  0  0  0  0  0
  -23.3215  -23.3386   16.5940 N   0  0  0  0  0  0  0  0  0  0  0  0
  -24.5129  -18.2601   21.3062 N   0  0  0  0  0  0  0  0  0  0  0  0
  -25.2252  -17.2838   20.7183 N   0  0  0  0  0  0  0  0  0  0  0  0
  -24.2950  -27.5870   22.6710 N   0  0  0  0  0  0  0  0  0  0  0  0
  -27.8996  -19.3418   18.9237 N   0  0  0  0  0  0  0  0  0  0  0  0
  -25.2039  -14.9682   20.2202 N   0  0  0  0  0  0  0  0  0  0  0  0
  -21.3022  -15.5998   22.4052 N   0  0  0  0  0  0  0  0  0  0  0  0
  -21.0699  -29.0662   22.4046 N   0  0  0  0  0  0  0  0  0  0  0  0
  -24.8402  -24.3611   24.1507 N   0  0  0  0  0  0  0  0  0  0  0  0
  -27.0312  -19.8057   16.7734 N   0  0  0  0  0  0  0  0  0  0  0  0
  -24.5935  -21.4891   21.9694 N   0  3  0  0  0  0  0  0  0  0  0  0
  -22.6321  -14.0358   21.3834 O   0  0  0  0  0  0  0  0  0  0  0  0
  -22.9064  -29.5084   23.7663 O   0  0  0  0  0  0  0  0  0  0  0  0
  -29.1854  -23.7410   19.1658 O   0  0  0  0  0  0  0  0  0  0  0  0
  -22.8417  -25.9390   23.4344 O   0  0  0  0  0  0  0  0  0  0  0  0
  -25.8621  -23.9970   22.1013 O   0  0  0  0  0  0  0  0  0  0  0  0
  -29.2851  -19.9522   17.1671 O   0  0  0  0  0  0  0  0  0  0  0  0
  -19.4173  -20.4264   24.4512 O   0  0  0  0  0  0  0  0  0  0  0  0
  -29.0583  -27.8982   19.0941 O   0  0  0  0  0  0  0  0  0  1  0  0
  -17.3323  -18.1427   29.0164 F   0  0  0  0  0  0  0  0  0  0  0  0
  -18.1735  -17.9591   24.3620 F   0  0  0  0  0  0  0  0  0  0  0  0
  1  2  1  0  0  0  0
  1  5  2  0  0  0  0
  2  6  2  0  0  0  0
  3  8  2  0  0  0  0
  3 18  1  0  0  0  0
  4  9  1  0  0  0  0
  4 18  2  0  0  0  0
  5 20  1  0  0  0  0
  6 22  1  0  0  0  0
  7 10  2  0  0  0  0
  7 21  1  0  0  0  0
  8 26  1  0  0  0  0
  9 26  2  0  0  0  0
 10 27  1  0  0  0  0
 11 12  2  0  0  0  0
 11 28  1  0  0  0  0
 12 29  1  0  0  0  0
 13 16  2  0  0  0  0
 13 24  1  0  0  0  0
 14 23  1  0  0  0  0
 14 27  2  0  0  0  0
 15 29  2  0  0  0  0
 15 30  1  0  0  0  0
 16 66  1  0  0  0  0
 17 25  1  0  0  0  0
 17 66  2  0  0  0  0
 18 31  1  0  0  0  0
 19 31  1  0  0  0  0
 19 32  2  0  0  0  0
 19 33  1  0  0  0  0
 20 22  2  0  0  0  0
 20 39  1  0  0  0  0
 21 23  2  0  0  0  0
 21 40  1  0  0  0  0
 22 48  1  0  0  0  0
 23 41  1  0  0  0  0
 24 25  2  0  0  0  0
 24 56  1  0  0  0  0
 25 57  1  0  0  0  0
 26 83  1  0  0  0  0
 27 84  1  0  0  0  0
 28 30  2  0  0  0  0
 28 83  1  0  0  0  0
 29 85  1  0  0  0  0
 30 86  1  0  0  0  0
 31 67  2  0  0  0  0
 32 68  1  0  0  0  0
 32 71  1  0  0  0  0
 33 72  1  0  0  0  0
 33 77  2  0  0  0  0
 34 49  1  0  0  0  0
 34 73  1  0  0  0  0
 34 78  2  0  0  0  0
 35 58  1  0  0  0  0
 35 59  1  0  0  0  0
 35 79  2  0  0  0  0
 36 63  1  0  0  0  0
 36 69  1  0  0  0  0
 36 80  2  0  0  0  0
 37 64  1  0  0  0  0
 37 74  1  0  0  0  0
 37 81  2  0  0  0  0
 38 70  1  0  0  0  0
 38 75  1  0  0  0  0
 38 82  2  0  0  0  0
 39 42  1  0  0  0  0
 40 49  1  0  0  0  0
 41 69  1  0  0  0  0
 42 44  1  0  0  0  0
 43 45  1  0  0  0  0
 43 46  1  0  0  0  0
 44 48  1  0  0  0  0
 45 50  1  0  0  0  0
 46 70  1  0  0  0  0
 47 50  1  0  0  0  0
 47 70  1  0  0  0  0
 48 73  1  0  0  0  0
 49 69  1  0  0  0  0
 50 68  1  0  0  0  0
 51 64  1  0  0  0  0
 52 65  1  0  0  0  0
 53 65  1  0  0  0  0
 54 65  1  0  0  0  0
 55 76  1  0  0  0  0
 56 61  1  0  0  0  0
 57 58  1  0  0  0  0
 59 60  1  0  0  0  0
 60 62  1  0  0  0  0
 61 75  1  0  0  0  0
 62 84  1  0  0  0  0
 63 65  1  0  0  0  0
 63 74  1  0  0  0  0
 64 76  1  0  0  0  0
 67 68  1  0  0  0  0
M  CHG  1  76   1
M  ISO  4  38 100  62 101  75 100  84 101
M  END
> <Batch ID>
0108

> <Smiles>
CNC(C)C(=O)NC(C(=O)N1Cc2cc([101O:1][101CH2:1]CCC(=O)CCc3cnccc3CC[100NH:0][100C:0](=O)N3CCCC(n4nc(-c5ccc(Oc6ccc(F)cc6F)cc5)c(C(N)=O)c4N)C3)ccc2CC1C(=O)NC1CCCc2ccccc21)C(C)(C)C

> <Shape>
0.150

> <Color>
0.103

> <Negative vol penalty>
0.000

$$$$

  -OEChem-04052319533D

 74 81  0     1  0  0  0  0  0999 V2000
  -28.2308  -25.2084   16.1993 C   0  0  0  0  0  0  0  0  0  0  0  0
  -27.0595  -25.3005   16.9442 C   0  0  0  0  0  0  0  0  0  0  0  0
  -25.7130  -20.1520   24.9982 C   0  0  0  0  0  0  0  0  0  0  0  0
  -25.4260  -20.3799   22.6101 C   0  0  0  0  0  0  0  0  0  0  0  0
  -29.4176  -25.7421   16.6998 C   0  0  0  0  0  0  0  0  0  0  0  0
  -27.0745  -25.9256   18.1905 C   0  0  0  0  0  0  0  0  0  0  0  0
  -23.1587  -29.0718   18.8333 C   0  0  0  0  0  0  0  0  0  0  0  0
  -26.0405  -18.8066   24.8305 C   0  0  0  0  0  0  0  0  0  0  0  0
  -25.7535  -19.0344   22.4424 C   0  0  0  0  0  0  0  0  0  0  0  0
  -21.9260  -28.4990   19.1434 C   0  0  0  0  0  0  0  0  0  0  0  0
  -24.2290  -16.0370   22.7920 C   0  0  0  0  0  0  0  0  0  0  0  0
  -23.4337  -15.2787   21.9329 C   0  0  0  0  0  0  0  0  0  0  0  0
  -22.2663  -29.0406   21.4694 C   0  0  0  0  0  0  0  0  0  0  0  0
  -25.3647  -14.8111   20.5582 C   0  0  0  0  0  0  0  0  0  0  0  0
  -25.4057  -20.9387   23.8880 C   0  0  0  0  0  0  0  0  0  0  0  0
  -25.9494  -23.4252   24.0591 C   0  0  0  0  0  0  0  0  0  0  0  0
  -29.4452  -26.3826   17.9487 C   0  0  0  0  0  0  0  0  0  0  0  0
  -23.9607  -29.6244   19.8421 C   0  0  0  0  0  0  0  0  0  0  0  0
  -28.2630  -26.4673   18.7088 C   0  0  0  0  0  0  0  0  0  0  0  0
  -23.5077  -29.6220   21.1690 C   0  0  0  0  0  0  0  0  0  0  0  0
  -26.0607  -18.2478   23.5526 C   0  0  0  0  0  0  0  0  0  0  0  0
  -21.4809  -28.4808   20.4620 C   0  0  0  0  0  0  0  0  0  0  0  0
  -25.5921  -16.1824   22.5342 C   0  0  0  0  0  0  0  0  0  0  0  0
  -24.0016  -14.6657   20.8160 C   0  0  0  0  0  0  0  0  0  0  0  0
  -26.1600  -15.5695   21.4173 C   0  0  0  0  0  0  0  0  0  0  0  0
  -25.0668  -22.3284   24.0607 C   0  0  0  0  0  0  0  0  0  0  0  0
  -25.1406  -24.5170   24.2596 C   0  0  0  0  0  0  0  0  0  0  0  0
  -27.3730  -23.4544   23.8912 C   0  0  0  0  0  0  0  0  0  0  0  0
  -26.8571  -29.0058   20.9962 C   0  0  0  0  0  0  0  0  0  0  0  0
  -26.3188  -31.6994   22.7216 C   0  0  0  0  0  0  0  0  0  0  0  0
  -24.0595  -33.8640   24.0843 C   0  0  0  0  0  0  0  0  0  0  0  0
  -19.3416  -25.5483   23.1832 C   0  0  0  0  0  0  0  0  0  0  0  0
  -30.7618  -26.9025   18.4690 C   0  0  0  0  0  0  0  0  0  0  0  0
  -25.2759  -30.2623   19.4874 C   0  0  0  0  0  0  0  0  0  0  0  0
  -24.3218  -30.2203   22.2861 C   0  0  0  0  0  0  0  0  0  0  0  0
  -30.6139  -27.8799   19.6323 C   0  0  0  0  0  0  0  0  0  0  0  0
  -21.0137  -25.7924   26.3170 C   0  0  0  0  0  0  0  0  0  0  0  0
  -29.6297  -27.3372   20.6636 C   0  0  0  0  0  0  0  0  0  0  0  0
  -22.3217  -25.0313   26.0940 C   0  0  0  0  0  0  0  0  0  0  0  0
  -19.8488  -25.1425   25.5737 C   0  0  0  0  0  0  0  0  0  0  0  0
  -21.3833  -24.1694   23.9088 C   0  0  0  0  0  0  0  0  0  0  0  0
  -28.2338  -27.1597   20.0541 C   0  0  1  0  0  0  0  0  0  0  0  0
  -26.2414  -30.3361   20.6662 C   0  0  1  0  0  0  0  0  0  0  0  0
  -22.5980  -24.8190   24.5934 C   0  0  2  0  0  0  0  0  0  0  0  0
  -23.9197  -35.9507   25.4713 C   0  0  0  0  0  0  0  0  0  0  0  0
  -18.4543  -24.7437   19.8799 C   0  0  0  0  0  0  0  0  0  0  0  0
  -26.9729  -30.0781   25.2224 C   0  0  0  0  0  0  0  0  0  0  0  0
  -25.9151  -31.8898   26.5889 C   0  0  0  0  0  0  0  0  0  0  0  0
  -27.9255  -32.3904   25.1994 C   0  0  0  0  0  0  0  0  0  0  0  0
  -22.6964  -35.3510   21.9188 C   0  0  0  0  0  0  0  0  0  0  0  0
  -19.8320  -26.8485   19.9398 C   0  0  0  0  0  0  0  0  0  1  0  0
  -25.6997  -32.0029   24.0646 C   0  0  1  0  0  0  0  0  0  0  0  0
  -23.9772  -35.3797   24.0629 C   0  0  2  0  0  0  0  0  0  0  0  0
  -18.9738  -25.8797   20.7513 C   0  0  2  0  0  0  0  0  0  0  0  0
  -26.6136  -31.5772   25.2483 C   0  0  0  0  0  0  0  0  0  0  0  0
  -23.7948  -22.6905   24.2476 N   0  0  0  0  0  0  0  0  0  0  0  0
  -23.8722  -24.0270   24.3654 N   0  0  0  0  0  0  0  0  0  0  0  0
  -25.6034  -30.8266   21.8895 N   0  0  0  0  0  0  0  0  0  0  0  0
  -20.1744  -24.9709   24.1558 N   0  0  0  0  0  0  0  0  0  0  0  0
  -25.3978  -25.8389   24.3541 N   0  0  0  0  0  0  0  0  0  0  0  0
  -28.0477  -22.2417   23.6952 N   0  0  0  0  0  0  0  0  0  0  0  0
  -27.5608  -28.4369   19.9519 N   0  0  0  0  0  0  0  0  0  0  0  0
  -25.3654  -33.4229   24.0485 N   0  0  0  0  0  0  0  0  0  0  0  0
  -19.7256  -25.3429   21.8637 N   0  0  0  0  0  0  0  0  0  0  0  0
  -22.7595  -35.8220   23.3264 N   0  3  0  0  0  0  0  0  0  0  0  0
  -28.0293  -24.5227   23.9308 O   0  0  0  0  0  0  0  0  0  0  0  0
  -26.7061  -28.5313   22.1160 O   0  0  0  0  0  0  0  0  0  0  0  0
  -27.3938  -32.2232   22.4191 O   0  0  0  0  0  0  0  0  0  0  0  0
  -23.0649  -33.1435   24.1321 O   0  0  0  0  0  0  0  0  0  0  0  0
  -18.3335  -26.2030   23.4697 O   0  0  0  0  0  0  0  0  0  0  0  0
  -26.3805  -16.9350   23.3885 O   0  0  0  0  0  0  0  0  0  0  0  0
  -20.2784  -27.9218   20.7676 O   0  0  0  0  0  0  0  0  0  1  0  0
  -23.2381  -13.9363   19.9919 F   0  0  0  0  0  0  0  0  0  0  0  0
  -27.4692  -15.7046   21.1651 F   0  0  0  0  0  0  0  0  0  0  0  0
  1  2  1  0  0  0  0
  1  5  2  0  0  0  0
  2  6  2  0  0  0  0
  3  8  2  0  0  0  0
  3 15  1  0  0  0  0
  4  9  1  0  0  0  0
  4 15  2  0  0  0  0
  5 17  1  0  0  0  0
  6 19  1  0  0  0  0
  7 10  2  0  0  0  0
  7 18  1  0  0  0  0
  8 21  1  0  0  0  0
  9 21  2  0  0  0  0
 10 22  1  0  0  0  0
 11 12  2  0  0  0  0
 11 23  1  0  0  0  0
 12 24  1  0  0  0  0
 13 20  1  0  0  0  0
 13 22  2  0  0  0  0
 14 24  2  0  0  0  0
 14 25  1  0  0  0  0
 15 26  1  0  0  0  0
 16 26  1  0  0  0  0
 16 27  2  0  0  0  0
 16 28  1  0  0  0  0
 17 19  2  0  0  0  0
 17 33  1  0  0  0  0
 18 20  2  0  0  0  0
 18 34  1  0  0  0  0
 19 42  1  0  0  0  0
 20 35  1  0  0  0  0
 21 71  1  0  0  0  0
 22 72  1  0  0  0  0
 23 25  2  0  0  0  0
 23 71  1  0  0  0  0
 24 73  1  0  0  0  0
 25 74  1  0  0  0  0
 26 56  2  0  0  0  0
 27 57  1  0  0  0  0
 27 60  1  0  0  0  0
 28 61  1  0  0  0  0
 28 66  2  0  0  0  0
 29 43  1  0  0  0  0
 29 62  1  0  0  0  0
 29 67  2  0  0  0  0
 30 52  1  0  0  0  0
 30 58  1  0  0  0  0
 30 68  2  0  0  0  0
 31 53  1  0  0  0  0
 31 63  1  0  0  0  0
 31 69  2  0  0  0  0
 32 59  1  0  0  0  0
 32 64  1  0  0  0  0
 32 70  2  0  0  0  0
 33 36  1  0  0  0  0
 34 43  1  0  0  0  0
 35 58  1  0  0  0  0
 36 38  1  0  0  0  0
 37 39  1  0  0  0  0
 37 40  1  0  0  0  0
 38 42  1  0  0  0  0
 39 44  1  0  0  0  0
 40 59  1  0  0  0  0
 41 44  1  0  0  0  0
 41 59  1  0  0  0  0
 42 62  1  0  0  0  0
 43 58  1  0  0  0  0
 44 57  1  0  0  0  0
 45 53  1  0  0  0  0
 46 54  1  0  0  0  0
 47 55  1  0  0  0  0
 48 55  1  0  0  0  0
 49 55  1  0  0  0  0
 50 65  1  0  0  0  0
 51 54  1  0  0  0  0
 51 72  1  0  0  0  0
 52 55  1  0  0  0  0
 52 63  1  0  0  0  0
 53 65  1  0  0  0  0
 54 64  1  0  0  0  0
 56 57  1  0  0  0  0
M  CHG  1  65   1
M  ISO  4  32 100  51 101  64 100  72 101
M  END
> <Batch ID>
0108

> <Smiles>
CNC(C)C(=O)NC(C(=O)N1Cc2cc([101O:1][101CH2:1]C(C)[100NH:0][100C:0](=O)N3CCCC(n4nc(-c5ccc(Oc6ccc(F)cc6F)cc5)c(C(N)=O)c4N)C3)ccc2CC1C(=O)NC1CCCc2ccccc21)C(C)(C)C

> <Shape>
0.211

> <Color>
0.058

> <Negative vol penalty>
0.000

$$$$

  -OEChem-04052319533D

 83 92  0     1  0  0  0  0  0999 V2000
  -25.0231  -22.1648   20.2820 C   0  0  0  0  0  0  0  0  0  0  0  0
  -25.9724  -21.3729   20.9201 C   0  0  0  0  0  0  0  0  0  0  0  0
  -23.2542  -10.1366   22.1659 C   0  0  0  0  0  0  0  0  0  0  0  0
  -23.5042   -9.5603   19.8330 C   0  0  0  0  0  0  0  0  0  0  0  0
  -25.2225  -23.5406   20.1753 C   0  0  0  0  0  0  0  0  0  0  0  0
  -27.1223  -21.9563   21.4509 C   0  0  0  0  0  0  0  0  0  0  0  0
  -28.2116  -20.2346   26.0870 C   0  0  0  0  0  0  0  0  0  0  0  0
  -22.4941   -8.9848   22.3690 C   0  0  0  0  0  0  0  0  0  0  0  0
  -22.7441   -8.4084   20.0361 C   0  0  0  0  0  0  0  0  0  0  0  0
  -28.8155  -18.9811   26.1751 C   0  0  0  0  0  0  0  0  0  0  0  0
  -23.0488   -5.6750   22.7820 C   0  0  0  0  0  0  0  0  0  0  0  0
  -23.3333   -4.9006   23.9067 C   0  0  0  0  0  0  0  0  0  0  0  0
  -30.9619  -20.0426   26.4675 C   0  0  0  0  0  0  0  0  0  0  0  0
  -21.0778   -5.2330   24.7062 C   0  0  0  0  0  0  0  0  0  0  0  0
  -23.7592  -10.4244   20.8979 C   0  0  0  0  0  0  0  0  0  0  0  0
  -24.1401  -12.9468   20.8953 C   0  0  0  0  0  0  0  0  0  0  0  0
  -26.3708  -24.1424   20.7136 C   0  0  0  0  0  0  0  0  0  0  0  0
  -28.9810  -21.4034   26.1778 C   0  0  0  0  0  0  0  0  0  0  0  0
  -27.3379  -23.3413   21.3501 C   0  0  0  0  0  0  0  0  0  0  0  0
  -30.3650  -21.3097   26.3828 C   0  0  0  0  0  0  0  0  0  0  0  0
  -22.2391   -8.1207   21.3041 C   0  0  0  0  0  0  0  0  0  0  0  0
  -30.1913  -18.8849   26.3625 C   0  0  0  0  0  0  0  0  0  0  0  0
  -21.7788   -6.2285   22.6195 C   0  0  0  0  0  0  0  0  0  0  0  0
  -22.3478   -4.6795   24.8688 C   0  0  0  0  0  0  0  0  0  0  0  0
  -20.7933   -6.0075   23.5815 C   0  0  0  0  0  0  0  0  0  0  0  0
  -24.5439  -11.6143   20.6873 C   0  0  0  0  0  0  0  0  0  0  0  0
  -25.2393  -13.6960   20.5535 C   0  0  0  0  0  0  0  0  0  0  0  0
  -22.8837  -13.4612   21.3564 C   0  0  0  0  0  0  0  0  0  0  0  0
  -29.5938  -23.8421   24.2334 C   0  0  0  0  0  0  0  0  0  0  0  0
  -31.1141  -25.0323   26.8400 C   0  0  0  0  0  0  0  0  0  0  0  0
  -33.2693  -23.7623   29.4399 C   0  0  0  0  0  0  0  0  0  0  0  0
  -30.7407  -14.6198   20.7144 C   0  0  0  0  0  0  0  0  0  0  0  0
  -26.5652  -25.6270   20.5321 C   0  0  0  0  0  0  0  0  0  0  0  0
  -28.3107  -22.7480   26.1076 C   0  0  0  0  0  0  0  0  0  0  0  0
  -31.2330  -22.5343   26.5069 C   0  0  0  0  0  0  0  0  0  0  0  0
  -27.6312  -26.2185   21.4508 C   0  0  0  0  0  0  0  0  0  0  0  0
  -32.4243  -13.6893   26.0953 C   0  0  0  0  0  0  0  0  0  0  0  0
  -30.7558  -18.8511   21.7859 C   0  0  0  0  0  0  0  0  0  0  0  0
  -29.5335  -12.3719   18.2313 C   0  0  0  0  0  0  0  0  0  0  0  0
  -31.9948  -13.4665   24.6478 C   0  0  0  0  0  0  0  0  0  0  0  0
  -28.8861  -25.3514   21.4399 C   0  0  0  0  0  0  0  0  0  0  0  0
  -28.0973  -12.0797   18.6695 C   0  0  0  0  0  0  0  0  0  0  0  0
  -32.1589  -15.1118   26.5825 C   0  0  0  0  0  0  0  0  0  0  0  0
  -31.2362  -17.6859   20.8985 C   0  0  0  0  0  0  0  0  0  0  0  0
  -29.9083  -17.8311   22.5713 C   0  0  0  0  0  0  0  0  0  0  0  0
  -30.4698  -12.5199   19.4285 C   0  0  0  0  0  0  0  0  0  0  0  0
  -28.5985  -13.2121   20.8752 C   0  0  0  0  0  0  0  0  0  0  0  0
  -30.9134  -14.4427   24.2239 C   0  0  0  0  0  0  0  0  0  0  0  0
  -28.5863  -23.9405   21.9604 C   0  0  1  0  0  0  0  0  0  0  0  0
  -29.2613  -23.8689   25.6984 C   0  0  1  0  0  0  0  0  0  0  0  0
  -27.6062  -13.1100   19.7042 C   0  0  2  0  0  0  0  0  0  0  0  0
  -32.3757  -16.1442   25.4766 C   0  0  2  0  0  0  0  0  0  0  0  0
  -30.8655  -16.7203   22.0579 C   0  0  0  0  0  0  0  0  0  0  0  0
  -33.6385  -24.5634   31.7892 C   0  0  0  0  0  0  0  0  0  0  0  0
  -33.4434  -26.5912   25.6340 C   0  0  0  0  0  0  0  0  0  0  0  0
  -34.7659  -26.0744   27.6961 C   0  0  0  0  0  0  0  0  0  0  0  0
  -32.6742  -27.4233   27.8635 C   0  0  0  0  0  0  0  0  0  0  0  0
  -32.6137  -21.1075   30.5717 C   0  0  0  0  0  0  0  0  0  0  0  0
  -32.1313  -17.5604   25.9905 C   0  0  0  0  0  0  0  0  0  1  0  0
  -32.0012  -16.3343   22.9920 C   0  0  0  0  0  0  0  0  0  0  0  0
  -32.5160  -24.9443   27.3929 C   0  0  1  0  0  0  0  0  0  0  0  0
  -32.9110  -23.5654   30.9018 C   0  0  2  0  0  0  0  0  0  0  0  0
  -33.3387  -26.2373   27.1310 C   0  0  0  0  0  0  0  0  0  0  0  0
  -25.8014  -11.5194   20.2473 N   0  0  0  0  0  0  0  0  0  0  0  0
  -26.1973  -12.8017   20.1759 N   0  0  0  0  0  0  0  0  0  0  0  0
  -30.5317  -23.8262   26.4254 N   0  0  0  0  0  0  0  0  0  0  0  0
  -29.9476  -13.5126   20.3708 N   0  0  0  0  0  0  0  0  0  0  0  0
  -25.4702  -15.0261   20.5420 N   0  0  0  0  0  0  0  0  0  0  0  0
  -21.8959  -13.7606   20.4082 N   0  0  0  0  0  0  0  0  0  0  0  0
  -28.4927  -23.9439   23.4046 N   0  0  0  0  0  0  0  0  0  0  0  0
  -32.3775  -24.5998   28.8038 N   0  0  0  0  0  0  0  0  0  0  0  0
  -30.1678  -15.5158   21.6086 N   0  0  0  0  0  0  0  0  0  0  0  0
  -31.4261  -15.8694   24.3083 N   0  3  1  0  0  0  0  0  0  0  0  0
  -33.2763  -22.1899   31.3439 N   0  3  0  0  0  0  0  0  0  0  0  0
  -22.6500  -13.6653   22.5718 O   0  0  0  0  0  0  0  0  0  0  0  0
  -30.7628  -23.7384   23.8809 O   0  0  0  0  0  0  0  0  0  0  0  0
  -30.5536  -26.1298   26.7847 O   0  0  0  0  0  0  0  0  0  0  0  0
  -34.2450  -23.2297   28.9156 O   0  0  0  0  0  0  0  0  0  0  0  0
  -31.8733  -14.7995   20.2540 O   0  0  0  0  0  0  0  0  0  0  0  0
  -21.4977   -6.9965   21.5020 O   0  0  0  0  0  0  0  0  0  0  0  0
  -30.7835  -17.6627   26.4481 O   0  0  0  0  0  0  0  0  0  1  0  0
  -22.6207   -3.9345   25.9480 F   0  0  0  0  0  0  0  0  0  0  0  0
  -19.5710   -6.5357   23.4302 F   0  0  0  0  0  0  0  0  0  0  0  0
  1  2  1  0  0  0  0
  1  5  2  0  0  0  0
  2  6  2  0  0  0  0
  3  8  2  0  0  0  0
  3 15  1  0  0  0  0
  4  9  1  0  0  0  0
  4 15  2  0  0  0  0
  5 17  1  0  0  0  0
  6 19  1  0  0  0  0
  7 10  2  0  0  0  0
  7 18  1  0  0  0  0
  8 21  1  0  0  0  0
  9 21  2  0  0  0  0
 10 22  1  0  0  0  0
 11 12  2  0  0  0  0
 11 23  1  0  0  0  0
 12 24  1  0  0  0  0
 13 20  1  0  0  0  0
 13 22  2  0  0  0  0
 14 24  2  0  0  0  0
 14 25  1  0  0  0  0
 15 26  1  0  0  0  0
 16 26  1  0  0  0  0
 16 27  2  0  0  0  0
 16 28  1  0  0  0  0
 17 19  2  0  0  0  0
 17 33  1  0  0  0  0
 18 20  2  0  0  0  0
 18 34  1  0  0  0  0
 19 49  1  0  0  0  0
 20 35  1  0  0  0  0
 21 80  1  0  0  0  0
 22 81  1  0  0  0  0
 23 25  2  0  0  0  0
 23 80  1  0  0  0  0
 24 82  1  0  0  0  0
 25 83  1  0  0  0  0
 26 64  2  0  0  0  0
 27 65  1  0  0  0  0
 27 68  1  0  0  0  0
 28 69  1  0  0  0  0
 28 75  2  0  0  0  0
 29 50  1  0  0  0  0
 29 70  1  0  0  0  0
 29 76  2  0  0  0  0
 30 61  1  0  0  0  0
 30 66  1  0  0  0  0
 30 77  2  0  0  0  0
 31 62  1  0  0  0  0
 31 71  1  0  0  0  0
 31 78  2  0  0  0  0
 32 67  1  0  0  0  0
 32 72  1  0  0  0  0
 32 79  2  0  0  0  0
 33 36  1  0  0  0  0
 34 50  1  0  0  0  0
 35 66  1  0  0  0  0
 36 41  1  0  0  0  0
 37 40  1  0  0  0  0
 37 43  1  0  0  0  0
 38 44  1  0  0  0  0
 38 45  1  0  0  0  0
 39 42  1  0  0  0  0
 39 46  1  0  0  0  0
 40 48  1  0  0  0  0
 41 49  1  0  0  0  0
 42 51  1  0  0  0  0
 43 52  1  0  0  0  0
 44 53  1  0  0  0  0
 45 53  1  0  0  0  0
 46 67  1  0  0  0  0
 47 51  1  0  0  0  0
 47 67  1  0  0  0  0
 48 73  1  0  0  0  0
 49 70  1  0  0  0  0
 50 66  1  0  0  0  0
 51 65  1  0  0  0  0
 52 59  1  0  0  0  0
 52 73  1  0  0  0  0
 53 60  1  0  0  0  0
 53 72  1  0  0  0  0
 54 62  1  0  0  0  0
 55 63  1  0  0  0  0
 56 63  1  0  0  0  0
 57 63  1  0  0  0  0
 58 74  1  0  0  0  0
 59 81  1  0  0  0  0
 60 73  1  0  0  0  0
 61 63  1  0  0  0  0
 61 71  1  0  0  0  0
 62 74  1  0  0  0  0
 64 65  1  0  0  0  0
M  CHG  2  73   1  74   1
M  ISO  4  32 100  59 101  72 100  81 101
M  END
> <Batch ID>
0108

> <Smiles>
CNC(C)C(=O)NC(C(=O)N1Cc2cc([101O:1][101CH2:1]C3CCCCN3CC3([100NH:0][100C:0](=O)N4CCCC(n5nc(-c6ccc(Oc7ccc(F)cc7F)cc6)c(C(N)=O)c5N)C4)CCC3)ccc2CC1C(=O)NC1CCCc2ccccc21)C(C)(C)C

> <Shape>
0.192

> <Color>
0.173

> <Negative vol penalty>
0.000

$$$$

  -OEChem-04052319533D

 80 87  0     1  0  0  0  0  0999 V2000
  -23.1263   -7.2578   24.6414 C   0  0  0  0  0  0  0  0  0  0  0  0
  -24.2893   -8.0097   24.7743 C   0  0  0  0  0  0  0  0  0  0  0  0
  -25.7960  -28.8144   20.8188 C   0  0  0  0  0  0  0  0  0  0  0  0
  -27.1132  -28.3204   22.7830 C   0  0  0  0  0  0  0  0  0  0  0  0
  -22.3577   -7.3637   23.4829 C   0  0  0  0  0  0  0  0  0  0  0  0
  -24.6849   -8.8671   23.7483 C   0  0  0  0  0  0  0  0  0  0  0  0
  -27.5009  -14.2723   24.3479 C   0  0  0  0  0  0  0  0  0  0  0  0
  -24.8707  -29.4948   21.6104 C   0  0  0  0  0  0  0  0  0  0  0  0
  -26.1879  -29.0008   23.5746 C   0  0  0  0  0  0  0  0  0  0  0  0
  -28.8393  -14.6492   24.2452 C   0  0  0  0  0  0  0  0  0  0  0  0
  -25.4430  -32.2088   24.3327 C   0  0  0  0  0  0  0  0  0  0  0  0
  -25.9386  -33.0878   25.2956 C   0  0  0  0  0  0  0  0  0  0  0  0
  -28.4740  -15.2992   21.9510 C   0  0  0  0  0  0  0  0  0  0  0  0
  -24.8578  -31.7981   27.0293 C   0  0  0  0  0  0  0  0  0  0  0  0
  -26.9172  -28.2272   21.4051 C   0  0  0  0  0  0  0  0  0  0  0  0
  -29.0123  -28.0608   19.9593 C   0  0  0  0  0  0  0  0  0  0  0  0
  -22.7390   -8.2301   22.4463 C   0  0  0  0  0  0  0  0  0  0  0  0
  -26.6403  -14.3961   23.2477 C   0  0  0  0  0  0  0  0  0  0  0  0
  -23.9214   -8.9837   22.5743 C   0  0  0  0  0  0  0  0  0  0  0  0
  -27.1246  -14.9256   22.0431 C   0  0  0  0  0  0  0  0  0  0  0  0
  -25.0667  -29.5880   22.9882 C   0  0  0  0  0  0  0  0  0  0  0  0
  -29.3267  -15.1600   23.0458 C   0  0  0  0  0  0  0  0  0  0  0  0
  -24.6548  -31.1244   24.7181 C   0  0  0  0  0  0  0  0  0  0  0  0
  -25.6460  -32.8825   26.6439 C   0  0  0  0  0  0  0  0  0  0  0  0
  -24.3622  -30.9190   26.0663 C   0  0  0  0  0  0  0  0  0  0  0  0
  -27.8730  -27.5237   20.5880 C   0  0  0  0  0  0  0  0  0  0  0  0
  -29.5817  -26.9929   19.3099 C   0  0  0  0  0  0  0  0  0  0  0  0
  -29.5114  -29.4049   19.9621 C   0  0  0  0  0  0  0  0  0  0  0  0
  -24.9418  -12.3650   21.4888 C   0  0  0  0  0  0  0  0  0  0  0  0
  -23.8140  -15.0884   20.1348 C   0  0  0  0  0  0  0  0  0  0  0  0
  -24.3001  -18.3934   19.4365 C   0  0  0  0  0  0  0  0  0  0  0  0
  -29.3807  -21.0803   20.2333 C   0  0  0  0  0  0  0  0  0  0  0  0
  -21.9012   -8.2754   21.1930 C   0  0  0  0  0  0  0  0  0  0  0  0
  -25.1928  -14.0101   23.3827 C   0  0  0  0  0  0  0  0  0  0  0  0
  -26.2367  -15.0976   20.8387 C   0  0  0  0  0  0  0  0  0  0  0  0
  -22.1902   -9.4872   20.3107 C   0  0  0  0  0  0  0  0  0  0  0  0
  -28.4512  -22.8167   17.2672 C   0  0  0  0  0  0  0  0  0  0  0  0
  -23.6941   -9.6790   20.1431 C   0  0  0  0  0  0  0  0  0  0  0  0
  -28.3004  -24.2684   17.7252 C   0  0  0  0  0  0  0  0  0  0  0  0
  -27.9772  -21.8353   18.3369 C   0  0  0  0  0  0  0  0  0  0  0  0
  -28.4454  -23.4697   20.1210 C   0  0  0  0  0  0  0  0  0  0  0  0
  -24.3704   -9.9434   21.4938 C   0  0  1  0  0  0  0  0  0  0  0  0
  -24.5300  -13.6990   22.0443 C   0  0  1  0  0  0  0  0  0  0  0  0
  -28.9627  -24.4951   19.0976 C   0  0  2  0  0  0  0  0  0  0  0  0
  -23.2199  -20.3426   18.2828 C   0  0  0  0  0  0  0  0  0  0  0  0
  -33.4456  -16.3084   22.8796 C   0  0  0  0  0  0  0  0  0  0  0  0
  -24.6056  -13.9223   17.4286 C   0  0  0  0  0  0  0  0  0  0  0  0
  -24.3996  -16.2202   16.4563 C   0  0  0  0  0  0  0  0  0  0  0  0
  -22.4021  -15.1048   17.4506 C   0  0  0  0  0  0  0  0  0  0  0  0
  -29.3098  -20.6173   24.2127 C   0  0  0  0  0  0  0  0  0  0  0  0
  -28.8849  -18.8074   22.5335 C   0  0  0  0  0  0  0  0  0  0  0  0
  -24.1699  -19.9558   21.9466 C   0  0  0  0  0  0  0  0  0  0  0  0
  -30.7826  -20.4771   22.1903 C   0  0  0  0  0  0  0  0  0  0  0  0
  -31.2712  -15.9968   24.1298 C   0  0  0  0  0  0  0  0  0  1  0  0
  -31.8080  -18.2220   23.0939 C   0  0  0  0  0  0  0  0  0  0  0  0
  -24.2318  -15.9572   18.9730 C   0  0  1  0  0  0  0  0  0  0  0  0
  -23.3947  -19.6010   19.5989 C   0  0  2  0  0  0  0  0  0  0  0  0
  -32.3908  -16.9773   23.7694 C   0  0  2  0  0  0  0  0  0  0  0  0
  -23.9272  -15.2962   17.5991 C   0  0  0  0  0  0  0  0  0  0  0  0
  -29.9589  -19.6683   23.2025 C   0  0  0  0  0  0  0  0  0  0  0  0
  -27.7257  -26.2162   20.3586 N   0  0  0  0  0  0  0  0  0  0  0  0
  -28.7798  -25.9227   19.5784 N   0  0  0  0  0  0  0  0  0  0  0  0
  -24.8307  -14.6999   21.0186 N   0  0  0  0  0  0  0  0  0  0  0  0
  -28.6443  -22.1032   19.6133 N   0  0  0  0  0  0  0  0  0  0  0  0
  -30.6850  -26.8742   18.5411 N   0  0  0  0  0  0  0  0  0  0  0  0
  -28.8042  -30.3787   20.6804 N   0  0  0  0  0  0  0  0  0  0  0  0
  -24.1516  -11.3123   21.9092 N   0  0  0  0  0  0  0  0  0  0  0  0
  -23.5803  -17.2472   19.1730 N   0  0  0  0  0  0  0  0  0  0  0  0
  -29.9864  -21.4200   21.4369 N   0  0  0  0  0  0  0  0  0  0  0  0
  -23.9667  -20.5465   20.5988 N   0  3  0  0  0  0  0  0  0  0  0  0
  -30.5445  -29.7361   19.3325 O   0  0  0  0  0  0  0  0  0  0  0  0
  -25.9043  -12.2961   20.7335 O   0  0  0  0  0  0  0  0  0  0  0  0
  -22.6280  -14.7722   20.2576 O   0  0  0  0  0  0  0  0  0  0  0  0
  -25.5237  -18.4609   19.5300 O   0  0  0  0  0  0  0  0  0  0  0  0
  -29.4946  -19.9499   19.7476 O   0  0  0  0  0  0  0  0  0  0  0  0
  -24.1642  -30.2521   23.7609 O   0  0  0  0  0  0  0  0  0  0  0  0
  -30.6328  -15.5281   22.9427 O   0  0  0  0  0  0  0  0  0  1  0  0
  -30.8307  -18.8190   23.9361 O   0  0  0  0  0  0  0  0  0  0  0  0
  -26.1233  -33.7259   27.5687 F   0  0  0  0  0  0  0  0  0  0  0  0
  -23.6065  -29.8784   26.4427 F   0  0  0  0  0  0  0  0  0  0  0  0
  1  2  1  0  0  0  0
  1  5  2  0  0  0  0
  2  6  2  0  0  0  0
  3  8  2  0  0  0  0
  3 15  1  0  0  0  0
  4  9  1  0  0  0  0
  4 15  2  0  0  0  0
  5 17  1  0  0  0  0
  6 19  1  0  0  0  0
  7 10  2  0  0  0  0
  7 18  1  0  0  0  0
  8 21  1  0  0  0  0
  9 21  2  0  0  0  0
 10 22  1  0  0  0  0
 11 12  2  0  0  0  0
 11 23  1  0  0  0  0
 12 24  1  0  0  0  0
 13 20  1  0  0  0  0
 13 22  2  0  0  0  0
 14 24  2  0  0  0  0
 14 25  1  0  0  0  0
 15 26  1  0  0  0  0
 16 26  1  0  0  0  0
 16 27  2  0  0  0  0
 16 28  1  0  0  0  0
 17 19  2  0  0  0  0
 17 33  1  0  0  0  0
 18 20  2  0  0  0  0
 18 34  1  0  0  0  0
 19 42  1  0  0  0  0
 20 35  1  0  0  0  0
 21 76  1  0  0  0  0
 22 77  1  0  0  0  0
 23 25  2  0  0  0  0
 23 76  1  0  0  0  0
 24 79  1  0  0  0  0
 25 80  1  0  0  0  0
 26 61  2  0  0  0  0
 27 62  1  0  0  0  0
 27 65  1  0  0  0  0
 28 66  1  0  0  0  0
 28 71  2  0  0  0  0
 29 43  1  0  0  0  0
 29 67  1  0  0  0  0
 29 72  2  0  0  0  0
 30 56  1  0  0  0  0
 30 63  1  0  0  0  0
 30 73  2  0  0  0  0
 31 57  1  0  0  0  0
 31 68  1  0  0  0  0
 31 74  2  0  0  0  0
 32 64  1  0  0  0  0
 32 69  1  0  0  0  0
 32 75  2  0  0  0  0
 33 36  1  0  0  0  0
 34 43  1  0  0  0  0
 35 63  1  0  0  0  0
 36 38  1  0  0  0  0
 37 39  1  0  0  0  0
 37 40  1  0  0  0  0
 38 42  1  0  0  0  0
 39 44  1  0  0  0  0
 40 64  1  0  0  0  0
 41 44  1  0  0  0  0
 41 64  1  0  0  0  0
 42 67  1  0  0  0  0
 43 63  1  0  0  0  0
 44 62  1  0  0  0  0
 45 57  1  0  0  0  0
 46 58  1  0  0  0  0
 47 59  1  0  0  0  0
 48 59  1  0  0  0  0
 49 59  1  0  0  0  0
 50 60  1  0  0  0  0
 51 60  1  0  0  0  0
 52 70  1  0  0  0  0
 53 60  1  0  0  0  0
 53 69  1  0  0  0  0
 54 58  1  0  0  0  0
 54 77  1  0  0  0  0
 55 58  1  0  0  0  0
 55 78  1  0  0  0  0
 56 59  1  0  0  0  0
 56 68  1  0  0  0  0
 57 70  1  0  0  0  0
 60 78  1  0  0  0  0
 61 62  1  0  0  0  0
M  CHG  1  70   1
M  ISO  4  32 100  54 101  69 100  77 101
M  END
> <Batch ID>
0108

> <Smiles>
CNC(C)C(=O)NC(C(=O)N1Cc2cc([101O:1][101CH2:1]C(C)COC(C)(C)C[100NH:0][100C:0](=O)N3CCCC(n4nc(-c5ccc(Oc6ccc(F)cc6F)cc5)c(C(N)=O)c4N)C3)ccc2CC1C(=O)NC1CCCc2ccccc21)C(C)(C)C

> <Shape>
0.226

> <Color>
0.071

> <Negative vol penalty>
0.000

$$$$

  -OEChem-04052319533D

 85 93  0     1  0  0  0  0  0999 V2000
  -21.3319  -29.7755   19.5249 C   0  0  0  0  0  0  0  0  0  0  0  0
  -21.6570  -28.4347   19.7036 C   0  0  0  0  0  0  0  0  0  0  0  0
  -23.0742   -9.8673   19.9524 C   0  0  0  0  0  0  0  0  0  0  0  0
  -23.8293   -9.8912   22.2472 C   0  0  0  0  0  0  0  0  0  0  0  0
  -21.7673  -30.7261   20.4473 C   0  0  0  0  0  0  0  0  0  0  0  0
  -22.4187  -28.0438   20.8043 C   0  0  0  0  0  0  0  0  0  0  0  0
  -21.9292  -22.8113   23.9487 C   0  0  0  0  0  0  0  0  0  0  0  0
  -22.3293   -8.7164   20.2094 C   0  0  0  0  0  0  0  0  0  0  0  0
  -23.0844   -8.7403   22.5043 C   0  0  0  0  0  0  0  0  0  0  0  0
  -22.6459  -21.6165   23.8988 C   0  0  0  0  0  0  0  0  0  0  0  0
  -19.3777   -7.9320   21.6605 C   0  0  0  0  0  0  0  0  0  0  0  0
  -18.0718   -7.8827   21.1729 C   0  0  0  0  0  0  0  0  0  0  0  0
  -24.0250  -22.3742   25.7272 C   0  0  0  0  0  0  0  0  0  0  0  0
  -30.3261  -18.1658   24.0778 C   0  0  0  0  0  0  0  0  0  0  0  0
  -18.6333   -5.9295   19.8665 C   0  0  0  0  0  0  0  0  0  0  0  0
  -28.7488  -18.2735   22.4746 C   0  0  0  0  0  0  0  0  0  0  0  0
  -23.8243  -10.4547   20.9712 C   0  0  0  0  0  0  0  0  0  0  0  0
  -24.1675  -12.9787   20.8329 C   0  0  0  0  0  0  0  0  0  0  0  0
  -22.5265  -30.3453   21.5650 C   0  0  0  0  0  0  0  0  0  0  0  0
  -22.2627  -23.8028   24.8827 C   0  0  0  0  0  0  0  0  0  0  0  0
  -22.8658  -28.9903   21.7417 C   0  0  0  0  0  0  0  0  0  0  0  0
  -23.3094  -23.5797   25.7886 C   0  0  0  0  0  0  0  0  0  0  0  0
  -29.9874  -17.7469   22.7675 C   0  0  0  0  0  0  0  0  0  0  0  0
  -22.3343   -8.1529   21.4854 C   0  0  0  0  0  0  0  0  0  0  0  0
  -23.6958  -21.3989   24.7862 C   0  0  0  0  0  0  0  0  0  0  0  0
  -20.3115   -6.9801   21.2510 C   0  0  0  0  0  0  0  0  0  0  0  0
  -17.6996   -6.8815   20.2759 C   0  0  0  0  0  0  0  0  0  0  0  0
  -19.9393   -5.9789   20.3541 C   0  0  0  0  0  0  0  0  0  0  0  0
  -24.5945  -11.6432   20.7061 C   0  0  0  0  0  0  0  0  0  0  0  0
  -29.2841  -18.9355   24.5458 C   0  0  0  0  0  0  0  0  0  0  0  0
  -25.2608  -13.7249   20.4663 C   0  0  0  0  0  0  0  0  0  0  0  0
  -22.8964  -13.4982   21.2453 C   0  0  0  0  0  0  0  0  0  0  0  0
  -23.2756  -26.8100   24.6966 C   0  0  0  0  0  0  0  0  0  0  0  0
  -22.8862  -26.7300   27.9159 C   0  0  0  0  0  0  0  0  0  0  0  0
  -22.7199  -24.8642   30.7686 C   0  0  0  0  0  0  0  0  0  0  0  0
  -30.7446  -14.7429   20.6584 C   0  0  0  0  0  0  0  0  0  0  0  0
  -23.0146  -31.4150   22.5096 C   0  0  0  0  0  0  0  0  0  0  0  0
  -21.4627  -25.0752   24.9413 C   0  0  0  0  0  0  0  0  0  0  0  0
  -23.6941  -24.6040   26.8237 C   0  0  0  0  0  0  0  0  0  0  0  0
  -23.5004  -30.8688   23.8496 C   0  0  0  0  0  0  0  0  0  0  0  0
  -29.6109  -12.3410   18.2873 C   0  0  0  0  0  0  0  0  0  0  0  0
  -24.4147  -29.6666   23.6362 C   0  0  0  0  0  0  0  0  0  0  0  0
  -28.1724  -12.0512   18.7194 C   0  0  0  0  0  0  0  0  0  0  0  0
  -30.5256  -12.5705   19.4884 C   0  0  0  0  0  0  0  0  0  0  0  0
  -28.6213  -13.3128   20.8655 C   0  0  0  0  0  0  0  0  0  0  0  0
  -23.6692  -28.5239   22.9363 C   0  0  1  0  0  0  0  0  0  0  0  0
  -22.2201  -26.2277   25.5935 C   0  0  1  0  0  0  0  0  0  0  0  0
  -27.6495  -13.1298   19.6872 C   0  0  2  0  0  0  0  0  0  0  0  0
  -22.4314  -25.0833   33.2518 C   0  0  0  0  0  0  0  0  0  0  0  0
  -30.3530  -19.3890   26.7813 C   0  0  0  0  0  0  0  0  0  0  0  0
  -27.8576  -19.1029   26.6155 C   0  0  0  0  0  0  0  0  0  0  0  0
  -28.9445  -21.1782   25.7830 C   0  0  0  0  0  0  0  0  0  0  0  0
  -25.7694  -27.6974   28.1631 C   0  0  0  0  0  0  0  0  0  0  0  0
  -25.7262  -26.9936   30.5654 C   0  0  0  0  0  0  0  0  0  0  0  0
  -24.1693  -28.7681   29.7592 C   0  0  0  0  0  0  0  0  0  0  0  0
  -20.2412  -23.2473   30.7402 C   0  0  0  0  0  0  0  0  0  0  0  0
  -30.8089  -16.9027   21.8792 C   0  0  0  0  0  0  0  0  0  0  0  0
  -27.0165  -19.7337   23.6476 C   0  0  0  0  0  0  0  0  0  0  0  0
  -24.5059  -19.5918   23.4694 C   0  0  0  0  0  0  0  0  0  1  0  0
  -23.7620  -26.3644   29.0900 C   0  0  1  0  0  0  0  0  0  0  0  0
  -21.7300  -24.8695   31.9195 C   0  0  2  0  0  0  0  0  0  0  0  0
  -25.8154  -18.8092   23.4224 C   0  0  2  0  0  0  0  0  0  0  0  0
  -29.1193  -19.6185   25.8457 C   0  0  0  0  0  0  0  0  0  0  0  0
  -24.8510  -27.4372   29.3738 C   0  0  0  0  0  0  0  0  0  0  0  0
  -25.8601  -11.5437   20.2912 N   0  0  0  0  0  0  0  0  0  0  0  0
  -28.3308  -18.9940   23.5630 N   0  0  0  0  0  0  0  0  0  0  0  0
  -26.2379  -12.8261   20.1540 N   0  0  0  0  0  0  0  0  0  0  0  0
  -22.8859  -25.8345   26.8370 N   0  0  0  0  0  0  0  0  0  0  0  0
  -29.9737  -13.6059   20.3655 N   0  0  0  0  0  0  0  0  0  0  0  0
  -25.4720  -15.0557   20.3837 N   0  0  0  0  0  0  0  0  0  0  0  0
  -21.8834  -12.5921   21.5873 N   0  0  0  0  0  0  0  0  0  0  0  0
  -22.8197  -27.8242   23.8761 N   0  0  0  0  0  0  0  0  0  0  0  0
  -22.8607  -26.1170   30.2101 N   0  0  0  0  0  0  0  0  0  0  0  0
  -30.1441  -15.6783   21.4922 N   0  0  0  0  0  0  0  0  0  0  0  0
  -20.9960  -23.5738   31.9774 N   0  3  0  0  0  0  0  0  0  0  0  0
  -22.6606  -14.7293   21.2929 O   0  0  0  0  0  0  0  0  0  0  0  0
  -24.4192  -26.3726   24.7462 O   0  0  0  0  0  0  0  0  0  0  0  0
  -22.2212  -27.7681   27.9577 O   0  0  0  0  0  0  0  0  0  0  0  0
  -23.3122  -23.8508   30.4041 O   0  0  0  0  0  0  0  0  0  0  0  0
  -31.8816  -14.9144   20.2059 O   0  0  0  0  0  0  0  0  0  0  0  0
  -25.7935  -17.8310   24.4643 O   0  0  0  0  0  0  0  0  0  0  0  0
  -21.6074   -7.0300   21.7367 O   0  0  0  0  0  0  0  0  0  0  0  0
  -24.3973  -20.2338   24.7392 O   0  0  0  0  0  0  0  0  0  1  0  0
  -16.4451   -6.8333   19.8089 F   0  0  0  0  0  0  0  0  0  0  0  0
  -20.8316   -5.0609   19.9580 F   0  0  0  0  0  0  0  0  0  0  0  0
  1  2  1  0  0  0  0
  1  5  2  0  0  0  0
  2  6  2  0  0  0  0
  3  8  2  0  0  0  0
  3 17  1  0  0  0  0
  4  9  1  0  0  0  0
  4 17  2  0  0  0  0
  5 19  1  0  0  0  0
  6 21  1  0  0  0  0
  7 10  2  0  0  0  0
  7 20  1  0  0  0  0
  8 24  1  0  0  0  0
  9 24  2  0  0  0  0
 10 25  1  0  0  0  0
 11 12  2  0  0  0  0
 11 26  1  0  0  0  0
 12 27  1  0  0  0  0
 13 22  1  0  0  0  0
 13 25  2  0  0  0  0
 14 23  1  0  0  0  0
 14 30  2  0  0  0  0
 15 27  2  0  0  0  0
 15 28  1  0  0  0  0
 16 23  2  0  0  0  0
 16 66  1  0  0  0  0
 17 29  1  0  0  0  0
 18 29  1  0  0  0  0
 18 31  2  0  0  0  0
 18 32  1  0  0  0  0
 19 21  2  0  0  0  0
 19 37  1  0  0  0  0
 20 22  2  0  0  0  0
 20 38  1  0  0  0  0
 21 46  1  0  0  0  0
 22 39  1  0  0  0  0
 23 57  1  0  0  0  0
 24 82  1  0  0  0  0
 25 83  1  0  0  0  0
 26 28  2  0  0  0  0
 26 82  1  0  0  0  0
 27 84  1  0  0  0  0
 28 85  1  0  0  0  0
 29 65  2  0  0  0  0
 30 63  1  0  0  0  0
 30 66  1  0  0  0  0
 31 67  1  0  0  0  0
 31 70  1  0  0  0  0
 32 71  1  0  0  0  0
 32 76  2  0  0  0  0
 33 47  1  0  0  0  0
 33 72  1  0  0  0  0
 33 77  2  0  0  0  0
 34 60  1  0  0  0  0
 34 68  1  0  0  0  0
 34 78  2  0  0  0  0
 35 61  1  0  0  0  0
 35 73  1  0  0  0  0
 35 79  2  0  0  0  0
 36 69  1  0  0  0  0
 36 74  1  0  0  0  0
 36 80  2  0  0  0  0
 37 40  1  0  0  0  0
 38 47  1  0  0  0  0
 39 68  1  0  0  0  0
 40 42  1  0  0  0  0
 41 43  1  0  0  0  0
 41 44  1  0  0  0  0
 42 46  1  0  0  0  0
 43 48  1  0  0  0  0
 44 69  1  0  0  0  0
 45 48  1  0  0  0  0
 45 69  1  0  0  0  0
 46 72  1  0  0  0  0
 47 68  1  0  0  0  0
 48 67  1  0  0  0  0
 49 61  1  0  0  0  0
 50 63  1  0  0  0  0
 51 63  1  0  0  0  0
 52 63  1  0  0  0  0
 53 64  1  0  0  0  0
 54 64  1  0  0  0  0
 55 64  1  0  0  0  0
 56 75  1  0  0  0  0
 57 74  1  0  0  0  0
 58 62  1  0  0  0  0
 58 66  1  0  0  0  0
 59 62  1  0  0  0  0
 59 83  1  0  0  0  0
 60 64  1  0  0  0  0
 60 73  1  0  0  0  0
 61 75  1  0  0  0  0
 62 81  1  0  0  0  0
 65 67  1  0  0  0  0
M  CHG  1  75   1
M  ISO  4  36 100  59 101  74 100  83 101
M  END
> <Batch ID>
0108

> <Smiles>
CNC(C)C(=O)NC(C(=O)N1Cc2cc([101O:1][101CH2:1]C(O)Cn3cc(C[100NH:0][100C:0](=O)N4CCCC(n5nc(-c6ccc(Oc7ccc(F)cc7F)cc6)c(C(N)=O)c5N)C4)cc3C(C)(C)C)ccc2CC1C(=O)NC1CCCc2ccccc21)C(C)(C)C

> <Shape>
0.188

> <Color>
0.188

> <Negative vol penalty>
0.000

$$$$

  -OEChem-04052319533D

 82 90  0     1  0  0  0  0  0999 V2000
  -16.8382  -28.3310   23.8165 C   0  0  0  0  0  0  0  0  0  0  0  0
  -17.4761  -27.7637   22.7180 C   0  0  0  0  0  0  0  0  0  0  0  0
  -27.5866  -10.8086   21.6924 C   0  0  0  0  0  0  0  0  0  0  0  0
  -25.7696  -11.7435   20.4034 C   0  0  0  0  0  0  0  0  0  0  0  0
  -17.3433  -29.4979   24.3885 C   0  0  0  0  0  0  0  0  0  0  0  0
  -18.6189  -28.3637   22.1902 C   0  0  0  0  0  0  0  0  0  0  0  0
  -22.2765  -25.0135   21.1688 C   0  0  0  0  0  0  0  0  0  0  0  0
  -26.6857   -9.9799   22.3613 C   0  0  0  0  0  0  0  0  0  0  0  0
  -24.8687  -10.9148   21.0722 C   0  0  0  0  0  0  0  0  0  0  0  0
  -22.1426  -24.2601   20.0034 C   0  0  0  0  0  0  0  0  0  0  0  0
  -23.8909   -7.6825   20.9416 C   0  0  0  0  0  0  0  0  0  0  0  0
  -22.9316   -7.0196   20.1763 C   0  0  0  0  0  0  0  0  0  0  0  0
  -23.6883  -25.7330   18.8808 C   0  0  0  0  0  0  0  0  0  0  0  0
  -21.1779   -8.1242   21.4179 C   0  0  0  0  0  0  0  0  0  0  0  0
  -27.1285  -11.6904   20.7135 C   0  0  0  0  0  0  0  0  0  0  0  0
  -28.7551  -12.2614   18.8332 C   0  0  0  0  0  0  0  0  0  0  0  0
  -18.4984  -30.1071   23.8735 C   0  0  0  0  0  0  0  0  0  0  0  0
  -23.1104  -26.1406   21.1959 C   0  0  0  0  0  0  0  0  0  0  0  0
  -19.1391  -29.5405   22.7550 C   0  0  0  0  0  0  0  0  0  0  0  0
  -23.8331  -26.4975   20.0485 C   0  0  0  0  0  0  0  0  0  0  0  0
  -25.3268  -10.0330   22.0512 C   0  0  0  0  0  0  0  0  0  0  0  0
  -22.8463  -24.6215   18.8583 C   0  0  0  0  0  0  0  0  0  0  0  0
  -23.4938   -8.5663   21.9451 C   0  0  0  0  0  0  0  0  0  0  0  0
  -21.5750   -7.2404   20.4144 C   0  0  0  0  0  0  0  0  0  0  0  0
  -22.1373   -8.7872   22.1832 C   0  0  0  0  0  0  0  0  0  0  0  0
  -28.0585  -12.5471   20.0227 C   0  0  0  0  0  0  0  0  0  0  0  0
  -29.5033  -13.3883   18.5943 C   0  0  0  0  0  0  0  0  0  0  0  0
  -28.7283  -11.0829   18.0171 C   0  0  0  0  0  0  0  0  0  0  0  0
  -22.6652  -29.2489   21.6900 C   0  0  0  0  0  0  0  0  0  0  0  0
  -25.9051  -29.3372   21.5558 C   0  0  0  0  0  0  0  0  0  0  0  0
  -28.8000  -27.8948   20.4670 C   0  0  0  0  0  0  0  0  0  0  0  0
  -28.8611  -19.1231   20.1912 C   0  0  0  0  0  0  0  0  0  0  0  0
  -18.9797  -31.3937   24.4961 C   0  0  0  0  0  0  0  0  0  0  0  0
  -23.2646  -26.9271   22.4686 C   0  0  0  0  0  0  0  0  0  0  0  0
  -24.7570  -27.6869   20.0314 C   0  0  0  0  0  0  0  0  0  0  0  0
  -20.4104  -31.7596   24.1094 C   0  0  0  0  0  0  0  0  0  0  0  0
  -31.6466  -17.0113   20.8681 C   0  0  0  0  0  0  0  0  0  0  0  0
  -20.6140  -31.6017   22.6060 C   0  0  0  0  0  0  0  0  0  0  0  0
  -31.1057  -15.6020   20.6209 C   0  0  0  0  0  0  0  0  0  0  0  0
  -30.5903  -17.9194   21.4940 C   0  0  0  0  0  0  0  0  0  0  0  0
  -28.7739  -16.5760   20.5094 C   0  0  0  0  0  0  0  0  0  0  0  0
  -27.6019  -20.4892   17.4608 C   0  0  0  0  0  0  0  0  0  0  0  0
  -20.3953  -30.1480   22.1693 C   0  0  1  0  0  0  0  0  0  0  0  0
  -23.7446  -28.3560   22.2336 C   0  0  1  0  0  0  0  0  0  0  0  0
  -29.7856  -15.6391   19.8276 C   0  0  2  0  0  0  0  0  0  0  0  0
  -27.0684  -20.1757   18.8521 C   0  0  1  0  0  0  0  0  0  0  0  0
  -25.2952  -21.2664   17.7293 C   0  0  2  0  0  0  0  0  0  0  0  0
  -25.5404  -20.0574   18.6592 C   0  0  0  0  0  0  0  0  0  0  0  0
  -25.1256  -18.7144   18.0248 C   0  0  0  0  0  0  0  0  0  0  0  0
  -24.7938  -20.2242   19.9890 C   0  0  0  0  0  0  0  0  0  0  0  0
  -31.2885  -28.2185   20.4803 C   0  0  0  0  0  0  0  0  0  0  0  0
  -22.5751  -22.4151   15.2042 C   0  0  0  0  0  0  0  0  0  0  0  0
  -25.6329  -31.4986   19.4195 C   0  0  0  0  0  0  0  0  0  0  0  0
  -28.0282  -31.0997   18.8099 C   0  0  0  0  0  0  0  0  0  0  0  0
  -27.4430  -31.9103   21.0953 C   0  0  0  0  0  0  0  0  0  0  0  0
  -29.2391  -25.3559   21.9232 C   0  0  0  0  0  0  0  0  0  0  0  0
  -24.0143  -21.2802   16.9137 C   0  0  0  0  0  0  0  0  0  0  0  0
  -23.8433  -23.8432   16.8443 C   0  0  0  0  0  0  0  0  0  1  0  0
  -26.9250  -29.5192   20.4579 C   0  0  1  0  0  0  0  0  0  0  0  0
  -30.1007  -27.5808   21.1841 C   0  0  2  0  0  0  0  0  0  0  0  0
  -23.8559  -22.5379   16.0376 C   0  0  2  0  0  0  0  0  0  0  0  0
  -26.9885  -30.9856   19.9451 C   0  0  0  0  0  0  0  0  0  0  0  0
  -28.3392  -13.7602   20.5059 N   0  0  0  0  0  0  0  0  0  0  0  0
  -29.2206  -14.2468   19.6157 N   0  0  0  0  0  0  0  0  0  0  0  0
  -24.8693  -28.4279   21.2986 N   0  0  0  0  0  0  0  0  0  0  0  0
  -29.3641  -17.9113   20.6926 N   0  0  0  0  0  0  0  0  0  0  0  0
  -30.3688  -13.7185   17.6124 N   0  0  0  0  0  0  0  0  0  0  0  0
  -27.9045  -10.0184   18.4076 N   0  0  0  0  0  0  0  0  0  0  0  0
  -21.5503  -29.3415   22.5010 N   0  0  0  0  0  0  0  0  0  0  0  0
  -28.1882  -29.0159   20.9866 N   0  0  0  0  0  0  0  0  0  0  0  0
  -27.6986  -19.0255   19.4364 N   0  0  0  0  0  0  0  0  0  0  0  0
  -26.4856  -21.2521   16.7994 N   0  3  0  0  0  0  0  0  0  0  0  0
  -30.3208  -26.1078   21.2364 N   0  3  0  0  0  0  0  0  0  0  0  0
  -29.4269  -10.9705   16.9813 O   0  0  0  0  0  0  0  0  0  0  0  0
  -22.8323  -29.8132   20.6152 O   0  0  0  0  0  0  0  0  0  0  0  0
  -26.0270  -29.9728   22.6059 O   0  0  0  0  0  0  0  0  0  0  0  0
  -28.3717  -27.2157   19.5365 O   0  0  0  0  0  0  0  0  0  0  0  0
  -29.4104  -20.2108   20.3963 O   0  0  0  0  0  0  0  0  0  0  0  0
  -24.4475   -9.2243   22.7034 O   0  0  0  0  0  0  0  0  0  0  0  0
  -22.7169  -23.8882   17.7193 O   0  0  0  0  0  0  0  0  0  1  0  0
  -20.6538   -6.6049   19.6784 F   0  0  0  0  0  0  0  0  0  0  0  0
  -21.7497   -9.6359   23.1450 F   0  0  0  0  0  0  0  0  0  0  0  0
  1  2  1  0  0  0  0
  1  5  2  0  0  0  0
  2  6  2  0  0  0  0
  3  8  2  0  0  0  0
  3 15  1  0  0  0  0
  4  9  1  0  0  0  0
  4 15  2  0  0  0  0
  5 17  1  0  0  0  0
  6 19  1  0  0  0  0
  7 10  2  0  0  0  0
  7 18  1  0  0  0  0
  8 21  1  0  0  0  0
  9 21  2  0  0  0  0
 10 22  1  0  0  0  0
 11 12  2  0  0  0  0
 11 23  1  0  0  0  0
 12 24  1  0  0  0  0
 13 20  1  0  0  0  0
 13 22  2  0  0  0  0
 14 24  2  0  0  0  0
 14 25  1  0  0  0  0
 15 26  1  0  0  0  0
 16 26  1  0  0  0  0
 16 27  2  0  0  0  0
 16 28  1  0  0  0  0
 17 19  2  0  0  0  0
 17 33  1  0  0  0  0
 18 20  2  0  0  0  0
 18 34  1  0  0  0  0
 19 43  1  0  0  0  0
 20 35  1  0  0  0  0
 21 79  1  0  0  0  0
 22 80  1  0  0  0  0
 23 25  2  0  0  0  0
 23 79  1  0  0  0  0
 24 81  1  0  0  0  0
 25 82  1  0  0  0  0
 26 63  2  0  0  0  0
 27 64  1  0  0  0  0
 27 67  1  0  0  0  0
 28 68  1  0  0  0  0
 28 74  2  0  0  0  0
 29 44  1  0  0  0  0
 29 69  1  0  0  0  0
 29 75  2  0  0  0  0
 30 59  1  0  0  0  0
 30 65  1  0  0  0  0
 30 76  2  0  0  0  0
 31 60  1  0  0  0  0
 31 70  1  0  0  0  0
 31 77  2  0  0  0  0
 32 66  1  0  0  0  0
 32 71  1  0  0  0  0
 32 78  2  0  0  0  0
 33 36  1  0  0  0  0
 34 44  1  0  0  0  0
 35 65  1  0  0  0  0
 36 38  1  0  0  0  0
 37 39  1  0  0  0  0
 37 40  1  0  0  0  0
 38 43  1  0  0  0  0
 39 45  1  0  0  0  0
 40 66  1  0  0  0  0
 41 45  1  0  0  0  0
 41 66  1  0  0  0  0
 42 46  1  0  0  0  0
 42 72  1  0  0  0  0
 43 69  1  0  0  0  0
 44 65  1  0  0  0  0
 45 64  1  0  0  0  0
 46 48  1  0  0  0  0
 46 71  1  0  0  0  0
 47 48  1  0  0  0  0
 47 57  1  0  0  0  0
 47 72  1  0  0  0  0
 48 49  1  0  0  0  0
 48 50  1  0  0  0  0
 51 60  1  0  0  0  0
 52 61  1  0  0  0  0
 53 62  1  0  0  0  0
 54 62  1  0  0  0  0
 55 62  1  0  0  0  0
 56 73  1  0  0  0  0
 57 61  1  0  0  0  0
 58 61  1  0  0  0  0
 58 80  1  0  0  0  0
 59 62  1  0  0  0  0
 59 70  1  0  0  0  0
 60 73  1  0  0  0  0
 63 64  1  0  0  0  0
M  CHG  2  72   1  73   1
M  ISO  4  32 100  58 101  71 100  80 101
M  END
> <Batch ID>
0108

> <Smiles>
CNC(C)C(=O)NC(C(=O)N1Cc2cc([101O:1][101CH2:1]C(C)CC3NCC([100NH:0][100C:0](=O)N4CCCC(n5nc(-c6ccc(Oc7ccc(F)cc7F)cc6)c(C(N)=O)c5N)C4)C3(C)C)ccc2CC1C(=O)NC1CCCc2ccccc21)C(C)(C)C

> <Shape>
0.282

> <Color>
0.075

> <Negative vol penalty>
0.000

$$$$

  -OEChem-04052319533D

 84 92  0     1  0  0  0  0  0999 V2000
  -22.2163  -22.9703   15.7295 C   0  0  0  0  0  0  0  0  0  0  0  0
  -23.4966  -23.4517   15.9834 C   0  0  0  0  0  0  0  0  0  0  0  0
  -26.8903  -13.0881   20.8896 C   0  0  0  0  0  0  0  0  0  0  0  0
  -27.2909  -12.7826   18.5268 C   0  0  0  0  0  0  0  0  0  0  0  0
  -21.1042  -23.6740   16.1900 C   0  0  0  0  0  0  0  0  0  0  0  0
  -23.6656  -24.6377   16.6968 C   0  0  0  0  0  0  0  0  0  0  0  0
  -27.2820  -24.2846   20.2241 C   0  0  0  0  0  0  0  0  0  0  0  0
  -26.2788  -11.8358   20.9479 C   0  0  0  0  0  0  0  0  0  0  0  0
  -26.6795  -11.5303   18.5850 C   0  0  0  0  0  0  0  0  0  0  0  0
  -28.6046  -24.3655   19.7904 C   0  0  0  0  0  0  0  0  0  0  0  0
  -23.2814  -10.4887   20.1572 C   0  0  0  0  0  0  0  0  0  0  0  0
  -22.0805  -10.3867   20.8593 C   0  0  0  0  0  0  0  0  0  0  0  0
  -28.6806  -26.6780   20.4729 C   0  0  0  0  0  0  0  0  0  0  0  0
  -30.3942  -23.0344   15.6949 C   0  0  0  0  0  0  0  0  0  0  0  0
  -23.0874   -8.7708   22.3467 C   0  0  0  0  0  0  0  0  0  0  0  0
  -27.3963  -13.5616   19.6790 C   0  0  0  0  0  0  0  0  0  0  0  0
  -29.3913  -15.1459   19.8116 C   0  0  0  0  0  0  0  0  0  0  0  0
  -21.2599  -24.8643   16.9178 C   0  0  0  0  0  0  0  0  0  0  0  0
  -26.6443  -25.4047   20.7764 C   0  0  0  0  0  0  0  0  0  0  0  0
  -22.5545  -25.3588   17.1663 C   0  0  0  0  0  0  0  0  0  0  0  0
  -27.3507  -26.6080   20.9153 C   0  0  0  0  0  0  0  0  0  0  0  0
  -30.5168  -21.6634   16.0302 C   0  0  0  0  0  0  0  0  0  0  0  0
  -26.1735  -11.0569   19.7956 C   0  0  0  0  0  0  0  0  0  0  0  0
  -29.3031  -25.5632   19.9121 C   0  0  0  0  0  0  0  0  0  0  0  0
  -24.3853   -9.7317   20.5497 C   0  0  0  0  0  0  0  0  0  0  0  0
  -21.9835   -9.5278   21.9540 C   0  0  0  0  0  0  0  0  0  0  0  0
  -24.2883   -8.8728   21.6445 C   0  0  0  0  0  0  0  0  0  0  0  0
  -28.0275  -14.8554   19.6181 C   0  0  0  0  0  0  0  0  0  0  0  0
  -31.6098  -23.4459   15.1948 C   0  0  0  0  0  0  0  0  0  0  0  0
  -31.8038  -21.2789   15.7249 C   0  0  0  0  0  0  0  0  0  0  0  0
  -29.4788  -16.5070   19.6496 C   0  0  0  0  0  0  0  0  0  0  0  0
  -30.4816  -14.2642   20.1109 C   0  0  0  0  0  0  0  0  0  0  0  0
  -24.1168  -27.1631   19.9870 C   0  0  0  0  0  0  0  0  0  0  0  0
  -24.7053  -28.5884   22.8409 C   0  0  0  0  0  0  0  0  0  0  0  0
  -26.9534  -29.3343   25.2979 C   0  0  0  0  0  0  0  0  0  0  0  0
  -28.2027  -21.1769   16.8990 C   0  0  0  0  0  0  0  0  0  0  0  0
  -20.0267  -25.6149   17.3542 C   0  0  0  0  0  0  0  0  0  0  0  0
  -25.2258  -25.2936   21.2641 C   0  0  0  0  0  0  0  0  0  0  0  0
  -26.7180  -27.8337   21.5200 C   0  0  0  0  0  0  0  0  0  0  0  0
  -20.3012  -26.6667   18.4259 C   0  0  0  0  0  0  0  0  0  0  0  0
  -25.8539  -20.0240   19.3137 C   0  0  0  0  0  0  0  0  0  0  0  0
  -21.5224  -27.5017   18.0540 C   0  0  0  0  0  0  0  0  0  0  0  0
  -26.3222  -18.6004   19.6240 C   0  0  0  0  0  0  0  0  0  0  0  0
  -26.0467  -20.3757   17.8396 C   0  0  0  0  0  0  0  0  0  0  0  0
  -27.8716  -18.7338   17.6320 C   0  0  0  0  0  0  0  0  0  0  0  0
  -22.7794  -26.6286   17.9581 C   0  0  1  0  0  0  0  0  0  0  0  0
  -24.5124  -26.6400   21.3389 C   0  0  1  0  0  0  0  0  0  0  0  0
  -27.7574  -18.3564   19.1179 C   0  0  2  0  0  0  0  0  0  0  0  0
  -32.4694  -19.9661   15.8716 C   0  0  0  0  0  0  0  0  0  0  0  0
  -30.8733  -25.5357   14.0014 C   0  0  0  0  0  0  0  0  0  0  0  0
  -27.1493  -30.5447   27.4874 C   0  0  0  0  0  0  0  0  0  0  0  0
  -24.7354  -31.2563   21.3606 C   0  0  0  0  0  0  0  0  0  0  0  0
  -25.8502  -32.2730   23.3585 C   0  0  0  0  0  0  0  0  0  0  0  0
  -23.5622  -31.3017   23.5687 C   0  0  0  0  0  0  0  0  0  0  0  0
  -33.8375  -22.3862   14.7747 C   0  0  0  0  0  0  0  0  0  0  0  0
  -27.6949  -26.8553   26.7344 C   0  0  0  0  0  0  0  0  0  0  0  0
  -32.1587  -26.7173   18.0109 C   0  0  0  0  0  0  0  0  0  0  0  0
  -32.6439  -25.6991   15.7824 C   0  0  0  0  0  0  0  0  0  0  0  0
  -31.0441  -26.9152   19.0192 C   0  0  0  0  0  0  0  0  0  1  0  0
  -32.0425  -24.8145   14.6825 C   0  0  1  0  0  0  0  0  0  0  0  0
  -25.5449  -29.7562   23.2997 C   0  0  1  0  0  0  0  0  0  0  0  0
  -26.8717  -29.2123   26.8088 C   0  0  2  0  0  0  0  0  0  0  0  0
  -24.9348  -31.1244   22.8837 C   0  0  0  0  0  0  0  0  0  0  0  0
  -27.3008  -15.9444   19.3536 N   0  0  0  0  0  0  0  0  0  0  0  0
  -32.4591  -22.3705   15.2181 N   0  0  0  0  0  0  0  0  0  0  0  0
  -28.2114  -16.9325   19.3798 N   0  0  0  0  0  0  0  0  0  0  0  0
  -25.3271  -27.6766   21.9761 N   0  0  0  0  0  0  0  0  0  0  0  0
  -27.4306  -20.1232   17.4322 N   0  0  0  0  0  0  0  0  0  0  0  0
  -30.5154  -17.3694   19.7132 N   0  0  0  0  0  0  0  0  0  0  0  0
  -30.2161  -12.8945   20.2438 N   0  0  0  0  0  0  0  0  0  0  0  0
  -29.5136  -20.8260   16.5779 N   0  0  0  0  0  0  0  0  0  0  0  0
  -23.2819  -26.3193   19.2796 N   0  0  0  0  0  0  0  0  0  0  0  0
  -25.7197  -29.5927   24.7389 N   0  0  0  0  0  0  0  0  0  0  0  0
  -27.8652  -28.2174   27.3026 N   0  3  0  0  0  0  0  0  0  0  0  0
  -31.6442  -25.9348   16.8589 N   0  3  0  0  0  0  0  0  0  0  0  0
  -31.6537  -14.6808   20.2725 O   0  0  0  0  0  0  0  0  0  0  0  0
  -24.5366  -28.2523   19.6141 O   0  0  0  0  0  0  0  0  0  0  0  0
  -23.5430  -28.4851   23.2409 O   0  0  0  0  0  0  0  0  0  0  0  0
  -28.0069  -29.2161   24.6761 O   0  0  0  0  0  0  0  0  0  0  0  0
  -27.7437  -22.3141   16.7644 O   0  0  0  0  0  0  0  0  0  0  0  0
  -25.5771   -9.8347   19.8521 O   0  0  0  0  0  0  0  0  0  0  0  0
  -30.5939  -25.6451   19.4889 O   0  0  0  0  0  0  0  0  0  1  0  0
  -20.8306   -9.4311   22.6291 F   0  0  0  0  0  0  0  0  0  0  0  0
  -25.3457   -8.1439   22.0271 F   0  0  0  0  0  0  0  0  0  0  0  0
  1  2  1  0  0  0  0
  1  5  2  0  0  0  0
  2  6  2  0  0  0  0
  3  8  2  0  0  0  0
  3 16  1  0  0  0  0
  4  9  1  0  0  0  0
  4 16  2  0  0  0  0
  5 18  1  0  0  0  0
  6 20  1  0  0  0  0
  7 10  2  0  0  0  0
  7 19  1  0  0  0  0
  8 23  1  0  0  0  0
  9 23  2  0  0  0  0
 10 24  1  0  0  0  0
 11 12  2  0  0  0  0
 11 25  1  0  0  0  0
 12 26  1  0  0  0  0
 13 21  1  0  0  0  0
 13 24  2  0  0  0  0
 14 22  1  0  0  0  0
 14 29  2  0  0  0  0
 15 26  2  0  0  0  0
 15 27  1  0  0  0  0
 16 28  1  0  0  0  0
 17 28  1  0  0  0  0
 17 31  2  0  0  0  0
 17 32  1  0  0  0  0
 18 20  2  0  0  0  0
 18 37  1  0  0  0  0
 19 21  2  0  0  0  0
 19 38  1  0  0  0  0
 20 46  1  0  0  0  0
 21 39  1  0  0  0  0
 22 30  2  0  0  0  0
 22 71  1  0  0  0  0
 23 81  1  0  0  0  0
 24 82  1  0  0  0  0
 25 27  2  0  0  0  0
 25 81  1  0  0  0  0
 26 83  1  0  0  0  0
 27 84  1  0  0  0  0
 28 64  2  0  0  0  0
 29 60  1  0  0  0  0
 29 65  1  0  0  0  0
 30 49  1  0  0  0  0
 30 65  1  0  0  0  0
 31 66  1  0  0  0  0
 31 69  1  0  0  0  0
 32 70  1  0  0  0  0
 32 76  2  0  0  0  0
 33 47  1  0  0  0  0
 33 72  1  0  0  0  0
 33 77  2  0  0  0  0
 34 61  1  0  0  0  0
 34 67  1  0  0  0  0
 34 78  2  0  0  0  0
 35 62  1  0  0  0  0
 35 73  1  0  0  0  0
 35 79  2  0  0  0  0
 36 68  1  0  0  0  0
 36 71  1  0  0  0  0
 36 80  2  0  0  0  0
 37 40  1  0  0  0  0
 38 47  1  0  0  0  0
 39 67  1  0  0  0  0
 40 42  1  0  0  0  0
 41 43  1  0  0  0  0
 41 44  1  0  0  0  0
 42 46  1  0  0  0  0
 43 48  1  0  0  0  0
 44 68  1  0  0  0  0
 45 48  1  0  0  0  0
 45 68  1  0  0  0  0
 46 72  1  0  0  0  0
 47 67  1  0  0  0  0
 48 66  1  0  0  0  0
 50 60  1  0  0  0  0
 51 62  1  0  0  0  0
 52 63  1  0  0  0  0
 53 63  1  0  0  0  0
 54 63  1  0  0  0  0
 55 65  1  0  0  0  0
 56 74  1  0  0  0  0
 57 59  1  0  0  0  0
 57 75  1  0  0  0  0
 58 60  1  0  0  0  0
 58 75  1  0  0  0  0
 59 82  1  0  0  0  0
 61 63  1  0  0  0  0
 61 73  1  0  0  0  0
 62 74  1  0  0  0  0
 64 66  1  0  0  0  0
M  CHG  2  74   1  75   1
M  ISO  4  36 100  59 101  71 100  82 101
M  END
> <Batch ID>
0108

> <Smiles>
CNC(C)C(=O)NC(C(=O)N1Cc2cc([101O:1][101CH2:1]CNCC(C)c3cc([100NH:0][100C:0](=O)N4CCCC(n5nc(-c6ccc(Oc7ccc(F)cc7F)cc6)c(C(N)=O)c5N)C4)c(C)n3C)ccc2CC1C(=O)NC1CCCc2ccccc21)C(C)(C)C

> <Shape>
0.207

> <Color>
0.084

> <Negative vol penalty>
0.000

$$$$

  -OEChem-04052319533D

 85 93  0     1  0  0  0  0  0999 V2000
  -17.4901  -16.5898   18.0377 C   0  0  0  0  0  0  0  0  0  0  0  0
  -18.5340  -16.3311   18.9201 C   0  0  0  0  0  0  0  0  0  0  0  0
  -23.0883   -9.8812   19.9897 C   0  0  0  0  0  0  0  0  0  0  0  0
  -23.5175  -10.0794   22.3590 C   0  0  0  0  0  0  0  0  0  0  0  0
  -17.7501  -17.2024   16.8125 C   0  0  0  0  0  0  0  0  0  0  0  0
  -19.8388  -16.6838   18.5773 C   0  0  0  0  0  0  0  0  0  0  0  0
  -24.2353  -18.6506   22.3599 C   0  0  0  0  0  0  0  0  0  0  0  0
  -22.2671   -8.7798   20.2306 C   0  0  0  0  0  0  0  0  0  0  0  0
  -22.6963   -8.9780   22.5999 C   0  0  0  0  0  0  0  0  0  0  0  0
  -25.3060  -18.0005   22.9721 C   0  0  0  0  0  0  0  0  0  0  0  0
  -22.9176   -5.6111   22.3855 C   0  0  0  0  0  0  0  0  0  0  0  0
  -23.3807   -4.6391   23.2723 C   0  0  0  0  0  0  0  0  0  0  0  0
  -26.7607  -18.7343   21.1931 C   0  0  0  0  0  0  0  0  0  0  0  0
  -21.4653   -5.0235   24.6938 C   0  0  0  0  0  0  0  0  0  0  0  0
  -30.6049  -15.6326   22.7167 C   0  0  0  0  0  0  0  0  0  0  0  0
  -30.2019  -16.9764   24.4621 C   0  0  0  0  0  0  0  0  0  0  0  0
  -23.7136  -10.5310   21.0539 C   0  0  0  0  0  0  0  0  0  0  0  0
  -24.1787  -13.0223   20.7621 C   0  0  0  0  0  0  0  0  0  0  0  0
  -19.0574  -17.5716   16.4586 C   0  0  0  0  0  0  0  0  0  0  0  0
  -24.4172  -19.3394   21.1521 C   0  0  0  0  0  0  0  0  0  0  0  0
  -20.1167  -17.3007   17.3456 C   0  0  0  0  0  0  0  0  0  0  0  0
  -25.6912  -19.3944   20.5690 C   0  0  0  0  0  0  0  0  0  0  0  0
  -31.3981  -15.2035   23.7579 C   0  0  0  0  0  0  0  0  0  0  0  0
  -31.1433  -16.0538   24.8621 C   0  0  0  0  0  0  0  0  0  0  0  0
  -22.0710   -8.3282   21.5357 C   0  0  0  0  0  0  0  0  0  0  0  0
  -26.5683  -18.0399   22.3872 C   0  0  0  0  0  0  0  0  0  0  0  0
  -21.7284   -6.2894   22.6529 C   0  0  0  0  0  0  0  0  0  0  0  0
  -22.6545   -4.3453   24.4264 C   0  0  0  0  0  0  0  0  0  0  0  0
  -21.0022   -5.9956   23.8070 C   0  0  0  0  0  0  0  0  0  0  0  0
  -24.5624  -11.6685   20.8056 C   0  0  0  0  0  0  0  0  0  0  0  0
  -25.3427  -13.7007   20.4953 C   0  0  0  0  0  0  0  0  0  0  0  0
  -22.8856  -13.6136   20.9464 C   0  0  0  0  0  0  0  0  0  0  0  0
  -23.2554  -19.0496   18.2076 C   0  0  0  0  0  0  0  0  0  0  0  0
  -24.8920  -21.8057   17.7097 C   0  0  0  0  0  0  0  0  0  0  0  0
  -27.4481  -23.8660   18.6414 C   0  0  0  0  0  0  0  0  0  0  0  0
  -31.1153  -12.4238   21.4429 C   0  0  0  0  0  0  0  0  0  0  0  0
  -19.2958  -18.1885   15.1032 C   0  0  0  0  0  0  0  0  0  0  0  0
  -23.2577  -20.0579   20.5183 C   0  0  0  0  0  0  0  0  0  0  0  0
  -25.9435  -20.1373   19.2833 C   0  0  0  0  0  0  0  0  0  0  0  0
  -20.6554  -18.8706   14.9750 C   0  0  0  0  0  0  0  0  0  0  0  0
  -29.5721  -13.1703   18.3223 C   0  0  0  0  0  0  0  0  0  0  0  0
  -21.7574  -17.9727   15.5284 C   0  0  0  0  0  0  0  0  0  0  0  0
  -28.0785  -12.9922   18.6010 C   0  0  0  0  0  0  0  0  0  0  0  0
  -30.4139  -12.1482   19.0831 C   0  0  0  0  0  0  0  0  0  0  0  0
  -28.6752  -11.9250   20.8154 C   0  0  0  0  0  0  0  0  0  0  0  0
  -21.5422  -17.6909   17.0203 C   0  0  1  0  0  0  0  0  0  0  0  0
  -23.4476  -20.2966   19.0235 C   0  0  1  0  0  0  0  0  0  0  0  0
  -27.7893  -12.9687   20.1139 C   0  0  2  0  0  0  0  0  0  0  0  0
  -33.7994  -17.4264   25.5970 C   0  0  0  0  0  0  0  0  0  0  0  0
  -28.5615  -26.0279   18.0216 C   0  0  0  0  0  0  0  0  0  0  0  0
  -30.1510  -14.2598   27.2341 C   0  0  0  0  0  0  0  0  0  0  0  0
  -29.6757  -16.6915   27.6021 C   0  0  0  0  0  0  0  0  0  0  0  0
  -26.2452  -20.4286   15.3470 C   0  0  0  0  0  0  0  0  0  0  0  0
  -27.9745  -22.2389   15.3720 C   0  0  0  0  0  0  0  0  0  0  0  0
  -25.5853  -22.8047   14.9313 C   0  0  0  0  0  0  0  0  0  0  0  0
  -26.8255  -25.0745   21.2702 C   0  0  0  0  0  0  0  0  0  0  0  0
  -32.3366  -14.0644   23.7188 C   0  0  0  0  0  0  0  0  0  0  0  0
  -32.6568  -17.2077   26.5836 C   0  0  0  0  0  0  0  0  0  0  0  0
  -31.6606  -12.6875   23.8496 C   0  0  0  0  0  0  0  0  0  0  0  0
  -28.8867  -17.4830   22.3318 C   0  0  0  0  0  0  0  0  0  1  0  0
  -31.7651  -15.9758   26.1987 C   0  0  1  0  0  0  0  0  0  0  0  0
  -26.2937  -22.1520   17.2689 C   0  0  1  0  0  0  0  0  0  0  0  0
  -27.4977  -25.3640   18.8821 C   0  0  2  0  0  0  0  0  0  0  0  0
  -30.7781  -15.6504   27.3906 C   0  0  0  0  0  0  0  0  0  0  0  0
  -26.5198  -21.8903   15.7530 C   0  0  0  0  0  0  0  0  0  0  0  0
  -25.8682  -11.4954   20.5840 N   0  0  0  0  0  0  0  0  0  0  0  0
  -29.8818  -16.7106   23.1563 N   0  0  0  0  0  0  0  0  0  0  0  0
  -26.3150  -12.7492   20.3986 N   0  0  0  0  0  0  0  0  0  0  0  0
  -24.7766  -20.8186   18.6988 N   0  0  0  0  0  0  0  0  0  0  0  0
  -30.0925  -12.1780   20.5120 N   0  0  0  0  0  0  0  0  0  0  0  0
  -25.6191  -15.0125   20.3362 N   0  0  0  0  0  0  0  0  0  0  0  0
  -21.7976  -12.7713   21.2133 N   0  0  0  0  0  0  0  0  0  0  0  0
  -21.9491  -18.8307   17.8138 N   0  0  0  0  0  0  0  0  0  0  0  0
  -26.5201  -23.5342   17.6770 N   0  0  0  0  0  0  0  0  0  0  0  0
  -30.7238  -12.4414   22.7760 N   0  0  0  0  0  0  0  0  0  0  0  0
  -27.8050  -25.6489   20.3123 N   0  3  0  0  0  0  0  0  0  0  0  0
  -22.6975  -14.8508   20.8604 O   0  0  0  0  0  0  0  0  0  0  0  0
  -24.2210  -18.3393   17.9530 O   0  0  0  0  0  0  0  0  0  0  0  0
  -23.9351  -22.3944   17.2005 O   0  0  0  0  0  0  0  0  0  0  0  0
  -28.1638  -23.0702   19.2455 O   0  0  0  0  0  0  0  0  0  0  0  0
  -32.2892  -12.6190   21.1102 O   0  0  0  0  0  0  0  0  0  0  0  0
  -21.2696   -7.2536   21.7712 O   0  0  0  0  0  0  0  0  0  0  0  0
  -27.6150  -17.4056   22.9823 O   0  0  0  0  0  0  0  0  0  1  0  0
  -23.0985   -3.4108   25.2771 F   0  0  0  0  0  0  0  0  0  0  0  0
  -19.8585   -6.6430   24.0687 F   0  0  0  0  0  0  0  0  0  0  0  0
  1  2  1  0  0  0  0
  1  5  2  0  0  0  0
  2  6  2  0  0  0  0
  3  8  2  0  0  0  0
  3 17  1  0  0  0  0
  4  9  1  0  0  0  0
  4 17  2  0  0  0  0
  5 19  1  0  0  0  0
  6 21  1  0  0  0  0
  7 10  2  0  0  0  0
  7 20  1  0  0  0  0
  8 25  1  0  0  0  0
  9 25  2  0  0  0  0
 10 26  1  0  0  0  0
 11 12  2  0  0  0  0
 11 27  1  0  0  0  0
 12 28  1  0  0  0  0
 13 22  1  0  0  0  0
 13 26  2  0  0  0  0
 14 28  2  0  0  0  0
 14 29  1  0  0  0  0
 15 23  2  0  0  0  0
 15 67  1  0  0  0  0
 16 24  2  0  0  0  0
 16 67  1  0  0  0  0
 17 30  1  0  0  0  0
 18 30  1  0  0  0  0
 18 31  2  0  0  0  0
 18 32  1  0  0  0  0
 19 21  2  0  0  0  0
 19 37  1  0  0  0  0
 20 22  2  0  0  0  0
 20 38  1  0  0  0  0
 21 46  1  0  0  0  0
 22 39  1  0  0  0  0
 23 24  1  0  0  0  0
 23 57  1  0  0  0  0
 24 61  1  0  0  0  0
 25 82  1  0  0  0  0
 26 83  1  0  0  0  0
 27 29  2  0  0  0  0
 27 82  1  0  0  0  0
 28 84  1  0  0  0  0
 29 85  1  0  0  0  0
 30 66  2  0  0  0  0
 31 68  1  0  0  0  0
 31 71  1  0  0  0  0
 32 72  1  0  0  0  0
 32 77  2  0  0  0  0
 33 47  1  0  0  0  0
 33 73  1  0  0  0  0
 33 78  2  0  0  0  0
 34 62  1  0  0  0  0
 34 69  1  0  0  0  0
 34 79  2  0  0  0  0
 35 63  1  0  0  0  0
 35 74  1  0  0  0  0
 35 80  2  0  0  0  0
 36 70  1  0  0  0  0
 36 75  1  0  0  0  0
 36 81  2  0  0  0  0
 37 40  1  0  0  0  0
 38 47  1  0  0  0  0
 39 69  1  0  0  0  0
 40 42  1  0  0  0  0
 41 43  1  0  0  0  0
 41 44  1  0  0  0  0
 42 46  1  0  0  0  0
 43 48  1  0  0  0  0
 44 70  1  0  0  0  0
 45 48  1  0  0  0  0
 45 70  1  0  0  0  0
 46 73  1  0  0  0  0
 47 69  1  0  0  0  0
 48 68  1  0  0  0  0
 49 58  1  0  0  0  0
 50 63  1  0  0  0  0
 51 64  1  0  0  0  0
 52 64  1  0  0  0  0
 53 65  1  0  0  0  0
 54 65  1  0  0  0  0
 55 65  1  0  0  0  0
 56 76  1  0  0  0  0
 57 59  1  0  0  0  0
 58 61  1  0  0  0  0
 59 75  1  0  0  0  0
 60 67  1  0  0  0  0
 60 83  1  0  0  0  0
 61 64  1  0  0  0  0
 62 65  1  0  0  0  0
 62 74  1  0  0  0  0
 63 76  1  0  0  0  0
 66 68  1  0  0  0  0
M  CHG  1  76   1
M  ISO  4  36 100  60 101  75 100  83 101
M  END
> <Batch ID>
0108

> <Smiles>
CCC(c1cn([101CH2:1][101O:1]c2ccc3c(c2)CN(C(=O)C(NC(=O)C(C)NC)C(C)(C)C)C(C(=O)NC2CCCc4ccccc42)C3)cc1CC[100NH:0][100C:0](=O)N1CCCC(n2nc(-c3ccc(Oc4ccc(F)cc4F)cc3)c(C(N)=O)c2N)C1)C(C)C

> <Shape>
0.176

> <Color>
0.186

> <Negative vol penalty>
0.000

$$$$

  -OEChem-04052319533D

 84 92  0     1  0  0  0  0  0999 V2000
  -32.2995  -13.5472   20.5580 C   0  0  0  0  0  0  0  0  0  0  0  0
  -31.7058  -14.8052   20.5796 C   0  0  0  0  0  0  0  0  0  0  0  0
  -18.4859  -28.0756   23.9046 C   0  0  0  0  0  0  0  0  0  0  0  0
  -29.4732  -26.2216   20.6589 C   0  0  0  0  0  0  0  0  0  0  0  0
  -27.6245  -24.6929   20.3717 C   0  0  0  0  0  0  0  0  0  0  0  0
  -31.5275  -12.4179   20.2886 C   0  0  0  0  0  0  0  0  0  0  0  0
  -30.3399  -14.9347   20.3307 C   0  0  0  0  0  0  0  0  0  0  0  0
  -24.6827  -18.9238   22.1744 C   0  0  0  0  0  0  0  0  0  0  0  0
  -18.0885  -26.8635   23.3405 C   0  0  0  0  0  0  0  0  0  0  0  0
  -19.6139  -28.7354   23.4167 C   0  0  0  0  0  0  0  0  0  0  0  0
  -30.2600  -25.1785   21.1470 C   0  0  0  0  0  0  0  0  0  0  0  0
  -28.4114  -23.6497   20.8598 C   0  0  0  0  0  0  0  0  0  0  0  0
  -23.6550  -19.6676   21.5963 C   0  0  0  0  0  0  0  0  0  0  0  0
  -30.0460  -20.5106   21.6918 C   0  0  0  0  0  0  0  0  0  0  0  0
  -30.0143  -19.2971   21.0048 C   0  0  0  0  0  0  0  0  0  0  0  0
  -22.4058  -17.6384   21.2206 C   0  0  0  0  0  0  0  0  0  0  0  0
  -19.9470  -26.9708   21.8005 C   0  0  0  0  0  0  0  0  0  0  0  0
  -30.8207  -20.4031   19.0139 C   0  0  0  0  0  0  0  0  0  0  0  0
  -28.1554  -25.9789   20.2713 C   0  0  0  0  0  0  0  0  0  0  0  0
  -27.2101  -27.4670   18.4275 C   0  0  0  0  0  0  0  0  0  0  0  0
  -30.1496  -12.5326   20.0457 C   0  0  0  0  0  0  0  0  0  0  0  0
  -24.5843  -17.5283   22.2702 C   0  0  0  0  0  0  0  0  0  0  0  0
  -29.5490  -13.8060   20.0564 C   0  0  0  0  0  0  0  0  0  0  0  0
  -23.4326  -16.8794   21.8026 C   0  0  0  0  0  0  0  0  0  0  0  0
  -18.8190  -26.3110   22.2884 C   0  0  0  0  0  0  0  0  0  0  0  0
  -20.3445  -28.1830   22.3647 C   0  0  0  0  0  0  0  0  0  0  0  0
  -29.7291  -23.8925   21.2475 C   0  0  0  0  0  0  0  0  0  0  0  0
  -22.5176  -19.0247   21.1166 C   0  0  0  0  0  0  0  0  0  0  0  0
  -30.4650  -21.6704   21.0399 C   0  0  0  0  0  0  0  0  0  0  0  0
  -30.4017  -19.2433   19.6659 C   0  0  0  0  0  0  0  0  0  0  0  0
  -30.8524  -21.6167   19.7009 C   0  0  0  0  0  0  0  0  0  0  0  0
  -27.3419  -27.0562   19.7675 C   0  0  0  0  0  0  0  0  0  0  0  0
  -26.3303  -28.5205   18.4763 C   0  0  0  0  0  0  0  0  0  0  0  0
  -27.8277  -26.9431   17.2444 C   0  0  0  0  0  0  0  0  0  0  0  0
  -26.2439  -15.0777   21.1107 C   0  0  0  0  0  0  0  0  0  0  0  0
  -24.2596  -13.3429   23.0015 C   0  0  0  0  0  0  0  0  0  0  0  0
  -21.2687  -13.1218   24.6302 C   0  0  0  0  0  0  0  0  0  0  0  0
  -22.0193  -30.0642   22.3153 C   0  0  0  0  0  0  0  0  0  0  0  0
  -29.3652  -11.2883   19.7124 C   0  0  0  0  0  0  0  0  0  0  0  0
  -25.6900  -16.7430   22.9207 C   0  0  0  0  0  0  0  0  0  0  0  0
  -23.2692  -15.3854   21.9002 C   0  0  0  0  0  0  0  0  0  0  0  0
  -27.8542  -11.4714   19.8289 C   0  0  0  0  0  0  0  0  0  0  0  0
  -24.8412  -32.0243   21.3815 C   0  0  0  0  0  0  0  0  0  0  0  0
  -27.4191  -12.7650   19.1479 C   0  0  0  0  0  0  0  0  0  0  0  0
  -25.7882  -31.0112   20.7342 C   0  0  0  0  0  0  0  0  0  0  0  0
  -24.0868  -31.4200   22.5645 C   0  0  0  0  0  0  0  0  0  0  0  0
  -24.3244  -29.1543   21.6268 C   0  0  0  0  0  0  0  0  0  0  0  0
  -28.0657  -13.9846   19.8157 C   0  0  1  0  0  0  0  0  0  0  0  0
  -25.7085  -15.2765   22.5005 C   0  0  1  0  0  0  0  0  0  0  0  0
  -25.0586  -29.6978   20.3901 C   0  0  2  0  0  0  0  0  0  0  0  0
  -19.9151  -11.5669   26.0611 C   0  0  0  0  0  0  0  0  0  0  0  0
  -23.5689  -11.6807   20.5378 C   0  0  0  0  0  0  0  0  0  0  0  0
  -21.5724  -10.8088   21.7716 C   0  0  0  0  0  0  0  0  0  0  0  0
  -23.8674  -10.3574   22.6388 C   0  0  0  0  0  0  0  0  0  0  0  0
  -21.2353  -15.0389   26.8846 C   0  0  0  0  0  0  0  0  0  0  0  0
  -17.1210  -22.1656   22.2666 C   0  0  0  0  0  0  0  0  0  0  0  0
  -18.3908  -25.0063   21.6816 C   0  0  0  0  0  0  0  0  0  0  0  0
  -19.2072  -20.3954   20.6814 C   0  0  0  0  0  0  0  0  0  0  0  0
  -19.0127  -23.7829   22.3473 C   0  0  0  0  0  0  0  0  0  0  0  0
  -19.4427  -21.3903   21.8079 C   0  0  0  0  0  0  0  0  0  0  0  0
  -20.1894  -19.2304   20.6769 C   0  0  0  0  0  0  0  0  0  1  0  0
  -22.9103  -12.6904   22.8209 C   0  0  1  0  0  0  0  0  0  0  0  0
  -20.9224  -12.7061   26.0486 C   0  0  2  0  0  0  0  0  0  0  0  0
  -22.9834  -11.4123   21.9385 C   0  0  0  0  0  0  0  0  0  0  0  0
  -26.6049  -27.7891   20.6064 N   0  0  0  0  0  0  0  0  0  0  0  0
  -26.0016  -28.6711   19.7914 N   0  0  0  0  0  0  0  0  0  0  0  0
  -24.3805  -14.6608   22.5387 N   0  0  0  0  0  0  0  0  0  0  0  0
  -23.4171  -30.1811   22.1628 N   0  0  0  0  0  0  0  0  0  0  0  0
  -25.8134  -29.3236   17.5222 N   0  0  0  0  0  0  0  0  0  0  0  0
  -28.7057  -25.8582   17.3734 N   0  0  0  0  0  0  0  0  0  0  0  0
  -21.4898  -28.8538   21.8688 N   0  0  0  0  0  0  0  0  0  0  0  0
  -27.3864  -14.3025   21.0534 N   0  0  0  0  0  0  0  0  0  0  0  0
  -22.3849  -12.4610   24.1625 N   0  0  0  0  0  0  0  0  0  0  0  0
  -20.3412  -13.8557   26.7980 N   0  3  0  0  0  0  0  0  0  0  0  0
  -18.4836  -22.5162   21.7188 N   0  3  1  0  0  0  0  0  0  0  0  0
  -27.6202  -27.4332   16.1085 O   0  0  0  0  0  0  0  0  0  0  0  0
  -25.6626  -15.5885   20.1605 O   0  0  0  0  0  0  0  0  0  0  0  0
  -25.1705  -12.7091   23.5401 O   0  0  0  0  0  0  0  0  0  0  0  0
  -20.6123  -13.9471   23.9989 O   0  0  0  0  0  0  0  0  0  0  0  0
  -21.3383  -30.9816   22.7806 O   0  0  0  0  0  0  0  0  0  0  0  0
  -30.4967  -22.8743   21.7235 O   0  0  0  0  0  0  0  0  0  0  0  0
  -21.5132  -19.7482   20.5513 O   0  0  0  0  0  0  0  0  0  1  0  0
  -30.3726  -18.0776   19.0067 F   0  0  0  0  0  0  0  0  0  0  0  0
  -31.2570  -22.7273   19.0697 F   0  0  0  0  0  0  0  0  0  0  0  0
  1  2  1  0  0  0  0
  1  6  2  0  0  0  0
  2  7  2  0  0  0  0
  3  9  2  0  0  0  0
  3 10  1  0  0  0  0
  4 11  2  0  0  0  0
  4 19  1  0  0  0  0
  5 12  1  0  0  0  0
  5 19  2  0  0  0  0
  6 21  1  0  0  0  0
  7 23  1  0  0  0  0
  8 13  2  0  0  0  0
  8 22  1  0  0  0  0
  9 25  1  0  0  0  0
 10 26  2  0  0  0  0
 11 27  1  0  0  0  0
 12 27  2  0  0  0  0
 13 28  1  0  0  0  0
 14 15  2  0  0  0  0
 14 29  1  0  0  0  0
 15 30  1  0  0  0  0
 16 24  1  0  0  0  0
 16 28  2  0  0  0  0
 17 25  2  0  0  0  0
 17 26  1  0  0  0  0
 18 30  2  0  0  0  0
 18 31  1  0  0  0  0
 19 32  1  0  0  0  0
 20 32  1  0  0  0  0
 20 33  2  0  0  0  0
 20 34  1  0  0  0  0
 21 23  2  0  0  0  0
 21 39  1  0  0  0  0
 22 24  2  0  0  0  0
 22 40  1  0  0  0  0
 23 48  1  0  0  0  0
 24 41  1  0  0  0  0
 25 57  1  0  0  0  0
 26 71  1  0  0  0  0
 27 81  1  0  0  0  0
 28 82  1  0  0  0  0
 29 31  2  0  0  0  0
 29 81  1  0  0  0  0
 30 83  1  0  0  0  0
 31 84  1  0  0  0  0
 32 65  2  0  0  0  0
 33 66  1  0  0  0  0
 33 69  1  0  0  0  0
 34 70  1  0  0  0  0
 34 76  2  0  0  0  0
 35 49  1  0  0  0  0
 35 72  1  0  0  0  0
 35 77  2  0  0  0  0
 36 62  1  0  0  0  0
 36 67  1  0  0  0  0
 36 78  2  0  0  0  0
 37 63  1  0  0  0  0
 37 73  1  0  0  0  0
 37 79  2  0  0  0  0
 38 68  1  0  0  0  0
 38 71  1  0  0  0  0
 38 80  2  0  0  0  0
 39 42  1  0  0  0  0
 40 49  1  0  0  0  0
 41 67  1  0  0  0  0
 42 44  1  0  0  0  0
 43 45  1  0  0  0  0
 43 46  1  0  0  0  0
 44 48  1  0  0  0  0
 45 50  1  0  0  0  0
 46 68  1  0  0  0  0
 47 50  1  0  0  0  0
 47 68  1  0  0  0  0
 48 72  1  0  0  0  0
 49 67  1  0  0  0  0
 50 66  1  0  0  0  0
 51 63  1  0  0  0  0
 52 64  1  0  0  0  0
 53 64  1  0  0  0  0
 54 64  1  0  0  0  0
 55 74  1  0  0  0  0
 56 75  1  0  0  0  0
 57 59  1  0  0  0  0
 58 60  1  0  0  0  0
 58 61  1  0  0  0  0
 59 75  1  0  0  0  0
 60 75  1  0  0  0  0
 61 82  1  0  0  0  0
 62 64  1  0  0  0  0
 62 73  1  0  0  0  0
 63 74  1  0  0  0  0
 65 66  1  0  0  0  0
M  CHG  2  74   1  75   1
M  ISO  4  38 100  61 101  71 100  82 101
M  END
> <Batch ID>
0108

> <Smiles>
CNC(C)C(=O)NC(C(=O)N1Cc2cc([101O:1][101CH2:1]CCN(C)CCc3cccc([100NH:0][100C:0](=O)N4CCCC(n5nc(-c6ccc(Oc7ccc(F)cc7F)cc6)c(C(N)=O)c5N)C4)c3)ccc2CC1C(=O)NC1CCCc2ccccc21)C(C)(C)C

> <Shape>
0.252

> <Color>
0.080

> <Negative vol penalty>
0.000

$$$$

  -OEChem-04052319533D

 86 94  0     1  0  0  0  0  0999 V2000
  -21.9195  -26.7321   18.1107 C   0  0  0  0  0  0  0  0  0  0  0  0
  -22.9465  -25.7944   18.0750 C   0  0  0  0  0  0  0  0  0  0  0  0
  -21.4119  -21.9275   24.5417 C   0  0  0  0  0  0  0  0  0  0  0  0
  -21.4120  -22.3516   22.1633 C   0  0  0  0  0  0  0  0  0  0  0  0
  -22.1920  -28.0491   18.4786 C   0  0  0  0  0  0  0  0  0  0  0  0
  -24.2469  -26.1733   18.4062 C   0  0  0  0  0  0  0  0  0  0  0  0
  -26.5232  -22.8389   21.4632 C   0  0  0  0  0  0  0  0  0  0  0  0
  -20.5452  -23.0034   24.7336 C   0  0  0  0  0  0  0  0  0  0  0  0
  -20.5453  -23.4276   22.3551 C   0  0  0  0  0  0  0  0  0  0  0  0
  -27.0191  -21.6744   20.8785 C   0  0  0  0  0  0  0  0  0  0  0  0
  -20.7536  -26.6419   23.3825 C   0  0  0  0  0  0  0  0  0  0  0  0
  -21.0362  -27.8299   22.7085 C   0  0  0  0  0  0  0  0  0  0  0  0
  -29.2356  -22.6264   20.8769 C   0  0  0  0  0  0  0  0  0  0  0  0
  -18.9026  -27.6987   21.5826 C   0  0  0  0  0  0  0  0  0  0  0  0
  -27.5550  -16.1583   20.8585 C   0  0  0  0  0  0  0  0  0  0  0  0
  -21.8453  -21.6016   23.2566 C   0  0  0  0  0  0  0  0  0  0  0  0
  -24.0309  -20.3312   23.5987 C   0  0  0  0  0  0  0  0  0  0  0  0
  -23.4947  -28.4421   18.8238 C   0  0  0  0  0  0  0  0  0  0  0  0
  -27.3794  -23.9119   21.7496 C   0  0  0  0  0  0  0  0  0  0  0  0
  -24.5374  -27.4971   18.7778 C   0  0  0  0  0  0  0  0  0  0  0  0
  -28.7485  -23.8024   21.4675 C   0  0  0  0  0  0  0  0  0  0  0  0
  -28.7102  -16.8650   21.1097 C   0  0  0  0  0  0  0  0  0  0  0  0
  -29.3430  -16.2594   22.2233 C   0  0  0  0  0  0  0  0  0  0  0  0
  -20.1119  -23.7534   23.6403 C   0  0  0  0  0  0  0  0  0  0  0  0
  -28.3750  -21.5692   20.5826 C   0  0  0  0  0  0  0  0  0  0  0  0
  -19.5455  -25.9822   23.1566 C   0  0  0  0  0  0  0  0  0  0  0  0
  -20.1108  -28.3583   21.8086 C   0  0  0  0  0  0  0  0  0  0  0  0
  -18.6200  -26.5107   22.2567 C   0  0  0  0  0  0  0  0  0  0  0  0
  -22.7410  -20.4906   23.0578 C   0  0  0  0  0  0  0  0  0  0  0  0
  -28.5552  -15.2008   22.6185 C   0  0  0  0  0  0  0  0  0  0  0  0
  -24.4595  -19.1199   23.1135 C   0  0  0  0  0  0  0  0  0  0  0  0
  -24.7751  -21.2004   24.4627 C   0  0  0  0  0  0  0  0  0  0  0  0
  -27.5848  -26.9354   20.7904 C   0  0  0  0  0  0  0  0  0  0  0  0
  -29.9078  -27.0860   23.0494 C   0  0  0  0  0  0  0  0  0  0  0  0
  -32.2286  -25.4388   24.9329 C   0  0  0  0  0  0  0  0  0  0  0  0
  -23.0917  -13.6690   22.2568 C   0  0  0  0  0  0  0  0  0  0  0  0
  -23.7492  -29.8879   19.1693 C   0  0  0  0  0  0  0  0  0  0  0  0
  -26.8333  -25.1508   22.4048 C   0  0  0  0  0  0  0  0  0  0  0  0
  -29.7130  -24.9179   21.7739 C   0  0  0  0  0  0  0  0  0  0  0  0
  -25.0863  -30.1210   19.8678 C   0  0  0  0  0  0  0  0  0  0  0  0
  -22.5357  -16.1184   19.5379 C   0  0  0  0  0  0  0  0  0  0  0  0
  -26.2038  -29.3772   19.1434 C   0  0  0  0  0  0  0  0  0  0  0  0
  -22.5765  -17.4537   20.2790 C   0  0  0  0  0  0  0  0  0  0  0  0
  -22.0607  -14.9834   20.4399 C   0  0  0  0  0  0  0  0  0  0  0  0
  -22.8837  -16.1822   22.4399 C   0  0  0  0  0  0  0  0  0  0  0  0
  -25.9565  -27.8639   19.1541 C   0  0  1  0  0  0  0  0  0  0  0  0
  -27.7084  -26.3802   22.1812 C   0  0  1  0  0  0  0  0  0  0  0  0
  -23.4025  -17.3385   21.5719 C   0  0  2  0  0  0  0  0  0  0  0  0
  -28.7404  -14.2332   23.7206 C   0  0  0  0  0  0  0  0  0  0  0  0
  -30.5482  -18.1099   23.4384 C   0  0  0  0  0  0  0  0  0  0  0  0
  -31.8199  -16.5839   21.8863 C   0  0  0  0  0  0  0  0  0  0  0  0
  -34.0034  -25.8353   26.6622 C   0  0  0  0  0  0  0  0  0  0  0  0
  -31.7614  -28.1882   20.8908 C   0  0  0  0  0  0  0  0  0  0  0  0
  -33.6996  -27.6692   22.3883 C   0  0  0  0  0  0  0  0  0  0  0  0
  -31.9680  -29.3107   23.1161 C   0  0  0  0  0  0  0  0  0  0  0  0
  -24.6022  -12.2453   23.5876 C   0  0  0  0  0  0  0  0  0  0  0  0
  -30.8485  -23.7232   26.9105 C   0  0  0  0  0  0  0  0  0  0  0  0
  -26.3946  -14.1850   21.8472 C   0  0  0  0  0  0  0  0  0  0  0  0
  -25.3816  -14.4962   22.9459 C   0  0  0  0  0  0  0  0  0  0  0  0
  -28.1899  -19.2129   20.3183 C   0  0  0  0  0  0  0  0  0  1  0  0
  -30.6134  -16.6830   22.8475 C   0  0  0  0  0  0  0  0  0  0  0  0
  -29.2015  -18.0648   20.3335 C   0  0  2  0  0  0  0  0  0  0  0  0
  -31.3985  -26.8479   23.0675 C   0  0  1  0  0  0  0  0  0  0  0  0
  -32.5424  -25.4912   26.4172 C   0  0  2  0  0  0  0  0  0  0  0  0
  -32.1886  -27.9836   22.3580 C   0  0  0  0  0  0  0  0  0  0  0  0
  -22.3742  -19.4628   22.2877 N   0  0  0  0  0  0  0  0  0  0  0  0
  -27.4712  -15.1487   21.7815 N   0  0  0  0  0  0  0  0  0  0  0  0
  -23.4401  -18.6460   22.3411 N   0  0  0  0  0  0  0  0  0  0  0  0
  -29.1297  -26.1113   22.4088 N   0  0  0  0  0  0  0  0  0  0  0  0
  -22.8344  -14.9238   21.6805 N   0  0  0  0  0  0  0  0  0  0  0  0
  -25.6051  -18.4246   23.2762 N   0  0  0  0  0  0  0  0  0  0  0  0
  -24.6398  -21.0409   25.8485 N   0  0  0  0  0  0  0  0  0  0  0  0
  -26.2990  -27.3049   20.4443 N   0  0  0  0  0  0  0  0  0  0  0  0
  -31.7632  -26.6499   24.4662 N   0  0  0  0  0  0  0  0  0  0  0  0
  -24.2854  -13.5305   22.9810 N   0  0  0  0  0  0  0  0  0  0  0  0
  -29.5410  -17.7225   18.9149 N   0  3  0  0  0  0  0  0  0  0  0  0
  -32.2566  -24.1745   27.0539 N   0  3  0  0  0  0  0  0  0  0  0  0
  -25.5248  -22.1029   24.0189 O   0  0  0  0  0  0  0  0  0  0  0  0
  -28.5824  -27.0234   20.0841 O   0  0  0  0  0  0  0  0  0  0  0  0
  -29.4501  -28.0958   23.5901 O   0  0  0  0  0  0  0  0  0  0  0  0
  -32.3845  -24.4259   24.2545 O   0  0  0  0  0  0  0  0  0  0  0  0
  -22.3042  -12.7236   22.1231 O   0  0  0  0  0  0  0  0  0  0  0  0
  -19.2660  -24.8033   23.8271 O   0  0  0  0  0  0  0  0  0  0  0  0
  -28.8616  -20.4339   20.0113 O   0  0  0  0  0  0  0  0  0  1  0  0
  -20.3817  -29.5000   21.1625 F   0  0  0  0  0  0  0  0  0  0  0  0
  -17.4572  -25.8821   22.0364 F   0  0  0  0  0  0  0  0  0  0  0  0
  1  2  1  0  0  0  0
  1  5  2  0  0  0  0
  2  6  2  0  0  0  0
  3  8  2  0  0  0  0
  3 16  1  0  0  0  0
  4  9  1  0  0  0  0
  4 16  2  0  0  0  0
  5 18  1  0  0  0  0
  6 20  1  0  0  0  0
  7 10  2  0  0  0  0
  7 19  1  0  0  0  0
  8 24  1  0  0  0  0
  9 24  2  0  0  0  0
 10 25  1  0  0  0  0
 11 12  2  0  0  0  0
 11 26  1  0  0  0  0
 12 27  1  0  0  0  0
 13 21  1  0  0  0  0
 13 25  2  0  0  0  0
 14 27  2  0  0  0  0
 14 28  1  0  0  0  0
 15 22  2  0  0  0  0
 15 67  1  0  0  0  0
 16 29  1  0  0  0  0
 17 29  1  0  0  0  0
 17 31  2  0  0  0  0
 17 32  1  0  0  0  0
 18 20  2  0  0  0  0
 18 37  1  0  0  0  0
 19 21  2  0  0  0  0
 19 38  1  0  0  0  0
 20 46  1  0  0  0  0
 21 39  1  0  0  0  0
 22 23  1  0  0  0  0
 22 62  1  0  0  0  0
 23 30  2  0  0  0  0
 23 61  1  0  0  0  0
 24 83  1  0  0  0  0
 25 84  1  0  0  0  0
 26 28  2  0  0  0  0
 26 83  1  0  0  0  0
 27 85  1  0  0  0  0
 28 86  1  0  0  0  0
 29 66  2  0  0  0  0
 30 49  1  0  0  0  0
 30 67  1  0  0  0  0
 31 68  1  0  0  0  0
 31 71  1  0  0  0  0
 32 72  1  0  0  0  0
 32 78  2  0  0  0  0
 33 47  1  0  0  0  0
 33 73  1  0  0  0  0
 33 79  2  0  0  0  0
 34 63  1  0  0  0  0
 34 69  1  0  0  0  0
 34 80  2  0  0  0  0
 35 64  1  0  0  0  0
 35 74  1  0  0  0  0
 35 81  2  0  0  0  0
 36 70  1  0  0  0  0
 36 75  1  0  0  0  0
 36 82  2  0  0  0  0
 37 40  1  0  0  0  0
 38 47  1  0  0  0  0
 39 69  1  0  0  0  0
 40 42  1  0  0  0  0
 41 43  1  0  0  0  0
 41 44  1  0  0  0  0
 42 46  1  0  0  0  0
 43 48  1  0  0  0  0
 44 70  1  0  0  0  0
 45 48  1  0  0  0  0
 45 70  1  0  0  0  0
 46 73  1  0  0  0  0
 47 69  1  0  0  0  0
 48 68  1  0  0  0  0
 50 61  1  0  0  0  0
 51 61  1  0  0  0  0
 52 64  1  0  0  0  0
 53 65  1  0  0  0  0
 54 65  1  0  0  0  0
 55 65  1  0  0  0  0
 56 75  1  0  0  0  0
 57 77  1  0  0  0  0
 58 59  1  0  0  0  0
 58 67  1  0  0  0  0
 59 75  1  0  0  0  0
 60 62  1  0  0  0  0
 60 84  1  0  0  0  0
 62 76  1  0  0  0  0
 63 65  1  0  0  0  0
 63 74  1  0  0  0  0
 64 77  1  0  0  0  0
 66 68  1  0  0  0  0
M  CHG  2  76   1  77   1
M  ISO  4  36 100  60 101  75 100  84 101
M  END
> <Batch ID>
0108

> <Smiles>
CNC(C)C(=O)NC(C(=O)N1Cc2cc([101O:1][101CH2:1]C(N)c3cn(CC[100N:0](C)[100C:0](=O)N4CCCC(n5nc(-c6ccc(Oc7ccc(F)cc7F)cc6)c(C(N)=O)c5N)C4)c(C)c3C(C)C)ccc2CC1C(=O)NC1CCCc2ccccc21)C(C)(C)C

> <Shape>
0.180

> <Color>
0.044

> <Negative vol penalty>
0.000

$$$$

  -OEChem-04052319533D

 81 88  0     1  0  0  0  0  0999 V2000
  -26.5766   -7.9135   23.9463 C   0  0  0  0  0  0  0  0  0  0  0  0
  -27.4547   -8.9392   23.6109 C   0  0  0  0  0  0  0  0  0  0  0  0
  -25.1182  -30.4839   23.5742 C   0  0  0  0  0  0  0  0  0  0  0  0
  -27.1372  -31.0007   22.3521 C   0  0  0  0  0  0  0  0  0  0  0  0
  -25.3759   -7.7704   23.2522 C   0  0  0  0  0  0  0  0  0  0  0  0
  -27.1330   -9.8217   22.5804 C   0  0  0  0  0  0  0  0  0  0  0  0
  -28.5024  -15.7832   22.2770 C   0  0  0  0  0  0  0  0  0  0  0  0
  -25.6278  -31.1410   24.6941 C   0  0  0  0  0  0  0  0  0  0  0  0
  -27.6468  -31.6578   23.4719 C   0  0  0  0  0  0  0  0  0  0  0  0
  -29.5199  -16.4799   21.6266 C   0  0  0  0  0  0  0  0  0  0  0  0
  -25.9930  -34.3290   25.7598 C   0  0  0  0  0  0  0  0  0  0  0  0
  -25.1426  -35.1965   26.4452 C   0  0  0  0  0  0  0  0  0  0  0  0
  -28.0326  -16.9136   19.7775 C   0  0  0  0  0  0  0  0  0  0  0  0
  -25.3961  -33.8649   28.4451 C   0  0  0  0  0  0  0  0  0  0  0  0
  -25.8729  -30.4137   22.4032 C   0  0  0  0  0  0  0  0  0  0  0  0
  -24.5766  -30.2938   20.2094 C   0  0  0  0  0  0  0  0  0  0  0  0
  -25.0350   -8.6576   22.2191 C   0  0  0  0  0  0  0  0  0  0  0  0
  -27.2436  -15.6368   21.6768 C   0  0  0  0  0  0  0  0  0  0  0  0
  -25.9272   -9.6896   21.8709 C   0  0  0  0  0  0  0  0  0  0  0  0
  -27.0001  -16.2167   20.4235 C   0  0  0  0  0  0  0  0  0  0  0  0
  -26.8921  -31.7280   24.6429 C   0  0  0  0  0  0  0  0  0  0  0  0
  -29.2859  -17.0428   20.3754 C   0  0  0  0  0  0  0  0  0  0  0  0
  -26.5449  -33.2294   26.4170 C   0  0  0  0  0  0  0  0  0  0  0  0
  -24.8441  -34.9645   27.7879 C   0  0  0  0  0  0  0  0  0  0  0  0
  -26.2465  -32.9974   27.7597 C   0  0  0  0  0  0  0  0  0  0  0  0
  -25.3472  -29.7345   21.2463 C   0  0  0  0  0  0  0  0  0  0  0  0
  -24.3316  -29.2436   19.3588 C   0  0  0  0  0  0  0  0  0  0  0  0
  -24.1229  -31.6422   20.0309 C   0  0  0  0  0  0  0  0  0  0  0  0
  -25.4994  -13.1668   20.6966 C   0  0  0  0  0  0  0  0  0  0  0  0
  -23.2603  -15.4549   20.1741 C   0  0  0  0  0  0  0  0  0  0  0  0
  -31.1474  -24.9144   18.6114 C   0  0  0  0  0  0  0  0  0  0  0  0
  -22.5610  -18.7411   19.5751 C   0  0  0  0  0  0  0  0  0  0  0  0
  -27.2132  -24.1053   18.2890 C   0  0  0  0  0  0  0  0  0  0  0  0
  -23.7475   -8.4343   21.4659 C   0  0  0  0  0  0  0  0  0  0  0  0
  -26.1485  -14.9051   22.4033 C   0  0  0  0  0  0  0  0  0  0  0  0
  -25.6599  -16.1054   19.7452 C   0  0  0  0  0  0  0  0  0  0  0  0
  -23.3103   -9.6389   20.6365 C   0  0  0  0  0  0  0  0  0  0  0  0
  -23.8302  -24.4856   19.3317 C   0  0  0  0  0  0  0  0  0  0  0  0
  -24.4874  -10.1957   19.8420 C   0  0  0  0  0  0  0  0  0  0  0  0
  -23.7658  -25.9244   19.8470 C   0  0  0  0  0  0  0  0  0  0  0  0
  -25.1687  -23.8279   19.6600 C   0  0  0  0  0  0  0  0  0  0  0  0
  -26.2908  -26.0210   19.7297 C   0  0  0  0  0  0  0  0  0  0  0  0
  -25.6024  -10.6820   20.7756 C   0  0  1  0  0  0  0  0  0  0  0  0
  -25.0620  -14.3776   21.4713 C   0  0  1  0  0  0  0  0  0  0  0  0
  -24.9809  -26.7445   19.3735 C   0  0  2  0  0  0  0  0  0  0  0  0
  -20.6413  -20.3018   19.1553 C   0  0  0  0  0  0  0  0  0  0  0  0
  -23.0352  -14.4057   17.3178 C   0  0  0  0  0  0  0  0  0  0  0  0
  -21.8646  -16.5318   16.7032 C   0  0  0  0  0  0  0  0  0  0  0  0
  -20.8529  -14.9950   18.3877 C   0  0  0  0  0  0  0  0  0  0  0  0
  -23.1734  -20.3312   21.9949 C   0  0  0  0  0  0  0  0  0  0  0  0
  -30.6467  -20.5783   19.4487 C   0  0  0  0  0  0  0  0  0  0  0  0
  -31.7664  -19.6034   19.8051 C   0  0  0  0  0  0  0  0  0  0  0  0
  -29.2629  -24.5406   16.9592 C   0  0  0  0  0  0  0  0  0  0  0  0
  -31.1843  -21.7637   18.6612 C   0  0  0  0  0  0  0  0  0  0  0  0
  -31.2374  -18.3899   20.5564 C   0  0  0  0  0  0  0  0  0  1  0  0
  -22.8950  -16.3480   19.0131 C   0  0  1  0  0  0  0  0  0  0  0  0
  -30.4810  -23.9398   17.6568 C   0  0  2  0  0  0  0  0  0  0  0  0
  -21.5550  -19.6878   20.2045 C   0  0  2  0  0  0  0  0  0  0  0  0
  -22.1879  -15.5707   17.8671 C   0  0  0  0  0  0  0  0  0  0  0  0
  -25.5764  -28.4302   21.0724 N   0  0  0  0  0  0  0  0  0  0  0  0
  -24.9461  -28.1612   19.9164 N   0  0  0  0  0  0  0  0  0  0  0  0
  -24.6233  -15.3749   20.4930 N   0  0  0  0  0  0  0  0  0  0  0  0
  -26.2796  -24.6551   19.1828 N   0  0  0  0  0  0  0  0  0  0  0  0
  -23.6525  -29.1497   18.1959 N   0  0  0  0  0  0  0  0  0  0  0  0
  -24.4644  -32.5957   20.9997 N   0  0  0  0  0  0  0  0  0  0  0  0
  -32.1622  -25.6367   18.0221 N   0  0  0  0  0  0  0  0  0  0  0  0
  -25.2611  -11.9689   21.3429 N   0  0  0  0  0  0  0  0  0  0  0  0
  -22.1046  -17.4400   19.5710 N   0  0  0  0  0  0  0  0  0  0  0  0
  -28.2309  -24.9591   17.8815 N   0  0  0  0  0  0  0  0  0  0  0  0
  -22.2581  -20.7907   20.9188 N   0  3  0  0  0  0  0  0  0  0  0  0
  -30.0725  -22.7029   18.3776 N   0  3  0  0  0  0  0  0  0  0  0  0
  -23.4213  -31.9875   19.0501 O   0  0  0  0  0  0  0  0  0  0  0  0
  -26.0137  -13.3087   19.5934 O   0  0  0  0  0  0  0  0  0  0  0  0
  -22.3684  -14.8561   20.7804 O   0  0  0  0  0  0  0  0  0  0  0  0
  -30.8177  -25.0424   19.7879 O   0  0  0  0  0  0  0  0  0  0  0  0
  -23.6419  -19.1186   19.1283 O   0  0  0  0  0  0  0  0  0  0  0  0
  -27.1420  -22.9414   17.8800 O   0  0  0  0  0  0  0  0  0  0  0  0
  -27.3896  -32.3695   25.7354 O   0  0  0  0  0  0  0  0  0  0  0  0
  -30.2775  -17.7228   19.7380 O   0  0  0  0  0  0  0  0  0  1  0  0
  -24.0287  -35.7986   28.4463 F   0  0  0  0  0  0  0  0  0  0  0  0
  -26.7746  -31.9433   28.3967 F   0  0  0  0  0  0  0  0  0  0  0  0
  1  2  1  0  0  0  0
  1  5  2  0  0  0  0
  2  6  2  0  0  0  0
  3  8  2  0  0  0  0
  3 15  1  0  0  0  0
  4  9  1  0  0  0  0
  4 15  2  0  0  0  0
  5 17  1  0  0  0  0
  6 19  1  0  0  0  0
  7 10  2  0  0  0  0
  7 18  1  0  0  0  0
  8 21  1  0  0  0  0
  9 21  2  0  0  0  0
 10 22  1  0  0  0  0
 11 12  2  0  0  0  0
 11 23  1  0  0  0  0
 12 24  1  0  0  0  0
 13 20  1  0  0  0  0
 13 22  2  0  0  0  0
 14 24  2  0  0  0  0
 14 25  1  0  0  0  0
 15 26  1  0  0  0  0
 16 26  1  0  0  0  0
 16 27  2  0  0  0  0
 16 28  1  0  0  0  0
 17 19  2  0  0  0  0
 17 34  1  0  0  0  0
 18 20  2  0  0  0  0
 18 35  1  0  0  0  0
 19 43  1  0  0  0  0
 20 36  1  0  0  0  0
 21 78  1  0  0  0  0
 22 79  1  0  0  0  0
 23 25  2  0  0  0  0
 23 78  1  0  0  0  0
 24 80  1  0  0  0  0
 25 81  1  0  0  0  0
 26 60  2  0  0  0  0
 27 61  1  0  0  0  0
 27 64  1  0  0  0  0
 28 65  1  0  0  0  0
 28 72  2  0  0  0  0
 29 44  1  0  0  0  0
 29 67  1  0  0  0  0
 29 73  2  0  0  0  0
 30 56  1  0  0  0  0
 30 62  1  0  0  0  0
 30 74  2  0  0  0  0
 31 57  1  0  0  0  0
 31 66  1  0  0  0  0
 31 75  2  0  0  0  0
 32 58  1  0  0  0  0
 32 68  1  0  0  0  0
 32 76  2  0  0  0  0
 33 63  1  0  0  0  0
 33 69  1  0  0  0  0
 33 77  2  0  0  0  0
 34 37  1  0  0  0  0
 35 44  1  0  0  0  0
 36 62  1  0  0  0  0
 37 39  1  0  0  0  0
 38 40  1  0  0  0  0
 38 41  1  0  0  0  0
 39 43  1  0  0  0  0
 40 45  1  0  0  0  0
 41 63  1  0  0  0  0
 42 45  1  0  0  0  0
 42 63  1  0  0  0  0
 43 67  1  0  0  0  0
 44 62  1  0  0  0  0
 45 61  1  0  0  0  0
 46 58  1  0  0  0  0
 47 59  1  0  0  0  0
 48 59  1  0  0  0  0
 49 59  1  0  0  0  0
 50 70  1  0  0  0  0
 51 52  1  0  0  0  0
 51 54  1  0  0  0  0
 52 55  1  0  0  0  0
 53 57  1  0  0  0  0
 53 69  1  0  0  0  0
 54 71  1  0  0  0  0
 55 79  1  0  0  0  0
 56 59  1  0  0  0  0
 56 68  1  0  0  0  0
 57 71  1  0  0  0  0
 58 70  1  0  0  0  0
 60 61  1  0  0  0  0
M  CHG  2  70   1  71   1
M  ISO  4  33 100  55 101  69 100  79 101
M  END
> <Batch ID>
0108

> <Smiles>
CNC(C)C(=O)NC(C(=O)N1Cc2cc([101O:1][101CH2:1]CCCNC(C[100NH:0][100C:0](=O)N3CCCC(n4nc(-c5ccc(Oc6ccc(F)cc6F)cc5)c(C(N)=O)c4N)C3)C(N)=O)ccc2CC1C(=O)NC1CCCc2ccccc21)C(C)(C)C

> <Shape>
0.231

> <Color>
0.059

> <Negative vol penalty>
0.000

$$$$

  -OEChem-04052319533D

 84 92  0     1  0  0  0  0  0999 V2000
  -17.5054  -32.2529   23.2527 C   0  0  0  0  0  0  0  0  0  0  0  0
  -18.6905  -32.5201   22.5748 C   0  0  0  0  0  0  0  0  0  0  0  0
  -24.7506  -13.7827   19.3281 C   0  0  0  0  0  0  0  0  0  0  0  0
  -24.0001  -15.1547   21.1696 C   0  0  0  0  0  0  0  0  0  0  0  0
  -17.4380  -31.1793   24.1398 C   0  0  0  0  0  0  0  0  0  0  0  0
  -19.8092  -31.7145   22.7844 C   0  0  0  0  0  0  0  0  0  0  0  0
  -25.5373  -29.1141   19.3575 C   0  0  0  0  0  0  0  0  0  0  0  0
  -23.8554  -12.7828   19.7081 C   0  0  0  0  0  0  0  0  0  0  0  0
  -23.1048  -14.1549   21.5497 C   0  0  0  0  0  0  0  0  0  0  0  0
  -26.9231  -29.0311   19.4854 C   0  0  0  0  0  0  0  0  0  0  0  0
  -22.0212   -9.7218   20.4080 C   0  0  0  0  0  0  0  0  0  0  0  0
  -22.4866   -8.4071   20.4313 C   0  0  0  0  0  0  0  0  0  0  0  0
  -26.6666  -27.1562   20.9815 C   0  0  0  0  0  0  0  0  0  0  0  0
  -30.1214  -24.6008   19.8055 C   0  0  0  0  0  0  0  0  0  0  0  0
  -31.5001  -22.9960   21.6238 C   0  0  0  0  0  0  0  0  0  0  0  0
  -24.1543   -9.0265   22.0660 C   0  0  0  0  0  0  0  0  0  0  0  0
  -24.8230  -14.9686   20.0588 C   0  0  0  0  0  0  0  0  0  0  0  0
  -25.5072  -17.0652   18.7767 C   0  0  0  0  0  0  0  0  0  0  0  0
  -18.5536  -30.3543   24.3531 C   0  0  0  0  0  0  0  0  0  0  0  0
  -24.7039  -28.2242   20.0503 C   0  0  0  0  0  0  0  0  0  0  0  0
  -19.7570  -30.6297   23.6761 C   0  0  0  0  0  0  0  0  0  0  0  0
  -25.2706  -27.2284   20.8586 C   0  0  0  0  0  0  0  0  0  0  0  0
  -31.1195  -25.1544   20.6072 C   0  0  0  0  0  0  0  0  0  0  0  0
  -29.8126  -23.2447   19.9129 C   0  0  0  0  0  0  0  0  0  0  0  0
  -31.8089  -24.3520   21.5164 C   0  0  0  0  0  0  0  0  0  0  0  0
  -30.5020  -22.4424   20.8221 C   0  0  0  0  0  0  0  0  0  0  0  0
  -23.0325  -12.9689   20.8189 C   0  0  0  0  0  0  0  0  0  0  0  0
  -27.4879  -28.0539   20.2998 C   0  0  0  0  0  0  0  0  0  0  0  0
  -22.6224  -10.6889   21.2137 C   0  0  0  0  0  0  0  0  0  0  0  0
  -23.5532   -8.0595   21.2604 C   0  0  0  0  0  0  0  0  0  0  0  0
  -23.6889  -10.3413   22.0427 C   0  0  0  0  0  0  0  0  0  0  0  0
  -25.7479  -16.0016   19.6670 C   0  0  0  0  0  0  0  0  0  0  0  0
  -26.6918  -17.7597   18.7432 C   0  0  0  0  0  0  0  0  0  0  0  0
  -24.3191  -17.3960   18.0455 C   0  0  0  0  0  0  0  0  0  0  0  0
  -22.4544  -28.5285   22.2753 C   0  0  0  0  0  0  0  0  0  0  0  0
  -22.0632  -25.3499   21.7599 C   0  0  0  0  0  0  0  0  0  0  0  0
  -23.4058  -22.4024   20.6844 C   0  0  0  0  0  0  0  0  0  0  0  0
  -31.0764  -20.0384   21.3094 C   0  0  0  0  0  0  0  0  0  0  0  0
  -18.4467  -29.2341   25.3573 C   0  0  0  0  0  0  0  0  0  0  0  0
  -23.2118  -28.3101   19.8806 C   0  0  0  0  0  0  0  0  0  0  0  0
  -24.4205  -26.2361   21.6077 C   0  0  0  0  0  0  0  0  0  0  0  0
  -19.5659  -28.2026   25.2405 C   0  0  0  0  0  0  0  0  0  0  0  0
  -31.2638  -16.5635   20.5565 C   0  0  0  0  0  0  0  0  0  0  0  0
  -20.9197  -28.8951   25.1201 C   0  0  0  0  0  0  0  0  0  0  0  0
  -29.8257  -16.1950   20.1847 C   0  0  0  0  0  0  0  0  0  0  0  0
  -31.3120  -17.5932   21.6839 C   0  0  0  0  0  0  0  0  0  0  0  0
  -29.0772  -18.4364   21.0809 C   0  0  0  0  0  0  0  0  0  0  0  0
  -20.9847  -29.7638   23.8581 C   0  0  1  0  0  0  0  0  0  0  0  0
  -22.4418  -27.6786   21.0363 C   0  0  1  0  0  0  0  0  0  0  0  0
  -28.9764  -17.4506   19.9054 C   0  0  2  0  0  0  0  0  0  0  0  0
  -32.8812  -24.9228   22.3853 C   0  0  0  0  0  0  0  0  0  0  0  0
  -29.0810  -22.7871   17.5446 C   0  0  0  0  0  0  0  0  0  0  0  0
  -27.3652  -23.3176   19.3136 C   0  0  0  0  0  0  0  0  0  0  0  0
  -22.8568  -19.9682   20.4194 C   0  0  0  0  0  0  0  0  0  0  0  0
  -22.4095  -24.9472   24.7645 C   0  0  0  0  0  0  0  0  0  0  0  0
  -22.8024  -22.5144   24.3227 C   0  0  0  0  0  0  0  0  0  0  0  0
  -20.6137  -23.5512   23.7250 C   0  0  0  0  0  0  0  0  0  0  0  0
  -23.7965  -22.5142   17.7529 C   0  0  0  0  0  0  0  0  0  0  0  0
  -31.4355  -26.6227   20.4736 C   0  0  0  0  0  0  0  0  0  0  0  0
  -30.8701  -27.4801   21.6080 C   0  0  0  0  0  0  0  0  0  0  0  0
  -29.3470  -27.4766   21.6660 C   0  0  0  0  0  0  0  0  0  1  0  0
  -28.7389  -22.6784   19.0415 C   0  0  0  0  0  0  0  0  0  0  0  0
  -22.6598  -24.0911   22.3416 C   0  0  1  0  0  0  0  0  0  0  0  0
  -22.8701  -21.3333   19.7494 C   0  0  2  0  0  0  0  0  0  0  0  0
  -22.1376  -23.7958   23.7760 C   0  0  0  0  0  0  0  0  0  0  0  0
  -26.9880  -16.0150   20.1631 N   0  0  0  0  0  0  0  0  0  0  0  0
  -27.5371  -17.0954   19.5825 N   0  0  0  0  0  0  0  0  0  0  0  0
  -22.9667  -26.3649   21.4144 N   0  0  0  0  0  0  0  0  0  0  0  0
  -30.4883  -18.7564   21.3475 N   0  0  0  0  0  0  0  0  0  0  0  0
  -27.0823  -18.8675   18.0779 N   0  0  0  0  0  0  0  0  0  0  0  0
  -23.1922  -16.5764   18.1959 N   0  0  0  0  0  0  0  0  0  0  0  0
  -30.2029  -21.0629   20.9458 N   0  0  0  0  0  0  0  0  0  0  0  0
  -21.2015  -28.9400   22.6881 N   0  0  0  0  0  0  0  0  0  0  0  0
  -22.3920  -23.0292   21.3778 N   0  0  0  0  0  0  0  0  0  0  0  0
  -23.7136  -21.2470   18.5238 N   0  3  0  0  0  0  0  0  0  0  0  0
  -24.2638  -18.3794   17.2688 O   0  0  0  0  0  0  0  0  0  0  0  0
  -23.5216  -28.7903   22.8176 O   0  0  0  0  0  0  0  0  0  0  0  0
  -20.8411  -25.4269   21.6106 O   0  0  0  0  0  0  0  0  0  0  0  0
  -24.6041  -22.6537   20.7920 O   0  0  0  0  0  0  0  0  0  0  0  0
  -32.2734  -20.2108   21.5530 O   0  0  0  0  0  0  0  0  0  0  0  0
  -22.1586  -11.9935   21.1900 O   0  0  0  0  0  0  0  0  0  0  0  0
  -28.8402  -27.9710   20.4270 O   0  0  0  0  0  0  0  0  0  1  0  0
  -23.9990   -6.7966   21.2838 F   0  0  0  0  0  0  0  0  0  0  0  0
  -24.2697  -11.2657   22.8198 F   0  0  0  0  0  0  0  0  0  0  0  0
  1  2  1  0  0  0  0
  1  5  2  0  0  0  0
  2  6  2  0  0  0  0
  3  8  2  0  0  0  0
  3 17  1  0  0  0  0
  4  9  1  0  0  0  0
  4 17  2  0  0  0  0
  5 19  1  0  0  0  0
  6 21  1  0  0  0  0
  7 10  2  0  0  0  0
  7 20  1  0  0  0  0
  8 27  1  0  0  0  0
  9 27  2  0  0  0  0
 10 28  1  0  0  0  0
 11 12  2  0  0  0  0
 11 29  1  0  0  0  0
 12 30  1  0  0  0  0
 13 22  1  0  0  0  0
 13 28  2  0  0  0  0
 14 23  1  0  0  0  0
 14 24  2  0  0  0  0
 15 25  1  0  0  0  0
 15 26  2  0  0  0  0
 16 30  2  0  0  0  0
 16 31  1  0  0  0  0
 17 32  1  0  0  0  0
 18 32  1  0  0  0  0
 18 33  2  0  0  0  0
 18 34  1  0  0  0  0
 19 21  2  0  0  0  0
 19 39  1  0  0  0  0
 20 22  2  0  0  0  0
 20 40  1  0  0  0  0
 21 48  1  0  0  0  0
 22 41  1  0  0  0  0
 23 25  2  0  0  0  0
 23 59  1  0  0  0  0
 24 26  1  0  0  0  0
 24 62  1  0  0  0  0
 25 51  1  0  0  0  0
 26 72  1  0  0  0  0
 27 81  1  0  0  0  0
 28 82  1  0  0  0  0
 29 31  2  0  0  0  0
 29 81  1  0  0  0  0
 30 83  1  0  0  0  0
 31 84  1  0  0  0  0
 32 66  2  0  0  0  0
 33 67  1  0  0  0  0
 33 70  1  0  0  0  0
 34 71  1  0  0  0  0
 34 76  2  0  0  0  0
 35 49  1  0  0  0  0
 35 73  1  0  0  0  0
 35 77  2  0  0  0  0
 36 63  1  0  0  0  0
 36 68  1  0  0  0  0
 36 78  2  0  0  0  0
 37 64  1  0  0  0  0
 37 74  1  0  0  0  0
 37 79  2  0  0  0  0
 38 69  1  0  0  0  0
 38 72  1  0  0  0  0
 38 80  2  0  0  0  0
 39 42  1  0  0  0  0
 40 49  1  0  0  0  0
 41 68  1  0  0  0  0
 42 44  1  0  0  0  0
 43 45  1  0  0  0  0
 43 46  1  0  0  0  0
 44 48  1  0  0  0  0
 45 50  1  0  0  0  0
 46 69  1  0  0  0  0
 47 50  1  0  0  0  0
 47 69  1  0  0  0  0
 48 73  1  0  0  0  0
 49 68  1  0  0  0  0
 50 67  1  0  0  0  0
 52 62  1  0  0  0  0
 53 62  1  0  0  0  0
 54 64  1  0  0  0  0
 55 65  1  0  0  0  0
 56 65  1  0  0  0  0
 57 65  1  0  0  0  0
 58 75  1  0  0  0  0
 59 60  1  0  0  0  0
 60 61  1  0  0  0  0
 61 82  1  0  0  0  0
 63 65  1  0  0  0  0
 63 74  1  0  0  0  0
 64 75  1  0  0  0  0
 66 67  1  0  0  0  0
M  CHG  1  75   1
M  ISO  4  38 100  61 101  72 100  82 101
M  END
> <Batch ID>
0108

> <Smiles>
CNC(C)C(=O)NC(C(=O)N1Cc2cc([101O:1][101CH2:1]CCc3cc(C(C)C)c([100NH:0][100C:0](=O)N4CCCC(n5nc(-c6ccc(Oc7ccc(F)cc7F)cc6)c(C(N)=O)c5N)C4)cc3C)ccc2CC1C(=O)NC1CCCc2ccccc21)C(C)(C)C

> <Shape>
0.242

> <Color>
0.072

> <Negative vol penalty>
0.000

$$$$

  -OEChem-04052319533D

 86 94  0     1  0  0  0  0  0999 V2000
  -27.6032  -35.2998   23.9290 C   0  0  0  0  0  0  0  0  0  0  0  0
  -27.8728  -33.9716   23.6147 C   0  0  0  0  0  0  0  0  0  0  0  0
  -27.6304  -12.1427   19.4350 C   0  0  0  0  0  0  0  0  0  0  0  0
  -29.2124  -13.7132   20.3665 C   0  0  0  0  0  0  0  0  0  0  0  0
  -26.3359  -35.6643   24.3818 C   0  0  0  0  0  0  0  0  0  0  0  0
  -26.8755  -33.0070   23.7540 C   0  0  0  0  0  0  0  0  0  0  0  0
  -26.6433  -29.8659   19.7886 C   0  0  0  0  0  0  0  0  0  0  0  0
  -28.6838  -11.3311   19.0141 C   0  0  0  0  0  0  0  0  0  0  0  0
  -30.2659  -12.9016   19.9456 C   0  0  0  0  0  0  0  0  0  0  0  0
  -27.6012  -28.8552   19.7200 C   0  0  0  0  0  0  0  0  0  0  0  0
  -30.7953   -9.0771   20.3902 C   0  0  0  0  0  0  0  0  0  0  0  0
  -30.6893   -7.7056   20.6213 C   0  0  0  0  0  0  0  0  0  0  0  0
  -25.9940  -27.2811   20.5905 C   0  0  0  0  0  0  0  0  0  0  0  0
  -30.8406   -7.2936   18.2455 C   0  0  0  0  0  0  0  0  0  0  0  0
  -29.5557  -22.9706   16.3323 C   0  0  0  0  0  0  0  0  0  0  0  0
  -27.8947  -13.3338   20.1112 C   0  0  0  0  0  0  0  0  0  0  0  0
  -26.1331  -14.1196   21.7806 C   0  0  0  0  0  0  0  0  0  0  0  0
  -25.3197  -34.7053   24.5175 C   0  0  0  0  0  0  0  0  0  0  0  0
  -25.3546  -29.5937   20.2698 C   0  0  0  0  0  0  0  0  0  0  0  0
  -25.5938  -33.3589   24.2103 C   0  0  0  0  0  0  0  0  0  0  0  0
  -25.0208  -28.2895   20.6618 C   0  0  0  0  0  0  0  0  0  0  0  0
  -28.8969  -23.0895   17.5454 C   0  0  0  0  0  0  0  0  0  0  0  0
  -28.6484  -21.9277   18.2677 C   0  0  0  0  0  0  0  0  0  0  0  0
  -30.0015  -11.7105   19.2694 C   0  0  0  0  0  0  0  0  0  0  0  0
  -27.2775  -27.5632   20.1237 C   0  0  0  0  0  0  0  0  0  0  0  0
  -30.9238   -9.5569   19.0868 C   0  0  0  0  0  0  0  0  0  0  0  0
  -29.0606  -20.6998   17.7620 C   0  0  0  0  0  0  0  0  0  0  0  0
  -30.7120   -6.8139   19.5489 C   0  0  0  0  0  0  0  0  0  0  0  0
  -30.9465   -8.6651   18.0144 C   0  0  0  0  0  0  0  0  0  0  0  0
  -26.8069  -14.1729   20.5458 C   0  0  0  0  0  0  0  0  0  0  0  0
  -29.7119  -20.6878   16.5391 C   0  0  0  0  0  0  0  0  0  0  0  0
  -25.1915  -15.1164   21.7013 C   0  0  0  0  0  0  0  0  0  0  0  0
  -26.3398  -13.2471   22.8994 C   0  0  0  0  0  0  0  0  0  0  0  0
  -23.6184  -30.6088   22.7312 C   0  0  0  0  0  0  0  0  0  0  0  0
  -21.2936  -28.8418   21.3187 C   0  0  0  0  0  0  0  0  0  0  0  0
  -20.4750  -26.2599   19.2425 C   0  0  0  0  0  0  0  0  0  0  0  0
  -24.8691  -20.1765   18.5165 C   0  0  0  0  0  0  0  0  0  0  0  0
  -23.9793  -35.1392   25.0557 C   0  0  0  0  0  0  0  0  0  0  0  0
  -24.3247  -30.6891   20.3124 C   0  0  0  0  0  0  0  0  0  0  0  0
  -23.6453  -27.9408   21.1668 C   0  0  0  0  0  0  0  0  0  0  0  0
  -22.8686  -34.1191   24.8187 C   0  0  0  0  0  0  0  0  0  0  0  0
  -22.5207  -17.5004   18.5273 C   0  0  0  0  0  0  0  0  0  0  0  0
  -23.3420  -32.7180   25.1923 C   0  0  0  0  0  0  0  0  0  0  0  0
  -23.2921  -16.3393   19.1572 C   0  0  0  0  0  0  0  0  0  0  0  0
  -23.4210  -18.3645   17.6470 C   0  0  0  0  0  0  0  0  0  0  0  0
  -25.4121  -17.7021   18.9395 C   0  0  0  0  0  0  0  0  0  0  0  0
  -24.5310  -32.2877   24.3247 C   0  0  1  0  0  0  0  0  0  0  0  0
  -23.1977  -30.4114   21.3023 C   0  0  1  0  0  0  0  0  0  0  0  0
  -24.5588  -16.8347   19.8807 C   0  0  2  0  0  0  0  0  0  0  0  0
  -30.1754  -19.3958   15.9500 C   0  0  0  0  0  0  0  0  0  0  0  0
  -18.4939  -25.0317   18.3130 C   0  0  0  0  0  0  0  0  0  0  0  0
  -25.7141  -22.4226   20.7087 C   0  0  0  0  0  0  0  0  0  0  0  0
  -20.9229  -27.4205   23.9931 C   0  0  0  0  0  0  0  0  0  0  0  0
  -19.6629  -25.6255   22.7854 C   0  0  0  0  0  0  0  0  0  0  0  0
  -18.7950  -27.9642   22.7969 C   0  0  0  0  0  0  0  0  0  0  0  0
  -21.1918  -26.9727   16.4610 C   0  0  0  0  0  0  0  0  0  0  0  0
  -29.8365  -19.1265   19.3677 C   0  0  0  0  0  0  0  0  0  0  0  0
  -28.4731  -24.4476   18.0447 C   0  0  0  0  0  0  0  0  0  0  0  0
  -27.9417  -21.9946   19.5832 C   0  0  0  0  0  0  0  0  0  0  0  0
  -29.6233  -25.2812   18.6136 C   0  0  0  0  0  0  0  0  0  0  0  0
  -29.2011  -26.6834   19.0366 C   0  0  0  0  0  0  0  0  0  1  0  0
  -20.8358  -27.4063   21.4128 C   0  0  1  0  0  0  0  0  0  0  0  0
  -19.4850  -26.1645   18.0957 C   0  0  2  0  0  0  0  0  0  0  0  0
  -26.4078  -21.8774   19.4643 C   0  0  1  0  0  0  0  0  0  0  0  0
  -20.0807  -27.1108   22.7394 C   0  0  0  0  0  0  0  0  0  0  0  0
  -29.9711  -21.7955   15.8086 N   0  0  0  0  0  0  0  0  0  0  0  0
  -26.3336  -15.1279   19.7408 N   0  0  0  0  0  0  0  0  0  0  0  0
  -25.3522  -15.6839   20.4715 N   0  0  0  0  0  0  0  0  0  0  0  0
  -22.6750  -29.0477   21.1957 N   0  0  0  0  0  0  0  0  0  0  0  0
  -24.6030  -18.8028   18.3931 N   0  0  0  0  0  0  0  0  0  0  0  0
  -24.2501  -15.5541   22.5642 N   0  0  0  0  0  0  0  0  0  0  0  0
  -27.3498  -12.2791   22.8141 N   0  0  0  0  0  0  0  0  0  0  0  0
  -24.0777  -31.8815   23.0117 N   0  0  0  0  0  0  0  0  0  0  0  0
  -20.0528  -27.1478   20.2092 N   0  0  0  0  0  0  0  0  0  0  0  0
  -26.0057  -20.5060   19.2448 N   0  0  0  0  0  0  0  0  0  0  0  0
  -20.2015  -25.9223   16.8116 N   0  3  0  0  0  0  0  0  0  0  0  0
  -25.6385  -13.3128   23.9374 O   0  0  0  0  0  0  0  0  0  0  0  0
  -23.5312  -29.6760   23.5211 O   0  0  0  0  0  0  0  0  0  0  0  0
  -20.4557  -29.7467   21.3460 O   0  0  0  0  0  0  0  0  0  0  0  0
  -21.5167  -25.6087   19.2791 O   0  0  0  0  0  0  0  0  0  0  0  0
  -24.1444  -21.0451   18.0192 O   0  0  0  0  0  0  0  0  0  0  0  0
  -31.0297  -10.9187   18.8591 O   0  0  0  0  0  0  0  0  0  0  0  0
  -28.8308  -19.5483   18.4462 O   0  0  0  0  0  0  0  0  0  0  0  0
  -28.2108  -26.5750   20.0583 O   0  0  0  0  0  0  0  0  0  1  0  0
  -30.6118   -5.4968   19.7711 F   0  0  0  0  0  0  0  0  0  0  0  0
  -31.0711   -9.1200   16.7601 F   0  0  0  0  0  0  0  0  0  0  0  0
  1  2  1  0  0  0  0
  1  5  2  0  0  0  0
  2  6  2  0  0  0  0
  3  8  2  0  0  0  0
  3 16  1  0  0  0  0
  4  9  1  0  0  0  0
  4 16  2  0  0  0  0
  5 18  1  0  0  0  0
  6 20  1  0  0  0  0
  7 10  2  0  0  0  0
  7 19  1  0  0  0  0
  8 24  1  0  0  0  0
  9 24  2  0  0  0  0
 10 25  1  0  0  0  0
 11 12  2  0  0  0  0
 11 26  1  0  0  0  0
 12 28  1  0  0  0  0
 13 21  1  0  0  0  0
 13 25  2  0  0  0  0
 14 28  2  0  0  0  0
 14 29  1  0  0  0  0
 15 22  1  0  0  0  0
 15 66  2  0  0  0  0
 16 30  1  0  0  0  0
 17 30  1  0  0  0  0
 17 32  2  0  0  0  0
 17 33  1  0  0  0  0
 18 20  2  0  0  0  0
 18 38  1  0  0  0  0
 19 21  2  0  0  0  0
 19 39  1  0  0  0  0
 20 47  1  0  0  0  0
 21 40  1  0  0  0  0
 22 23  2  0  0  0  0
 22 58  1  0  0  0  0
 23 27  1  0  0  0  0
 23 59  1  0  0  0  0
 24 82  1  0  0  0  0
 25 84  1  0  0  0  0
 26 29  2  0  0  0  0
 26 82  1  0  0  0  0
 27 31  2  0  0  0  0
 27 83  1  0  0  0  0
 28 85  1  0  0  0  0
 29 86  1  0  0  0  0
 30 67  2  0  0  0  0
 31 50  1  0  0  0  0
 31 66  1  0  0  0  0
 32 68  1  0  0  0  0
 32 71  1  0  0  0  0
 33 72  1  0  0  0  0
 33 77  2  0  0  0  0
 34 48  1  0  0  0  0
 34 73  1  0  0  0  0
 34 78  2  0  0  0  0
 35 62  1  0  0  0  0
 35 69  1  0  0  0  0
 35 79  2  0  0  0  0
 36 63  1  0  0  0  0
 36 74  1  0  0  0  0
 36 80  2  0  0  0  0
 37 70  1  0  0  0  0
 37 75  1  0  0  0  0
 37 81  2  0  0  0  0
 38 41  1  0  0  0  0
 39 48  1  0  0  0  0
 40 69  1  0  0  0  0
 41 43  1  0  0  0  0
 42 44  1  0  0  0  0
 42 45  1  0  0  0  0
 43 47  1  0  0  0  0
 44 49  1  0  0  0  0
 45 70  1  0  0  0  0
 46 49  1  0  0  0  0
 46 70  1  0  0  0  0
 47 73  1  0  0  0  0
 48 69  1  0  0  0  0
 49 68  1  0  0  0  0
 51 63  1  0  0  0  0
 52 64  1  0  0  0  0
 53 65  1  0  0  0  0
 54 65  1  0  0  0  0
 55 65  1  0  0  0  0
 56 76  1  0  0  0  0
 57 83  1  0  0  0  0
 58 60  1  0  0  0  0
 59 64  1  0  0  0  0
 60 61  1  0  0  0  0
 61 84  1  0  0  0  0
 62 65  1  0  0  0  0
 62 74  1  0  0  0  0
 63 76  1  0  0  0  0
 64 75  1  0  0  0  0
 67 68  1  0  0  0  0
M  CHG  1  76   1
M  ISO  4  37 100  61 101  75 100  84 101
M  END
> <Batch ID>
0108

> <Smiles>
CNC(C)C(=O)NC(C(=O)N1Cc2cc([101O:1][101CH2:1]CCc3cnc(C)c(OC)c3CC(C)[100NH:0][100C:0](=O)N3CCCC(n4nc(-c5ccc(Oc6ccc(F)cc6F)cc5)c(C(N)=O)c4N)C3)ccc2CC1C(=O)NC1CCCc2ccccc21)C(C)(C)C

> <Shape>
0.264

> <Color>
0.073

> <Negative vol penalty>
0.000

$$$$

  -OEChem-04052319533D

 87 95  0     1  0  0  0  0  0999 V2000
  -19.0542  -28.6643   23.3438 C   0  0  0  0  0  0  0  0  0  0  0  0
  -19.9818  -27.7067   23.7382 C   0  0  0  0  0  0  0  0  0  0  0  0
  -29.5470  -23.5383   21.1556 C   0  0  0  0  0  0  0  0  0  0  0  0
  -27.5767  -23.3520   19.7699 C   0  0  0  0  0  0  0  0  0  0  0  0
  -18.4849  -28.5961   22.0740 C   0  0  0  0  0  0  0  0  0  0  0  0
  -20.3493  -26.6876   22.8588 C   0  0  0  0  0  0  0  0  0  0  0  0
  -24.0386  -20.5720   22.2285 C   0  0  0  0  0  0  0  0  0  0  0  0
  -29.5322  -24.9233   20.9906 C   0  0  0  0  0  0  0  0  0  0  0  0
  -27.5618  -24.7370   19.6048 C   0  0  0  0  0  0  0  0  0  0  0  0
  -23.9493  -19.2185   21.9062 C   0  0  0  0  0  0  0  0  0  0  0  0
  -26.7940  -28.2566   19.1136 C   0  0  0  0  0  0  0  0  0  0  0  0
  -25.5699  -28.9127   19.2425 C   0  0  0  0  0  0  0  0  0  0  0  0
  -23.9062  -19.7857   19.5619 C   0  0  0  0  0  0  0  0  0  0  0  0
  -25.3755  -28.1044   21.5110 C   0  0  0  0  0  0  0  0  0  0  0  0
  -28.5693  -22.7527   20.5452 C   0  0  0  0  0  0  0  0  0  0  0  0
  -28.4888  -20.6082   21.9246 C   0  0  0  0  0  0  0  0  0  0  0  0
  -18.8368  -27.5682   21.1837 C   0  0  0  0  0  0  0  0  0  0  0  0
  -24.0514  -21.5448   21.2185 C   0  0  0  0  0  0  0  0  0  0  0  0
  -19.8037  -26.6155   21.5643 C   0  0  0  0  0  0  0  0  0  0  0  0
  -23.9983  -21.1508   19.8739 C   0  0  0  0  0  0  0  0  0  0  0  0
  -28.5396  -25.5226   20.2152 C   0  0  0  0  0  0  0  0  0  0  0  0
  -23.8802  -18.8254   20.5729 C   0  0  0  0  0  0  0  0  0  0  0  0
  -27.3088  -27.5243   20.1834 C   0  0  0  0  0  0  0  0  0  0  0  0
  -24.8606  -28.8366   20.4412 C   0  0  0  0  0  0  0  0  0  0  0  0
  -26.5996  -27.4482   21.3821 C   0  0  0  0  0  0  0  0  0  0  0  0
  -28.5844  -21.3219   20.7149 C   0  0  0  0  0  0  0  0  0  0  0  0
  -28.5513  -19.2882   21.5503 C   0  0  0  0  0  0  0  0  0  0  0  0
  -28.3554  -21.0950   23.2666 C   0  0  0  0  0  0  0  0  0  0  0  0
  -22.1614  -23.9718   20.4177 C   0  0  0  0  0  0  0  0  0  0  0  0
  -24.5110  -24.5832   18.2665 C   0  0  0  0  0  0  0  0  0  0  0  0
  -26.9932  -23.5864   15.8452 C   0  0  0  0  0  0  0  0  0  0  0  0
  -27.0380  -15.1099   18.1743 C   0  0  0  0  0  0  0  0  0  0  0  0
  -18.1956  -27.5467   19.8186 C   0  0  0  0  0  0  0  0  0  0  0  0
  -24.1751  -22.9992   21.5818 C   0  0  0  0  0  0  0  0  0  0  0  0
  -24.0291  -22.1546   18.7516 C   0  0  0  0  0  0  0  0  0  0  0  0
  -18.3109  -26.1912   19.1289 C   0  0  0  0  0  0  0  0  0  0  0  0
  -29.7326  -17.1782   17.1075 C   0  0  0  0  0  0  0  0  0  0  0  0
  -24.5323  -11.9998   22.1969 C   0  0  0  0  0  0  0  0  0  0  0  0
  -19.7498  -25.7003   19.1848 C   0  0  0  0  0  0  0  0  0  0  0  0
  -23.7499  -12.6304   21.0462 C   0  0  0  0  0  0  0  0  0  0  0  0
  -29.6621  -18.3839   18.0462 C   0  0  0  0  0  0  0  0  0  0  0  0
  -28.3415  -16.6604   16.7484 C   0  0  0  0  0  0  0  0  0  0  0  0
  -27.4060  -17.5624   18.8425 C   0  0  0  0  0  0  0  0  0  0  0  0
  -25.6271  -11.0276   21.7889 C   0  0  0  0  0  0  0  0  0  0  0  0
  -26.7795  -12.8451   20.4393 C   0  0  0  0  0  0  0  0  0  0  0  0
  -20.1958  -25.4804   20.6359 C   0  0  1  0  0  0  0  0  0  0  0  0
  -23.6617  -23.9334   20.4904 C   0  0  1  0  0  0  0  0  0  0  0  0
  -24.4067  -13.9126   20.4953 C   0  0  1  0  0  0  0  0  0  0  0  0
  -28.7857  -18.0854   19.2775 C   0  0  2  0  0  0  0  0  0  0  0  0
  -25.7217  -13.6760   19.7139 C   0  0  1  0  0  0  0  0  0  0  0  0
  -18.1941  -18.1903   20.2540 C   0  0  0  0  0  0  0  0  0  0  0  0
  -28.6401  -24.9566   14.5384 C   0  0  0  0  0  0  0  0  0  0  0  0
  -22.6747  -13.6379   18.7005 C   0  0  0  0  0  0  0  0  0  0  0  0
  -19.2762  -15.3203   20.4917 C   0  0  0  0  0  0  0  0  0  0  0  0
  -22.3596  -24.5770   16.1028 C   0  0  0  0  0  0  0  0  0  0  0  0
  -24.1765  -24.3539   14.3948 C   0  0  0  0  0  0  0  0  0  0  0  0
  -24.0820  -26.3734   15.8562 C   0  0  0  0  0  0  0  0  0  0  0  0
  -29.2802  -21.9838   16.8251 C   0  0  0  0  0  0  0  0  0  0  0  0
  -19.4294  -17.6566   19.5411 C   0  0  0  0  0  0  0  0  0  0  0  0
  -23.1386  -16.6532   21.1955 C   0  0  0  0  0  0  0  0  0  1  0  0
  -24.7967  -24.1594   16.8460 C   0  0  1  0  0  0  0  0  0  0  0  0
  -28.4276  -24.0760   15.7599 C   0  0  2  0  0  0  0  0  0  0  0  0
  -23.3826  -14.6454   19.6117 C   0  0  1  0  0  0  0  0  0  0  0  0
  -20.1541  -16.5523   20.3159 C   0  0  2  0  0  0  0  0  0  0  0  0
  -22.4273  -15.5257   20.4482 C   0  0  2  0  0  0  0  0  0  0  0  0
  -23.8512  -24.8469   15.8209 C   0  0  0  0  0  0  0  0  0  0  0  0
  -28.6991  -20.5216   19.6517 N   0  0  0  0  0  0  0  0  0  0  0  0
  -28.6760  -19.2913   20.1921 N   0  0  0  0  0  0  0  0  0  0  0  0
  -24.1445  -23.5650   19.1579 N   0  0  0  0  0  0  0  0  0  0  0  0
  -27.5623  -16.3954   17.9602 N   0  0  0  0  0  0  0  0  0  0  0  0
  -28.5112  -18.1367   22.2538 N   0  0  0  0  0  0  0  0  0  0  0  0
  -27.0665  -21.2956   23.7795 N   0  0  0  0  0  0  0  0  0  0  0  0
  -21.6183  -25.2194   20.6581 N   0  0  0  0  0  0  0  0  0  0  0  0
  -26.2142  -24.4200   16.6195 N   0  0  0  0  0  0  0  0  0  0  0  0
  -26.3174  -14.9424   19.3505 N   0  0  0  0  0  0  0  0  0  0  0  0
  -26.3366  -11.4244   20.5458 N   0  3  0  0  0  0  0  0  0  0  0  0
  -29.3651  -22.9206   15.6753 N   0  3  0  0  0  0  0  0  0  0  0  0
  -21.3770  -16.1414   19.5823 N   0  3  0  0  0  0  0  0  0  0  0  0
  -29.3497  -21.3603   23.9838 O   0  0  0  0  0  0  0  0  0  0  0  0
  -21.5425  -22.9458   20.1609 O   0  0  0  0  0  0  0  0  0  0  0  0
  -24.6164  -25.7728   18.5755 O   0  0  0  0  0  0  0  0  0  0  0  0
  -26.6019  -22.5686   15.2782 O   0  0  0  0  0  0  0  0  0  0  0  0
  -27.2045  -14.1790   17.3790 O   0  0  0  0  0  0  0  0  0  0  0  0
  -28.5247  -26.8741   20.0541 O   0  0  0  0  0  0  0  0  0  0  0  0
  -23.7923  -17.5050   20.2556 O   0  0  0  0  0  0  0  0  0  1  0  0
  -23.6858  -29.4680   20.5653 F   0  0  0  0  0  0  0  0  0  0  0  0
  -27.0897  -26.7472   22.4137 F   0  0  0  0  0  0  0  0  0  0  0  0
  1  2  1  0  0  0  0
  1  5  2  0  0  0  0
  2  6  2  0  0  0  0
  3  8  2  0  0  0  0
  3 15  1  0  0  0  0
  4  9  1  0  0  0  0
  4 15  2  0  0  0  0
  5 17  1  0  0  0  0
  6 19  1  0  0  0  0
  7 10  2  0  0  0  0
  7 18  1  0  0  0  0
  8 21  1  0  0  0  0
  9 21  2  0  0  0  0
 10 22  1  0  0  0  0
 11 12  2  0  0  0  0
 11 23  1  0  0  0  0
 12 24  1  0  0  0  0
 13 20  1  0  0  0  0
 13 22  2  0  0  0  0
 14 24  2  0  0  0  0
 14 25  1  0  0  0  0
 15 26  1  0  0  0  0
 16 26  1  0  0  0  0
 16 27  2  0  0  0  0
 16 28  1  0  0  0  0
 17 19  2  0  0  0  0
 17 33  1  0  0  0  0
 18 20  2  0  0  0  0
 18 34  1  0  0  0  0
 19 46  1  0  0  0  0
 20 35  1  0  0  0  0
 21 84  1  0  0  0  0
 22 85  1  0  0  0  0
 23 25  2  0  0  0  0
 23 84  1  0  0  0  0
 24 86  1  0  0  0  0
 25 87  1  0  0  0  0
 26 67  2  0  0  0  0
 27 68  1  0  0  0  0
 27 71  1  0  0  0  0
 28 72  1  0  0  0  0
 28 79  2  0  0  0  0
 29 47  1  0  0  0  0
 29 73  1  0  0  0  0
 29 80  2  0  0  0  0
 30 61  1  0  0  0  0
 30 69  1  0  0  0  0
 30 81  2  0  0  0  0
 31 62  1  0  0  0  0
 31 74  1  0  0  0  0
 31 82  2  0  0  0  0
 32 70  1  0  0  0  0
 32 75  1  0  0  0  0
 32 83  2  0  0  0  0
 33 36  1  0  0  0  0
 34 47  1  0  0  0  0
 35 69  1  0  0  0  0
 36 39  1  0  0  0  0
 37 41  1  0  0  0  0
 37 42  1  0  0  0  0
 38 40  1  0  0  0  0
 38 44  1  0  0  0  0
 39 46  1  0  0  0  0
 40 48  1  0  0  0  0
 41 49  1  0  0  0  0
 42 70  1  0  0  0  0
 43 49  1  0  0  0  0
 43 70  1  0  0  0  0
 44 76  1  0  0  0  0
 45 50  1  0  0  0  0
 45 76  1  0  0  0  0
 46 73  1  0  0  0  0
 47 69  1  0  0  0  0
 48 50  1  0  0  0  0
 48 63  1  0  0  0  0
 49 68  1  0  0  0  0
 50 75  1  0  0  0  0
 51 59  1  0  0  0  0
 52 62  1  0  0  0  0
 53 63  1  0  0  0  0
 54 64  1  0  0  0  0
 55 66  1  0  0  0  0
 56 66  1  0  0  0  0
 57 66  1  0  0  0  0
 58 77  1  0  0  0  0
 59 64  1  0  0  0  0
 60 65  1  0  0  0  0
 60 85  1  0  0  0  0
 61 66  1  0  0  0  0
 61 74  1  0  0  0  0
 62 77  1  0  0  0  0
 63 65  1  0  0  0  0
 64 78  1  0  0  0  0
 65 78  1  0  0  0  0
 67 68  1  0  0  0  0
M  CHG  3  76   1  77   1  78   1
M  ISO  4  32 100  60 101  75 100  85 101
M  END
> <Batch ID>
0108

> <Smiles>
CCC(C)NC(C(C)C1CCCNCC1[100NH:0][100C:0](=O)N1CCCC(n2nc(-c3ccc(Oc4ccc(F)cc4F)cc3)c(C(N)=O)c2N)C1)[101CH2:1][101O:1]c1ccc2c(c1)CN(C(=O)C(NC(=O)C(C)NC)C(C)(C)C)C(C(=O)NC1CCCc3ccccc31)C2

> <Shape>
0.190

> <Color>
0.082

> <Negative vol penalty>
0.000

$$$$

  -OEChem-04052319533D

 83 91  0     1  0  0  0  0  0999 V2000
  -32.2832  -25.2766   17.0086 C   0  0  0  0  0  0  0  0  0  0  0  0
  -31.2022  -24.7996   17.7430 C   0  0  0  0  0  0  0  0  0  0  0  0
  -25.8468  -14.4954   18.8653 C   0  0  0  0  0  0  0  0  0  0  0  0
  -24.4554  -14.6819   20.8316 C   0  0  0  0  0  0  0  0  0  0  0  0
  -32.8898  -26.4803   17.3649 C   0  0  0  0  0  0  0  0  0  0  0  0
  -30.7278  -25.5257   18.8349 C   0  0  0  0  0  0  0  0  0  0  0  0
  -25.6748  -25.8537   18.9024 C   0  0  0  0  0  0  0  0  0  0  0  0
  -26.0709  -13.1488   19.1517 C   0  0  0  0  0  0  0  0  0  0  0  0
  -24.6795  -13.3353   21.1179 C   0  0  0  0  0  0  0  0  0  0  0  0
  -24.9701  -24.7365   19.3484 C   0  0  0  0  0  0  0  0  0  0  0  0
  -23.5391  -10.3396   20.0476 C   0  0  0  0  0  0  0  0  0  0  0  0
  -22.4390   -9.5650   20.4156 C   0  0  0  0  0  0  0  0  0  0  0  0
  -22.8438  -20.8855   26.7861 C   0  0  0  0  0  0  0  0  0  0  0  0
  -24.6973  -25.7778   21.5072 C   0  0  0  0  0  0  0  0  0  0  0  0
  -23.4895   -9.0809   22.5367 C   0  0  0  0  0  0  0  0  0  0  0  0
  -22.1687  -21.0256   25.5937 C   0  0  0  0  0  0  0  0  0  0  0  0
  -25.0391  -15.2620   19.7053 C   0  0  0  0  0  0  0  0  0  0  0  0
  -23.7716  -17.1951   18.6262 C   0  0  0  0  0  0  0  0  0  0  0  0
  -32.4165  -27.2263   18.4558 C   0  0  0  0  0  0  0  0  0  0  0  0
  -25.9058  -26.9387   19.7603 C   0  0  0  0  0  0  0  0  0  0  0  0
  -31.3295  -26.7399   19.2069 C   0  0  0  0  0  0  0  0  0  0  0  0
  -25.4030  -26.9087   21.0689 C   0  0  0  0  0  0  0  0  0  0  0  0
  -25.4873  -12.5687   20.2779 C   0  0  0  0  0  0  0  0  0  0  0  0
  -24.4837  -24.6971   20.6518 C   0  0  0  0  0  0  0  0  0  0  0  0
  -24.6145  -10.4847   20.9241 C   0  0  0  0  0  0  0  0  0  0  0  0
  -22.4142   -8.9357   21.6602 C   0  0  0  0  0  0  0  0  0  0  0  0
  -24.1496  -21.4011   26.5962 C   0  0  0  0  0  0  0  0  0  0  0  0
  -24.5897   -9.8554   22.1686 C   0  0  0  0  0  0  0  0  0  0  0  0
  -24.8076  -16.6532   19.4104 C   0  0  0  0  0  0  0  0  0  0  0  0
  -24.2327  -21.8409   25.2934 C   0  0  0  0  0  0  0  0  0  0  0  0
  -23.9923  -18.5504   18.6547 C   0  0  0  0  0  0  0  0  0  0  0  0
  -22.7052  -16.5325   17.9338 C   0  0  0  0  0  0  0  0  0  0  0  0
  -28.4957  -28.3407   20.9563 C   0  0  0  0  0  0  0  0  0  0  0  0
  -26.3356  -30.4701   22.1060 C   0  0  0  0  0  0  0  0  0  0  0  0
  -23.1179  -31.1128   23.0443 C   0  0  0  0  0  0  0  0  0  0  0  0
  -26.7701  -22.1480   22.5524 C   0  0  0  0  0  0  0  0  0  0  0  0
  -33.1345  -28.4983   18.8316 C   0  0  0  0  0  0  0  0  0  0  0  0
  -26.6447  -28.1477   19.2556 C   0  0  0  0  0  0  0  0  0  0  0  0
  -25.6065  -28.0561   22.0231 C   0  0  0  0  0  0  0  0  0  0  0  0
  -32.3341  -29.3940   19.7736 C   0  0  0  0  0  0  0  0  0  0  0  0
  -27.5108  -21.7630   19.0912 C   0  0  0  0  0  0  0  0  0  0  0  0
  -31.7401  -28.5736   20.9141 C   0  0  0  0  0  0  0  0  0  0  0  0
  -26.8085  -20.4586   18.7098 C   0  0  0  0  0  0  0  0  0  0  0  0
  -28.0885  -21.7008   20.5035 C   0  0  0  0  0  0  0  0  0  0  0  0
  -26.4216  -20.0121   21.1694 C   0  0  0  0  0  0  0  0  0  0  0  0
  -30.7704  -27.5112   20.3827 C   0  0  1  0  0  0  0  0  0  0  0  0
  -27.2660  -28.9783   20.3743 C   0  0  1  0  0  0  0  0  0  0  0  0
  -25.7741  -20.0466   19.7745 C   0  0  2  0  0  0  0  0  0  0  0  0
  -21.6646  -32.9328   23.9785 C   0  0  0  0  0  0  0  0  0  0  0  0
  -20.9085  -23.6845   23.5670 C   0  0  0  0  0  0  0  0  0  0  0  0
  -21.5084  -23.0527   20.6130 C   0  0  0  0  0  0  0  0  0  0  0  0
  -27.5409  -30.0100   24.8710 C   0  0  0  0  0  0  0  0  0  0  0  0
  -25.5017  -31.0735   25.8603 C   0  0  0  0  0  0  0  0  0  0  0  0
  -26.9903  -32.3947   24.3566 C   0  0  0  0  0  0  0  0  0  0  0  0
  -21.3791  -31.1129   20.6494 C   0  0  0  0  0  0  0  0  0  0  0  0
  -25.3631  -22.4610   24.5727 C   0  0  0  0  0  0  0  0  0  0  0  0
  -22.6677  -21.9337   23.2630 C   0  0  0  0  0  0  0  0  0  0  0  0
  -25.5206  -30.5888   23.3712 C   0  0  1  0  0  0  0  0  0  0  0  0
  -22.1835  -32.2630   22.7156 C   0  0  2  0  0  0  0  0  0  0  0  0
  -22.3198  -23.4231   23.0210 C   0  0  1  0  0  0  0  0  0  0  0  0
  -22.4555  -23.8195   21.5305 C   0  0  1  0  0  0  0  0  0  1  0  0
  -26.3860  -30.9942   24.5977 C   0  0  0  0  0  0  0  0  0  0  0  0
  -25.6257  -17.5881   19.9012 N   0  0  0  0  0  0  0  0  0  0  0  0
  -23.0227  -21.6078   24.6937 N   0  0  0  0  0  0  0  0  0  0  0  0
  -25.1039  -18.7310   19.4241 N   0  0  0  0  0  0  0  0  0  0  0  0
  -26.3406  -29.2132   21.4846 N   0  0  0  0  0  0  0  0  0  0  0  0
  -27.0563  -21.3061   21.4650 N   0  0  0  0  0  0  0  0  0  0  0  0
  -23.3420  -19.5934   18.0965 N   0  0  0  0  0  0  0  0  0  0  0  0
  -22.6260  -15.1352   18.0094 N   0  0  0  0  0  0  0  0  0  0  0  0
  -29.5011  -28.1139   20.0358 N   0  0  0  0  0  0  0  0  0  0  0  0
  -24.4358  -31.5174   23.0723 N   0  0  0  0  0  0  0  0  0  0  0  0
  -25.7740  -21.7022   23.4125 N   0  0  0  0  0  0  0  0  0  0  0  0
  -21.0158  -31.7734   21.9295 N   0  3  0  0  0  0  0  0  0  0  0  0
  -21.8575  -17.1595   17.2544 O   0  0  0  0  0  0  0  0  0  0  0  0
  -28.5305  -28.0755   22.1522 O   0  0  0  0  0  0  0  0  0  0  0  0
  -26.9395  -31.4580   21.6807 O   0  0  0  0  0  0  0  0  0  0  0  0
  -22.7184  -29.9704   23.2588 O   0  0  0  0  0  0  0  0  0  0  0  0
  -27.3551  -23.2202   22.7398 O   0  0  0  0  0  0  0  0  0  0  0  0
  -25.7056  -11.2547   20.5575 O   0  0  0  0  0  0  0  0  0  0  0  0
  -23.7962  -23.6076   21.0899 O   0  0  0  0  0  0  0  0  0  1  0  0
  -21.3571   -8.1932   22.0141 F   0  0  0  0  0  0  0  0  0  0  0  0
  -25.1161  -21.4502   27.5095 F   0  0  0  0  0  0  0  0  0  0  0  0
  -25.6193   -9.9921   23.0154 F   0  0  0  0  0  0  0  0  0  0  0  0
  1  2  1  0  0  0  0
  1  5  2  0  0  0  0
  2  6  2  0  0  0  0
  3  8  2  0  0  0  0
  3 17  1  0  0  0  0
  4  9  1  0  0  0  0
  4 17  2  0  0  0  0
  5 19  1  0  0  0  0
  6 21  1  0  0  0  0
  7 10  2  0  0  0  0
  7 20  1  0  0  0  0
  8 23  1  0  0  0  0
  9 23  2  0  0  0  0
 10 24  1  0  0  0  0
 11 12  2  0  0  0  0
 11 25  1  0  0  0  0
 12 26  1  0  0  0  0
 13 16  2  0  0  0  0
 13 27  1  0  0  0  0
 14 22  1  0  0  0  0
 14 24  2  0  0  0  0
 15 26  2  0  0  0  0
 15 28  1  0  0  0  0
 16 64  1  0  0  0  0
 17 29  1  0  0  0  0
 18 29  1  0  0  0  0
 18 31  2  0  0  0  0
 18 32  1  0  0  0  0
 19 21  2  0  0  0  0
 19 37  1  0  0  0  0
 20 22  2  0  0  0  0
 20 38  1  0  0  0  0
 21 46  1  0  0  0  0
 22 39  1  0  0  0  0
 23 79  1  0  0  0  0
 24 80  1  0  0  0  0
 25 28  2  0  0  0  0
 25 79  1  0  0  0  0
 26 81  1  0  0  0  0
 27 30  2  0  0  0  0
 27 82  1  0  0  0  0
 28 83  1  0  0  0  0
 29 63  2  0  0  0  0
 30 56  1  0  0  0  0
 30 64  1  0  0  0  0
 31 65  1  0  0  0  0
 31 68  1  0  0  0  0
 32 69  1  0  0  0  0
 32 74  2  0  0  0  0
 33 47  1  0  0  0  0
 33 70  1  0  0  0  0
 33 75  2  0  0  0  0
 34 58  1  0  0  0  0
 34 66  1  0  0  0  0
 34 76  2  0  0  0  0
 35 59  1  0  0  0  0
 35 71  1  0  0  0  0
 35 77  2  0  0  0  0
 36 67  1  0  0  0  0
 36 72  1  0  0  0  0
 36 78  2  0  0  0  0
 37 40  1  0  0  0  0
 38 47  1  0  0  0  0
 39 66  1  0  0  0  0
 40 42  1  0  0  0  0
 41 43  1  0  0  0  0
 41 44  1  0  0  0  0
 42 46  1  0  0  0  0
 43 48  1  0  0  0  0
 44 67  1  0  0  0  0
 45 48  1  0  0  0  0
 45 67  1  0  0  0  0
 46 70  1  0  0  0  0
 47 66  1  0  0  0  0
 48 65  1  0  0  0  0
 49 59  1  0  0  0  0
 50 60  1  0  0  0  0
 51 61  1  0  0  0  0
 52 62  1  0  0  0  0
 53 62  1  0  0  0  0
 54 62  1  0  0  0  0
 55 73  1  0  0  0  0
 56 72  1  0  0  0  0
 57 60  1  0  0  0  0
 57 64  1  0  0  0  0
 58 62  1  0  0  0  0
 58 71  1  0  0  0  0
 59 73  1  0  0  0  0
 60 61  1  0  0  0  0
 61 80  1  0  0  0  0
 63 65  1  0  0  0  0
M  CHG  1  73   1
M  ISO  4  36 100  61 101  72 100  80 101
M  END
> <Batch ID>
0108

> <Smiles>
CNC(C)C(=O)NC(C(=O)N1Cc2cc([101O:1][101CH:1](C)C(C)Cn3ccc(F)c3C[100NH:0][100C:0](=O)N3CCCC(n4nc(-c5ccc(Oc6ccc(F)cc6F)cc5)c(C(N)=O)c4N)C3)ccc2CC1C(=O)NC1CCCc2ccccc21)C(C)(C)C

> <Shape>
0.216

> <Color>
0.062

> <Negative vol penalty>
0.000

$$$$

  -OEChem-04052319533D

 86 94  0     1  0  0  0  0  0999 V2000
  -16.6847  -30.3813   23.1449 C   0  0  0  0  0  0  0  0  0  0  0  0
  -17.8139  -31.1084   23.5078 C   0  0  0  0  0  0  0  0  0  0  0  0
  -29.3948  -25.3039   28.8957 C   0  0  0  0  0  0  0  0  0  0  0  0
  -30.8393  -26.5431   27.4074 C   0  0  0  0  0  0  0  0  0  0  0  0
  -16.7989  -29.0264   22.8364 C   0  0  0  0  0  0  0  0  0  0  0  0
  -19.0578  -30.4807   23.5636 C   0  0  0  0  0  0  0  0  0  0  0  0
  -26.0201  -31.7802   22.4891 C   0  0  0  0  0  0  0  0  0  0  0  0
  -30.2082  -25.6512   29.9743 C   0  0  0  0  0  0  0  0  0  0  0  0
  -31.6527  -26.8904   28.4860 C   0  0  0  0  0  0  0  0  0  0  0  0
  -27.2506  -31.6567   23.1328 C   0  0  0  0  0  0  0  0  0  0  0  0
  -33.1600  -24.6591   31.2883 C   0  0  0  0  0  0  0  0  0  0  0  0
  -33.4965  -23.6543   32.1953 C   0  0  0  0  0  0  0  0  0  0  0  0
  -32.6600  -29.9622   20.7135 C   0  0  0  0  0  0  0  0  0  0  0  0
  -27.3404  -29.3301   22.5020 C   0  0  0  0  0  0  0  0  0  0  0  0
  -32.4429  -27.5701   20.8365 C   0  0  0  0  0  0  0  0  0  0  0  0
  -32.4425  -24.9058   33.9729 C   0  0  0  0  0  0  0  0  0  0  0  0
  -32.6393  -29.8391   19.3335 C   0  0  0  0  0  0  0  0  0  0  0  0
  -29.7104  -25.7498   27.6122 C   0  0  0  0  0  0  0  0  0  0  0  0
  -27.7581  -26.1008   26.0082 C   0  0  0  0  0  0  0  0  0  0  0  0
  -18.0464  -28.3840   22.8791 C   0  0  0  0  0  0  0  0  0  0  0  0
  -25.4343  -30.6749   21.8554 C   0  0  0  0  0  0  0  0  0  0  0  0
  -19.1885  -29.1156   23.2567 C   0  0  0  0  0  0  0  0  0  0  0  0
  -26.1035  -29.4428   21.8488 C   0  0  0  0  0  0  0  0  0  0  0  0
  -32.5594  -28.8013   21.4720 C   0  0  0  0  0  0  0  0  0  0  0  0
  -31.3371  -26.4445   29.7695 C   0  0  0  0  0  0  0  0  0  0  0  0
  -27.9096  -30.4309   23.1417 C   0  0  0  0  0  0  0  0  0  0  0  0
  -32.4649  -25.7874   31.7236 C   0  0  0  0  0  0  0  0  0  0  0  0
  -33.1377  -23.7775   33.5376 C   0  0  0  0  0  0  0  0  0  0  0  0
  -32.1060  -25.9107   33.0659 C   0  0  0  0  0  0  0  0  0  0  0  0
  -28.8709  -25.3909   26.4975 C   0  0  0  0  0  0  0  0  0  0  0  0
  -32.4317  -27.5541   19.4510 C   0  0  0  0  0  0  0  0  0  0  0  0
  -27.3111  -25.3504   24.9482 C   0  0  0  0  0  0  0  0  0  0  0  0
  -27.1802  -27.3288   26.4704 C   0  0  0  0  0  0  0  0  0  0  0  0
  -22.7419  -29.0313   22.2472 C   0  0  0  0  0  0  0  0  0  0  0  0
  -23.7246  -27.5285   19.5456 C   0  0  0  0  0  0  0  0  0  0  0  0
  -26.3074  -26.6483   17.4960 C   0  0  0  0  0  0  0  0  0  0  0  0
  -29.3306  -22.0511   20.6411 C   0  0  0  0  0  0  0  0  0  0  0  0
  -18.1126  -26.9066   22.5831 C   0  0  0  0  0  0  0  0  0  0  0  0
  -24.1190  -30.8312   21.1426 C   0  0  0  0  0  0  0  0  0  0  0  0
  -25.5268  -28.2307   21.1656 C   0  0  0  0  0  0  0  0  0  0  0  0
  -19.5267  -26.4044   22.3029 C   0  0  0  0  0  0  0  0  0  0  0  0
  -27.8370  -20.6382   23.5479 C   0  0  0  0  0  0  0  0  0  0  0  0
  -20.5012  -26.9442   23.3449 C   0  0  0  0  0  0  0  0  0  0  0  0
  -27.8479  -21.7857   24.5593 C   0  0  0  0  0  0  0  0  0  0  0  0
  -29.0854  -20.6490   22.6685 C   0  0  0  0  0  0  0  0  0  0  0  0
  -29.3609  -23.0761   22.9959 C   0  0  0  0  0  0  0  0  0  0  0  0
  -20.5592  -28.4760   23.3046 C   0  0  1  0  0  0  0  0  0  0  0  0
  -23.3721  -29.5121   20.9707 C   0  0  1  0  0  0  0  0  0  0  0  0
  -28.0954  -23.1400   23.8681 C   0  0  2  0  0  0  0  0  0  0  0  0
  -26.8045  -25.3885   15.3834 C   0  0  0  0  0  0  0  0  0  0  0  0
  -32.4571  -27.5036   23.7071 C   0  0  0  0  0  0  0  0  0  0  0  0
  -33.9379  -29.4750   23.4513 C   0  0  0  0  0  0  0  0  0  0  0  0
  -23.4049  -24.8910   21.0460 C   0  0  0  0  0  0  0  0  0  0  0  0
  -24.7850  -23.7931   19.2690 C   0  0  0  0  0  0  0  0  0  0  0  0
  -22.6031  -24.8477   18.6776 C   0  0  0  0  0  0  0  0  0  0  0  0
  -27.3732  -29.0681   16.1664 C   0  0  0  0  0  0  0  0  0  0  0  0
  -32.3080  -26.2504   18.7354 C   0  0  0  0  0  0  0  0  0  0  0  0
  -31.4462  -29.8106   23.5403 C   0  0  0  0  0  0  0  0  0  0  0  0
  -29.5735  -23.5872   18.7070 C   0  0  0  0  0  0  0  0  0  0  0  0
  -30.8852  -24.2411   18.3146 C   0  0  0  0  0  0  0  0  0  0  0  0
  -30.0218  -29.3429   23.2450 C   0  0  0  0  0  0  0  0  0  1  0  0
  -24.5783  -26.3205   19.2444 C   0  0  1  0  0  0  0  0  0  0  0  0
  -26.4761  -26.7436   15.9904 C   0  0  2  0  0  0  0  0  0  0  0  0
  -32.5777  -28.8796   23.0094 C   0  0  0  0  0  0  0  0  0  0  0  0
  -23.8530  -24.9852   19.5739 C   0  0  0  0  0  0  0  0  0  0  0  0
  -32.5273  -28.6607   18.6804 N   0  0  0  0  0  0  0  0  0  0  0  0
  -29.1158  -24.2751   25.8054 N   0  0  0  0  0  0  0  0  0  0  0  0
  -28.1505  -24.2782   24.8704 N   0  0  0  0  0  0  0  0  0  0  0  0
  -24.2355  -28.4325   20.4877 N   0  0  0  0  0  0  0  0  0  0  0  0
  -29.2618  -21.9610   22.0411 N   0  0  0  0  0  0  0  0  0  0  0  0
  -26.2859  -25.5096   24.0846 N   0  0  0  0  0  0  0  0  0  0  0  0
  -27.7643  -27.9693   27.5717 N   0  0  0  0  0  0  0  0  0  0  0  0
  -21.3657  -28.9221   22.1888 N   0  0  0  0  0  0  0  0  0  0  0  0
  -24.9900  -26.4487   17.8507 N   0  0  0  0  0  0  0  0  0  0  0  0
  -29.4921  -23.3323   20.1280 N   0  0  0  0  0  0  0  0  0  0  0  0
  -27.5766  -27.6896   15.6513 N   0  3  0  0  0  0  0  0  0  0  0  0
  -31.0547  -25.5156   19.0602 N   0  3  0  0  0  0  0  0  0  0  0  0
  -26.1656  -27.8344   25.9332 O   0  0  0  0  0  0  0  0  0  0  0  0
  -23.4519  -28.7768   23.2130 O   0  0  0  0  0  0  0  0  0  0  0  0
  -22.6475  -27.6688   18.9610 O   0  0  0  0  0  0  0  0  0  0  0  0
  -27.2506  -26.7379   18.2789 O   0  0  0  0  0  0  0  0  0  0  0  0
  -29.2483  -21.0637   19.9028 O   0  0  0  0  0  0  0  0  0  0  0  0
  -32.1309  -26.7838   30.8218 O   0  0  0  0  0  0  0  0  0  0  0  0
  -29.1105  -30.3075   23.7698 O   0  0  0  0  0  0  0  0  0  1  0  0
  -33.4595  -22.8118   34.4081 F   0  0  0  0  0  0  0  0  0  0  0  0
  -31.4371  -26.9917   33.4898 F   0  0  0  0  0  0  0  0  0  0  0  0
  1  2  1  0  0  0  0
  1  5  2  0  0  0  0
  2  6  2  0  0  0  0
  3  8  2  0  0  0  0
  3 18  1  0  0  0  0
  4  9  1  0  0  0  0
  4 18  2  0  0  0  0
  5 20  1  0  0  0  0
  6 22  1  0  0  0  0
  7 10  2  0  0  0  0
  7 21  1  0  0  0  0
  8 25  1  0  0  0  0
  9 25  2  0  0  0  0
 10 26  1  0  0  0  0
 11 12  2  0  0  0  0
 11 27  1  0  0  0  0
 12 28  1  0  0  0  0
 13 17  2  0  0  0  0
 13 24  1  0  0  0  0
 14 23  1  0  0  0  0
 14 26  2  0  0  0  0
 15 24  2  0  0  0  0
 15 31  1  0  0  0  0
 16 28  2  0  0  0  0
 16 29  1  0  0  0  0
 17 66  1  0  0  0  0
 18 30  1  0  0  0  0
 19 30  1  0  0  0  0
 19 32  2  0  0  0  0
 19 33  1  0  0  0  0
 20 22  2  0  0  0  0
 20 38  1  0  0  0  0
 21 23  2  0  0  0  0
 21 39  1  0  0  0  0
 22 47  1  0  0  0  0
 23 40  1  0  0  0  0
 24 64  1  0  0  0  0
 25 83  1  0  0  0  0
 26 84  1  0  0  0  0
 27 29  2  0  0  0  0
 27 83  1  0  0  0  0
 28 85  1  0  0  0  0
 29 86  1  0  0  0  0
 30 67  2  0  0  0  0
 31 57  1  0  0  0  0
 31 66  2  0  0  0  0
 32 68  1  0  0  0  0
 32 71  1  0  0  0  0
 33 72  1  0  0  0  0
 33 78  2  0  0  0  0
 34 48  1  0  0  0  0
 34 73  1  0  0  0  0
 34 79  2  0  0  0  0
 35 62  1  0  0  0  0
 35 69  1  0  0  0  0
 35 80  2  0  0  0  0
 36 63  1  0  0  0  0
 36 74  1  0  0  0  0
 36 81  2  0  0  0  0
 37 70  1  0  0  0  0
 37 75  1  0  0  0  0
 37 82  2  0  0  0  0
 38 41  1  0  0  0  0
 39 48  1  0  0  0  0
 40 69  1  0  0  0  0
 41 43  1  0  0  0  0
 42 44  1  0  0  0  0
 42 45  1  0  0  0  0
 43 47  1  0  0  0  0
 44 49  1  0  0  0  0
 45 70  1  0  0  0  0
 46 49  1  0  0  0  0
 46 70  1  0  0  0  0
 47 73  1  0  0  0  0
 48 69  1  0  0  0  0
 49 68  1  0  0  0  0
 50 63  1  0  0  0  0
 51 64  1  0  0  0  0
 52 64  1  0  0  0  0
 53 65  1  0  0  0  0
 54 65  1  0  0  0  0
 55 65  1  0  0  0  0
 56 76  1  0  0  0  0
 57 77  1  0  0  0  0
 58 61  1  0  0  0  0
 58 64  1  0  0  0  0
 59 60  1  0  0  0  0
 59 75  1  0  0  0  0
 60 77  1  0  0  0  0
 61 84  1  0  0  0  0
 62 65  1  0  0  0  0
 62 74  1  0  0  0  0
 63 76  1  0  0  0  0
 67 68  1  0  0  0  0
M  CHG  2  76   1  77   1
M  ISO  4  37 100  61 101  75 100  84 101
M  END
> <Batch ID>
0108

> <Smiles>
CNC(C)C(=O)NC(C(=O)N1Cc2cc([101O:1][101CH2:1]CC(C)(C)c3ccnc(CNCC[100NH:0][100C:0](=O)N4CCCC(n5nc(-c6ccc(Oc7ccc(F)cc7F)cc6)c(C(N)=O)c5N)C4)c3)ccc2CC1C(=O)NC1CCCc2ccccc21)C(C)(C)C

> <Shape>
0.184

> <Color>
0.091

> <Negative vol penalty>
0.000

$$$$

  -OEChem-04052319533D

 85 93  0     1  0  0  0  0  0999 V2000
  -24.5324  -11.7971   24.0990 C   0  0  0  0  0  0  0  0  0  0  0  0
  -25.2453  -12.9734   24.3076 C   0  0  0  0  0  0  0  0  0  0  0  0
  -19.2476  -28.7196   24.2212 C   0  0  0  0  0  0  0  0  0  0  0  0
  -18.4769  -28.1172   22.0121 C   0  0  0  0  0  0  0  0  0  0  0  0
  -24.2976  -11.3466   22.8007 C   0  0  0  0  0  0  0  0  0  0  0  0
  -25.7248  -13.6994   23.2179 C   0  0  0  0  0  0  0  0  0  0  0  0
  -26.2130  -19.7882   22.7781 C   0  0  0  0  0  0  0  0  0  0  0  0
  -17.9414  -29.0423   24.5890 C   0  0  0  0  0  0  0  0  0  0  0  0
  -17.1706  -28.4398   22.3799 C   0  0  0  0  0  0  0  0  0  0  0  0
  -27.2887  -20.6580   22.9516 C   0  0  0  0  0  0  0  0  0  0  0  0
  -15.1390  -27.3982   25.5252 C   0  0  0  0  0  0  0  0  0  0  0  0
  -14.6826  -26.9429   26.7620 C   0  0  0  0  0  0  0  0  0  0  0  0
  -27.6821  -20.6367   20.5717 C   0  0  0  0  0  0  0  0  0  0  0  0
  -14.2989  -29.2238   27.4602 C   0  0  0  0  0  0  0  0  0  0  0  0
  -19.5154  -28.2571   22.9328 C   0  0  0  0  0  0  0  0  0  0  0  0
  -21.4975  -26.6726   22.6724 C   0  0  0  0  0  0  0  0  0  0  0  0
  -24.7661  -12.0725   21.6942 C   0  0  0  0  0  0  0  0  0  0  0  0
  -25.8699  -19.3268   21.4991 C   0  0  0  0  0  0  0  0  0  0  0  0
  -25.4971  -13.2575   21.9035 C   0  0  0  0  0  0  0  0  0  0  0  0
  -26.6000  -19.7632   20.3843 C   0  0  0  0  0  0  0  0  0  0  0  0
  -16.9029  -28.9023   23.6684 C   0  0  0  0  0  0  0  0  0  0  0  0
  -28.0253  -21.0800   21.8487 C   0  0  0  0  0  0  0  0  0  0  0  0
  -15.1754  -28.7664   25.2558 C   0  0  0  0  0  0  0  0  0  0  0  0
  -14.2625  -27.8556   27.7295 C   0  0  0  0  0  0  0  0  0  0  0  0
  -14.7554  -29.6791   26.2232 C   0  0  0  0  0  0  0  0  0  0  0  0
  -20.8646  -27.9242   22.5521 C   0  0  0  0  0  0  0  0  0  0  0  0
  -22.7612  -26.8775   22.1747 C   0  0  0  0  0  0  0  0  0  0  0  0
  -20.9887  -25.4352   23.1878 C   0  0  0  0  0  0  0  0  0  0  0  0
  -25.7448  -16.4742   20.1024 C   0  0  0  0  0  0  0  0  0  0  0  0
  -24.4547  -18.1633   17.6518 C   0  0  0  0  0  0  0  0  0  0  0  0
  -24.1119  -21.1663   16.0671 C   0  0  0  0  0  0  0  0  0  0  0  0
  -27.3111  -30.2908   22.2418 C   0  0  0  0  0  0  0  0  0  0  0  0
  -24.5283  -11.5210   20.3107 C   0  0  0  0  0  0  0  0  0  0  0  0
  -24.6901  -18.4100   21.3256 C   0  0  0  0  0  0  0  0  0  0  0  0
  -26.2599  -19.3130   18.9878 C   0  0  0  0  0  0  0  0  0  0  0  0
  -24.7472  -12.5457   19.2006 C   0  0  0  0  0  0  0  0  0  0  0  0
  -24.7271  -30.7679   19.6292 C   0  0  0  0  0  0  0  0  0  0  0  0
  -26.0497  -13.3069   19.4260 C   0  0  0  0  0  0  0  0  0  0  0  0
  -23.5255  -30.0274   20.2137 C   0  0  0  0  0  0  0  0  0  0  0  0
  -25.6502  -31.2997   20.7208 C   0  0  0  0  0  0  0  0  0  0  0  0
  -29.2329  -29.0378   23.1712 C   0  0  0  0  0  0  0  0  0  0  0  0
  -24.9091  -29.5136   22.2645 C   0  0  0  0  0  0  0  0  0  0  0  0
  -27.4298  -27.7629   22.0754 C   0  0  0  0  0  0  0  0  0  0  0  0
  -30.2685  -28.4797   22.2086 C   0  0  0  0  0  0  0  0  0  0  0  0
  -26.0121  -14.0858   20.7464 C   0  0  1  0  0  0  0  0  0  0  0  0
  -24.7492  -17.5977   20.0357 C   0  0  1  0  0  0  0  0  0  0  0  0
  -23.9813  -28.9284   21.1890 C   0  0  1  0  0  0  0  0  0  0  0  0
  -28.4181  -27.1551   21.0687 C   0  0  1  0  0  0  0  0  0  0  0  0
  -28.4145  -27.8973   19.7325 C   0  0  0  0  0  0  0  0  0  0  0  0
  -23.0267  -22.2261   14.0679 C   0  0  0  0  0  0  0  0  0  0  0  0
  -34.4955  -25.3288   21.9342 C   0  0  0  0  0  0  0  0  0  0  0  0
  -33.6898  -26.2520   19.7522 C   0  0  0  0  0  0  0  0  0  0  0  0
  -26.5804  -16.9268   15.8456 C   0  0  0  0  0  0  0  0  0  0  0  0
  -26.0668  -18.6943   14.1484 C   0  0  0  0  0  0  0  0  0  0  0  0
  -24.3006  -17.0689   14.8275 C   0  0  0  0  0  0  0  0  0  0  0  0
  -22.5096  -22.9909   17.7590 C   0  0  0  0  0  0  0  0  0  0  0  0
  -29.9883  -24.1058   21.4795 C   0  0  0  0  0  0  0  0  0  0  0  0
  -30.3006  -25.1067   20.3588 C   0  0  0  0  0  0  0  0  0  0  0  0
  -32.1174  -26.2350   21.7124 C   0  0  0  0  0  0  0  0  0  0  0  0
  -29.3713  -22.8188   20.9426 C   0  0  0  0  0  0  0  0  0  1  0  0
  -25.0037  -18.8820   16.4431 C   0  0  1  0  0  0  0  0  0  0  0  0
  -22.8871  -21.8961   15.5459 C   0  0  2  0  0  0  0  0  0  0  0  0
  -33.2814  -25.4954   21.0201 C   0  0  0  0  0  0  0  0  0  0  0  0
  -30.8498  -26.4496   20.8681 C   0  0  2  0  0  0  0  0  0  0  0  0
  -25.4957  -17.9002   15.3425 C   0  0  0  0  0  0  0  0  0  0  0  0
  -21.6605  -28.8555   22.0198 N   0  0  0  0  0  0  0  0  0  0  0  0
  -22.8066  -28.1886   21.8014 N   0  0  0  0  0  0  0  0  0  0  0  0
  -25.1016  -18.4118   18.8707 N   0  0  0  0  0  0  0  0  0  0  0  0
  -26.0328  -30.2467   21.6616 N   0  0  0  0  0  0  0  0  0  0  0  0
  -27.9011  -29.0616   22.5724 N   0  0  0  0  0  0  0  0  0  0  0  0
  -23.8268  -26.0625   22.0244 N   0  0  0  0  0  0  0  0  0  0  0  0
  -19.6691  -25.3998   23.6587 N   0  0  0  0  0  0  0  0  0  0  0  0
  -25.2276  -15.2930   20.5990 N   0  0  0  0  0  0  0  0  0  0  0  0
  -23.9569  -19.7977   16.0023 N   0  0  0  0  0  0  0  0  0  0  0  0
  -29.8019  -27.1323   21.7043 N   0  3  1  0  0  0  0  0  0  0  0  0
  -22.6848  -23.1688   16.2945 N   0  3  0  0  0  0  0  0  0  0  0  0
  -21.6890  -24.3960   23.2448 O   0  0  0  0  0  0  0  0  0  0  0  0
  -26.8964  -16.6645   19.7295 O   0  0  0  0  0  0  0  0  0  0  0  0
  -23.4832  -17.4146   17.5207 O   0  0  0  0  0  0  0  0  0  0  0  0
  -25.1080  -21.7517   16.4861 O   0  0  0  0  0  0  0  0  0  0  0  0
  -27.8921  -31.3642   22.4449 O   0  0  0  0  0  0  0  0  0  0  0  0
  -15.6281  -29.2168   24.0270 O   0  0  0  0  0  0  0  0  0  0  0  0
  -29.0841  -21.9348   22.0167 O   0  0  0  0  0  0  0  0  0  1  0  0
  -13.8228  -27.4181   28.9167 F   0  0  0  0  0  0  0  0  0  0  0  0
  -14.7870  -30.9946   25.9698 F   0  0  0  0  0  0  0  0  0  0  0  0
  1  2  1  0  0  0  0
  1  5  2  0  0  0  0
  2  6  2  0  0  0  0
  3  8  2  0  0  0  0
  3 15  1  0  0  0  0
  4  9  1  0  0  0  0
  4 15  2  0  0  0  0
  5 17  1  0  0  0  0
  6 19  1  0  0  0  0
  7 10  2  0  0  0  0
  7 18  1  0  0  0  0
  8 21  1  0  0  0  0
  9 21  2  0  0  0  0
 10 22  1  0  0  0  0
 11 12  2  0  0  0  0
 11 23  1  0  0  0  0
 12 24  1  0  0  0  0
 13 20  1  0  0  0  0
 13 22  2  0  0  0  0
 14 24  2  0  0  0  0
 14 25  1  0  0  0  0
 15 26  1  0  0  0  0
 16 26  1  0  0  0  0
 16 27  2  0  0  0  0
 16 28  1  0  0  0  0
 17 19  2  0  0  0  0
 17 33  1  0  0  0  0
 18 20  2  0  0  0  0
 18 34  1  0  0  0  0
 19 45  1  0  0  0  0
 20 35  1  0  0  0  0
 21 82  1  0  0  0  0
 22 83  1  0  0  0  0
 23 25  2  0  0  0  0
 23 82  1  0  0  0  0
 24 84  1  0  0  0  0
 25 85  1  0  0  0  0
 26 66  2  0  0  0  0
 27 67  1  0  0  0  0
 27 71  1  0  0  0  0
 28 72  1  0  0  0  0
 28 77  2  0  0  0  0
 29 46  1  0  0  0  0
 29 73  1  0  0  0  0
 29 78  2  0  0  0  0
 30 61  1  0  0  0  0
 30 68  1  0  0  0  0
 30 79  2  0  0  0  0
 31 62  1  0  0  0  0
 31 74  1  0  0  0  0
 31 80  2  0  0  0  0
 32 69  1  0  0  0  0
 32 70  1  0  0  0  0
 32 81  2  0  0  0  0
 33 36  1  0  0  0  0
 34 46  1  0  0  0  0
 35 68  1  0  0  0  0
 36 38  1  0  0  0  0
 37 39  1  0  0  0  0
 37 40  1  0  0  0  0
 38 45  1  0  0  0  0
 39 47  1  0  0  0  0
 40 69  1  0  0  0  0
 41 44  1  0  0  0  0
 41 70  1  0  0  0  0
 42 47  1  0  0  0  0
 42 69  1  0  0  0  0
 43 48  1  0  0  0  0
 43 70  1  0  0  0  0
 44 75  1  0  0  0  0
 45 73  1  0  0  0  0
 46 68  1  0  0  0  0
 47 67  1  0  0  0  0
 48 49  1  0  0  0  0
 48 75  1  0  0  0  0
 50 62  1  0  0  0  0
 51 63  1  0  0  0  0
 52 63  1  0  0  0  0
 53 65  1  0  0  0  0
 54 65  1  0  0  0  0
 55 65  1  0  0  0  0
 56 76  1  0  0  0  0
 57 58  1  0  0  0  0
 57 60  1  0  0  0  0
 58 64  1  0  0  0  0
 59 63  1  0  0  0  0
 59 64  1  0  0  0  0
 60 83  1  0  0  0  0
 61 65  1  0  0  0  0
 61 74  1  0  0  0  0
 62 76  1  0  0  0  0
 64 75  1  0  0  0  0
 66 67  1  0  0  0  0
M  CHG  2  75   1  76   1
M  ISO  4  32 100  60 101  70 100  83 101
M  END
> <Batch ID>
0108

> <Smiles>
CNC(C)C(=O)NC(C(=O)N1Cc2cc([101O:1][101CH2:1]CCC(CC(C)C)N3CC[100N:0]([100C:0](=O)N4CCCC(n5nc(-c6ccc(Oc7ccc(F)cc7F)cc6)c(C(N)=O)c5N)C4)CC3C)ccc2CC1C(=O)NC1CCCc2ccccc21)C(C)(C)C

> <Shape>
0.194

> <Color>
0.065

> <Negative vol penalty>
0.000

$$$$

  -OEChem-04052319533D

 86 94  0     1  0  0  0  0  0999 V2000
  -26.1389  -11.3629   20.4279 C   0  0  0  0  0  0  0  0  0  0  0  0
  -26.6132  -12.6181   20.0605 C   0  0  0  0  0  0  0  0  0  0  0  0
  -25.3510  -28.7789   21.7397 C   0  0  0  0  0  0  0  0  0  0  0  0
  -24.3122  -26.8018   20.8183 C   0  0  0  0  0  0  0  0  0  0  0  0
  -24.8504  -11.2293   20.9435 C   0  0  0  0  0  0  0  0  0  0  0  0
  -25.7988  -13.7403   20.2076 C   0  0  0  0  0  0  0  0  0  0  0  0
  -28.2583  -17.6726   22.2405 C   0  0  0  0  0  0  0  0  0  0  0  0
  -24.1020  -29.3932   21.8298 C   0  0  0  0  0  0  0  0  0  0  0  0
  -23.0631  -27.4161   20.9084 C   0  0  0  0  0  0  0  0  0  0  0  0
  -29.0987  -18.4015   21.4000 C   0  0  0  0  0  0  0  0  0  0  0  0
  -19.5588  -28.3288   21.2317 C   0  0  0  0  0  0  0  0  0  0  0  0
  -18.5013  -27.5776   21.7446 C   0  0  0  0  0  0  0  0  0  0  0  0
  -27.3831  -20.0787   21.1492 C   0  0  0  0  0  0  0  0  0  0  0  0
  -28.3993  -19.9459   16.5739 C   0  0  0  0  0  0  0  0  0  0  0  0
  -19.7069  -27.2974   23.8195 C   0  0  0  0  0  0  0  0  0  0  0  0
  -25.4561  -27.4832   21.2339 C   0  0  0  0  0  0  0  0  0  0  0  0
  -27.3786  -26.0593   22.1194 C   0  0  0  0  0  0  0  0  0  0  0  0
  -24.0233  -12.3518   21.1060 C   0  0  0  0  0  0  0  0  0  0  0  0
  -26.9679  -18.1367   22.5334 C   0  0  0  0  0  0  0  0  0  0  0  0
  -24.4975  -13.6215   20.7246 C   0  0  0  0  0  0  0  0  0  0  0  0
  -26.5293  -19.3551   21.9957 C   0  0  0  0  0  0  0  0  0  0  0  0
  -29.2672  -21.0624   16.4902 C   0  0  0  0  0  0  0  0  0  0  0  0
  -22.9580  -28.7118   21.4142 C   0  0  0  0  0  0  0  0  0  0  0  0
  -28.6600  -19.6033   20.8519 C   0  0  0  0  0  0  0  0  0  0  0  0
  -20.6903  -28.5642   22.0126 C   0  0  0  0  0  0  0  0  0  0  0  0
  -18.5753  -27.0619   23.0385 C   0  0  0  0  0  0  0  0  0  0  0  0
  -20.7644  -28.0485   23.3065 C   0  0  0  0  0  0  0  0  0  0  0  0
  -26.7462  -26.8483   21.1400 C   0  0  0  0  0  0  0  0  0  0  0  0
  -27.4939  -20.0503   15.5410 C   0  0  0  0  0  0  0  0  0  0  0  0
  -28.8657  -21.8154   15.4089 C   0  0  0  0  0  0  0  0  0  0  0  0
  -28.5740  -25.6963   21.5486 C   0  0  0  0  0  0  0  0  0  0  0  0
  -26.9260  -25.6878   23.4282 C   0  0  0  0  0  0  0  0  0  0  0  0
  -24.0248  -17.0413   22.0414 C   0  0  0  0  0  0  0  0  0  0  0  0
  -23.1882  -19.6078   23.8402 C   0  0  0  0  0  0  0  0  0  0  0  0
  -23.9811  -22.7212   24.9915 C   0  0  0  0  0  0  0  0  0  0  0  0
  -30.3755  -25.1371   15.8659 C   0  0  0  0  0  0  0  0  0  0  0  0
  -22.6208  -12.1514   21.6234 C   0  0  0  0  0  0  0  0  0  0  0  0
  -26.0835  -17.3520   23.4632 C   0  0  0  0  0  0  0  0  0  0  0  0
  -25.1603  -19.9071   22.2952 C   0  0  0  0  0  0  0  0  0  0  0  0
  -21.9564  -13.4413   22.0975 C   0  0  0  0  0  0  0  0  0  0  0  0
  -31.8205  -27.2079   18.3760 C   0  0  0  0  0  0  0  0  0  0  0  0
  -22.1627  -14.5549   21.0757 C   0  0  0  0  0  0  0  0  0  0  0  0
  -30.7410  -27.2794   19.4574 C   0  0  0  0  0  0  0  0  0  0  0  0
  -31.2148  -27.1874   16.9743 C   0  0  0  0  0  0  0  0  0  0  0  0
  -29.1221  -26.2101   17.8342 C   0  0  0  0  0  0  0  0  0  0  0  0
  -23.6531  -14.8660   20.8922 C   0  0  1  0  0  0  0  0  0  0  0  0
  -24.6009  -17.6630   23.2821 C   0  0  1  0  0  0  0  0  0  0  0  0
  -29.6822  -26.1767   19.2665 C   0  0  2  0  0  0  0  0  0  0  0  0
  -26.1288  -22.8110   14.0063 C   0  0  0  0  0  0  0  0  0  0  0  0
  -23.0826  -24.5835   26.4133 C   0  0  0  0  0  0  0  0  0  0  0  0
  -31.2824  -22.5333   19.4676 C   0  0  0  0  0  0  0  0  0  0  0  0
  -21.2995  -20.4158   21.5842 C   0  0  0  0  0  0  0  0  0  0  0  0
  -21.1653  -22.6969   22.6072 C   0  0  0  0  0  0  0  0  0  0  0  0
  -20.3631  -20.7100   23.8844 C   0  0  0  0  0  0  0  0  0  0  0  0
  -26.2425  -22.5185   26.8899 C   0  0  0  0  0  0  0  0  0  0  0  0
  -24.0403  -18.9140   15.2015 C   0  0  0  0  0  0  0  0  0  0  0  0
  -30.4184  -21.3638   17.4189 C   0  0  0  0  0  0  0  0  0  0  0  0
  -29.4171  -23.0765   14.8688 C   0  0  0  0  0  0  0  0  0  0  0  0
  -26.3774  -19.1580   15.1673 C   0  0  0  0  0  0  0  0  0  0  0  0
  -27.0664  -21.6625   13.6757 C   0  0  0  0  0  0  0  0  0  0  0  0
  -28.9640  -21.5391   19.5043 C   0  0  0  0  0  0  0  0  0  1  0  0
  -22.8462  -21.0497   23.5518 C   0  0  1  0  0  0  0  0  0  0  0  0
  -23.9324  -23.3226   26.3844 C   0  0  2  0  0  0  0  0  0  0  0  0
  -30.0298  -22.2247   18.6375 C   0  0  1  0  0  0  0  0  0  0  0  0
  -21.4437  -21.2070   22.8995 C   0  0  0  0  0  0  0  0  0  0  0  0
  -27.4791  -26.9793   20.0311 N   0  0  0  0  0  0  0  0  0  0  0  0
  -27.7868  -21.1907   14.8397 N   0  0  0  0  0  0  0  0  0  0  0  0
  -28.5846  -26.2679   20.3103 N   0  0  0  0  0  0  0  0  0  0  0  0
  -24.3303  -19.1000   23.2048 N   0  0  0  0  0  0  0  0  0  0  0  0
  -30.2200  -26.1182   16.8590 N   0  0  0  0  0  0  0  0  0  0  0  0
  -29.6065  -24.9471   21.9902 N   0  0  0  0  0  0  0  0  0  0  0  0
  -25.6733  -26.1469   23.8573 N   0  0  0  0  0  0  0  0  0  0  0  0
  -24.1421  -15.6653   21.9952 N   0  0  0  0  0  0  0  0  0  0  0  0
  -23.0025  -21.7663   24.8129 N   0  0  0  0  0  0  0  0  0  0  0  0
  -29.3917  -24.1566   15.8298 N   0  0  0  0  0  0  0  0  0  0  0  0
  -25.3057  -23.6707   26.8467 N   0  3  0  0  0  0  0  0  0  0  0  0
  -27.6193  -24.9834   24.2007 O   0  0  0  0  0  0  0  0  0  0  0  0
  -23.5105  -17.7569   21.1899 O   0  0  0  0  0  0  0  0  0  0  0  0
  -22.4727  -18.9582   24.6067 O   0  0  0  0  0  0  0  0  0  0  0  0
  -24.8026  -23.0666   24.1451 O   0  0  0  0  0  0  0  0  0  0  0  0
  -31.3240  -25.1321   15.0739 O   0  0  0  0  0  0  0  0  0  0  0  0
  -21.7390  -29.3108   21.5022 O   0  0  0  0  0  0  0  0  0  0  0  0
  -29.4780  -20.3164   20.0308 O   0  0  0  0  0  0  0  0  0  1  0  0
  -25.1349  -19.7481   15.5475 O   0  0  0  0  0  0  0  0  0  0  0  0
  -17.5591  -26.3419   23.5315 F   0  0  0  0  0  0  0  0  0  0  0  0
  -21.8484  -28.2723   24.0619 F   0  0  0  0  0  0  0  0  0  0  0  0
  1  2  1  0  0  0  0
  1  5  2  0  0  0  0
  2  6  2  0  0  0  0
  3  8  2  0  0  0  0
  3 16  1  0  0  0  0
  4  9  1  0  0  0  0
  4 16  2  0  0  0  0
  5 18  1  0  0  0  0
  6 20  1  0  0  0  0
  7 10  2  0  0  0  0
  7 19  1  0  0  0  0
  8 23  1  0  0  0  0
  9 23  2  0  0  0  0
 10 24  1  0  0  0  0
 11 12  2  0  0  0  0
 11 25  1  0  0  0  0
 12 26  1  0  0  0  0
 13 21  1  0  0  0  0
 13 24  2  0  0  0  0
 14 22  1  0  0  0  0
 14 29  2  0  0  0  0
 15 26  2  0  0  0  0
 15 27  1  0  0  0  0
 16 28  1  0  0  0  0
 17 28  1  0  0  0  0
 17 31  2  0  0  0  0
 17 32  1  0  0  0  0
 18 20  2  0  0  0  0
 18 37  1  0  0  0  0
 19 21  2  0  0  0  0
 19 38  1  0  0  0  0
 20 46  1  0  0  0  0
 21 39  1  0  0  0  0
 22 30  2  0  0  0  0
 22 57  1  0  0  0  0
 23 82  1  0  0  0  0
 24 83  1  0  0  0  0
 25 27  2  0  0  0  0
 25 82  1  0  0  0  0
 26 85  1  0  0  0  0
 27 86  1  0  0  0  0
 28 66  2  0  0  0  0
 29 59  1  0  0  0  0
 29 67  1  0  0  0  0
 30 58  1  0  0  0  0
 30 67  1  0  0  0  0
 31 68  1  0  0  0  0
 31 71  1  0  0  0  0
 32 72  1  0  0  0  0
 32 77  2  0  0  0  0
 33 47  1  0  0  0  0
 33 73  1  0  0  0  0
 33 78  2  0  0  0  0
 34 62  1  0  0  0  0
 34 69  1  0  0  0  0
 34 79  2  0  0  0  0
 35 63  1  0  0  0  0
 35 74  1  0  0  0  0
 35 80  2  0  0  0  0
 36 70  1  0  0  0  0
 36 75  1  0  0  0  0
 36 81  2  0  0  0  0
 37 40  1  0  0  0  0
 38 47  1  0  0  0  0
 39 69  1  0  0  0  0
 40 42  1  0  0  0  0
 41 43  1  0  0  0  0
 41 44  1  0  0  0  0
 42 46  1  0  0  0  0
 43 48  1  0  0  0  0
 44 70  1  0  0  0  0
 45 48  1  0  0  0  0
 45 70  1  0  0  0  0
 46 73  1  0  0  0  0
 47 69  1  0  0  0  0
 48 68  1  0  0  0  0
 49 60  1  0  0  0  0
 50 63  1  0  0  0  0
 51 64  1  0  0  0  0
 52 65  1  0  0  0  0
 53 65  1  0  0  0  0
 54 65  1  0  0  0  0
 55 76  1  0  0  0  0
 56 84  1  0  0  0  0
 57 64  1  0  0  0  0
 58 75  1  0  0  0  0
 59 84  1  0  0  0  0
 60 67  1  0  0  0  0
 61 64  1  0  0  0  0
 61 83  1  0  0  0  0
 62 65  1  0  0  0  0
 62 74  1  0  0  0  0
 63 76  1  0  0  0  0
 66 68  1  0  0  0  0
M  CHG  1  76   1
M  ISO  4  36 100  61 101  75 100  83 101
M  END
> <Batch ID>
0108

> <Smiles>
CCn1c(COC)cc(CC(C)[101CH2:1][101O:1]c2ccc3c(c2)CN(C(=O)C(NC(=O)C(C)NC)C(C)(C)C)C(C(=O)NC2CCCc4ccccc42)C3)c1C[100NH:0][100C:0](=O)N1CCCC(n2nc(-c3ccc(Oc4ccc(F)cc4F)cc3)c(C(N)=O)c2N)C1

> <Shape>
0.189

> <Color>
0.062

> <Negative vol penalty>
0.000

$$$$

  -OEChem-04052319533D

 80 87  0     1  0  0  0  0  0999 V2000
  -25.5733  -29.2287   20.7413 C   0  0  0  0  0  0  0  0  0  0  0  0
  -25.1634  -28.0313   20.1638 C   0  0  0  0  0  0  0  0  0  0  0  0
  -21.4389  -23.0015   23.0405 C   0  0  0  0  0  0  0  0  0  0  0  0
  -19.9804  -21.8018   21.5337 C   0  0  0  0  0  0  0  0  0  0  0  0
  -26.9320  -29.5270   20.8350 C   0  0  0  0  0  0  0  0  0  0  0  0
  -26.1121  -27.1318   19.6785 C   0  0  0  0  0  0  0  0  0  0  0  0
  -25.1217  -22.3506   21.0216 C   0  0  0  0  0  0  0  0  0  0  0  0
  -21.0534  -24.2069   22.4540 C   0  0  0  0  0  0  0  0  0  0  0  0
  -19.5949  -23.0072   20.9472 C   0  0  0  0  0  0  0  0  0  0  0  0
  -24.1307  -21.6804   20.3056 C   0  0  0  0  0  0  0  0  0  0  0  0
  -20.1807  -27.6294   21.5939 C   0  0  0  0  0  0  0  0  0  0  0  0
  -19.8771  -28.6950   22.4412 C   0  0  0  0  0  0  0  0  0  0  0  0
  -25.8308  -20.5718   19.0019 C   0  0  0  0  0  0  0  0  0  0  0  0
  -18.1153  -27.3880   23.4536 C   0  0  0  0  0  0  0  0  0  0  0  0
  -20.9025  -21.7989   22.5803 C   0  0  0  0  0  0  0  0  0  0  0  0
  -20.6969  -19.9096   24.2821 C   0  0  0  0  0  0  0  0  0  0  0  0
  -27.8982  -28.6265   20.3594 C   0  0  0  0  0  0  0  0  0  0  0  0
  -26.4767  -22.1443   20.7252 C   0  0  0  0  0  0  0  0  0  0  0  0
  -27.4850  -27.4190   19.7647 C   0  0  0  0  0  0  0  0  0  0  0  0
  -26.8371  -21.2386   19.7172 C   0  0  0  0  0  0  0  0  0  0  0  0
  -20.1313  -24.2097   21.4074 C   0  0  0  0  0  0  0  0  0  0  0  0
  -24.4851  -20.7930   19.2937 C   0  0  0  0  0  0  0  0  0  0  0  0
  -19.4516  -26.4431   21.6764 C   0  0  0  0  0  0  0  0  0  0  0  0
  -18.8444  -28.5743   23.3710 C   0  0  0  0  0  0  0  0  0  0  0  0
  -18.4189  -26.3224   22.6062 C   0  0  0  0  0  0  0  0  0  0  0  0
  -21.3008  -20.5534   23.1854 C   0  0  0  0  0  0  0  0  0  0  0  0
  -21.4429  -18.7710   24.4652 C   0  0  0  0  0  0  0  0  0  0  0  0
  -19.5630  -20.3054   25.0651 C   0  0  0  0  0  0  0  0  0  0  0  0
  -28.8546  -23.9878   19.7001 C   0  0  0  0  0  0  0  0  0  0  0  0
  -30.6274  -21.3220   20.2223 C   0  0  0  0  0  0  0  0  0  0  0  0
  -30.7328  -17.9230   20.5096 C   0  0  0  0  0  0  0  0  0  0  0  0
  -24.8608  -15.5013   20.7940 C   0  0  0  0  0  0  0  0  0  0  0  0
  -29.3536  -29.0139   20.4398 C   0  0  0  0  0  0  0  0  0  0  0  0
  -27.5343  -22.8548   21.5246 C   0  0  0  0  0  0  0  0  0  0  0  0
  -28.2781  -20.9666   19.3738 C   0  0  0  0  0  0  0  0  0  0  0  0
  -30.3084  -27.8395   20.2408 C   0  0  0  0  0  0  0  0  0  0  0  0
  -25.8628  -17.0493   23.8397 C   0  0  0  0  0  0  0  0  0  0  0  0
  -29.8820  -27.0026   19.0389 C   0  0  0  0  0  0  0  0  0  0  0  0
  -24.7527  -18.0648   24.1163 C   0  0  0  0  0  0  0  0  0  0  0  0
  -26.1591  -16.9299   22.3464 C   0  0  0  0  0  0  0  0  0  0  0  0
  -23.8738  -17.6579   21.7795 C   0  0  0  0  0  0  0  0  0  0  0  0
  -28.4849  -26.4067   19.2493 C   0  0  1  0  0  0  0  0  0  0  0  0
  -28.8690  -22.9565   20.7928 C   0  0  1  0  0  0  0  0  0  0  0  0
  -23.5009  -17.7723   23.2675 C   0  0  2  0  0  0  0  0  0  0  0  0
  -31.7030  -15.6535   20.9629 C   0  0  0  0  0  0  0  0  0  0  0  0
  -23.8373  -18.3659   14.6898 C   0  0  0  0  0  0  0  0  0  0  0  0
  -31.6255  -21.5748   17.3500 C   0  0  0  0  0  0  0  0  0  0  0  0
  -32.4266  -19.2071   17.4937 C   0  0  0  0  0  0  0  0  0  0  0  0
  -33.3823  -20.9396   19.0128 C   0  0  0  0  0  0  0  0  0  0  0  0
  -30.0729  -18.0882   23.3899 C   0  0  0  0  0  0  0  0  0  0  0  0
  -21.6673  -15.2468   16.9006 C   0  0  0  0  0  0  0  0  0  0  0  0
  -22.7294  -18.5993   16.9316 C   0  0  0  0  0  0  0  0  0  0  0  0
  -23.4320  -14.1684   19.2639 C   0  0  0  0  0  0  0  0  0  0  0  0
  -23.8347  -14.4438   17.8272 C   0  0  0  0  0  0  0  0  0  0  0  0
  -23.7955  -16.3498   16.2252 C   0  0  0  0  0  0  0  0  0  0  0  0
  -23.9542  -19.2433   17.5696 C   0  0  0  0  0  0  0  0  0  1  0  0
  -31.0212  -20.1212   19.3964 C   0  0  1  0  0  0  0  0  0  0  0  0
  -31.3754  -17.0192   21.5463 C   0  0  2  0  0  0  0  0  0  0  0  0
  -23.0631  -17.6253   15.7864 C   0  0  2  0  0  0  0  0  0  0  0  0
  -32.0866  -20.4670   18.3181 C   0  0  0  0  0  0  0  0  0  0  0  0
  -22.3497  -19.8798   22.7057 N   0  0  0  0  0  0  0  0  0  0  0  0
  -22.4107  -18.8010   23.5047 N   0  0  0  0  0  0  0  0  0  0  0  0
  -29.2753  -21.6904   20.1796 N   0  0  0  0  0  0  0  0  0  0  0  0
  -24.9308  -16.6506   21.5985 N   0  0  0  0  0  0  0  0  0  0  0  0
  -21.3589  -17.7571   25.3526 N   0  0  0  0  0  0  0  0  0  0  0  0
  -18.9129  -21.5041   24.7412 N   0  0  0  0  0  0  0  0  0  0  0  0
  -28.5510  -25.2639   20.1348 N   0  0  0  0  0  0  0  0  0  0  0  0
  -31.4412  -19.0942   20.3437 N   0  0  0  0  0  0  0  0  0  0  0  0
  -23.6587  -15.3081   20.1244 N   0  0  0  0  0  0  0  0  0  0  0  0
  -30.4590  -16.8274   22.7057 N   0  3  0  0  0  0  0  0  0  0  0  0
  -23.0701  -15.6349   17.3018 N   0  3  1  0  0  0  0  0  0  0  0  0
  -19.1488  -19.6248   26.0340 O   0  0  0  0  0  0  0  0  0  0  0  0
  -29.1021  -23.6510   18.5481 O   0  0  0  0  0  0  0  0  0  0  0  0
  -31.4865  -21.9070   20.8866 O   0  0  0  0  0  0  0  0  0  0  0  0
  -29.7071  -17.6186   19.9047 O   0  0  0  0  0  0  0  0  0  0  0  0
  -25.7981  -14.7035   20.6850 O   0  0  0  0  0  0  0  0  0  0  0  0
  -19.7547  -25.3858   20.8350 O   0  0  0  0  0  0  0  0  0  0  0  0
  -23.5198  -20.1380   18.5929 O   0  0  0  0  0  0  0  0  0  1  0  0
  -18.5540  -29.5971   24.1857 F   0  0  0  0  0  0  0  0  0  0  0  0
  -17.7157  -25.1848   22.6910 F   0  0  0  0  0  0  0  0  0  0  0  0
  1  2  1  0  0  0  0
  1  5  2  0  0  0  0
  2  6  2  0  0  0  0
  3  8  2  0  0  0  0
  3 15  1  0  0  0  0
  4  9  1  0  0  0  0
  4 15  2  0  0  0  0
  5 17  1  0  0  0  0
  6 19  1  0  0  0  0
  7 10  2  0  0  0  0
  7 18  1  0  0  0  0
  8 21  1  0  0  0  0
  9 21  2  0  0  0  0
 10 22  1  0  0  0  0
 11 12  2  0  0  0  0
 11 23  1  0  0  0  0
 12 24  1  0  0  0  0
 13 20  1  0  0  0  0
 13 22  2  0  0  0  0
 14 24  2  0  0  0  0
 14 25  1  0  0  0  0
 15 26  1  0  0  0  0
 16 26  1  0  0  0  0
 16 27  2  0  0  0  0
 16 28  1  0  0  0  0
 17 19  2  0  0  0  0
 17 33  1  0  0  0  0
 18 20  2  0  0  0  0
 18 34  1  0  0  0  0
 19 42  1  0  0  0  0
 20 35  1  0  0  0  0
 21 77  1  0  0  0  0
 22 78  1  0  0  0  0
 23 25  2  0  0  0  0
 23 77  1  0  0  0  0
 24 79  1  0  0  0  0
 25 80  1  0  0  0  0
 26 61  2  0  0  0  0
 27 62  1  0  0  0  0
 27 65  1  0  0  0  0
 28 66  1  0  0  0  0
 28 72  2  0  0  0  0
 29 43  1  0  0  0  0
 29 67  1  0  0  0  0
 29 73  2  0  0  0  0
 30 57  1  0  0  0  0
 30 63  1  0  0  0  0
 30 74  2  0  0  0  0
 31 58  1  0  0  0  0
 31 68  1  0  0  0  0
 31 75  2  0  0  0  0
 32 64  1  0  0  0  0
 32 69  1  0  0  0  0
 32 76  2  0  0  0  0
 33 36  1  0  0  0  0
 34 43  1  0  0  0  0
 35 63  1  0  0  0  0
 36 38  1  0  0  0  0
 37 39  1  0  0  0  0
 37 40  1  0  0  0  0
 38 42  1  0  0  0  0
 39 44  1  0  0  0  0
 40 64  1  0  0  0  0
 41 44  1  0  0  0  0
 41 64  1  0  0  0  0
 42 67  1  0  0  0  0
 43 63  1  0  0  0  0
 44 62  1  0  0  0  0
 45 58  1  0  0  0  0
 46 59  1  0  0  0  0
 47 60  1  0  0  0  0
 48 60  1  0  0  0  0
 49 60  1  0  0  0  0
 50 70  1  0  0  0  0
 51 71  1  0  0  0  0
 52 56  1  0  0  0  0
 52 59  1  0  0  0  0
 53 54  1  0  0  0  0
 53 69  1  0  0  0  0
 54 71  1  0  0  0  0
 55 59  1  0  0  0  0
 55 71  1  0  0  0  0
 56 78  1  0  0  0  0
 57 60  1  0  0  0  0
 57 68  1  0  0  0  0
 58 70  1  0  0  0  0
 61 62  1  0  0  0  0
M  CHG  2  70   1  71   1
M  ISO  4  32 100  56 101  69 100  78 101
M  END
> <Batch ID>
0108

> <Smiles>
CNC(C)C(=O)NC(C(=O)N1Cc2cc([101O:1][101CH2:1]CC(C)CN(C)CC[100NH:0][100C:0](=O)N3CCCC(n4nc(-c5ccc(Oc6ccc(F)cc6F)cc5)c(C(N)=O)c4N)C3)ccc2CC1C(=O)NC1CCCc2ccccc21)C(C)(C)C

> <Shape>
0.188

> <Color>
0.069

> <Negative vol penalty>
0.000

$$$$

  -OEChem-04052319533D

 84 92  0     1  0  0  0  0  0999 V2000
  -24.9930  -37.7864   20.2269 C   0  0  0  0  0  0  0  0  0  0  0  0
  -25.7764  -36.6861   19.8937 C   0  0  0  0  0  0  0  0  0  0  0  0
  -26.2730  -12.3353   20.7498 C   0  0  0  0  0  0  0  0  0  0  0  0
  -24.5100  -13.9546   20.4232 C   0  0  0  0  0  0  0  0  0  0  0  0
  -24.1971  -37.7532   21.3711 C   0  0  0  0  0  0  0  0  0  0  0  0
  -25.7652  -35.5522   20.7054 C   0  0  0  0  0  0  0  0  0  0  0  0
  -26.2796  -29.7241   18.8959 C   0  0  0  0  0  0  0  0  0  0  0  0
  -25.3489  -11.4365   21.2825 C   0  0  0  0  0  0  0  0  0  0  0  0
  -23.5858  -13.0558   20.9559 C   0  0  0  0  0  0  0  0  0  0  0  0
  -27.3606  -28.8444   18.8622 C   0  0  0  0  0  0  0  0  0  0  0  0
  -22.9929   -9.3061   20.1232 C   0  0  0  0  0  0  0  0  0  0  0  0
  -23.0519   -7.9820   19.6888 C   0  0  0  0  0  0  0  0  0  0  0  0
  -26.6780  -27.9335   20.9890 C   0  0  0  0  0  0  0  0  0  0  0  0
  -23.4504   -7.2552   21.9581 C   0  0  0  0  0  0  0  0  0  0  0  0
  -28.7603  -23.7447   20.4929 C   0  0  0  0  0  0  0  0  0  0  0  0
  -25.8536  -13.5944   20.3202 C   0  0  0  0  0  0  0  0  0  0  0  0
  -27.1818  -14.6586   18.4200 C   0  0  0  0  0  0  0  0  0  0  0  0
  -24.1688  -36.6148   22.1920 C   0  0  0  0  0  0  0  0  0  0  0  0
  -25.3944  -29.7226   19.9835 C   0  0  0  0  0  0  0  0  0  0  0  0
  -24.9692  -35.5043   21.8625 C   0  0  0  0  0  0  0  0  0  0  0  0
  -25.5850  -28.8124   21.0329 C   0  0  0  0  0  0  0  0  0  0  0  0
  -27.7532  -22.8088   20.5769 C   0  0  0  0  0  0  0  0  0  0  0  0
  -27.1329  -22.7394   19.3051 C   0  0  0  0  0  0  0  0  0  0  0  0
  -24.0053  -11.7967   21.3855 C   0  0  0  0  0  0  0  0  0  0  0  0
  -27.5616  -27.9508   19.9102 C   0  0  0  0  0  0  0  0  0  0  0  0
  -23.1628   -9.6048   21.4751 C   0  0  0  0  0  0  0  0  0  0  0  0
  -23.2806   -6.9565   20.6062 C   0  0  0  0  0  0  0  0  0  0  0  0
  -23.3915   -8.5793   22.3926 C   0  0  0  0  0  0  0  0  0  0  0  0
  -26.8078  -14.5235   19.7704 C   0  0  0  0  0  0  0  0  0  0  0  0
  -27.7799  -23.6351   18.4825 C   0  0  0  0  0  0  0  0  0  0  0  0
  -28.1102  -15.6708   18.4204 C   0  0  0  0  0  0  0  0  0  0  0  0
  -26.7302  -13.9340   17.2681 C   0  0  0  0  0  0  0  0  0  0  0  0
  -24.5491  -31.8480   22.1907 C   0  0  0  0  0  0  0  0  0  0  0  0
  -22.3967  -29.5629   23.0078 C   0  0  0  0  0  0  0  0  0  0  0  0
  -21.5304  -26.2619   22.9958 C   0  0  0  0  0  0  0  0  0  0  0  0
  -29.1204  -20.2755   22.1119 C   0  0  0  0  0  0  0  0  0  0  0  0
  -23.3289  -36.6435   23.4443 C   0  0  0  0  0  0  0  0  0  0  0  0
  -24.2178  -30.6596   19.9921 C   0  0  0  0  0  0  0  0  0  0  0  0
  -24.6518  -28.7568   22.2138 C   0  0  0  0  0  0  0  0  0  0  0  0
  -23.0876  -35.2622   24.0478 C   0  0  0  0  0  0  0  0  0  0  0  0
  -31.4210  -17.7138   21.2053 C   0  0  0  0  0  0  0  0  0  0  0  0
  -24.3904  -34.4711   24.1081 C   0  0  0  0  0  0  0  0  0  0  0  0
  -30.5333  -16.6179   20.6129 C   0  0  0  0  0  0  0  0  0  0  0  0
  -30.7404  -18.4201   22.3758 C   0  0  0  0  0  0  0  0  0  0  0  0
  -28.5107  -17.8598   21.4878 C   0  0  0  0  0  0  0  0  0  0  0  0
  -24.9651  -34.2468   22.7043 C   0  0  1  0  0  0  0  0  0  0  0  0
  -23.6741  -30.9231   21.3930 C   0  0  1  0  0  0  0  0  0  0  0  0
  -29.1316  -17.1566   20.2687 C   0  0  2  0  0  0  0  0  0  0  0  0
  -27.5441  -23.9674   17.0615 C   0  0  0  0  0  0  0  0  0  0  0  0
  -24.7654  -22.6370   18.4235 C   0  0  0  0  0  0  0  0  0  0  0  0
  -19.7311  -24.6947   23.7727 C   0  0  0  0  0  0  0  0  0  0  0  0
  -23.4683  -29.7498   25.8585 C   0  0  0  0  0  0  0  0  0  0  0  0
  -22.3453  -27.5666   26.3495 C   0  0  0  0  0  0  0  0  0  0  0  0
  -20.9812  -29.5483   25.6900 C   0  0  0  0  0  0  0  0  0  0  0  0
  -27.4042  -19.9074   18.2765 C   0  0  0  0  0  0  0  0  0  0  0  0
  -20.9055  -25.4219   20.2276 C   0  0  0  0  0  0  0  0  0  0  0  0
  -27.3950  -22.0278   21.7777 C   0  0  0  0  0  0  0  0  0  0  0  0
  -29.7248  -25.2926   18.7109 C   0  0  0  0  0  0  0  0  0  0  0  0
  -29.0701  -26.6649   18.5961 C   0  0  0  0  0  0  0  0  0  1  0  0
  -26.0007  -21.8682   18.9279 C   0  0  1  0  0  0  0  0  0  0  0  0
  -22.3960  -28.3825   23.9489 C   0  0  1  0  0  0  0  0  0  0  0  0
  -20.2341  -25.5621   22.6293 C   0  0  2  0  0  0  0  0  0  0  0  0
  -22.3166  -28.8139   25.4405 C   0  0  0  0  0  0  0  0  0  0  0  0
  -27.4466  -15.3811   20.5706 N   0  0  0  0  0  0  0  0  0  0  0  0
  -28.7675  -24.2402   19.2151 N   0  0  0  0  0  0  0  0  0  0  0  0
  -28.2314  -16.0648   19.7205 N   0  0  0  0  0  0  0  0  0  0  0  0
  -23.5197  -29.6974   22.1791 N   0  0  0  0  0  0  0  0  0  0  0  0
  -29.4163  -18.9084   21.9829 N   0  0  0  0  0  0  0  0  0  0  0  0
  -28.8266  -16.2532   17.4355 N   0  0  0  0  0  0  0  0  0  0  0  0
  -25.7726  -12.9261   17.4459 N   0  0  0  0  0  0  0  0  0  0  0  0
  -24.2483  -33.1869   22.0281 N   0  0  0  0  0  0  0  0  0  0  0  0
  -21.3029  -27.5176   23.5180 N   0  0  0  0  0  0  0  0  0  0  0  0
  -27.8454  -20.6553   21.7110 N   0  0  0  0  0  0  0  0  0  0  0  0
  -26.3406  -20.8493   17.8683 N   0  3  0  0  0  0  0  0  0  0  0  0
  -20.4337  -24.6946   21.4341 N   0  3  0  0  0  0  0  0  0  0  0  0
  -27.1752  -14.1621   16.1177 O   0  0  0  0  0  0  0  0  0  0  0  0
  -25.4309  -31.3814   22.9024 O   0  0  0  0  0  0  0  0  0  0  0  0
  -21.4331  -30.3330   23.0029 O   0  0  0  0  0  0  0  0  0  0  0  0
  -22.6342  -25.7449   22.8382 O   0  0  0  0  0  0  0  0  0  0  0  0
  -29.9341  -21.0975   22.5468 O   0  0  0  0  0  0  0  0  0  0  0  0
  -23.1032  -10.9199   21.9050 O   0  0  0  0  0  0  0  0  0  0  0  0
  -28.6164  -27.0915   19.8801 O   0  0  0  0  0  0  0  0  0  1  0  0
  -23.3357   -5.6848   20.1891 F   0  0  0  0  0  0  0  0  0  0  0  0
  -23.5543   -8.8600   23.6928 F   0  0  0  0  0  0  0  0  0  0  0  0
  1  2  1  0  0  0  0
  1  5  2  0  0  0  0
  2  6  2  0  0  0  0
  3  8  2  0  0  0  0
  3 16  1  0  0  0  0
  4  9  1  0  0  0  0
  4 16  2  0  0  0  0
  5 18  1  0  0  0  0
  6 20  1  0  0  0  0
  7 10  2  0  0  0  0
  7 19  1  0  0  0  0
  8 24  1  0  0  0  0
  9 24  2  0  0  0  0
 10 25  1  0  0  0  0
 11 12  2  0  0  0  0
 11 26  1  0  0  0  0
 12 27  1  0  0  0  0
 13 21  1  0  0  0  0
 13 25  2  0  0  0  0
 14 27  2  0  0  0  0
 14 28  1  0  0  0  0
 15 22  2  0  0  0  0
 15 65  1  0  0  0  0
 16 29  1  0  0  0  0
 17 29  1  0  0  0  0
 17 31  2  0  0  0  0
 17 32  1  0  0  0  0
 18 20  2  0  0  0  0
 18 37  1  0  0  0  0
 19 21  2  0  0  0  0
 19 38  1  0  0  0  0
 20 46  1  0  0  0  0
 21 39  1  0  0  0  0
 22 23  1  0  0  0  0
 22 57  1  0  0  0  0
 23 30  2  0  0  0  0
 23 60  1  0  0  0  0
 24 81  1  0  0  0  0
 25 82  1  0  0  0  0
 26 28  2  0  0  0  0
 26 81  1  0  0  0  0
 27 83  1  0  0  0  0
 28 84  1  0  0  0  0
 29 64  2  0  0  0  0
 30 49  1  0  0  0  0
 30 65  1  0  0  0  0
 31 66  1  0  0  0  0
 31 69  1  0  0  0  0
 32 70  1  0  0  0  0
 32 76  2  0  0  0  0
 33 47  1  0  0  0  0
 33 71  1  0  0  0  0
 33 77  2  0  0  0  0
 34 61  1  0  0  0  0
 34 67  1  0  0  0  0
 34 78  2  0  0  0  0
 35 62  1  0  0  0  0
 35 72  1  0  0  0  0
 35 79  2  0  0  0  0
 36 68  1  0  0  0  0
 36 73  1  0  0  0  0
 36 80  2  0  0  0  0
 37 40  1  0  0  0  0
 38 47  1  0  0  0  0
 39 67  1  0  0  0  0
 40 42  1  0  0  0  0
 41 43  1  0  0  0  0
 41 44  1  0  0  0  0
 42 46  1  0  0  0  0
 43 48  1  0  0  0  0
 44 68  1  0  0  0  0
 45 48  1  0  0  0  0
 45 68  1  0  0  0  0
 46 71  1  0  0  0  0
 47 67  1  0  0  0  0
 48 66  1  0  0  0  0
 50 60  1  0  0  0  0
 51 62  1  0  0  0  0
 52 63  1  0  0  0  0
 53 63  1  0  0  0  0
 54 63  1  0  0  0  0
 55 74  1  0  0  0  0
 56 75  1  0  0  0  0
 57 73  1  0  0  0  0
 58 59  1  0  0  0  0
 58 65  1  0  0  0  0
 59 82  1  0  0  0  0
 60 74  1  0  0  0  0
 61 63  1  0  0  0  0
 61 72  1  0  0  0  0
 62 75  1  0  0  0  0
 64 66  1  0  0  0  0
M  CHG  2  74   1  75   1
M  ISO  4  36 100  59 101  73 100  82 101
M  END
> <Batch ID>
0108

> <Smiles>
CNC(C)C(=O)NC(C(=O)N1Cc2cc([101O:1][101CH2:1]Cn3cc(C[100NH:0][100C:0](=O)N4CCCC(n5nc(-c6ccc(Oc7ccc(F)cc7F)cc6)c(C(N)=O)c5N)C4)c(C(C)NC)c3C)ccc2CC1C(=O)NC1CCCc2ccccc21)C(C)(C)C

> <Shape>
0.282

> <Color>
0.067

> <Negative vol penalty>
0.000

$$$$

  -OEChem-04052319533D

 84 92  0     1  0  0  0  0  0999 V2000
  -28.7064  -11.2515   19.9058 C   0  0  0  0  0  0  0  0  0  0  0  0
  -28.7802  -12.4548   19.2116 C   0  0  0  0  0  0  0  0  0  0  0  0
  -23.9104  -29.5376   20.9605 C   0  0  0  0  0  0  0  0  0  0  0  0
  -26.0177  -30.6669   21.3084 C   0  0  0  0  0  0  0  0  0  0  0  0
  -27.5288  -10.8985   20.5635 C   0  0  0  0  0  0  0  0  0  0  0  0
  -27.6759  -13.3054   19.1737 C   0  0  0  0  0  0  0  0  0  0  0  0
  -28.9237  -18.1462   19.9825 C   0  0  0  0  0  0  0  0  0  0  0  0
  -23.3274  -30.3181   21.9588 C   0  0  0  0  0  0  0  0  0  0  0  0
  -25.4347  -31.4474   22.3066 C   0  0  0  0  0  0  0  0  0  0  0  0
  -29.4892  -18.8446   18.9165 C   0  0  0  0  0  0  0  0  0  0  0  0
  -23.4362  -34.1663   22.4917 C   0  0  0  0  0  0  0  0  0  0  0  0
  -23.7055  -35.5348   22.4824 C   0  0  0  0  0  0  0  0  0  0  0  0
  -27.3498  -19.8588   18.4540 C   0  0  0  0  0  0  0  0  0  0  0  0
  -31.9059  -22.5979   14.3216 C   0  0  0  0  0  0  0  0  0  0  0  0
  -24.6790  -35.3582   24.6865 C   0  0  0  0  0  0  0  0  0  0  0  0
  -25.2556  -29.7119   20.6354 C   0  0  0  0  0  0  0  0  0  0  0  0
  -25.9295  -29.1976   18.2293 C   0  0  0  0  0  0  0  0  0  0  0  0
  -26.4127  -11.7496   20.5417 C   0  0  0  0  0  0  0  0  0  0  0  0
  -27.5623  -18.2908   20.2859 C   0  0  0  0  0  0  0  0  0  0  0  0
  -26.4818  -12.9628   19.8305 C   0  0  0  0  0  0  0  0  0  0  0  0
  -26.7701  -19.1631   19.5259 C   0  0  0  0  0  0  0  0  0  0  0  0
  -31.7900  -22.1977   15.6757 C   0  0  0  0  0  0  0  0  0  0  0  0
  -24.0895  -31.2730   22.6318 C   0  0  0  0  0  0  0  0  0  0  0  0
  -28.7016  -19.6989   18.1503 C   0  0  0  0  0  0  0  0  0  0  0  0
  -23.7882  -33.3936   23.5984 C   0  0  0  0  0  0  0  0  0  0  0  0
  -24.3270  -36.1308   23.5798 C   0  0  0  0  0  0  0  0  0  0  0  0
  -24.4096  -33.9896   24.6958 C   0  0  0  0  0  0  0  0  0  0  0  0
  -25.8586  -28.9056   19.6047 C   0  0  0  0  0  0  0  0  0  0  0  0
  -31.2434  -21.6623   13.5580 C   0  0  0  0  0  0  0  0  0  0  0  0
  -31.0605  -21.0296   15.6984 C   0  0  0  0  0  0  0  0  0  0  0  0
  -26.5944  -28.1262   17.6847 C   0  0  0  0  0  0  0  0  0  0  0  0
  -25.4382  -30.3354   17.5085 C   0  0  0  0  0  0  0  0  0  0  0  0
  -25.0596  -16.3324   20.3563 C   0  0  0  0  0  0  0  0  0  0  0  0
  -23.5540  -18.9307   21.5829 C   0  0  0  0  0  0  0  0  0  0  0  0
  -23.4266  -22.3268   21.8944 C   0  0  0  0  0  0  0  0  0  0  0  0
  -30.7548  -24.5720   17.7599 C   0  0  0  0  0  0  0  0  0  0  0  0
  -25.1460  -11.3034   21.2280 C   0  0  0  0  0  0  0  0  0  0  0  0
  -26.9735  -17.5508   21.4556 C   0  0  0  0  0  0  0  0  0  0  0  0
  -25.3080  -19.3689   19.8231 C   0  0  0  0  0  0  0  0  0  0  0  0
  -24.1444  -12.4334   21.4527 C   0  0  0  0  0  0  0  0  0  0  0  0
  -27.8368  -23.6525   19.6931 C   0  0  0  0  0  0  0  0  0  0  0  0
  -23.9861  -13.2664   20.1847 C   0  0  0  0  0  0  0  0  0  0  0  0
  -27.0655  -24.9732   19.7265 C   0  0  0  0  0  0  0  0  0  0  0  0
  -29.3411  -23.8883   19.7913 C   0  0  0  0  0  0  0  0  0  0  0  0
  -29.1204  -26.1274   18.7856 C   0  0  0  0  0  0  0  0  0  0  0  0
  -25.3134  -13.9236   19.7870 C   0  0  1  0  0  0  0  0  0  0  0  0
  -25.4608  -17.3809   21.3550 C   0  0  1  0  0  0  0  0  0  0  0  0
  -27.5948  -25.9581   18.6672 C   0  0  2  0  0  0  0  0  0  0  0  0
  -31.0555  -21.5966   12.0941 C   0  0  0  0  0  0  0  0  0  0  0  0
  -22.0589  -24.1604   22.9262 C   0  0  0  0  0  0  0  0  0  0  0  0
  -29.3129  -16.5594   14.1358 C   0  0  0  0  0  0  0  0  0  0  0  0
  -31.0344  -16.1837   12.3591 C   0  0  0  0  0  0  0  0  0  0  0  0
  -21.4506  -18.5869   19.3995 C   0  0  0  0  0  0  0  0  0  0  0  0
  -20.6790  -20.9213   19.8723 C   0  0  0  0  0  0  0  0  0  0  0  0
  -20.5319  -19.1770   21.6495 C   0  0  0  0  0  0  0  0  0  0  0  0
  -25.6982  -23.2455   23.5541 C   0  0  0  0  0  0  0  0  0  0  0  0
  -32.3506  -22.9082   16.8423 C   0  0  0  0  0  0  0  0  0  0  0  0
  -30.6403  -20.1746   16.8576 C   0  0  0  0  0  0  0  0  0  1  0  0
  -30.8601  -18.4548   13.4184 C   0  0  0  0  0  0  0  0  0  0  0  0
  -29.9676  -19.5548   13.9968 C   0  0  0  0  0  0  0  0  0  0  0  0
  -22.7952  -20.0996   21.0026 C   0  0  1  0  0  0  0  0  0  0  0  0
  -23.2409  -23.2208   23.1071 C   0  0  2  0  0  0  0  0  0  0  0  0
  -30.0773  -17.2046   12.9789 C   0  0  0  0  0  0  0  0  0  0  0  0
  -21.3912  -19.6911   20.4739 C   0  0  0  0  0  0  0  0  0  0  0  0
  -26.4326  -27.7401   19.9146 N   0  0  0  0  0  0  0  0  0  0  0  0
  -30.7338  -20.7134   14.4055 N   0  0  0  0  0  0  0  0  0  0  0  0
  -26.8704  -27.2901   18.7263 N   0  0  0  0  0  0  0  0  0  0  0  0
  -24.7772  -18.6182   20.9730 N   0  0  0  0  0  0  0  0  0  0  0  0
  -29.7835  -24.8198   18.7441 N   0  0  0  0  0  0  0  0  0  0  0  0
  -26.9640  -27.8272   16.4213 N   0  0  0  0  0  0  0  0  0  0  0  0
  -24.7785  -31.3449   18.2227 N   0  0  0  0  0  0  0  0  0  0  0  0
  -25.5753  -15.0778   20.6199 N   0  0  0  0  0  0  0  0  0  0  0  0
  -22.7678  -21.1244   22.0406 N   0  0  0  0  0  0  0  0  0  0  0  0
  -31.3397  -23.3121   17.7940 N   0  0  0  0  0  0  0  0  0  0  0  0
  -24.4631  -24.0420   23.3373 N   0  3  0  0  0  0  0  0  0  0  0  0
  -25.5655  -30.4458   16.2655 O   0  0  0  0  0  0  0  0  0  0  0  0
  -24.3346  -16.6386   19.4171 O   0  0  0  0  0  0  0  0  0  0  0  0
  -23.0824  -18.3219   22.5465 O   0  0  0  0  0  0  0  0  0  0  0  0
  -24.0868  -22.6631   20.9137 O   0  0  0  0  0  0  0  0  0  0  0  0
  -31.0736  -25.4101   16.9096 O   0  0  0  0  0  0  0  0  0  0  0  0
  -23.5208  -32.0349   23.6058 O   0  0  0  0  0  0  0  0  0  0  0  0
  -29.2509  -20.3813   17.1089 O   0  0  0  0  0  0  0  0  0  1  0  0
  -24.5870  -37.4447   23.5701 F   0  0  0  0  0  0  0  0  0  0  0  0
  -24.7512  -33.2523   25.7614 F   0  0  0  0  0  0  0  0  0  0  0  0
  1  2  1  0  0  0  0
  1  5  2  0  0  0  0
  2  6  2  0  0  0  0
  3  8  2  0  0  0  0
  3 16  1  0  0  0  0
  4  9  1  0  0  0  0
  4 16  2  0  0  0  0
  5 18  1  0  0  0  0
  6 20  1  0  0  0  0
  7 10  2  0  0  0  0
  7 19  1  0  0  0  0
  8 23  1  0  0  0  0
  9 23  2  0  0  0  0
 10 24  1  0  0  0  0
 11 12  2  0  0  0  0
 11 25  1  0  0  0  0
 12 26  1  0  0  0  0
 13 21  1  0  0  0  0
 13 24  2  0  0  0  0
 14 22  1  0  0  0  0
 14 29  2  0  0  0  0
 15 26  2  0  0  0  0
 15 27  1  0  0  0  0
 16 28  1  0  0  0  0
 17 28  1  0  0  0  0
 17 31  2  0  0  0  0
 17 32  1  0  0  0  0
 18 20  2  0  0  0  0
 18 37  1  0  0  0  0
 19 21  2  0  0  0  0
 19 38  1  0  0  0  0
 20 46  1  0  0  0  0
 21 39  1  0  0  0  0
 22 30  2  0  0  0  0
 22 57  1  0  0  0  0
 23 81  1  0  0  0  0
 24 82  1  0  0  0  0
 25 27  2  0  0  0  0
 25 81  1  0  0  0  0
 26 83  1  0  0  0  0
 27 84  1  0  0  0  0
 28 65  2  0  0  0  0
 29 49  1  0  0  0  0
 29 66  1  0  0  0  0
 30 58  1  0  0  0  0
 30 66  1  0  0  0  0
 31 67  1  0  0  0  0
 31 70  1  0  0  0  0
 32 71  1  0  0  0  0
 32 76  2  0  0  0  0
 33 47  1  0  0  0  0
 33 72  1  0  0  0  0
 33 77  2  0  0  0  0
 34 61  1  0  0  0  0
 34 68  1  0  0  0  0
 34 78  2  0  0  0  0
 35 62  1  0  0  0  0
 35 73  1  0  0  0  0
 35 79  2  0  0  0  0
 36 69  1  0  0  0  0
 36 74  1  0  0  0  0
 36 80  2  0  0  0  0
 37 40  1  0  0  0  0
 38 47  1  0  0  0  0
 39 68  1  0  0  0  0
 40 42  1  0  0  0  0
 41 43  1  0  0  0  0
 41 44  1  0  0  0  0
 42 46  1  0  0  0  0
 43 48  1  0  0  0  0
 44 69  1  0  0  0  0
 45 48  1  0  0  0  0
 45 69  1  0  0  0  0
 46 72  1  0  0  0  0
 47 68  1  0  0  0  0
 48 67  1  0  0  0  0
 50 62  1  0  0  0  0
 51 63  1  0  0  0  0
 52 63  1  0  0  0  0
 53 64  1  0  0  0  0
 54 64  1  0  0  0  0
 55 64  1  0  0  0  0
 56 75  1  0  0  0  0
 57 74  1  0  0  0  0
 58 82  1  0  0  0  0
 59 60  1  0  0  0  0
 59 63  1  0  0  0  0
 60 66  1  0  0  0  0
 61 64  1  0  0  0  0
 61 73  1  0  0  0  0
 62 75  1  0  0  0  0
 65 67  1  0  0  0  0
M  CHG  1  75   1
M  ISO  4  36 100  58 101  74 100  82 101
M  END
> <Batch ID>
0108

> <Smiles>
CNC(C)C(=O)NC(C(=O)N1Cc2cc([101O:1][101CH2:1]c3c(C[100NH:0][100C:0](=O)N4CCCC(n5nc(-c6ccc(Oc7ccc(F)cc7F)cc6)c(C(N)=O)c5N)C4)cc(C)n3CCC(C)C)ccc2CC1C(=O)NC1CCCc2ccccc21)C(C)(C)C

> <Shape>
0.218

> <Color>
0.072

> <Negative vol penalty>
0.000

$$$$

  -OEChem-04052319533D

 87 95  0     1  0  0  0  0  0999 V2000
  -25.2241  -29.6960   14.6131 C   0  0  0  0  0  0  0  0  0  0  0  0
  -25.6085  -28.3894   14.8967 C   0  0  0  0  0  0  0  0  0  0  0  0
  -23.6679   -9.6111   20.9184 C   0  0  0  0  0  0  0  0  0  0  0  0
  -24.2966  -10.3592   23.1280 C   0  0  0  0  0  0  0  0  0  0  0  0
  -25.6790  -30.7442   15.4119 C   0  0  0  0  0  0  0  0  0  0  0  0
  -26.4491  -28.1304   15.9787 C   0  0  0  0  0  0  0  0  0  0  0  0
  -26.3435  -23.2137   19.6284 C   0  0  0  0  0  0  0  0  0  0  0  0
  -23.1191   -8.4520   21.4670 C   0  0  0  0  0  0  0  0  0  0  0  0
  -23.7478   -9.2001   23.6766 C   0  0  0  0  0  0  0  0  0  0  0  0
  -27.0994  -22.0423   19.6462 C   0  0  0  0  0  0  0  0  0  0  0  0
  -20.2787   -7.5570   23.0681 C   0  0  0  0  0  0  0  0  0  0  0  0
  -19.0254   -7.1527   22.6083 C   0  0  0  0  0  0  0  0  0  0  0  0
  -28.5575  -23.0154   21.3033 C   0  0  0  0  0  0  0  0  0  0  0  0
  -19.9746   -5.0606   21.8605 C   0  0  0  0  0  0  0  0  0  0  0  0
  -32.6419  -16.9605   22.2915 C   0  0  0  0  0  0  0  0  0  0  0  0
  -31.0943  -18.2276   23.2985 C   0  0  0  0  0  0  0  0  0  0  0  0
  -24.2567  -10.5647   21.7489 C   0  0  0  0  0  0  0  0  0  0  0  0
  -24.1698  -12.9873   20.9543 C   0  0  0  0  0  0  0  0  0  0  0  0
  -26.5179  -30.4969   16.5100 C   0  0  0  0  0  0  0  0  0  0  0  0
  -26.6960  -24.3006   20.4413 C   0  0  0  0  0  0  0  0  0  0  0  0
  -26.9169  -29.1765   16.7921 C   0  0  0  0  0  0  0  0  0  0  0  0
  -27.8030  -24.1985   21.2959 C   0  0  0  0  0  0  0  0  0  0  0  0
  -31.7682  -16.1105   22.9331 C   0  0  0  0  0  0  0  0  0  0  0  0
  -30.7892  -16.9121   23.5702 C   0  0  0  0  0  0  0  0  0  0  0  0
  -23.1590   -8.2465   22.8460 C   0  0  0  0  0  0  0  0  0  0  0  0
  -28.2082  -21.9441   20.4815 C   0  0  0  0  0  0  0  0  0  0  0  0
  -21.3800   -6.7132   22.9240 C   0  0  0  0  0  0  0  0  0  0  0  0
  -18.8733   -5.9045   22.0046 C   0  0  0  0  0  0  0  0  0  0  0  0
  -21.2280   -5.4650   22.3203 C   0  0  0  0  0  0  0  0  0  0  0  0
  -24.8242  -11.7620   21.1828 C   0  0  0  0  0  0  0  0  0  0  0  0
  -25.1358  -13.7956   20.4067 C   0  0  0  0  0  0  0  0  0  0  0  0
  -22.8102  -13.3613   21.2140 C   0  0  0  0  0  0  0  0  0  0  0  0
  -27.5843  -27.3056   19.9077 C   0  0  0  0  0  0  0  0  0  0  0  0
  -27.3932  -27.5250   23.1385 C   0  0  0  0  0  0  0  0  0  0  0  0
  -27.4683  -25.9394   26.1595 C   0  0  0  0  0  0  0  0  0  0  0  0
  -31.1147  -13.7966   20.7282 C   0  0  0  0  0  0  0  0  0  0  0  0
  -27.0223  -31.6675   17.3163 C   0  0  0  0  0  0  0  0  0  0  0  0
  -25.8546  -25.5473   20.4302 C   0  0  0  0  0  0  0  0  0  0  0  0
  -28.2114  -25.3294   22.2029 C   0  0  0  0  0  0  0  0  0  0  0  0
  -27.6079  -31.2685   18.6684 C   0  0  0  0  0  0  0  0  0  0  0  0
  -29.1294  -13.6052   17.7789 C   0  0  0  0  0  0  0  0  0  0  0  0
  -28.5513  -30.0802   18.5119 C   0  0  0  0  0  0  0  0  0  0  0  0
  -27.7419  -13.2217   18.2962 C   0  0  0  0  0  0  0  0  0  0  0  0
  -30.2380  -12.9270   18.5807 C   0  0  0  0  0  0  0  0  0  0  0  0
  -28.7754  -12.7505   20.5564 C   0  0  0  0  0  0  0  0  0  0  0  0
  -27.8076  -28.8527   17.9719 C   0  0  1  0  0  0  0  0  0  0  0  0
  -26.6071  -26.7803   20.9211 C   0  0  1  0  0  0  0  0  0  0  0  0
  -27.6257  -13.4537   19.8147 C   0  0  2  0  0  0  0  0  0  0  0  0
  -27.9817  -16.2417   22.4412 C   0  0  0  0  0  0  0  0  0  0  0  0
  -29.7451  -16.9099   25.8507 C   0  0  0  0  0  0  0  0  0  0  0  0
  -27.3223  -26.3885   28.6242 C   0  0  0  0  0  0  0  0  0  0  0  0
  -33.3735  -21.0576   20.0992 C   0  0  0  0  0  0  0  0  0  0  0  0
  -30.9224  -19.8526   18.6004 C   0  0  0  0  0  0  0  0  0  0  0  0
  -30.2484  -28.6005   23.1092 C   0  0  0  0  0  0  0  0  0  0  0  0
  -30.3763  -28.1311   25.5651 C   0  0  0  0  0  0  0  0  0  0  0  0
  -28.7092  -29.7704   24.6955 C   0  0  0  0  0  0  0  0  0  0  0  0
  -25.0536  -24.2515   26.4418 C   0  0  0  0  0  0  0  0  0  0  0  0
  -31.8470  -14.6362   22.9459 C   0  0  0  0  0  0  0  0  0  0  0  0
  -28.2475  -16.8339   23.8199 C   0  0  0  0  0  0  0  0  0  0  0  0
  -32.8975  -19.4879   21.9939 C   0  0  0  0  0  0  0  0  0  0  0  0
  -30.3369  -20.9329   20.8010 C   0  0  0  0  0  0  0  0  0  1  0  0
  -29.6487  -16.4375   24.3785 C   0  0  1  0  0  0  0  0  0  0  0  0
  -28.3511  -27.3018   24.2837 C   0  0  1  0  0  0  0  0  0  0  0  0
  -26.5501  -26.0253   27.3654 C   0  0  2  0  0  0  0  0  0  0  0  0
  -32.6345  -19.7714   20.4946 C   0  0  1  0  0  0  0  0  0  0  0  0
  -31.1216  -19.7997   20.1238 C   0  0  2  0  0  0  0  0  0  0  0  0
  -29.4150  -28.4302   24.3950 C   0  0  0  0  0  0  0  0  0  0  0  0
  -26.1068  -11.7852   20.8105 N   0  0  0  0  0  0  0  0  0  0  0  0
  -32.2222  -18.2449   22.5203 N   0  0  0  0  0  0  0  0  0  0  0  0
  -26.2660  -13.0349   20.3426 N   0  0  0  0  0  0  0  0  0  0  0  0
  -27.3608  -26.5299   22.1513 N   0  0  0  0  0  0  0  0  0  0  0  0
  -30.0708  -13.1874   20.0126 N   0  0  0  0  0  0  0  0  0  0  0  0
  -25.1201  -15.0758   19.9785 N   0  0  0  0  0  0  0  0  0  0  0  0
  -21.9517  -12.4090   21.7799 N   0  0  0  0  0  0  0  0  0  0  0  0
  -27.0427  -28.2212   19.0258 N   0  0  0  0  0  0  0  0  0  0  0  0
  -27.5288  -27.1361   25.4773 N   0  0  0  0  0  0  0  0  0  0  0  0
  -30.8716  -14.0132   22.0790 N   0  0  0  0  0  0  0  0  0  0  0  0
  -25.8692  -24.7192   27.5921 N   0  3  0  0  0  0  0  0  0  0  0  0
  -22.3655  -14.5010   20.9368 O   0  0  0  0  0  0  0  0  0  0  0  0
  -28.7442  -26.9105   19.9257 O   0  0  0  0  0  0  0  0  0  0  0  0
  -26.6941  -28.5412   23.1241 O   0  0  0  0  0  0  0  0  0  0  0  0
  -28.0744  -24.9143   25.8556 O   0  0  0  0  0  0  0  0  0  0  0  0
  -32.1820  -14.1281   20.2011 O   0  0  0  0  0  0  0  0  0  0  0  0
  -22.6234   -7.1157   23.3817 O   0  0  0  0  0  0  0  0  0  0  0  0
  -28.9481  -20.8021   20.5004 O   0  0  0  0  0  0  0  0  0  1  0  0
  -17.6694   -5.5158   21.5645 F   0  0  0  0  0  0  0  0  0  0  0  0
  -22.2820   -4.6495   22.1801 F   0  0  0  0  0  0  0  0  0  0  0  0
  1  2  1  0  0  0  0
  1  5  2  0  0  0  0
  2  6  2  0  0  0  0
  3  8  2  0  0  0  0
  3 17  1  0  0  0  0
  4  9  1  0  0  0  0
  4 17  2  0  0  0  0
  5 19  1  0  0  0  0
  6 21  1  0  0  0  0
  7 10  2  0  0  0  0
  7 20  1  0  0  0  0
  8 25  1  0  0  0  0
  9 25  2  0  0  0  0
 10 26  1  0  0  0  0
 11 12  2  0  0  0  0
 11 27  1  0  0  0  0
 12 28  1  0  0  0  0
 13 22  1  0  0  0  0
 13 26  2  0  0  0  0
 14 28  2  0  0  0  0
 14 29  1  0  0  0  0
 15 23  2  0  0  0  0
 15 69  1  0  0  0  0
 16 24  2  0  0  0  0
 16 69  1  0  0  0  0
 17 30  1  0  0  0  0
 18 30  1  0  0  0  0
 18 31  2  0  0  0  0
 18 32  1  0  0  0  0
 19 21  2  0  0  0  0
 19 37  1  0  0  0  0
 20 22  2  0  0  0  0
 20 38  1  0  0  0  0
 21 46  1  0  0  0  0
 22 39  1  0  0  0  0
 23 24  1  0  0  0  0
 23 58  1  0  0  0  0
 24 62  1  0  0  0  0
 25 84  1  0  0  0  0
 26 85  1  0  0  0  0
 27 29  2  0  0  0  0
 27 84  1  0  0  0  0
 28 86  1  0  0  0  0
 29 87  1  0  0  0  0
 30 68  2  0  0  0  0
 31 70  1  0  0  0  0
 31 73  1  0  0  0  0
 32 74  1  0  0  0  0
 32 79  2  0  0  0  0
 33 47  1  0  0  0  0
 33 75  1  0  0  0  0
 33 80  2  0  0  0  0
 34 63  1  0  0  0  0
 34 71  1  0  0  0  0
 34 81  2  0  0  0  0
 35 64  1  0  0  0  0
 35 76  1  0  0  0  0
 35 82  2  0  0  0  0
 36 72  1  0  0  0  0
 36 77  1  0  0  0  0
 36 83  2  0  0  0  0
 37 40  1  0  0  0  0
 38 47  1  0  0  0  0
 39 71  1  0  0  0  0
 40 42  1  0  0  0  0
 41 43  1  0  0  0  0
 41 44  1  0  0  0  0
 42 46  1  0  0  0  0
 43 48  1  0  0  0  0
 44 72  1  0  0  0  0
 45 48  1  0  0  0  0
 45 72  1  0  0  0  0
 46 75  1  0  0  0  0
 47 71  1  0  0  0  0
 48 70  1  0  0  0  0
 49 59  1  0  0  0  0
 50 62  1  0  0  0  0
 51 64  1  0  0  0  0
 52 65  1  0  0  0  0
 53 66  1  0  0  0  0
 54 67  1  0  0  0  0
 55 67  1  0  0  0  0
 56 67  1  0  0  0  0
 57 78  1  0  0  0  0
 58 77  1  0  0  0  0
 59 62  1  0  0  0  0
 60 65  1  0  0  0  0
 60 69  1  0  0  0  0
 61 66  1  0  0  0  0
 61 85  1  0  0  0  0
 63 67  1  0  0  0  0
 63 76  1  0  0  0  0
 64 78  1  0  0  0  0
 65 66  1  0  0  0  0
 68 70  1  0  0  0  0
M  CHG  1  78   1
M  ISO  4  36 100  61 101  77 100  85 101
M  END
> <Batch ID>
0108

> <Smiles>
CCC(C)c1cn(CC(C)C(C)[101CH2:1][101O:1]c2ccc3c(c2)CN(C(=O)C(NC(=O)C(C)NC)C(C)(C)C)C(C(=O)NC2CCCc4ccccc42)C3)cc1C[100NH:0][100C:0](=O)N1CCCC(n2nc(-c3ccc(Oc4ccc(F)cc4F)cc3)c(C(N)=O)c2N)C1

> <Shape>
0.210

> <Color>
0.162

> <Negative vol penalty>
0.000

$$$$

  -OEChem-04052319533D

 81 88  0     1  0  0  0  0  0999 V2000
  -16.5915  -30.0574   23.8272 C   0  0  0  0  0  0  0  0  0  0  0  0
  -16.9598  -29.8229   22.5063 C   0  0  0  0  0  0  0  0  0  0  0  0
  -25.5205  -15.9950   21.8691 C   0  0  0  0  0  0  0  0  0  0  0  0
  -25.4721  -16.3306   19.4770 C   0  0  0  0  0  0  0  0  0  0  0  0
  -17.4106  -29.6180   24.8665 C   0  0  0  0  0  0  0  0  0  0  0  0
  -18.1479  -29.1499   22.2238 C   0  0  0  0  0  0  0  0  0  0  0  0
  -21.0108  -24.6402   17.4507 C   0  0  0  0  0  0  0  0  0  0  0  0
  -24.2729  -15.3743   21.8073 C   0  0  0  0  0  0  0  0  0  0  0  0
  -24.2245  -15.7099   19.4152 C   0  0  0  0  0  0  0  0  0  0  0  0
  -22.1256  -24.5128   16.6233 C   0  0  0  0  0  0  0  0  0  0  0  0
  -21.2637  -13.3792   22.2308 C   0  0  0  0  0  0  0  0  0  0  0  0
  -21.0908  -12.1976   22.9515 C   0  0  0  0  0  0  0  0  0  0  0  0
  -23.4222  -23.7301   18.5010 C   0  0  0  0  0  0  0  0  0  0  0  0
  -22.8636  -11.1615   21.6784 C   0  0  0  0  0  0  0  0  0  0  0  0
  -26.1201  -16.4732   20.7040 C   0  0  0  0  0  0  0  0  0  0  0  0
  -28.6705  -16.5009   20.6554 C   0  0  0  0  0  0  0  0  0  0  0  0
  -18.6045  -28.9308   24.5968 C   0  0  0  0  0  0  0  0  0  0  0  0
  -21.0963  -24.3233   18.8141 C   0  0  0  0  0  0  0  0  0  0  0  0
  -18.9844  -28.7021   23.2604 C   0  0  0  0  0  0  0  0  0  0  0  0
  -22.3063  -23.8519   19.3430 C   0  0  0  0  0  0  0  0  0  0  0  0
  -23.6249  -15.2318   20.5803 C   0  0  0  0  0  0  0  0  0  0  0  0
  -23.3324  -24.0604   17.1490 C   0  0  0  0  0  0  0  0  0  0  0  0
  -22.2366  -13.4519   21.2338 C   0  0  0  0  0  0  0  0  0  0  0  0
  -21.8907  -11.0888   22.6754 C   0  0  0  0  0  0  0  0  0  0  0  0
  -23.0365  -12.3431   20.9576 C   0  0  0  0  0  0  0  0  0  0  0  0
  -27.4086  -17.1149   20.7673 C   0  0  0  0  0  0  0  0  0  0  0  0
  -29.5672  -17.5337   20.7813 C   0  0  0  0  0  0  0  0  0  0  0  0
  -29.0024  -15.1205   20.4555 C   0  0  0  0  0  0  0  0  0  0  0  0
  -20.7278  -25.9471   21.5217 C   0  0  0  0  0  0  0  0  0  0  0  0
  -21.0856  -23.0189   22.8707 C   0  0  0  0  0  0  0  0  0  0  0  0
  -22.2955  -19.8383   22.6123 C   0  0  0  0  0  0  0  0  0  0  0  0
  -29.1019  -23.3078   19.6417 C   0  0  0  0  0  0  0  0  0  0  0  0
  -19.4807  -28.5168   25.7525 C   0  0  0  0  0  0  0  0  0  0  0  0
  -19.8775  -24.4408   19.6876 C   0  0  0  0  0  0  0  0  0  0  0  0
  -22.4450  -23.4793   20.7957 C   0  0  0  0  0  0  0  0  0  0  0  0
  -20.5372  -27.4814   25.3754 C   0  0  0  0  0  0  0  0  0  0  0  0
  -30.0573  -21.8412   22.8093 C   0  0  0  0  0  0  0  0  0  0  0  0
  -21.2423  -27.8841   24.0840 C   0  0  0  0  0  0  0  0  0  0  0  0
  -29.5996  -20.3933   22.6245 C   0  0  0  0  0  0  0  0  0  0  0  0
  -29.0792  -22.8171   22.1619 C   0  0  0  0  0  0  0  0  0  0  0  0
  -28.3623  -21.1153   20.5298 C   0  0  0  0  0  0  0  0  0  0  0  0
  -20.2533  -27.9538   22.9142 C   0  0  1  0  0  0  0  0  0  0  0  0
  -20.2151  -24.5795   21.1689 C   0  0  1  0  0  0  0  0  0  0  0  0
  -29.3211  -20.0784   21.1427 C   0  0  2  0  0  0  0  0  0  0  0  0
  -22.4671  -17.6860   23.8912 C   0  0  0  0  0  0  0  0  0  0  0  0
  -29.3387  -27.8478   17.9240 C   0  0  0  0  0  0  0  0  0  0  0  0
  -23.3031  -24.2194   24.5886 C   0  0  0  0  0  0  0  0  0  0  0  0
  -24.0533  -21.8915   25.1238 C   0  0  0  0  0  0  0  0  0  0  0  0
  -21.7764  -22.6530   25.8011 C   0  0  0  0  0  0  0  0  0  0  0  0
  -24.4574  -26.2355   15.6572 C   0  0  0  0  0  0  0  0  0  0  0  0
  -26.4110  -24.7125   15.2618 C   0  0  0  0  0  0  0  0  0  0  0  0
  -20.7485  -18.3636   20.5651 C   0  0  0  0  0  0  0  0  0  0  0  0
  -26.7591  -27.4834   19.7593 C   0  0  0  0  0  0  0  0  0  0  0  0
  -25.8573  -25.3906   17.6170 C   0  0  0  0  0  0  0  0  0  0  0  0
  -29.8669  -25.5492   18.9015 C   0  0  0  0  0  0  0  0  0  0  0  0
  -27.0769  -26.3076   17.5874 C   0  0  0  0  0  0  0  0  0  0  0  0
  -22.2579  -22.2034   23.3602 C   0  0  1  0  0  0  0  0  0  0  0  0
  -21.6537  -18.4908   22.8895 C   0  0  2  0  0  0  0  0  0  0  0  0
  -29.0458  -26.8314   19.0192 C   0  0  2  0  0  0  0  0  0  0  0  0
  -22.8459  -22.7506   24.6914 C   0  0  0  0  0  0  0  0  0  0  0  0
  -25.2755  -25.0734   16.2249 C   0  0  0  0  0  0  0  0  0  1  0  0
  -27.4921  -18.4353   20.9504 N   0  0  0  0  0  0  0  0  0  0  0  0
  -28.8171  -18.6595   20.9546 N   0  0  0  0  0  0  0  0  0  0  0  0
  -21.2266  -23.6172   21.6106 N   0  0  0  0  0  0  0  0  0  0  0  0
  -28.8721  -22.4732   20.7481 N   0  0  0  0  0  0  0  0  0  0  0  0
  -30.9162  -17.5795   20.7598 N   0  0  0  0  0  0  0  0  0  0  0  0
  -27.9588  -14.1913   20.3469 N   0  0  0  0  0  0  0  0  0  0  0  0
  -19.9424  -26.6239   22.4353 N   0  0  0  0  0  0  0  0  0  0  0  0
  -21.7918  -20.8230   23.4356 N   0  0  0  0  0  0  0  0  0  0  0  0
  -29.5777  -24.5799   19.9349 N   0  0  0  0  0  0  0  0  0  0  0  0
  -21.5434  -17.7007   21.6307 N   0  3  0  0  0  0  0  0  0  0  0  0
  -27.5772  -26.4888   18.9735 N   0  3  1  0  0  0  0  0  0  0  0  0
  -30.1897  -14.7205   20.3918 O   0  0  0  0  0  0  0  0  0  0  0  0
  -21.7602  -26.3573   21.0046 O   0  0  0  0  0  0  0  0  0  0  0  0
  -20.0790  -23.1154   23.5771 O   0  0  0  0  0  0  0  0  0  0  0  0
  -23.1601  -20.0003   21.7539 O   0  0  0  0  0  0  0  0  0  0  0  0
  -28.9028  -22.9442   18.4775 O   0  0  0  0  0  0  0  0  0  0  0  0
  -22.4076  -14.6260   20.5196 O   0  0  0  0  0  0  0  0  0  0  0  0
  -24.4223  -23.9358   16.3437 O   0  0  0  0  0  0  0  0  0  1  0  0
  -21.7255   -9.9546   23.3687 F   0  0  0  0  0  0  0  0  0  0  0  0
  -23.9735  -12.4073   20.0018 F   0  0  0  0  0  0  0  0  0  0  0  0
  1  2  1  0  0  0  0
  1  5  2  0  0  0  0
  2  6  2  0  0  0  0
  3  8  2  0  0  0  0
  3 15  1  0  0  0  0
  4  9  1  0  0  0  0
  4 15  2  0  0  0  0
  5 17  1  0  0  0  0
  6 19  1  0  0  0  0
  7 10  2  0  0  0  0
  7 18  1  0  0  0  0
  8 21  1  0  0  0  0
  9 21  2  0  0  0  0
 10 22  1  0  0  0  0
 11 12  2  0  0  0  0
 11 23  1  0  0  0  0
 12 24  1  0  0  0  0
 13 20  1  0  0  0  0
 13 22  2  0  0  0  0
 14 24  2  0  0  0  0
 14 25  1  0  0  0  0
 15 26  1  0  0  0  0
 16 26  1  0  0  0  0
 16 27  2  0  0  0  0
 16 28  1  0  0  0  0
 17 19  2  0  0  0  0
 17 33  1  0  0  0  0
 18 20  2  0  0  0  0
 18 34  1  0  0  0  0
 19 42  1  0  0  0  0
 20 35  1  0  0  0  0
 21 78  1  0  0  0  0
 22 79  1  0  0  0  0
 23 25  2  0  0  0  0
 23 78  1  0  0  0  0
 24 80  1  0  0  0  0
 25 81  1  0  0  0  0
 26 62  2  0  0  0  0
 27 63  1  0  0  0  0
 27 66  1  0  0  0  0
 28 67  1  0  0  0  0
 28 73  2  0  0  0  0
 29 43  1  0  0  0  0
 29 68  1  0  0  0  0
 29 74  2  0  0  0  0
 30 57  1  0  0  0  0
 30 64  1  0  0  0  0
 30 75  2  0  0  0  0
 31 58  1  0  0  0  0
 31 69  1  0  0  0  0
 31 76  2  0  0  0  0
 32 65  1  0  0  0  0
 32 70  1  0  0  0  0
 32 77  2  0  0  0  0
 33 36  1  0  0  0  0
 34 43  1  0  0  0  0
 35 64  1  0  0  0  0
 36 38  1  0  0  0  0
 37 39  1  0  0  0  0
 37 40  1  0  0  0  0
 38 42  1  0  0  0  0
 39 44  1  0  0  0  0
 40 65  1  0  0  0  0
 41 44  1  0  0  0  0
 41 65  1  0  0  0  0
 42 68  1  0  0  0  0
 43 64  1  0  0  0  0
 44 63  1  0  0  0  0
 45 58  1  0  0  0  0
 46 59  1  0  0  0  0
 47 60  1  0  0  0  0
 48 60  1  0  0  0  0
 49 60  1  0  0  0  0
 50 61  1  0  0  0  0
 51 61  1  0  0  0  0
 52 71  1  0  0  0  0
 53 72  1  0  0  0  0
 54 56  1  0  0  0  0
 54 61  1  0  0  0  0
 55 59  1  0  0  0  0
 55 70  1  0  0  0  0
 56 72  1  0  0  0  0
 57 60  1  0  0  0  0
 57 69  1  0  0  0  0
 58 71  1  0  0  0  0
 59 72  1  0  0  0  0
 61 79  1  0  0  0  0
 62 63  1  0  0  0  0
M  CHG  2  71   1  72   1
M  ISO  4  32 100  61 101  70 100  79 101
M  END
> <Batch ID>
0108

> <Smiles>
CNC(C)C(=O)NC(C(=O)N1Cc2cc([101O:1][101C:1](C)(C)CCN(C)C(C)C[100NH:0][100C:0](=O)N3CCCC(n4nc(-c5ccc(Oc6ccc(F)cc6F)cc5)c(C(N)=O)c4N)C3)ccc2CC1C(=O)NC1CCCc2ccccc21)C(C)(C)C

> <Shape>
0.203

> <Color>
0.063

> <Negative vol penalty>
0.000

$$$$

  -OEChem-04052319533D

 84 92  0     1  0  0  0  0  0999 V2000
  -27.1994  -36.5414   19.1766 C   0  0  0  0  0  0  0  0  0  0  0  0
  -27.6605  -35.2558   19.4414 C   0  0  0  0  0  0  0  0  0  0  0  0
  -26.3296  -12.3287   20.7906 C   0  0  0  0  0  0  0  0  0  0  0  0
  -24.5646  -13.9285   20.3881 C   0  0  0  0  0  0  0  0  0  0  0  0
  -26.1214  -37.0559   19.8956 C   0  0  0  0  0  0  0  0  0  0  0  0
  -27.0444  -34.4844   20.4262 C   0  0  0  0  0  0  0  0  0  0  0  0
  -26.2250  -29.7164   18.9295 C   0  0  0  0  0  0  0  0  0  0  0  0
  -25.3935  -11.4198   21.2838 C   0  0  0  0  0  0  0  0  0  0  0  0
  -23.6283  -13.0196   20.8812 C   0  0  0  0  0  0  0  0  0  0  0  0
  -27.3161  -28.8486   18.9425 C   0  0  0  0  0  0  0  0  0  0  0  0
  -23.1128   -9.2637   20.0259 C   0  0  0  0  0  0  0  0  0  0  0  0
  -23.2048   -7.9402   19.5951 C   0  0  0  0  0  0  0  0  0  0  0  0
  -26.5531  -27.9303   21.0386 C   0  0  0  0  0  0  0  0  0  0  0  0
  -23.5138   -7.2179   21.8798 C   0  0  0  0  0  0  0  0  0  0  0  0
  -28.7005  -23.7647   20.6343 C   0  0  0  0  0  0  0  0  0  0  0  0
  -25.9152  -13.5830   20.3428 C   0  0  0  0  0  0  0  0  0  0  0  0
  -27.3117  -14.6616   18.5006 C   0  0  0  0  0  0  0  0  0  0  0  0
  -25.4856  -36.2869   20.8830 C   0  0  0  0  0  0  0  0  0  0  0  0
  -25.2941  -29.7052   19.9782 C   0  0  0  0  0  0  0  0  0  0  0  0
  -25.9576  -34.9896   21.1600 C   0  0  0  0  0  0  0  0  0  0  0  0
  -25.4497  -28.7973   21.0353 C   0  0  0  0  0  0  0  0  0  0  0  0
  -27.7011  -22.8177   20.6756 C   0  0  0  0  0  0  0  0  0  0  0  0
  -27.1365  -22.7415   19.3785 C   0  0  0  0  0  0  0  0  0  0  0  0
  -24.0428  -11.7653   21.3290 C   0  0  0  0  0  0  0  0  0  0  0  0
  -27.4819  -27.9573   19.9986 C   0  0  0  0  0  0  0  0  0  0  0  0
  -23.2213   -9.5643   21.3837 C   0  0  0  0  0  0  0  0  0  0  0  0
  -23.4053   -6.9174   20.5220 C   0  0  0  0  0  0  0  0  0  0  0  0
  -23.4218   -8.5414   22.3106 C   0  0  0  0  0  0  0  0  0  0  0  0
  -26.8819  -14.5225   19.8338 C   0  0  0  0  0  0  0  0  0  0  0  0
  -27.8083  -23.6442   18.5839 C   0  0  0  0  0  0  0  0  0  0  0  0
  -28.2282  -15.6839   18.5402 C   0  0  0  0  0  0  0  0  0  0  0  0
  -26.9178  -13.9321   17.3308 C   0  0  0  0  0  0  0  0  0  0  0  0
  -24.3320  -31.8214   22.1461 C   0  0  0  0  0  0  0  0  0  0  0  0
  -22.1718  -29.5128   22.8716 C   0  0  0  0  0  0  0  0  0  0  0  0
  -21.3430  -26.2026   22.8243 C   0  0  0  0  0  0  0  0  0  0  0  0
  -29.0290  -20.2997   22.2691 C   0  0  0  0  0  0  0  0  0  0  0  0
  -24.3541  -36.9034   21.6667 C   0  0  0  0  0  0  0  0  0  0  0  0
  -24.1081  -30.6293   19.9360 C   0  0  0  0  0  0  0  0  0  0  0  0
  -24.4675  -28.7315   22.1752 C   0  0  0  0  0  0  0  0  0  0  0  0
  -23.5179  -35.8829   22.4346 C   0  0  0  0  0  0  0  0  0  0  0  0
  -31.3942  -17.7633   21.4631 C   0  0  0  0  0  0  0  0  0  0  0  0
  -24.4210  -34.9047   23.1792 C   0  0  0  0  0  0  0  0  0  0  0  0
  -30.5447  -16.6577   20.8338 C   0  0  0  0  0  0  0  0  0  0  0  0
  -30.6564  -18.4622   22.6030 C   0  0  0  0  0  0  0  0  0  0  0  0
  -28.4731  -17.8775   21.6208 C   0  0  0  0  0  0  0  0  0  0  0  0
  -25.2998  -34.1129   22.2034 C   0  0  1  0  0  0  0  0  0  0  0  0
  -23.5021  -30.8869   21.3121 C   0  0  1  0  0  0  0  0  0  0  0  0
  -29.1532  -17.1810   20.4297 C   0  0  2  0  0  0  0  0  0  0  0  0
  -27.6299  -23.9738   17.1539 C   0  0  0  0  0  0  0  0  0  0  0  0
  -19.5294  -24.6158   23.5244 C   0  0  0  0  0  0  0  0  0  0  0  0
  -26.5298  -20.5045   18.4370 C   0  0  0  0  0  0  0  0  0  0  0  0
  -23.1183  -29.7116   25.7654 C   0  0  0  0  0  0  0  0  0  0  0  0
  -21.9994  -27.5163   26.2091 C   0  0  0  0  0  0  0  0  0  0  0  0
  -20.6431  -29.4829   25.4908 C   0  0  0  0  0  0  0  0  0  0  0  0
  -20.8464  -25.3555   20.0323 C   0  0  0  0  0  0  0  0  0  0  0  0
  -27.3004  -22.0329   21.8604 C   0  0  0  0  0  0  0  0  0  0  0  0
  -29.7234  -25.3229   18.8943 C   0  0  0  0  0  0  0  0  0  0  0  0
  -29.0592  -26.6879   18.7509 C   0  0  0  0  0  0  0  0  0  1  0  0
  -22.1437  -28.3326   23.8124 C   0  0  1  0  0  0  0  0  0  0  0  0
  -20.0713  -25.4885   22.4031 C   0  0  2  0  0  0  0  0  0  0  0  0
  -26.0311  -21.8579   18.9537 C   0  0  0  0  0  0  0  0  0  0  0  0
  -21.9959  -28.7632   25.2991 C   0  0  0  0  0  0  0  0  0  0  0  0
  -27.4764  -15.3872   20.6602 N   0  0  0  0  0  0  0  0  0  0  0  0
  -28.7569  -24.2601   19.3577 N   0  0  0  0  0  0  0  0  0  0  0  0
  -28.2893  -16.0794   19.8440 N   0  0  0  0  0  0  0  0  0  0  0  0
  -23.3276  -29.6596   22.0916 N   0  0  0  0  0  0  0  0  0  0  0  0
  -29.3451  -18.9360   22.1535 N   0  0  0  0  0  0  0  0  0  0  0  0
  -28.9796  -16.2741   17.5866 N   0  0  0  0  0  0  0  0  0  0  0  0
  -25.9646  -12.9138   17.4680 N   0  0  0  0  0  0  0  0  0  0  0  0
  -24.5321  -33.0617   21.5708 N   0  0  0  0  0  0  0  0  0  0  0  0
  -21.0796  -27.4557   23.3356 N   0  0  0  0  0  0  0  0  0  0  0  0
  -27.7682  -20.6655   21.8138 N   0  0  0  0  0  0  0  0  0  0  0  0
  -20.3314  -24.6232   21.2179 N   0  3  0  0  0  0  0  0  0  0  0  0
  -27.4091  -14.1649   16.2004 O   0  0  0  0  0  0  0  0  0  0  0  0
  -24.7580  -31.4455   23.2319 O   0  0  0  0  0  0  0  0  0  0  0  0
  -21.2009  -30.2723   22.8250 O   0  0  0  0  0  0  0  0  0  0  0  0
  -22.4581  -25.6976   22.7143 O   0  0  0  0  0  0  0  0  0  0  0  0
  -29.8143  -21.1306   22.7379 O   0  0  0  0  0  0  0  0  0  0  0  0
  -23.1290  -10.8786   21.8099 O   0  0  0  0  0  0  0  0  0  0  0  0
  -28.5463  -27.1096   20.0141 O   0  0  0  0  0  0  0  0  0  1  0  0
  -23.4921   -5.6463   20.1083 F   0  0  0  0  0  0  0  0  0  0  0  0
  -23.5257   -8.8239   23.6165 F   0  0  0  0  0  0  0  0  0  0  0  0
  -25.2520  -22.3939   17.9524 F   0  0  0  0  0  0  0  0  0  0  0  0
  -25.1293  -21.5833   19.9577 F   0  0  0  0  0  0  0  0  0  0  0  0
  1  2  1  0  0  0  0
  1  5  2  0  0  0  0
  2  6  2  0  0  0  0
  3  8  2  0  0  0  0
  3 16  1  0  0  0  0
  4  9  1  0  0  0  0
  4 16  2  0  0  0  0
  5 18  1  0  0  0  0
  6 20  1  0  0  0  0
  7 10  2  0  0  0  0
  7 19  1  0  0  0  0
  8 24  1  0  0  0  0
  9 24  2  0  0  0  0
 10 25  1  0  0  0  0
 11 12  2  0  0  0  0
 11 26  1  0  0  0  0
 12 27  1  0  0  0  0
 13 21  1  0  0  0  0
 13 25  2  0  0  0  0
 14 27  2  0  0  0  0
 14 28  1  0  0  0  0
 15 22  2  0  0  0  0
 15 64  1  0  0  0  0
 16 29  1  0  0  0  0
 17 29  1  0  0  0  0
 17 31  2  0  0  0  0
 17 32  1  0  0  0  0
 18 20  2  0  0  0  0
 18 37  1  0  0  0  0
 19 21  2  0  0  0  0
 19 38  1  0  0  0  0
 20 46  1  0  0  0  0
 21 39  1  0  0  0  0
 22 23  1  0  0  0  0
 22 56  1  0  0  0  0
 23 30  2  0  0  0  0
 23 61  1  0  0  0  0
 24 79  1  0  0  0  0
 25 80  1  0  0  0  0
 26 28  2  0  0  0  0
 26 79  1  0  0  0  0
 27 81  1  0  0  0  0
 28 82  1  0  0  0  0
 29 63  2  0  0  0  0
 30 49  1  0  0  0  0
 30 64  1  0  0  0  0
 31 65  1  0  0  0  0
 31 68  1  0  0  0  0
 32 69  1  0  0  0  0
 32 74  2  0  0  0  0
 33 47  1  0  0  0  0
 33 70  1  0  0  0  0
 33 75  2  0  0  0  0
 34 59  1  0  0  0  0
 34 66  1  0  0  0  0
 34 76  2  0  0  0  0
 35 60  1  0  0  0  0
 35 71  1  0  0  0  0
 35 77  2  0  0  0  0
 36 67  1  0  0  0  0
 36 72  1  0  0  0  0
 36 78  2  0  0  0  0
 37 40  1  0  0  0  0
 38 47  1  0  0  0  0
 39 66  1  0  0  0  0
 40 42  1  0  0  0  0
 41 43  1  0  0  0  0
 41 44  1  0  0  0  0
 42 46  1  0  0  0  0
 43 48  1  0  0  0  0
 44 67  1  0  0  0  0
 45 48  1  0  0  0  0
 45 67  1  0  0  0  0
 46 70  1  0  0  0  0
 47 66  1  0  0  0  0
 48 65  1  0  0  0  0
 50 60  1  0  0  0  0
 51 61  1  0  0  0  0
 52 62  1  0  0  0  0
 53 62  1  0  0  0  0
 54 62  1  0  0  0  0
 55 73  1  0  0  0  0
 56 72  1  0  0  0  0
 57 58  1  0  0  0  0
 57 64  1  0  0  0  0
 58 80  1  0  0  0  0
 59 62  1  0  0  0  0
 59 71  1  0  0  0  0
 60 73  1  0  0  0  0
 61 83  1  0  0  0  0
 61 84  1  0  0  0  0
 63 65  1  0  0  0  0
M  CHG  1  73   1
M  ISO  4  36 100  58 101  72 100  80 101
M  END
> <Batch ID>
0108

> <Smiles>
CNC(C)C(=O)NC(C(=O)N1Cc2cc([101O:1][101CH2:1]Cn3cc(C[100NH:0][100C:0](=O)N4CCCC(n5nc(-c6ccc(Oc7ccc(F)cc7F)cc6)c(C(N)=O)c5N)C4)c(C(C)(F)F)c3C)ccc2CC1C(=O)NC1CCCc2ccccc21)C(C)(C)C

> <Shape>
0.269

> <Color>
0.071

> <Negative vol penalty>
0.000

$$$$

  -OEChem-04052319533D

 89 97  0     1  0  0  0  0  0999 V2000
  -20.1817  -12.7599   17.2393 C   0  0  0  0  0  0  0  0  0  0  0  0
  -20.6611  -14.0651   17.1938 C   0  0  0  0  0  0  0  0  0  0  0  0
  -24.3205  -29.7411   19.8790 C   0  0  0  0  0  0  0  0  0  0  0  0
  -25.1132  -29.3017   22.1186 C   0  0  0  0  0  0  0  0  0  0  0  0
  -20.7430  -11.8428   18.1268 C   0  0  0  0  0  0  0  0  0  0  0  0
  -21.7015  -14.4542   18.0367 C   0  0  0  0  0  0  0  0  0  0  0  0
  -27.3708  -18.8278   18.2555 C   0  0  0  0  0  0  0  0  0  0  0  0
  -24.2893  -31.1074   20.1581 C   0  0  0  0  0  0  0  0  0  0  0  0
  -25.0821  -30.6680   22.3977 C   0  0  0  0  0  0  0  0  0  0  0  0
  -27.9324  -19.8241   19.0528 C   0  0  0  0  0  0  0  0  0  0  0  0
  -26.9976  -33.3807   21.7711 C   0  0  0  0  0  0  0  0  0  0  0  0
  -28.0956  -33.9307   22.4324 C   0  0  0  0  0  0  0  0  0  0  0  0
  -28.8782  -18.1328   20.4895 C   0  0  0  0  0  0  0  0  0  0  0  0
  -27.0496  -21.1530   23.6739 C   0  0  0  0  0  0  0  0  0  0  0  0
  -26.6571  -34.6215   24.2464 C   0  0  0  0  0  0  0  0  0  0  0  0
  -29.2686  -21.1399   24.5297 C   0  0  0  0  0  0  0  0  0  0  0  0
  -24.7323  -28.8382   20.8593 C   0  0  0  0  0  0  0  0  0  0  0  0
  -25.8425  -26.6903   20.0459 C   0  0  0  0  0  0  0  0  0  0  0  0
  -21.7973  -12.2182   18.9742 C   0  0  0  0  0  0  0  0  0  0  0  0
  -27.5499  -17.4744   18.5759 C   0  0  0  0  0  0  0  0  0  0  0  0
  -22.2766  -13.5416   18.9373 C   0  0  0  0  0  0  0  0  0  0  0  0
  -28.3200  -17.1212   19.6931 C   0  0  0  0  0  0  0  0  0  0  0  0
  -28.3770  -21.5482   23.5509 C   0  0  0  0  0  0  0  0  0  0  0  0
  -26.6598  -20.3726   24.7566 C   0  0  0  0  0  0  0  0  0  0  0  0
  -24.6702  -31.5708   21.4174 C   0  0  0  0  0  0  0  0  0  0  0  0
  -28.6838  -19.4767   20.1717 C   0  0  0  0  0  0  0  0  0  0  0  0
  -25.7292  -33.4512   22.3474 C   0  0  0  0  0  0  0  0  0  0  0  0
  -27.9254  -34.5511   23.6701 C   0  0  0  0  0  0  0  0  0  0  0  0
  -25.5590  -34.0715   23.5851 C   0  0  0  0  0  0  0  0  0  0  0  0
  -24.7641  -27.4267   20.5718 C   0  0  0  0  0  0  0  0  0  0  0  0
  -27.6283  -20.0167   25.6814 C   0  0  0  0  0  0  0  0  0  0  0  0
  -25.3707  -25.4032   19.9613 C   0  0  0  0  0  0  0  0  0  0  0  0
  -27.1536  -27.1304   19.6677 C   0  0  0  0  0  0  0  0  0  0  0  0
  -25.6117  -15.0774   19.3515 C   0  0  0  0  0  0  0  0  0  0  0  0
  -28.3399  -13.3310   19.1806 C   0  0  0  0  0  0  0  0  0  0  0  0
  -31.7483  -13.2587   19.3385 C   0  0  0  0  0  0  0  0  0  0  0  0
  -21.0777  -22.4333   22.8940 C   0  0  0  0  0  0  0  0  0  0  0  0
  -22.3404  -11.2047   19.9501 C   0  0  0  0  0  0  0  0  0  0  0  0
  -26.9599  -16.4112   17.6904 C   0  0  0  0  0  0  0  0  0  0  0  0
  -28.5589  -15.6823   20.0687 C   0  0  0  0  0  0  0  0  0  0  0  0
  -23.6909  -11.5949   20.5452 C   0  0  0  0  0  0  0  0  0  0  0  0
  -21.3153  -22.9327   19.3768 C   0  0  0  0  0  0  0  0  0  0  0  0
  -23.6732  -13.0509   21.0000 C   0  0  0  0  0  0  0  0  0  0  0  0
  -22.3235  -24.0746   19.2368 C   0  0  0  0  0  0  0  0  0  0  0  0
  -20.4241  -23.1139   20.6036 C   0  0  0  0  0  0  0  0  0  0  0  0
  -22.1578  -24.4533   21.7324 C   0  0  0  0  0  0  0  0  0  0  0  0
  -23.4205  -13.9949   19.8183 C   0  0  1  0  0  0  0  0  0  0  0  0
  -26.7766  -15.0746   18.4025 C   0  0  1  0  0  0  0  0  0  0  0  0
  -23.1161  -24.2859   20.5408 C   0  0  2  0  0  0  0  0  0  0  0  0
  -33.6937  -11.6798   19.1978 C   0  0  0  0  0  0  0  0  0  0  0  0
  -30.3517  -22.7516   22.3969 C   0  0  0  0  0  0  0  0  0  0  0  0
  -28.0782  -23.7559   22.3863 C   0  0  0  0  0  0  0  0  0  0  0  0
  -26.6902  -17.7993   26.4221 C   0  0  0  0  0  0  0  0  0  0  0  0
  -26.1896  -19.8814   27.7450 C   0  0  0  0  0  0  0  0  0  0  0  0
  -28.4485  -18.8465   27.8340 C   0  0  0  0  0  0  0  0  0  0  0  0
  -27.7249  -12.3262   21.9953 C   0  0  0  0  0  0  0  0  0  0  0  0
  -30.0987  -11.5481   22.1610 C   0  0  0  0  0  0  0  0  0  0  0  0
  -28.5882  -10.5781   20.4290 C   0  0  0  0  0  0  0  0  0  0  0  0
  -32.8691  -14.6654   16.9882 C   0  0  0  0  0  0  0  0  0  0  0  0
  -25.2389  -19.9472   24.8954 C   0  0  0  0  0  0  0  0  0  0  0  0
  -24.2739  -21.1431   24.9418 C   0  0  0  0  0  0  0  0  0  0  0  0
  -22.8208  -20.6941   25.1225 C   0  0  0  0  0  0  0  0  0  0  0  0
  -21.8479  -21.8671   25.1843 C   0  0  0  0  0  0  0  0  0  0  0  0
  -28.5389  -21.6922   21.0240 C   0  0  0  0  0  0  0  0  0  1  0  0
  -29.4267  -12.9476   20.1558 C   0  0  1  0  0  0  0  0  0  0  0  0
  -32.7856  -12.6263   18.4282 C   0  0  2  0  0  0  0  0  0  0  0  0
  -28.8421  -22.4120   22.3635 C   0  0  0  0  0  0  0  0  0  0  0  0
  -27.2675  -19.1787   26.8642 C   0  0  0  0  0  0  0  0  0  0  0  0
  -28.9537  -11.8773   21.1795 C   0  0  0  0  0  0  0  0  0  0  0  0
  -28.9272  -20.3816   25.5956 N   0  0  0  0  0  0  0  0  0  0  0  0
  -23.6882  -26.6703   20.8048 N   0  0  0  0  0  0  0  0  0  0  0  0
  -24.0881  -25.4453   20.4234 N   0  0  0  0  0  0  0  0  0  0  0  0
  -27.9560  -14.6795   19.1753 N   0  0  0  0  0  0  0  0  0  0  0  0
  -21.2373  -23.3078   21.8065 N   0  0  0  0  0  0  0  0  0  0  0  0
  -25.9318  -24.2509   19.5373 N   0  0  0  0  0  0  0  0  0  0  0  0
  -27.4729  -28.4866   19.8199 N   0  0  0  0  0  0  0  0  0  0  0  0
  -24.6272  -14.1603   19.0366 N   0  0  0  0  0  0  0  0  0  0  0  0
  -30.5723  -12.5388   19.3502 N   0  0  0  0  0  0  0  0  0  0  0  0
  -21.8917  -22.6838   23.9919 N   0  0  0  0  0  0  0  0  0  0  0  0
  -33.6307  -13.6786   17.7964 N   0  3  0  0  0  0  0  0  0  0  0  0
  -28.0109  -26.3474   19.1930 O   0  0  0  0  0  0  0  0  0  0  0  0
  -25.6072  -15.8531   20.3002 O   0  0  0  0  0  0  0  0  0  0  0  0
  -27.8547  -12.4673   18.4456 O   0  0  0  0  0  0  0  0  0  0  0  0
  -31.9612  -14.2863   19.9781 O   0  0  0  0  0  0  0  0  0  0  0  0
  -20.2734  -21.4953   22.8851 O   0  0  0  0  0  0  0  0  0  0  0  0
  -24.6402  -32.9040   21.6900 O   0  0  0  0  0  0  0  0  0  0  0  0
  -29.2325  -20.4472   20.9520 O   0  0  0  0  0  0  0  0  0  1  0  0
  -28.9803  -35.0778   24.3057 F   0  0  0  0  0  0  0  0  0  0  0  0
  -24.3432  -34.1413   24.1443 F   0  0  0  0  0  0  0  0  0  0  0  0
  1  2  1  0  0  0  0
  1  5  2  0  0  0  0
  2  6  2  0  0  0  0
  3  8  2  0  0  0  0
  3 17  1  0  0  0  0
  4  9  1  0  0  0  0
  4 17  2  0  0  0  0
  5 19  1  0  0  0  0
  6 21  1  0  0  0  0
  7 10  2  0  0  0  0
  7 20  1  0  0  0  0
  8 25  1  0  0  0  0
  9 25  2  0  0  0  0
 10 26  1  0  0  0  0
 11 12  2  0  0  0  0
 11 27  1  0  0  0  0
 12 28  1  0  0  0  0
 13 22  1  0  0  0  0
 13 26  2  0  0  0  0
 14 23  2  0  0  0  0
 14 24  1  0  0  0  0
 15 28  2  0  0  0  0
 15 29  1  0  0  0  0
 16 23  1  0  0  0  0
 16 70  2  0  0  0  0
 17 30  1  0  0  0  0
 18 30  1  0  0  0  0
 18 32  2  0  0  0  0
 18 33  1  0  0  0  0
 19 21  2  0  0  0  0
 19 38  1  0  0  0  0
 20 22  2  0  0  0  0
 20 39  1  0  0  0  0
 21 47  1  0  0  0  0
 22 40  1  0  0  0  0
 23 67  1  0  0  0  0
 24 31  2  0  0  0  0
 24 60  1  0  0  0  0
 25 86  1  0  0  0  0
 26 87  1  0  0  0  0
 27 29  2  0  0  0  0
 27 86  1  0  0  0  0
 28 88  1  0  0  0  0
 29 89  1  0  0  0  0
 30 71  2  0  0  0  0
 31 68  1  0  0  0  0
 31 70  1  0  0  0  0
 32 72  1  0  0  0  0
 32 75  1  0  0  0  0
 33 76  1  0  0  0  0
 33 81  2  0  0  0  0
 34 48  1  0  0  0  0
 34 77  1  0  0  0  0
 34 82  2  0  0  0  0
 35 65  1  0  0  0  0
 35 73  1  0  0  0  0
 35 83  2  0  0  0  0
 36 66  1  0  0  0  0
 36 78  1  0  0  0  0
 36 84  2  0  0  0  0
 37 74  1  0  0  0  0
 37 79  1  0  0  0  0
 37 85  2  0  0  0  0
 38 41  1  0  0  0  0
 39 48  1  0  0  0  0
 40 73  1  0  0  0  0
 41 43  1  0  0  0  0
 42 44  1  0  0  0  0
 42 45  1  0  0  0  0
 43 47  1  0  0  0  0
 44 49  1  0  0  0  0
 45 74  1  0  0  0  0
 46 49  1  0  0  0  0
 46 74  1  0  0  0  0
 47 77  1  0  0  0  0
 48 73  1  0  0  0  0
 49 72  1  0  0  0  0
 50 66  1  0  0  0  0
 51 67  1  0  0  0  0
 52 67  1  0  0  0  0
 53 68  1  0  0  0  0
 54 68  1  0  0  0  0
 55 68  1  0  0  0  0
 56 69  1  0  0  0  0
 57 69  1  0  0  0  0
 58 69  1  0  0  0  0
 59 80  1  0  0  0  0
 60 61  1  0  0  0  0
 61 62  1  0  0  0  0
 62 63  1  0  0  0  0
 63 79  1  0  0  0  0
 64 67  1  0  0  0  0
 64 87  1  0  0  0  0
 65 69  1  0  0  0  0
 65 78  1  0  0  0  0
 66 80  1  0  0  0  0
 71 72  1  0  0  0  0
M  CHG  1  80   1
M  ISO  4  37 100  64 101  79 100  87 101
M  END
> <Batch ID>
0108

> <Smiles>
CNC(C)C(=O)NC(C(=O)N1Cc2cc([101O:1][101CH2:1]C(C)(C)c3cnc(C(C)(C)C)c(CCCC[100NH:0][100C:0](=O)N4CCCC(n5nc(-c6ccc(Oc7ccc(F)cc7F)cc6)c(C(N)=O)c5N)C4)c3)ccc2CC1C(=O)NC1CCCc2ccccc21)C(C)(C)C

> <Shape>
0.208

> <Color>
0.059

> <Negative vol penalty>
0.000

$$$$

  -OEChem-04052319533D

 78 85  0     1  0  0  0  0  0999 V2000
  -16.0806  -26.1125   23.0793 C   0  0  0  0  0  0  0  0  0  0  0  0
  -16.9080  -25.7390   22.0251 C   0  0  0  0  0  0  0  0  0  0  0  0
  -27.4769  -14.9524   23.5338 C   0  0  0  0  0  0  0  0  0  0  0  0
  -26.4009  -14.4000   21.4423 C   0  0  0  0  0  0  0  0  0  0  0  0
  -16.3506  -27.2769   23.7971 C   0  0  0  0  0  0  0  0  0  0  0  0
  -18.0052  -26.5304   21.6873 C   0  0  0  0  0  0  0  0  0  0  0  0
  -22.1884  -23.7994   20.8577 C   0  0  0  0  0  0  0  0  0  0  0  0
  -26.6993  -13.9959   24.1865 C   0  0  0  0  0  0  0  0  0  0  0  0
  -25.6233  -13.4435   22.0950 C   0  0  0  0  0  0  0  0  0  0  0  0
  -22.2898  -23.1472   19.6297 C   0  0  0  0  0  0  0  0  0  0  0  0
  -26.0048  -10.2893   23.2467 C   0  0  0  0  0  0  0  0  0  0  0  0
  -25.8682   -9.0419   22.6376 C   0  0  0  0  0  0  0  0  0  0  0  0
  -23.7252  -24.9087   18.8196 C   0  0  0  0  0  0  0  0  0  0  0  0
  -23.4747   -9.3545   22.5344 C   0  0  0  0  0  0  0  0  0  0  0  0
  -27.3277  -15.1545   22.1617 C   0  0  0  0  0  0  0  0  0  0  0  0
  -29.3902  -15.9509   20.8891 C   0  0  0  0  0  0  0  0  0  0  0  0
  -17.4572  -28.0779   23.4740 C   0  0  0  0  0  0  0  0  0  0  0  0
  -22.8468  -25.0187   21.0726 C   0  0  0  0  0  0  0  0  0  0  0  0
  -18.2895  -27.7074   22.4005 C   0  0  0  0  0  0  0  0  0  0  0  0
  -23.6325  -25.5731   20.0521 C   0  0  0  0  0  0  0  0  0  0  0  0
  -25.7725  -13.2414   23.4671 C   0  0  0  0  0  0  0  0  0  0  0  0
  -23.0560  -23.7032   18.6094 C   0  0  0  0  0  0  0  0  0  0  0  0
  -24.8764  -11.0693   23.4997 C   0  0  0  0  0  0  0  0  0  0  0  0
  -24.6031   -8.5746   22.2815 C   0  0  0  0  0  0  0  0  0  0  0  0
  -23.6113  -10.6019   23.1435 C   0  0  0  0  0  0  0  0  0  0  0  0
  -28.1302  -16.1428   21.4869 C   0  0  0  0  0  0  0  0  0  0  0  0
  -29.7250  -17.1858   20.3897 C   0  0  0  0  0  0  0  0  0  0  0  0
  -30.1867  -14.7625   20.7937 C   0  0  0  0  0  0  0  0  0  0  0  0
  -21.9163  -27.9818   21.7493 C   0  0  0  0  0  0  0  0  0  0  0  0
  -25.1063  -28.5066   22.0143 C   0  0  0  0  0  0  0  0  0  0  0  0
  -28.2771  -27.5648   21.1741 C   0  0  0  0  0  0  0  0  0  0  0  0
  -26.4703  -21.9113   18.6789 C   0  0  0  0  0  0  0  0  0  0  0  0
  -17.6814  -29.3526   24.2483 C   0  0  0  0  0  0  0  0  0  0  0  0
  -22.7490  -25.6963   22.4119 C   0  0  0  0  0  0  0  0  0  0  0  0
  -24.3756  -26.8697   20.2389 C   0  0  0  0  0  0  0  0  0  0  0  0
  -19.0796  -29.9377   24.0666 C   0  0  0  0  0  0  0  0  0  0  0  0
  -29.0201  -21.8543   21.1633 C   0  0  0  0  0  0  0  0  0  0  0  0
  -19.4660  -29.9490   22.5910 C   0  0  0  0  0  0  0  0  0  0  0  0
  -29.1949  -20.3668   21.4740 C   0  0  0  0  0  0  0  0  0  0  0  0
  -27.5603  -22.2048   20.8840 C   0  0  0  0  0  0  0  0  0  0  0  0
  -27.0907  -19.8995   20.1500 C   0  0  0  0  0  0  0  0  0  0  0  0
  -19.5036  -28.5265   22.0196 C   0  0  1  0  0  0  0  0  0  0  0  0
  -23.0452  -27.1915   22.3482 C   0  0  1  0  0  0  0  0  0  0  0  0
  -28.5542  -19.4871   20.3836 C   0  0  2  0  0  0  0  0  0  0  0  0
  -30.7865  -27.5583   21.1935 C   0  0  0  0  0  0  0  0  0  0  0  0
  -24.5855  -18.7192   15.2570 C   0  0  0  0  0  0  0  0  0  0  0  0
  -24.7661  -30.8038   20.0351 C   0  0  0  0  0  0  0  0  0  0  0  0
  -27.2457  -30.7814   19.6899 C   0  0  0  0  0  0  0  0  0  0  0  0
  -26.3066  -31.2910   21.9440 C   0  0  0  0  0  0  0  0  0  0  0  0
  -23.4095  -21.5591   14.9308 C   0  0  0  0  0  0  0  0  0  0  0  0
  -28.3703  -25.6549   23.4330 C   0  0  0  0  0  0  0  0  0  0  0  0
  -25.3958  -21.4559   16.4887 C   0  0  0  0  0  0  0  0  0  0  0  0
  -23.0604  -21.6453   17.4175 C   0  0  0  0  0  0  0  0  0  1  0  0
  -26.2038  -28.9227   21.0650 C   0  0  1  0  0  0  0  0  0  0  0  0
  -29.5232  -27.3586   22.0163 C   0  0  2  0  0  0  0  0  0  0  0  0
  -23.7610  -19.4762   16.2874 C   0  0  2  0  0  0  0  0  0  0  0  0
  -26.1151  -30.4263   20.6790 C   0  0  0  0  0  0  0  0  0  0  0  0
  -23.9208  -21.0221   16.2886 C   0  0  1  0  0  0  0  0  0  0  0  0
  -27.6943  -17.4007   21.3784 N   0  0  0  0  0  0  0  0  0  0  0  0
  -28.6859  -18.0103   20.7067 N   0  0  0  0  0  0  0  0  0  0  0  0
  -24.2435  -27.4974   21.5641 N   0  0  0  0  0  0  0  0  0  0  0  0
  -27.0128  -21.3356   19.8396 N   0  0  0  0  0  0  0  0  0  0  0  0
  -30.8040  -17.6359   19.7149 N   0  0  0  0  0  0  0  0  0  0  0  0
  -29.6929  -13.5799   21.3610 N   0  0  0  0  0  0  0  0  0  0  0  0
  -20.7177  -27.8511   22.4246 N   0  0  0  0  0  0  0  0  0  0  0  0
  -27.4602  -28.5424   21.7016 N   0  0  0  0  0  0  0  0  0  0  0  0
  -25.9789  -21.0162   17.7367 N   0  0  0  0  0  0  0  0  0  0  0  0
  -29.5438  -25.9800   22.5820 N   0  3  0  0  0  0  0  0  0  0  0  0
  -31.3106  -14.7536   20.2367 O   0  0  0  0  0  0  0  0  0  0  0  0
  -22.1180  -28.6611   20.7496 O   0  0  0  0  0  0  0  0  0  0  0  0
  -25.0222  -29.0519   23.1176 O   0  0  0  0  0  0  0  0  0  0  0  0
  -28.0528  -26.9254   20.1488 O   0  0  0  0  0  0  0  0  0  0  0  0
  -26.4319  -23.1325   18.4936 O   0  0  0  0  0  0  0  0  0  0  0  0
  -25.0137  -12.3078   24.1037 O   0  0  0  0  0  0  0  0  0  0  0  0
  -23.1562  -23.0690   17.4096 O   0  0  0  0  0  0  0  0  0  1  0  0
  -24.4722   -7.3773   21.6952 F   0  0  0  0  0  0  0  0  0  0  0  0
  -22.5237  -11.3473   23.3829 F   0  0  0  0  0  0  0  0  0  0  0  0
  -24.1214  -19.0037   17.5187 F   0  0  0  0  0  0  0  0  0  0  0  0
  1  2  1  0  0  0  0
  1  5  2  0  0  0  0
  2  6  2  0  0  0  0
  3  8  2  0  0  0  0
  3 15  1  0  0  0  0
  4  9  1  0  0  0  0
  4 15  2  0  0  0  0
  5 17  1  0  0  0  0
  6 19  1  0  0  0  0
  7 10  2  0  0  0  0
  7 18  1  0  0  0  0
  8 21  1  0  0  0  0
  9 21  2  0  0  0  0
 10 22  1  0  0  0  0
 11 12  2  0  0  0  0
 11 23  1  0  0  0  0
 12 24  1  0  0  0  0
 13 20  1  0  0  0  0
 13 22  2  0  0  0  0
 14 24  2  0  0  0  0
 14 25  1  0  0  0  0
 15 26  1  0  0  0  0
 16 26  1  0  0  0  0
 16 27  2  0  0  0  0
 16 28  1  0  0  0  0
 17 19  2  0  0  0  0
 17 33  1  0  0  0  0
 18 20  2  0  0  0  0
 18 34  1  0  0  0  0
 19 42  1  0  0  0  0
 20 35  1  0  0  0  0
 21 74  1  0  0  0  0
 22 75  1  0  0  0  0
 23 25  2  0  0  0  0
 23 74  1  0  0  0  0
 24 76  1  0  0  0  0
 25 77  1  0  0  0  0
 26 59  2  0  0  0  0
 27 60  1  0  0  0  0
 27 63  1  0  0  0  0
 28 64  1  0  0  0  0
 28 69  2  0  0  0  0
 29 43  1  0  0  0  0
 29 65  1  0  0  0  0
 29 70  2  0  0  0  0
 30 54  1  0  0  0  0
 30 61  1  0  0  0  0
 30 71  2  0  0  0  0
 31 55  1  0  0  0  0
 31 66  1  0  0  0  0
 31 72  2  0  0  0  0
 32 62  1  0  0  0  0
 32 67  1  0  0  0  0
 32 73  2  0  0  0  0
 33 36  1  0  0  0  0
 34 43  1  0  0  0  0
 35 61  1  0  0  0  0
 36 38  1  0  0  0  0
 37 39  1  0  0  0  0
 37 40  1  0  0  0  0
 38 42  1  0  0  0  0
 39 44  1  0  0  0  0
 40 62  1  0  0  0  0
 41 44  1  0  0  0  0
 41 62  1  0  0  0  0
 42 65  1  0  0  0  0
 43 61  1  0  0  0  0
 44 60  1  0  0  0  0
 45 55  1  0  0  0  0
 46 56  1  0  0  0  0
 47 57  1  0  0  0  0
 48 57  1  0  0  0  0
 49 57  1  0  0  0  0
 50 58  1  0  0  0  0
 51 68  1  0  0  0  0
 52 58  1  0  0  0  0
 52 67  1  0  0  0  0
 53 58  1  0  0  0  0
 53 75  1  0  0  0  0
 54 57  1  0  0  0  0
 54 66  1  0  0  0  0
 55 68  1  0  0  0  0
 56 58  1  0  0  0  0
 56 78  1  0  0  0  0
 59 60  1  0  0  0  0
M  CHG  1  68   1
M  ISO  4  32 100  53 101  67 100  75 101
M  END
> <Batch ID>
0108

> <Smiles>
CNC(C)C(=O)NC(C(=O)N1Cc2cc([101O:1][101CH2:1]C(C)(C[100NH:0][100C:0](=O)N3CCCC(n4nc(-c5ccc(Oc6ccc(F)cc6F)cc5)c(C(N)=O)c4N)C3)C(C)F)ccc2CC1C(=O)NC1CCCc2ccccc21)C(C)(C)C

> <Shape>
0.219

> <Color>
0.059

> <Negative vol penalty>
0.000

$$$$

  -OEChem-04052319533D

 84 92  0     1  0  0  0  0  0999 V2000
  -37.1597  -13.9168   24.3685 C   0  0  0  0  0  0  0  0  0  0  0  0
  -36.5344  -15.0632   23.8886 C   0  0  0  0  0  0  0  0  0  0  0  0
  -19.7728  -26.8386   23.8866 C   0  0  0  0  0  0  0  0  0  0  0  0
  -20.2010  -27.1286   21.5266 C   0  0  0  0  0  0  0  0  0  0  0  0
  -36.7570  -12.6620   23.9132 C   0  0  0  0  0  0  0  0  0  0  0  0
  -35.5067  -14.9554   22.9522 C   0  0  0  0  0  0  0  0  0  0  0  0
  -30.5583  -18.5337   22.4889 C   0  0  0  0  0  0  0  0  0  0  0  0
  -18.5684  -27.5293   23.7529 C   0  0  0  0  0  0  0  0  0  0  0  0
  -18.9965  -27.8192   21.3929 C   0  0  0  0  0  0  0  0  0  0  0  0
  -30.2601  -19.6204   21.6679 C   0  0  0  0  0  0  0  0  0  0  0  0
  -15.4381  -26.8871   22.6474 C   0  0  0  0  0  0  0  0  0  0  0  0
  -14.3108  -26.3507   23.2695 C   0  0  0  0  0  0  0  0  0  0  0  0
  -29.1123  -18.1455   20.1427 C   0  0  0  0  0  0  0  0  0  0  0  0
  -14.0789  -28.3637   24.5852 C   0  0  0  0  0  0  0  0  0  0  0  0
  -20.5892  -26.6383   22.7734 C   0  0  0  0  0  0  0  0  0  0  0  0
  -22.0104  -24.6011   23.3544 C   0  0  0  0  0  0  0  0  0  0  0  0
  -35.7174  -12.5383   22.9781 C   0  0  0  0  0  0  0  0  0  0  0  0
  -30.1444  -17.2410   22.1368 C   0  0  0  0  0  0  0  0  0  0  0  0
  -35.0907  -13.6978   22.4830 C   0  0  0  0  0  0  0  0  0  0  0  0
  -29.4042  -17.0445   20.9622 C   0  0  0  0  0  0  0  0  0  0  0  0
  -18.1802  -28.0196   22.5061 C   0  0  0  0  0  0  0  0  0  0  0  0
  -29.5395  -19.4260   20.4932 C   0  0  0  0  0  0  0  0  0  0  0  0
  -15.8859  -28.1618   22.9943 C   0  0  0  0  0  0  0  0  0  0  0  0
  -13.6312  -27.0889   24.2383 C   0  0  0  0  0  0  0  0  0  0  0  0
  -15.2063  -28.9001   23.9631 C   0  0  0  0  0  0  0  0  0  0  0  0
  -21.8338  -25.9254   22.9109 C   0  0  0  0  0  0  0  0  0  0  0  0
  -23.3682  -24.4004   23.3042 C   0  0  0  0  0  0  0  0  0  0  0  0
  -28.8863  -24.3567   16.3769 C   0  0  0  0  0  0  0  0  0  0  0  0
  -21.0343  -23.6383   23.7740 C   0  0  0  0  0  0  0  0  0  0  0  0
  -31.6330  -14.5135   21.4670 C   0  0  0  0  0  0  0  0  0  0  0  0
  -28.6132  -13.3301   21.4166 C   0  0  0  0  0  0  0  0  0  0  0  0
  -25.2762  -13.9212   21.0139 C   0  0  0  0  0  0  0  0  0  0  0  0
  -27.7456  -26.9152   20.0847 C   0  0  0  0  0  0  0  0  0  0  0  0
  -35.3488  -11.1632   22.4801 C   0  0  0  0  0  0  0  0  0  0  0  0
  -30.4510  -16.0831   23.0466 C   0  0  0  0  0  0  0  0  0  0  0  0
  -28.9193  -15.6796   20.5494 C   0  0  0  0  0  0  0  0  0  0  0  0
  -33.9993  -11.1147   21.7683 C   0  0  0  0  0  0  0  0  0  0  0  0
  -27.5169  -26.7606   23.6344 C   0  0  0  0  0  0  0  0  0  0  0  0
  -33.8788  -12.2646   20.7733 C   0  0  0  0  0  0  0  0  0  0  0  0
  -26.0504  -26.4095   23.8915 C   0  0  0  0  0  0  0  0  0  0  0  0
  -27.6720  -27.6934   22.4353 C   0  0  0  0  0  0  0  0  0  0  0  0
  -29.6199  -22.1649   17.3934 C   0  0  0  0  0  0  0  0  0  0  0  0
  -25.5707  -26.8645   21.4499 C   0  0  0  0  0  0  0  0  0  0  0  0
  -27.3949  -22.4365   18.6165 C   0  0  0  0  0  0  0  0  0  0  0  0
  -33.9554  -13.6206   21.4855 C   0  0  1  0  0  0  0  0  0  0  0  0
  -28.2204  -24.6667   17.7118 C   0  0  1  0  0  0  0  0  0  0  0  0
  -30.4234  -14.7366   22.3301 C   0  0  1  0  0  0  0  0  0  0  0  0
  -28.2689  -21.5284   17.7492 C   0  0  2  0  0  0  0  0  0  0  0  0
  -25.3682  -25.8811   22.6153 C   0  0  2  0  0  0  0  0  0  0  0  0
  -23.0569  -12.7502   20.9918 C   0  0  0  0  0  0  0  0  0  0  0  0
  -29.4190  -21.4249   14.5430 C   0  0  0  0  0  0  0  0  0  0  0  0
  -31.6009  -22.4876   15.2182 C   0  0  0  0  0  0  0  0  0  0  0  0
  -29.2261  -12.2262   18.6389 C   0  0  0  0  0  0  0  0  0  0  0  0
  -26.7651  -11.9240   18.2921 C   0  0  0  0  0  0  0  0  0  0  0  0
  -27.9285  -10.6784   20.1136 C   0  0  0  0  0  0  0  0  0  0  0  0
  -24.2802  -15.5179   23.2981 C   0  0  0  0  0  0  0  0  0  0  0  0
  -27.6635  -26.0888   17.7460 C   0  0  0  0  0  0  0  0  0  0  0  0
  -28.5060  -20.2134   18.5012 C   0  0  0  0  0  0  0  0  0  1  0  0
  -27.5470  -13.1655   20.3606 C   0  0  1  0  0  0  0  0  0  0  0  0
  -24.0724  -13.5019   21.8382 C   0  0  2  0  0  0  0  0  0  0  0  0
  -30.1069  -22.6964   15.0182 C   0  0  0  0  0  0  0  0  0  0  0  0
  -27.8773  -12.0241   19.3578 C   0  0  0  0  0  0  0  0  0  0  0  0
  -22.9872  -26.5239   22.6020 N   0  0  0  0  0  0  0  0  0  0  0  0
  -23.9016  -25.5712   22.8518 N   0  0  0  0  0  0  0  0  0  0  0  0
  -29.5154  -23.1151   16.2828 N   0  0  0  0  0  0  0  0  0  0  0  0
  -29.2496  -14.5784   21.4691 N   0  0  0  0  0  0  0  0  0  0  0  0
  -27.0044  -27.1335   21.2578 N   0  0  0  0  0  0  0  0  0  0  0  0
  -24.1460  -23.3384   23.6036 N   0  0  0  0  0  0  0  0  0  0  0  0
  -20.4773  -22.7876   22.8094 N   0  0  0  0  0  0  0  0  0  0  0  0
  -32.6950  -13.9259   22.1278 N   0  0  0  0  0  0  0  0  0  0  0  0
  -26.2882  -12.9866   21.0759 N   0  0  0  0  0  0  0  0  0  0  0  0
  -27.0377  -26.3759   19.0175 N   0  0  0  0  0  0  0  0  0  0  0  0
  -27.0688  -23.7235   17.9370 N   0  3  0  0  0  0  0  0  0  0  0  0
  -23.4031  -14.6982   22.4231 N   0  3  0  0  0  0  0  0  0  0  0  0
  -28.8487  -25.1709   15.4508 O   0  0  0  0  0  0  0  0  0  0  0  0
  -20.6549  -23.5465   24.9661 O   0  0  0  0  0  0  0  0  0  0  0  0
  -31.6045  -14.8482   20.2886 O   0  0  0  0  0  0  0  0  0  0  0  0
  -28.8669  -12.3884   22.1718 O   0  0  0  0  0  0  0  0  0  0  0  0
  -25.3137  -14.9709   20.3757 O   0  0  0  0  0  0  0  0  0  0  0  0
  -28.9502  -27.1762   19.9968 O   0  0  0  0  0  0  0  0  0  0  0  0
  -17.0048  -28.6933   22.3753 O   0  0  0  0  0  0  0  0  0  0  0  0
  -29.2477  -20.4849   19.6898 O   0  0  0  0  0  0  0  0  0  1  0  0
  -12.5477  -26.5743   24.8345 F   0  0  0  0  0  0  0  0  0  0  0  0
  -15.6310  -30.1257   24.2997 F   0  0  0  0  0  0  0  0  0  0  0  0
  1  2  1  0  0  0  0
  1  5  2  0  0  0  0
  2  6  2  0  0  0  0
  3  8  2  0  0  0  0
  3 15  1  0  0  0  0
  4  9  1  0  0  0  0
  4 15  2  0  0  0  0
  5 17  1  0  0  0  0
  6 19  1  0  0  0  0
  7 10  2  0  0  0  0
  7 18  1  0  0  0  0
  8 21  1  0  0  0  0
  9 21  2  0  0  0  0
 10 22  1  0  0  0  0
 11 12  2  0  0  0  0
 11 23  1  0  0  0  0
 12 24  1  0  0  0  0
 13 20  1  0  0  0  0
 13 22  2  0  0  0  0
 14 24  2  0  0  0  0
 14 25  1  0  0  0  0
 15 26  1  0  0  0  0
 16 26  1  0  0  0  0
 16 27  2  0  0  0  0
 16 29  1  0  0  0  0
 17 19  2  0  0  0  0
 17 34  1  0  0  0  0
 18 20  2  0  0  0  0
 18 35  1  0  0  0  0
 19 45  1  0  0  0  0
 20 36  1  0  0  0  0
 21 81  1  0  0  0  0
 22 82  1  0  0  0  0
 23 25  2  0  0  0  0
 23 81  1  0  0  0  0
 24 83  1  0  0  0  0
 25 84  1  0  0  0  0
 26 63  2  0  0  0  0
 27 64  1  0  0  0  0
 27 68  1  0  0  0  0
 28 46  1  0  0  0  0
 28 65  1  0  0  0  0
 28 75  2  0  0  0  0
 29 69  1  0  0  0  0
 29 76  2  0  0  0  0
 30 47  1  0  0  0  0
 30 70  1  0  0  0  0
 30 77  2  0  0  0  0
 31 59  1  0  0  0  0
 31 66  1  0  0  0  0
 31 78  2  0  0  0  0
 32 60  1  0  0  0  0
 32 71  1  0  0  0  0
 32 79  2  0  0  0  0
 33 67  1  0  0  0  0
 33 72  1  0  0  0  0
 33 80  2  0  0  0  0
 34 37  1  0  0  0  0
 35 47  1  0  0  0  0
 36 66  1  0  0  0  0
 37 39  1  0  0  0  0
 38 40  1  0  0  0  0
 38 41  1  0  0  0  0
 39 45  1  0  0  0  0
 40 49  1  0  0  0  0
 41 67  1  0  0  0  0
 42 48  1  0  0  0  0
 42 65  1  0  0  0  0
 43 49  1  0  0  0  0
 43 67  1  0  0  0  0
 44 48  1  0  0  0  0
 44 73  1  0  0  0  0
 45 70  1  0  0  0  0
 46 57  1  0  0  0  0
 46 73  1  0  0  0  0
 47 66  1  0  0  0  0
 48 58  1  0  0  0  0
 49 64  1  0  0  0  0
 50 60  1  0  0  0  0
 51 61  1  0  0  0  0
 52 61  1  0  0  0  0
 53 62  1  0  0  0  0
 54 62  1  0  0  0  0
 55 62  1  0  0  0  0
 56 74  1  0  0  0  0
 57 72  1  0  0  0  0
 58 82  1  0  0  0  0
 59 62  1  0  0  0  0
 59 71  1  0  0  0  0
 60 74  1  0  0  0  0
 61 65  1  0  0  0  0
 63 64  1  0  0  0  0
M  CHG  2  73   1  74   1
M  ISO  4  33 100  58 101  72 100  82 101
M  END
> <Batch ID>
0108

> <Smiles>
CNC(C)C(=O)NC(C(=O)N1Cc2cc([101O:1][101CH2:1]C3CNC(C[100NH:0][100C:0](=O)N4CCCC(n5nc(-c6ccc(Oc7ccc(F)cc7F)cc6)c(C(N)=O)c5N)C4)C(=O)N(C(C)C)C3)ccc2CC1C(=O)NC1CCCc2ccccc21)C(C)(C)C

> <Shape>
0.217

> <Color>
0.080

> <Negative vol penalty>
0.000

$$$$

  -OEChem-04052319533D

 81 89  0     1  0  0  0  0  0999 V2000
  -24.1706  -11.6264   20.5268 C   0  0  0  0  0  0  0  0  0  0  0  0
  -23.7632  -12.9364   20.7576 C   0  0  0  0  0  0  0  0  0  0  0  0
  -25.3340  -28.7416   19.5638 C   0  0  0  0  0  0  0  0  0  0  0  0
  -26.1518  -27.3105   21.3302 C   0  0  0  0  0  0  0  0  0  0  0  0
  -25.5205  -11.2905   20.6210 C   0  0  0  0  0  0  0  0  0  0  0  0
  -24.7054  -13.9112   21.0839 C   0  0  0  0  0  0  0  0  0  0  0  0
  -23.9973  -18.2285   18.5335 C   0  0  0  0  0  0  0  0  0  0  0  0
  -26.5335  -29.4531   19.5848 C   0  0  0  0  0  0  0  0  0  0  0  0
  -27.3514  -28.0219   21.3512 C   0  0  0  0  0  0  0  0  0  0  0  0
  -22.9808  -19.0720   18.9794 C   0  0  0  0  0  0  0  0  0  0  0  0
  -30.4899  -29.6864   22.1188 C   0  0  0  0  0  0  0  0  0  0  0  0
  -31.0107  -30.0427   23.3628 C   0  0  0  0  0  0  0  0  0  0  0  0
  -24.6179  -20.4388   20.1069 C   0  0  0  0  0  0  0  0  0  0  0  0
  -29.0097  -31.3108   23.8373 C   0  0  0  0  0  0  0  0  0  0  0  0
  -25.1431  -27.6703   20.4365 C   0  0  0  0  0  0  0  0  0  0  0  0
  -23.6008  -25.8018   19.6379 C   0  0  0  0  0  0  0  0  0  0  0  0
  -26.4809  -12.2637   20.9391 C   0  0  0  0  0  0  0  0  0  0  0  0
  -25.3328  -18.4780   18.8805 C   0  0  0  0  0  0  0  0  0  0  0  0
  -26.0693  -13.5878   21.1837 C   0  0  0  0  0  0  0  0  0  0  0  0
  -25.6497  -19.5983   19.6619 C   0  0  0  0  0  0  0  0  0  0  0  0
  -27.5423  -29.0932   20.4785 C   0  0  0  0  0  0  0  0  0  0  0  0
  -23.2907  -20.1758   19.7686 C   0  0  0  0  0  0  0  0  0  0  0  0
  -29.2290  -30.1423   21.7340 C   0  0  0  0  0  0  0  0  0  0  0  0
  -30.2706  -30.8549   24.2220 C   0  0  0  0  0  0  0  0  0  0  0  0
  -28.4889  -30.9545   22.5933 C   0  0  0  0  0  0  0  0  0  0  0  0
  -23.9039  -26.9354   20.4157 C   0  0  0  0  0  0  0  0  0  0  0  0
  -22.3090  -25.4855   19.9809 C   0  0  0  0  0  0  0  0  0  0  0  0
  -24.4143  -25.0977   18.6902 C   0  0  0  0  0  0  0  0  0  0  0  0
  -27.5566  -16.9040   20.5179 C   0  0  0  0  0  0  0  0  0  0  0  0
  -29.4616  -19.3266   19.5058 C   0  0  0  0  0  0  0  0  0  0  0  0
  -29.7145  -22.5466   18.4039 C   0  0  0  0  0  0  0  0  0  0  0  0
  -19.0192  -26.5226   24.8750 C   0  0  0  0  0  0  0  0  0  0  0  0
  -27.9228  -11.8431   21.0759 C   0  0  0  0  0  0  0  0  0  0  0  0
  -26.4205  -17.5736   18.3692 C   0  0  0  0  0  0  0  0  0  0  0  0
  -27.0699  -19.9216   20.0454 C   0  0  0  0  0  0  0  0  0  0  0  0
  -28.9029  -13.0134   21.0588 C   0  0  0  0  0  0  0  0  0  0  0  0
  -18.2504  -27.4865   21.5349 C   0  0  0  0  0  0  0  0  0  0  0  0
  -28.4186  -14.1288   21.9798 C   0  0  0  0  0  0  0  0  0  0  0  0
  -19.5848  -27.3522   20.7991 C   0  0  0  0  0  0  0  0  0  0  0  0
  -19.4445  -21.5375   24.9583 C   0  0  0  0  0  0  0  0  0  0  0  0
  -18.4420  -27.9893   22.9640 C   0  0  0  0  0  0  0  0  0  0  0  0
  -20.7281  -27.0717   23.0380 C   0  0  0  0  0  0  0  0  0  0  0  0
  -27.0644  -14.6785   21.5157 C   0  0  1  0  0  0  0  0  0  0  0  0
  -27.6916  -17.6326   19.2108 C   0  0  1  0  0  0  0  0  0  0  0  0
  -20.0453  -22.7097   24.2279 C   0  0  1  0  0  0  0  0  0  0  0  0
  -20.0086  -22.6986   25.7343 C   0  0  1  0  0  0  0  0  0  0  0  0
  -20.5909  -26.5144   21.6109 C   0  0  2  0  0  0  0  0  0  0  0  0
  -31.4064  -24.2584   17.6935 C   0  0  0  0  0  0  0  0  0  0  0  0
  -18.5769  -22.9941   27.7557 C   0  0  0  0  0  0  0  0  0  0  0  0
  -21.0099  -24.9987   27.5692 C   0  0  0  0  0  0  0  0  0  0  0  0
  -30.2305  -19.7744   22.4244 C   0  0  0  0  0  0  0  0  0  0  0  0
  -31.1275  -22.0187   21.7712 C   0  0  0  0  0  0  0  0  0  0  0  0
  -32.1298  -19.9480   20.8068 C   0  0  0  0  0  0  0  0  0  0  0  0
  -28.5413  -22.7513   15.6946 C   0  0  0  0  0  0  0  0  0  0  0  0
  -21.3493  -22.5591   23.5072 C   0  0  0  0  0  0  0  0  0  0  0  0
  -21.1758  -21.8585   22.1623 C   0  0  0  0  0  0  0  0  0  0  0  0
  -22.5087  -21.6610   21.4534 C   0  0  0  0  0  0  0  0  0  1  0  0
  -29.8364  -20.6872   20.0416 C   0  0  1  0  0  0  0  0  0  0  0  0
  -30.4666  -23.1547   17.2338 C   0  0  2  0  0  0  0  0  0  0  0  0
  -19.0985  -23.6226   26.4665 C   0  0  1  0  0  0  0  0  0  0  0  0
  -19.7421  -25.0265   26.7184 C   0  0  2  0  0  0  0  0  0  0  0  0
  -30.8040  -20.6002   21.2556 C   0  0  0  0  0  0  0  0  0  0  0  0
  -22.8865  -27.3137   21.1940 N   0  0  0  0  0  0  0  0  0  0  0  0
  -21.9314  -26.4129   20.9069 N   0  0  0  0  0  0  0  0  0  0  0  0
  -28.0973  -19.0038   19.5262 N   0  0  0  0  0  0  0  0  0  0  0  0
  -19.4065  -27.1507   23.6798 N   0  0  0  0  0  0  0  0  0  0  0  0
  -21.4705  -24.5074   19.5775 N   0  0  0  0  0  0  0  0  0  0  0  0
  -25.7179  -25.5567   18.4574 N   0  0  0  0  0  0  0  0  0  0  0  0
  -27.2394  -15.5655   20.3857 N   0  0  0  0  0  0  0  0  0  0  0  0
  -30.3645  -21.4406   18.9094 N   0  0  0  0  0  0  0  0  0  0  0  0
  -19.9917  -25.7408   25.4863 N   0  0  0  0  0  0  0  0  0  0  0  0
  -29.5103  -23.7323   16.2474 N   0  3  0  0  0  0  0  0  0  0  0  0
  -23.9918  -24.1013   18.0560 O   0  0  0  0  0  0  0  0  0  0  0  0
  -27.7291  -17.5107   21.5685 O   0  0  0  0  0  0  0  0  0  0  0  0
  -30.3459  -18.5805   19.0780 O   0  0  0  0  0  0  0  0  0  0  0  0
  -28.6583  -23.0089   18.8295 O   0  0  0  0  0  0  0  0  0  0  0  0
  -17.8886  -26.6448   25.3585 O   0  0  0  0  0  0  0  0  0  0  0  0
  -28.7130  -29.7871   20.4991 O   0  0  0  0  0  0  0  0  0  0  0  0
  -22.3004  -21.0004   20.2058 O   0  0  0  0  0  0  0  0  0  1  0  0
  -30.7701  -31.1957   25.4172 F   0  0  0  0  0  0  0  0  0  0  0  0
  -27.2765  -31.3946   22.2296 F   0  0  0  0  0  0  0  0  0  0  0  0
  1  2  1  0  0  0  0
  1  5  2  0  0  0  0
  2  6  2  0  0  0  0
  3  8  2  0  0  0  0
  3 15  1  0  0  0  0
  4  9  1  0  0  0  0
  4 15  2  0  0  0  0
  5 17  1  0  0  0  0
  6 19  1  0  0  0  0
  7 10  2  0  0  0  0
  7 18  1  0  0  0  0
  8 21  1  0  0  0  0
  9 21  2  0  0  0  0
 10 22  1  0  0  0  0
 11 12  2  0  0  0  0
 11 23  1  0  0  0  0
 12 24  1  0  0  0  0
 13 20  1  0  0  0  0
 13 22  2  0  0  0  0
 14 24  2  0  0  0  0
 14 25  1  0  0  0  0
 15 26  1  0  0  0  0
 16 26  1  0  0  0  0
 16 27  2  0  0  0  0
 16 28  1  0  0  0  0
 17 19  2  0  0  0  0
 17 33  1  0  0  0  0
 18 20  2  0  0  0  0
 18 34  1  0  0  0  0
 19 43  1  0  0  0  0
 20 35  1  0  0  0  0
 21 78  1  0  0  0  0
 22 79  1  0  0  0  0
 23 25  2  0  0  0  0
 23 78  1  0  0  0  0
 24 80  1  0  0  0  0
 25 81  1  0  0  0  0
 26 63  2  0  0  0  0
 27 64  1  0  0  0  0
 27 67  1  0  0  0  0
 28 68  1  0  0  0  0
 28 73  2  0  0  0  0
 29 44  1  0  0  0  0
 29 69  1  0  0  0  0
 29 74  2  0  0  0  0
 30 58  1  0  0  0  0
 30 65  1  0  0  0  0
 30 75  2  0  0  0  0
 31 59  1  0  0  0  0
 31 70  1  0  0  0  0
 31 76  2  0  0  0  0
 32 66  1  0  0  0  0
 32 71  1  0  0  0  0
 32 77  2  0  0  0  0
 33 36  1  0  0  0  0
 34 44  1  0  0  0  0
 35 65  1  0  0  0  0
 36 38  1  0  0  0  0
 37 39  1  0  0  0  0
 37 41  1  0  0  0  0
 38 43  1  0  0  0  0
 39 47  1  0  0  0  0
 40 45  1  0  0  0  0
 40 46  1  0  0  0  0
 41 66  1  0  0  0  0
 42 47  1  0  0  0  0
 42 66  1  0  0  0  0
 43 69  1  0  0  0  0
 44 65  1  0  0  0  0
 45 46  1  0  0  0  0
 45 55  1  0  0  0  0
 46 60  1  0  0  0  0
 47 64  1  0  0  0  0
 48 59  1  0  0  0  0
 49 60  1  0  0  0  0
 50 61  1  0  0  0  0
 51 62  1  0  0  0  0
 52 62  1  0  0  0  0
 53 62  1  0  0  0  0
 54 72  1  0  0  0  0
 55 56  1  0  0  0  0
 56 57  1  0  0  0  0
 57 79  1  0  0  0  0
 58 62  1  0  0  0  0
 58 70  1  0  0  0  0
 59 72  1  0  0  0  0
 60 61  1  0  0  0  0
 61 71  1  0  0  0  0
 63 64  1  0  0  0  0
M  CHG  1  72   1
M  ISO  4  32 100  57 101  71 100  79 101
M  END
> <Batch ID>
0108

> <Smiles>
CNC(C)C(=O)NC(C(=O)N1Cc2cc([101O:1][101CH2:1]CCC3CC3C(C)C(C)[100NH:0][100C:0](=O)N3CCCC(n4nc(-c5ccc(Oc6ccc(F)cc6F)cc5)c(C(N)=O)c4N)C3)ccc2CC1C(=O)NC1CCCc2ccccc21)C(C)(C)C

> <Shape>
0.197

> <Color>
0.073

> <Negative vol penalty>
0.000

$$$$

  -OEChem-04052319533D

 83 91  0     1  0  0  0  0  0999 V2000
  -19.5246  -28.8465   22.0578 C   0  0  0  0  0  0  0  0  0  0  0  0
  -20.6957  -28.3084   22.5816 C   0  0  0  0  0  0  0  0  0  0  0  0
  -29.2328  -23.9705   18.4697 C   0  0  0  0  0  0  0  0  0  0  0  0
  -27.2815  -23.6152   19.8493 C   0  0  0  0  0  0  0  0  0  0  0  0
  -18.3938  -28.0439   21.9132 C   0  0  0  0  0  0  0  0  0  0  0  0
  -20.7363  -26.9675   22.9621 C   0  0  0  0  0  0  0  0  0  0  0  0
  -25.2172  -21.3874   23.2792 C   0  0  0  0  0  0  0  0  0  0  0  0
  -28.7523  -25.2309   18.1146 C   0  0  0  0  0  0  0  0  0  0  0  0
  -26.8010  -24.8756   19.4942 C   0  0  0  0  0  0  0  0  0  0  0  0
  -25.6843  -20.4310   24.1796 C   0  0  0  0  0  0  0  0  0  0  0  0
  -25.2344  -28.1463   19.2355 C   0  0  0  0  0  0  0  0  0  0  0  0
  -24.7224  -28.9554   20.2498 C   0  0  0  0  0  0  0  0  0  0  0  0
  -23.6935  -19.1197   23.8103 C   0  0  0  0  0  0  0  0  0  0  0  0
  -28.1737  -15.4181   23.9145 C   0  0  0  0  0  0  0  0  0  0  0  0
  -26.8619  -28.9039   21.3709 C   0  0  0  0  0  0  0  0  0  0  0  0
  -28.4974  -23.1626   19.3370 C   0  0  0  0  0  0  0  0  0  0  0  0
  -30.2038  -21.5648   20.3582 C   0  0  0  0  0  0  0  0  0  0  0  0
  -18.4234  -26.6900   22.2832 C   0  0  0  0  0  0  0  0  0  0  0  0
  -23.9776  -21.2222   22.6447 C   0  0  0  0  0  0  0  0  0  0  0  0
  -19.6044  -26.1463   22.8236 C   0  0  0  0  0  0  0  0  0  0  0  0
  -23.2141  -20.0742   22.9003 C   0  0  0  0  0  0  0  0  0  0  0  0
  -27.0753  -15.7935   24.7266 C   0  0  0  0  0  0  0  0  0  0  0  0
  -27.5364  -25.6835   18.6268 C   0  0  0  0  0  0  0  0  0  0  0  0
  -24.9212  -19.2983   24.4475 C   0  0  0  0  0  0  0  0  0  0  0  0
  -26.5602  -27.7160   19.2889 C   0  0  0  0  0  0  0  0  0  0  0  0
  -25.5361  -29.3342   21.3175 C   0  0  0  0  0  0  0  0  0  0  0  0
  -27.3739  -28.0948   20.3566 C   0  0  0  0  0  0  0  0  0  0  0  0
  -28.9929  -21.8603   19.7038 C   0  0  0  0  0  0  0  0  0  0  0  0
  -27.7088  -14.5121   22.9870 C   0  0  0  0  0  0  0  0  0  0  0  0
  -25.9726  -15.1053   24.2708 C   0  0  0  0  0  0  0  0  0  0  0  0
  -30.2063  -20.1963   20.4743 C   0  0  0  0  0  0  0  0  0  0  0  0
  -31.2341  -22.4485   20.8200 C   0  0  0  0  0  0  0  0  0  0  0  0
  -21.2425  -22.8412   22.6093 C   0  0  0  0  0  0  0  0  0  0  0  0
  -20.4376  -20.6696   20.3381 C   0  0  0  0  0  0  0  0  0  0  0  0
  -20.9315  -17.5769   18.9823 C   0  0  0  0  0  0  0  0  0  0  0  0
  -25.8118  -16.2606   20.7088 C   0  0  0  0  0  0  0  0  0  0  0  0
  -17.1618  -25.8739   22.1523 C   0  0  0  0  0  0  0  0  0  0  0  0
  -23.5002  -22.2500   21.6558 C   0  0  0  0  0  0  0  0  0  0  0  0
  -21.8859  -19.8398   22.2300 C   0  0  0  0  0  0  0  0  0  0  0  0
  -17.3997  -24.3681   22.2305 C   0  0  0  0  0  0  0  0  0  0  0  0
  -28.5412  -16.2533   18.3322 C   0  0  0  0  0  0  0  0  0  0  0  0
  -18.3206  -24.0330   23.3994 C   0  0  0  0  0  0  0  0  0  0  0  0
  -29.0806  -17.6767   18.4842 C   0  0  0  0  0  0  0  0  0  0  0  0
  -27.0197  -16.2240   18.4433 C   0  0  0  0  0  0  0  0  0  0  0  0
  -27.0195  -18.2473   19.8503 C   0  0  0  0  0  0  0  0  0  0  0  0
  -19.6951  -24.6900   23.2247 C   0  0  1  0  0  0  0  0  0  0  0  0
  -21.9878  -22.2302   21.4566 C   0  0  1  0  0  0  0  0  0  0  0  0
  -28.5541  -18.3412   19.7701 C   0  0  2  0  0  0  0  0  0  0  0  0
  -28.4307  -13.8086   21.9068 C   0  0  0  0  0  0  0  0  0  0  0  0
  -24.5745  -15.1201   24.7517 C   0  0  0  0  0  0  0  0  0  0  0  0
  -28.4673  -16.7294   26.6022 C   0  0  0  0  0  0  0  0  0  0  0  0
  -20.6863  -15.6810   17.3567 C   0  0  0  0  0  0  0  0  0  0  0  0
  -17.9411  -20.0604   21.9832 C   0  0  0  0  0  0  0  0  0  0  0  0
  -17.6654  -17.9552   20.6565 C   0  0  0  0  0  0  0  0  0  0  0  0
  -17.5620  -20.1701   19.5136 C   0  0  0  0  0  0  0  0  0  0  0  0
  -23.1090  -18.6132   17.2667 C   0  0  0  0  0  0  0  0  0  0  0  0
  -25.5070  -13.4508   22.4513 C   0  0  0  0  0  0  0  0  0  0  0  0
  -24.6440  -14.1957   21.4361 C   0  0  0  0  0  0  0  0  0  0  0  0
  -26.7886  -18.2077   25.4370 C   0  0  0  0  0  0  0  0  0  1  0  0
  -27.1148  -16.7767   25.8859 C   0  0  1  0  0  0  0  0  0  0  0  0
  -19.7883  -19.3067   20.3443 C   0  0  1  0  0  0  0  0  0  0  0  0
  -21.1220  -17.1257   17.5454 C   0  0  2  0  0  0  0  0  0  0  0  0
  -18.2633  -19.3782   20.6387 C   0  0  0  0  0  0  0  0  0  0  0  0
  -28.2782  -20.7673   19.4235 N   0  0  0  0  0  0  0  0  0  0  0  0
  -26.3696  -14.3293   23.2133 N   0  0  0  0  0  0  0  0  0  0  0  0
  -29.0423  -19.7717   19.9042 N   0  0  0  0  0  0  0  0  0  0  0  0
  -21.4592  -20.8766   21.2758 N   0  0  0  0  0  0  0  0  0  0  0  0
  -26.5849  -16.8549   19.6975 N   0  0  0  0  0  0  0  0  0  0  0  0
  -31.0907  -19.3266   21.0072 N   0  0  0  0  0  0  0  0  0  0  0  0
  -31.1474  -22.9516   22.1253 N   0  0  0  0  0  0  0  0  0  0  0  0
  -20.4912  -23.9500   22.2691 N   0  0  0  0  0  0  0  0  0  0  0  0
  -20.1217  -18.6898   19.0650 N   0  0  0  0  0  0  0  0  0  0  0  0
  -25.4355  -14.9421   20.4837 N   0  0  0  0  0  0  0  0  0  0  0  0
  -22.5550  -17.2396   17.1524 N   0  3  0  0  0  0  0  0  0  0  0  0
  -32.1944  -22.7950   20.0910 O   0  0  0  0  0  0  0  0  0  0  0  0
  -21.3405  -22.3428   23.7245 O   0  0  0  0  0  0  0  0  0  0  0  0
  -20.0574  -21.5168   19.5261 O   0  0  0  0  0  0  0  0  0  0  0  0
  -21.4463  -16.9976   19.9362 O   0  0  0  0  0  0  0  0  0  0  0  0
  -25.4853  -16.8593   21.7394 O   0  0  0  0  0  0  0  0  0  0  0  0
  -27.0673  -26.9134   18.2807 O   0  0  0  0  0  0  0  0  0  0  0  0
  -25.3744  -18.3636   25.3265 O   0  0  0  0  0  0  0  0  0  1  0  0
  -25.0447  -30.1124   22.2906 F   0  0  0  0  0  0  0  0  0  0  0  0
  -28.6487  -27.6855   20.4128 F   0  0  0  0  0  0  0  0  0  0  0  0
  1  2  1  0  0  0  0
  1  5  2  0  0  0  0
  2  6  2  0  0  0  0
  3  8  2  0  0  0  0
  3 16  1  0  0  0  0
  4  9  1  0  0  0  0
  4 16  2  0  0  0  0
  5 18  1  0  0  0  0
  6 20  1  0  0  0  0
  7 10  2  0  0  0  0
  7 19  1  0  0  0  0
  8 23  1  0  0  0  0
  9 23  2  0  0  0  0
 10 24  1  0  0  0  0
 11 12  2  0  0  0  0
 11 25  1  0  0  0  0
 12 26  1  0  0  0  0
 13 21  1  0  0  0  0
 13 24  2  0  0  0  0
 14 22  1  0  0  0  0
 14 29  2  0  0  0  0
 15 26  2  0  0  0  0
 15 27  1  0  0  0  0
 16 28  1  0  0  0  0
 17 28  1  0  0  0  0
 17 31  2  0  0  0  0
 17 32  1  0  0  0  0
 18 20  2  0  0  0  0
 18 37  1  0  0  0  0
 19 21  2  0  0  0  0
 19 38  1  0  0  0  0
 20 46  1  0  0  0  0
 21 39  1  0  0  0  0
 22 30  2  0  0  0  0
 22 60  1  0  0  0  0
 23 80  1  0  0  0  0
 24 81  1  0  0  0  0
 25 27  2  0  0  0  0
 25 80  1  0  0  0  0
 26 82  1  0  0  0  0
 27 83  1  0  0  0  0
 28 64  2  0  0  0  0
 29 49  1  0  0  0  0
 29 65  1  0  0  0  0
 30 50  1  0  0  0  0
 30 65  1  0  0  0  0
 31 66  1  0  0  0  0
 31 69  1  0  0  0  0
 32 70  1  0  0  0  0
 32 75  2  0  0  0  0
 33 47  1  0  0  0  0
 33 71  1  0  0  0  0
 33 76  2  0  0  0  0
 34 61  1  0  0  0  0
 34 67  1  0  0  0  0
 34 77  2  0  0  0  0
 35 62  1  0  0  0  0
 35 72  1  0  0  0  0
 35 78  2  0  0  0  0
 36 68  1  0  0  0  0
 36 73  1  0  0  0  0
 36 79  2  0  0  0  0
 37 40  1  0  0  0  0
 38 47  1  0  0  0  0
 39 67  1  0  0  0  0
 40 42  1  0  0  0  0
 41 43  1  0  0  0  0
 41 44  1  0  0  0  0
 42 46  1  0  0  0  0
 43 48  1  0  0  0  0
 44 68  1  0  0  0  0
 45 48  1  0  0  0  0
 45 68  1  0  0  0  0
 46 71  1  0  0  0  0
 47 67  1  0  0  0  0
 48 66  1  0  0  0  0
 51 60  1  0  0  0  0
 52 62  1  0  0  0  0
 53 63  1  0  0  0  0
 54 63  1  0  0  0  0
 55 63  1  0  0  0  0
 56 74  1  0  0  0  0
 57 58  1  0  0  0  0
 57 65  1  0  0  0  0
 58 73  1  0  0  0  0
 59 60  1  0  0  0  0
 59 81  1  0  0  0  0
 61 63  1  0  0  0  0
 61 72  1  0  0  0  0
 62 74  1  0  0  0  0
 64 66  1  0  0  0  0
M  CHG  1  74   1
M  ISO  4  36 100  59 101  73 100  81 101
M  END
> <Batch ID>
0108

> <Smiles>
CNC(C)C(=O)NC(C(=O)N1Cc2cc([101O:1][101CH2:1]C(C)c3cc(C)n(CC[100NH:0][100C:0](=O)N4CCCC(n5nc(-c6ccc(Oc7ccc(F)cc7F)cc6)c(C(N)=O)c5N)C4)c3C)ccc2CC1C(=O)NC1CCCc2ccccc21)C(C)(C)C

> <Shape>
0.173

> <Color>
0.058

> <Negative vol penalty>
0.000

$$$$

  -OEChem-04052319532D

  0  0  0     0  0  0  0  0  0999 V2000
M  END
$$$$

  -OEChem-04052319533D

 82 90  0     1  0  0  0  0  0999 V2000
  -23.1562   -8.1538   22.3094 C   0  0  0  0  0  0  0  0  0  0  0  0
  -24.1248   -9.0489   21.8664 C   0  0  0  0  0  0  0  0  0  0  0  0
  -24.1172  -30.4029   20.9985 C   0  0  0  0  0  0  0  0  0  0  0  0
  -25.5593  -29.5441   22.7362 C   0  0  0  0  0  0  0  0  0  0  0  0
  -21.8082   -8.5063   22.2598 C   0  0  0  0  0  0  0  0  0  0  0  0
  -23.7457  -10.2966   21.3725 C   0  0  0  0  0  0  0  0  0  0  0  0
  -26.6252  -14.0543   23.1708 C   0  0  0  0  0  0  0  0  0  0  0  0
  -23.4958  -31.2381   21.9269 C   0  0  0  0  0  0  0  0  0  0  0  0
  -24.9380  -30.3794   23.6647 C   0  0  0  0  0  0  0  0  0  0  0  0
  -27.8862  -14.2194   22.5996 C   0  0  0  0  0  0  0  0  0  0  0  0
  -23.9748  -32.5467   26.4202 C   0  0  0  0  0  0  0  0  0  0  0  0
  -24.7891  -33.2508   27.3072 C   0  0  0  0  0  0  0  0  0  0  0  0
  -27.0295  -16.0213   21.2437 C   0  0  0  0  0  0  0  0  0  0  0  0
  -25.8737  -34.3427   25.4448 C   0  0  0  0  0  0  0  0  0  0  0  0
  -28.8018  -18.0319   18.6589 C   0  0  0  0  0  0  0  0  0  0  0  0
  -25.1489  -29.5559   21.4032 C   0  0  0  0  0  0  0  0  0  0  0  0
  -26.9183  -28.9883   19.6554 C   0  0  0  0  0  0  0  0  0  0  0  0
  -21.4130   -9.7627   21.7741 C   0  0  0  0  0  0  0  0  0  0  0  0
  -25.5524  -14.8656   22.7742 C   0  0  0  0  0  0  0  0  0  0  0  0
  -22.3910  -10.6657   21.3152 C   0  0  0  0  0  0  0  0  0  0  0  0
  -25.7565  -15.8661   21.8133 C   0  0  0  0  0  0  0  0  0  0  0  0
  -23.9062  -31.2264   23.2600 C   0  0  0  0  0  0  0  0  0  0  0  0
  -28.0879  -15.2010   21.6338 C   0  0  0  0  0  0  0  0  0  0  0  0
  -24.1100  -32.7406   25.0455 C   0  0  0  0  0  0  0  0  0  0  0  0
  -25.7385  -34.1488   26.8195 C   0  0  0  0  0  0  0  0  0  0  0  0
  -25.0594  -33.6386   24.5578 C   0  0  0  0  0  0  0  0  0  0  0  0
  -25.7908  -28.6925   20.4447 C   0  0  0  0  0  0  0  0  0  0  0  0
  -28.8896  -19.4081   18.7098 C   0  0  0  0  0  0  0  0  0  0  0  0
  -29.4064  -17.3561   19.6991 C   0  0  0  0  0  0  0  0  0  0  0  0
  -27.1297  -27.8489   18.9180 C   0  0  0  0  0  0  0  0  0  0  0  0
  -30.0665  -19.3114   20.6522 C   0  0  0  0  0  0  0  0  0  0  0  0
  -27.7043  -30.1858   19.5943 C   0  0  0  0  0  0  0  0  0  0  0  0
  -22.7329  -14.3438   21.4023 C   0  0  0  0  0  0  0  0  0  0  0  0
  -22.3058  -17.5078   21.9764 C   0  0  0  0  0  0  0  0  0  0  0  0
  -23.7123  -20.5691   22.5211 C   0  0  0  0  0  0  0  0  0  0  0  0
  -27.5848  -22.4048   18.6003 C   0  0  0  0  0  0  0  0  0  0  0  0
  -19.9408  -10.0806   21.6960 C   0  0  0  0  0  0  0  0  0  0  0  0
  -24.2047  -14.6925   23.4193 C   0  0  0  0  0  0  0  0  0  0  0  0
  -24.6425  -16.7766   21.3676 C   0  0  0  0  0  0  0  0  0  0  0  0
  -19.6477  -11.5668   21.5076 C   0  0  0  0  0  0  0  0  0  0  0  0
  -24.2376  -23.7459   18.2919 C   0  0  0  0  0  0  0  0  0  0  0  0
  -20.5394  -12.1528   20.4175 C   0  0  0  0  0  0  0  0  0  0  0  0
  -24.4426  -25.1866   18.7634 C   0  0  0  0  0  0  0  0  0  0  0  0
  -25.0931  -22.7733   19.0984 C   0  0  0  0  0  0  0  0  0  0  0  0
  -26.7564  -24.5291   19.5718 C   0  0  0  0  0  0  0  0  0  0  0  0
  -22.0210  -12.0381   20.7959 C   0  0  1  0  0  0  0  0  0  0  0  0
  -23.0606  -15.2340   22.5676 C   0  0  1  0  0  0  0  0  0  0  0  0
  -25.9358  -25.5636   18.7803 C   0  0  2  0  0  0  0  0  0  0  0  0
  -29.9331  -20.0641   23.0401 C   0  0  0  0  0  0  0  0  0  0  0  0
  -30.5615  -15.2198   19.0321 C   0  0  0  0  0  0  0  0  0  0  0  0
  -23.1079  -22.9720   22.9188 C   0  0  0  0  0  0  0  0  0  0  0  0
  -21.6355  -17.8264   19.0168 C   0  0  0  0  0  0  0  0  0  0  0  0
  -21.9774  -20.2930   19.2765 C   0  0  0  0  0  0  0  0  0  0  0  0
  -20.1771  -19.1428   20.5643 C   0  0  0  0  0  0  0  0  0  0  0  0
  -25.0342  -20.5841   25.1690 C   0  0  0  0  0  0  0  0  0  0  0  0
  -28.2652  -20.2252   17.6288 C   0  0  0  0  0  0  0  0  0  0  0  0
  -30.7659  -20.0215   21.7614 C   0  0  0  0  0  0  0  0  0  0  0  0
  -29.3616  -15.8456   19.7316 C   0  0  1  0  0  0  0  0  0  1  0  0
  -22.5927  -18.7804   21.2167 C   0  0  1  0  0  0  0  0  0  0  0  0
  -23.4327  -21.6346   23.5657 C   0  0  2  0  0  0  0  0  0  0  0  0
  -21.6164  -18.9924   20.0254 C   0  0  0  0  0  0  0  0  0  0  0  0
  -25.3188  -27.4618   20.2289 N   0  0  0  0  0  0  0  0  0  0  0  0
  -29.5167  -20.0832   19.6954 N   0  0  0  0  0  0  0  0  0  0  0  0
  -30.0500  -17.9663   20.7159 N   0  0  0  0  0  0  0  0  0  0  0  0
  -26.1537  -26.9742   19.2956 N   0  0  0  0  0  0  0  0  0  0  0  0
  -23.3416  -16.5640   22.0232 N   0  0  0  0  0  0  0  0  0  0  0  0
  -26.5054  -23.1782   19.0586 N   0  0  0  0  0  0  0  0  0  0  0  0
  -28.0533  -27.5200   17.9900 N   0  0  0  0  0  0  0  0  0  0  0  0
  -27.3489  -31.2612   20.4197 N   0  0  0  0  0  0  0  0  0  0  0  0
  -22.3768  -13.0574   21.7597 N   0  0  0  0  0  0  0  0  0  0  0  0
  -22.5759  -19.8564   22.2018 N   0  0  0  0  0  0  0  0  0  0  0  0
  -27.2627  -21.1348   18.1374 N   0  0  0  0  0  0  0  0  0  0  0  0
  -24.6180  -21.8161   24.4506 N   0  3  0  0  0  0  0  0  0  0  0  0
  -28.6828  -30.3047   18.8183 O   0  0  0  0  0  0  0  0  0  0  0  0
  -22.7968  -14.7915   20.2634 O   0  0  0  0  0  0  0  0  0  0  0  0
  -21.2058  -17.3597   22.5146 O   0  0  0  0  0  0  0  0  0  0  0  0
  -24.8264  -20.3897   22.0342 O   0  0  0  0  0  0  0  0  0  0  0  0
  -28.7496  -22.8175   18.5987 O   0  0  0  0  0  0  0  0  0  0  0  0
  -23.3003  -32.0414   24.1662 O   0  0  0  0  0  0  0  0  0  0  0  0
  -29.3176  -15.3639   21.0742 O   0  0  0  0  0  0  0  0  0  1  0  0
  -26.5193  -34.8260   27.6715 F   0  0  0  0  0  0  0  0  0  0  0  0
  -25.1931  -33.8299   23.2382 F   0  0  0  0  0  0  0  0  0  0  0  0
  1  2  1  0  0  0  0
  1  5  2  0  0  0  0
  2  6  2  0  0  0  0
  3  8  2  0  0  0  0
  3 16  1  0  0  0  0
  4  9  1  0  0  0  0
  4 16  2  0  0  0  0
  5 18  1  0  0  0  0
  6 20  1  0  0  0  0
  7 10  2  0  0  0  0
  7 19  1  0  0  0  0
  8 22  1  0  0  0  0
  9 22  2  0  0  0  0
 10 23  1  0  0  0  0
 11 12  2  0  0  0  0
 11 24  1  0  0  0  0
 12 25  1  0  0  0  0
 13 21  1  0  0  0  0
 13 23  2  0  0  0  0
 14 25  2  0  0  0  0
 14 26  1  0  0  0  0
 15 28  1  0  0  0  0
 15 29  2  0  0  0  0
 16 27  1  0  0  0  0
 17 27  1  0  0  0  0
 17 30  2  0  0  0  0
 17 32  1  0  0  0  0
 18 20  2  0  0  0  0
 18 37  1  0  0  0  0
 19 21  2  0  0  0  0
 19 38  1  0  0  0  0
 20 46  1  0  0  0  0
 21 39  1  0  0  0  0
 22 79  1  0  0  0  0
 23 80  1  0  0  0  0
 24 26  2  0  0  0  0
 24 79  1  0  0  0  0
 25 81  1  0  0  0  0
 26 82  1  0  0  0  0
 27 62  2  0  0  0  0
 28 56  1  0  0  0  0
 28 63  2  0  0  0  0
 29 58  1  0  0  0  0
 29 64  1  0  0  0  0
 30 65  1  0  0  0  0
 30 68  1  0  0  0  0
 31 57  1  0  0  0  0
 31 63  1  0  0  0  0
 31 64  2  0  0  0  0
 32 69  1  0  0  0  0
 32 74  2  0  0  0  0
 33 47  1  0  0  0  0
 33 70  1  0  0  0  0
 33 75  2  0  0  0  0
 34 59  1  0  0  0  0
 34 66  1  0  0  0  0
 34 76  2  0  0  0  0
 35 60  1  0  0  0  0
 35 71  1  0  0  0  0
 35 77  2  0  0  0  0
 36 67  1  0  0  0  0
 36 72  1  0  0  0  0
 36 78  2  0  0  0  0
 37 40  1  0  0  0  0
 38 47  1  0  0  0  0
 39 66  1  0  0  0  0
 40 42  1  0  0  0  0
 41 43  1  0  0  0  0
 41 44  1  0  0  0  0
 42 46  1  0  0  0  0
 43 48  1  0  0  0  0
 44 67  1  0  0  0  0
 45 48  1  0  0  0  0
 45 67  1  0  0  0  0
 46 70  1  0  0  0  0
 47 66  1  0  0  0  0
 48 65  1  0  0  0  0
 49 57  1  0  0  0  0
 50 58  1  0  0  0  0
 51 60  1  0  0  0  0
 52 61  1  0  0  0  0
 53 61  1  0  0  0  0
 54 61  1  0  0  0  0
 55 73  1  0  0  0  0
 56 72  1  0  0  0  0
 58 80  1  0  0  0  0
 59 61  1  0  0  0  0
 59 71  1  0  0  0  0
 60 73  1  0  0  0  0
 62 65  1  0  0  0  0
M  CHG  1  73   1
M  ISO  4  36 100  58 101  72 100  80 101
M  END
> <Batch ID>
0108

> <Smiles>
CCc1nc(C[100NH:0][100C:0](=O)N2CCCC(n3nc(-c4ccc(Oc5ccc(F)cc5F)cc4)c(C(N)=O)c3N)C2)cc([101CH:1](C)[101O:1]c2ccc3c(c2)CN(C(=O)C(NC(=O)C(C)NC)C(C)(C)C)C(C(=O)NC2CCCc4ccccc42)C3)n1

> <Shape>
0.203

> <Color>
0.116

> <Negative vol penalty>
0.000

$$$$

  -OEChem-04052319533D

 85 92  0     1  0  0  0  0  0999 V2000
  -26.3183  -37.0323   22.9214 C   0  0  0  0  0  0  0  0  0  0  0  0
  -26.9576  -35.7999   22.8320 C   0  0  0  0  0  0  0  0  0  0  0  0
  -22.2561  -10.1973   23.0098 C   0  0  0  0  0  0  0  0  0  0  0  0
  -23.5156  -10.1568   20.9484 C   0  0  0  0  0  0  0  0  0  0  0  0
  -24.9857  -37.0973   23.3262 C   0  0  0  0  0  0  0  0  0  0  0  0
  -26.2649  -34.6318   23.1486 C   0  0  0  0  0  0  0  0  0  0  0  0
  -27.0458  -30.9357   19.7761 C   0  0  0  0  0  0  0  0  0  0  0  0
  -21.7933   -8.9069   22.7524 C   0  0  0  0  0  0  0  0  0  0  0  0
  -23.0528   -8.8663   20.6910 C   0  0  0  0  0  0  0  0  0  0  0  0
  -28.2492  -30.2373   19.8641 C   0  0  0  0  0  0  0  0  0  0  0  0
  -22.9634   -5.7445   23.0042 C   0  0  0  0  0  0  0  0  0  0  0  0
  -22.9817   -4.8276   24.0552 C   0  0  0  0  0  0  0  0  0  0  0  0
  -27.1175  -28.4440   21.0142 C   0  0  0  0  0  0  0  0  0  0  0  0
  -20.5871   -4.5660   23.8687 C   0  0  0  0  0  0  0  0  0  0  0  0
  -23.1172  -10.8223   22.1077 C   0  0  0  0  0  0  0  0  0  0  0  0
  -24.7594  -12.5169   23.0767 C   0  0  0  0  0  0  0  0  0  0  0  0
  -24.2734  -35.9286   23.6386 C   0  0  0  0  0  0  0  0  0  0  0  0
  -25.8693  -30.3974   20.3170 C   0  0  0  0  0  0  0  0  0  0  0  0
  -24.9219  -34.6814   23.5592 C   0  0  0  0  0  0  0  0  0  0  0  0
  -25.8999  -29.1364   20.9295 C   0  0  0  0  0  0  0  0  0  0  0  0
  -22.1917   -8.2414   21.5930 C   0  0  0  0  0  0  0  0  0  0  0  0
  -28.2858  -28.9926   20.4858 C   0  0  0  0  0  0  0  0  0  0  0  0
  -21.7569   -6.0722   22.3855 C   0  0  0  0  0  0  0  0  0  0  0  0
  -21.7936   -4.2383   24.4874 C   0  0  0  0  0  0  0  0  0  0  0  0
  -20.5688   -5.4829   22.8177 C   0  0  0  0  0  0  0  0  0  0  0  0
  -23.5951  -12.1555   22.3727 C   0  0  0  0  0  0  0  0  0  0  0  0
  -24.7637  -13.8901   23.0514 C   0  0  0  0  0  0  0  0  0  0  0  0
  -25.7487  -11.6856   23.6980 C   0  0  0  0  0  0  0  0  0  0  0  0
  -23.8404  -31.2813   22.5988 C   0  0  0  0  0  0  0  0  0  0  0  0
  -22.1474  -28.7236   21.5432 C   0  0  0  0  0  0  0  0  0  0  0  0
  -22.1486  -25.7070   19.9472 C   0  0  0  0  0  0  0  0  0  0  0  0
  -24.0993  -18.7092   20.3163 C   0  0  0  0  0  0  0  0  0  0  0  0
  -22.8486  -36.0529   24.1170 C   0  0  0  0  0  0  0  0  0  0  0  0
  -24.5740  -31.1515   20.1902 C   0  0  0  0  0  0  0  0  0  0  0  0
  -24.6607  -28.5056   21.5081 C   0  0  0  0  0  0  0  0  0  0  0  0
  -22.0747  -34.7378   24.0739 C   0  0  0  0  0  0  0  0  0  0  0  0
  -21.1773  -17.1680   21.6442 C   0  0  0  0  0  0  0  0  0  0  0  0
  -22.9077  -33.6084   24.6716 C   0  0  0  0  0  0  0  0  0  0  0  0
  -21.6403  -15.7552   22.0041 C   0  0  0  0  0  0  0  0  0  0  0  0
  -21.8491  -17.6746   20.3698 C   0  0  0  0  0  0  0  0  0  0  0  0
  -23.7855  -16.1952   20.7379 C   0  0  0  0  0  0  0  0  0  0  0  0
  -24.1968  -33.3900   23.8703 C   0  0  1  0  0  0  0  0  0  0  0  0
  -23.5378  -30.7382   21.2308 C   0  0  1  0  0  0  0  0  0  0  0  0
  -23.1775  -15.6627   22.0467 C   0  0  2  0  0  0  0  0  0  0  0  0
  -20.6196  -23.8356   19.2708 C   0  0  0  0  0  0  0  0  0  0  0  0
  -29.8800  -27.2248   18.4883 C   0  0  0  0  0  0  0  0  0  0  0  0
  -22.1017  -27.7225   24.4251 C   0  0  0  0  0  0  0  0  0  0  0  0
  -21.4318  -25.4710   23.5589 C   0  0  0  0  0  0  0  0  0  0  0  0
  -19.9463  -27.4404   23.1885 C   0  0  0  0  0  0  0  0  0  0  0  0
  -29.9961  -26.0403   22.2344 C   0  0  0  0  0  0  0  0  0  0  0  0
  -31.9106  -26.6612   20.7676 C   0  0  0  0  0  0  0  0  0  0  0  0
  -25.9022  -20.5977   18.0150 C   0  0  0  0  0  0  0  0  0  0  0  0
  -27.2399  -18.4769   18.2100 C   0  0  0  0  0  0  0  0  0  0  0  0
  -22.7275  -26.1175   17.0740 C   0  0  0  0  0  0  0  0  0  0  0  0
  -29.3804  -22.6290   19.6057 C   0  0  0  0  0  0  0  0  0  0  0  0
  -30.5342  -24.6516   20.1874 C   0  0  0  0  0  0  0  0  0  0  0  0
  -26.4153  -19.6008   20.3062 C   0  0  0  0  0  0  0  0  0  0  0  0
  -28.0295  -21.9403   19.5599 C   0  0  0  0  0  0  0  0  0  0  0  0
  -22.1053  -27.2540   21.8861 C   0  0  1  0  0  0  0  0  0  0  0  0
  -21.2620  -25.1480   18.8491 C   0  0  2  0  0  0  0  0  0  0  0  0
  -29.5099  -27.0236   19.9561 C   0  0  1  0  0  0  0  0  0  1  0  0
  -21.4202  -26.9845   23.2556 C   0  0  0  0  0  0  0  0  0  0  0  0
  -30.4723  -26.0948   20.7628 C   0  0  0  0  0  0  0  0  0  0  0  0
  -26.9072  -19.8190   18.8675 C   0  0  0  0  0  0  0  0  0  0  0  0
  -22.9094  -13.2137   21.9324 N   0  0  0  0  0  0  0  0  0  0  0  0
  -23.6450  -14.2536   22.3609 N   0  0  0  0  0  0  0  0  0  0  0  0
  -23.4198  -29.2849   21.3649 N   0  0  0  0  0  0  0  0  0  0  0  0
  -23.3058  -17.5612   20.4758 N   0  0  0  0  0  0  0  0  0  0  0  0
  -25.6150  -14.8101   23.5526 N   0  0  0  0  0  0  0  0  0  0  0  0
  -25.5910  -10.2946   23.6298 N   0  0  0  0  0  0  0  0  0  0  0  0
  -23.9173  -32.6599   22.6524 N   0  0  0  0  0  0  0  0  0  0  0  0
  -21.4646  -26.5894   20.7564 N   0  0  0  0  0  0  0  0  0  0  0  0
  -25.4697  -18.5149   20.4383 N   0  0  0  0  0  0  0  0  0  0  0  0
  -29.2502  -23.9559   20.1890 N   0  0  0  0  0  0  0  0  0  0  0  0
  -22.0586  -24.9056   17.6132 N   0  3  0  0  0  0  0  0  0  0  0  0
  -28.1664  -20.6108   18.9154 N   0  3  0  0  0  0  0  0  0  0  0  0
  -26.7344  -12.1625   24.3100 O   0  0  0  0  0  0  0  0  0  0  0  0
  -23.9915  -30.5069   23.5364 O   0  0  0  0  0  0  0  0  0  0  0  0
  -21.0900  -29.3488   21.4303 O   0  0  0  0  0  0  0  0  0  0  0  0
  -23.3289  -25.3895   20.0767 O   0  0  0  0  0  0  0  0  0  0  0  0
  -23.6215  -19.8257   20.0878 O   0  0  0  0  0  0  0  0  0  0  0  0
  -21.7405   -6.9821   21.3417 O   0  0  0  0  0  0  0  0  0  0  0  0
  -29.4592  -28.3090   20.5736 O   0  0  0  0  0  0  0  0  0  1  0  0
  -21.8116   -3.3567   25.4957 F   0  0  0  0  0  0  0  0  0  0  0  0
  -19.4069   -5.7929   22.2264 F   0  0  0  0  0  0  0  0  0  0  0  0
  1  2  1  0  0  0  0
  1  5  2  0  0  0  0
  2  6  2  0  0  0  0
  3  8  2  0  0  0  0
  3 15  1  0  0  0  0
  4  9  1  0  0  0  0
  4 15  2  0  0  0  0
  5 17  1  0  0  0  0
  6 19  1  0  0  0  0
  7 10  2  0  0  0  0
  7 18  1  0  0  0  0
  8 21  1  0  0  0  0
  9 21  2  0  0  0  0
 10 22  1  0  0  0  0
 11 12  2  0  0  0  0
 11 23  1  0  0  0  0
 12 24  1  0  0  0  0
 13 20  1  0  0  0  0
 13 22  2  0  0  0  0
 14 24  2  0  0  0  0
 14 25  1  0  0  0  0
 15 26  1  0  0  0  0
 16 26  1  0  0  0  0
 16 27  2  0  0  0  0
 16 28  1  0  0  0  0
 17 19  2  0  0  0  0
 17 33  1  0  0  0  0
 18 20  2  0  0  0  0
 18 34  1  0  0  0  0
 19 42  1  0  0  0  0
 20 35  1  0  0  0  0
 21 82  1  0  0  0  0
 22 83  1  0  0  0  0
 23 25  2  0  0  0  0
 23 82  1  0  0  0  0
 24 84  1  0  0  0  0
 25 85  1  0  0  0  0
 26 65  2  0  0  0  0
 27 66  1  0  0  0  0
 27 69  1  0  0  0  0
 28 70  1  0  0  0  0
 28 77  2  0  0  0  0
 29 43  1  0  0  0  0
 29 71  1  0  0  0  0
 29 78  2  0  0  0  0
 30 59  1  0  0  0  0
 30 67  1  0  0  0  0
 30 79  2  0  0  0  0
 31 60  1  0  0  0  0
 31 72  1  0  0  0  0
 31 80  2  0  0  0  0
 32 68  1  0  0  0  0
 32 73  1  0  0  0  0
 32 81  2  0  0  0  0
 33 36  1  0  0  0  0
 34 43  1  0  0  0  0
 35 67  1  0  0  0  0
 36 38  1  0  0  0  0
 37 39  1  0  0  0  0
 37 40  1  0  0  0  0
 38 42  1  0  0  0  0
 39 44  1  0  0  0  0
 40 68  1  0  0  0  0
 41 44  1  0  0  0  0
 41 68  1  0  0  0  0
 42 71  1  0  0  0  0
 43 67  1  0  0  0  0
 44 66  1  0  0  0  0
 45 60  1  0  0  0  0
 46 61  1  0  0  0  0
 47 62  1  0  0  0  0
 48 62  1  0  0  0  0
 49 62  1  0  0  0  0
 50 63  1  0  0  0  0
 51 63  1  0  0  0  0
 52 64  1  0  0  0  0
 53 64  1  0  0  0  0
 54 75  1  0  0  0  0
 55 58  1  0  0  0  0
 55 74  1  0  0  0  0
 56 63  1  0  0  0  0
 56 74  1  0  0  0  0
 57 64  1  0  0  0  0
 57 73  1  0  0  0  0
 58 76  1  0  0  0  0
 59 62  1  0  0  0  0
 59 72  1  0  0  0  0
 60 75  1  0  0  0  0
 61 63  1  0  0  0  0
 61 83  1  0  0  0  0
 64 76  1  0  0  0  0
 65 66  1  0  0  0  0
M  CHG  2  75   1  76   1
M  ISO  4  32 100  61 101  73 100  83 101
M  END
> <Batch ID>
0108

> <Smiles>
CNC(C)C(=O)NC(C(=O)N1Cc2cc([101O:1][101CH:1](C)C(C)(C)CNCCNC(C)(C)C[100NH:0][100C:0](=O)N3CCCC(n4nc(-c5ccc(Oc6ccc(F)cc6F)cc5)c(C(N)=O)c4N)C3)ccc2CC1C(=O)NC1CCCc2ccccc21)C(C)(C)C

> <Shape>
0.273

> <Color>
0.063

> <Negative vol penalty>
0.000

$$$$

  -OEChem-04052319533D

 87 95  0     1  0  0  0  0  0999 V2000
  -22.0104  -23.0540   35.8404 C   0  0  0  0  0  0  0  0  0  0  0  0
  -22.2888  -21.9818   34.9988 C   0  0  0  0  0  0  0  0  0  0  0  0
  -23.0720   -9.8702   19.9439 C   0  0  0  0  0  0  0  0  0  0  0  0
  -23.8345   -9.8787   22.2364 C   0  0  0  0  0  0  0  0  0  0  0  0
  -22.1206  -24.3597   35.3639 C   0  0  0  0  0  0  0  0  0  0  0  0
  -22.6765  -22.2147   33.6798 C   0  0  0  0  0  0  0  0  0  0  0  0
  -26.6412  -18.9215   30.3719 C   0  0  0  0  0  0  0  0  0  0  0  0
  -22.3285   -8.7172   20.1955 C   0  0  0  0  0  0  0  0  0  0  0  0
  -23.0910   -8.7256   22.4880 C   0  0  0  0  0  0  0  0  0  0  0  0
  -26.4627  -17.9218   29.4167 C   0  0  0  0  0  0  0  0  0  0  0  0
  -20.5145   -5.5660   20.1411 C   0  0  0  0  0  0  0  0  0  0  0  0
  -20.5767   -4.5350   19.2038 C   0  0  0  0  0  0  0  0  0  0  0  0
  -26.6504  -19.5700   27.6653 C   0  0  0  0  0  0  0  0  0  0  0  0
  -29.6455  -16.1780   26.0719 C   0  0  0  0  0  0  0  0  0  0  0  0
  -22.9619   -4.3652   19.5489 C   0  0  0  0  0  0  0  0  0  0  0  0
  -28.3439  -16.5041   24.2637 C   0  0  0  0  0  0  0  0  0  0  0  0
  -23.8251  -10.4509   20.9644 C   0  0  0  0  0  0  0  0  0  0  0  0
  -24.1666  -12.9760   20.8424 C   0  0  0  0  0  0  0  0  0  0  0  0
  -22.5192  -24.6089   34.0412 C   0  0  0  0  0  0  0  0  0  0  0  0
  -26.8150  -20.2569   29.9807 C   0  0  0  0  0  0  0  0  0  0  0  0
  -22.7908  -23.5249   33.1847 C   0  0  0  0  0  0  0  0  0  0  0  0
  -26.8334  -20.5845   28.6174 C   0  0  0  0  0  0  0  0  0  0  0  0
  -28.3606  -15.9450   25.5224 C   0  0  0  0  0  0  0  0  0  0  0  0
  -22.3379   -8.1449   21.4675 C   0  0  0  0  0  0  0  0  0  0  0  0
  -26.4644  -18.2463   28.0633 C   0  0  0  0  0  0  0  0  0  0  0  0
  -21.6759   -5.9967   20.7824 C   0  0  0  0  0  0  0  0  0  0  0  0
  -21.8004   -3.9346   18.9076 C   0  0  0  0  0  0  0  0  0  0  0  0
  -22.8997   -5.3963   20.4863 C   0  0  0  0  0  0  0  0  0  0  0  0
  -24.5938  -11.6417   20.7051 C   0  0  0  0  0  0  0  0  0  0  0  0
  -30.3748  -16.8726   25.1322 C   0  0  0  0  0  0  0  0  0  0  0  0
  -25.2582  -13.7254   20.4774 C   0  0  0  0  0  0  0  0  0  0  0  0
  -22.8965  -13.4920   21.2625 C   0  0  0  0  0  0  0  0  0  0  0  0
  -25.2057  -22.9582   30.4461 C   0  0  0  0  0  0  0  0  0  0  0  0
  -27.7589  -24.2810   28.9448 C   0  0  0  0  0  0  0  0  0  0  0  0
  -30.3921  -23.8815   26.8109 C   0  0  0  0  0  0  0  0  0  0  0  0
  -30.7421  -14.7449   20.6588 C   0  0  0  0  0  0  0  0  0  0  0  0
  -22.5784  -26.0362   33.5575 C   0  0  0  0  0  0  0  0  0  0  0  0
  -27.0330  -21.3197   31.0225 C   0  0  0  0  0  0  0  0  0  0  0  0
  -27.0364  -22.0000   28.1447 C   0  0  0  0  0  0  0  0  0  0  0  0
  -23.3577  -26.2064   32.2560 C   0  0  0  0  0  0  0  0  0  0  0  0
  -29.6019  -12.3589   18.2748 C   0  0  0  0  0  0  0  0  0  0  0  0
  -22.9365  -25.1499   31.2395 C   0  0  0  0  0  0  0  0  0  0  0  0
  -28.1650  -12.0653   18.7096 C   0  0  0  0  0  0  0  0  0  0  0  0
  -30.5204  -12.5805   19.4745 C   0  0  0  0  0  0  0  0  0  0  0  0
  -28.6203  -13.3123   20.8629 C   0  0  0  0  0  0  0  0  0  0  0  0
  -23.2382  -23.7374   31.7548 C   0  0  1  0  0  0  0  0  0  0  0  0
  -26.6872  -22.7209   30.5281 C   0  0  1  0  0  0  0  0  0  0  0  0
  -27.6447  -13.1369   19.6865 C   0  0  2  0  0  0  0  0  0  0  0  0
  -32.8043  -16.2307   25.3306 C   0  0  0  0  0  0  0  0  0  0  0  0
  -31.9918  -18.4075   26.3086 C   0  0  0  0  0  0  0  0  0  0  0  0
  -32.2774  -25.1523   25.7489 C   0  0  0  0  0  0  0  0  0  0  0  0
  -28.1982  -11.4188   25.8577 C   0  0  0  0  0  0  0  0  0  0  0  0
  -26.7160  -12.7600   24.3543 C   0  0  0  0  0  0  0  0  0  0  0  0
  -25.7895  -25.5820   27.0112 C   0  0  0  0  0  0  0  0  0  0  0  0
  -27.7082  -26.0262   25.4654 C   0  0  0  0  0  0  0  0  0  0  0  0
  -27.6720  -27.0608   27.7349 C   0  0  0  0  0  0  0  0  0  0  0  0
  -32.4286  -22.1488   28.0796 C   0  0  0  0  0  0  0  0  0  0  0  0
  -27.5601  -13.7482   26.5541 C   0  0  0  0  0  0  0  0  0  0  0  0
  -29.9506  -17.7525   22.8215 C   0  0  0  0  0  0  0  0  0  0  0  0
  -30.8093  -16.8962   21.8943 C   0  0  0  0  0  0  0  0  0  0  0  0
  -26.7515  -15.9637   27.4607 C   0  0  0  0  0  0  0  0  0  1  0  0
  -27.2101  -15.2119   26.1972 C   0  0  1  0  0  0  0  0  0  0  0  0
  -31.7661  -17.3670   25.1879 C   0  0  0  0  0  0  0  0  0  0  0  0
  -28.1172  -24.5823   27.5096 C   0  0  1  0  0  0  0  0  0  0  0  0
  -31.8507  -24.2864   26.9241 C   0  0  2  0  0  0  0  0  0  0  0  0
  -27.8716  -12.8279   25.3538 C   0  0  0  0  0  0  0  0  0  0  0  0
  -27.3159  -25.7863   26.9389 C   0  0  0  0  0  0  0  0  0  0  0  0
  -25.8581  -11.5457   20.2854 N   0  0  0  0  0  0  0  0  0  0  0  0
  -29.5735  -17.0655   24.0373 N   0  0  0  0  0  0  0  0  0  0  0  0
  -26.2348  -12.8292   20.1558 N   0  0  0  0  0  0  0  0  0  0  0  0
  -27.2391  -23.0045   29.2017 N   0  0  0  0  0  0  0  0  0  0  0  0
  -29.9708  -13.6095   20.3605 N   0  0  0  0  0  0  0  0  0  0  0  0
  -25.4685  -15.0568   20.4034 N   0  0  0  0  0  0  0  0  0  0  0  0
  -21.8851  -12.5830   21.6015 N   0  0  0  0  0  0  0  0  0  0  0  0
  -24.6474  -23.4388   31.6152 N   0  0  0  0  0  0  0  0  0  0  0  0
  -29.5649  -24.7595   27.4788 N   0  0  0  0  0  0  0  0  0  0  0  0
  -30.1439  -15.6742   21.5010 N   0  0  0  0  0  0  0  0  0  0  0  0
  -32.7226  -23.0783   26.9586 N   0  3  0  0  0  0  0  0  0  0  0  0
  -22.6603  -14.7227   21.3194 O   0  0  0  0  0  0  0  0  0  0  0  0
  -24.6134  -22.7242   29.3992 O   0  0  0  0  0  0  0  0  0  0  0  0
  -27.9405  -25.1440   29.8073 O   0  0  0  0  0  0  0  0  0  0  0  0
  -30.0230  -22.8878   26.1889 O   0  0  0  0  0  0  0  0  0  0  0  0
  -31.8776  -14.9202   20.2038 O   0  0  0  0  0  0  0  0  0  0  0  0
  -21.6123   -7.0199   21.7134 O   0  0  0  0  0  0  0  0  0  0  0  0
  -26.2898  -17.2726   27.1289 O   0  0  0  0  0  0  0  0  0  1  0  0
  -21.8598   -2.9435   18.0086 F   0  0  0  0  0  0  0  0  0  0  0  0
  -24.0187   -5.8050   21.0999 F   0  0  0  0  0  0  0  0  0  0  0  0
  1  2  1  0  0  0  0
  1  5  2  0  0  0  0
  2  6  2  0  0  0  0
  3  8  2  0  0  0  0
  3 17  1  0  0  0  0
  4  9  1  0  0  0  0
  4 17  2  0  0  0  0
  5 19  1  0  0  0  0
  6 21  1  0  0  0  0
  7 10  2  0  0  0  0
  7 20  1  0  0  0  0
  8 24  1  0  0  0  0
  9 24  2  0  0  0  0
 10 25  1  0  0  0  0
 11 12  2  0  0  0  0
 11 26  1  0  0  0  0
 12 27  1  0  0  0  0
 13 22  1  0  0  0  0
 13 25  2  0  0  0  0
 14 23  1  0  0  0  0
 14 30  2  0  0  0  0
 15 27  2  0  0  0  0
 15 28  1  0  0  0  0
 16 23  2  0  0  0  0
 16 69  1  0  0  0  0
 17 29  1  0  0  0  0
 18 29  1  0  0  0  0
 18 31  2  0  0  0  0
 18 32  1  0  0  0  0
 19 21  2  0  0  0  0
 19 37  1  0  0  0  0
 20 22  2  0  0  0  0
 20 38  1  0  0  0  0
 21 46  1  0  0  0  0
 22 39  1  0  0  0  0
 23 62  1  0  0  0  0
 24 84  1  0  0  0  0
 25 85  1  0  0  0  0
 26 28  2  0  0  0  0
 26 84  1  0  0  0  0
 27 86  1  0  0  0  0
 28 87  1  0  0  0  0
 29 68  2  0  0  0  0
 30 63  1  0  0  0  0
 30 69  1  0  0  0  0
 31 70  1  0  0  0  0
 31 73  1  0  0  0  0
 32 74  1  0  0  0  0
 32 79  2  0  0  0  0
 33 47  1  0  0  0  0
 33 75  1  0  0  0  0
 33 80  2  0  0  0  0
 34 64  1  0  0  0  0
 34 71  1  0  0  0  0
 34 81  2  0  0  0  0
 35 65  1  0  0  0  0
 35 76  1  0  0  0  0
 35 82  2  0  0  0  0
 36 72  1  0  0  0  0
 36 77  1  0  0  0  0
 36 83  2  0  0  0  0
 37 40  1  0  0  0  0
 38 47  1  0  0  0  0
 39 71  1  0  0  0  0
 40 42  1  0  0  0  0
 41 43  1  0  0  0  0
 41 44  1  0  0  0  0
 42 46  1  0  0  0  0
 43 48  1  0  0  0  0
 44 72  1  0  0  0  0
 45 48  1  0  0  0  0
 45 72  1  0  0  0  0
 46 75  1  0  0  0  0
 47 71  1  0  0  0  0
 48 70  1  0  0  0  0
 49 63  1  0  0  0  0
 50 63  1  0  0  0  0
 51 65  1  0  0  0  0
 52 66  1  0  0  0  0
 53 66  1  0  0  0  0
 54 67  1  0  0  0  0
 55 67  1  0  0  0  0
 56 67  1  0  0  0  0
 57 78  1  0  0  0  0
 58 62  1  0  0  0  0
 58 66  1  0  0  0  0
 59 60  1  0  0  0  0
 59 69  1  0  0  0  0
 60 77  1  0  0  0  0
 61 62  1  0  0  0  0
 61 85  1  0  0  0  0
 64 67  1  0  0  0  0
 64 76  1  0  0  0  0
 65 78  1  0  0  0  0
 68 70  1  0  0  0  0
M  CHG  1  78   1
M  ISO  4  36 100  61 101  77 100  85 101
M  END
> <Batch ID>
0108

> <Smiles>
CNC(C)C(=O)NC(C(=O)N1Cc2cc([101O:1][101CH2:1]C(CC(C)C)c3cc(C(C)C)n(CC[100NH:0][100C:0](=O)N4CCCC(n5nc(-c6ccc(Oc7ccc(F)cc7F)cc6)c(C(N)=O)c5N)C4)c3)ccc2CC1C(=O)NC1CCCc2ccccc21)C(C)(C)C

> <Shape>
0.147

> <Color>
0.191

> <Negative vol penalty>
0.000

$$$$

  -OEChem-04052319533D

 85 93  0     1  0  0  0  0  0999 V2000
  -27.1761  -25.8633   15.5193 C   0  0  0  0  0  0  0  0  0  0  0  0
  -26.0414  -26.0436   16.3037 C   0  0  0  0  0  0  0  0  0  0  0  0
  -26.5853  -12.8065   21.1127 C   0  0  0  0  0  0  0  0  0  0  0  0
  -24.4335  -13.3084   20.1355 C   0  0  0  0  0  0  0  0  0  0  0  0
  -28.4340  -26.1762   16.0327 C   0  0  0  0  0  0  0  0  0  0  0  0
  -26.1641  -26.5361   17.6025 C   0  0  0  0  0  0  0  0  0  0  0  0
  -22.7404  -30.1163   18.6540 C   0  0  0  0  0  0  0  0  0  0  0  0
  -26.0279  -11.7161   21.7804 C   0  0  0  0  0  0  0  0  0  0  0  0
  -23.8760  -12.2179   20.8032 C   0  0  0  0  0  0  0  0  0  0  0  0
  -21.4445  -29.6923   18.9450 C   0  0  0  0  0  0  0  0  0  0  0  0
  -23.7641   -8.8613   20.4278 C   0  0  0  0  0  0  0  0  0  0  0  0
  -22.9175   -8.0230   19.7025 C   0  0  0  0  0  0  0  0  0  0  0  0
  -21.8948  -29.9521   21.3006 C   0  0  0  0  0  0  0  0  0  0  0  0
  -21.1174   -8.5125   21.2378 C   0  0  0  0  0  0  0  0  0  0  0  0
  -25.7881  -13.6027   20.2903 C   0  0  0  0  0  0  0  0  0  0  0  0
  -26.9463  -14.7350   18.3194 C   0  0  0  0  0  0  0  0  0  0  0  0
  -28.5713  -26.6819   17.3350 C   0  0  0  0  0  0  0  0  0  0  0  0
  -23.6282  -30.4516   19.6864 C   0  0  0  0  0  0  0  0  0  0  0  0
  -27.4251  -26.8549   18.1343 C   0  0  0  0  0  0  0  0  0  0  0  0
  -23.2006  -30.3826   21.0200 C   0  0  0  0  0  0  0  0  0  0  0  0
  -24.6732  -11.4218   21.6256 C   0  0  0  0  0  0  0  0  0  0  0  0
  -21.0225  -29.6074   20.2685 C   0  0  0  0  0  0  0  0  0  0  0  0
  -23.2874   -9.5251   21.5582 C   0  0  0  0  0  0  0  0  0  0  0  0
  -21.5941   -7.8486   20.1075 C   0  0  0  0  0  0  0  0  0  0  0  0
  -21.9641   -9.3508   21.9632 C   0  0  0  0  0  0  0  0  0  0  0  0
  -26.3633  -14.7296   19.6008 C   0  0  0  0  0  0  0  0  0  0  0  0
  -27.3371  -16.0373   18.1255 C   0  0  0  0  0  0  0  0  0  0  0  0
  -27.1189  -13.6589   17.3877 C   0  0  0  0  0  0  0  0  0  0  0  0
  -26.4269  -29.3284   20.6913 C   0  0  0  0  0  0  0  0  0  0  0  0
  -25.3940  -21.2055   20.4975 C   0  0  0  0  0  0  0  0  0  0  0  0
  -26.3004  -31.8895   22.6781 C   0  0  0  0  0  0  0  0  0  0  0  0
  -24.3900  -34.2028   24.3047 C   0  0  0  0  0  0  0  0  0  0  0  0
  -29.9561  -26.9613   17.8631 C   0  0  0  0  0  0  0  0  0  0  0  0
  -25.0142  -30.9328   19.3548 C   0  0  0  0  0  0  0  0  0  0  0  0
  -24.1085  -30.7507   22.1640 C   0  0  0  0  0  0  0  0  0  0  0  0
  -29.9657  -27.8317   19.1171 C   0  0  0  0  0  0  0  0  0  0  0  0
  -28.7421  -19.9285   20.5135 C   0  0  0  0  0  0  0  0  0  0  0  0
  -28.9316  -27.3325   20.1213 C   0  0  0  0  0  0  0  0  0  0  0  0
  -28.5621  -18.4453   20.1929 C   0  0  0  0  0  0  0  0  0  0  0  0
  -21.6462  -25.6739   22.6447 C   0  0  0  0  0  0  0  0  0  0  0  0
  -21.0192  -23.5612   21.4004 C   0  0  0  0  0  0  0  0  0  0  0  0
  -27.5891  -20.4610   21.3587 C   0  0  0  0  0  0  0  0  0  0  0  0
  -26.0576  -18.7504   20.4369 C   0  0  0  0  0  0  0  0  0  0  0  0
  -22.4539  -24.8431   23.6312 C   0  0  0  0  0  0  0  0  0  0  0  0
  -27.5151  -27.4103   19.5391 C   0  0  1  0  0  0  0  0  0  0  0  0
  -25.9992  -30.7569   20.5064 C   0  0  1  0  0  0  0  0  0  0  0  0
  -27.1853  -18.1800   19.5586 C   0  0  2  0  0  0  0  0  0  0  0  0
  -20.5103  -24.8516   22.0409 C   0  0  2  0  0  0  0  0  0  0  0  0
  -21.8300  -22.7369   22.4031 C   0  0  1  0  0  0  0  0  0  0  0  0
  -24.2817  -20.8583   18.3356 C   0  0  0  0  0  0  0  0  0  0  0  0
  -24.5673  -36.1435   25.8858 C   0  0  0  0  0  0  0  0  0  0  0  0
  -21.4356  -20.3659   21.7066 C   0  0  0  0  0  0  0  0  0  0  0  0
  -26.7598  -29.9573   24.9944 C   0  0  0  0  0  0  0  0  0  0  0  0
  -25.9894  -31.7560   26.5562 C   0  0  0  0  0  0  0  0  0  0  0  0
  -28.0277  -32.1065   25.1615 C   0  0  0  0  0  0  0  0  0  0  0  0
  -23.2152  -36.0682   22.3302 C   0  0  0  0  0  0  0  0  0  0  0  0
  -18.1675  -27.4039   20.4105 C   0  0  0  0  0  0  0  0  0  0  0  0
  -22.9933  -21.7864   20.3399 C   0  0  0  0  0  0  0  0  0  0  0  0
  -18.8059  -26.6068   21.5381 C   0  0  0  0  0  0  0  0  0  0  0  0
  -19.1522  -28.2778   19.6436 C   0  0  0  0  0  0  0  0  0  1  0  0
  -24.0871  -20.8279   19.8468 C   0  0  2  0  0  0  0  0  0  0  0  0
  -25.7517  -32.1434   24.0613 C   0  0  1  0  0  0  0  0  0  0  0  0
  -24.5214  -35.7100   24.4288 C   0  0  2  0  0  0  0  0  0  0  0  0
  -22.4578  -21.5082   21.7611 C   0  0  1  0  0  0  0  0  0  0  0  0
  -26.6154  -31.4819   25.1721 C   0  0  0  0  0  0  0  0  0  0  0  0
  -26.3803  -15.9330   20.1801 N   0  0  0  0  0  0  0  0  0  0  0  0
  -26.9788  -16.7067   19.2585 N   0  0  0  0  0  0  0  0  0  0  0  0
  -25.4562  -31.2094   21.7888 N   0  0  0  0  0  0  0  0  0  0  0  0
  -26.2980  -20.1694   20.7333 N   0  0  0  0  0  0  0  0  0  0  0  0
  -27.9490  -16.6637   17.0980 N   0  0  0  0  0  0  0  0  0  0  0  0
  -26.6596  -12.3843   17.7465 N   0  0  0  0  0  0  0  0  0  0  0  0
  -27.0268  -28.7721   19.5777 N   0  0  0  0  0  0  0  0  0  0  0  0
  -25.6202  -33.5907   24.1890 N   0  0  0  0  0  0  0  0  0  0  0  0
  -22.9305  -23.5980   22.9549 N   0  3  0  0  0  0  0  0  0  0  0  0
  -19.8200  -25.6677   21.0042 N   0  3  0  0  0  0  0  0  0  0  0  0
  -23.3664  -36.3863   23.7734 N   0  3  0  0  0  0  0  0  0  0  0  0
  -27.6792  -13.8195   16.2769 O   0  0  0  0  0  0  0  0  0  0  0  0
  -26.2286  -28.7725   21.7652 O   0  0  0  0  0  0  0  0  0  0  0  0
  -25.6047  -22.3868   20.7842 O   0  0  0  0  0  0  0  0  0  0  0  0
  -27.4334  -32.2864   22.3947 O   0  0  0  0  0  0  0  0  0  0  0  0
  -23.3049  -33.6257   24.3136 O   0  0  0  0  0  0  0  0  0  0  0  0
  -24.1289  -10.3577   22.2768 O   0  0  0  0  0  0  0  0  0  0  0  0
  -19.7583  -29.1931   20.5553 O   0  0  0  0  0  0  0  0  0  1  0  0
  -20.7808   -7.0447   19.4100 F   0  0  0  0  0  0  0  0  0  0  0  0
  -21.5001   -9.9868   23.0476 F   0  0  0  0  0  0  0  0  0  0  0  0
  1  2  1  0  0  0  0
  1  5  2  0  0  0  0
  2  6  2  0  0  0  0
  3  8  2  0  0  0  0
  3 15  1  0  0  0  0
  4  9  1  0  0  0  0
  4 15  2  0  0  0  0
  5 17  1  0  0  0  0
  6 19  1  0  0  0  0
  7 10  2  0  0  0  0
  7 18  1  0  0  0  0
  8 21  1  0  0  0  0
  9 21  2  0  0  0  0
 10 22  1  0  0  0  0
 11 12  2  0  0  0  0
 11 23  1  0  0  0  0
 12 24  1  0  0  0  0
 13 20  1  0  0  0  0
 13 22  2  0  0  0  0
 14 24  2  0  0  0  0
 14 25  1  0  0  0  0
 15 26  1  0  0  0  0
 16 26  1  0  0  0  0
 16 27  2  0  0  0  0
 16 28  1  0  0  0  0
 17 19  2  0  0  0  0
 17 33  1  0  0  0  0
 18 20  2  0  0  0  0
 18 34  1  0  0  0  0
 19 45  1  0  0  0  0
 20 35  1  0  0  0  0
 21 82  1  0  0  0  0
 22 83  1  0  0  0  0
 23 25  2  0  0  0  0
 23 82  1  0  0  0  0
 24 84  1  0  0  0  0
 25 85  1  0  0  0  0
 26 66  2  0  0  0  0
 27 67  1  0  0  0  0
 27 70  1  0  0  0  0
 28 71  1  0  0  0  0
 28 77  2  0  0  0  0
 29 46  1  0  0  0  0
 29 72  1  0  0  0  0
 29 78  2  0  0  0  0
 30 61  1  0  0  0  0
 30 69  1  0  0  0  0
 30 79  2  0  0  0  0
 31 62  1  0  0  0  0
 31 68  1  0  0  0  0
 31 80  2  0  0  0  0
 32 63  1  0  0  0  0
 32 73  1  0  0  0  0
 32 81  2  0  0  0  0
 33 36  1  0  0  0  0
 34 46  1  0  0  0  0
 35 68  1  0  0  0  0
 36 38  1  0  0  0  0
 37 39  1  0  0  0  0
 37 42  1  0  0  0  0
 38 45  1  0  0  0  0
 39 47  1  0  0  0  0
 40 44  1  0  0  0  0
 40 48  1  0  0  0  0
 41 48  1  0  0  0  0
 41 49  1  0  0  0  0
 42 69  1  0  0  0  0
 43 47  1  0  0  0  0
 43 69  1  0  0  0  0
 44 74  1  0  0  0  0
 45 72  1  0  0  0  0
 46 68  1  0  0  0  0
 47 67  1  0  0  0  0
 48 75  1  0  0  0  0
 49 64  1  0  0  0  0
 49 74  1  0  0  0  0
 50 61  1  0  0  0  0
 51 63  1  0  0  0  0
 52 64  1  0  0  0  0
 53 65  1  0  0  0  0
 54 65  1  0  0  0  0
 55 65  1  0  0  0  0
 56 76  1  0  0  0  0
 57 59  1  0  0  0  0
 57 60  1  0  0  0  0
 58 61  1  0  0  0  0
 58 64  1  0  0  0  0
 59 75  1  0  0  0  0
 60 83  1  0  0  0  0
 62 65  1  0  0  0  0
 62 73  1  0  0  0  0
 63 76  1  0  0  0  0
 66 67  1  0  0  0  0
M  CHG  3  74   1  75   1  76   1
M  ISO  4  30 100  60 101  61 100  83 101
M  END
> <Batch ID>
0108

> <Smiles>
CNC(C)C(=O)NC(C(=O)N1Cc2cc([101O:1][101CH2:1]CCNC3CCNC(C(C)C[100CH:0](C)[100C:0](=O)N4CCCC(n5nc(-c6ccc(Oc7ccc(F)cc7F)cc6)c(C(N)=O)c5N)C4)C3)ccc2CC1C(=O)NC1CCCc2ccccc21)C(C)(C)C

> <Shape>
0.283

> <Color>
0.073

> <Negative vol penalty>
0.000

$$$$
