
  -OEChem-04052319563D

 86 94  0     1  0  0  0  0  0999 V2000
  -22.6469   -8.2526   21.5993 C   0  0  0  0  0  0  0  0  0  0  0  0
  -23.8216   -8.7643   22.1411 C   0  0  0  0  0  0  0  0  0  0  0  0
  -22.0609  -27.8846   21.0387 C   0  0  0  0  0  0  0  0  0  0  0  0
  -23.3333  -27.4210   23.0394 C   0  0  0  0  0  0  0  0  0  0  0  0
  -22.0052   -8.9303   20.5636 C   0  0  0  0  0  0  0  0  0  0  0  0
  -24.3559   -9.9537   21.6468 C   0  0  0  0  0  0  0  0  0  0  0  0
  -27.3263  -14.2593   24.8317 C   0  0  0  0  0  0  0  0  0  0  0  0
  -20.8831  -27.8765   21.7858 C   0  0  0  0  0  0  0  0  0  0  0  0
  -22.1555  -27.4130   23.7867 C   0  0  0  0  0  0  0  0  0  0  0  0
  -28.6831  -14.5280   25.0066 C   0  0  0  0  0  0  0  0  0  0  0  0
  -19.2354  -29.9766   23.8613 C   0  0  0  0  0  0  0  0  0  0  0  0
  -18.3146  -30.9987   23.6310 C   0  0  0  0  0  0  0  0  0  0  0  0
  -28.5809  -16.1648   23.2375 C   0  0  0  0  0  0  0  0  0  0  0  0
  -16.6553  -29.3610   22.9970 C   0  0  0  0  0  0  0  0  0  0  0  0
  -23.2860  -27.6567   21.6655 C   0  0  0  0  0  0  0  0  0  0  0  0
  -25.3312  -28.7702   20.6238 C   0  0  0  0  0  0  0  0  0  0  0  0
  -22.5266  -10.1337   20.0628 C   0  0  0  0  0  0  0  0  0  0  0  0
  -26.5879  -14.9347   23.8493 C   0  0  0  0  0  0  0  0  0  0  0  0
  -23.7212  -10.6475   20.6025 C   0  0  0  0  0  0  0  0  0  0  0  0
  -27.2143  -15.9047   23.0538 C   0  0  0  0  0  0  0  0  0  0  0  0
  -20.9303  -27.6407   23.1598 C   0  0  0  0  0  0  0  0  0  0  0  0
  -29.3113  -15.4788   24.2076 C   0  0  0  0  0  0  0  0  0  0  0  0
  -18.8662  -28.6467   23.6594 C   0  0  0  0  0  0  0  0  0  0  0  0
  -17.0246  -30.6909   23.1988 C   0  0  0  0  0  0  0  0  0  0  0  0
  -17.5762  -28.3389   23.2273 C   0  0  0  0  0  0  0  0  0  0  0  0
  -24.5030  -27.6644   20.8941 C   0  0  0  0  0  0  0  0  0  0  0  0
  -26.3497  -28.2573   19.8582 C   0  0  0  0  0  0  0  0  0  0  0  0
  -35.9174  -17.6022   25.9392 C   0  0  0  0  0  0  0  0  0  0  0  0
  -35.2439  -18.2650   24.9921 C   0  0  0  0  0  0  0  0  0  0  0  0
  -32.6694  -16.8478   23.8529 C   0  0  0  0  0  0  0  0  0  0  0  0
  -25.1924  -30.1386   21.0286 C   0  0  0  0  0  0  0  0  0  0  0  0
  -33.5728  -17.6443   23.2522 C   0  0  0  0  0  0  0  0  0  0  0  0
  -24.9910  -14.0575   21.2447 C   0  0  0  0  0  0  0  0  0  0  0  0
  -24.1246  -17.1831   21.1970 C   0  0  0  0  0  0  0  0  0  0  0  0
  -24.8207  -20.3968   22.1106 C   0  0  0  0  0  0  0  0  0  0  0  0
  -30.1470  -24.4243   18.9441 C   0  0  0  0  0  0  0  0  0  0  0  0
  -21.8231  -10.8058   18.9104 C   0  0  0  0  0  0  0  0  0  0  0  0
  -25.1189  -14.6526   23.6912 C   0  0  0  0  0  0  0  0  0  0  0  0
  -26.4615  -16.6719   21.9988 C   0  0  0  0  0  0  0  0  0  0  0  0
  -22.2520  -12.2552   18.6969 C   0  0  0  0  0  0  0  0  0  0  0  0
  -26.8445  -23.7426   17.6303 C   0  0  0  0  0  0  0  0  0  0  0  0
  -23.7720  -12.3743   18.7420 C   0  0  0  0  0  0  0  0  0  0  0  0
  -26.0070  -24.8030   18.3474 C   0  0  0  0  0  0  0  0  0  0  0  0
  -33.1238  -18.9995   19.8033 C   0  0  0  0  0  0  0  0  0  0  0  0
  -32.6567  -20.8126   21.5042 C   0  0  0  0  0  0  0  0  0  0  0  0
  -27.9331  -23.1870   18.5438 C   0  0  0  0  0  0  0  0  0  0  0  0
  -28.0016  -25.2808   19.8418 C   0  0  0  0  0  0  0  0  0  0  0  0
  -33.7136  -18.1246   20.9047 C   0  0  0  0  0  0  0  0  0  0  0  0
  -33.2480  -19.9311   22.5995 C   0  0  0  0  0  0  0  0  0  0  0  0
  -24.3184  -11.9478   20.1099 C   0  0  1  0  0  0  0  0  0  0  0  0
  -24.5827  -15.0309   22.3140 C   0  0  1  0  0  0  0  0  0  0  0  0
  -26.8977  -25.8979   18.9638 C   0  0  2  0  0  0  0  0  0  0  0  0
  -33.2667  -20.4802   20.1450 C   0  0  0  0  0  0  0  0  0  0  0  0
  -23.9481  -22.7396   21.8931 C   0  0  0  0  0  0  0  0  0  0  0  0
  -25.1360  -17.2903   18.3203 C   0  0  0  0  0  0  0  0  0  0  0  0
  -25.1287  -19.7885   18.4844 C   0  0  0  0  0  0  0  0  0  0  0  0
  -22.9945  -18.5187   18.7196 C   0  0  0  0  0  0  0  0  0  0  0  0
  -24.5037  -20.6744   25.0400 C   0  0  0  0  0  0  0  0  0  0  0  0
  -35.0346  -17.7527   23.5971 C   0  0  0  0  0  0  0  0  0  0  0  0
  -31.2151  -16.7287   23.5225 C   0  0  0  0  0  0  0  0  0  1  0  0
  -32.2151  -23.4450   17.9843 C   0  0  0  0  0  0  0  0  0  0  0  0
  -32.9829  -22.7180   19.0724 C   0  0  0  0  0  0  0  0  0  0  0  0
  -24.6951  -18.4415   20.5889 C   0  0  1  0  0  0  0  0  0  0  0  0
  -23.9563  -21.4753   22.7383 C   0  0  2  0  0  0  0  0  0  0  0  0
  -24.5035  -18.4941   19.0468 C   0  0  0  0  0  0  0  0  0  0  0  0
  -24.9560  -26.5343   20.3448 N   0  0  0  0  0  0  0  0  0  0  0  0
  -26.0800  -26.9274   19.7215 N   0  0  0  0  0  0  0  0  0  0  0  0
  -25.0287  -16.3558   21.8782 N   0  0  0  0  0  0  0  0  0  0  0  0
  -28.7567  -24.2786   19.0826 N   0  0  0  0  0  0  0  0  0  0  0  0
  -27.4407  -28.8187   19.2953 N   0  0  0  0  0  0  0  0  0  0  0  0
  -24.0869  -30.4943   21.8132 N   0  0  0  0  0  0  0  0  0  0  0  0
  -24.1176  -12.9988   21.0844 N   0  0  0  0  0  0  0  0  0  0  0  0
  -24.0828  -19.5551   21.3054 N   0  0  0  0  0  0  0  0  0  0  0  0
  -30.7879  -23.4289   18.2168 N   0  0  0  0  0  0  0  0  0  0  0  0
  -33.0652  -18.4831   22.2186 N   0  3  0  0  0  0  0  0  0  0  0  0
  -32.5837  -21.2857   19.0988 N   0  3  0  0  0  0  0  0  0  0  0  0
  -24.4640  -21.8210   24.0961 N   0  3  0  0  0  0  0  0  0  0  0  0
  -26.0153  -31.0229   20.6904 O   0  0  0  0  0  0  0  0  0  0  0  0
  -26.0213  -14.2534   20.6108 O   0  0  0  0  0  0  0  0  0  0  0  0
  -22.9198  -16.9466   21.0784 O   0  0  0  0  0  0  0  0  0  0  0  0
  -26.0303  -20.3119   22.3113 O   0  0  0  0  0  0  0  0  0  0  0  0
  -30.7709  -25.3747   19.4285 O   0  0  0  0  0  0  0  0  0  0  0  0
  -19.7813  -27.6331   23.8893 O   0  0  0  0  0  0  0  0  0  0  0  0
  -30.6357  -15.7425   24.3758 O   0  0  0  0  0  0  0  0  0  1  0  0
  -16.1400  -31.6725   22.9792 F   0  0  0  0  0  0  0  0  0  0  0  0
  -17.2153  -27.0631   23.0327 F   0  0  0  0  0  0  0  0  0  0  0  0
  1  2  1  0  0  0  0
  1  5  2  0  0  0  0
  2  6  2  0  0  0  0
  3  8  2  0  0  0  0
  3 15  1  0  0  0  0
  4  9  1  0  0  0  0
  4 15  2  0  0  0  0
  5 17  1  0  0  0  0
  6 19  1  0  0  0  0
  7 10  2  0  0  0  0
  7 18  1  0  0  0  0
  8 21  1  0  0  0  0
  9 21  2  0  0  0  0
 10 22  1  0  0  0  0
 11 12  2  0  0  0  0
 11 23  1  0  0  0  0
 12 24  1  0  0  0  0
 13 20  1  0  0  0  0
 13 22  2  0  0  0  0
 14 24  2  0  0  0  0
 14 25  1  0  0  0  0
 15 26  1  0  0  0  0
 16 26  1  0  0  0  0
 16 27  2  0  0  0  0
 16 31  1  0  0  0  0
 17 19  2  0  0  0  0
 17 37  1  0  0  0  0
 18 20  2  0  0  0  0
 18 38  1  0  0  0  0
 19 50  1  0  0  0  0
 20 39  1  0  0  0  0
 21 83  1  0  0  0  0
 22 84  1  0  0  0  0
 23 25  2  0  0  0  0
 23 83  1  0  0  0  0
 24 85  1  0  0  0  0
 25 86  1  0  0  0  0
 26 66  2  0  0  0  0
 27 67  1  0  0  0  0
 27 70  1  0  0  0  0
 28 29  2  0  0  0  0
 29 59  1  0  0  0  0
 30 32  2  0  0  0  0
 30 60  1  0  0  0  0
 31 71  1  0  0  0  0
 31 78  2  0  0  0  0
 32 59  1  0  0  0  0
 32 75  1  0  0  0  0
 33 51  1  0  0  0  0
 33 72  1  0  0  0  0
 33 79  2  0  0  0  0
 34 63  1  0  0  0  0
 34 68  1  0  0  0  0
 34 80  2  0  0  0  0
 35 64  1  0  0  0  0
 35 73  1  0  0  0  0
 35 81  2  0  0  0  0
 36 69  1  0  0  0  0
 36 74  1  0  0  0  0
 36 82  2  0  0  0  0
 37 40  1  0  0  0  0
 38 51  1  0  0  0  0
 39 68  1  0  0  0  0
 40 42  1  0  0  0  0
 41 43  1  0  0  0  0
 41 46  1  0  0  0  0
 42 50  1  0  0  0  0
 43 52  1  0  0  0  0
 44 48  1  0  0  0  0
 44 53  1  0  0  0  0
 45 49  1  0  0  0  0
 45 53  1  0  0  0  0
 46 69  1  0  0  0  0
 47 52  1  0  0  0  0
 47 69  1  0  0  0  0
 48 75  1  0  0  0  0
 49 75  1  0  0  0  0
 50 72  1  0  0  0  0
 51 68  1  0  0  0  0
 52 67  1  0  0  0  0
 53 76  1  0  0  0  0
 54 64  1  0  0  0  0
 55 65  1  0  0  0  0
 56 65  1  0  0  0  0
 57 65  1  0  0  0  0
 58 77  1  0  0  0  0
 60 84  1  0  0  0  0
 61 62  1  0  0  0  0
 61 74  1  0  0  0  0
 62 76  1  0  0  0  0
 63 65  1  0  0  0  0
 63 73  1  0  0  0  0
 64 77  1  0  0  0  0
 66 67  1  0  0  0  0
M  CHG  3  75   1  76   1  77   1
M  ISO  4  36 100  60 101  74 100  84 101
M  END
> <Batch ID>
0109

> <Smiles>
C=CCC(=C[101CH2:1][101O:1]c1ccc2c(c1)CN(C(=O)C(NC(=O)C(C)NC)C(C)(C)C)C(C(=O)NC1CCCc3ccccc31)C2)N1CCC(NCC[100NH:0][100C:0](=O)N2CCCC(n3nc(-c4ccc(Oc5ccc(F)cc5F)cc4)c(C(N)=O)c3N)C2)CC1

> <Shape>
0.212

> <Color>
0.065

> <Negative vol penalty>
0.000

$$$$

  -OEChem-04052319563D

 86 94  0     1  0  0  0  0  0999 V2000
  -32.2628  -31.7962   20.9582 C   0  0  0  0  0  0  0  0  0  0  0  0
  -31.7873  -30.6036   20.4224 C   0  0  0  0  0  0  0  0  0  0  0  0
  -27.2854  -12.3403   21.4019 C   0  0  0  0  0  0  0  0  0  0  0  0
  -26.6613  -13.7005   19.5052 C   0  0  0  0  0  0  0  0  0  0  0  0
  -31.7254  -32.2882   22.1470 C   0  0  0  0  0  0  0  0  0  0  0  0
  -30.7749  -29.9017   21.0757 C   0  0  0  0  0  0  0  0  0  0  0  0
  -27.1827  -28.2692   17.9016 C   0  0  0  0  0  0  0  0  0  0  0  0
  -26.4091  -11.3427   20.9747 C   0  0  0  0  0  0  0  0  0  0  0  0
  -25.7851  -12.7028   19.0780 C   0  0  0  0  0  0  0  0  0  0  0  0
  -27.4702  -27.1349   17.1437 C   0  0  0  0  0  0  0  0  0  0  0  0
  -24.0689   -8.5877   20.5780 C   0  0  0  0  0  0  0  0  0  0  0  0
  -23.2463   -7.9921   21.5341 C   0  0  0  0  0  0  0  0  0  0  0  0
  -26.1980  -25.7878   18.6885 C   0  0  0  0  0  0  0  0  0  0  0  0
  -22.2601  -10.1423   22.0253 C   0  0  0  0  0  0  0  0  0  0  0  0
  -27.3930  -22.4033   19.2121 C   0  0  0  0  0  0  0  0  0  0  0  0
  -27.4114  -13.5193   20.6671 C   0  0  0  0  0  0  0  0  0  0  0  0
  -29.6735  -14.6945   20.7645 C   0  0  0  0  0  0  0  0  0  0  0  0
  -30.6992  -31.5969   22.8101 C   0  0  0  0  0  0  0  0  0  0  0  0
  -26.4084  -28.1695   19.0665 C   0  0  0  0  0  0  0  0  0  0  0  0
  -30.2243  -30.3842   22.2752 C   0  0  0  0  0  0  0  0  0  0  0  0
  -25.9000  -26.9228   19.4579 C   0  0  0  0  0  0  0  0  0  0  0  0
  -27.5089  -22.5538   20.5724 C   0  0  0  0  0  0  0  0  0  0  0  0
  -25.6590  -11.5239   19.8128 C   0  0  0  0  0  0  0  0  0  0  0  0
  -26.9803  -25.8935   17.5387 C   0  0  0  0  0  0  0  0  0  0  0  0
  -23.9872   -9.9607   20.3456 C   0  0  0  0  0  0  0  0  0  0  0  0
  -22.3419   -8.7693   22.2577 C   0  0  0  0  0  0  0  0  0  0  0  0
  -23.0828  -10.7380   21.0692 C   0  0  0  0  0  0  0  0  0  0  0  0
  -28.3160  -14.5505   21.1082 C   0  0  0  0  0  0  0  0  0  0  0  0
  -28.7422  -23.2088   20.7502 C   0  0  0  0  0  0  0  0  0  0  0  0
  -30.0805  -15.8207   21.4372 C   0  0  0  0  0  0  0  0  0  0  0  0
  -30.4934  -13.8828   19.9132 C   0  0  0  0  0  0  0  0  0  0  0  0
  -26.9097  -28.7561   22.1500 C   0  0  0  0  0  0  0  0  0  0  0  0
  -23.7428  -28.0962   22.3902 C   0  0  0  0  0  0  0  0  0  0  0  0
  -21.0011  -26.5377   21.0860 C   0  0  0  0  0  0  0  0  0  0  0  0
  -27.1547  -20.6251   23.4886 C   0  0  0  0  0  0  0  0  0  0  0  0
  -30.1825  -32.1437   24.1173 C   0  0  0  0  0  0  0  0  0  0  0  0
  -26.0849  -29.4068   19.8583 C   0  0  0  0  0  0  0  0  0  0  0  0
  -25.0471  -26.7653   20.6893 C   0  0  0  0  0  0  0  0  0  0  0  0
  -28.8526  -31.5320   24.5502 C   0  0  0  0  0  0  0  0  0  0  0  0
  -29.1538  -18.3666   25.3806 C   0  0  0  0  0  0  0  0  0  0  0  0
  -28.8901  -30.0142   24.4033 C   0  0  0  0  0  0  0  0  0  0  0  0
  -29.2882  -17.1455   24.4692 C   0  0  0  0  0  0  0  0  0  0  0  0
  -27.7740  -19.0101   25.2620 C   0  0  0  0  0  0  0  0  0  0  0  0
  -27.5015  -18.1326   22.9752 C   0  0  0  0  0  0  0  0  0  0  0  0
  -29.1099  -29.6067   22.9414 C   0  0  1  0  0  0  0  0  0  0  0  0
  -25.7161  -29.1087   21.3083 C   0  0  1  0  0  0  0  0  0  0  0  0
  -28.8951  -17.4827   23.0183 C   0  0  2  0  0  0  0  0  0  0  0  0
  -29.5633  -25.1522   22.1296 C   0  0  0  0  0  0  0  0  0  0  0  0
  -30.7268  -22.9207   22.2774 C   0  0  0  0  0  0  0  0  0  0  0  0
  -18.5615  -26.1478   21.5259 C   0  0  0  0  0  0  0  0  0  0  0  0
  -28.9740  -24.4895   15.1546 C   0  0  0  0  0  0  0  0  0  0  0  0
  -24.4595  -26.0513   24.5383 C   0  0  0  0  0  0  0  0  0  0  0  0
  -22.1800  -25.0559   24.2527 C   0  0  0  0  0  0  0  0  0  0  0  0
  -22.4210  -27.4130   25.0330 C   0  0  0  0  0  0  0  0  0  0  0  0
  -22.7225  -21.6842   21.7742 C   0  0  0  0  0  0  0  0  0  0  0  0
  -20.2137  -27.8811   18.5692 C   0  0  0  0  0  0  0  0  0  0  0  0
  -28.8689  -23.0396   17.2113 C   0  0  0  0  0  0  0  0  0  0  0  0
  -25.0872  -22.1284   21.1034 C   0  0  0  0  0  0  0  0  0  0  0  0
  -26.5503  -22.1219   21.6035 C   0  0  1  0  0  0  0  0  0  0  0  0
  -29.3716  -23.6208   22.0171 C   0  0  0  0  0  0  0  0  0  0  0  0
  -22.9253  -26.8482   22.6208 C   0  0  1  0  0  0  0  0  0  0  0  0
  -19.5877  -27.0304   20.8327 C   0  0  2  0  0  0  0  0  0  0  0  0
  -28.6359  -24.4421   16.6394 C   0  0  2  0  0  0  0  0  0  1  0  0
  -23.0141  -26.3444   24.0890 C   0  0  0  0  0  0  0  0  0  0  0  0
  -27.8890  -15.5086   21.9351 N   0  0  0  0  0  0  0  0  0  0  0  0
  -29.3654  -23.4571   19.5952 N   0  0  0  0  0  0  0  0  0  0  0  0
  -28.5202  -22.9554   18.6786 N   0  0  0  0  0  0  0  0  0  0  0  0
  -28.9847  -16.2653   22.1167 N   0  0  0  0  0  0  0  0  0  0  0  0
  -24.7637  -28.0035   21.4336 N   0  0  0  0  0  0  0  0  0  0  0  0
  -27.4627  -19.3064   23.8615 N   0  0  0  0  0  0  0  0  0  0  0  0
  -31.2651  -16.4641   21.5079 N   0  0  0  0  0  0  0  0  0  0  0  0
  -29.9162  -12.7622   19.3005 N   0  0  0  0  0  0  0  0  0  0  0  0
  -27.8804  -29.7388   22.1896 N   0  0  0  0  0  0  0  0  0  0  0  0
  -21.5709  -27.1596   22.1768 N   0  0  0  0  0  0  0  0  0  0  0  0
  -26.8782  -20.8201   22.1410 N   0  0  0  0  0  0  0  0  0  0  0  0
  -24.1516  -21.7268   22.1851 N   0  3  0  0  0  0  0  0  0  0  0  0
  -19.2944  -27.0336   19.3716 N   0  3  0  0  0  0  0  0  0  0  0  0
  -31.7063  -14.1342   19.7152 O   0  0  0  0  0  0  0  0  0  0  0  0
  -26.9466  -27.6732   22.7225 O   0  0  0  0  0  0  0  0  0  0  0  0
  -23.4805  -29.1177   23.0299 O   0  0  0  0  0  0  0  0  0  0  0  0
  -21.5439  -25.6837   20.3885 O   0  0  0  0  0  0  0  0  0  0  0  0
  -27.1332  -21.5604   24.2959 O   0  0  0  0  0  0  0  0  0  0  0  0
  -24.8041  -10.5505   19.3956 O   0  0  0  0  0  0  0  0  0  0  0  0
  -27.2600  -24.7845   16.8012 O   0  0  0  0  0  0  0  0  0  1  0  0
  -21.5509   -8.1969   23.1747 F   0  0  0  0  0  0  0  0  0  0  0  0
  -22.9990  -12.0572   20.8495 F   0  0  0  0  0  0  0  0  0  0  0  0
  1  2  1  0  0  0  0
  1  5  2  0  0  0  0
  2  6  2  0  0  0  0
  3  8  2  0  0  0  0
  3 16  1  0  0  0  0
  4  9  1  0  0  0  0
  4 16  2  0  0  0  0
  5 18  1  0  0  0  0
  6 20  1  0  0  0  0
  7 10  2  0  0  0  0
  7 19  1  0  0  0  0
  8 23  1  0  0  0  0
  9 23  2  0  0  0  0
 10 24  1  0  0  0  0
 11 12  2  0  0  0  0
 11 25  1  0  0  0  0
 12 26  1  0  0  0  0
 13 21  1  0  0  0  0
 13 24  2  0  0  0  0
 14 26  2  0  0  0  0
 14 27  1  0  0  0  0
 15 22  2  0  0  0  0
 15 67  1  0  0  0  0
 16 28  1  0  0  0  0
 17 28  1  0  0  0  0
 17 30  2  0  0  0  0
 17 31  1  0  0  0  0
 18 20  2  0  0  0  0
 18 36  1  0  0  0  0
 19 21  2  0  0  0  0
 19 37  1  0  0  0  0
 20 45  1  0  0  0  0
 21 38  1  0  0  0  0
 22 29  1  0  0  0  0
 22 59  1  0  0  0  0
 23 83  1  0  0  0  0
 24 84  1  0  0  0  0
 25 27  2  0  0  0  0
 25 83  1  0  0  0  0
 26 85  1  0  0  0  0
 27 86  1  0  0  0  0
 28 65  2  0  0  0  0
 29 60  1  0  0  0  0
 29 66  2  0  0  0  0
 30 68  1  0  0  0  0
 30 71  1  0  0  0  0
 31 72  1  0  0  0  0
 31 78  2  0  0  0  0
 32 46  1  0  0  0  0
 32 73  1  0  0  0  0
 32 79  2  0  0  0  0
 33 61  1  0  0  0  0
 33 69  1  0  0  0  0
 33 80  2  0  0  0  0
 34 62  1  0  0  0  0
 34 74  1  0  0  0  0
 34 81  2  0  0  0  0
 35 70  1  0  0  0  0
 35 75  1  0  0  0  0
 35 82  2  0  0  0  0
 36 39  1  0  0  0  0
 37 46  1  0  0  0  0
 38 69  1  0  0  0  0
 39 41  1  0  0  0  0
 40 42  1  0  0  0  0
 40 43  1  0  0  0  0
 41 45  1  0  0  0  0
 42 47  1  0  0  0  0
 43 70  1  0  0  0  0
 44 47  1  0  0  0  0
 44 70  1  0  0  0  0
 45 73  1  0  0  0  0
 46 69  1  0  0  0  0
 47 68  1  0  0  0  0
 48 60  1  0  0  0  0
 49 60  1  0  0  0  0
 50 62  1  0  0  0  0
 51 63  1  0  0  0  0
 52 64  1  0  0  0  0
 53 64  1  0  0  0  0
 54 64  1  0  0  0  0
 55 76  1  0  0  0  0
 56 77  1  0  0  0  0
 57 63  1  0  0  0  0
 57 67  1  0  0  0  0
 58 59  1  0  0  0  0
 58 76  1  0  0  0  0
 59 75  1  0  0  0  0
 61 64  1  0  0  0  0
 61 74  1  0  0  0  0
 62 77  1  0  0  0  0
 63 84  1  0  0  0  0
 65 68  1  0  0  0  0
 66 67  1  0  0  0  0
M  CHG  2  76   1  77   1
M  ISO  4  35 100  63 101  75 100  84 101
M  END
> <Batch ID>
0109

> <Smiles>
CNCC([100NH:0][100C:0](=O)N1CCCC(n2nc(-c3ccc(Oc4ccc(F)cc4F)cc3)c(C(N)=O)c2N)C1)c1cn(C[101CH:1](C)[101O:1]c2ccc3c(c2)CN(C(=O)C(NC(=O)C(C)NC)C(C)(C)C)C(C(=O)NC2CCCc4ccccc42)C3)nc1C(C)C

> <Shape>
0.218

> <Color>
0.072

> <Negative vol penalty>
0.000

$$$$

  -OEChem-04052319563D

 88 96  0     1  0  0  0  0  0999 V2000
  -30.4547  -28.1551   15.6441 C   0  0  0  0  0  0  0  0  0  0  0  0
  -29.1858  -27.7340   16.0290 C   0  0  0  0  0  0  0  0  0  0  0  0
  -23.8023   -9.6548   22.1747 C   0  0  0  0  0  0  0  0  0  0  0  0
  -22.5196   -9.9512   20.1489 C   0  0  0  0  0  0  0  0  0  0  0  0
  -31.2994  -28.7593   16.5743 C   0  0  0  0  0  0  0  0  0  0  0  0
  -28.7613  -27.9159   17.3447 C   0  0  0  0  0  0  0  0  0  0  0  0
  -23.0734  -29.1680   19.2381 C   0  0  0  0  0  0  0  0  0  0  0  0
  -23.4803   -8.2976   22.1800 C   0  0  0  0  0  0  0  0  0  0  0  0
  -22.1976   -8.5940   20.1542 C   0  0  0  0  0  0  0  0  0  0  0  0
  -22.0565  -28.3630   19.7494 C   0  0  0  0  0  0  0  0  0  0  0  0
  -20.8409   -6.3677   23.0363 C   0  0  0  0  0  0  0  0  0  0  0  0
  -20.4420   -5.8018   24.2472 C   0  0  0  0  0  0  0  0  0  0  0  0
  -18.3851  -20.9031   23.7400 C   0  0  0  0  0  0  0  0  0  0  0  0
  -22.7348  -28.9403   21.9913 C   0  0  0  0  0  0  0  0  0  0  0  0
  -22.2985   -4.2595   24.1380 C   0  0  0  0  0  0  0  0  0  0  0  0
  -18.5549  -22.2251   24.1185 C   0  0  0  0  0  0  0  0  0  0  0  0
  -23.3219  -10.4816   21.1592 C   0  0  0  0  0  0  0  0  0  0  0  0
  -24.7646  -12.4919   20.5388 C   0  0  0  0  0  0  0  0  0  0  0  0
  -30.8814  -28.9574   17.8997 C   0  0  0  0  0  0  0  0  0  0  0  0
  -23.9370  -29.8578   20.1012 C   0  0  0  0  0  0  0  0  0  0  0  0
  -29.6017  -28.5221   18.2939 C   0  0  0  0  0  0  0  0  0  0  0  0
  -23.7603  -29.7555   21.4884 C   0  0  0  0  0  0  0  0  0  0  0  0
  -18.6203  -20.5714   22.4104 C   0  0  0  0  0  0  0  0  0  0  0  0
  -19.0126  -21.5580   21.5125 C   0  0  0  0  0  0  0  0  0  0  0  0
  -22.6780   -7.7672   21.1698 C   0  0  0  0  0  0  0  0  0  0  0  0
  -21.8888  -28.2467   21.1262 C   0  0  0  0  0  0  0  0  0  0  0  0
  -21.9686   -5.8795   22.3762 C   0  0  0  0  0  0  0  0  0  0  0  0
  -21.1708   -4.7477   24.7980 C   0  0  0  0  0  0  0  0  0  0  0  0
  -22.6974   -4.8255   22.9271 C   0  0  0  0  0  0  0  0  0  0  0  0
  -23.6537  -11.8837   21.1534 C   0  0  0  0  0  0  0  0  0  0  0  0
  -19.1540  -22.8507   21.9907 C   0  0  0  0  0  0  0  0  0  0  0  0
  -24.6247  -13.8286   20.8220 C   0  0  0  0  0  0  0  0  0  0  0  0
  -25.8279  -11.9014   19.7796 C   0  0  0  0  0  0  0  0  0  0  0  0
  -27.0666  -29.8066   20.6552 C   0  0  0  0  0  0  0  0  0  0  0  0
  -26.3737  -32.3281   22.5746 C   0  0  0  0  0  0  0  0  0  0  0  0
  -24.0545  -33.9980   24.4400 C   0  0  0  0  0  0  0  0  0  0  0  0
  -19.8691  -17.1224   22.0016 C   0  0  0  0  0  0  0  0  0  0  0  0
  -31.8474  -29.5724   18.8813 C   0  0  0  0  0  0  0  0  0  0  0  0
  -25.0122  -30.7433   19.5335 C   0  0  0  0  0  0  0  0  0  0  0  0
  -24.6480  -30.4914   22.4573 C   0  0  0  0  0  0  0  0  0  0  0  0
  -31.1813  -30.0673   20.1625 C   0  0  0  0  0  0  0  0  0  0  0  0
  -22.7936  -16.7887   24.1072 C   0  0  0  0  0  0  0  0  0  0  0  0
  -30.2212  -29.0141   20.7063 C   0  0  0  0  0  0  0  0  0  0  0  0
  -23.4511  -15.5391   23.5187 C   0  0  0  0  0  0  0  0  0  0  0  0
  -21.2727  -16.6672   24.1029 C   0  0  0  0  0  0  0  0  0  0  0  0
  -21.3368  -15.1328   22.1754 C   0  0  0  0  0  0  0  0  0  0  0  0
  -29.0959  -28.7243   19.7057 C   0  0  1  0  0  0  0  0  0  0  0  0
  -26.1573  -30.9939   20.5100 C   0  0  1  0  0  0  0  0  0  0  0  0
  -22.8740  -15.2031   22.1308 C   0  0  2  0  0  0  0  0  0  0  0  0
  -17.0151  -18.6393   22.1833 C   0  0  0  0  0  0  0  0  0  0  0  0
  -23.7943  -36.0051   25.9237 C   0  0  0  0  0  0  0  0  0  0  0  0
  -23.3411  -20.1729   18.7320 C   0  0  0  0  0  0  0  0  0  0  0  0
  -22.0987  -18.0049   18.9871 C   0  0  0  0  0  0  0  0  0  0  0  0
  -27.7986  -30.8441   24.8279 C   0  0  0  0  0  0  0  0  0  0  0  0
  -26.7033  -32.4024   26.4528 C   0  0  0  0  0  0  0  0  0  0  0  0
  -28.2718  -33.2979   24.7322 C   0  0  0  0  0  0  0  0  0  0  0  0
  -22.0383  -35.2091   22.6436 C   0  0  0  0  0  0  0  0  0  0  0  0
  -19.2720  -21.2313   20.0802 C   0  0  0  0  0  0  0  0  0  0  0  0
  -19.5767  -23.9629   21.0644 C   0  0  0  0  0  0  0  0  0  0  0  0
  -20.0039  -25.2403   21.7906 C   0  0  0  0  0  0  0  0  0  0  0  0
  -20.8111  -20.1341   18.4475 C   0  0  0  0  0  0  0  0  0  0  0  0
  -20.5102  -26.3285   20.8509 C   0  0  0  0  0  0  0  0  0  1  0  0
  -18.4456  -19.1546   21.9732 C   0  0  2  0  0  0  0  0  0  0  0  0
  -25.9823  -32.4932   24.0232 C   0  0  1  0  0  0  0  0  0  0  0  0
  -23.6835  -35.4686   24.5050 C   0  0  2  0  0  0  0  0  0  0  0  0
  -22.1249  -19.3620   18.2818 C   0  0  0  0  0  0  0  0  0  0  0  0
  -27.1733  -32.2439   24.9911 C   0  0  0  0  0  0  0  0  0  0  0  0
  -18.9346  -23.2110   23.2751 N   0  0  0  0  0  0  0  0  0  0  0  0
  -22.8662  -12.7619   21.7800 N   0  0  0  0  0  0  0  0  0  0  0  0
  -23.4831  -13.9356   21.5606 N   0  0  0  0  0  0  0  0  0  0  0  0
  -25.6888  -31.3398   21.8536 N   0  0  0  0  0  0  0  0  0  0  0  0
  -20.7862  -16.3652   22.7493 N   0  0  0  0  0  0  0  0  0  0  0  0
  -25.3680  -14.9111   20.5088 N   0  0  0  0  0  0  0  0  0  0  0  0
  -25.8182  -10.5137   19.5836 N   0  0  0  0  0  0  0  0  0  0  0  0
  -28.1035  -29.7771   19.7423 N   0  0  0  0  0  0  0  0  0  0  0  0
  -25.3879  -33.8207   24.1367 N   0  0  0  0  0  0  0  0  0  0  0  0
  -19.3902  -18.2710   22.6197 N   0  0  0  0  0  0  0  0  0  0  0  0
  -22.2841  -35.6710   24.0340 N   0  3  0  0  0  0  0  0  0  0  0  0
  -20.5608  -20.5189   19.8610 N   0  3  0  0  0  0  0  0  0  0  0  0
  -26.7679  -12.5821   19.3035 O   0  0  0  0  0  0  0  0  0  0  0  0
  -26.8448  -28.9792   21.5316 O   0  0  0  0  0  0  0  0  0  0  0  0
  -27.2497  -33.0543   22.0984 O   0  0  0  0  0  0  0  0  0  0  0  0
  -23.2436  -33.0969   24.6419 O   0  0  0  0  0  0  0  0  0  0  0  0
  -19.5076  -16.8014   20.8643 O   0  0  0  0  0  0  0  0  0  0  0  0
  -22.3638   -6.4429   21.1745 O   0  0  0  0  0  0  0  0  0  0  0  0
  -20.8974  -27.4610   21.6279 O   0  0  0  0  0  0  0  0  0  1  0  0
  -20.7885   -4.2054   25.9616 F   0  0  0  0  0  0  0  0  0  0  0  0
  -23.7823   -4.3530   22.2982 F   0  0  0  0  0  0  0  0  0  0  0  0
  1  2  1  0  0  0  0
  1  5  2  0  0  0  0
  2  6  2  0  0  0  0
  3  8  2  0  0  0  0
  3 17  1  0  0  0  0
  4  9  1  0  0  0  0
  4 17  2  0  0  0  0
  5 19  1  0  0  0  0
  6 21  1  0  0  0  0
  7 10  2  0  0  0  0
  7 20  1  0  0  0  0
  8 25  1  0  0  0  0
  9 25  2  0  0  0  0
 10 26  1  0  0  0  0
 11 12  2  0  0  0  0
 11 27  1  0  0  0  0
 12 28  1  0  0  0  0
 13 16  1  0  0  0  0
 13 23  2  0  0  0  0
 14 22  1  0  0  0  0
 14 26  2  0  0  0  0
 15 28  2  0  0  0  0
 15 29  1  0  0  0  0
 16 68  2  0  0  0  0
 17 30  1  0  0  0  0
 18 30  1  0  0  0  0
 18 32  2  0  0  0  0
 18 33  1  0  0  0  0
 19 21  2  0  0  0  0
 19 38  1  0  0  0  0
 20 22  2  0  0  0  0
 20 39  1  0  0  0  0
 21 47  1  0  0  0  0
 22 40  1  0  0  0  0
 23 24  1  0  0  0  0
 23 63  1  0  0  0  0
 24 31  2  0  0  0  0
 24 58  1  0  0  0  0
 25 85  1  0  0  0  0
 26 86  1  0  0  0  0
 27 29  2  0  0  0  0
 27 85  1  0  0  0  0
 28 87  1  0  0  0  0
 29 88  1  0  0  0  0
 30 69  2  0  0  0  0
 31 59  1  0  0  0  0
 31 68  1  0  0  0  0
 32 70  1  0  0  0  0
 32 73  1  0  0  0  0
 33 74  1  0  0  0  0
 33 80  2  0  0  0  0
 34 48  1  0  0  0  0
 34 75  1  0  0  0  0
 34 81  2  0  0  0  0
 35 64  1  0  0  0  0
 35 71  1  0  0  0  0
 35 82  2  0  0  0  0
 36 65  1  0  0  0  0
 36 76  1  0  0  0  0
 36 83  2  0  0  0  0
 37 72  1  0  0  0  0
 37 77  1  0  0  0  0
 37 84  2  0  0  0  0
 38 41  1  0  0  0  0
 39 48  1  0  0  0  0
 40 71  1  0  0  0  0
 41 43  1  0  0  0  0
 42 44  1  0  0  0  0
 42 45  1  0  0  0  0
 43 47  1  0  0  0  0
 44 49  1  0  0  0  0
 45 72  1  0  0  0  0
 46 49  1  0  0  0  0
 46 72  1  0  0  0  0
 47 75  1  0  0  0  0
 48 71  1  0  0  0  0
 49 70  1  0  0  0  0
 50 63  1  0  0  0  0
 51 65  1  0  0  0  0
 52 66  1  0  0  0  0
 53 66  1  0  0  0  0
 54 67  1  0  0  0  0
 55 67  1  0  0  0  0
 56 67  1  0  0  0  0
 57 78  1  0  0  0  0
 58 79  1  0  0  0  0
 59 60  1  0  0  0  0
 60 62  1  0  0  0  0
 61 66  1  0  0  0  0
 61 79  1  0  0  0  0
 62 86  1  0  0  0  0
 63 77  1  0  0  0  0
 64 67  1  0  0  0  0
 64 76  1  0  0  0  0
 65 78  1  0  0  0  0
 69 70  1  0  0  0  0
M  CHG  2  78   1  79   1
M  ISO  4  37 100  62 101  77 100  86 101
M  END
> <Batch ID>
0109

> <Smiles>
CNC(C)C(=O)NC(C(=O)N1Cc2cc([101O:1][101CH2:1]CCc3nccc(C(C)[100NH:0][100C:0](=O)N4CCCC(n5nc(-c6ccc(Oc7ccc(F)cc7F)cc6)c(C(N)=O)c5N)C4)c3CNCC(C)C)ccc2CC1C(=O)NC1CCCc2ccccc21)C(C)(C)C

> <Shape>
0.258

> <Color>
0.129

> <Negative vol penalty>
0.000

$$$$

  -OEChem-04052319563D

 88 96  0     1  0  0  0  0  0999 V2000
  -22.7616  -30.1005   27.4063 C   0  0  0  0  0  0  0  0  0  0  0  0
  -22.8254  -29.1468   26.3954 C   0  0  0  0  0  0  0  0  0  0  0  0
  -23.8624   -9.6609   19.9897 C   0  0  0  0  0  0  0  0  0  0  0  0
  -23.2072  -10.1244   22.2685 C   0  0  0  0  0  0  0  0  0  0  0  0
  -23.4044  -29.8702   28.6219 C   0  0  0  0  0  0  0  0  0  0  0  0
  -23.5331  -27.9627   26.5992 C   0  0  0  0  0  0  0  0  0  0  0  0
  -22.1411  -22.4176   24.4039 C   0  0  0  0  0  0  0  0  0  0  0  0
  -23.1642   -8.4542   20.0343 C   0  0  0  0  0  0  0  0  0  0  0  0
  -22.5089   -8.9177   22.3131 C   0  0  0  0  0  0  0  0  0  0  0  0
  -22.6095  -21.6993   23.3046 C   0  0  0  0  0  0  0  0  0  0  0  0
  -23.6388   -5.3467   21.2763 C   0  0  0  0  0  0  0  0  0  0  0  0
  -24.2703   -4.2140   20.7628 C   0  0  0  0  0  0  0  0  0  0  0  0
  -24.1704  -20.5416   24.7337 C   0  0  0  0  0  0  0  0  0  0  0  0
  -22.4864   -3.9482   19.1553 C   0  0  0  0  0  0  0  0  0  0  0  0
  -23.8840  -10.4959   21.1068 C   0  0  0  0  0  0  0  0  0  0  0  0
  -24.1092  -12.9980   20.6636 C   0  0  0  0  0  0  0  0  0  0  0  0
  -24.1122  -28.6785   28.8441 C   0  0  0  0  0  0  0  0  0  0  0  0
  -22.6923  -22.2107   25.6766 C   0  0  0  0  0  0  0  0  0  0  0  0
  -24.1871  -27.7169   27.8184 C   0  0  0  0  0  0  0  0  0  0  0  0
  -23.7055  -21.2567   25.8480 C   0  0  0  0  0  0  0  0  0  0  0  0
  -22.4874   -8.0826   21.1960 C   0  0  0  0  0  0  0  0  0  0  0  0
  -23.6263  -20.7632   23.4689 C   0  0  0  0  0  0  0  0  0  0  0  0
  -22.4310   -5.7802   20.7294 C   0  0  0  0  0  0  0  0  0  0  0  0
  -23.6941   -3.5147   19.7023 C   0  0  0  0  0  0  0  0  0  0  0  0
  -21.8548   -5.0809   19.6689 C   0  0  0  0  0  0  0  0  0  0  0  0
  -24.6056  -11.7423   21.0615 C   0  0  0  0  0  0  0  0  0  0  0  0
  -25.1789  -13.8488   20.7990 C   0  0  0  0  0  0  0  0  0  0  0  0
  -22.7982  -13.3629   20.2120 C   0  0  0  0  0  0  0  0  0  0  0  0
  -24.2641  -24.0231   27.7619 C   0  0  0  0  0  0  0  0  0  0  0  0
  -23.9752  -21.4086   29.6601 C   0  0  0  0  0  0  0  0  0  0  0  0
  -28.2089  -17.5618   14.6624 C   0  0  0  0  0  0  0  0  0  0  0  0
  -23.5452  -18.0312   29.8937 C   0  0  0  0  0  0  0  0  0  0  0  0
  -30.6590  -14.7506   19.8206 C   0  0  0  0  0  0  0  0  0  0  0  0
  -24.8306  -28.4950   30.1575 C   0  0  0  0  0  0  0  0  0  0  0  0
  -22.1576  -22.9744   26.8569 C   0  0  0  0  0  0  0  0  0  0  0  0
  -24.3168  -20.9826   27.1969 C   0  0  0  0  0  0  0  0  0  0  0  0
  -25.2457  -27.0511   30.4282 C   0  0  0  0  0  0  0  0  0  0  0  0
  -29.6875  -13.1741   22.9889 C   0  0  0  0  0  0  0  0  0  0  0  0
  -25.9009  -26.4434   29.1920 C   0  0  0  0  0  0  0  0  0  0  0  0
  -28.2518  -12.7231   22.7150 C   0  0  0  0  0  0  0  0  0  0  0  0
  -30.5378  -13.1789   21.7204 C   0  0  0  0  0  0  0  0  0  0  0  0
  -29.0046  -16.7033   19.9566 C   0  0  0  0  0  0  0  0  0  0  0  0
  -28.5281  -13.4838   20.3275 C   0  0  0  0  0  0  0  0  0  0  0  0
  -30.7314  -16.6899   18.2796 C   0  0  0  0  0  0  0  0  0  0  0  0
  -24.9242  -26.4092   28.0104 C   0  0  1  0  0  0  0  0  0  0  0  0
  -23.1463  -23.0518   28.0162 C   0  0  1  0  0  0  0  0  0  0  0  0
  -29.2543  -18.1354   19.4758 C   0  0  1  0  0  0  0  0  0  0  0  0
  -27.6237  -13.5350   21.5665 C   0  0  1  0  0  0  0  0  0  0  0  0
  -29.8724  -17.9326   18.0864 C   0  0  2  0  0  0  0  0  0  0  0  0
  -23.3886  -16.1771   31.5776 C   0  0  0  0  0  0  0  0  0  0  0  0
  -28.3289  -20.4066   18.9801 C   0  0  0  0  0  0  0  0  0  0  0  0
  -28.5793  -17.0421   11.0408 C   0  0  0  0  0  0  0  0  0  0  0  0
  -27.0912  -18.8773   11.9147 C   0  0  0  0  0  0  0  0  0  0  0  0
  -26.9982  -21.5190   30.0592 C   0  0  0  0  0  0  0  0  0  0  0  0
  -26.8998  -19.1714   30.9235 C   0  0  0  0  0  0  0  0  0  0  0  0
  -25.6916  -20.9929   32.1258 C   0  0  0  0  0  0  0  0  0  0  0  0
  -20.7998  -17.3304   29.0391 C   0  0  0  0  0  0  0  0  0  0  0  0
  -29.3193  -17.8020   15.6542 C   0  0  0  0  0  0  0  0  0  0  0  0
  -25.9760  -19.5640   20.9981 C   0  0  0  0  0  0  0  0  0  0  0  0
  -27.4467  -19.1463   20.9664 C   0  0  0  0  0  0  0  0  0  0  0  0
  -25.4505  -19.6502   22.4251 C   0  0  0  0  0  0  0  0  0  1  0  0
  -24.8021  -20.1700   29.9068 C   0  0  1  0  0  0  0  0  0  0  0  0
  -22.6145  -17.1910   30.7496 C   0  0  2  0  0  0  0  0  0  0  0  0
  -28.0139  -19.0127   19.5372 C   0  0  2  0  0  0  0  0  0  0  0  0
  -27.7692  -17.5506   12.2244 C   0  0  0  0  0  0  0  0  0  0  0  0
  -26.0879  -20.4696   30.7279 C   0  0  0  0  0  0  0  0  0  0  0  0
  -25.8908  -11.7867   21.4225 N   0  0  0  0  0  0  0  0  0  0  0  0
  -26.2110  -13.0807   21.2519 N   0  0  0  0  0  0  0  0  0  0  0  0
  -23.7644  -21.7593   28.3191 N   0  0  0  0  0  0  0  0  0  0  0  0
  -29.8836  -13.9383   20.6549 N   0  0  0  0  0  0  0  0  0  0  0  0
  -30.0726  -15.9175   19.3309 N   0  0  0  0  0  0  0  0  0  0  0  0
  -25.3280  -15.1714   20.5736 N   0  0  0  0  0  0  0  0  0  0  0  0
  -21.8173  -12.3650   20.1321 N   0  0  0  0  0  0  0  0  0  0  0  0
  -23.9869  -25.3168   28.1608 N   0  0  0  0  0  0  0  0  0  0  0  0
  -23.9081  -19.1997   30.5295 N   0  0  0  0  0  0  0  0  0  0  0  0
  -28.6466  -17.7273   13.3569 N   0  0  0  0  0  0  0  0  0  0  0  0
  -28.8407  -17.6518   17.0544 N   0  3  0  0  0  0  0  0  0  0  0  0
  -21.6448  -16.4542   29.8907 N   0  3  0  0  0  0  0  0  0  0  0  0
  -22.5099  -14.5357   19.8732 O   0  0  0  0  0  0  0  0  0  0  0  0
  -25.3018  -23.6279   27.2435 O   0  0  0  0  0  0  0  0  0  0  0  0
  -23.5267  -22.0377   30.6217 O   0  0  0  0  0  0  0  0  0  0  0  0
  -27.0656  -17.2570   14.9912 O   0  0  0  0  0  0  0  0  0  0  0  0
  -23.9163  -17.6837   28.7748 O   0  0  0  0  0  0  0  0  0  0  0  0
  -31.8375  -14.4715   19.5635 O   0  0  0  0  0  0  0  0  0  0  0  0
  -21.8057   -6.9054   21.2398 O   0  0  0  0  0  0  0  0  0  0  0  0
  -24.0891  -20.0560   22.3896 O   0  0  0  0  0  0  0  0  0  1  0  0
  -24.3015   -2.4279   19.2082 F   0  0  0  0  0  0  0  0  0  0  0  0
  -20.6953   -5.4932   19.1386 F   0  0  0  0  0  0  0  0  0  0  0  0
  1  2  1  0  0  0  0
  1  5  2  0  0  0  0
  2  6  2  0  0  0  0
  3  8  2  0  0  0  0
  3 15  1  0  0  0  0
  4  9  1  0  0  0  0
  4 15  2  0  0  0  0
  5 17  1  0  0  0  0
  6 19  1  0  0  0  0
  7 10  2  0  0  0  0
  7 18  1  0  0  0  0
  8 21  1  0  0  0  0
  9 21  2  0  0  0  0
 10 22  1  0  0  0  0
 11 12  2  0  0  0  0
 11 23  1  0  0  0  0
 12 24  1  0  0  0  0
 13 20  1  0  0  0  0
 13 22  2  0  0  0  0
 14 24  2  0  0  0  0
 14 25  1  0  0  0  0
 15 26  1  0  0  0  0
 16 26  1  0  0  0  0
 16 27  2  0  0  0  0
 16 28  1  0  0  0  0
 17 19  2  0  0  0  0
 17 34  1  0  0  0  0
 18 20  2  0  0  0  0
 18 35  1  0  0  0  0
 19 45  1  0  0  0  0
 20 36  1  0  0  0  0
 21 85  1  0  0  0  0
 22 86  1  0  0  0  0
 23 25  2  0  0  0  0
 23 85  1  0  0  0  0
 24 87  1  0  0  0  0
 25 88  1  0  0  0  0
 26 67  2  0  0  0  0
 27 68  1  0  0  0  0
 27 72  1  0  0  0  0
 28 73  1  0  0  0  0
 28 79  2  0  0  0  0
 29 46  1  0  0  0  0
 29 74  1  0  0  0  0
 29 80  2  0  0  0  0
 30 62  1  0  0  0  0
 30 69  1  0  0  0  0
 30 81  2  0  0  0  0
 31 58  1  0  0  0  0
 31 76  1  0  0  0  0
 31 82  2  0  0  0  0
 32 63  1  0  0  0  0
 32 75  1  0  0  0  0
 32 83  2  0  0  0  0
 33 70  1  0  0  0  0
 33 71  1  0  0  0  0
 33 84  2  0  0  0  0
 34 37  1  0  0  0  0
 35 46  1  0  0  0  0
 36 69  1  0  0  0  0
 37 39  1  0  0  0  0
 38 40  1  0  0  0  0
 38 41  1  0  0  0  0
 39 45  1  0  0  0  0
 40 48  1  0  0  0  0
 41 70  1  0  0  0  0
 42 47  1  0  0  0  0
 42 71  1  0  0  0  0
 43 48  1  0  0  0  0
 43 70  1  0  0  0  0
 44 49  1  0  0  0  0
 44 71  1  0  0  0  0
 45 74  1  0  0  0  0
 46 69  1  0  0  0  0
 47 49  1  0  0  0  0
 47 64  1  0  0  0  0
 48 68  1  0  0  0  0
 49 77  1  0  0  0  0
 50 63  1  0  0  0  0
 51 64  1  0  0  0  0
 52 65  1  0  0  0  0
 53 65  1  0  0  0  0
 54 66  1  0  0  0  0
 55 66  1  0  0  0  0
 56 66  1  0  0  0  0
 57 78  1  0  0  0  0
 58 77  1  0  0  0  0
 59 60  1  0  0  0  0
 59 61  1  0  0  0  0
 60 64  1  0  0  0  0
 61 86  1  0  0  0  0
 62 66  1  0  0  0  0
 62 75  1  0  0  0  0
 63 78  1  0  0  0  0
 65 76  1  0  0  0  0
 67 68  1  0  0  0  0
M  CHG  2  77   1  78   1
M  ISO  4  33 100  61 101  71 100  86 101
M  END
> <Batch ID>
0109

> <Smiles>
CNC(C)C(=O)NC(C(=O)N1Cc2cc([101O:1][101CH2:1]CCC(C)C3C[100N:0]([100C:0](=O)N4CCCC(n5nc(-c6ccc(Oc7ccc(F)cc7F)cc6)c(C(N)=O)c5N)C4)CC3NCC(=O)NC(C)C)ccc2CC1C(=O)NC1CCCc2ccccc21)C(C)(C)C

> <Shape>
0.132

> <Color>
0.125

> <Negative vol penalty>
0.000

$$$$

  -OEChem-04052319563D

 85 93  0     1  0  0  0  0  0999 V2000
  -29.6568  -11.6524   19.5921 C   0  0  0  0  0  0  0  0  0  0  0  0
  -29.9207  -13.0182   19.6123 C   0  0  0  0  0  0  0  0  0  0  0  0
  -28.4826  -26.8240   21.6489 C   0  0  0  0  0  0  0  0  0  0  0  0
  -29.6299  -28.5778   20.4469 C   0  0  0  0  0  0  0  0  0  0  0  0
  -28.3397  -11.1989   19.5331 C   0  0  0  0  0  0  0  0  0  0  0  0
  -28.8676  -13.9313   19.5724 C   0  0  0  0  0  0  0  0  0  0  0  0
  -27.0081  -20.4174   21.9784 C   0  0  0  0  0  0  0  0  0  0  0  0
  -29.2497  -25.8669   20.9847 C   0  0  0  0  0  0  0  0  0  0  0  0
  -30.3971  -27.6207   19.7827 C   0  0  0  0  0  0  0  0  0  0  0  0
  -26.5248  -21.6403   21.5150 C   0  0  0  0  0  0  0  0  0  0  0  0
  -29.2917  -24.3759   17.9517 C   0  0  0  0  0  0  0  0  0  0  0  0
  -28.6324  -23.2565   17.4438 C   0  0  0  0  0  0  0  0  0  0  0  0
  -17.8452  -28.0272   23.0254 C   0  0  0  0  0  0  0  0  0  0  0  0
  -24.2865  -20.7410   21.4942 C   0  0  0  0  0  0  0  0  0  0  0  0
  -29.9954  -21.8239   18.8320 C   0  0  0  0  0  0  0  0  0  0  0  0
  -18.1548  -26.7318   22.6434 C   0  0  0  0  0  0  0  0  0  0  0  0
  -28.6727  -28.1795   21.3799 C   0  0  0  0  0  0  0  0  0  0  0  0
  -28.1831  -29.8056   23.2835 C   0  0  0  0  0  0  0  0  0  0  0  0
  -27.2695  -12.1068   19.5023 C   0  0  0  0  0  0  0  0  0  0  0  0
  -26.1342  -19.3419   22.1931 C   0  0  0  0  0  0  0  0  0  0  0  0
  -27.5350  -13.4895   19.5116 C   0  0  0  0  0  0  0  0  0  0  0  0
  -24.7608  -19.5063   21.9628 C   0  0  0  0  0  0  0  0  0  0  0  0
  -18.8554  -28.9811   22.9700 C   0  0  0  0  0  0  0  0  0  0  0  0
  -20.1263  -28.6156   22.5404 C   0  0  0  0  0  0  0  0  0  0  0  0
  -30.2070  -26.2653   20.0517 C   0  0  0  0  0  0  0  0  0  0  0  0
  -25.1642  -21.8014   21.2701 C   0  0  0  0  0  0  0  0  0  0  0  0
  -30.3028  -24.2193   18.8997 C   0  0  0  0  0  0  0  0  0  0  0  0
  -28.9842  -21.9806   17.8839 C   0  0  0  0  0  0  0  0  0  0  0  0
  -30.6547  -22.9433   19.3398 C   0  0  0  0  0  0  0  0  0  0  0  0
  -27.8801  -29.1686   22.0653 C   0  0  0  0  0  0  0  0  0  0  0  0
  -20.3338  -27.2938   22.1803 C   0  0  0  0  0  0  0  0  0  0  0  0
  -27.1226  -30.6505   23.5023 C   0  0  0  0  0  0  0  0  0  0  0  0
  -29.3215  -29.6478   24.1408 C   0  0  0  0  0  0  0  0  0  0  0  0
  -25.8285  -16.4222   20.9744 C   0  0  0  0  0  0  0  0  0  0  0  0
  -23.5657  -16.1199   23.2789 C   0  0  0  0  0  0  0  0  0  0  0  0
  -21.3388  -17.6413   25.3700 C   0  0  0  0  0  0  0  0  0  0  0  0
  -21.4275  -30.3387   21.3024 C   0  0  0  0  0  0  0  0  0  0  0  0
  -25.8647  -11.5695   19.3910 C   0  0  0  0  0  0  0  0  0  0  0  0
  -26.6677  -18.0375   22.7187 C   0  0  0  0  0  0  0  0  0  0  0  0
  -23.7782  -18.3891   22.1968 C   0  0  0  0  0  0  0  0  0  0  0  0
  -24.7900  -12.5993   19.7299 C   0  0  0  0  0  0  0  0  0  0  0  0
  -23.7886  -33.1710   21.1861 C   0  0  0  0  0  0  0  0  0  0  0  0
  -25.0802  -13.9235   19.0305 C   0  0  0  0  0  0  0  0  0  0  0  0
  -25.1377  -32.5003   21.4395 C   0  0  0  0  0  0  0  0  0  0  0  0
  -22.8086  -32.2291   20.4928 C   0  0  0  0  0  0  0  0  0  0  0  0
  -23.9619  -30.2636   21.4608 C   0  0  0  0  0  0  0  0  0  0  0  0
  -26.4185  -14.5109   19.4947 C   0  0  1  0  0  0  0  0  0  0  0  0
  -25.7569  -16.8526   22.4122 C   0  0  1  0  0  0  0  0  0  0  0  0
  -24.9571  -31.1734   22.1969 C   0  0  1  0  0  0  0  0  0  0  0  0
  -18.1239  -30.4884   24.8532 C   0  0  0  0  0  0  0  0  0  0  0  0
  -17.4785  -31.0345   22.4783 C   0  0  0  0  0  0  0  0  0  0  0  0
  -19.6033  -17.1298   27.1089 C   0  0  0  0  0  0  0  0  0  0  0  0
  -21.6269  -15.2571   21.0866 C   0  0  0  0  0  0  0  0  0  0  0  0
  -19.7440  -15.6816   22.6813 C   0  0  0  0  0  0  0  0  0  0  0  0
  -21.4544  -13.9437   23.2079 C   0  0  0  0  0  0  0  0  0  0  0  0
  -21.8825  -29.9554   23.7140 C   0  0  0  0  0  0  0  0  0  0  0  0
  -22.8146  -19.1415   27.4511 C   0  0  0  0  0  0  0  0  0  0  0  0
  -21.6891  -26.8337   21.7056 C   0  0  0  0  0  0  0  0  0  0  0  0
  -21.8465  -25.3097   21.6652 C   0  0  0  0  0  0  0  0  0  0  0  0
  -23.2508  -24.8635   21.2556 C   0  0  0  0  0  0  0  0  0  0  0  0
  -23.3578  -23.3461   21.1881 C   0  0  0  0  0  0  0  0  0  1  0  0
  -18.5469  -30.3850   23.3766 C   0  0  0  0  0  0  0  0  0  0  0  0
  -22.0824  -16.3879   23.3625 C   0  0  1  0  0  0  0  0  0  0  0  0
  -21.0649  -17.4625   26.8524 C   0  0  2  0  0  0  0  0  0  0  0  0
  -21.2454  -15.3382   22.5782 C   0  0  0  0  0  0  0  0  0  0  0  0
  -19.3775  -26.3391   22.2208 N   0  0  0  0  0  0  0  0  0  0  0  0
  -26.7180  -29.5740   21.5465 N   0  0  0  0  0  0  0  0  0  0  0  0
  -26.2814  -30.4748   22.4432 N   0  0  0  0  0  0  0  0  0  0  0  0
  -24.3495  -17.1309   22.7051 N   0  0  0  0  0  0  0  0  0  0  0  0
  -22.6900  -30.9581   21.2083 N   0  0  0  0  0  0  0  0  0  0  0  0
  -26.8368  -31.5191   24.4954 N   0  0  0  0  0  0  0  0  0  0  0  0
  -30.3190  -28.7373   23.7660 N   0  0  0  0  0  0  0  0  0  0  0  0
  -26.2757  -15.1269   20.7964 N   0  0  0  0  0  0  0  0  0  0  0  0
  -21.7614  -16.4672   24.7834 N   0  0  0  0  0  0  0  0  0  0  0  0
  -21.1942  -29.5850   22.4730 N   0  0  0  0  0  0  0  0  0  0  0  0
  -21.4003  -18.7101   27.5954 N   0  3  0  0  0  0  0  0  0  0  0  0
  -29.4425  -30.2829   25.2157 O   0  0  0  0  0  0  0  0  0  0  0  0
  -25.5007  -17.2067   20.0919 O   0  0  0  0  0  0  0  0  0  0  0  0
  -24.0134  -15.0558   23.7135 O   0  0  0  0  0  0  0  0  0  0  0  0
  -21.1890  -18.7143   24.7897 O   0  0  0  0  0  0  0  0  0  0  0  0
  -20.5675  -30.4736   20.4239 O   0  0  0  0  0  0  0  0  0  0  0  0
  -30.9559  -25.3316   19.4036 O   0  0  0  0  0  0  0  0  0  0  0  0
  -24.6900  -22.9937   20.8171 O   0  0  0  0  0  0  0  0  0  1  0  0
  -28.3500  -20.9058   17.3972 F   0  0  0  0  0  0  0  0  0  0  0  0
  -31.6245  -22.7866   20.2513 F   0  0  0  0  0  0  0  0  0  0  0  0
  1  2  1  0  0  0  0
  1  5  2  0  0  0  0
  2  6  2  0  0  0  0
  3  8  2  0  0  0  0
  3 17  1  0  0  0  0
  4  9  1  0  0  0  0
  4 17  2  0  0  0  0
  5 19  1  0  0  0  0
  6 21  1  0  0  0  0
  7 10  2  0  0  0  0
  7 20  1  0  0  0  0
  8 25  1  0  0  0  0
  9 25  2  0  0  0  0
 10 26  1  0  0  0  0
 11 12  2  0  0  0  0
 11 27  1  0  0  0  0
 12 28  1  0  0  0  0
 13 16  1  0  0  0  0
 13 23  2  0  0  0  0
 14 22  1  0  0  0  0
 14 26  2  0  0  0  0
 15 28  2  0  0  0  0
 15 29  1  0  0  0  0
 16 66  2  0  0  0  0
 17 30  1  0  0  0  0
 18 30  1  0  0  0  0
 18 32  2  0  0  0  0
 18 33  1  0  0  0  0
 19 21  2  0  0  0  0
 19 38  1  0  0  0  0
 20 22  2  0  0  0  0
 20 39  1  0  0  0  0
 21 47  1  0  0  0  0
 22 40  1  0  0  0  0
 23 24  1  0  0  0  0
 23 62  1  0  0  0  0
 24 31  2  0  0  0  0
 24 75  1  0  0  0  0
 25 82  1  0  0  0  0
 26 83  1  0  0  0  0
 27 29  2  0  0  0  0
 27 82  1  0  0  0  0
 28 84  1  0  0  0  0
 29 85  1  0  0  0  0
 30 67  2  0  0  0  0
 31 58  1  0  0  0  0
 31 66  1  0  0  0  0
 32 68  1  0  0  0  0
 32 71  1  0  0  0  0
 33 72  1  0  0  0  0
 33 77  2  0  0  0  0
 34 48  1  0  0  0  0
 34 73  1  0  0  0  0
 34 78  2  0  0  0  0
 35 63  1  0  0  0  0
 35 69  1  0  0  0  0
 35 79  2  0  0  0  0
 36 64  1  0  0  0  0
 36 74  1  0  0  0  0
 36 80  2  0  0  0  0
 37 70  1  0  0  0  0
 37 75  1  0  0  0  0
 37 81  2  0  0  0  0
 38 41  1  0  0  0  0
 39 48  1  0  0  0  0
 40 69  1  0  0  0  0
 41 43  1  0  0  0  0
 42 44  1  0  0  0  0
 42 45  1  0  0  0  0
 43 47  1  0  0  0  0
 44 49  1  0  0  0  0
 45 70  1  0  0  0  0
 46 49  1  0  0  0  0
 46 70  1  0  0  0  0
 47 73  1  0  0  0  0
 48 69  1  0  0  0  0
 49 68  1  0  0  0  0
 50 62  1  0  0  0  0
 51 62  1  0  0  0  0
 52 64  1  0  0  0  0
 53 65  1  0  0  0  0
 54 65  1  0  0  0  0
 55 65  1  0  0  0  0
 56 75  1  0  0  0  0
 57 76  1  0  0  0  0
 58 59  1  0  0  0  0
 59 60  1  0  0  0  0
 60 61  1  0  0  0  0
 61 83  1  0  0  0  0
 63 65  1  0  0  0  0
 63 74  1  0  0  0  0
 64 76  1  0  0  0  0
 67 68  1  0  0  0  0
M  CHG  1  76   1
M  ISO  4  37 100  61 101  75 100  83 101
M  END
> <Batch ID>
0109

> <Smiles>
CNC(C)C(=O)NC(C(=O)N1Cc2cc([101O:1][101CH2:1]CCCc3nccc(C(C)C)c3[100N:0](C)[100C:0](=O)N3CCCC(n4nc(-c5ccc(Oc6ccc(F)cc6F)cc5)c(C(N)=O)c4N)C3)ccc2CC1C(=O)NC1CCCc2ccccc21)C(C)(C)C

> <Shape>
0.264

> <Color>
0.063

> <Negative vol penalty>
0.000

$$$$

  -OEChem-04052319563D

 81 89  0     1  0  0  0  0  0999 V2000
  -28.9685  -32.0491   23.7379 C   0  0  0  0  0  0  0  0  0  0  0  0
  -29.3939  -30.7304   23.8624 C   0  0  0  0  0  0  0  0  0  0  0  0
  -22.9947  -10.0841   19.8912 C   0  0  0  0  0  0  0  0  0  0  0  0
  -23.9689   -9.8181   22.0860 C   0  0  0  0  0  0  0  0  0  0  0  0
  -28.0805  -32.4010   22.7223 C   0  0  0  0  0  0  0  0  0  0  0  0
  -28.9305  -29.7625   22.9720 C   0  0  0  0  0  0  0  0  0  0  0  0
  -32.0377  -24.9373   20.8346 C   0  0  0  0  0  0  0  0  0  0  0  0
  -22.2553   -8.9162   20.0778 C   0  0  0  0  0  0  0  0  0  0  0  0
  -23.2294   -8.6502   22.2727 C   0  0  0  0  0  0  0  0  0  0  0  0
  -32.0578  -23.5943   21.2082 C   0  0  0  0  0  0  0  0  0  0  0  0
  -20.0579   -7.8157   23.0886 C   0  0  0  0  0  0  0  0  0  0  0  0
  -19.4149   -7.6466   24.3148 C   0  0  0  0  0  0  0  0  0  0  0  0
  -30.4512  -23.0956   19.4792 C   0  0  0  0  0  0  0  0  0  0  0  0
  -20.6821   -5.6261   24.7006 C   0  0  0  0  0  0  0  0  0  0  0  0
  -23.8516  -10.5350   20.8953 C   0  0  0  0  0  0  0  0  0  0  0  0
  -24.2303  -13.0540   21.0334 C   0  0  0  0  0  0  0  0  0  0  0  0
  -27.6135  -31.4388   21.8130 C   0  0  0  0  0  0  0  0  0  0  0  0
  -31.2146  -25.3722   19.7859 C   0  0  0  0  0  0  0  0  0  0  0  0
  -28.0343  -30.1016   21.9441 C   0  0  0  0  0  0  0  0  0  0  0  0
  -30.4244  -24.4443   19.0926 C   0  0  0  0  0  0  0  0  0  0  0  0
  -22.3726   -8.1992   21.2685 C   0  0  0  0  0  0  0  0  0  0  0  0
  -31.2623  -22.6737   20.5324 C   0  0  0  0  0  0  0  0  0  0  0  0
  -21.0130   -6.8899   22.6684 C   0  0  0  0  0  0  0  0  0  0  0  0
  -19.7270   -6.5518   25.1208 C   0  0  0  0  0  0  0  0  0  0  0  0
  -21.3251   -5.7952   23.4744 C   0  0  0  0  0  0  0  0  0  0  0  0
  -24.6161  -11.7411   20.7028 C   0  0  0  0  0  0  0  0  0  0  0  0
  -25.2976  -13.8311   20.6548 C   0  0  0  0  0  0  0  0  0  0  0  0
  -23.0157  -13.5286   21.6295 C   0  0  0  0  0  0  0  0  0  0  0  0
  -28.7753  -27.3953   19.5399 C   0  0  0  0  0  0  0  0  0  0  0  0
  -29.0861  -26.7748   16.3712 C   0  0  0  0  0  0  0  0  0  0  0  0
  -30.1535  -24.6457   13.9270 C   0  0  0  0  0  0  0  0  0  0  0  0
  -30.9555  -14.3973   20.8208 C   0  0  0  0  0  0  0  0  0  0  0  0
  -26.6176  -31.8576   20.7607 C   0  0  0  0  0  0  0  0  0  0  0  0
  -31.2245  -26.8198   19.3776 C   0  0  0  0  0  0  0  0  0  0  0  0
  -29.5385  -24.8567   17.9465 C   0  0  0  0  0  0  0  0  0  0  0  0
  -26.4658  -30.8450   19.6285 C   0  0  0  0  0  0  0  0  0  0  0  0
  -29.3855  -12.7300   17.9060 C   0  0  0  0  0  0  0  0  0  0  0  0
  -26.3248  -29.4336   20.1898 C   0  0  0  0  0  0  0  0  0  0  0  0
  -28.0002  -12.3689   18.4390 C   0  0  0  0  0  0  0  0  0  0  0  0
  -31.8437  -16.9300   23.0193 C   0  0  0  0  0  0  0  0  0  0  0  0
  -29.7572  -17.5773   21.7504 C   0  0  0  0  0  0  0  0  0  0  0  0
  -30.4233  -12.7932   19.0222 C   0  0  0  0  0  0  0  0  0  0  0  0
  -31.3603  -15.4822   23.0104 C   0  0  0  0  0  0  0  0  0  0  0  0
  -29.3267  -16.1075   21.7435 C   0  0  0  0  0  0  0  0  0  0  0  0
  -28.6641  -13.3460   20.6720 C   0  0  0  0  0  0  0  0  0  0  0  0
  -27.5733  -29.0279   20.9824 C   0  0  1  0  0  0  0  0  0  0  0  0
  -29.9617  -27.2388   18.6312 C   0  0  1  0  0  0  0  0  0  0  0  0
  -27.5871  -13.3179   19.5771 C   0  0  2  0  0  0  0  0  0  0  0  0
  -30.6522  -17.8830   22.9495 C   0  0  0  0  0  0  0  0  0  0  0  0
  -30.2354  -24.3940   11.4315 C   0  0  0  0  0  0  0  0  0  0  0  0
  -33.6289  -21.0663   20.4460 C   0  0  0  0  0  0  0  0  0  0  0  0
  -26.1209  -26.0557   16.3488 C   0  0  0  0  0  0  0  0  0  0  0  0
  -26.4812  -24.9330   14.1403 C   0  0  0  0  0  0  0  0  0  0  0  0
  -26.8874  -27.3832   14.3728 C   0  0  0  0  0  0  0  0  0  0  0  0
  -33.1120  -24.5698   13.9155 C   0  0  0  0  0  0  0  0  0  0  0  0
  -31.5036  -19.8737   24.1796 C   0  0  0  0  0  0  0  0  0  0  0  0
  -32.2972  -19.4067   21.8660 C   0  0  0  0  0  0  0  0  0  0  0  0
  -28.5110  -25.7528   15.4205 C   0  0  1  0  0  0  0  0  0  0  0  0
  -30.9701  -24.8839   12.6696 C   0  0  2  0  0  0  0  0  0  0  0  0
  -32.4986  -20.8590   21.4457 C   0  0  2  0  0  0  0  0  0  1  0  0
  -27.0152  -26.0234   15.0934 C   0  0  0  0  0  0  0  0  0  0  0  0
  -25.8334  -11.6836   20.1561 N   0  0  0  0  0  0  0  0  0  0  0  0
  -26.2217  -12.9701   20.1402 N   0  0  0  0  0  0  0  0  0  0  0  0
  -29.5782  -26.2843   17.5890 N   0  0  0  0  0  0  0  0  0  0  0  0
  -29.9877  -13.6638   20.1143 N   0  0  0  0  0  0  0  0  0  0  0  0
  -30.4947  -15.2216   21.8586 N   0  0  0  0  0  0  0  0  0  0  0  0
  -25.5264  -15.1602   20.7151 N   0  0  0  0  0  0  0  0  0  0  0  0
  -22.0227  -12.5952   21.9563 N   0  0  0  0  0  0  0  0  0  0  0  0
  -28.6454  -28.6594   20.0828 N   0  0  0  0  0  0  0  0  0  0  0  0
  -29.3857  -25.7436   14.2530 N   0  0  0  0  0  0  0  0  0  0  0  0
  -32.2746  -24.1685   12.7559 N   0  3  0  0  0  0  0  0  0  0  0  0
  -31.1523  -19.2778   22.8393 N   0  3  1  0  0  0  0  0  0  0  0  0
  -22.8103  -14.7462   21.8503 O   0  0  0  0  0  0  0  0  0  0  0  0
  -28.0320  -26.4404   19.7330 O   0  0  0  0  0  0  0  0  0  0  0  0
  -29.1047  -27.9635   16.0424 O   0  0  0  0  0  0  0  0  0  0  0  0
  -30.1900  -23.5897   14.5548 O   0  0  0  0  0  0  0  0  0  0  0  0
  -32.1579  -14.3208   20.5388 O   0  0  0  0  0  0  0  0  0  0  0  0
  -21.6511   -7.0597   21.4511 O   0  0  0  0  0  0  0  0  0  0  0  0
  -31.2796  -21.3547   20.8975 O   0  0  0  0  0  0  0  0  0  1  0  0
  -19.1106   -6.3903   26.2990 F   0  0  0  0  0  0  0  0  0  0  0  0
  -22.2426   -4.9031   23.0766 F   0  0  0  0  0  0  0  0  0  0  0  0
  1  2  1  0  0  0  0
  1  5  2  0  0  0  0
  2  6  2  0  0  0  0
  3  8  2  0  0  0  0
  3 15  1  0  0  0  0
  4  9  1  0  0  0  0
  4 15  2  0  0  0  0
  5 17  1  0  0  0  0
  6 19  1  0  0  0  0
  7 10  2  0  0  0  0
  7 18  1  0  0  0  0
  8 21  1  0  0  0  0
  9 21  2  0  0  0  0
 10 22  1  0  0  0  0
 11 12  2  0  0  0  0
 11 23  1  0  0  0  0
 12 24  1  0  0  0  0
 13 20  1  0  0  0  0
 13 22  2  0  0  0  0
 14 24  2  0  0  0  0
 14 25  1  0  0  0  0
 15 26  1  0  0  0  0
 16 26  1  0  0  0  0
 16 27  2  0  0  0  0
 16 28  1  0  0  0  0
 17 19  2  0  0  0  0
 17 33  1  0  0  0  0
 18 20  2  0  0  0  0
 18 34  1  0  0  0  0
 19 46  1  0  0  0  0
 20 35  1  0  0  0  0
 21 78  1  0  0  0  0
 22 79  1  0  0  0  0
 23 25  2  0  0  0  0
 23 78  1  0  0  0  0
 24 80  1  0  0  0  0
 25 81  1  0  0  0  0
 26 62  2  0  0  0  0
 27 63  1  0  0  0  0
 27 67  1  0  0  0  0
 28 68  1  0  0  0  0
 28 73  2  0  0  0  0
 29 47  1  0  0  0  0
 29 69  1  0  0  0  0
 29 74  2  0  0  0  0
 30 58  1  0  0  0  0
 30 64  1  0  0  0  0
 30 75  2  0  0  0  0
 31 59  1  0  0  0  0
 31 70  1  0  0  0  0
 31 76  2  0  0  0  0
 32 65  1  0  0  0  0
 32 66  1  0  0  0  0
 32 77  2  0  0  0  0
 33 36  1  0  0  0  0
 34 47  1  0  0  0  0
 35 64  1  0  0  0  0
 36 38  1  0  0  0  0
 37 39  1  0  0  0  0
 37 42  1  0  0  0  0
 38 46  1  0  0  0  0
 39 48  1  0  0  0  0
 40 43  1  0  0  0  0
 40 49  1  0  0  0  0
 41 44  1  0  0  0  0
 41 49  1  0  0  0  0
 42 65  1  0  0  0  0
 43 66  1  0  0  0  0
 44 66  1  0  0  0  0
 45 48  1  0  0  0  0
 45 65  1  0  0  0  0
 46 69  1  0  0  0  0
 47 64  1  0  0  0  0
 48 63  1  0  0  0  0
 49 72  1  0  0  0  0
 50 59  1  0  0  0  0
 51 60  1  0  0  0  0
 52 61  1  0  0  0  0
 53 61  1  0  0  0  0
 54 61  1  0  0  0  0
 55 71  1  0  0  0  0
 56 72  1  0  0  0  0
 57 60  1  0  0  0  0
 57 72  1  0  0  0  0
 58 61  1  0  0  0  0
 58 70  1  0  0  0  0
 59 71  1  0  0  0  0
 60 79  1  0  0  0  0
 62 63  1  0  0  0  0
M  CHG  2  71   1  72   1
M  ISO  4  32 100  60 101  66 100  79 101
M  END
> <Batch ID>
0109

> <Smiles>
CNC(C)C(=O)NC(C(=O)N1Cc2cc([101O:1][101CH:1](C)CN(C)C3CC[100N:0]([100C:0](=O)N4CCCC(n5nc(-c6ccc(Oc7ccc(F)cc7F)cc6)c(C(N)=O)c5N)C4)CC3)ccc2CC1C(=O)NC1CCCc2ccccc21)C(C)(C)C

> <Shape>
0.284

> <Color>
0.194

> <Negative vol penalty>
0.000

$$$$

  -OEChem-04052319563D

 81 89  0     1  0  0  0  0  0999 V2000
  -18.7779  -29.1025   22.1740 C   0  0  0  0  0  0  0  0  0  0  0  0
  -20.0401  -28.6854   21.7638 C   0  0  0  0  0  0  0  0  0  0  0  0
  -30.0319  -17.6793   20.1412 C   0  0  0  0  0  0  0  0  0  0  0  0
  -27.7906  -18.3355   20.7600 C   0  0  0  0  0  0  0  0  0  0  0  0
  -18.0273  -28.3042   23.0362 C   0  0  0  0  0  0  0  0  0  0  0  0
  -20.5530  -27.4703   22.2163 C   0  0  0  0  0  0  0  0  0  0  0  0
  -22.6980  -24.7662   18.5107 C   0  0  0  0  0  0  0  0  0  0  0  0
  -24.9521  -28.7806   20.1077 C   0  0  0  0  0  0  0  0  0  0  0  0
  -29.7374  -16.3576   20.4757 C   0  0  0  0  0  0  0  0  0  0  0  0
  -27.4960  -17.0137   21.0945 C   0  0  0  0  0  0  0  0  0  0  0  0
  -23.9763  -25.1458   18.1035 C   0  0  0  0  0  0  0  0  0  0  0  0
  -28.1055  -13.7414   19.0883 C   0  0  0  0  0  0  0  0  0  0  0  0
  -28.5081  -12.7431   18.2013 C   0  0  0  0  0  0  0  0  0  0  0  0
  -25.2062  -27.9939   18.9897 C   0  0  0  0  0  0  0  0  0  0  0  0
  -24.9216  -23.3740   19.4401 C   0  0  0  0  0  0  0  0  0  0  0  0
  -29.8653  -11.7494   19.9356 C   0  0  0  0  0  0  0  0  0  0  0  0
  -29.0585  -18.6683   20.2834 C   0  0  0  0  0  0  0  0  0  0  0  0
  -29.1964  -20.6510   18.6842 C   0  0  0  0  0  0  0  0  0  0  0  0
  -18.5272  -27.0741   23.4918 C   0  0  0  0  0  0  0  0  0  0  0  0
  -22.5224  -23.6927   19.3957 C   0  0  0  0  0  0  0  0  0  0  0  0
  -19.8089  -26.6554   23.0864 C   0  0  0  0  0  0  0  0  0  0  0  0
  -23.6399  -22.9812   19.8550 C   0  0  0  0  0  0  0  0  0  0  0  0
  -25.7245  -28.6217   21.2528 C   0  0  0  0  0  0  0  0  0  0  0  0
  -28.4694  -16.0248   20.9524 C   0  0  0  0  0  0  0  0  0  0  0  0
  -25.0885  -24.4515   18.5705 C   0  0  0  0  0  0  0  0  0  0  0  0
  -28.5829  -13.7438   20.3990 C   0  0  0  0  0  0  0  0  0  0  0  0
  -29.3880  -11.7470   18.6249 C   0  0  0  0  0  0  0  0  0  0  0  0
  -29.4627  -12.7478   20.8226 C   0  0  0  0  0  0  0  0  0  0  0  0
  -29.3623  -20.0339   19.9386 C   0  0  0  0  0  0  0  0  0  0  0  0
  -26.2360  -27.0701   19.0672 C   0  0  0  0  0  0  0  0  0  0  0  0
  -26.7310  -27.6697   21.2291 C   0  0  0  0  0  0  0  0  0  0  0  0
  -29.6264  -21.9412   18.8767 C   0  0  0  0  0  0  0  0  0  0  0  0
  -28.6982  -20.1067   17.4549 C   0  0  0  0  0  0  0  0  0  0  0  0
  -21.3132  -23.3692   22.3175 C   0  0  0  0  0  0  0  0  0  0  0  0
  -21.7994  -20.2132   21.7469 C   0  0  0  0  0  0  0  0  0  0  0  0
  -23.5049  -17.8091   20.0269 C   0  0  0  0  0  0  0  0  0  0  0  0
  -29.6181  -26.1012   22.9027 C   0  0  0  0  0  0  0  0  0  0  0  0
  -17.6987  -26.2677   24.4604 C   0  0  0  0  0  0  0  0  0  0  0  0
  -21.1352  -23.2789   19.8043 C   0  0  0  0  0  0  0  0  0  0  0  0
  -23.5039  -21.8087   20.7905 C   0  0  0  0  0  0  0  0  0  0  0  0
  -18.1593  -24.8187   24.5965 C   0  0  0  0  0  0  0  0  0  0  0  0
  -32.5337  -24.1880   22.1845 C   0  0  0  0  0  0  0  0  0  0  0  0
  -19.6742  -24.7535   24.7628 C   0  0  0  0  0  0  0  0  0  0  0  0
  -31.9977  -22.9791   21.4155 C   0  0  0  0  0  0  0  0  0  0  0  0
  -31.5720  -24.6276   23.2863 C   0  0  0  0  0  0  0  0  0  0  0  0
  -29.6542  -23.6723   22.0685 C   0  0  0  0  0  0  0  0  0  0  0  0
  -20.3893  -25.3321   23.5359 C   0  0  1  0  0  0  0  0  0  0  0  0
  -21.1066  -22.4952   21.1129 C   0  0  1  0  0  0  0  0  0  0  0  0
  -30.5635  -23.2267   20.9105 C   0  0  2  0  0  0  0  0  0  0  0  0
  -25.4562  -29.4607   22.4540 C   0  0  0  0  0  0  0  0  0  0  0  0
  -27.9717  -26.3796   17.3779 C   0  0  0  0  0  0  0  0  0  0  0  0
  -23.7097  -15.3181   19.8033 C   0  0  0  0  0  0  0  0  0  0  0  0
  -23.3659  -20.1097   24.3633 C   0  0  0  0  0  0  0  0  0  0  0  0
  -24.3213  -17.9169   23.6235 C   0  0  0  0  0  0  0  0  0  0  0  0
  -21.8619  -18.1507   23.9696 C   0  0  0  0  0  0  0  0  0  0  0  0
  -22.6993  -17.8820   17.1800 C   0  0  0  0  0  0  0  0  0  0  0  0
  -27.5944  -27.4575   22.4292 C   0  0  0  0  0  0  0  0  0  0  0  0
  -26.5412  -26.1993   17.8700 C   0  0  1  0  0  0  0  0  0  1  0  0
  -22.9417  -19.2508   21.9656 C   0  0  1  0  0  0  0  0  0  0  0  0
  -23.0294  -16.5745   19.2825 C   0  0  2  0  0  0  0  0  0  0  0  0
  -23.1257  -18.8803   23.4644 C   0  0  0  0  0  0  0  0  0  0  0  0
  -29.8590  -20.8637   20.8598 N   0  0  0  0  0  0  0  0  0  0  0  0
  -27.0076  -26.8871   20.1620 N   0  0  0  0  0  0  0  0  0  0  0  0
  -30.0091  -22.0155   20.1837 N   0  0  0  0  0  0  0  0  0  0  0  0
  -22.1272  -21.4466   21.1661 N   0  0  0  0  0  0  0  0  0  0  0  0
  -30.2302  -24.8473   22.7411 N   0  0  0  0  0  0  0  0  0  0  0  0
  -29.7107  -23.0080   18.0538 N   0  0  0  0  0  0  0  0  0  0  0  0
  -28.2994  -18.7632   17.4321 N   0  0  0  0  0  0  0  0  0  0  0  0
  -20.3780  -24.3781   22.4477 N   0  0  0  0  0  0  0  0  0  0  0  0
  -22.6857  -18.1087   21.0948 N   0  0  0  0  0  0  0  0  0  0  0  0
  -28.3493  -26.2267   22.3504 N   0  0  0  0  0  0  0  0  0  0  0  0
  -23.3258  -16.7008   17.8274 N   0  3  0  0  0  0  0  0  0  0  0  0
  -28.6246  -20.7868   16.4035 O   0  0  0  0  0  0  0  0  0  0  0  0
  -22.2508  -23.1440   23.0737 O   0  0  0  0  0  0  0  0  0  0  0  0
  -20.6572  -19.8801   22.0726 O   0  0  0  0  0  0  0  0  0  0  0  0
  -24.5052  -18.4422   19.6965 O   0  0  0  0  0  0  0  0  0  0  0  0
  -30.1641  -27.0409   23.4907 O   0  0  0  0  0  0  0  0  0  0  0  0
  -28.1816  -14.7351   21.2787 O   0  0  0  0  0  0  0  0  0  0  0  0
  -26.3373  -24.8203   18.1752 O   0  0  0  0  0  0  0  0  0  1  0  0
  -29.7733  -10.7875   17.7734 F   0  0  0  0  0  0  0  0  0  0  0  0
  -29.9237  -12.7441   22.0809 F   0  0  0  0  0  0  0  0  0  0  0  0
  1  2  1  0  0  0  0
  1  5  2  0  0  0  0
  2  6  2  0  0  0  0
  3  9  2  0  0  0  0
  3 17  1  0  0  0  0
  4 10  1  0  0  0  0
  4 17  2  0  0  0  0
  5 19  1  0  0  0  0
  6 21  1  0  0  0  0
  7 11  2  0  0  0  0
  7 20  1  0  0  0  0
  8 14  2  0  0  0  0
  8 23  1  0  0  0  0
  9 24  1  0  0  0  0
 10 24  2  0  0  0  0
 11 25  1  0  0  0  0
 12 13  2  0  0  0  0
 12 26  1  0  0  0  0
 13 27  1  0  0  0  0
 14 30  1  0  0  0  0
 15 22  1  0  0  0  0
 15 25  2  0  0  0  0
 16 27  2  0  0  0  0
 16 28  1  0  0  0  0
 17 29  1  0  0  0  0
 18 29  1  0  0  0  0
 18 32  2  0  0  0  0
 18 33  1  0  0  0  0
 19 21  2  0  0  0  0
 19 38  1  0  0  0  0
 20 22  2  0  0  0  0
 20 39  1  0  0  0  0
 21 47  1  0  0  0  0
 22 40  1  0  0  0  0
 23 31  2  0  0  0  0
 23 50  1  0  0  0  0
 24 78  1  0  0  0  0
 25 79  1  0  0  0  0
 26 28  2  0  0  0  0
 26 78  1  0  0  0  0
 27 80  1  0  0  0  0
 28 81  1  0  0  0  0
 29 62  2  0  0  0  0
 30 58  1  0  0  0  0
 30 63  2  0  0  0  0
 31 57  1  0  0  0  0
 31 63  1  0  0  0  0
 32 64  1  0  0  0  0
 32 67  1  0  0  0  0
 33 68  1  0  0  0  0
 33 73  2  0  0  0  0
 34 48  1  0  0  0  0
 34 69  1  0  0  0  0
 34 74  2  0  0  0  0
 35 59  1  0  0  0  0
 35 65  1  0  0  0  0
 35 75  2  0  0  0  0
 36 60  1  0  0  0  0
 36 70  1  0  0  0  0
 36 76  2  0  0  0  0
 37 66  1  0  0  0  0
 37 71  1  0  0  0  0
 37 77  2  0  0  0  0
 38 41  1  0  0  0  0
 39 48  1  0  0  0  0
 40 65  1  0  0  0  0
 41 43  1  0  0  0  0
 42 44  1  0  0  0  0
 42 45  1  0  0  0  0
 43 47  1  0  0  0  0
 44 49  1  0  0  0  0
 45 66  1  0  0  0  0
 46 49  1  0  0  0  0
 46 66  1  0  0  0  0
 47 69  1  0  0  0  0
 48 65  1  0  0  0  0
 49 64  1  0  0  0  0
 51 58  1  0  0  0  0
 52 60  1  0  0  0  0
 53 61  1  0  0  0  0
 54 61  1  0  0  0  0
 55 61  1  0  0  0  0
 56 72  1  0  0  0  0
 57 71  1  0  0  0  0
 58 79  1  0  0  0  0
 59 61  1  0  0  0  0
 59 70  1  0  0  0  0
 60 72  1  0  0  0  0
 62 64  1  0  0  0  0
M  CHG  1  72   1
M  ISO  4  37 100  58 101  71 100  79 101
M  END
> <Batch ID>
0109

> <Smiles>
CNC(C)C(=O)NC(C(=O)N1Cc2cc([101O:1][101CH:1](C)c3ccc(C)c(C[100NH:0][100C:0](=O)N4CCCC(n5nc(-c6ccc(Oc7ccc(F)cc7F)cc6)c(C(N)=O)c5N)C4)n3)ccc2CC1C(=O)NC1CCCc2ccccc21)C(C)(C)C

> <Shape>
0.191

> <Color>
0.068

> <Negative vol penalty>
0.000

$$$$

  -OEChem-04052319563D

 80 87  0     1  0  0  0  0  0999 V2000
  -35.0915  -20.2278   16.6113 C   0  0  0  0  0  0  0  0  0  0  0  0
  -34.2784  -20.2549   17.7398 C   0  0  0  0  0  0  0  0  0  0  0  0
  -23.2202   -9.8734   19.8865 C   0  0  0  0  0  0  0  0  0  0  0  0
  -23.9735   -9.8566   22.1820 C   0  0  0  0  0  0  0  0  0  0  0  0
  -35.2848  -21.3893   15.8647 C   0  0  0  0  0  0  0  0  0  0  0  0
  -33.6588  -21.4439   18.1229 C   0  0  0  0  0  0  0  0  0  0  0  0
  -28.7984  -20.7838   19.3823 C   0  0  0  0  0  0  0  0  0  0  0  0
  -22.5567   -8.6644   20.0953 C   0  0  0  0  0  0  0  0  0  0  0  0
  -23.3100   -8.6476   22.3909 C   0  0  0  0  0  0  0  0  0  0  0  0
  -28.5342  -20.2486   20.6422 C   0  0  0  0  0  0  0  0  0  0  0  0
  -20.1430   -7.6110   22.9535 C   0  0  0  0  0  0  0  0  0  0  0  0
  -19.3884   -7.4806   24.1193 C   0  0  0  0  0  0  0  0  0  0  0  0
  -28.0661  -22.4626   21.4779 C   0  0  0  0  0  0  0  0  0  0  0  0
  -20.7585   -5.6094   24.7968 C   0  0  0  0  0  0  0  0  0  0  0  0
  -23.9286  -10.4695   20.9298 C   0  0  0  0  0  0  0  0  0  0  0  0
  -24.0966  -13.0148   20.8942 C   0  0  0  0  0  0  0  0  0  0  0  0
  -34.6595  -22.5909   16.2333 C   0  0  0  0  0  0  0  0  0  0  0  0
  -28.7089  -22.1660   19.1630 C   0  0  0  0  0  0  0  0  0  0  0  0
  -33.8449  -22.6229   17.3812 C   0  0  0  0  0  0  0  0  0  0  0  0
  -28.3272  -23.0126   20.2136 C   0  0  0  0  0  0  0  0  0  0  0  0
  -22.6016   -8.0515   21.3475 C   0  0  0  0  0  0  0  0  0  0  0  0
  -28.1708  -21.0883   21.6910 C   0  0  0  0  0  0  0  0  0  0  0  0
  -21.2053   -6.7406   22.7093 C   0  0  0  0  0  0  0  0  0  0  0  0
  -19.6961   -6.4798   25.0410 C   0  0  0  0  0  0  0  0  0  0  0  0
  -21.5131   -5.7398   23.6309 C   0  0  0  0  0  0  0  0  0  0  0  0
  -24.6146  -11.7182   20.7145 C   0  0  0  0  0  0  0  0  0  0  0  0
  -25.1354  -13.8489   20.5603 C   0  0  0  0  0  0  0  0  0  0  0  0
  -22.7929  -13.4282   21.3246 C   0  0  0  0  0  0  0  0  0  0  0  0
  -30.7553  -24.4354   18.2878 C   0  0  0  0  0  0  0  0  0  0  0  0
  -28.0866  -26.2787   18.2381 C   0  0  0  0  0  0  0  0  0  0  0  0
  -24.9033  -26.7986   19.3531 C   0  0  0  0  0  0  0  0  0  0  0  0
  -30.9015  -14.1843   20.9530 C   0  0  0  0  0  0  0  0  0  0  0  0
  -34.9362  -23.8318   15.4220 C   0  0  0  0  0  0  0  0  0  0  0  0
  -28.9712  -22.7247   17.7914 C   0  0  0  0  0  0  0  0  0  0  0  0
  -28.1971  -24.5012   20.0251 C   0  0  0  0  0  0  0  0  0  0  0  0
  -33.9441  -24.9627   15.6811 C   0  0  0  0  0  0  0  0  0  0  0  0
  -29.2713  -13.3681   17.8947 C   0  0  0  0  0  0  0  0  0  0  0  0
  -33.7287  -25.1511   17.1794 C   0  0  0  0  0  0  0  0  0  0  0  0
  -27.8562  -12.9799   18.3268 C   0  0  0  0  0  0  0  0  0  0  0  0
  -30.3166  -12.9113   18.9100 C   0  0  0  0  0  0  0  0  0  0  0  0
  -28.6530  -12.9636   20.7275 C   0  0  0  0  0  0  0  0  0  0  0  0
  -33.1358  -23.8876   17.8147 C   0  0  1  0  0  0  0  0  0  0  0  0
  -29.3497  -24.2024   17.8105 C   0  0  1  0  0  0  0  0  0  0  0  0
  -27.5590  -13.4521   19.7628 C   0  0  2  0  0  0  0  0  0  0  0  0
  -25.5768  -18.9211   22.2832 C   0  0  0  0  0  0  0  0  0  0  0  0
  -22.9891  -28.4105   19.1660 C   0  0  0  0  0  0  0  0  0  0  0  0
  -31.1239  -15.0863   24.5266 C   0  0  0  0  0  0  0  0  0  0  0  0
  -29.5462  -28.2224   20.0824 C   0  0  0  0  0  0  0  0  0  0  0  0
  -27.3354  -29.2712   20.6120 C   0  0  0  0  0  0  0  0  0  0  0  0
  -28.2037  -29.3091   18.2738 C   0  0  0  0  0  0  0  0  0  0  0  0
  -27.6954  -18.8282   24.5288 C   0  0  0  0  0  0  0  0  0  0  0  0
  -23.1175  -24.7267   18.2231 C   0  0  0  0  0  0  0  0  0  0  0  0
  -27.0268  -18.4980   22.0999 C   0  0  0  0  0  0  0  0  0  0  0  0
  -31.1428  -16.9128   22.7434 C   0  0  0  0  0  0  0  0  0  0  0  0
  -29.5037  -18.7964   22.8061 C   0  0  0  0  0  0  0  0  0  0  0  0
  -27.3590  -27.1340   19.2471 C   0  0  1  0  0  0  0  0  0  0  0  0
  -23.6212  -27.1414   18.6161 C   0  0  2  0  0  0  0  0  0  0  0  0
  -31.3368  -15.4293   23.0553 C   0  0  2  0  0  0  0  0  0  0  0  0
  -28.1153  -28.4564   19.5582 C   0  0  0  0  0  0  0  0  0  0  0  0
  -28.0339  -19.1542   23.0682 C   0  0  2  0  0  0  0  0  0  1  0  0
  -25.8839  -11.7231   20.2986 N   0  0  0  0  0  0  0  0  0  0  0  0
  -26.1721  -13.0330   20.2141 N   0  0  0  0  0  0  0  0  0  0  0  0
  -28.4701  -25.0002   18.6672 N   0  0  0  0  0  0  0  0  0  0  0  0
  -29.9770  -13.3935   20.2509 N   0  0  0  0  0  0  0  0  0  0  0  0
  -25.2541  -15.1933   20.5320 N   0  0  0  0  0  0  0  0  0  0  0  0
  -21.8451  -12.4411   21.6276 N   0  0  0  0  0  0  0  0  0  0  0  0
  -31.7194  -23.7966   17.5317 N   0  0  0  0  0  0  0  0  0  0  0  0
  -26.0109  -27.3257   18.7234 N   0  0  0  0  0  0  0  0  0  0  0  0
  -30.4979  -14.6046   22.2144 N   0  0  0  0  0  0  0  0  0  0  0  0
  -22.6359  -26.0309   18.7467 N   0  3  0  0  0  0  0  0  0  0  0  0
  -29.7558  -17.3536   23.0519 N   0  3  0  0  0  0  0  0  0  0  0  0
  -22.4727  -14.6371   21.4214 O   0  0  0  0  0  0  0  0  0  0  0  0
  -30.9506  -25.1436   19.2687 O   0  0  0  0  0  0  0  0  0  0  0  0
  -28.3002  -26.7258   17.1084 O   0  0  0  0  0  0  0  0  0  0  0  0
  -24.9201  -26.1332   20.3863 O   0  0  0  0  0  0  0  0  0  0  0  0
  -32.0027  -14.4973   20.4878 O   0  0  0  0  0  0  0  0  0  0  0  0
  -21.9541   -6.8718   21.5518 O   0  0  0  0  0  0  0  0  0  0  0  0
  -27.9129  -20.5686   22.9220 O   0  0  0  0  0  0  0  0  0  1  0  0
  -18.9723   -6.3557   26.1612 F   0  0  0  0  0  0  0  0  0  0  0  0
  -22.5332   -4.9014   23.4024 F   0  0  0  0  0  0  0  0  0  0  0  0
  1  2  1  0  0  0  0
  1  5  2  0  0  0  0
  2  6  2  0  0  0  0
  3  8  2  0  0  0  0
  3 15  1  0  0  0  0
  4  9  1  0  0  0  0
  4 15  2  0  0  0  0
  5 17  1  0  0  0  0
  6 19  1  0  0  0  0
  7 10  2  0  0  0  0
  7 18  1  0  0  0  0
  8 21  1  0  0  0  0
  9 21  2  0  0  0  0
 10 22  1  0  0  0  0
 11 12  2  0  0  0  0
 11 23  1  0  0  0  0
 12 24  1  0  0  0  0
 13 20  1  0  0  0  0
 13 22  2  0  0  0  0
 14 24  2  0  0  0  0
 14 25  1  0  0  0  0
 15 26  1  0  0  0  0
 16 26  1  0  0  0  0
 16 27  2  0  0  0  0
 16 28  1  0  0  0  0
 17 19  2  0  0  0  0
 17 33  1  0  0  0  0
 18 20  2  0  0  0  0
 18 34  1  0  0  0  0
 19 42  1  0  0  0  0
 20 35  1  0  0  0  0
 21 77  1  0  0  0  0
 22 78  1  0  0  0  0
 23 25  2  0  0  0  0
 23 77  1  0  0  0  0
 24 79  1  0  0  0  0
 25 80  1  0  0  0  0
 26 61  2  0  0  0  0
 27 62  1  0  0  0  0
 27 65  1  0  0  0  0
 28 66  1  0  0  0  0
 28 72  2  0  0  0  0
 29 43  1  0  0  0  0
 29 67  1  0  0  0  0
 29 73  2  0  0  0  0
 30 56  1  0  0  0  0
 30 63  1  0  0  0  0
 30 74  2  0  0  0  0
 31 57  1  0  0  0  0
 31 68  1  0  0  0  0
 31 75  2  0  0  0  0
 32 64  1  0  0  0  0
 32 69  1  0  0  0  0
 32 76  2  0  0  0  0
 33 36  1  0  0  0  0
 34 43  1  0  0  0  0
 35 63  1  0  0  0  0
 36 38  1  0  0  0  0
 37 39  1  0  0  0  0
 37 40  1  0  0  0  0
 38 42  1  0  0  0  0
 39 44  1  0  0  0  0
 40 64  1  0  0  0  0
 41 44  1  0  0  0  0
 41 64  1  0  0  0  0
 42 67  1  0  0  0  0
 43 63  1  0  0  0  0
 44 62  1  0  0  0  0
 45 53  1  0  0  0  0
 46 57  1  0  0  0  0
 47 58  1  0  0  0  0
 48 59  1  0  0  0  0
 49 59  1  0  0  0  0
 50 59  1  0  0  0  0
 51 60  1  0  0  0  0
 52 70  1  0  0  0  0
 53 60  1  0  0  0  0
 54 58  1  0  0  0  0
 54 71  1  0  0  0  0
 55 60  1  0  0  0  0
 55 71  1  0  0  0  0
 56 59  1  0  0  0  0
 56 68  1  0  0  0  0
 57 70  1  0  0  0  0
 58 69  1  0  0  0  0
 60 78  1  0  0  0  0
 61 62  1  0  0  0  0
M  CHG  2  70   1  71   1
M  ISO  4  32 100  60 101  69 100  78 101
M  END
> <Batch ID>
0109

> <Smiles>
CC[101C:1](C)(CNCC(C)[100NH:0][100C:0](=O)N1CCCC(n2nc(-c3ccc(Oc4ccc(F)cc4F)cc3)c(C(N)=O)c2N)C1)[101O:1]c1ccc2c(c1)CN(C(=O)C(NC(=O)C(C)NC)C(C)(C)C)C(C(=O)NC1CCCc3ccccc31)C2

> <Shape>
0.293

> <Color>
0.204

> <Negative vol penalty>
0.000

$$$$

  -OEChem-04052319563D

 83 90  0     1  0  0  0  0  0999 V2000
  -31.5390  -31.2035   24.4712 C   0  0  0  0  0  0  0  0  0  0  0  0
  -32.2392  -30.1583   25.0650 C   0  0  0  0  0  0  0  0  0  0  0  0
  -23.2901   -9.7633   20.0257 C   0  0  0  0  0  0  0  0  0  0  0  0
  -23.7138  -10.0639   22.3852 C   0  0  0  0  0  0  0  0  0  0  0  0
  -30.3474  -30.9469   23.7943 C   0  0  0  0  0  0  0  0  0  0  0  0
  -31.7476  -28.8560   24.9832 C   0  0  0  0  0  0  0  0  0  0  0  0
  -33.9799  -22.0619   24.5658 C   0  0  0  0  0  0  0  0  0  0  0  0
  -22.5846   -8.5921   20.3015 C   0  0  0  0  0  0  0  0  0  0  0  0
  -23.0082   -8.8927   22.6611 C   0  0  0  0  0  0  0  0  0  0  0  0
  -33.7992  -20.8285   25.1901 C   0  0  0  0  0  0  0  0  0  0  0  0
  -23.5629   -5.5602   22.5281 C   0  0  0  0  0  0  0  0  0  0  0  0
  -24.1267   -4.6622   23.4343 C   0  0  0  0  0  0  0  0  0  0  0  0
  -31.7714  -20.4932   23.9272 C   0  0  0  0  0  0  0  0  0  0  0  0
  -22.1924   -4.8902   24.8638 C   0  0  0  0  0  0  0  0  0  0  0  0
  -23.8547  -10.4992   21.0675 C   0  0  0  0  0  0  0  0  0  0  0  0
  -24.0669  -13.0161   20.7097 C   0  0  0  0  0  0  0  0  0  0  0  0
  -29.8459  -29.6395   23.6959 C   0  0  0  0  0  0  0  0  0  0  0  0
  -33.0504  -22.5259   23.6238 C   0  0  0  0  0  0  0  0  0  0  0  0
  -30.5475  -28.5819   24.3055 C   0  0  0  0  0  0  0  0  0  0  0  0
  -31.9440  -21.7317   23.2904 C   0  0  0  0  0  0  0  0  0  0  0  0
  -22.4436   -8.1568   21.6192 C   0  0  0  0  0  0  0  0  0  0  0  0
  -32.6933  -20.0452   24.8730 C   0  0  0  0  0  0  0  0  0  0  0  0
  -22.3138   -6.1233   22.7898 C   0  0  0  0  0  0  0  0  0  0  0  0
  -23.4415   -4.3271   24.6021 C   0  0  0  0  0  0  0  0  0  0  0  0
  -21.6286   -5.7883   23.9576 C   0  0  0  0  0  0  0  0  0  0  0  0
  -24.5842  -11.7088   20.7832 C   0  0  0  0  0  0  0  0  0  0  0  0
  -25.1556  -13.8000   20.4152 C   0  0  0  0  0  0  0  0  0  0  0  0
  -22.7226  -13.4802   20.8915 C   0  0  0  0  0  0  0  0  0  0  0  0
  -31.1065  -25.0339   23.4380 C   0  0  0  0  0  0  0  0  0  0  0  0
  -30.5452  -23.8859   20.4565 C   0  0  0  0  0  0  0  0  0  0  0  0
  -30.5480  -21.2148   18.3324 C   0  0  0  0  0  0  0  0  0  0  0  0
  -31.0331  -13.1290   21.3398 C   0  0  0  0  0  0  0  0  0  0  0  0
  -28.5293  -29.4178   22.9944 C   0  0  0  0  0  0  0  0  0  0  0  0
  -33.2740  -23.8466   22.9396 C   0  0  0  0  0  0  0  0  0  0  0  0
  -30.9279  -22.1752   22.2710 C   0  0  0  0  0  0  0  0  0  0  0  0
  -28.2703  -27.9577   22.6324 C   0  0  0  0  0  0  0  0  0  0  0  0
  -29.4017  -13.6379   18.2164 C   0  0  0  0  0  0  0  0  0  0  0  0
  -28.5822  -27.0502   23.8181 C   0  0  0  0  0  0  0  0  0  0  0  0
  -27.9353  -13.3192   18.5134 C   0  0  0  0  0  0  0  0  0  0  0  0
  -30.3465  -12.7246   18.9943 C   0  0  0  0  0  0  0  0  0  0  0  0
  -28.6508  -12.3737   20.7479 C   0  0  0  0  0  0  0  0  0  0  0  0
  -30.0593  -27.1522   24.2173 C   0  0  1  0  0  0  0  0  0  0  0  0
  -31.9925  -24.4508   22.3738 C   0  0  1  0  0  0  0  0  0  0  0  0
  -27.6603  -13.3058   20.0291 C   0  0  2  0  0  0  0  0  0  0  0  0
  -30.0017  -20.5781   15.9673 C   0  0  0  0  0  0  0  0  0  0  0  0
  -25.9888  -17.5380   23.5170 C   0  0  0  0  0  0  0  0  0  0  0  0
  -26.9232  -18.5635   21.4342 C   0  0  0  0  0  0  0  0  0  0  0  0
  -31.5458  -19.1458   27.6680 C   0  0  0  0  0  0  0  0  0  0  0  0
  -27.5703  -23.9363   21.1328 C   0  0  0  0  0  0  0  0  0  0  0  0
  -27.1690  -22.4400   19.1660 C   0  0  0  0  0  0  0  0  0  0  0  0
  -28.1285  -24.7170   18.8234 C   0  0  0  0  0  0  0  0  0  0  0  0
  -33.3400  -20.4006   17.7839 C   0  0  0  0  0  0  0  0  0  0  0  0
  -31.5398  -15.0021   24.0337 C   0  0  0  0  0  0  0  0  0  0  0  0
  -28.5113  -17.7813   23.2169 C   0  0  0  0  0  0  0  0  0  0  0  0
  -31.5661  -13.5072   23.7340 C   0  0  0  0  0  0  0  0  0  0  0  0
  -30.1671  -15.4741   24.4960 C   0  0  0  0  0  0  0  0  0  0  0  0
  -28.8810  -17.5979   24.6853 C   0  0  0  0  0  0  0  0  0  0  0  0
  -30.8704  -17.2141   26.1329 C   0  0  0  0  0  0  0  0  0  0  0  0
  -29.5643  -22.9092   19.8541 C   0  0  1  0  0  0  0  0  0  0  0  0
  -31.0869  -21.0492   16.9229 C   0  0  2  0  0  0  0  0  0  0  0  0
  -27.1215  -18.3894   22.9428 C   0  0  0  0  0  0  0  0  0  0  0  0
  -31.3177  -18.6684   26.2398 C   0  0  2  0  0  0  0  0  0  1  0  0
  -28.1260  -23.4928   19.7647 C   0  0  0  0  0  0  0  0  0  0  0  0
  -25.8991  -11.6610   20.5537 N   0  0  0  0  0  0  0  0  0  0  0  0
  -26.2173  -12.9479   20.3331 N   0  0  0  0  0  0  0  0  0  0  0  0
  -31.1871  -23.4769   21.6341 N   0  0  0  0  0  0  0  0  0  0  0  0
  -30.0336  -12.7588   20.4250 N   0  0  0  0  0  0  0  0  0  0  0  0
  -25.2986  -15.1283   20.2211 N   0  0  0  0  0  0  0  0  0  0  0  0
  -21.7260  -12.5409   21.1894 N   0  0  0  0  0  0  0  0  0  0  0  0
  -30.8835  -26.3910   23.3031 N   0  0  0  0  0  0  0  0  0  0  0  0
  -30.1264  -22.5060   18.5697 N   0  0  0  0  0  0  0  0  0  0  0  0
  -30.6511  -13.1416   22.6757 N   0  0  0  0  0  0  0  0  0  0  0  0
  -32.1940  -20.0517   16.9054 N   0  3  0  0  0  0  0  0  0  0  0  0
  -30.2356  -16.9466   24.8184 N   0  3  1  0  0  0  0  0  0  0  0  0
  -22.4114  -14.6900   20.7766 O   0  0  0  0  0  0  0  0  0  0  0  0
  -30.6572  -24.3063   24.3157 O   0  0  0  0  0  0  0  0  0  0  0  0
  -30.7402  -24.9687   19.8988 O   0  0  0  0  0  0  0  0  0  0  0  0
  -30.5020  -20.2901   19.1408 O   0  0  0  0  0  0  0  0  0  0  0  0
  -32.1795  -13.4315   20.9914 O   0  0  0  0  0  0  0  0  0  0  0  0
  -21.7550   -7.0141   21.8888 O   0  0  0  0  0  0  0  0  0  0  0  0
  -32.5141  -18.8412   25.4814 O   0  0  0  0  0  0  0  0  0  1  0  0
  -23.9824   -3.4635   25.4715 F   0  0  0  0  0  0  0  0  0  0  0  0
  -20.4277   -6.3251   24.2139 F   0  0  0  0  0  0  0  0  0  0  0  0
  1  2  1  0  0  0  0
  1  5  2  0  0  0  0
  2  6  2  0  0  0  0
  3  8  2  0  0  0  0
  3 15  1  0  0  0  0
  4  9  1  0  0  0  0
  4 15  2  0  0  0  0
  5 17  1  0  0  0  0
  6 19  1  0  0  0  0
  7 10  2  0  0  0  0
  7 18  1  0  0  0  0
  8 21  1  0  0  0  0
  9 21  2  0  0  0  0
 10 22  1  0  0  0  0
 11 12  2  0  0  0  0
 11 23  1  0  0  0  0
 12 24  1  0  0  0  0
 13 20  1  0  0  0  0
 13 22  2  0  0  0  0
 14 24  2  0  0  0  0
 14 25  1  0  0  0  0
 15 26  1  0  0  0  0
 16 26  1  0  0  0  0
 16 27  2  0  0  0  0
 16 28  1  0  0  0  0
 17 19  2  0  0  0  0
 17 33  1  0  0  0  0
 18 20  2  0  0  0  0
 18 34  1  0  0  0  0
 19 42  1  0  0  0  0
 20 35  1  0  0  0  0
 21 80  1  0  0  0  0
 22 81  1  0  0  0  0
 23 25  2  0  0  0  0
 23 80  1  0  0  0  0
 24 82  1  0  0  0  0
 25 83  1  0  0  0  0
 26 64  2  0  0  0  0
 27 65  1  0  0  0  0
 27 68  1  0  0  0  0
 28 69  1  0  0  0  0
 28 75  2  0  0  0  0
 29 43  1  0  0  0  0
 29 70  1  0  0  0  0
 29 76  2  0  0  0  0
 30 59  1  0  0  0  0
 30 66  1  0  0  0  0
 30 77  2  0  0  0  0
 31 60  1  0  0  0  0
 31 71  1  0  0  0  0
 31 78  2  0  0  0  0
 32 67  1  0  0  0  0
 32 72  1  0  0  0  0
 32 79  2  0  0  0  0
 33 36  1  0  0  0  0
 34 43  1  0  0  0  0
 35 66  1  0  0  0  0
 36 38  1  0  0  0  0
 37 39  1  0  0  0  0
 37 40  1  0  0  0  0
 38 42  1  0  0  0  0
 39 44  1  0  0  0  0
 40 67  1  0  0  0  0
 41 44  1  0  0  0  0
 41 67  1  0  0  0  0
 42 70  1  0  0  0  0
 43 66  1  0  0  0  0
 44 65  1  0  0  0  0
 45 60  1  0  0  0  0
 46 61  1  0  0  0  0
 47 61  1  0  0  0  0
 48 62  1  0  0  0  0
 49 63  1  0  0  0  0
 50 63  1  0  0  0  0
 51 63  1  0  0  0  0
 52 73  1  0  0  0  0
 53 55  1  0  0  0  0
 53 56  1  0  0  0  0
 54 57  1  0  0  0  0
 54 61  1  0  0  0  0
 55 72  1  0  0  0  0
 56 74  1  0  0  0  0
 57 74  1  0  0  0  0
 58 62  1  0  0  0  0
 58 74  1  0  0  0  0
 59 63  1  0  0  0  0
 59 71  1  0  0  0  0
 60 73  1  0  0  0  0
 62 81  1  0  0  0  0
 64 65  1  0  0  0  0
M  CHG  2  73   1  74   1
M  ISO  4  32 100  62 101  72 100  81 101
M  END
> <Batch ID>
0109

> <Smiles>
CNC(C)C(=O)NC(C(=O)N1Cc2cc([101O:1][101CH:1](C)CN(CCC[100NH:0][100C:0](=O)N3CCCC(n4nc(-c5ccc(Oc6ccc(F)cc6F)cc5)c(C(N)=O)c4N)C3)CCC(C)C)ccc2CC1C(=O)NC1CCCc2ccccc21)C(C)(C)C

> <Shape>
0.191

> <Color>
0.195

> <Negative vol penalty>
0.000

$$$$

  -OEChem-04052319563D

 89 97  0     1  0  0  0  0  0999 V2000
  -29.8852  -24.4217   18.8769 C   0  0  0  0  0  0  0  0  0  0  0  0
  -28.5021  -24.5035   19.0027 C   0  0  0  0  0  0  0  0  0  0  0  0
  -27.4928  -12.4172   19.8940 C   0  0  0  0  0  0  0  0  0  0  0  0
  -25.3482  -13.4404   20.3311 C   0  0  0  0  0  0  0  0  0  0  0  0
  -30.7072  -25.0794   19.7910 C   0  0  0  0  0  0  0  0  0  0  0  0
  -27.9403  -25.2422   20.0434 C   0  0  0  0  0  0  0  0  0  0  0  0
  -22.7528  -28.4927   19.8682 C   0  0  0  0  0  0  0  0  0  0  0  0
  -27.0680  -11.2532   20.5346 C   0  0  0  0  0  0  0  0  0  0  0  0
  -24.9234  -12.2764   20.9717 C   0  0  0  0  0  0  0  0  0  0  0  0
  -21.4539  -28.2097   20.2884 C   0  0  0  0  0  0  0  0  0  0  0  0
  -23.7865   -9.2201   20.0845 C   0  0  0  0  0  0  0  0  0  0  0  0
  -22.5123   -8.7421   19.7788 C   0  0  0  0  0  0  0  0  0  0  0  0
  -21.8849  -29.3509   22.3695 C   0  0  0  0  0  0  0  0  0  0  0  0
  -26.5623  -22.3675   23.2698 C   0  0  0  0  0  0  0  0  0  0  0  0
  -21.8714   -8.9678   22.0973 C   0  0  0  0  0  0  0  0  0  0  0  0
  -24.6947  -21.3506   22.2046 C   0  0  0  0  0  0  0  0  0  0  0  0
  -26.6329  -13.5108   19.7923 C   0  0  0  0  0  0  0  0  0  0  0  0
  -26.9426  -15.0280   17.7650 C   0  0  0  0  0  0  0  0  0  0  0  0
  -30.1552  -25.8345   20.8377 C   0  0  0  0  0  0  0  0  0  0  0  0
  -23.6325  -29.1987   20.7014 C   0  0  0  0  0  0  0  0  0  0  0  0
  -28.7557  -25.9096   20.9731 C   0  0  0  0  0  0  0  0  0  0  0  0
  -23.1937  -29.6438   21.9565 C   0  0  0  0  0  0  0  0  0  0  0  0
  -25.6781  -23.0817   24.0706 C   0  0  0  0  0  0  0  0  0  0  0  0
  -26.0693  -21.4834   22.3165 C   0  0  0  0  0  0  0  0  0  0  0  0
  -25.7833  -11.1828   21.0734 C   0  0  0  0  0  0  0  0  0  0  0  0
  -21.0207  -28.6363   21.5404 C   0  0  0  0  0  0  0  0  0  0  0  0
  -24.1032   -9.5719   21.3966 C   0  0  0  0  0  0  0  0  0  0  0  0
  -21.5547   -8.6159   20.7851 C   0  0  0  0  0  0  0  0  0  0  0  0
  -23.1457   -9.4458   22.4030 C   0  0  0  0  0  0  0  0  0  0  0  0
  -27.0713  -14.7137   19.1311 C   0  0  0  0  0  0  0  0  0  0  0  0
  -24.3209  -22.8776   23.8800 C   0  0  0  0  0  0  0  0  0  0  0  0
  -27.5108  -16.2726   17.6440 C   0  0  0  0  0  0  0  0  0  0  0  0
  -26.3613  -14.2633   16.7005 C   0  0  0  0  0  0  0  0  0  0  0  0
  -26.4210  -28.5499   22.0824 C   0  0  0  0  0  0  0  0  0  0  0  0
  -26.2817  -31.6756   22.9384 C   0  0  0  0  0  0  0  0  0  0  0  0
  -24.3613  -34.4316   23.5415 C   0  0  0  0  0  0  0  0  0  0  0  0
  -28.3393  -20.7728   21.4867 C   0  0  0  0  0  0  0  0  0  0  0  0
  -31.0843  -26.4891   21.8291 C   0  0  0  0  0  0  0  0  0  0  0  0
  -25.0219  -29.5192   20.2225 C   0  0  0  0  0  0  0  0  0  0  0  0
  -24.0926  -30.4228   22.8805 C   0  0  0  0  0  0  0  0  0  0  0  0
  -30.4084  -27.5589   22.6828 C   0  0  0  0  0  0  0  0  0  0  0  0
  -30.8532  -19.0718   19.6255 C   0  0  0  0  0  0  0  0  0  0  0  0
  -29.0742  -27.0497   23.2191 C   0  0  0  0  0  0  0  0  0  0  0  0
  -30.1551  -17.7926   19.1581 C   0  0  0  0  0  0  0  0  0  0  0  0
  -30.4109  -19.4785   21.0300 C   0  0  0  0  0  0  0  0  0  0  0  0
  -28.2603  -18.3103   20.7483 C   0  0  0  0  0  0  0  0  0  0  0  0
  -28.1085  -26.7215   22.0740 C   0  0  1  0  0  0  0  0  0  0  0  0
  -25.9970  -29.7985   21.3620 C   0  0  1  0  0  0  0  0  0  0  0  0
  -28.6252  -17.8967   19.3132 C   0  0  2  0  0  0  0  0  0  0  0  0
  -26.1945  -24.0314   25.0951 C   0  0  0  0  0  0  0  0  0  0  0  0
  -24.5282  -36.8295   24.2622 C   0  0  0  0  0  0  0  0  0  0  0  0
  -17.9841  -25.5619   19.0490 C   0  0  0  0  0  0  0  0  0  0  0  0
  -15.9259  -26.9741   19.2343 C   0  0  0  0  0  0  0  0  0  0  0  0
  -26.7190  -30.7763   25.8211 C   0  0  0  0  0  0  0  0  0  0  0  0
  -25.9382  -33.0340   26.5704 C   0  0  0  0  0  0  0  0  0  0  0  0
  -27.9886  -32.8285   25.1645 C   0  0  0  0  0  0  0  0  0  0  0  0
  -23.2057  -35.3985   20.9943 C   0  0  0  0  0  0  0  0  0  0  0  0
  -21.2967  -24.5935   25.0688 C   0  0  0  0  0  0  0  0  0  0  0  0
  -17.9366  -27.5738   20.6135 C   0  0  0  0  0  0  0  0  0  0  0  0
  -19.9385  -24.9453   24.4863 C   0  0  0  0  0  0  0  0  0  0  0  0
  -18.8714  -26.2227   22.6240 C   0  0  0  0  0  0  0  0  0  0  0  0
  -22.1591  -23.8526   24.0571 C   0  0  0  0  0  0  0  0  0  0  0  0
  -25.7219  -32.4380   24.1150 C   0  0  1  0  0  0  0  0  0  0  0  0
  -24.4939  -35.8720   23.0812 C   0  0  2  0  0  0  0  0  0  0  0  0
  -17.1351  -26.4168   19.9907 C   0  0  0  0  0  0  0  0  0  0  0  0
  -19.1538  -27.1654   21.4556 C   0  0  2  0  0  0  0  0  0  1  0  0
  -26.5754  -32.2529   25.4014 C   0  0  0  0  0  0  0  0  0  0  0  0
  -23.8046  -22.0273   22.9644 N   0  0  0  0  0  0  0  0  0  0  0  0
  -27.6741  -15.6805   19.8281 N   0  0  0  0  0  0  0  0  0  0  0  0
  -27.9293  -16.6146   18.8962 N   0  0  0  0  0  0  0  0  0  0  0  0
  -25.4440  -30.7058   22.3696 N   0  0  0  0  0  0  0  0  0  0  0  0
  -28.9504  -19.5611   21.1005 N   0  0  0  0  0  0  0  0  0  0  0  0
  -27.6883  -17.0968   16.5897 N   0  0  0  0  0  0  0  0  0  0  0  0
  -25.8224  -13.0045   16.9991 N   0  0  0  0  0  0  0  0  0  0  0  0
  -26.9452  -20.7414   21.4858 N   0  0  0  0  0  0  0  0  0  0  0  0
  -27.5313  -27.9348   21.5362 N   0  0  0  0  0  0  0  0  0  0  0  0
  -25.5915  -33.8240   23.6787 N   0  0  0  0  0  0  0  0  0  0  0  0
  -23.3454  -36.2444   22.2075 N   0  3  0  0  0  0  0  0  0  0  0  0
  -20.1275  -25.8526   23.3218 N   0  3  0  0  0  0  0  0  0  0  0  0
  -26.3357  -14.6769   15.5165 O   0  0  0  0  0  0  0  0  0  0  0  0
  -25.7886  -28.1733   23.0621 O   0  0  0  0  0  0  0  0  0  0  0  0
  -27.4177  -31.9362   22.5342 O   0  0  0  0  0  0  0  0  0  0  0  0
  -23.2753  -33.8998   23.7613 O   0  0  0  0  0  0  0  0  0  0  0  0
  -29.0035  -21.7733   21.7692 O   0  0  0  0  0  0  0  0  0  0  0  0
  -25.3684  -10.0471   21.6984 O   0  0  0  0  0  0  0  0  0  0  0  0
  -19.7536  -28.3608   21.9533 O   0  0  0  0  0  0  0  0  0  1  0  0
  -23.4175  -23.5631   24.6499 O   0  0  0  0  0  0  0  0  0  0  0  0
  -20.3307   -8.1583   20.4911 F   0  0  0  0  0  0  0  0  0  0  0  0
  -23.4437   -9.7833   23.6651 F   0  0  0  0  0  0  0  0  0  0  0  0
  1  2  1  0  0  0  0
  1  5  2  0  0  0  0
  2  6  2  0  0  0  0
  3  8  2  0  0  0  0
  3 17  1  0  0  0  0
  4  9  1  0  0  0  0
  4 17  2  0  0  0  0
  5 19  1  0  0  0  0
  6 21  1  0  0  0  0
  7 10  2  0  0  0  0
  7 20  1  0  0  0  0
  8 25  1  0  0  0  0
  9 25  2  0  0  0  0
 10 26  1  0  0  0  0
 11 12  2  0  0  0  0
 11 27  1  0  0  0  0
 12 28  1  0  0  0  0
 13 22  1  0  0  0  0
 13 26  2  0  0  0  0
 14 23  1  0  0  0  0
 14 24  2  0  0  0  0
 15 28  2  0  0  0  0
 15 29  1  0  0  0  0
 16 24  1  0  0  0  0
 16 68  2  0  0  0  0
 17 30  1  0  0  0  0
 18 30  1  0  0  0  0
 18 32  2  0  0  0  0
 18 33  1  0  0  0  0
 19 21  2  0  0  0  0
 19 38  1  0  0  0  0
 20 22  2  0  0  0  0
 20 39  1  0  0  0  0
 21 47  1  0  0  0  0
 22 40  1  0  0  0  0
 23 31  2  0  0  0  0
 23 50  1  0  0  0  0
 24 75  1  0  0  0  0
 25 85  1  0  0  0  0
 26 86  1  0  0  0  0
 27 29  2  0  0  0  0
 27 85  1  0  0  0  0
 28 88  1  0  0  0  0
 29 89  1  0  0  0  0
 30 69  2  0  0  0  0
 31 68  1  0  0  0  0
 31 87  1  0  0  0  0
 32 70  1  0  0  0  0
 32 73  1  0  0  0  0
 33 74  1  0  0  0  0
 33 80  2  0  0  0  0
 34 48  1  0  0  0  0
 34 76  1  0  0  0  0
 34 81  2  0  0  0  0
 35 63  1  0  0  0  0
 35 71  1  0  0  0  0
 35 82  2  0  0  0  0
 36 64  1  0  0  0  0
 36 77  1  0  0  0  0
 36 83  2  0  0  0  0
 37 72  1  0  0  0  0
 37 75  1  0  0  0  0
 37 84  2  0  0  0  0
 38 41  1  0  0  0  0
 39 48  1  0  0  0  0
 40 71  1  0  0  0  0
 41 43  1  0  0  0  0
 42 44  1  0  0  0  0
 42 45  1  0  0  0  0
 43 47  1  0  0  0  0
 44 49  1  0  0  0  0
 45 72  1  0  0  0  0
 46 49  1  0  0  0  0
 46 72  1  0  0  0  0
 47 76  1  0  0  0  0
 48 71  1  0  0  0  0
 49 70  1  0  0  0  0
 51 64  1  0  0  0  0
 52 65  1  0  0  0  0
 53 65  1  0  0  0  0
 54 67  1  0  0  0  0
 55 67  1  0  0  0  0
 56 67  1  0  0  0  0
 57 78  1  0  0  0  0
 58 60  1  0  0  0  0
 58 62  1  0  0  0  0
 59 65  1  0  0  0  0
 59 66  1  0  0  0  0
 60 79  1  0  0  0  0
 61 66  1  0  0  0  0
 61 79  1  0  0  0  0
 62 87  1  0  0  0  0
 63 67  1  0  0  0  0
 63 77  1  0  0  0  0
 64 78  1  0  0  0  0
 66 86  1  0  0  0  0
 69 70  1  0  0  0  0
M  CHG  2  78   1  79   1
M  ISO  4  37 100  66 101  75 100  86 101
M  END
> <Batch ID>
0109

> <Smiles>
CNC(C)C(=O)NC(C(=O)N1Cc2cc([101O:1][101CH:1](CNCCCOc3ncc([100NH:0][100C:0](=O)N4CCCC(n5nc(-c6ccc(Oc7ccc(F)cc7F)cc6)c(C(N)=O)c5N)C4)cc3C)CC(C)C)ccc2CC1C(=O)NC1CCCc2ccccc21)C(C)(C)C

> <Shape>
0.316

> <Color>
0.056

> <Negative vol penalty>
0.000

$$$$

  -OEChem-04052319563D

 86 94  0     1  0  0  0  0  0999 V2000
  -18.8778  -33.5136   24.3805 C   0  0  0  0  0  0  0  0  0  0  0  0
  -20.1571  -33.5682   23.8368 C   0  0  0  0  0  0  0  0  0  0  0  0
  -25.5253  -17.7492   19.1098 C   0  0  0  0  0  0  0  0  0  0  0  0
  -27.9314  -17.9641   19.1527 C   0  0  0  0  0  0  0  0  0  0  0  0
  -18.3657  -32.2988   24.8343 C   0  0  0  0  0  0  0  0  0  0  0  0
  -20.9257  -32.4081   23.7476 C   0  0  0  0  0  0  0  0  0  0  0  0
  -25.8796  -29.2975   19.6125 C   0  0  0  0  0  0  0  0  0  0  0  0
  -25.6273  -16.4893   19.6996 C   0  0  0  0  0  0  0  0  0  0  0  0
  -28.0334  -16.7041   19.7425 C   0  0  0  0  0  0  0  0  0  0  0  0
  -27.1404  -28.7088   19.6999 C   0  0  0  0  0  0  0  0  0  0  0  0
  -27.8905  -13.4732   18.7569 C   0  0  0  0  0  0  0  0  0  0  0  0
  -28.8533  -12.5982   18.2540 C   0  0  0  0  0  0  0  0  0  0  0  0
  -26.1219  -26.6522   20.4430 C   0  0  0  0  0  0  0  0  0  0  0  0
  -31.3641  -26.1800   17.5035 C   0  0  0  0  0  0  0  0  0  0  0  0
  -29.9118  -12.5155   20.4242 C   0  0  0  0  0  0  0  0  0  0  0  0
  -29.1542  -25.9985   17.1120 C   0  0  0  0  0  0  0  0  0  0  0  0
  -26.6774  -18.4866   18.8363 C   0  0  0  0  0  0  0  0  0  0  0  0
  -26.4505  -21.0271   18.8835 C   0  0  0  0  0  0  0  0  0  0  0  0
  -19.1246  -31.1214   24.7417 C   0  0  0  0  0  0  0  0  0  0  0  0
  -24.7294  -28.5701   19.9507 C   0  0  0  0  0  0  0  0  0  0  0  0
  -20.4238  -31.1766   24.2018 C   0  0  0  0  0  0  0  0  0  0  0  0
  -24.8475  -27.2332   20.3565 C   0  0  0  0  0  0  0  0  0  0  0  0
  -30.1353  -25.7199   18.0378 C   0  0  0  0  0  0  0  0  0  0  0  0
  -26.8813  -15.9668   20.0159 C   0  0  0  0  0  0  0  0  0  0  0  0
  -27.2620  -27.3869   20.1179 C   0  0  0  0  0  0  0  0  0  0  0  0
  -27.9383  -13.8694   20.0935 C   0  0  0  0  0  0  0  0  0  0  0  0
  -29.8639  -12.1194   19.0876 C   0  0  0  0  0  0  0  0  0  0  0  0
  -28.9489  -13.3905   20.9272 C   0  0  0  0  0  0  0  0  0  0  0  0
  -26.5727  -19.7879   18.2267 C   0  0  0  0  0  0  0  0  0  0  0  0
  -31.0964  -26.7259   16.2675 C   0  0  0  0  0  0  0  0  0  0  0  0
  -26.3871  -21.9493   17.8676 C   0  0  0  0  0  0  0  0  0  0  0  0
  -26.3991  -21.3184   20.2864 C   0  0  0  0  0  0  0  0  0  0  0  0
  -32.0272  -27.3173   15.3555 C   0  0  0  0  0  0  0  0  0  0  0  0
  -22.4504  -28.8702   22.1461 C   0  0  0  0  0  0  0  0  0  0  0  0
  -21.1246  -26.3779   20.5482 C   0  0  0  0  0  0  0  0  0  0  0  0
  -21.5684  -23.6820   18.5032 C   0  0  0  0  0  0  0  0  0  0  0  0
  -28.2103  -23.9445   12.9849 C   0  0  0  0  0  0  0  0  0  0  0  0
  -18.5467  -29.8403   25.2889 C   0  0  0  0  0  0  0  0  0  0  0  0
  -23.3746  -29.2113   19.8254 C   0  0  0  0  0  0  0  0  0  0  0  0
  -23.6422  -26.4027   20.7115 C   0  0  0  0  0  0  0  0  0  0  0  0
  -19.2817  -28.5892   24.8147 C   0  0  0  0  0  0  0  0  0  0  0  0
  -25.8052  -21.3212   12.8823 C   0  0  0  0  0  0  0  0  0  0  0  0
  -20.7902  -28.7759   24.9420 C   0  0  0  0  0  0  0  0  0  0  0  0
  -25.7852  -20.7870   14.3156 C   0  0  0  0  0  0  0  0  0  0  0  0
  -27.2102  -21.7407   12.4559 C   0  0  0  0  0  0  0  0  0  0  0  0
  -27.8543  -22.1601   14.7976 C   0  0  0  0  0  0  0  0  0  0  0  0
  -21.2786  -29.9353   24.0652 C   0  0  1  0  0  0  0  0  0  0  0  0
  -22.3122  -28.5365   20.6876 C   0  0  1  0  0  0  0  0  0  0  0  0
  -26.4490  -21.7765   15.2920 C   0  0  2  0  0  0  0  0  0  0  0  0
  -31.6526  -21.5594   18.9318 C   0  0  0  0  0  0  0  0  0  0  0  0
  -20.3033  -21.8157   17.4017 C   0  0  0  0  0  0  0  0  0  0  0  0
  -20.9668  -24.9115   23.2194 C   0  0  0  0  0  0  0  0  0  0  0  0
  -20.6084  -22.7832   21.9505 C   0  0  0  0  0  0  0  0  0  0  0  0
  -18.9540  -24.6405   21.7600 C   0  0  0  0  0  0  0  0  0  0  0  0
  -22.3170  -24.6166   15.7967 C   0  0  0  0  0  0  0  0  0  0  0  0
  -31.5088  -23.0733   18.9010 C   0  0  0  0  0  0  0  0  0  0  0  0
  -30.0976  -23.5083   19.3113 C   0  0  0  0  0  0  0  0  0  0  0  0
  -29.0490  -27.0583   14.8569 C   0  0  0  0  0  0  0  0  0  0  0  0
  -29.2107  -26.1091   13.6725 C   0  0  0  0  0  0  0  0  0  0  0  0
  -28.5652  -25.4020   19.9848 C   0  0  0  0  0  0  0  0  0  1  0  0
  -29.9358  -25.0424   19.3865 C   0  0  2  0  0  0  0  0  0  0  0  0
  -21.2133  -24.8743   20.6496 C   0  0  1  0  0  0  0  0  0  0  0  0
  -20.8324  -23.2337   17.2535 C   0  0  2  0  0  0  0  0  0  0  0  0
  -20.4587  -24.3184   21.8901 C   0  0  0  0  0  0  0  0  0  0  0  0
  -26.5861  -19.9085   16.8965 N   0  0  0  0  0  0  0  0  0  0  0  0
  -29.7499  -26.6103   16.0401 N   0  0  0  0  0  0  0  0  0  0  0  0
  -26.4715  -21.2343   16.7092 N   0  0  0  0  0  0  0  0  0  0  0  0
  -22.3399  -27.0765   20.5791 N   0  0  0  0  0  0  0  0  0  0  0  0
  -27.7827  -22.6803   13.4231 N   0  0  0  0  0  0  0  0  0  0  0  0
  -26.2678  -23.2940   17.8612 N   0  0  0  0  0  0  0  0  0  0  0  0
  -26.4773  -20.2528   21.1934 N   0  0  0  0  0  0  0  0  0  0  0  0
  -33.3812  -27.3699   15.7189 N   0  0  0  0  0  0  0  0  0  0  0  0
  -21.3561  -29.5236   22.6799 N   0  0  0  0  0  0  0  0  0  0  0  0
  -20.7348  -24.3503   19.3748 N   0  0  0  0  0  0  0  0  0  0  0  0
  -28.7346  -24.7759   13.9670 N   0  0  0  0  0  0  0  0  0  0  0  0
  -21.7420  -23.2751   16.0737 N   0  3  0  0  0  0  0  0  0  0  0  0
  -26.2705  -22.4876   20.7224 O   0  0  0  0  0  0  0  0  0  0  0  0
  -31.6714  -27.8030   14.2534 O   0  0  0  0  0  0  0  0  0  0  0  0
  -23.4736  -28.5566   22.7433 O   0  0  0  0  0  0  0  0  0  0  0  0
  -20.0183  -26.9124   20.4384 O   0  0  0  0  0  0  0  0  0  0  0  0
  -22.7625  -23.4583   18.6893 O   0  0  0  0  0  0  0  0  0  0  0  0
  -28.1257  -24.3075   11.8068 O   0  0  0  0  0  0  0  0  0  0  0  0
  -26.9812  -14.7375   20.5916 O   0  0  0  0  0  0  0  0  0  0  0  0
  -28.4914  -26.8100   20.2048 O   0  0  0  0  0  0  0  0  0  1  0  0
  -30.7876  -11.2780   18.6049 F   0  0  0  0  0  0  0  0  0  0  0  0
  -28.9994  -13.7667   22.2124 F   0  0  0  0  0  0  0  0  0  0  0  0
  1  2  1  0  0  0  0
  1  5  2  0  0  0  0
  2  6  2  0  0  0  0
  3  8  2  0  0  0  0
  3 17  1  0  0  0  0
  4  9  1  0  0  0  0
  4 17  2  0  0  0  0
  5 19  1  0  0  0  0
  6 21  1  0  0  0  0
  7 10  2  0  0  0  0
  7 20  1  0  0  0  0
  8 24  1  0  0  0  0
  9 24  2  0  0  0  0
 10 25  1  0  0  0  0
 11 12  2  0  0  0  0
 11 26  1  0  0  0  0
 12 27  1  0  0  0  0
 13 22  1  0  0  0  0
 13 25  2  0  0  0  0
 14 23  1  0  0  0  0
 14 30  2  0  0  0  0
 15 27  2  0  0  0  0
 15 28  1  0  0  0  0
 16 23  2  0  0  0  0
 16 66  1  0  0  0  0
 17 29  1  0  0  0  0
 18 29  1  0  0  0  0
 18 31  2  0  0  0  0
 18 32  1  0  0  0  0
 19 21  2  0  0  0  0
 19 38  1  0  0  0  0
 20 22  2  0  0  0  0
 20 39  1  0  0  0  0
 21 47  1  0  0  0  0
 22 40  1  0  0  0  0
 23 61  1  0  0  0  0
 24 83  1  0  0  0  0
 25 84  1  0  0  0  0
 26 28  2  0  0  0  0
 26 83  1  0  0  0  0
 27 85  1  0  0  0  0
 28 86  1  0  0  0  0
 29 65  2  0  0  0  0
 30 33  1  0  0  0  0
 30 66  1  0  0  0  0
 31 67  1  0  0  0  0
 31 70  1  0  0  0  0
 32 71  1  0  0  0  0
 32 77  2  0  0  0  0
 33 72  1  0  0  0  0
 33 78  2  0  0  0  0
 34 48  1  0  0  0  0
 34 73  1  0  0  0  0
 34 79  2  0  0  0  0
 35 62  1  0  0  0  0
 35 68  1  0  0  0  0
 35 80  2  0  0  0  0
 36 63  1  0  0  0  0
 36 74  1  0  0  0  0
 36 81  2  0  0  0  0
 37 69  1  0  0  0  0
 37 75  1  0  0  0  0
 37 82  2  0  0  0  0
 38 41  1  0  0  0  0
 39 48  1  0  0  0  0
 40 68  1  0  0  0  0
 41 43  1  0  0  0  0
 42 44  1  0  0  0  0
 42 45  1  0  0  0  0
 43 47  1  0  0  0  0
 44 49  1  0  0  0  0
 45 69  1  0  0  0  0
 46 49  1  0  0  0  0
 46 69  1  0  0  0  0
 47 73  1  0  0  0  0
 48 68  1  0  0  0  0
 49 67  1  0  0  0  0
 50 56  1  0  0  0  0
 51 63  1  0  0  0  0
 52 64  1  0  0  0  0
 53 64  1  0  0  0  0
 54 64  1  0  0  0  0
 55 76  1  0  0  0  0
 56 57  1  0  0  0  0
 57 61  1  0  0  0  0
 58 59  1  0  0  0  0
 58 66  1  0  0  0  0
 59 75  1  0  0  0  0
 60 61  1  0  0  0  0
 60 84  1  0  0  0  0
 62 64  1  0  0  0  0
 62 74  1  0  0  0  0
 63 76  1  0  0  0  0
 65 67  1  0  0  0  0
M  CHG  1  76   1
M  ISO  4  37 100  60 101  75 100  84 101
M  END
> <Batch ID>
0109

> <Smiles>
CCCC(c1cc(C(N)=O)n(CC[100NH:0][100C:0](=O)N2CCCC(n3nc(-c4ccc(Oc5ccc(F)cc5F)cc4)c(C(N)=O)c3N)C2)c1)[101CH2:1][101O:1]c1ccc2c(c1)CN(C(=O)C(NC(=O)C(C)NC)C(C)(C)C)C(C(=O)NC1CCCc3ccccc31)C2

> <Shape>
0.191

> <Color>
0.084

> <Negative vol penalty>
0.000

$$$$

  -OEChem-04052319563D

 85 93  0     1  0  0  0  0  0999 V2000
  -24.9809  -17.5745   19.9740 C   0  0  0  0  0  0  0  0  0  0  0  0
  -25.5734  -18.8152   19.7617 C   0  0  0  0  0  0  0  0  0  0  0  0
  -26.3503  -12.6466   21.6666 C   0  0  0  0  0  0  0  0  0  0  0  0
  -25.9754  -13.5312   19.4499 C   0  0  0  0  0  0  0  0  0  0  0  0
  -23.5969  -17.4788   20.1128 C   0  0  0  0  0  0  0  0  0  0  0  0
  -24.7820  -19.9608   19.6870 C   0  0  0  0  0  0  0  0  0  0  0  0
  -26.6944  -23.8201   22.3504 C   0  0  0  0  0  0  0  0  0  0  0  0
  -29.9760  -24.3391   16.3987 C   0  0  0  0  0  0  0  0  0  0  0  0
  -25.0697  -12.0937   21.6626 C   0  0  0  0  0  0  0  0  0  0  0  0
  -24.6948  -12.9782   19.4458 C   0  0  0  0  0  0  0  0  0  0  0  0
  -27.7543  -24.5238   21.7803 C   0  0  0  0  0  0  0  0  0  0  0  0
  -21.7655  -10.7550   22.3794 C   0  0  0  0  0  0  0  0  0  0  0  0
  -20.9862  -10.9115   23.5255 C   0  0  0  0  0  0  0  0  0  0  0  0
  -29.5057  -25.5684   16.8469 C   0  0  0  0  0  0  0  0  0  0  0  0
  -26.2227  -26.2504   21.0788 C   0  0  0  0  0  0  0  0  0  0  0  0
  -21.1147  -13.3121   23.2850 C   0  0  0  0  0  0  0  0  0  0  0  0
  -26.8031  -13.3654   20.5603 C   0  0  0  0  0  0  0  0  0  0  0  0
  -29.3156  -13.3301   20.1204 C   0  0  0  0  0  0  0  0  0  0  0  0
  -22.7890  -18.6251   20.0494 C   0  0  0  0  0  0  0  0  0  0  0  0
  -25.3868  -24.3218   22.2793 C   0  0  0  0  0  0  0  0  0  0  0  0
  -23.3858  -19.8803   19.8237 C   0  0  0  0  0  0  0  0  0  0  0  0
  -25.1483  -25.5524   21.6510 C   0  0  0  0  0  0  0  0  0  0  0  0
  -30.8992  -23.6337   17.1625 C   0  0  0  0  0  0  0  0  0  0  0  0
  -24.2420  -12.2595   20.5522 C   0  0  0  0  0  0  0  0  0  0  0  0
  -27.5182  -25.7378   21.1418 C   0  0  0  0  0  0  0  0  0  0  0  0
  -22.2195  -11.8770   21.6860 C   0  0  0  0  0  0  0  0  0  0  0  0
  -20.6608  -12.1901   23.9784 C   0  0  0  0  0  0  0  0  0  0  0  0
  -21.8941  -13.1555   22.1388 C   0  0  0  0  0  0  0  0  0  0  0  0
  -28.1256  -13.9373   20.5641 C   0  0  0  0  0  0  0  0  0  0  0  0
  -29.9860  -26.0448   18.0561 C   0  0  0  0  0  0  0  0  0  0  0  0
  -31.3173  -24.1968   18.3574 C   0  0  0  0  0  0  0  0  0  0  0  0
  -30.2856  -14.2788   20.3340 C   0  0  0  0  0  0  0  0  0  0  0  0
  -29.5255  -12.0251   19.5646 C   0  0  0  0  0  0  0  0  0  0  0  0
  -22.6644  -23.3129   20.9855 C   0  0  0  0  0  0  0  0  0  0  0  0
  -21.4363  -25.9033   22.5034 C   0  0  0  0  0  0  0  0  0  0  0  0
  -21.9678  -28.9924   23.8530 C   0  0  0  0  0  0  0  0  0  0  0  0
  -30.1308  -20.2514   20.7271 C   0  0  0  0  0  0  0  0  0  0  0  0
  -21.2932  -18.4659   20.1580 C   0  0  0  0  0  0  0  0  0  0  0  0
  -24.2583  -23.5636   22.9227 C   0  0  0  0  0  0  0  0  0  0  0  0
  -23.7660  -26.1442   21.5652 C   0  0  0  0  0  0  0  0  0  0  0  0
  -20.5603  -19.7749   20.4403 C   0  0  0  0  0  0  0  0  0  0  0  0
  -31.3453  -17.9752   23.1808 C   0  0  0  0  0  0  0  0  0  0  0  0
  -21.0721  -20.8817   19.5239 C   0  0  0  0  0  0  0  0  0  0  0  0
  -30.7652  -16.6274   22.7484 C   0  0  0  0  0  0  0  0  0  0  0  0
  -30.3695  -19.1201   22.9179 C   0  0  0  0  0  0  0  0  0  0  0  0
  -29.2890  -17.8538   21.1005 C   0  0  0  0  0  0  0  0  0  0  0  0
  -22.5633  -21.1490   19.7614 C   0  0  1  0  0  0  0  0  0  0  0  0
  -22.8928  -23.9178   22.3418 C   0  0  1  0  0  0  0  0  0  0  0  0
  -30.2588  -16.6755   21.2943 C   0  0  2  0  0  0  0  0  0  0  0  0
  -32.3052  -23.4828   19.2206 C   0  0  0  0  0  0  0  0  0  0  0  0
  -20.7645  -30.8807   24.9861 C   0  0  0  0  0  0  0  0  0  0  0  0
  -30.8317  -21.8269   15.3125 C   0  0  0  0  0  0  0  0  0  0  0  0
  -32.9555  -22.3882   16.4609 C   0  0  0  0  0  0  0  0  0  0  0  0
  -20.2676  -26.7655   19.8199 C   0  0  0  0  0  0  0  0  0  0  0  0
  -19.9206  -29.0498   20.7840 C   0  0  0  0  0  0  0  0  0  0  0  0
  -18.7411  -27.0876   21.7745 C   0  0  0  0  0  0  0  0  0  0  0  0
  -23.6103  -28.7242   26.3003 C   0  0  0  0  0  0  0  0  0  0  0  0
  -29.4957  -27.3750   18.5741 C   0  0  0  0  0  0  0  0  0  0  0  0
  -31.1635  -21.1511   17.7238 C   0  0  0  0  0  0  0  0  0  0  0  0
  -29.8329  -21.2447   18.4724 C   0  0  0  0  0  0  0  0  0  0  0  0
  -28.2531  -27.2352   19.4467 C   0  0  0  0  0  0  0  0  0  1  0  0
  -21.2280  -27.3544   22.1430 C   0  0  1  0  0  0  0  0  0  0  0  0
  -21.5533  -29.5954   25.1830 C   0  0  2  0  0  0  0  0  0  0  0  0
  -31.4077  -22.3169   16.6868 C   0  0  0  0  0  0  0  0  0  0  0  0
  -20.0652  -27.5525   21.1301 C   0  0  0  0  0  0  0  0  0  0  0  0
  -28.3195  -15.1758   21.0251 N   0  0  0  0  0  0  0  0  0  0  0  0
  -30.8829  -25.3883   18.8257 N   0  0  0  0  0  0  0  0  0  0  0  0
  -29.6426  -15.3545   20.8721 N   0  0  0  0  0  0  0  0  0  0  0  0
  -22.6946  -25.3621   22.2040 N   0  0  0  0  0  0  0  0  0  0  0  0
  -29.9288  -19.1103   21.5209 N   0  0  0  0  0  0  0  0  0  0  0  0
  -31.6172  -14.2894   20.1123 N   0  0  0  0  0  0  0  0  0  0  0  0
  -28.4197  -11.1773   19.4141 N   0  0  0  0  0  0  0  0  0  0  0  0
  -22.7510  -21.9339   20.9627 N   0  0  0  0  0  0  0  0  0  0  0  0
  -21.0501  -28.0666   23.4038 N   0  0  0  0  0  0  0  0  0  0  0  0
  -29.6895  -20.1559   19.4131 N   0  0  0  0  0  0  0  0  0  0  0  0
  -22.7548  -29.9034   26.0092 N   0  3  0  0  0  0  0  0  0  0  0  0
  -30.6626  -11.6169   19.2272 O   0  0  0  0  0  0  0  0  0  0  0  0
  -22.4257  -24.0430   20.0307 O   0  0  0  0  0  0  0  0  0  0  0  0
  -20.5189  -25.2751   23.0375 O   0  0  0  0  0  0  0  0  0  0  0  0
  -23.0005  -29.3135   23.2691 O   0  0  0  0  0  0  0  0  0  0  0  0
  -30.6698  -21.2773   21.1562 O   0  0  0  0  0  0  0  0  0  0  0  0
  -22.9924  -11.7199   20.5478 O   0  0  0  0  0  0  0  0  0  0  0  0
  -28.5509  -26.4264   20.5840 O   0  0  0  0  0  0  0  0  0  1  0  0
  -19.9111  -12.3403   25.0782 F   0  0  0  0  0  0  0  0  0  0  0  0
  -22.3263  -14.2372   21.4762 F   0  0  0  0  0  0  0  0  0  0  0  0
  1  2  1  0  0  0  0
  1  5  2  0  0  0  0
  2  6  2  0  0  0  0
  3  9  2  0  0  0  0
  3 17  1  0  0  0  0
  4 10  1  0  0  0  0
  4 17  2  0  0  0  0
  5 19  1  0  0  0  0
  6 21  1  0  0  0  0
  7 11  2  0  0  0  0
  7 20  1  0  0  0  0
  8 14  2  0  0  0  0
  8 23  1  0  0  0  0
  9 24  1  0  0  0  0
 10 24  2  0  0  0  0
 11 25  1  0  0  0  0
 12 13  2  0  0  0  0
 12 26  1  0  0  0  0
 13 27  1  0  0  0  0
 14 30  1  0  0  0  0
 15 22  1  0  0  0  0
 15 25  2  0  0  0  0
 16 27  2  0  0  0  0
 16 28  1  0  0  0  0
 17 29  1  0  0  0  0
 18 29  1  0  0  0  0
 18 32  2  0  0  0  0
 18 33  1  0  0  0  0
 19 21  2  0  0  0  0
 19 38  1  0  0  0  0
 20 22  2  0  0  0  0
 20 39  1  0  0  0  0
 21 47  1  0  0  0  0
 22 40  1  0  0  0  0
 23 31  2  0  0  0  0
 23 64  1  0  0  0  0
 24 82  1  0  0  0  0
 25 83  1  0  0  0  0
 26 28  2  0  0  0  0
 26 82  1  0  0  0  0
 27 84  1  0  0  0  0
 28 85  1  0  0  0  0
 29 66  2  0  0  0  0
 30 58  1  0  0  0  0
 30 67  2  0  0  0  0
 31 50  1  0  0  0  0
 31 67  1  0  0  0  0
 32 68  1  0  0  0  0
 32 71  1  0  0  0  0
 33 72  1  0  0  0  0
 33 77  2  0  0  0  0
 34 48  1  0  0  0  0
 34 73  1  0  0  0  0
 34 78  2  0  0  0  0
 35 62  1  0  0  0  0
 35 69  1  0  0  0  0
 35 79  2  0  0  0  0
 36 63  1  0  0  0  0
 36 74  1  0  0  0  0
 36 80  2  0  0  0  0
 37 70  1  0  0  0  0
 37 75  1  0  0  0  0
 37 81  2  0  0  0  0
 38 41  1  0  0  0  0
 39 48  1  0  0  0  0
 40 69  1  0  0  0  0
 41 43  1  0  0  0  0
 42 44  1  0  0  0  0
 42 45  1  0  0  0  0
 43 47  1  0  0  0  0
 44 49  1  0  0  0  0
 45 70  1  0  0  0  0
 46 49  1  0  0  0  0
 46 70  1  0  0  0  0
 47 73  1  0  0  0  0
 48 69  1  0  0  0  0
 49 68  1  0  0  0  0
 51 63  1  0  0  0  0
 52 64  1  0  0  0  0
 53 64  1  0  0  0  0
 54 65  1  0  0  0  0
 55 65  1  0  0  0  0
 56 65  1  0  0  0  0
 57 76  1  0  0  0  0
 58 61  1  0  0  0  0
 59 60  1  0  0  0  0
 59 64  1  0  0  0  0
 60 75  1  0  0  0  0
 61 83  1  0  0  0  0
 62 65  1  0  0  0  0
 62 74  1  0  0  0  0
 63 76  1  0  0  0  0
 66 68  1  0  0  0  0
M  CHG  1  76   1
M  ISO  4  37 100  61 101  75 100  83 101
M  END
> <Batch ID>
0109

> <Smiles>
CNC(C)C(=O)NC(C(=O)N1Cc2cc([101O:1][101CH2:1]Cc3ccc(C(C)(C)CC[100NH:0][100C:0](=O)N4CCCC(n5nc(-c6ccc(Oc7ccc(F)cc7F)cc6)c(C(N)=O)c5N)C4)c(C)n3)ccc2CC1C(=O)NC1CCCc2ccccc21)C(C)(C)C

> <Shape>
0.235

> <Color>
0.073

> <Negative vol penalty>
0.000

$$$$

  -OEChem-04052319563D

 81 88  0     1  0  0  0  0  0999 V2000
  -17.6819  -32.7038   23.0483 C   0  0  0  0  0  0  0  0  0  0  0  0
  -18.8771  -32.8976   22.3630 C   0  0  0  0  0  0  0  0  0  0  0  0
  -26.4529  -17.5703   21.1291 C   0  0  0  0  0  0  0  0  0  0  0  0
  -28.8287  -17.3053   21.4790 C   0  0  0  0  0  0  0  0  0  0  0  0
  -17.5732  -31.6722   23.9799 C   0  0  0  0  0  0  0  0  0  0  0  0
  -19.9646  -32.0605   22.6099 C   0  0  0  0  0  0  0  0  0  0  0  0
  -25.5961  -29.1049   19.3133 C   0  0  0  0  0  0  0  0  0  0  0  0
  -26.3121  -16.1857   21.0364 C   0  0  0  0  0  0  0  0  0  0  0  0
  -28.6879  -15.9207   21.3864 C   0  0  0  0  0  0  0  0  0  0  0  0
  -26.9776  -28.9758   19.4487 C   0  0  0  0  0  0  0  0  0  0  0  0
  -29.0105  -12.3356   20.8835 C   0  0  0  0  0  0  0  0  0  0  0  0
  -29.9369  -11.6402   20.1064 C   0  0  0  0  0  0  0  0  0  0  0  0
  -26.6492  -27.1771   21.0223 C   0  0  0  0  0  0  0  0  0  0  0  0
  -29.2648  -12.9133   18.1661 C   0  0  0  0  0  0  0  0  0  0  0  0
  -27.7113  -18.1302   21.3503 C   0  0  0  0  0  0  0  0  0  0  0  0
  -27.7740  -20.3478   22.6096 C   0  0  0  0  0  0  0  0  0  0  0  0
  -18.6569  -30.8160   24.2313 C   0  0  0  0  0  0  0  0  0  0  0  0
  -24.7291  -28.2770   20.0409 C   0  0  0  0  0  0  0  0  0  0  0  0
  -19.8707  -31.0173   23.5468 C   0  0  0  0  0  0  0  0  0  0  0  0
  -25.2570  -27.2960   20.8924 C   0  0  0  0  0  0  0  0  0  0  0  0
  -27.4295  -15.3609   21.1651 C   0  0  0  0  0  0  0  0  0  0  0  0
  -27.5044  -28.0137   20.3055 C   0  0  0  0  0  0  0  0  0  0  0  0
  -28.2112  -13.3197   20.3019 C   0  0  0  0  0  0  0  0  0  0  0  0
  -30.0640  -11.9291   18.7477 C   0  0  0  0  0  0  0  0  0  0  0  0
  -28.3383  -13.6086   18.9432 C   0  0  0  0  0  0  0  0  0  0  0  0
  -27.8575  -19.5604   21.4456 C   0  0  0  0  0  0  0  0  0  0  0  0
  -27.9828  -21.6325   22.1708 C   0  0  0  0  0  0  0  0  0  0  0  0
  -27.5297  -19.9532   23.9662 C   0  0  0  0  0  0  0  0  0  0  0  0
  -22.4895  -28.7593   22.2443 C   0  0  0  0  0  0  0  0  0  0  0  0
  -21.9805  -25.5785   21.8631 C   0  0  0  0  0  0  0  0  0  0  0  0
  -23.2134  -22.5399   20.9178 C   0  0  0  0  0  0  0  0  0  0  0  0
  -30.8189  -23.9056   17.4126 C   0  0  0  0  0  0  0  0  0  0  0  0
  -18.5069  -29.7443   25.2818 C   0  0  0  0  0  0  0  0  0  0  0  0
  -23.2415  -28.4111   19.8633 C   0  0  0  0  0  0  0  0  0  0  0  0
  -24.3695  -26.3689   21.6804 C   0  0  0  0  0  0  0  0  0  0  0  0
  -19.5869  -28.6677   25.2122 C   0  0  0  0  0  0  0  0  0  0  0  0
  -27.4133  -24.4128   18.3190 C   0  0  0  0  0  0  0  0  0  0  0  0
  -20.9658  -29.3035   25.0664 C   0  0  0  0  0  0  0  0  0  0  0  0
  -27.1334  -23.2977   19.3281 C   0  0  0  0  0  0  0  0  0  0  0  0
  -28.3505  -23.9458   17.2074 C   0  0  0  0  0  0  0  0  0  0  0  0
  -29.3372  -22.2364   18.6833 C   0  0  0  0  0  0  0  0  0  0  0  0
  -21.0649  -30.1147   23.7689 C   0  0  1  0  0  0  0  0  0  0  0  0
  -22.4468  -27.8585   21.0425 C   0  0  1  0  0  0  0  0  0  0  0  0
  -28.4412  -22.6761   19.8539 C   0  0  2  0  0  0  0  0  0  0  0  0
  -22.5741  -20.1187   20.7548 C   0  0  0  0  0  0  0  0  0  0  0  0
  -33.9616  -24.4072   21.7761 C   0  0  0  0  0  0  0  0  0  0  0  0
  -35.5430  -25.8541   20.4419 C   0  0  0  0  0  0  0  0  0  0  0  0
  -22.3075  -25.2913   24.8832 C   0  0  0  0  0  0  0  0  0  0  0  0
  -22.6098  -22.8290   24.5462 C   0  0  0  0  0  0  0  0  0  0  0  0
  -20.4621  -23.9202   23.8986 C   0  0  0  0  0  0  0  0  0  0  0  0
  -23.6120  -22.5123   17.9853 C   0  0  0  0  0  0  0  0  0  0  0  0
  -31.5026  -27.0386   19.6448 C   0  0  0  0  0  0  0  0  0  0  0  0
  -31.1311  -28.4811   19.9798 C   0  0  0  0  0  0  0  0  0  0  0  0
  -33.2750  -23.7489   17.7315 C   0  0  0  0  0  0  0  0  0  0  0  0
  -32.9549  -26.7526   19.9965 C   0  0  0  0  0  0  0  0  0  0  0  0
  -33.4911  -25.1978   18.1269 C   0  0  0  0  0  0  0  0  0  0  0  0
  -29.6685  -28.7707   19.6733 C   0  0  0  0  0  0  0  0  0  1  0  0
  -22.5289  -24.3242   22.4996 C   0  0  1  0  0  0  0  0  0  0  0  0
  -22.6394  -21.4527   20.0274 C   0  0  2  0  0  0  0  0  0  0  0  0
  -34.4490  -24.7996   20.3907 C   0  0  0  0  0  0  0  0  0  0  0  0
  -21.9940  -24.1098   23.9437 C   0  0  0  0  0  0  0  0  0  0  0  0
  -28.1002  -20.2843   20.3497 N   0  0  0  0  0  0  0  0  0  0  0  0
  -28.1710  -21.5401   20.8231 N   0  0  0  0  0  0  0  0  0  0  0  0
  -22.9217  -26.5434   21.4776 N   0  0  0  0  0  0  0  0  0  0  0  0
  -29.5722  -23.3681   17.7729 N   0  0  0  0  0  0  0  0  0  0  0  0
  -28.0220  -22.8208   22.8102 N   0  0  0  0  0  0  0  0  0  0  0  0
  -27.3366  -18.5927   24.2418 N   0  0  0  0  0  0  0  0  0  0  0  0
  -21.2523  -29.2344   22.6356 N   0  0  0  0  0  0  0  0  0  0  0  0
  -22.2229  -23.2330   21.5809 N   0  0  0  0  0  0  0  0  0  0  0  0
  -31.9256  -23.3036   17.9987 N   0  0  0  0  0  0  0  0  0  0  0  0
  -23.4807  -21.2830   18.8090 N   0  3  0  0  0  0  0  0  0  0  0  0
  -33.2820  -25.3581   19.6132 N   0  3  1  0  0  0  0  0  0  0  0  0
  -27.4677  -20.7844   24.9037 O   0  0  0  0  0  0  0  0  0  0  0  0
  -23.5651  -29.0040   22.7781 O   0  0  0  0  0  0  0  0  0  0  0  0
  -20.7624  -25.6946   21.7072 O   0  0  0  0  0  0  0  0  0  0  0  0
  -24.4201  -22.7507   21.0181 O   0  0  0  0  0  0  0  0  0  0  0  0
  -30.9366  -24.8553   16.6308 O   0  0  0  0  0  0  0  0  0  0  0  0
  -27.2925  -14.0097   21.0749 O   0  0  0  0  0  0  0  0  0  0  0  0
  -28.8525  -27.8860   20.4401 O   0  0  0  0  0  0  0  0  0  1  0  0
  -30.9548  -11.2624   18.0019 F   0  0  0  0  0  0  0  0  0  0  0  0
  -27.5741  -14.5539   18.3791 F   0  0  0  0  0  0  0  0  0  0  0  0
  1  2  1  0  0  0  0
  1  5  2  0  0  0  0
  2  6  2  0  0  0  0
  3  8  2  0  0  0  0
  3 15  1  0  0  0  0
  4  9  1  0  0  0  0
  4 15  2  0  0  0  0
  5 17  1  0  0  0  0
  6 19  1  0  0  0  0
  7 10  2  0  0  0  0
  7 18  1  0  0  0  0
  8 21  1  0  0  0  0
  9 21  2  0  0  0  0
 10 22  1  0  0  0  0
 11 12  2  0  0  0  0
 11 23  1  0  0  0  0
 12 24  1  0  0  0  0
 13 20  1  0  0  0  0
 13 22  2  0  0  0  0
 14 24  2  0  0  0  0
 14 25  1  0  0  0  0
 15 26  1  0  0  0  0
 16 26  1  0  0  0  0
 16 27  2  0  0  0  0
 16 28  1  0  0  0  0
 17 19  2  0  0  0  0
 17 33  1  0  0  0  0
 18 20  2  0  0  0  0
 18 34  1  0  0  0  0
 19 42  1  0  0  0  0
 20 35  1  0  0  0  0
 21 78  1  0  0  0  0
 22 79  1  0  0  0  0
 23 25  2  0  0  0  0
 23 78  1  0  0  0  0
 24 80  1  0  0  0  0
 25 81  1  0  0  0  0
 26 62  2  0  0  0  0
 27 63  1  0  0  0  0
 27 66  1  0  0  0  0
 28 67  1  0  0  0  0
 28 73  2  0  0  0  0
 29 43  1  0  0  0  0
 29 68  1  0  0  0  0
 29 74  2  0  0  0  0
 30 58  1  0  0  0  0
 30 64  1  0  0  0  0
 30 75  2  0  0  0  0
 31 59  1  0  0  0  0
 31 69  1  0  0  0  0
 31 76  2  0  0  0  0
 32 65  1  0  0  0  0
 32 70  1  0  0  0  0
 32 77  2  0  0  0  0
 33 36  1  0  0  0  0
 34 43  1  0  0  0  0
 35 64  1  0  0  0  0
 36 38  1  0  0  0  0
 37 39  1  0  0  0  0
 37 40  1  0  0  0  0
 38 42  1  0  0  0  0
 39 44  1  0  0  0  0
 40 65  1  0  0  0  0
 41 44  1  0  0  0  0
 41 65  1  0  0  0  0
 42 68  1  0  0  0  0
 43 64  1  0  0  0  0
 44 63  1  0  0  0  0
 45 59  1  0  0  0  0
 46 60  1  0  0  0  0
 47 60  1  0  0  0  0
 48 61  1  0  0  0  0
 49 61  1  0  0  0  0
 50 61  1  0  0  0  0
 51 71  1  0  0  0  0
 52 53  1  0  0  0  0
 52 55  1  0  0  0  0
 53 57  1  0  0  0  0
 54 56  1  0  0  0  0
 54 70  1  0  0  0  0
 55 72  1  0  0  0  0
 56 72  1  0  0  0  0
 57 79  1  0  0  0  0
 58 61  1  0  0  0  0
 58 69  1  0  0  0  0
 59 71  1  0  0  0  0
 60 72  1  0  0  0  0
 62 63  1  0  0  0  0
M  CHG  2  71   1  72   1
M  ISO  4  32 100  57 101  70 100  79 101
M  END
> <Batch ID>
0109

> <Smiles>
CNC(C)C(=O)NC(C(=O)N1Cc2cc([101O:1][101CH2:1]CCCN(CC[100NH:0][100C:0](=O)N3CCCC(n4nc(-c5ccc(Oc6ccc(F)cc6F)cc5)c(C(N)=O)c4N)C3)C(C)C)ccc2CC1C(=O)NC1CCCc2ccccc21)C(C)(C)C

> <Shape>
0.218

> <Color>
0.076

> <Negative vol penalty>
0.000

$$$$

  -OEChem-04052319563D

 86 94  0     1  0  0  0  0  0999 V2000
  -30.2914  -32.1970    9.5210 C   0  0  0  0  0  0  0  0  0  0  0  0
  -30.6605  -30.9567   10.0317 C   0  0  0  0  0  0  0  0  0  0  0  0
  -22.9985   -9.8974   19.9765 C   0  0  0  0  0  0  0  0  0  0  0  0
  -23.7324   -9.9350   22.2780 C   0  0  0  0  0  0  0  0  0  0  0  0
  -29.8472  -33.1998   10.3818 C   0  0  0  0  0  0  0  0  0  0  0  0
  -30.5867  -30.7189   11.4037 C   0  0  0  0  0  0  0  0  0  0  0  0
  -29.1435  -25.4399   14.1526 C   0  0  0  0  0  0  0  0  0  0  0  0
  -22.2337   -8.7609   20.2389 C   0  0  0  0  0  0  0  0  0  0  0  0
  -22.9675   -8.7984   22.5404 C   0  0  0  0  0  0  0  0  0  0  0  0
  -29.9243  -24.4329   14.7182 C   0  0  0  0  0  0  0  0  0  0  0  0
  -23.2122   -5.4626   22.0475 C   0  0  0  0  0  0  0  0  0  0  0  0
  -23.8032   -4.4412   22.7913 C   0  0  0  0  0  0  0  0  0  0  0  0
  -29.6311  -25.4352   16.8927 C   0  0  0  0  0  0  0  0  0  0  0  0
  -29.3646  -18.6267   20.9276 C   0  0  0  0  0  0  0  0  0  0  0  0
  -22.0855   -4.6730   24.4744 C   0  0  0  0  0  0  0  0  0  0  0  0
  -31.5506  -18.3358   20.0370 C   0  0  0  0  0  0  0  0  0  0  0  0
  -23.7479  -10.4845   20.9960 C   0  0  0  0  0  0  0  0  0  0  0  0
  -24.1310  -13.0013   20.8337 C   0  0  0  0  0  0  0  0  0  0  0  0
  -29.7587  -32.9710   11.7640 C   0  0  0  0  0  0  0  0  0  0  0  0
  -28.6088  -26.4600   14.9525 C   0  0  0  0  0  0  0  0  0  0  0  0
  -30.1422  -31.7200   12.2840 C   0  0  0  0  0  0  0  0  0  0  0  0
  -28.8417  -26.4526   16.3352 C   0  0  0  0  0  0  0  0  0  0  0  0
  -30.5770  -17.9461   20.9425 C   0  0  0  0  0  0  0  0  0  0  0  0
  -29.1658  -19.6616   20.0205 C   0  0  0  0  0  0  0  0  0  0  0  0
  -22.2182   -8.2114   21.5208 C   0  0  0  0  0  0  0  0  0  0  0  0
  -30.1706  -24.4320   16.0880 C   0  0  0  0  0  0  0  0  0  0  0  0
  -22.0578   -6.0892   22.5173 C   0  0  0  0  0  0  0  0  0  0  0  0
  -23.2398   -4.0464   24.0047 C   0  0  0  0  0  0  0  0  0  0  0  0
  -21.4945   -5.6944   23.7307 C   0  0  0  0  0  0  0  0  0  0  0  0
  -24.5386  -11.6582   20.7255 C   0  0  0  0  0  0  0  0  0  0  0  0
  -30.2027  -19.9746   19.1565 C   0  0  0  0  0  0  0  0  0  0  0  0
  -25.2389  -13.7268   20.4695 C   0  0  0  0  0  0  0  0  0  0  0  0
  -22.8642  -13.5446   21.2283 C   0  0  0  0  0  0  0  0  0  0  0  0
  -28.9354  -29.6195   15.0740 C   0  0  0  0  0  0  0  0  0  0  0  0
  -26.5841  -29.3865   17.2965 C   0  0  0  0  0  0  0  0  0  0  0  0
  -24.9586  -27.4686   19.6043 C   0  0  0  0  0  0  0  0  0  0  0  0
  -30.7356  -14.6635   20.7028 C   0  0  0  0  0  0  0  0  0  0  0  0
  -29.3176  -34.1011   12.6602 C   0  0  0  0  0  0  0  0  0  0  0  0
  -27.7465  -27.5242   14.3310 C   0  0  0  0  0  0  0  0  0  0  0  0
  -28.2738  -27.5137   17.2407 C   0  0  0  0  0  0  0  0  0  0  0  0
  -28.9128  -33.6460   14.0599 C   0  0  0  0  0  0  0  0  0  0  0  0
  -29.5876  -12.2532   18.3471 C   0  0  0  0  0  0  0  0  0  0  0  0
  -29.9471  -32.6787   14.6267 C   0  0  0  0  0  0  0  0  0  0  0  0
  -28.1408  -11.9900   18.7686 C   0  0  0  0  0  0  0  0  0  0  0  0
  -30.4944  -12.4819   19.5544 C   0  0  0  0  0  0  0  0  0  0  0  0
  -28.5889  -13.2681   20.9051 C   0  0  0  0  0  0  0  0  0  0  0  0
  -30.0524  -31.4156   13.7636 C   0  0  1  0  0  0  0  0  0  0  0  0
  -27.6789  -28.8005   15.1640 C   0  0  1  0  0  0  0  0  0  0  0  0
  -27.6255  -13.0870   19.7196 C   0  0  2  0  0  0  0  0  0  0  0  0
  -27.6107  -21.1524   21.3190 C   0  0  0  0  0  0  0  0  0  0  0  0
  -23.1028  -27.5654   21.2907 C   0  0  0  0  0  0  0  0  0  0  0  0
  -26.7376  -18.8023   18.3238 C   0  0  0  0  0  0  0  0  0  0  0  0
  -28.3893  -30.9576   19.1892 C   0  0  0  0  0  0  0  0  0  0  0  0
  -26.9351  -30.2098   21.0851 C   0  0  0  0  0  0  0  0  0  0  0  0
  -25.9778  -31.6163   19.2608 C   0  0  0  0  0  0  0  0  0  0  0  0
  -23.4303  -25.3481   18.2163 C   0  0  0  0  0  0  0  0  0  0  0  0
  -30.8215  -16.8353   21.9008 C   0  0  0  0  0  0  0  0  0  0  0  0
  -30.0445  -21.0879   18.1519 C   0  0  0  0  0  0  0  0  0  0  0  0
  -31.1240  -21.0970   17.0674 C   0  0  0  0  0  0  0  0  0  0  0  0
  -30.9075  -22.1722   16.0089 C   0  0  0  0  0  0  0  0  0  1  0  0
  -27.8686  -20.3937   19.9980 C   0  0  2  0  0  0  0  0  0  0  0  0
  -26.5430  -29.1968   18.7936 C   0  0  1  0  0  0  0  0  0  0  0  0
  -23.4804  -27.2317   19.8559 C   0  0  2  0  0  0  0  0  0  0  0  0
  -26.6338  -19.5114   19.6648 C   0  0  2  0  0  0  0  0  0  0  0  0
  -26.9738  -30.4761   19.5651 C   0  0  0  0  0  0  0  0  0  0  0  0
  -31.3942  -19.3361   19.1412 N   0  0  0  0  0  0  0  0  0  0  0  0
  -25.8065  -11.5349   20.3237 N   0  0  0  0  0  0  0  0  0  0  0  0
  -26.2051  -12.8099   20.1763 N   0  0  0  0  0  0  0  0  0  0  0  0
  -27.4422  -28.5363   16.5847 N   0  0  0  0  0  0  0  0  0  0  0  0
  -29.9502  -13.5351   20.4149 N   0  0  0  0  0  0  0  0  0  0  0  0
  -25.4712  -15.0533   20.3745 N   0  0  0  0  0  0  0  0  0  0  0  0
  -21.8342  -12.6577   21.5704 N   0  0  0  0  0  0  0  0  0  0  0  0
  -28.9425  -30.5264   14.0315 N   0  0  0  0  0  0  0  0  0  0  0  0
  -25.1962  -28.7335   19.1095 N   0  0  0  0  0  0  0  0  0  0  0  0
  -30.1417  -15.6170   21.5207 N   0  0  0  0  0  0  0  0  0  0  0  0
  -23.1332  -25.8055   19.5981 N   0  3  0  0  0  0  0  0  0  0  0  0
  -22.6468  -14.7796   21.2603 O   0  0  0  0  0  0  0  0  0  0  0  0
  -29.8316  -29.4428   15.8910 O   0  0  0  0  0  0  0  0  0  0  0  0
  -25.8753  -30.2522   16.7770 O   0  0  0  0  0  0  0  0  0  0  0  0
  -25.8171  -26.6180   19.8282 O   0  0  0  0  0  0  0  0  0  0  0  0
  -31.8793  -14.8127   20.2593 O   0  0  0  0  0  0  0  0  0  0  0  0
  -21.4718   -7.1025   21.7773 O   0  0  0  0  0  0  0  0  0  0  0  0
  -30.9329  -23.4505   16.6426 O   0  0  0  0  0  0  0  0  0  1  0  0
  -23.8066   -3.0646   24.7181 F   0  0  0  0  0  0  0  0  0  0  0  0
  -20.3850   -6.2918   24.1865 F   0  0  0  0  0  0  0  0  0  0  0  0
  -26.4771  -18.5687   20.6345 F   0  0  0  0  0  0  0  0  0  0  0  0
  1  2  1  0  0  0  0
  1  5  2  0  0  0  0
  2  6  2  0  0  0  0
  3  8  2  0  0  0  0
  3 17  1  0  0  0  0
  4  9  1  0  0  0  0
  4 17  2  0  0  0  0
  5 19  1  0  0  0  0
  6 21  1  0  0  0  0
  7 10  2  0  0  0  0
  7 20  1  0  0  0  0
  8 25  1  0  0  0  0
  9 25  2  0  0  0  0
 10 26  1  0  0  0  0
 11 12  2  0  0  0  0
 11 27  1  0  0  0  0
 12 28  1  0  0  0  0
 13 22  1  0  0  0  0
 13 26  2  0  0  0  0
 14 23  2  0  0  0  0
 14 24  1  0  0  0  0
 15 28  2  0  0  0  0
 15 29  1  0  0  0  0
 16 23  1  0  0  0  0
 16 66  2  0  0  0  0
 17 30  1  0  0  0  0
 18 30  1  0  0  0  0
 18 32  2  0  0  0  0
 18 33  1  0  0  0  0
 19 21  2  0  0  0  0
 19 38  1  0  0  0  0
 20 22  2  0  0  0  0
 20 39  1  0  0  0  0
 21 47  1  0  0  0  0
 22 40  1  0  0  0  0
 23 57  1  0  0  0  0
 24 31  2  0  0  0  0
 24 61  1  0  0  0  0
 25 82  1  0  0  0  0
 26 83  1  0  0  0  0
 27 29  2  0  0  0  0
 27 82  1  0  0  0  0
 28 84  1  0  0  0  0
 29 85  1  0  0  0  0
 30 67  2  0  0  0  0
 31 58  1  0  0  0  0
 31 66  1  0  0  0  0
 32 68  1  0  0  0  0
 32 71  1  0  0  0  0
 33 72  1  0  0  0  0
 33 77  2  0  0  0  0
 34 48  1  0  0  0  0
 34 73  1  0  0  0  0
 34 78  2  0  0  0  0
 35 62  1  0  0  0  0
 35 69  1  0  0  0  0
 35 79  2  0  0  0  0
 36 63  1  0  0  0  0
 36 74  1  0  0  0  0
 36 80  2  0  0  0  0
 37 70  1  0  0  0  0
 37 75  1  0  0  0  0
 37 81  2  0  0  0  0
 38 41  1  0  0  0  0
 39 48  1  0  0  0  0
 40 69  1  0  0  0  0
 41 43  1  0  0  0  0
 42 44  1  0  0  0  0
 42 45  1  0  0  0  0
 43 47  1  0  0  0  0
 44 49  1  0  0  0  0
 45 70  1  0  0  0  0
 46 49  1  0  0  0  0
 46 70  1  0  0  0  0
 47 73  1  0  0  0  0
 48 69  1  0  0  0  0
 49 68  1  0  0  0  0
 50 61  1  0  0  0  0
 51 63  1  0  0  0  0
 52 64  1  0  0  0  0
 53 65  1  0  0  0  0
 54 65  1  0  0  0  0
 55 65  1  0  0  0  0
 56 76  1  0  0  0  0
 57 75  1  0  0  0  0
 58 59  1  0  0  0  0
 59 60  1  0  0  0  0
 60 83  1  0  0  0  0
 61 64  1  0  0  0  0
 62 65  1  0  0  0  0
 62 74  1  0  0  0  0
 63 76  1  0  0  0  0
 64 86  1  0  0  0  0
 67 68  1  0  0  0  0
M  CHG  1  76   1
M  ISO  4  37 100  60 101  75 100  83 101
M  END
> <Batch ID>
0109

> <Smiles>
CNC(C)C(=O)NC(C(=O)N1Cc2cc([101O:1][101CH2:1]CCc3ncc(C[100NH:0][100C:0](=O)N4CCCC(n5nc(-c6ccc(Oc7ccc(F)cc7F)cc6)c(C(N)=O)c5N)C4)cc3C(C)C(C)F)ccc2CC1C(=O)NC1CCCc2ccccc21)C(C)(C)C

> <Shape>
0.261

> <Color>
0.198

> <Negative vol penalty>
0.000

$$$$

  -OEChem-04052319563D

 84 92  0     1  0  0  0  0  0999 V2000
  -15.4111  -26.7714   22.0917 C   0  0  0  0  0  0  0  0  0  0  0  0
  -16.3044  -26.6168   21.0364 C   0  0  0  0  0  0  0  0  0  0  0  0
  -26.3030  -12.9108   21.6092 C   0  0  0  0  0  0  0  0  0  0  0  0
  -25.8515  -13.7575   19.3920 C   0  0  0  0  0  0  0  0  0  0  0  0
  -15.7315  -27.6114   23.1573 C   0  0  0  0  0  0  0  0  0  0  0  0
  -17.5183  -27.3030   21.0458 C   0  0  0  0  0  0  0  0  0  0  0  0
  -21.4202  -24.3672   19.7039 C   0  0  0  0  0  0  0  0  0  0  0  0
  -25.0758  -12.2477   21.6059 C   0  0  0  0  0  0  0  0  0  0  0  0
  -24.6243  -13.0943   19.3886 C   0  0  0  0  0  0  0  0  0  0  0  0
  -21.5847  -24.1093   18.3437 C   0  0  0  0  0  0  0  0  0  0  0  0
  -23.7808   -9.4112   20.2983 C   0  0  0  0  0  0  0  0  0  0  0  0
  -23.7558   -8.0916   20.7495 C   0  0  0  0  0  0  0  0  0  0  0  0
  -23.2998  -25.8023   18.2363 C   0  0  0  0  0  0  0  0  0  0  0  0
  -28.1344  -23.8257   16.7077 C   0  0  0  0  0  0  0  0  0  0  0  0
  -27.3605  -21.7708   17.6890 C   0  0  0  0  0  0  0  0  0  0  0  0
  -22.1970   -8.7150   22.4868 C   0  0  0  0  0  0  0  0  0  0  0  0
  -26.6908  -13.6657   20.5023 C   0  0  0  0  0  0  0  0  0  0  0  0
  -29.1966  -13.8506   20.0617 C   0  0  0  0  0  0  0  0  0  0  0  0
  -16.9540  -28.3008   23.1844 C   0  0  0  0  0  0  0  0  0  0  0  0
  -22.1879  -25.3538   20.3392 C   0  0  0  0  0  0  0  0  0  0  0  0
  -17.8547  -28.1541   22.1122 C   0  0  0  0  0  0  0  0  0  0  0  0
  -23.1449  -26.0690   19.6052 C   0  0  0  0  0  0  0  0  0  0  0  0
  -27.2441  -22.7577   16.7165 C   0  0  0  0  0  0  0  0  0  0  0  0
  -24.2365  -12.3394   20.4956 C   0  0  0  0  0  0  0  0  0  0  0  0
  -22.5226  -24.8289   17.6090 C   0  0  0  0  0  0  0  0  0  0  0  0
  -23.0139  -10.3828   20.9415 C   0  0  0  0  0  0  0  0  0  0  0  0
  -22.9639   -7.7434   21.8437 C   0  0  0  0  0  0  0  0  0  0  0  0
  -22.2220  -10.0346   22.0357 C   0  0  0  0  0  0  0  0  0  0  0  0
  -27.9580  -14.3514   20.5053 C   0  0  0  0  0  0  0  0  0  0  0  0
  -29.1155  -23.8603   17.6854 C   0  0  0  0  0  0  0  0  0  0  0  0
  -28.3764  -21.8973   18.6227 C   0  0  0  0  0  0  0  0  0  0  0  0
  -30.0797  -14.8809   20.2743 C   0  0  0  0  0  0  0  0  0  0  0  0
  -29.5201  -12.5687   19.5068 C   0  0  0  0  0  0  0  0  0  0  0  0
  -21.5392  -28.0766   21.8457 C   0  0  0  0  0  0  0  0  0  0  0  0
  -24.7173  -28.0221   22.4934 C   0  0  0  0  0  0  0  0  0  0  0  0
  -27.8312  -26.9232   21.6317 C   0  0  0  0  0  0  0  0  0  0  0  0
  -29.4246  -20.8091   20.6385 C   0  0  0  0  0  0  0  0  0  0  0  0
  -17.2357  -29.2344   24.3349 C   0  0  0  0  0  0  0  0  0  0  0  0
  -22.0171  -25.6014   21.8130 C   0  0  0  0  0  0  0  0  0  0  0  0
  -24.0083  -27.1246   20.2445 C   0  0  0  0  0  0  0  0  0  0  0  0
  -18.7043  -29.6349   24.4489 C   0  0  0  0  0  0  0  0  0  0  0  0
  -30.8060  -18.6629   23.1210 C   0  0  0  0  0  0  0  0  0  0  0  0
  -19.2560  -30.0349   23.0842 C   0  0  0  0  0  0  0  0  0  0  0  0
  -30.3502  -17.2675   22.6882 C   0  0  0  0  0  0  0  0  0  0  0  0
  -29.7357  -19.7186   22.8496 C   0  0  0  0  0  0  0  0  0  0  0  0
  -28.7729  -18.3534   21.0390 C   0  0  0  0  0  0  0  0  0  0  0  0
  -19.1920  -28.8624   22.0980 C   0  0  1  0  0  0  0  0  0  0  0  0
  -22.4917  -26.9854   22.2453 C   0  0  1  0  0  0  0  0  0  0  0  0
  -29.8429  -17.2665   21.2328 C   0  0  2  0  0  0  0  0  0  0  0  0
  -30.0889  -24.9913   17.7062 C   0  0  0  0  0  0  0  0  0  0  0  0
  -30.3037  -26.5425   21.8301 C   0  0  0  0  0  0  0  0  0  0  0  0
  -23.5107  -21.1780   14.8267 C   0  0  0  0  0  0  0  0  0  0  0  0
  -21.2554  -23.2749   14.8522 C   0  0  0  0  0  0  0  0  0  0  0  0
  -24.8775  -30.8339   21.3196 C   0  0  0  0  0  0  0  0  0  0  0  0
  -27.3606  -30.5529   21.1659 C   0  0  0  0  0  0  0  0  0  0  0  0
  -26.2354  -30.4894   23.3913 C   0  0  0  0  0  0  0  0  0  0  0  0
  -27.4405  -24.4278   23.1742 C   0  0  0  0  0  0  0  0  0  0  0  0
  -26.1622  -22.6704   15.6806 C   0  0  0  0  0  0  0  0  0  0  0  0
  -25.9575  -28.5398   21.8058 C   0  0  1  0  0  0  0  0  0  0  0  0
  -28.9397  -26.2913   22.4541 C   0  0  2  0  0  0  0  0  0  0  0  0
  -23.7018  -22.6297   15.2525 C   0  0  1  0  0  0  0  0  0  0  0  0
  -22.4226  -23.2504   15.8330 C   0  0  1  0  0  0  0  0  0  1  0  0
  -26.0903  -30.0855   21.9079 C   0  0  0  0  0  0  0  0  0  0  0  0
  -28.0426  -15.6025   20.9653 N   0  0  0  0  0  0  0  0  0  0  0  0
  -29.2600  -22.9202   18.6461 N   0  0  0  0  0  0  0  0  0  0  0  0
  -29.3450  -15.8965   20.8119 N   0  0  0  0  0  0  0  0  0  0  0  0
  -23.7995  -27.3344   21.6867 N   0  0  0  0  0  0  0  0  0  0  0  0
  -29.3064  -19.6614   21.4506 N   0  0  0  0  0  0  0  0  0  0  0  0
  -31.4052  -15.0081   20.0522 N   0  0  0  0  0  0  0  0  0  0  0  0
  -28.4929  -11.6270   19.3572 N   0  0  0  0  0  0  0  0  0  0  0  0
  -28.4869  -20.8862   19.6093 N   0  0  0  0  0  0  0  0  0  0  0  0
  -20.2642  -27.9254   22.3565 N   0  0  0  0  0  0  0  0  0  0  0  0
  -27.0794  -27.8045   22.3795 N   0  0  0  0  0  0  0  0  0  0  0  0
  -28.7338  -24.8188   22.5564 N   0  3  0  0  0  0  0  0  0  0  0  0
  -24.7967  -22.6641   16.2645 N   0  3  0  0  0  0  0  0  0  0  0  0
  -30.6885  -12.2615   19.1694 O   0  0  0  0  0  0  0  0  0  0  0  0
  -21.9324  -28.9890   21.1283 O   0  0  0  0  0  0  0  0  0  0  0  0
  -24.5716  -28.2144   23.7031 O   0  0  0  0  0  0  0  0  0  0  0  0
  -27.6526  -26.6639   20.4436 O   0  0  0  0  0  0  0  0  0  0  0  0
  -30.3107  -21.6471   20.8244 O   0  0  0  0  0  0  0  0  0  0  0  0
  -23.0391  -11.6923   20.4920 O   0  0  0  0  0  0  0  0  0  0  0  0
  -22.6847  -24.5796   16.2811 O   0  0  0  0  0  0  0  0  0  1  0  0
  -22.9389   -6.4758   22.2758 F   0  0  0  0  0  0  0  0  0  0  0  0
  -21.4821  -10.9634   22.6569 F   0  0  0  0  0  0  0  0  0  0  0  0
  1  2  1  0  0  0  0
  1  5  2  0  0  0  0
  2  6  2  0  0  0  0
  3  8  2  0  0  0  0
  3 17  1  0  0  0  0
  4  9  1  0  0  0  0
  4 17  2  0  0  0  0
  5 19  1  0  0  0  0
  6 21  1  0  0  0  0
  7 10  2  0  0  0  0
  7 20  1  0  0  0  0
  8 24  1  0  0  0  0
  9 24  2  0  0  0  0
 10 25  1  0  0  0  0
 11 12  2  0  0  0  0
 11 26  1  0  0  0  0
 12 27  1  0  0  0  0
 13 22  1  0  0  0  0
 13 25  2  0  0  0  0
 14 23  1  0  0  0  0
 14 30  2  0  0  0  0
 15 23  2  0  0  0  0
 15 31  1  0  0  0  0
 16 27  2  0  0  0  0
 16 28  1  0  0  0  0
 17 29  1  0  0  0  0
 18 29  1  0  0  0  0
 18 32  2  0  0  0  0
 18 33  1  0  0  0  0
 19 21  2  0  0  0  0
 19 38  1  0  0  0  0
 20 22  2  0  0  0  0
 20 39  1  0  0  0  0
 21 47  1  0  0  0  0
 22 40  1  0  0  0  0
 23 58  1  0  0  0  0
 24 81  1  0  0  0  0
 25 82  1  0  0  0  0
 26 28  2  0  0  0  0
 26 81  1  0  0  0  0
 27 83  1  0  0  0  0
 28 84  1  0  0  0  0
 29 64  2  0  0  0  0
 30 50  1  0  0  0  0
 30 65  1  0  0  0  0
 31 65  2  0  0  0  0
 31 71  1  0  0  0  0
 32 66  1  0  0  0  0
 32 69  1  0  0  0  0
 33 70  1  0  0  0  0
 33 76  2  0  0  0  0
 34 48  1  0  0  0  0
 34 72  1  0  0  0  0
 34 77  2  0  0  0  0
 35 59  1  0  0  0  0
 35 67  1  0  0  0  0
 35 78  2  0  0  0  0
 36 60  1  0  0  0  0
 36 73  1  0  0  0  0
 36 79  2  0  0  0  0
 37 68  1  0  0  0  0
 37 71  1  0  0  0  0
 37 80  2  0  0  0  0
 38 41  1  0  0  0  0
 39 48  1  0  0  0  0
 40 67  1  0  0  0  0
 41 43  1  0  0  0  0
 42 44  1  0  0  0  0
 42 45  1  0  0  0  0
 43 47  1  0  0  0  0
 44 49  1  0  0  0  0
 45 68  1  0  0  0  0
 46 49  1  0  0  0  0
 46 68  1  0  0  0  0
 47 72  1  0  0  0  0
 48 67  1  0  0  0  0
 49 66  1  0  0  0  0
 51 60  1  0  0  0  0
 52 61  1  0  0  0  0
 53 62  1  0  0  0  0
 54 63  1  0  0  0  0
 55 63  1  0  0  0  0
 56 63  1  0  0  0  0
 57 74  1  0  0  0  0
 58 75  1  0  0  0  0
 59 63  1  0  0  0  0
 59 73  1  0  0  0  0
 60 74  1  0  0  0  0
 61 62  1  0  0  0  0
 61 75  1  0  0  0  0
 62 82  1  0  0  0  0
 64 66  1  0  0  0  0
M  CHG  2  74   1  75   1
M  ISO  4  37 100  62 101  71 100  82 101
M  END
> <Batch ID>
0109

> <Smiles>
CNC(C)C(=O)NC(C(=O)N1Cc2cc([101O:1][101CH:1](C)C(C)NCc3cc(C)nc([100NH:0][100C:0](=O)N4CCCC(n5nc(-c6ccc(Oc7ccc(F)cc7F)cc6)c(C(N)=O)c5N)C4)c3)ccc2CC1C(=O)NC1CCCc2ccccc21)C(C)(C)C

> <Shape>
0.292

> <Color>
0.093

> <Negative vol penalty>
0.000

$$$$

  -OEChem-04052319563D

 94103  0     1  0  0  0  0  0999 V2000
  -27.3274  -32.6316   27.6541 C   0  0  0  0  0  0  0  0  0  0  0  0
  -27.6246  -31.6317   26.7336 C   0  0  0  0  0  0  0  0  0  0  0  0
  -24.5728   -8.8861   21.6203 C   0  0  0  0  0  0  0  0  0  0  0  0
  -23.6810  -10.6384   23.0243 C   0  0  0  0  0  0  0  0  0  0  0  0
  -25.9987  -32.9569   27.9235 C   0  0  0  0  0  0  0  0  0  0  0  0
  -26.5931  -30.9557   26.0829 C   0  0  0  0  0  0  0  0  0  0  0  0
  -27.4476  -30.4220   21.1200 C   0  0  0  0  0  0  0  0  0  0  0  0
  -24.0971   -7.9273   22.5147 C   0  0  0  0  0  0  0  0  0  0  0  0
  -23.2052   -9.6796   23.9187 C   0  0  0  0  0  0  0  0  0  0  0  0
  -28.3383  -29.4224   20.7312 C   0  0  0  0  0  0  0  0  0  0  0  0
  -21.1437   -6.4537   23.2487 C   0  0  0  0  0  0  0  0  0  0  0  0
  -20.4881   -5.3421   22.7193 C   0  0  0  0  0  0  0  0  0  0  0  0
  -26.4787  -27.9844   20.1896 C   0  0  0  0  0  0  0  0  0  0  0  0
  -22.1438   -3.8914   23.7150 C   0  0  0  0  0  0  0  0  0  0  0  0
  -26.5609  -20.3582   17.6944 C   0  0  0  0  0  0  0  0  0  0  0  0
  -28.4659  -19.4490   18.4420 C   0  0  0  0  0  0  0  0  0  0  0  0
  -24.3648  -10.2417   21.8751 C   0  0  0  0  0  0  0  0  0  0  0  0
  -24.1767  -11.7743   19.8445 C   0  0  0  0  0  0  0  0  0  0  0  0
  -24.9506  -32.2912   27.2686 C   0  0  0  0  0  0  0  0  0  0  0  0
  -26.0635  -30.2060   21.0568 C   0  0  0  0  0  0  0  0  0  0  0  0
  -25.2491  -31.2715   26.3448 C   0  0  0  0  0  0  0  0  0  0  0  0
  -25.5725  -28.9838   20.5759 C   0  0  0  0  0  0  0  0  0  0  0  0
  -26.2446  -19.1368   18.2471 C   0  0  0  0  0  0  0  0  0  0  0  0
  -27.4498  -18.5615   18.7200 C   0  0  0  0  0  0  0  0  0  0  0  0
  -23.4133   -8.3240   23.6639 C   0  0  0  0  0  0  0  0  0  0  0  0
  -27.8540  -28.2024   20.2686 C   0  0  0  0  0  0  0  0  0  0  0  0
  -22.2994   -6.2842   24.0112 C   0  0  0  0  0  0  0  0  0  0  0  0
  -20.9882   -4.0610   22.9525 C   0  0  0  0  0  0  0  0  0  0  0  0
  -22.7994   -5.0030   24.2443 C   0  0  0  0  0  0  0  0  0  0  0  0
  -24.8565  -11.2327   20.9519 C   0  0  0  0  0  0  0  0  0  0  0  0
  -25.0667  -12.6663   19.2980 C   0  0  0  0  0  0  0  0  0  0  0  0
  -22.8586  -11.4960   19.3537 C   0  0  0  0  0  0  0  0  0  0  0  0
  -23.7047  -30.1350   23.1863 C   0  0  0  0  0  0  0  0  0  0  0  0
  -21.8483  -29.8540   20.5411 C   0  0  0  0  0  0  0  0  0  0  0  0
  -21.5935  -28.9328   17.2649 C   0  0  0  0  0  0  0  0  0  0  0  0
  -28.8115  -16.7531   19.8252 C   0  0  0  0  0  0  0  0  0  0  0  0
  -23.5291  -32.6451   27.6277 C   0  0  0  0  0  0  0  0  0  0  0  0
  -25.1157  -31.3041   21.4547 C   0  0  0  0  0  0  0  0  0  0  0  0
  -24.0955  -28.7092   20.4695 C   0  0  0  0  0  0  0  0  0  0  0  0
  -22.5018  -32.1391   26.6183 C   0  0  0  0  0  0  0  0  0  0  0  0
  -29.9815  -13.4170   20.2486 C   0  0  0  0  0  0  0  0  0  0  0  0
  -27.7873  -24.1531   24.2705 C   0  0  0  0  0  0  0  0  0  0  0  0
  -22.7808  -30.6836   26.2567 C   0  0  0  0  0  0  0  0  0  0  0  0
  -28.6555  -24.3268   23.0282 C   0  0  0  0  0  0  0  0  0  0  0  0
  -28.6965  -12.5959   20.3782 C   0  0  0  0  0  0  0  0  0  0  0  0
  -29.8528  -14.7818   20.9229 C   0  0  0  0  0  0  0  0  0  0  0  0
  -27.4068  -14.7546   20.6306 C   0  0  0  0  0  0  0  0  0  0  0  0
  -27.7594  -22.7065   24.7398 C   0  0  0  0  0  0  0  0  0  0  0  0
  -28.1905  -21.9285   22.3942 C   0  0  0  0  0  0  0  0  0  0  0  0
  -24.1584  -30.5325   25.6002 C   0  0  1  0  0  0  0  0  0  0  0  0
  -23.7305  -30.7895   21.8340 C   0  0  1  0  0  0  0  0  0  0  0  0
  -28.2171  -23.3783   21.9063 C   0  0  2  0  0  0  0  0  0  0  0  0
  -27.4659  -13.3975   19.9106 C   0  0  2  0  0  0  0  0  0  0  0  0
  -24.9886  -17.3120   16.0800 C   0  0  0  0  0  0  0  0  0  0  0  0
  -23.9390  -19.3969   19.1997 C   0  0  0  0  0  0  0  0  0  0  0  0
  -19.9397  -28.7839   15.3834 C   0  0  0  0  0  0  0  0  0  0  0  0
  -30.5179  -25.0458   19.2070 C   0  0  0  0  0  0  0  0  0  0  0  0
  -20.6236  -27.3679   21.8175 C   0  0  0  0  0  0  0  0  0  0  0  0
  -19.7172  -26.7448   19.5684 C   0  0  0  0  0  0  0  0  0  0  0  0
  -18.9845  -28.8631   20.6633 C   0  0  0  0  0  0  0  0  0  0  0  0
  -27.1329  -20.3939   24.0522 C   0  0  0  0  0  0  0  0  0  0  0  0
  -23.1508  -30.8138   15.5930 C   0  0  0  0  0  0  0  0  0  0  0  0
  -24.2131  -18.3004   16.9424 C   0  0  0  0  0  0  0  0  0  0  0  0
  -28.6531  -21.7080   17.3578 C   0  0  0  0  0  0  0  0  0  0  0  0
  -29.4105  -22.4284   18.4654 C   0  0  0  0  0  0  0  0  0  0  0  0
  -28.2913  -25.8744   20.0565 C   0  0  0  0  0  0  0  0  0  1  0  0
  -24.8929  -18.5470   18.3241 C   0  0  1  0  0  0  0  0  0  0  0  0
  -21.3246  -28.7004   19.7201 C   0  0  1  0  0  0  0  0  0  0  0  0
  -20.9959  -29.6415   16.0628 C   0  0  2  0  0  0  0  0  0  0  0  0
  -29.1360  -23.5155   20.6974 C   0  0  2  0  0  0  0  0  0  0  0  0
  -29.5024  -24.9781   20.3585 C   0  0  1  0  0  0  0  0  0  0  0  0
  -20.1903  -27.9232   20.4461 C   0  0  0  0  0  0  0  0  0  0  0  0
  -26.0837  -11.7382   21.1013 N   0  0  0  0  0  0  0  0  0  0  0  0
  -27.9139  -20.5376   17.8189 N   0  0  0  0  0  0  0  0  0  0  0  0
  -26.1822  -12.6068   20.0806 N   0  0  0  0  0  0  0  0  0  0  0  0
  -23.2090  -29.8120   20.8765 N   0  0  0  0  0  0  0  0  0  0  0  0
  -28.6676  -15.4853   20.4276 N   0  0  0  0  0  0  0  0  0  0  0  0
  -24.9962  -13.4879   18.2291 N   0  0  0  0  0  0  0  0  0  0  0  0
  -22.0777  -10.5520   20.0345 N   0  0  0  0  0  0  0  0  0  0  0  0
  -27.6196  -17.3105   19.3633 N   0  0  0  0  0  0  0  0  0  0  0  0
  -24.1093  -30.9599   24.2184 N   0  0  0  0  0  0  0  0  0  0  0  0
  -20.9345  -29.2608   18.4309 N   0  0  0  0  0  0  0  0  0  0  0  0
  -27.2963  -21.8215   23.6078 N   0  3  1  0  0  0  0  0  0  0  0  0
  -22.0582  -29.9561   15.0661 N   0  3  0  0  0  0  0  0  0  0  0  0
  -28.4752  -22.8464   19.5413 N   0  3  0  0  0  0  0  0  0  0  0  0
  -22.3934  -12.0555   18.3319 O   0  0  0  0  0  0  0  0  0  0  0  0
  -23.3430  -28.9684   23.2861 O   0  0  0  0  0  0  0  0  0  0  0  0
  -21.0801  -30.7626   20.8665 O   0  0  0  0  0  0  0  0  0  0  0  0
  -22.5469  -28.1621   17.1778 O   0  0  0  0  0  0  0  0  0  0  0  0
  -29.9146  -17.2916   19.7020 O   0  0  0  0  0  0  0  0  0  0  0  0
  -22.9487   -7.3887   24.5367 O   0  0  0  0  0  0  0  0  0  0  0  0
  -28.7212  -27.2247   19.8891 O   0  0  0  0  0  0  0  0  0  1  0  0
  -20.3576   -2.9936   22.4453 F   0  0  0  0  0  0  0  0  0  0  0  0
  -23.9086   -4.8338   24.9770 F   0  0  0  0  0  0  0  0  0  0  0  0
  1  2  1  0  0  0  0
  1  5  2  0  0  0  0
  2  6  2  0  0  0  0
  3  8  2  0  0  0  0
  3 17  1  0  0  0  0
  4  9  1  0  0  0  0
  4 17  2  0  0  0  0
  5 19  1  0  0  0  0
  6 21  1  0  0  0  0
  7 10  2  0  0  0  0
  7 20  1  0  0  0  0
  8 25  1  0  0  0  0
  9 25  2  0  0  0  0
 10 26  1  0  0  0  0
 11 12  2  0  0  0  0
 11 27  1  0  0  0  0
 12 28  1  0  0  0  0
 13 22  1  0  0  0  0
 13 26  2  0  0  0  0
 14 28  2  0  0  0  0
 14 29  1  0  0  0  0
 15 23  2  0  0  0  0
 15 74  1  0  0  0  0
 16 24  2  0  0  0  0
 16 74  1  0  0  0  0
 17 30  1  0  0  0  0
 18 30  1  0  0  0  0
 18 31  2  0  0  0  0
 18 32  1  0  0  0  0
 19 21  2  0  0  0  0
 19 37  1  0  0  0  0
 20 22  2  0  0  0  0
 20 38  1  0  0  0  0
 21 50  1  0  0  0  0
 22 39  1  0  0  0  0
 23 24  1  0  0  0  0
 23 67  1  0  0  0  0
 24 80  1  0  0  0  0
 25 91  1  0  0  0  0
 26 92  1  0  0  0  0
 27 29  2  0  0  0  0
 27 91  1  0  0  0  0
 28 93  1  0  0  0  0
 29 94  1  0  0  0  0
 30 73  2  0  0  0  0
 31 75  1  0  0  0  0
 31 78  1  0  0  0  0
 32 79  1  0  0  0  0
 32 86  2  0  0  0  0
 33 51  1  0  0  0  0
 33 81  1  0  0  0  0
 33 87  2  0  0  0  0
 34 68  1  0  0  0  0
 34 76  1  0  0  0  0
 34 88  2  0  0  0  0
 35 69  1  0  0  0  0
 35 82  1  0  0  0  0
 35 89  2  0  0  0  0
 36 77  1  0  0  0  0
 36 80  1  0  0  0  0
 36 90  2  0  0  0  0
 37 40  1  0  0  0  0
 38 51  1  0  0  0  0
 39 76  1  0  0  0  0
 40 43  1  0  0  0  0
 41 45  1  0  0  0  0
 41 46  1  0  0  0  0
 42 44  1  0  0  0  0
 42 48  1  0  0  0  0
 43 50  1  0  0  0  0
 44 52  1  0  0  0  0
 45 53  1  0  0  0  0
 46 77  1  0  0  0  0
 47 53  1  0  0  0  0
 47 77  1  0  0  0  0
 48 83  1  0  0  0  0
 49 52  1  0  0  0  0
 49 83  1  0  0  0  0
 50 81  1  0  0  0  0
 51 76  1  0  0  0  0
 52 70  1  0  0  0  0
 53 75  1  0  0  0  0
 54 63  1  0  0  0  0
 55 67  1  0  0  0  0
 56 69  1  0  0  0  0
 57 71  1  0  0  0  0
 58 72  1  0  0  0  0
 59 72  1  0  0  0  0
 60 72  1  0  0  0  0
 61 83  1  0  0  0  0
 62 84  1  0  0  0  0
 63 67  1  0  0  0  0
 64 65  1  0  0  0  0
 64 74  1  0  0  0  0
 65 85  1  0  0  0  0
 66 71  1  0  0  0  0
 66 92  1  0  0  0  0
 68 72  1  0  0  0  0
 68 82  1  0  0  0  0
 69 84  1  0  0  0  0
 70 71  1  0  0  0  0
 70 85  1  0  0  0  0
 73 75  1  0  0  0  0
M  CHG  3  83   1  84   1  85   1
M  ISO  4  36 100  66 101  80 100  92 101
M  END
> <Batch ID>
0109

> <Smiles>
CCC(C)c1cn(CCNC(C2CCCN(C)C2)C(C)[101CH2:1][101O:1]c2ccc3c(c2)CN(C(=O)C(NC(=O)C(C)NC)C(C)(C)C)C(C(=O)NC2CCCc4ccccc42)C3)cc1[100NH:0][100C:0](=O)N1CCCC(n2nc(-c3ccc(Oc4ccc(F)cc4F)cc3)c(C(N)=O)c2N)C1

> <Shape>
0.305

> <Color>
0.104

> <Negative vol penalty>
0.000

$$$$

  -OEChem-04052319563D

 83 91  0     1  0  0  0  0  0999 V2000
  -21.1339  -20.7924   20.3944 C   0  0  0  0  0  0  0  0  0  0  0  0
  -22.4326  -21.0295   20.8332 C   0  0  0  0  0  0  0  0  0  0  0  0
  -26.0625  -13.3530   21.7214 C   0  0  0  0  0  0  0  0  0  0  0  0
  -25.6275  -14.1995   19.5007 C   0  0  0  0  0  0  0  0  0  0  0  0
  -20.5147  -21.6963   19.5322 C   0  0  0  0  0  0  0  0  0  0  0  0
  -23.1133  -22.1703   20.4093 C   0  0  0  0  0  0  0  0  0  0  0  0
  -27.1296  -25.4754   23.6421 C   0  0  0  0  0  0  0  0  0  0  0  0
  -24.9195  -12.5575   21.6421 C   0  0  0  0  0  0  0  0  0  0  0  0
  -24.4845  -13.4040   19.4214 C   0  0  0  0  0  0  0  0  0  0  0  0
  -28.5234  -25.4935   23.6689 C   0  0  0  0  0  0  0  0  0  0  0  0
  -24.0177   -9.6280   20.2146 C   0  0  0  0  0  0  0  0  0  0  0  0
  -24.1195   -8.3029   20.6380 C   0  0  0  0  0  0  0  0  0  0  0  0
  -31.2279  -22.1537   19.6642 C   0  0  0  0  0  0  0  0  0  0  0  0
  -28.5231  -27.3437   22.1209 C   0  0  0  0  0  0  0  0  0  0  0  0
  -22.4173   -8.7047   22.3047 C   0  0  0  0  0  0  0  0  0  0  0  0
  -32.1228  -22.8607   20.4366 C   0  0  0  0  0  0  0  0  0  0  0  0
  -30.7732  -24.3482   19.4463 C   0  0  0  0  0  0  0  0  0  0  0  0
  -26.4165  -14.1741   20.6507 C   0  0  0  0  0  0  0  0  0  0  0  0
  -28.9041  -14.6483   20.3433 C   0  0  0  0  0  0  0  0  0  0  0  0
  -21.1846  -22.8537   19.1052 C   0  0  0  0  0  0  0  0  0  0  0  0
  -26.4211  -26.3858   22.8448 C   0  0  0  0  0  0  0  0  0  0  0  0
  -22.5029  -23.0900   19.5396 C   0  0  0  0  0  0  0  0  0  0  0  0
  -27.1203  -27.3367   22.0878 C   0  0  0  0  0  0  0  0  0  0  0  0
  -30.3740  -23.0947   19.0377 C   0  0  0  0  0  0  0  0  0  0  0  0
  -24.1305  -12.5829   20.4920 C   0  0  0  0  0  0  0  0  0  0  0  0
  -29.2205  -26.4258   22.9060 C   0  0  0  0  0  0  0  0  0  0  0  0
  -23.1157  -10.4916   20.8362 C   0  0  0  0  0  0  0  0  0  0  0  0
  -23.3193   -7.8413   21.6830 C   0  0  0  0  0  0  0  0  0  0  0  0
  -22.3155  -10.0299   21.8813 C   0  0  0  0  0  0  0  0  0  0  0  0
  -27.5968  -14.9965   20.7323 C   0  0  0  0  0  0  0  0  0  0  0  0
  -29.6540  -15.7649   20.6211 C   0  0  0  0  0  0  0  0  0  0  0  0
  -29.3966  -13.4248   19.7809 C   0  0  0  0  0  0  0  0  0  0  0  0
  -24.4211  -26.1321   20.3873 C   0  0  0  0  0  0  0  0  0  0  0  0
  -24.1247  -29.3359   20.8000 C   0  0  0  0  0  0  0  0  0  0  0  0
  -25.4764  -32.2439   21.9675 C   0  0  0  0  0  0  0  0  0  0  0  0
  -28.2935  -21.5770   21.0902 C   0  0  0  0  0  0  0  0  0  0  0  0
  -20.4913  -23.7777   18.1355 C   0  0  0  0  0  0  0  0  0  0  0  0
  -24.9171  -26.3706   22.8476 C   0  0  0  0  0  0  0  0  0  0  0  0
  -26.4063  -28.3488   21.2309 C   0  0  0  0  0  0  0  0  0  0  0  0
  -21.1455  -25.1529   18.0307 C   0  0  0  0  0  0  0  0  0  0  0  0
  -29.8159  -19.5276   23.5719 C   0  0  0  0  0  0  0  0  0  0  0  0
  -22.6583  -25.0152   17.8918 C   0  0  0  0  0  0  0  0  0  0  0  0
  -29.5378  -18.1025   23.0905 C   0  0  0  0  0  0  0  0  0  0  0  0
  -28.6456  -20.4623   23.2743 C   0  0  0  0  0  0  0  0  0  0  0  0
  -27.9291  -19.0517   21.3847 C   0  0  0  0  0  0  0  0  0  0  0  0
  -23.2650  -24.3287   19.1216 C   0  0  1  0  0  0  0  0  0  0  0  0
  -24.3108  -27.0096   21.6020 C   0  0  1  0  0  0  0  0  0  0  0  0
  -29.1034  -18.0847   21.6125 C   0  0  2  0  0  0  0  0  0  0  0  0
  -25.0162  -34.7057   22.1266 C   0  0  0  0  0  0  0  0  0  0  0  0
  -33.4957  -26.3291   23.0783 C   0  0  0  0  0  0  0  0  0  0  0  0
  -24.8214  -29.6546   17.8466 C   0  0  0  0  0  0  0  0  0  0  0  0
  -25.2766  -32.0768   18.2870 C   0  0  0  0  0  0  0  0  0  0  0  0
  -22.9887  -31.1527   18.6536 C   0  0  0  0  0  0  0  0  0  0  0  0
  -25.5330  -32.1811   24.9258 C   0  0  0  0  0  0  0  0  0  0  0  0
  -32.5810  -25.3190   20.9730 C   0  0  0  0  0  0  0  0  0  0  0  0
  -27.9141  -22.5461   18.8372 C   0  0  0  0  0  0  0  0  0  0  0  0
  -31.2443  -25.2034   23.1628 C   0  0  0  0  0  0  0  0  0  1  0  0
  -29.2612  -22.7899   18.1180 C   0  0  2  0  0  0  0  0  0  0  0  0
  -24.8408  -30.5532   20.2669 C   0  0  1  0  0  0  0  0  0  0  0  0
  -24.8908  -33.3569   22.8178 C   0  0  2  0  0  0  0  0  0  0  0  0
  -32.6353  -25.1940   22.5108 C   0  0  2  0  0  0  0  0  0  0  0  0
  -24.4957  -30.8391   18.7781 C   0  0  0  0  0  0  0  0  0  0  0  0
  -27.5173  -16.2373   21.2203 N   0  0  0  0  0  0  0  0  0  0  0  0
  -31.8371  -24.1937   20.2962 N   0  0  0  0  0  0  0  0  0  0  0  0
  -28.7842  -16.6784   21.1398 N   0  0  0  0  0  0  0  0  0  0  0  0
  -24.9355  -28.2896   21.2623 N   0  0  0  0  0  0  0  0  0  0  0  0
  -28.2844  -20.3995   21.8560 N   0  0  0  0  0  0  0  0  0  0  0  0
  -30.9660  -16.0447   20.4700 N   0  0  0  0  0  0  0  0  0  0  0  0
  -28.4906  -12.3785   19.5604 N   0  0  0  0  0  0  0  0  0  0  0  0
  -23.3611  -25.2606   20.2246 N   0  0  0  0  0  0  0  0  0  0  0  0
  -24.5177  -31.6476   21.1759 N   0  0  0  0  0  0  0  0  0  0  0  0
  -27.9447  -21.4279   19.7535 N   0  0  0  0  0  0  0  0  0  0  0  0
  -29.5193  -21.5898   17.2351 N   0  3  0  0  0  0  0  0  0  0  0  0
  -25.5959  -33.4330   24.1285 N   0  3  0  0  0  0  0  0  0  0  0  0
  -30.6073  -13.2584   19.4981 O   0  0  0  0  0  0  0  0  0  0  0  0
  -25.3950  -26.2389   19.6513 O   0  0  0  0  0  0  0  0  0  0  0  0
  -22.8914  -29.3170   20.8127 O   0  0  0  0  0  0  0  0  0  0  0  0
  -26.6660  -31.9370   21.9993 O   0  0  0  0  0  0  0  0  0  0  0  0
  -28.5957  -22.6786   21.5615 O   0  0  0  0  0  0  0  0  0  0  0  0
  -23.0153  -11.8066   20.4142 O   0  0  0  0  0  0  0  0  0  0  0  0
  -30.5809  -26.4453   22.9298 O   0  0  0  0  0  0  0  0  0  1  0  0
  -23.4161   -6.5683   22.0885 F   0  0  0  0  0  0  0  0  0  0  0  0
  -21.4463  -10.8544   22.4816 F   0  0  0  0  0  0  0  0  0  0  0  0
  1  2  1  0  0  0  0
  1  5  2  0  0  0  0
  2  6  2  0  0  0  0
  3  8  2  0  0  0  0
  3 18  1  0  0  0  0
  4  9  1  0  0  0  0
  4 18  2  0  0  0  0
  5 20  1  0  0  0  0
  6 22  1  0  0  0  0
  7 10  2  0  0  0  0
  7 21  1  0  0  0  0
  8 25  1  0  0  0  0
  9 25  2  0  0  0  0
 10 26  1  0  0  0  0
 11 12  2  0  0  0  0
 11 27  1  0  0  0  0
 12 28  1  0  0  0  0
 13 16  2  0  0  0  0
 13 24  1  0  0  0  0
 14 23  1  0  0  0  0
 14 26  2  0  0  0  0
 15 28  2  0  0  0  0
 15 29  1  0  0  0  0
 16 64  1  0  0  0  0
 17 24  2  0  0  0  0
 17 64  1  0  0  0  0
 18 30  1  0  0  0  0
 19 30  1  0  0  0  0
 19 31  2  0  0  0  0
 19 32  1  0  0  0  0
 20 22  2  0  0  0  0
 20 37  1  0  0  0  0
 21 23  2  0  0  0  0
 21 38  1  0  0  0  0
 22 46  1  0  0  0  0
 23 39  1  0  0  0  0
 24 58  1  0  0  0  0
 25 80  1  0  0  0  0
 26 81  1  0  0  0  0
 27 29  2  0  0  0  0
 27 80  1  0  0  0  0
 28 82  1  0  0  0  0
 29 83  1  0  0  0  0
 30 63  2  0  0  0  0
 31 65  1  0  0  0  0
 31 68  1  0  0  0  0
 32 69  1  0  0  0  0
 32 75  2  0  0  0  0
 33 47  1  0  0  0  0
 33 70  1  0  0  0  0
 33 76  2  0  0  0  0
 34 59  1  0  0  0  0
 34 66  1  0  0  0  0
 34 77  2  0  0  0  0
 35 60  1  0  0  0  0
 35 71  1  0  0  0  0
 35 78  2  0  0  0  0
 36 67  1  0  0  0  0
 36 72  1  0  0  0  0
 36 79  2  0  0  0  0
 37 40  1  0  0  0  0
 38 47  1  0  0  0  0
 39 66  1  0  0  0  0
 40 42  1  0  0  0  0
 41 43  1  0  0  0  0
 41 44  1  0  0  0  0
 42 46  1  0  0  0  0
 43 48  1  0  0  0  0
 44 67  1  0  0  0  0
 45 48  1  0  0  0  0
 45 67  1  0  0  0  0
 46 70  1  0  0  0  0
 47 66  1  0  0  0  0
 48 65  1  0  0  0  0
 49 60  1  0  0  0  0
 50 61  1  0  0  0  0
 51 62  1  0  0  0  0
 52 62  1  0  0  0  0
 53 62  1  0  0  0  0
 54 74  1  0  0  0  0
 55 61  1  0  0  0  0
 55 64  1  0  0  0  0
 56 58  1  0  0  0  0
 56 72  1  0  0  0  0
 57 61  1  0  0  0  0
 57 81  1  0  0  0  0
 58 73  1  0  0  0  0
 59 62  1  0  0  0  0
 59 71  1  0  0  0  0
 60 74  1  0  0  0  0
 63 65  1  0  0  0  0
M  CHG  2  73   1  74   1
M  ISO  4  36 100  57 101  72 100  81 101
M  END
> <Batch ID>
0109

> <Smiles>
CNC(C)C(=O)NC(C(=O)N1Cc2cc([101O:1][101CH2:1]C(C)Cn3ccc(C(N)C[100NH:0][100C:0](=O)N4CCCC(n5nc(-c6ccc(Oc7ccc(F)cc7F)cc6)c(C(N)=O)c5N)C4)c3)ccc2CC1C(=O)NC1CCCc2ccccc21)C(C)(C)C

> <Shape>
0.240

> <Color>
0.046

> <Negative vol penalty>
0.000

$$$$

  -OEChem-04052319563D

 82 90  0     1  0  0  0  0  0999 V2000
  -23.4409  -24.1125   26.5260 C   0  0  0  0  0  0  0  0  0  0  0  0
  -23.4569  -22.8571   25.9268 C   0  0  0  0  0  0  0  0  0  0  0  0
  -28.2021  -26.0544   18.0680 C   0  0  0  0  0  0  0  0  0  0  0  0
  -27.2099  -25.4582   20.1886 C   0  0  0  0  0  0  0  0  0  0  0  0
  -22.8912  -25.2000   25.8485 C   0  0  0  0  0  0  0  0  0  0  0  0
  -22.9222  -22.6882   24.6501 C   0  0  0  0  0  0  0  0  0  0  0  0
  -25.8949  -19.8907   21.6531 C   0  0  0  0  0  0  0  0  0  0  0  0
  -27.2506  -27.0614   17.9059 C   0  0  0  0  0  0  0  0  0  0  0  0
  -26.2584  -26.4652   20.0266 C   0  0  0  0  0  0  0  0  0  0  0  0
  -25.8674  -18.5093   21.8395 C   0  0  0  0  0  0  0  0  0  0  0  0
  -26.0999  -29.8215   20.3883 C   0  0  0  0  0  0  0  0  0  0  0  0
  -25.8294  -30.6381   21.4862 C   0  0  0  0  0  0  0  0  0  0  0  0
  -24.3838  -18.2901   19.9500 C   0  0  0  0  0  0  0  0  0  0  0  0
  -23.5191  -29.9325   21.4418 C   0  0  0  0  0  0  0  0  0  0  0  0
  -28.4615  -12.0950   18.8998 C   0  0  0  0  0  0  0  0  0  0  0  0
  -30.1517  -13.0005   19.8239 C   0  0  0  0  0  0  0  0  0  0  0  0
  -28.1817  -25.2527   19.2093 C   0  0  0  0  0  0  0  0  0  0  0  0
  -30.4228  -24.3231   19.9974 C   0  0  0  0  0  0  0  0  0  0  0  0
  -22.3582  -25.0464   24.5590 C   0  0  0  0  0  0  0  0  0  0  0  0
  -25.1571  -20.4843   20.6188 C   0  0  0  0  0  0  0  0  0  0  0  0
  -22.3636  -23.7745   23.9553 C   0  0  0  0  0  0  0  0  0  0  0  0
  -24.4057  -19.6790   19.7511 C   0  0  0  0  0  0  0  0  0  0  0  0
  -26.2788  -27.2668   18.8852 C   0  0  0  0  0  0  0  0  0  0  0  0
  -25.1095  -17.7090   20.9896 C   0  0  0  0  0  0  0  0  0  0  0  0
  -25.0800  -29.0604   19.8170 C   0  0  0  0  0  0  0  0  0  0  0  0
  -24.5390  -30.6936   22.0130 C   0  0  0  0  0  0  0  0  0  0  0  0
  -23.7897  -29.1159   20.3438 C   0  0  0  0  0  0  0  0  0  0  0  0
  -29.1640  -24.2120   19.3770 C   0  0  0  0  0  0  0  0  0  0  0  0
  -28.0023  -13.2796   19.4254 C   0  0  0  0  0  0  0  0  0  0  0  0
  -30.9662  -23.0656   19.8991 C   0  0  0  0  0  0  0  0  0  0  0  0
  -31.0451  -25.4613   20.6081 C   0  0  0  0  0  0  0  0  0  0  0  0
  -22.7731  -22.5822   20.4820 C   0  0  0  0  0  0  0  0  0  0  0  0
  -23.3048  -22.3898   17.2878 C   0  0  0  0  0  0  0  0  0  0  0  0
  -24.5154  -20.5862   14.6557 C   0  0  0  0  0  0  0  0  0  0  0  0
  -29.1640  -17.6131   20.2415 C   0  0  0  0  0  0  0  0  0  0  0  0
  -21.7320  -26.2417   23.8852 C   0  0  0  0  0  0  0  0  0  0  0  0
  -25.2186  -21.9732   20.4146 C   0  0  0  0  0  0  0  0  0  0  0  0
  -23.6121  -20.2650   18.6130 C   0  0  0  0  0  0  0  0  0  0  0  0
  -21.5244  -26.0554   22.3844 C   0  0  0  0  0  0  0  0  0  0  0  0
  -30.2002  -19.1362   17.0336 C   0  0  0  0  0  0  0  0  0  0  0  0
  -20.8987  -24.6943   22.0968 C   0  0  0  0  0  0  0  0  0  0  0  0
  -30.0945  -20.6209   17.3677 C   0  0  0  0  0  0  0  0  0  0  0  0
  -29.1515  -18.3050   17.7712 C   0  0  0  0  0  0  0  0  0  0  0  0
  -29.0609  -19.9965   19.5837 C   0  0  0  0  0  0  0  0  0  0  0  0
  -21.8156  -23.5564   22.5616 C   0  0  1  0  0  0  0  0  0  0  0  0
  -24.0201  -22.5209   19.6460 C   0  0  1  0  0  0  0  0  0  0  0  0
  -30.1414  -20.8374   18.8875 C   0  0  2  0  0  0  0  0  0  0  0  0
  -24.7753  -20.6736   12.1613 C   0  0  0  0  0  0  0  0  0  0  0  0
  -23.4690  -13.3072   19.6257 C   0  0  0  0  0  0  0  0  0  0  0  0
  -20.3386  -21.7546   16.9590 C   0  0  0  0  0  0  0  0  0  0  0  0
  -20.8421  -20.9333   14.6481 C   0  0  0  0  0  0  0  0  0  0  0  0
  -21.2671  -23.3184   15.2424 C   0  0  0  0  0  0  0  0  0  0  0  0
  -27.4654  -20.4389   14.8416 C   0  0  0  0  0  0  0  0  0  0  0  0
  -26.6345  -13.9151   19.4200 C   0  0  0  0  0  0  0  0  0  0  0  0
  -25.7605  -13.5250   20.6201 C   0  0  0  0  0  0  0  0  0  0  0  0
  -24.2829  -15.6011   20.2621 C   0  0  0  0  0  0  0  0  0  1  0  0
  -29.1485  -15.1640   20.7424 C   0  0  0  0  0  0  0  0  0  0  0  0
  -22.7852  -21.5210   16.1680 C   0  0  1  0  0  0  0  0  0  0  0  0
  -25.4250  -20.9725   13.5034 C   0  0  2  0  0  0  0  0  0  0  0  0
  -24.3298  -14.1075   20.6115 C   0  0  1  0  0  0  0  0  0  0  0  0
  -21.3215  -21.8706   15.7769 C   0  0  0  0  0  0  0  0  0  0  0  0
  -29.8002  -11.9270   19.1516 N   0  0  0  0  0  0  0  0  0  0  0  0
  -28.9220  -22.9811   18.9184 N   0  0  0  0  0  0  0  0  0  0  0  0
  -29.0962  -13.8483   20.0146 N   0  0  0  0  0  0  0  0  0  0  0  0
  -30.0363  -22.3073   19.2507 N   0  0  0  0  0  0  0  0  0  0  0  0
  -23.6993  -21.7265   18.4584 N   0  0  0  0  0  0  0  0  0  0  0  0
  -29.1581  -18.5783   19.2171 N   0  0  0  0  0  0  0  0  0  0  0  0
  -32.1441  -22.5455   20.3048 N   0  0  0  0  0  0  0  0  0  0  0  0
  -30.3474  -26.6767   20.6225 N   0  0  0  0  0  0  0  0  0  0  0  0
  -22.8950  -23.3595   21.6179 N   0  0  0  0  0  0  0  0  0  0  0  0
  -23.7425  -21.6485   15.0746 N   0  0  0  0  0  0  0  0  0  0  0  0
  -29.1537  -16.2882   19.8196 N   0  0  0  0  0  0  0  0  0  0  0  0
  -26.7088  -20.2197   13.5821 N   0  3  0  0  0  0  0  0  0  0  0  0
  -32.1930  -25.4063   21.1111 O   0  0  0  0  0  0  0  0  0  0  0  0
  -21.7739  -21.9707   20.1223 O   0  0  0  0  0  0  0  0  0  0  0  0
  -23.3652  -23.6114   17.1273 O   0  0  0  0  0  0  0  0  0  0  0  0
  -24.4901  -19.4543   15.1338 O   0  0  0  0  0  0  0  0  0  0  0  0
  -29.1694  -17.9126   21.4403 O   0  0  0  0  0  0  0  0  0  0  0  0
  -25.3504  -28.2495   18.7275 O   0  0  0  0  0  0  0  0  0  0  0  0
  -25.0804  -16.3605   21.1697 O   0  0  0  0  0  0  0  0  0  1  0  0
  -24.2797  -31.4767   23.0683 F   0  0  0  0  0  0  0  0  0  0  0  0
  -22.8060  -28.3861   19.8001 F   0  0  0  0  0  0  0  0  0  0  0  0
  1  2  1  0  0  0  0
  1  5  2  0  0  0  0
  2  6  2  0  0  0  0
  3  8  2  0  0  0  0
  3 17  1  0  0  0  0
  4  9  1  0  0  0  0
  4 17  2  0  0  0  0
  5 19  1  0  0  0  0
  6 21  1  0  0  0  0
  7 10  2  0  0  0  0
  7 20  1  0  0  0  0
  8 23  1  0  0  0  0
  9 23  2  0  0  0  0
 10 24  1  0  0  0  0
 11 12  2  0  0  0  0
 11 25  1  0  0  0  0
 12 26  1  0  0  0  0
 13 22  1  0  0  0  0
 13 24  2  0  0  0  0
 14 26  2  0  0  0  0
 14 27  1  0  0  0  0
 15 29  2  0  0  0  0
 15 62  1  0  0  0  0
 16 62  2  0  0  0  0
 16 64  1  0  0  0  0
 17 28  1  0  0  0  0
 18 28  1  0  0  0  0
 18 30  2  0  0  0  0
 18 31  1  0  0  0  0
 19 21  2  0  0  0  0
 19 36  1  0  0  0  0
 20 22  2  0  0  0  0
 20 37  1  0  0  0  0
 21 45  1  0  0  0  0
 22 38  1  0  0  0  0
 23 79  1  0  0  0  0
 24 80  1  0  0  0  0
 25 27  2  0  0  0  0
 25 79  1  0  0  0  0
 26 81  1  0  0  0  0
 27 82  1  0  0  0  0
 28 63  2  0  0  0  0
 29 54  1  0  0  0  0
 29 64  1  0  0  0  0
 30 65  1  0  0  0  0
 30 68  1  0  0  0  0
 31 69  1  0  0  0  0
 31 74  2  0  0  0  0
 32 46  1  0  0  0  0
 32 70  1  0  0  0  0
 32 75  2  0  0  0  0
 33 58  1  0  0  0  0
 33 66  1  0  0  0  0
 33 76  2  0  0  0  0
 34 59  1  0  0  0  0
 34 71  1  0  0  0  0
 34 77  2  0  0  0  0
 35 67  1  0  0  0  0
 35 72  1  0  0  0  0
 35 78  2  0  0  0  0
 36 39  1  0  0  0  0
 37 46  1  0  0  0  0
 38 66  1  0  0  0  0
 39 41  1  0  0  0  0
 40 42  1  0  0  0  0
 40 43  1  0  0  0  0
 41 45  1  0  0  0  0
 42 47  1  0  0  0  0
 43 67  1  0  0  0  0
 44 47  1  0  0  0  0
 44 67  1  0  0  0  0
 45 70  1  0  0  0  0
 46 66  1  0  0  0  0
 47 65  1  0  0  0  0
 48 59  1  0  0  0  0
 49 60  1  0  0  0  0
 50 61  1  0  0  0  0
 51 61  1  0  0  0  0
 52 61  1  0  0  0  0
 53 73  1  0  0  0  0
 54 55  1  0  0  0  0
 55 60  1  0  0  0  0
 56 60  1  0  0  0  0
 56 80  1  0  0  0  0
 57 64  1  0  0  0  0
 57 72  1  0  0  0  0
 58 61  1  0  0  0  0
 58 71  1  0  0  0  0
 59 73  1  0  0  0  0
 63 65  1  0  0  0  0
M  CHG  1  73   1
M  ISO  4  35 100  56 101  72 100  80 101
M  END
> <Batch ID>
0109

> <Smiles>
CNC(C)C(=O)NC(C(=O)N1Cc2cc([101O:1][101CH2:1]C(C)CCc3cncn3C[100NH:0][100C:0](=O)N3CCCC(n4nc(-c5ccc(Oc6ccc(F)cc6F)cc5)c(C(N)=O)c4N)C3)ccc2CC1C(=O)NC1CCCc2ccccc21)C(C)(C)C

> <Shape>
0.211

> <Color>
0.057

> <Negative vol penalty>
0.000

$$$$

  -OEChem-04052319563D

 79 86  0     1  0  0  0  0  0999 V2000
  -17.6090  -17.5795   19.1557 C   0  0  0  0  0  0  0  0  0  0  0  0
  -18.8789  -17.0370   19.3240 C   0  0  0  0  0  0  0  0  0  0  0  0
  -23.1970   -9.8537   19.9562 C   0  0  0  0  0  0  0  0  0  0  0  0
  -23.9046   -9.9364   22.2648 C   0  0  0  0  0  0  0  0  0  0  0  0
  -17.0910  -18.4492   20.1145 C   0  0  0  0  0  0  0  0  0  0  0  0
  -19.6321  -17.3648   20.4508 C   0  0  0  0  0  0  0  0  0  0  0  0
  -24.4745  -14.5770   24.9337 C   0  0  0  0  0  0  0  0  0  0  0  0
  -22.5036   -8.6706   20.2111 C   0  0  0  0  0  0  0  0  0  0  0  0
  -23.2112   -8.7533   22.5197 C   0  0  0  0  0  0  0  0  0  0  0  0
  -25.7297  -14.8561   25.4725 C   0  0  0  0  0  0  0  0  0  0  0  0
  -20.8437   -5.4354   20.1710 C   0  0  0  0  0  0  0  0  0  0  0  0
  -20.9769   -4.3933   19.2535 C   0  0  0  0  0  0  0  0  0  0  0  0
  -24.7008  -16.3069   27.1022 C   0  0  0  0  0  0  0  0  0  0  0  0
  -23.3587   -4.3441   19.6551 C   0  0  0  0  0  0  0  0  0  0  0  0
  -23.8975  -10.4867   20.9831 C   0  0  0  0  0  0  0  0  0  0  0  0
  -24.1210  -13.0229   20.8246 C   0  0  0  0  0  0  0  0  0  0  0  0
  -17.8344  -18.7802   21.2583 C   0  0  0  0  0  0  0  0  0  0  0  0
  -23.3222  -15.1703   25.4690 C   0  0  0  0  0  0  0  0  0  0  0  0
  -19.1242  -18.2408   21.4251 C   0  0  0  0  0  0  0  0  0  0  0  0
  -23.4319  -16.0317   26.5699 C   0  0  0  0  0  0  0  0  0  0  0  0
  -22.5107   -8.1203   21.4928 C   0  0  0  0  0  0  0  0  0  0  0  0
  -25.8433  -15.7234   26.5551 C   0  0  0  0  0  0  0  0  0  0  0  0
  -21.9680   -5.9319   20.8306 C   0  0  0  0  0  0  0  0  0  0  0  0
  -22.2344   -3.8477   18.9955 C   0  0  0  0  0  0  0  0  0  0  0  0
  -23.2255   -5.3862   20.5727 C   0  0  0  0  0  0  0  0  0  0  0  0
  -24.6144  -11.7086   20.7203 C   0  0  0  0  0  0  0  0  0  0  0  0
  -25.1840  -13.8177   20.4713 C   0  0  0  0  0  0  0  0  0  0  0  0
  -22.8184  -13.4841   21.2069 C   0  0  0  0  0  0  0  0  0  0  0  0
  -21.0866  -17.1359   24.3544 C   0  0  0  0  0  0  0  0  0  0  0  0
  -29.7237  -14.7457   26.1919 C   0  0  0  0  0  0  0  0  0  0  0  0
  -19.7033  -16.5670   27.2329 C   0  0  0  0  0  0  0  0  0  0  0  0
  -20.0789  -15.6331   30.4938 C   0  0  0  0  0  0  0  0  0  0  0  0
  -30.9471  -14.0537   20.9659 C   0  0  0  0  0  0  0  0  0  0  0  0
  -17.2515  -19.7618   22.2439 C   0  0  0  0  0  0  0  0  0  0  0  0
  -21.9729  -14.8381   24.8934 C   0  0  0  0  0  0  0  0  0  0  0  0
  -22.2236  -16.6786   27.1943 C   0  0  0  0  0  0  0  0  0  0  0  0
  -17.9632  -19.7643   23.5944 C   0  0  0  0  0  0  0  0  0  0  0  0
  -29.3601  -13.1191   17.9189 C   0  0  0  0  0  0  0  0  0  0  0  0
  -19.4759  -19.7963   23.4005 C   0  0  0  0  0  0  0  0  0  0  0  0
  -27.9287  -12.7822   18.3404 C   0  0  0  0  0  0  0  0  0  0  0  0
  -30.3751  -12.6923   18.9770 C   0  0  0  0  0  0  0  0  0  0  0  0
  -28.6777  -12.8698   20.7549 C   0  0  0  0  0  0  0  0  0  0  0  0
  -19.9619  -18.5528   22.6462 C   0  0  1  0  0  0  0  0  0  0  0  0
  -20.9183  -15.8994   25.1914 C   0  0  1  0  0  0  0  0  0  0  0  0
  -27.6136  -13.3317   19.7447 C   0  0  2  0  0  0  0  0  0  0  0  0
  -29.3114  -13.6071   27.0948 C   0  0  0  0  0  0  0  0  0  0  0  0
  -18.7726  -15.2990   32.6102 C   0  0  0  0  0  0  0  0  0  0  0  0
  -27.8774  -18.1084   26.2853 C   0  0  0  0  0  0  0  0  0  0  0  0
  -19.5765  -19.5898   27.6289 C   0  0  0  0  0  0  0  0  0  0  0  0
  -19.1706  -19.1835   30.0657 C   0  0  0  0  0  0  0  0  0  0  0  0
  -17.5348  -18.3533   28.3752 C   0  0  0  0  0  0  0  0  0  0  0  0
  -20.7896  -12.7627   30.6164 C   0  0  0  0  0  0  0  0  0  0  0  0
  -29.4242  -16.1600   26.6614 C   0  0  0  0  0  0  0  0  0  0  0  0
  -30.6818  -15.7953   24.3066 C   0  0  0  0  0  0  0  0  0  0  0  0
  -31.3678  -15.3932   23.0124 C   0  0  0  0  0  0  0  0  0  0  0  0
  -19.7763  -17.2055   28.5989 C   0  0  1  0  0  0  0  0  0  0  0  0
  -19.3154  -14.6403   31.3515 C   0  0  2  0  0  0  0  0  0  0  0  0
  -28.0296  -16.5951   26.2142 C   0  0  1  0  0  0  0  0  0  1  0  0
  -19.0377  -18.5725   28.6544 C   0  0  0  0  0  0  0  0  0  0  0  0
  -25.8914  -11.6666   20.3309 N   0  0  0  0  0  0  0  0  0  0  0  0
  -30.3490  -14.6037   25.0720 N   0  0  0  0  0  0  0  0  0  0  0  0
  -26.2094  -12.9644   20.1874 N   0  0  0  0  0  0  0  0  0  0  0  0
  -20.9270  -16.3273   26.5918 N   0  0  0  0  0  0  0  0  0  0  0  0
  -30.0197  -13.2479   20.2850 N   0  0  0  0  0  0  0  0  0  0  0  0
  -25.3322  -15.1564   20.3787 N   0  0  0  0  0  0  0  0  0  0  0  0
  -21.8438  -12.5332   21.5389 N   0  0  0  0  0  0  0  0  0  0  0  0
  -20.0097  -17.4102   23.5331 N   0  0  0  0  0  0  0  0  0  0  0  0
  -19.2690  -16.2135   29.5407 N   0  0  0  0  0  0  0  0  0  0  0  0
  -30.5281  -14.5449   22.1963 N   0  0  0  0  0  0  0  0  0  0  0  0
  -20.2041  -13.5144   31.7562 N   0  3  0  0  0  0  0  0  0  0  0  0
  -22.5225  -14.7027   21.2369 O   0  0  0  0  0  0  0  0  0  0  0  0
  -22.1166  -17.7933   24.4480 O   0  0  0  0  0  0  0  0  0  0  0  0
  -18.6016  -16.2847   26.7553 O   0  0  0  0  0  0  0  0  0  0  0  0
  -21.2735  -15.8727   30.6556 O   0  0  0  0  0  0  0  0  0  0  0  0
  -32.0637  -14.3203   20.5087 O   0  0  0  0  0  0  0  0  0  0  0  0
  -21.8340   -6.9660   21.7419 O   0  0  0  0  0  0  0  0  0  0  0  0
  -27.0673  -15.9981   27.0825 O   0  0  0  0  0  0  0  0  0  1  0  0
  -22.3619   -2.8459   18.1155 F   0  0  0  0  0  0  0  0  0  0  0  0
  -24.3092   -5.8582   21.2042 F   0  0  0  0  0  0  0  0  0  0  0  0
  1  2  1  0  0  0  0
  1  5  2  0  0  0  0
  2  6  2  0  0  0  0
  3  8  2  0  0  0  0
  3 15  1  0  0  0  0
  4  9  1  0  0  0  0
  4 15  2  0  0  0  0
  5 17  1  0  0  0  0
  6 19  1  0  0  0  0
  7 10  2  0  0  0  0
  7 18  1  0  0  0  0
  8 21  1  0  0  0  0
  9 21  2  0  0  0  0
 10 22  1  0  0  0  0
 11 12  2  0  0  0  0
 11 23  1  0  0  0  0
 12 24  1  0  0  0  0
 13 20  1  0  0  0  0
 13 22  2  0  0  0  0
 14 24  2  0  0  0  0
 14 25  1  0  0  0  0
 15 26  1  0  0  0  0
 16 26  1  0  0  0  0
 16 27  2  0  0  0  0
 16 28  1  0  0  0  0
 17 19  2  0  0  0  0
 17 34  1  0  0  0  0
 18 20  2  0  0  0  0
 18 35  1  0  0  0  0
 19 43  1  0  0  0  0
 20 36  1  0  0  0  0
 21 76  1  0  0  0  0
 22 77  1  0  0  0  0
 23 25  2  0  0  0  0
 23 76  1  0  0  0  0
 24 78  1  0  0  0  0
 25 79  1  0  0  0  0
 26 60  2  0  0  0  0
 27 62  1  0  0  0  0
 27 65  1  0  0  0  0
 28 66  1  0  0  0  0
 28 71  2  0  0  0  0
 29 44  1  0  0  0  0
 29 67  1  0  0  0  0
 29 72  2  0  0  0  0
 30 46  1  0  0  0  0
 30 53  1  0  0  0  0
 30 61  2  0  0  0  0
 31 56  1  0  0  0  0
 31 63  1  0  0  0  0
 31 73  2  0  0  0  0
 32 57  1  0  0  0  0
 32 68  1  0  0  0  0
 32 74  2  0  0  0  0
 33 64  1  0  0  0  0
 33 69  1  0  0  0  0
 33 75  2  0  0  0  0
 34 37  1  0  0  0  0
 35 44  1  0  0  0  0
 36 63  1  0  0  0  0
 37 39  1  0  0  0  0
 38 40  1  0  0  0  0
 38 41  1  0  0  0  0
 39 43  1  0  0  0  0
 40 45  1  0  0  0  0
 41 64  1  0  0  0  0
 42 45  1  0  0  0  0
 42 64  1  0  0  0  0
 43 67  1  0  0  0  0
 44 63  1  0  0  0  0
 45 62  1  0  0  0  0
 47 57  1  0  0  0  0
 48 58  1  0  0  0  0
 49 59  1  0  0  0  0
 50 59  1  0  0  0  0
 51 59  1  0  0  0  0
 52 70  1  0  0  0  0
 53 58  1  0  0  0  0
 54 55  1  0  0  0  0
 54 61  1  0  0  0  0
 55 69  1  0  0  0  0
 56 59  1  0  0  0  0
 56 68  1  0  0  0  0
 57 70  1  0  0  0  0
 58 77  1  0  0  0  0
 60 62  1  0  0  0  0
M  CHG  1  70   1
M  ISO  4  33 100  58 101  69 100  77 101
M  END
> <Batch ID>
0109

> <Smiles>
CNC(C)C(=O)NC(C(=O)N1Cc2cc([101O:1][101CH:1](C)CC(C)=NCC[100NH:0][100C:0](=O)N3CCCC(n4nc(-c5ccc(Oc6ccc(F)cc6F)cc5)c(C(N)=O)c4N)C3)ccc2CC1C(=O)NC1CCCc2ccccc21)C(C)(C)C

> <Shape>
0.139

> <Color>
0.193

> <Negative vol penalty>
0.000

$$$$

  -OEChem-04052319563D

 85 93  0     1  0  0  0  0  0999 V2000
  -25.8009  -15.2614   18.5186 C   0  0  0  0  0  0  0  0  0  0  0  0
  -25.3634  -16.5797   18.4404 C   0  0  0  0  0  0  0  0  0  0  0  0
  -28.0351  -17.5453   20.9769 C   0  0  0  0  0  0  0  0  0  0  0  0
  -30.2784  -18.2265   21.5605 C   0  0  0  0  0  0  0  0  0  0  0  0
  -24.9952  -14.2952   19.1195 C   0  0  0  0  0  0  0  0  0  0  0  0
  -24.1193  -16.9323   18.9623 C   0  0  0  0  0  0  0  0  0  0  0  0
  -24.2887  -21.2112   21.6656 C   0  0  0  0  0  0  0  0  0  0  0  0
  -28.4074  -16.2074   21.1073 C   0  0  0  0  0  0  0  0  0  0  0  0
  -30.6507  -16.8885   21.6910 C   0  0  0  0  0  0  0  0  0  0  0  0
  -24.3234  -22.4112   20.9567 C   0  0  0  0  0  0  0  0  0  0  0  0
  -30.0653  -13.8945   19.2833 C   0  0  0  0  0  0  0  0  0  0  0  0
  -29.6532  -13.0080   18.2885 C   0  0  0  0  0  0  0  0  0  0  0  0
  -21.9591  -22.6989   21.3397 C   0  0  0  0  0  0  0  0  0  0  0  0
  -26.4249  -27.3733   19.2141 C   0  0  0  0  0  0  0  0  0  0  0  0
  -28.4494  -11.7166   19.9378 C   0  0  0  0  0  0  0  0  0  0  0  0
  -25.6147  -28.4015   21.0461 C   0  0  0  0  0  0  0  0  0  0  0  0
  -28.9707  -18.5548   21.2034 C   0  0  0  0  0  0  0  0  0  0  0  0
  -28.0705  -20.7780   22.0723 C   0  0  0  0  0  0  0  0  0  0  0  0
  -23.7448  -14.6380   19.6576 C   0  0  0  0  0  0  0  0  0  0  0  0
  -23.0847  -20.7398   22.2084 C   0  0  0  0  0  0  0  0  0  0  0  0
  -23.2955  -15.9695   19.5698 C   0  0  0  0  0  0  0  0  0  0  0  0
  -21.9123  -21.4939   22.0572 C   0  0  0  0  0  0  0  0  0  0  0  0
  -25.3345  -27.4238   20.1171 C   0  0  0  0  0  0  0  0  0  0  0  0
  -29.7152  -15.8790   21.4644 C   0  0  0  0  0  0  0  0  0  0  0  0
  -23.1579  -23.1538   20.7912 C   0  0  0  0  0  0  0  0  0  0  0  0
  -29.6695  -13.6921   20.6055 C   0  0  0  0  0  0  0  0  0  0  0  0
  -28.8452  -11.9190   18.6157 C   0  0  0  0  0  0  0  0  0  0  0  0
  -28.8616  -12.6032   20.9327 C   0  0  0  0  0  0  0  0  0  0  0  0
  -28.5868  -19.9370   21.0683 C   0  0  0  0  0  0  0  0  0  0  0  0
  -27.3384  -28.3215   19.6188 C   0  0  0  0  0  0  0  0  0  0  0  0
  -27.8698  -21.9818   21.4422 C   0  0  0  0  0  0  0  0  0  0  0  0
  -27.7968  -20.4962   23.4512 C   0  0  0  0  0  0  0  0  0  0  0  0
  -21.2889  -18.1533   21.7737 C   0  0  0  0  0  0  0  0  0  0  0  0
  -19.6040  -19.3828   24.2580 C   0  0  0  0  0  0  0  0  0  0  0  0
  -18.7227  -22.1274   26.0850 C   0  0  0  0  0  0  0  0  0  0  0  0
  -29.5944  -26.0178   17.9952 C   0  0  0  0  0  0  0  0  0  0  0  0
  -22.8887  -13.5497   20.2554 C   0  0  0  0  0  0  0  0  0  0  0  0
  -23.0693  -19.4567   22.9933 C   0  0  0  0  0  0  0  0  0  0  0  0
  -20.5982  -21.0417   22.6378 C   0  0  0  0  0  0  0  0  0  0  0  0
  -21.7458  -14.0786   21.1182 C   0  0  0  0  0  0  0  0  0  0  0  0
  -28.0010  -23.1899   16.5320 C   0  0  0  0  0  0  0  0  0  0  0  0
  -21.0198  -15.2147   20.4047 C   0  0  0  0  0  0  0  0  0  0  0  0
  -27.9745  -22.1595   17.6623 C   0  0  0  0  0  0  0  0  0  0  0  0
  -29.2797  -24.0243   16.5588 C   0  0  0  0  0  0  0  0  0  0  0  0
  -29.5400  -23.6464   18.9802 C   0  0  0  0  0  0  0  0  0  0  0  0
  -21.9629  -16.3959   20.1465 C   0  0  1  0  0  0  0  0  0  0  0  0
  -21.6868  -18.8153   23.0626 C   0  0  1  0  0  0  0  0  0  0  0  0
  -28.2444  -22.8185   19.0283 C   0  0  2  0  0  0  0  0  0  0  0  0
  -26.8788  -31.3623   21.1748 C   0  0  0  0  0  0  0  0  0  0  0  0
  -17.3006  -22.8245   28.0315 C   0  0  0  0  0  0  0  0  0  0  0  0
  -17.1120  -19.1706   22.5102 C   0  0  0  0  0  0  0  0  0  0  0  0
  -15.9506  -20.7180   24.0993 C   0  0  0  0  0  0  0  0  0  0  0  0
  -16.7729  -18.5017   24.8960 C   0  0  0  0  0  0  0  0  0  0  0  0
  -30.0857  -28.1183   21.0756 C   0  0  0  0  0  0  0  0  0  0  0  0
  -31.1625  -28.4287   18.8449 C   0  0  0  0  0  0  0  0  0  0  0  0
  -21.0722  -23.0889   27.6063 C   0  0  0  0  0  0  0  0  0  0  0  0
  -28.6459  -28.6878   19.0361 C   0  0  0  0  0  0  0  0  0  0  0  0
  -27.4794  -30.0003   21.4777 C   0  0  0  0  0  0  0  0  0  0  0  0
  -24.4066  -25.0683   20.1343 C   0  0  0  0  0  0  0  0  0  1  0  0
  -24.0923  -26.5646   20.0707 C   0  0  2  0  0  0  0  0  0  0  0  0
  -18.4401  -20.3347   24.3935 C   0  0  1  0  0  0  0  0  0  0  0  0
  -18.6805  -22.3691   27.5831 C   0  0  2  0  0  0  0  0  0  0  0  0
  -17.0931  -19.6891   23.9620 C   0  0  0  0  0  0  0  0  0  0  0  0
  -29.9033  -27.9158   19.5640 C   0  0  0  0  0  0  0  0  0  0  0  0
  -28.7065  -20.5543   19.8899 N   0  0  0  0  0  0  0  0  0  0  0  0
  -26.8355  -28.9402   20.7335 N   0  0  0  0  0  0  0  0  0  0  0  0
  -28.2625  -21.7959   20.1494 N   0  0  0  0  0  0  0  0  0  0  0  0
  -20.6331  -19.7775   23.3915 N   0  0  0  0  0  0  0  0  0  0  0  0
  -29.4763  -24.6228   17.8813 N   0  0  0  0  0  0  0  0  0  0  0  0
  -27.3973  -23.1706   21.8734 N   0  0  0  0  0  0  0  0  0  0  0  0
  -28.0613  -19.2077   23.9351 N   0  0  0  0  0  0  0  0  0  0  0  0
  -22.1574  -17.1618   21.3589 N   0  0  0  0  0  0  0  0  0  0  0  0
  -18.4601  -20.8103   25.7726 N   0  0  0  0  0  0  0  0  0  0  0  0
  -29.7722  -26.5031   19.2850 N   0  0  0  0  0  0  0  0  0  0  0  0
  -23.2727  -26.8180   18.8423 N   0  3  0  0  0  0  0  0  0  0  0  0
  -19.6688  -23.4166   27.9668 N   0  3  0  0  0  0  0  0  0  0  0  0
  -27.3160  -21.3566   24.2271 O   0  0  0  0  0  0  0  0  0  0  0  0
  -20.2685  -18.5143   21.1990 O   0  0  0  0  0  0  0  0  0  0  0  0
  -19.6034  -18.3313   24.9029 O   0  0  0  0  0  0  0  0  0  0  0  0
  -18.9608  -23.0186   25.2729 O   0  0  0  0  0  0  0  0  0  0  0  0
  -29.5397  -26.7751   17.0203 O   0  0  0  0  0  0  0  0  0  0  0  0
  -30.0788  -14.5736   21.5920 O   0  0  0  0  0  0  0  0  0  0  0  0
  -23.1889  -24.3252   20.0991 O   0  0  0  0  0  0  0  0  0  1  0  0
  -28.4483  -11.0686   17.6599 F   0  0  0  0  0  0  0  0  0  0  0  0
  -28.4771  -12.4042   22.2010 F   0  0  0  0  0  0  0  0  0  0  0  0
  1  2  1  0  0  0  0
  1  5  2  0  0  0  0
  2  6  2  0  0  0  0
  3  8  2  0  0  0  0
  3 17  1  0  0  0  0
  4  9  1  0  0  0  0
  4 17  2  0  0  0  0
  5 19  1  0  0  0  0
  6 21  1  0  0  0  0
  7 10  2  0  0  0  0
  7 20  1  0  0  0  0
  8 24  1  0  0  0  0
  9 24  2  0  0  0  0
 10 25  1  0  0  0  0
 11 12  2  0  0  0  0
 11 26  1  0  0  0  0
 12 27  1  0  0  0  0
 13 22  1  0  0  0  0
 13 25  2  0  0  0  0
 14 23  1  0  0  0  0
 14 30  2  0  0  0  0
 15 27  2  0  0  0  0
 15 28  1  0  0  0  0
 16 23  2  0  0  0  0
 16 66  1  0  0  0  0
 17 29  1  0  0  0  0
 18 29  1  0  0  0  0
 18 31  2  0  0  0  0
 18 32  1  0  0  0  0
 19 21  2  0  0  0  0
 19 37  1  0  0  0  0
 20 22  2  0  0  0  0
 20 38  1  0  0  0  0
 21 46  1  0  0  0  0
 22 39  1  0  0  0  0
 23 60  1  0  0  0  0
 24 82  1  0  0  0  0
 25 83  1  0  0  0  0
 26 28  2  0  0  0  0
 26 82  1  0  0  0  0
 27 84  1  0  0  0  0
 28 85  1  0  0  0  0
 29 65  2  0  0  0  0
 30 57  1  0  0  0  0
 30 66  1  0  0  0  0
 31 67  1  0  0  0  0
 31 70  1  0  0  0  0
 32 71  1  0  0  0  0
 32 77  2  0  0  0  0
 33 47  1  0  0  0  0
 33 72  1  0  0  0  0
 33 78  2  0  0  0  0
 34 61  1  0  0  0  0
 34 68  1  0  0  0  0
 34 79  2  0  0  0  0
 35 62  1  0  0  0  0
 35 73  1  0  0  0  0
 35 80  2  0  0  0  0
 36 69  1  0  0  0  0
 36 74  1  0  0  0  0
 36 81  2  0  0  0  0
 37 40  1  0  0  0  0
 38 47  1  0  0  0  0
 39 68  1  0  0  0  0
 40 42  1  0  0  0  0
 41 43  1  0  0  0  0
 41 44  1  0  0  0  0
 42 46  1  0  0  0  0
 43 48  1  0  0  0  0
 44 69  1  0  0  0  0
 45 48  1  0  0  0  0
 45 69  1  0  0  0  0
 46 72  1  0  0  0  0
 47 68  1  0  0  0  0
 48 67  1  0  0  0  0
 49 58  1  0  0  0  0
 50 62  1  0  0  0  0
 51 63  1  0  0  0  0
 52 63  1  0  0  0  0
 53 63  1  0  0  0  0
 54 64  1  0  0  0  0
 55 64  1  0  0  0  0
 56 76  1  0  0  0  0
 57 64  1  0  0  0  0
 58 66  1  0  0  0  0
 59 60  1  0  0  0  0
 59 83  1  0  0  0  0
 60 75  1  0  0  0  0
 61 63  1  0  0  0  0
 61 73  1  0  0  0  0
 62 76  1  0  0  0  0
 64 74  1  0  0  0  0
 65 67  1  0  0  0  0
M  CHG  2  75   1  76   1
M  ISO  4  36 100  59 101  74 100  83 101
M  END
> <Batch ID>
0109

> <Smiles>
CCn1cc(C(N)[101CH2:1][101O:1]c2ccc3c(c2)CN(C(=O)C(NC(=O)C(C)NC)C(C)(C)C)C(C(=O)NC2CCCc4ccccc42)C3)cc1CC(C)(C)[100NH:0][100C:0](=O)N1CCCC(n2nc(-c3ccc(Oc4ccc(F)cc4F)cc3)c(C(N)=O)c2N)C1

> <Shape>
0.203

> <Color>
0.046

> <Negative vol penalty>
0.000

$$$$

  -OEChem-04052319563D

 81 88  0     1  0  0  0  0  0999 V2000
  -24.2555   -6.7514   24.1802 C   0  0  0  0  0  0  0  0  0  0  0  0
  -25.4548   -7.3882   23.8771 C   0  0  0  0  0  0  0  0  0  0  0  0
  -26.9309  -29.3623   19.2371 C   0  0  0  0  0  0  0  0  0  0  0  0
  -27.6790  -29.2684   21.5325 C   0  0  0  0  0  0  0  0  0  0  0  0
  -23.1100   -7.0349   23.4376 C   0  0  0  0  0  0  0  0  0  0  0  0
  -25.5094   -8.3080   22.8306 C   0  0  0  0  0  0  0  0  0  0  0  0
  -28.9356  -13.3769   22.5596 C   0  0  0  0  0  0  0  0  0  0  0  0
  -26.0348  -30.3778   19.5707 C   0  0  0  0  0  0  0  0  0  0  0  0
  -26.7830  -30.2840   21.8660 C   0  0  0  0  0  0  0  0  0  0  0  0
  -30.1586  -13.6509   21.9489 C   0  0  0  0  0  0  0  0  0  0  0  0
  -24.4389  -32.6023   23.3960 C   0  0  0  0  0  0  0  0  0  0  0  0
  -23.6820  -32.4437   24.5569 C   0  0  0  0  0  0  0  0  0  0  0  0
  -28.9955  -14.5538   20.0382 C   0  0  0  0  0  0  0  0  0  0  0  0
  -22.7157  -30.4232   23.6507 C   0  0  0  0  0  0  0  0  0  0  0  0
  -27.7530  -28.8075   20.2180 C   0  0  0  0  0  0  0  0  0  0  0  0
  -30.0113  -27.9065   19.4461 C   0  0  0  0  0  0  0  0  0  0  0  0
  -23.1484   -7.9659   22.3876 C   0  0  0  0  0  0  0  0  0  0  0  0
  -27.7312  -13.6799   21.9084 C   0  0  0  0  0  0  0  0  0  0  0  0
  -24.3637   -8.6032   22.0724 C   0  0  0  0  0  0  0  0  0  0  0  0
  -27.7585  -14.2850   20.6438 C   0  0  0  0  0  0  0  0  0  0  0  0
  -25.9609  -30.8387   20.8851 C   0  0  0  0  0  0  0  0  0  0  0  0
  -30.1887  -14.2367   20.6868 C   0  0  0  0  0  0  0  0  0  0  0  0
  -24.3341  -31.6714   22.3625 C   0  0  0  0  0  0  0  0  0  0  0  0
  -22.8204  -31.3542   24.6843 C   0  0  0  0  0  0  0  0  0  0  0  0
  -23.4725  -30.5819   22.4898 C   0  0  0  0  0  0  0  0  0  0  0  0
  -28.6784  -27.7580   19.8742 C   0  0  0  0  0  0  0  0  0  0  0  0
  -30.4541  -26.6212   19.2501 C   0  0  0  0  0  0  0  0  0  0  0  0
  -30.7803  -29.0995   19.2437 C   0  0  0  0  0  0  0  0  0  0  0  0
  -25.2551  -11.9804   20.8671 C   0  0  0  0  0  0  0  0  0  0  0  0
  -24.0063  -14.9085   20.2431 C   0  0  0  0  0  0  0  0  0  0  0  0
  -30.9893  -18.1239   21.1945 C   0  0  0  0  0  0  0  0  0  0  0  0
  -24.5546  -18.2154   19.6022 C   0  0  0  0  0  0  0  0  0  0  0  0
  -28.7850  -21.4805   21.6257 C   0  0  0  0  0  0  0  0  0  0  0  0
  -21.8955   -8.2044   21.5827 C   0  0  0  0  0  0  0  0  0  0  0  0
  -26.4204  -13.4026   22.5921 C   0  0  0  0  0  0  0  0  0  0  0  0
  -26.4938  -14.6484   19.9111 C   0  0  0  0  0  0  0  0  0  0  0  0
  -21.9503   -9.4700   20.7311 C   0  0  0  0  0  0  0  0  0  0  0  0
  -28.8780  -22.2531   18.0913 C   0  0  0  0  0  0  0  0  0  0  0  0
  -23.2775   -9.5534   19.9836 C   0  0  0  0  0  0  0  0  0  0  0  0
  -28.9649  -23.7801   18.1159 C   0  0  0  0  0  0  0  0  0  0  0  0
  -27.9719  -21.7330   19.2033 C   0  0  0  0  0  0  0  0  0  0  0  0
  -28.4419  -23.7096   20.5981 C   0  0  0  0  0  0  0  0  0  0  0  0
  -24.4572   -9.6255   20.9605 C   0  0  1  0  0  0  0  0  0  0  0  0
  -25.2524  -13.2818   21.6182 C   0  0  1  0  0  0  0  0  0  0  0  0
  -29.3615  -24.2964   19.5118 C   0  0  2  0  0  0  0  0  0  0  0  0
  -24.0077  -20.6323   19.2065 C   0  0  0  0  0  0  0  0  0  0  0  0
  -34.0157  -15.0513   18.9419 C   0  0  0  0  0  0  0  0  0  0  0  0
  -23.5262  -13.9564   17.3843 C   0  0  0  0  0  0  0  0  0  0  0  0
  -23.2194  -16.3488   16.7131 C   0  0  0  0  0  0  0  0  0  0  0  0
  -21.6622  -15.3080   18.3606 C   0  0  0  0  0  0  0  0  0  0  0  0
  -33.3106  -18.0207   22.1670 C   0  0  0  0  0  0  0  0  0  0  0  0
  -24.6219  -18.8248   22.4976 C   0  0  0  0  0  0  0  0  0  0  0  0
  -30.5609  -18.8171   22.4841 C   0  0  0  0  0  0  0  0  0  0  0  0
  -29.0814  -19.1843   22.5182 C   0  0  0  0  0  0  0  0  0  0  0  0
  -32.8700  -17.0934   19.9271 C   0  0  0  0  0  0  0  0  0  0  0  0
  -32.4853  -14.7988   20.9429 C   0  0  0  0  0  0  0  0  0  1  0  0
  -24.0289  -15.8513   19.0643 C   0  0  1  0  0  0  0  0  0  0  0  0
  -23.9323  -19.4711   20.1856 C   0  0  2  0  0  0  0  0  0  0  0  0
  -33.4773  -15.7136   20.2147 C   0  0  1  0  0  0  0  0  0  0  0  0
  -23.1332  -15.3576   17.8933 C   0  0  0  0  0  0  0  0  0  0  0  0
  -28.2993  -26.4793   19.9460 N   0  0  0  0  0  0  0  0  0  0  0  0
  -29.4005  -25.8125   19.5603 N   0  0  0  0  0  0  0  0  0  0  0  0
  -25.2371  -14.3517   20.6185 N   0  0  0  0  0  0  0  0  0  0  0  0
  -28.4147  -22.2460   20.5075 N   0  0  0  0  0  0  0  0  0  0  0  0
  -31.6380  -26.1151   18.8443 N   0  0  0  0  0  0  0  0  0  0  0  0
  -30.1713  -30.3371   19.4921 N   0  0  0  0  0  0  0  0  0  0  0  0
  -24.5793  -10.9596   21.5080 N   0  0  0  0  0  0  0  0  0  0  0  0
  -23.6625  -17.1641   19.5846 N   0  0  0  0  0  0  0  0  0  0  0  0
  -28.7250  -20.1023   21.4594 N   0  0  0  0  0  0  0  0  0  0  0  0
  -32.3453  -17.7544   21.0913 N   0  0  0  0  0  0  0  0  0  0  0  0
  -24.6380  -19.8655   21.4376 N   0  3  0  0  0  0  0  0  0  0  0  0
  -31.9671  -29.0695   18.8385 O   0  0  0  0  0  0  0  0  0  0  0  0
  -25.8266  -11.9082   19.7855 O   0  0  0  0  0  0  0  0  0  0  0  0
  -22.9371  -14.6802   20.8145 O   0  0  0  0  0  0  0  0  0  0  0  0
  -30.1706  -17.9052   20.2978 O   0  0  0  0  0  0  0  0  0  0  0  0
  -25.7147  -18.1724   19.1989 O   0  0  0  0  0  0  0  0  0  0  0  0
  -29.1479  -21.9879   22.6925 O   0  0  0  0  0  0  0  0  0  0  0  0
  -25.0868  -31.8299   21.2109 O   0  0  0  0  0  0  0  0  0  0  0  0
  -31.3811  -14.5046   20.0882 O   0  0  0  0  0  0  0  0  0  1  0  0
  -22.0948  -31.2011   25.7997 F   0  0  0  0  0  0  0  0  0  0  0  0
  -23.3685  -29.6837   21.5008 F   0  0  0  0  0  0  0  0  0  0  0  0
  1  2  1  0  0  0  0
  1  5  2  0  0  0  0
  2  6  2  0  0  0  0
  3  8  2  0  0  0  0
  3 15  1  0  0  0  0
  4  9  1  0  0  0  0
  4 15  2  0  0  0  0
  5 17  1  0  0  0  0
  6 19  1  0  0  0  0
  7 10  2  0  0  0  0
  7 18  1  0  0  0  0
  8 21  1  0  0  0  0
  9 21  2  0  0  0  0
 10 22  1  0  0  0  0
 11 12  2  0  0  0  0
 11 23  1  0  0  0  0
 12 24  1  0  0  0  0
 13 20  1  0  0  0  0
 13 22  2  0  0  0  0
 14 24  2  0  0  0  0
 14 25  1  0  0  0  0
 15 26  1  0  0  0  0
 16 26  1  0  0  0  0
 16 27  2  0  0  0  0
 16 28  1  0  0  0  0
 17 19  2  0  0  0  0
 17 34  1  0  0  0  0
 18 20  2  0  0  0  0
 18 35  1  0  0  0  0
 19 43  1  0  0  0  0
 20 36  1  0  0  0  0
 21 78  1  0  0  0  0
 22 79  1  0  0  0  0
 23 25  2  0  0  0  0
 23 78  1  0  0  0  0
 24 80  1  0  0  0  0
 25 81  1  0  0  0  0
 26 61  2  0  0  0  0
 27 62  1  0  0  0  0
 27 65  1  0  0  0  0
 28 66  1  0  0  0  0
 28 72  2  0  0  0  0
 29 44  1  0  0  0  0
 29 67  1  0  0  0  0
 29 73  2  0  0  0  0
 30 57  1  0  0  0  0
 30 63  1  0  0  0  0
 30 74  2  0  0  0  0
 31 53  1  0  0  0  0
 31 70  1  0  0  0  0
 31 75  2  0  0  0  0
 32 58  1  0  0  0  0
 32 68  1  0  0  0  0
 32 76  2  0  0  0  0
 33 64  1  0  0  0  0
 33 69  1  0  0  0  0
 33 77  2  0  0  0  0
 34 37  1  0  0  0  0
 35 44  1  0  0  0  0
 36 63  1  0  0  0  0
 37 39  1  0  0  0  0
 38 40  1  0  0  0  0
 38 41  1  0  0  0  0
 39 43  1  0  0  0  0
 40 45  1  0  0  0  0
 41 64  1  0  0  0  0
 42 45  1  0  0  0  0
 42 64  1  0  0  0  0
 43 67  1  0  0  0  0
 44 63  1  0  0  0  0
 45 62  1  0  0  0  0
 46 58  1  0  0  0  0
 47 59  1  0  0  0  0
 48 60  1  0  0  0  0
 49 60  1  0  0  0  0
 50 60  1  0  0  0  0
 51 70  1  0  0  0  0
 52 71  1  0  0  0  0
 53 54  1  0  0  0  0
 54 69  1  0  0  0  0
 55 59  1  0  0  0  0
 55 70  1  0  0  0  0
 56 59  1  0  0  0  0
 56 79  1  0  0  0  0
 57 60  1  0  0  0  0
 57 68  1  0  0  0  0
 58 71  1  0  0  0  0
 61 62  1  0  0  0  0
M  CHG  1  71   1
M  ISO  4  33 100  56 101  69 100  79 101
M  END
> <Batch ID>
0109

> <Smiles>
CNC(C)C(=O)NC(C(=O)N1Cc2cc([101O:1][101CH2:1]C(C)CN(C)C(=O)CC[100NH:0][100C:0](=O)N3CCCC(n4nc(-c5ccc(Oc6ccc(F)cc6F)cc5)c(C(N)=O)c4N)C3)ccc2CC1C(=O)NC1CCCc2ccccc21)C(C)(C)C

> <Shape>
0.277

> <Color>
0.099

> <Negative vol penalty>
0.000

$$$$

  -OEChem-04052319563D

 84 92  0     1  0  0  0  0  0999 V2000
  -31.1834  -32.4695   17.0314 C   0  0  0  0  0  0  0  0  0  0  0  0
  -30.7770  -31.3533   17.7555 C   0  0  0  0  0  0  0  0  0  0  0  0
  -25.6510   -9.3506   21.7592 C   0  0  0  0  0  0  0  0  0  0  0  0
  -25.0347  -10.8925   23.5141 C   0  0  0  0  0  0  0  0  0  0  0  0
  -30.7876  -33.7436   17.4362 C   0  0  0  0  0  0  0  0  0  0  0  0
  -29.9754  -31.5106   18.8855 C   0  0  0  0  0  0  0  0  0  0  0  0
  -26.1468  -28.1991   19.0281 C   0  0  0  0  0  0  0  0  0  0  0  0
  -25.6884   -8.3097   22.6869 C   0  0  0  0  0  0  0  0  0  0  0  0
  -25.0721   -9.8516   24.4418 C   0  0  0  0  0  0  0  0  0  0  0  0
  -26.4451  -26.8978   19.4298 C   0  0  0  0  0  0  0  0  0  0  0  0
  -23.4738   -6.3126   24.2807 C   0  0  0  0  0  0  0  0  0  0  0  0
  -22.8680   -5.1070   23.9271 C   0  0  0  0  0  0  0  0  0  0  0  0
  -25.6103  -27.3946   21.6379 C   0  0  0  0  0  0  0  0  0  0  0  0
  -28.3170  -21.0148   23.5838 C   0  0  0  0  0  0  0  0  0  0  0  0
  -27.5119  -18.7624   23.3335 C   0  0  0  0  0  0  0  0  0  0  0  0
  -24.9852   -3.9701   24.1762 C   0  0  0  0  0  0  0  0  0  0  0  0
  -25.3242  -10.6420   22.1728 C   0  0  0  0  0  0  0  0  0  0  0  0
  -24.1788  -12.1405   20.4551 C   0  0  0  0  0  0  0  0  0  0  0  0
  -29.9728  -33.9160   18.5662 C   0  0  0  0  0  0  0  0  0  0  0  0
  -25.5871  -29.1127   19.9329 C   0  0  0  0  0  0  0  0  0  0  0  0
  -29.5695  -32.7884   19.3067 C   0  0  0  0  0  0  0  0  0  0  0  0
  -25.3035  -28.7061   21.2445 C   0  0  0  0  0  0  0  0  0  0  0  0
  -27.4908  -19.9792   24.0059 C   0  0  0  0  0  0  0  0  0  0  0  0
  -25.3989   -8.5602   24.0282 C   0  0  0  0  0  0  0  0  0  0  0  0
  -26.1796  -26.4962   20.7357 C   0  0  0  0  0  0  0  0  0  0  0  0
  -24.8353   -6.3470   24.5821 C   0  0  0  0  0  0  0  0  0  0  0  0
  -23.6237   -3.9357   23.8748 C   0  0  0  0  0  0  0  0  0  0  0  0
  -25.5910   -5.1758   24.5298 C   0  0  0  0  0  0  0  0  0  0  0  0
  -25.2859  -11.7178   21.2150 C   0  0  0  0  0  0  0  0  0  0  0  0
  -29.1394  -20.7848   22.4927 C   0  0  0  0  0  0  0  0  0  0  0  0
  -28.3701  -18.6332   22.2534 C   0  0  0  0  0  0  0  0  0  0  0  0
  -24.6568  -13.1869   19.7047 C   0  0  0  0  0  0  0  0  0  0  0  0
  -22.8382  -11.6327   20.4299 C   0  0  0  0  0  0  0  0  0  0  0  0
  -26.5008  -31.8980   21.1622 C   0  0  0  0  0  0  0  0  0  0  0  0
  -23.5174  -31.8715   22.4355 C   0  0  0  0  0  0  0  0  0  0  0  0
  -20.8125  -30.0495   23.4408 C   0  0  0  0  0  0  0  0  0  0  0  0
  -29.1610  -17.0377   20.4715 C   0  0  0  0  0  0  0  0  0  0  0  0
  -29.6095  -35.3163   18.9925 C   0  0  0  0  0  0  0  0  0  0  0  0
  -25.2464  -30.5048   19.4765 C   0  0  0  0  0  0  0  0  0  0  0  0
  -24.6845  -29.6425   22.2487 C   0  0  0  0  0  0  0  0  0  0  0  0
  -28.4506  -35.3697   19.9846 C   0  0  0  0  0  0  0  0  0  0  0  0
  -28.6898  -14.8334   17.7154 C   0  0  0  0  0  0  0  0  0  0  0  0
  -28.6485  -34.3402   21.0926 C   0  0  0  0  0  0  0  0  0  0  0  0
  -27.6582  -13.8264   18.2288 C   0  0  0  0  0  0  0  0  0  0  0  0
  -29.6642  -15.2568   18.8132 C   0  0  0  0  0  0  0  0  0  0  0  0
  -28.0037  -14.7424   20.5587 C   0  0  0  0  0  0  0  0  0  0  0  0
  -28.6792  -32.9165   20.5237 C   0  0  1  0  0  0  0  0  0  0  0  0
  -25.1538  -31.5044   20.6253 C   0  0  1  0  0  0  0  0  0  0  0  0
  -26.9604  -14.3356   19.5053 C   0  0  2  0  0  0  0  0  0  0  0  0
  -26.5857  -20.1728   25.1748 C   0  0  0  0  0  0  0  0  0  0  0  0
  -30.2464  -21.3260   19.0151 C   0  0  0  0  0  0  0  0  0  0  0  0
  -18.5407  -30.3037   24.4760 C   0  0  0  0  0  0  0  0  0  0  0  0
  -24.8124  -32.3200   25.1616 C   0  0  0  0  0  0  0  0  0  0  0  0
  -22.6550  -31.6229   26.2235 C   0  0  0  0  0  0  0  0  0  0  0  0
  -22.7291  -33.6457   24.7656 C   0  0  0  0  0  0  0  0  0  0  0  0
  -19.4745  -28.8901   21.0693 C   0  0  0  0  0  0  0  0  0  0  0  0
  -30.0500  -21.8873   22.0054 C   0  0  0  0  0  0  0  0  0  0  0  0
  -29.0543  -22.0238   19.6575 C   0  0  0  0  0  0  0  0  0  0  0  0
  -28.1835  -23.5842   21.4622 C   0  0  0  0  0  0  0  0  0  0  0  0
  -27.5686  -24.5819   20.4869 C   0  0  0  0  0  0  0  0  0  1  0  0
  -22.9054  -31.3531   23.7144 C   0  0  1  0  0  0  0  0  0  0  0  0
  -19.3275  -30.2220   23.1772 C   0  0  2  0  0  0  0  0  0  0  0  0
  -29.4148  -22.8094   20.9380 C   0  0  1  0  0  0  0  0  0  0  0  0
  -23.2889  -32.2181   24.9482 C   0  0  0  0  0  0  0  0  0  0  0  0
  -26.3845  -12.4369   20.9697 N   0  0  0  0  0  0  0  0  0  0  0  0
  -29.1874  -19.6165   21.8142 N   0  0  0  0  0  0  0  0  0  0  0  0
  -25.9700  -13.3219   20.0471 N   0  0  0  0  0  0  0  0  0  0  0  0
  -24.3754  -30.9951   21.7562 N   0  0  0  0  0  0  0  0  0  0  0  0
  -28.9320  -15.7316   19.9892 N   0  0  0  0  0  0  0  0  0  0  0  0
  -24.0776  -13.9954   18.7918 N   0  0  0  0  0  0  0  0  0  0  0  0
  -22.5167  -10.5534   21.2642 N   0  0  0  0  0  0  0  0  0  0  0  0
  -28.3839  -17.3895   21.5747 N   0  0  0  0  0  0  0  0  0  0  0  0
  -27.3383  -32.4644   20.2204 N   0  0  0  0  0  0  0  0  0  0  0  0
  -21.4697  -31.2613   23.4721 N   0  0  0  0  0  0  0  0  0  0  0  0
  -18.8057  -29.0739   22.3830 N   0  3  0  0  0  0  0  0  0  0  0  0
  -21.9559  -12.1109   19.6773 O   0  0  0  0  0  0  0  0  0  0  0  0
  -26.7604  -31.7036   22.3440 O   0  0  0  0  0  0  0  0  0  0  0  0
  -23.2386  -33.0095   22.0496 O   0  0  0  0  0  0  0  0  0  0  0  0
  -21.3364  -28.9502   23.6065 O   0  0  0  0  0  0  0  0  0  0  0  0
  -29.9661  -17.7982   19.9281 O   0  0  0  0  0  0  0  0  0  0  0  0
  -25.4351   -7.5446   24.9338 O   0  0  0  0  0  0  0  0  0  0  0  0
  -26.4704  -25.2268   21.1306 O   0  0  0  0  0  0  0  0  0  1  0  0
  -23.0415   -2.7778   23.5367 F   0  0  0  0  0  0  0  0  0  0  0  0
  -26.8991   -5.2024   24.8194 F   0  0  0  0  0  0  0  0  0  0  0  0
  1  2  1  0  0  0  0
  1  5  2  0  0  0  0
  2  6  2  0  0  0  0
  3  8  2  0  0  0  0
  3 17  1  0  0  0  0
  4  9  1  0  0  0  0
  4 17  2  0  0  0  0
  5 19  1  0  0  0  0
  6 21  1  0  0  0  0
  7 10  2  0  0  0  0
  7 20  1  0  0  0  0
  8 24  1  0  0  0  0
  9 24  2  0  0  0  0
 10 25  1  0  0  0  0
 11 12  2  0  0  0  0
 11 26  1  0  0  0  0
 12 27  1  0  0  0  0
 13 22  1  0  0  0  0
 13 25  2  0  0  0  0
 14 23  2  0  0  0  0
 14 30  1  0  0  0  0
 15 23  1  0  0  0  0
 15 31  2  0  0  0  0
 16 27  2  0  0  0  0
 16 28  1  0  0  0  0
 17 29  1  0  0  0  0
 18 29  1  0  0  0  0
 18 32  2  0  0  0  0
 18 33  1  0  0  0  0
 19 21  2  0  0  0  0
 19 38  1  0  0  0  0
 20 22  2  0  0  0  0
 20 39  1  0  0  0  0
 21 47  1  0  0  0  0
 22 40  1  0  0  0  0
 23 50  1  0  0  0  0
 24 81  1  0  0  0  0
 25 82  1  0  0  0  0
 26 28  2  0  0  0  0
 26 81  1  0  0  0  0
 27 83  1  0  0  0  0
 28 84  1  0  0  0  0
 29 65  2  0  0  0  0
 30 57  1  0  0  0  0
 30 66  2  0  0  0  0
 31 66  1  0  0  0  0
 31 72  1  0  0  0  0
 32 67  1  0  0  0  0
 32 70  1  0  0  0  0
 33 71  1  0  0  0  0
 33 76  2  0  0  0  0
 34 48  1  0  0  0  0
 34 73  1  0  0  0  0
 34 77  2  0  0  0  0
 35 61  1  0  0  0  0
 35 68  1  0  0  0  0
 35 78  2  0  0  0  0
 36 62  1  0  0  0  0
 36 74  1  0  0  0  0
 36 79  2  0  0  0  0
 37 69  1  0  0  0  0
 37 72  1  0  0  0  0
 37 80  2  0  0  0  0
 38 41  1  0  0  0  0
 39 48  1  0  0  0  0
 40 68  1  0  0  0  0
 41 43  1  0  0  0  0
 42 44  1  0  0  0  0
 42 45  1  0  0  0  0
 43 47  1  0  0  0  0
 44 49  1  0  0  0  0
 45 69  1  0  0  0  0
 46 49  1  0  0  0  0
 46 69  1  0  0  0  0
 47 73  1  0  0  0  0
 48 68  1  0  0  0  0
 49 67  1  0  0  0  0
 51 58  1  0  0  0  0
 52 62  1  0  0  0  0
 53 64  1  0  0  0  0
 54 64  1  0  0  0  0
 55 64  1  0  0  0  0
 56 75  1  0  0  0  0
 57 63  1  0  0  0  0
 58 63  1  0  0  0  0
 59 60  1  0  0  0  0
 59 63  1  0  0  0  0
 60 82  1  0  0  0  0
 61 64  1  0  0  0  0
 61 74  1  0  0  0  0
 62 75  1  0  0  0  0
 65 67  1  0  0  0  0
M  CHG  1  75   1
M  ISO  4  37 100  60 101  72 100  82 101
M  END
> <Batch ID>
0109

> <Smiles>
CCC(Cc1cc(C)cc([100NH:0][100C:0](=O)N2CCCC(n3nc(-c4ccc(Oc5ccc(F)cc5F)cc4)c(C(N)=O)c3N)C2)n1)C[101CH2:1][101O:1]c1ccc2c(c1)CN(C(=O)C(NC(=O)C(C)NC)C(C)(C)C)C(C(=O)NC1CCCc3ccccc31)C2

> <Shape>
0.221

> <Color>
0.074

> <Negative vol penalty>
0.000

$$$$

  -OEChem-04052319563D

 86 94  0     1  0  0  0  0  0999 V2000
  -16.3706  -25.8429   23.6041 C   0  0  0  0  0  0  0  0  0  0  0  0
  -17.3427  -25.3657   22.7308 C   0  0  0  0  0  0  0  0  0  0  0  0
  -27.5051  -25.5793   13.7201 C   0  0  0  0  0  0  0  0  0  0  0  0
  -25.3610  -13.9503   21.5934 C   0  0  0  0  0  0  0  0  0  0  0  0
  -26.7660  -13.6649   19.6488 C   0  0  0  0  0  0  0  0  0  0  0  0
  -16.4014  -27.1733   24.0200 C   0  0  0  0  0  0  0  0  0  0  0  0
  -18.3456  -26.2190   22.2720 C   0  0  0  0  0  0  0  0  0  0  0  0
  -24.1649  -24.7442   21.0608 C   0  0  0  0  0  0  0  0  0  0  0  0
  -28.6462  -24.7788   13.7720 C   0  0  0  0  0  0  0  0  0  0  0  0
  -26.9292  -26.0504   14.9000 C   0  0  0  0  0  0  0  0  0  0  0  0
  -24.5104  -12.9485   21.1260 C   0  0  0  0  0  0  0  0  0  0  0  0
  -25.9154  -12.6631   19.1813 C   0  0  0  0  0  0  0  0  0  0  0  0
  -24.8292  -24.4467   19.8717 C   0  0  0  0  0  0  0  0  0  0  0  0
  -24.4594   -9.5690   21.0285 C   0  0  0  0  0  0  0  0  0  0  0  0
  -24.0283   -8.6066   21.9413 C   0  0  0  0  0  0  0  0  0  0  0  0
  -25.5686  -26.7378   19.7188 C   0  0  0  0  0  0  0  0  0  0  0  0
  -28.6355  -24.9202   16.1839 C   0  0  0  0  0  0  0  0  0  0  0  0
  -21.7350   -9.2509   21.5375 C   0  0  0  0  0  0  0  0  0  0  0  0
  -26.4887  -14.3085   20.8548 C   0  0  0  0  0  0  0  0  0  0  0  0
  -28.4903  -15.1853   22.1712 C   0  0  0  0  0  0  0  0  0  0  0  0
  -17.4108  -28.0408   23.5737 C   0  0  0  0  0  0  0  0  0  0  0  0
  -24.1885  -26.0454   21.5830 C   0  0  0  0  0  0  0  0  0  0  0  0
  -18.3892  -27.5626   22.6813 C   0  0  0  0  0  0  0  0  0  0  0  0
  -24.9060  -27.0486   20.9160 C   0  0  0  0  0  0  0  0  0  0  0  0
  -29.2114  -24.4492   15.0039 C   0  0  0  0  0  0  0  0  0  0  0  0
  -27.4944  -25.7208   16.1319 C   0  0  0  0  0  0  0  0  0  0  0  0
  -24.7876  -12.3049   19.9199 C   0  0  0  0  0  0  0  0  0  0  0  0
  -25.5288  -25.4443   19.1989 C   0  0  0  0  0  0  0  0  0  0  0  0
  -23.5284  -10.3725   20.3702 C   0  0  0  0  0  0  0  0  0  0  0  0
  -22.6661   -8.4475   22.1958 C   0  0  0  0  0  0  0  0  0  0  0  0
  -22.1662  -10.2134   20.6247 C   0  0  0  0  0  0  0  0  0  0  0  0
  -27.3674  -15.3437   21.3369 C   0  0  0  0  0  0  0  0  0  0  0  0
  -28.9781  -16.4587   22.3357 C   0  0  0  0  0  0  0  0  0  0  0  0
  -29.0429  -13.9937   22.7459 C   0  0  0  0  0  0  0  0  0  0  0  0
  -21.9877  -28.2530   22.2050 C   0  0  0  0  0  0  0  0  0  0  0  0
  -24.5036  -29.8361   23.5037 C   0  0  0  0  0  0  0  0  0  0  0  0
  -27.8810  -30.3129   23.6163 C   0  0  0  0  0  0  0  0  0  0  0  0
  -28.5894  -21.4333   19.0262 C   0  0  0  0  0  0  0  0  0  0  0  0
  -17.3754  -29.4830   24.0136 C   0  0  0  0  0  0  0  0  0  0  0  0
  -23.4891  -26.3438   22.8808 C   0  0  0  0  0  0  0  0  0  0  0  0
  -24.9790  -28.4567   21.4454 C   0  0  0  0  0  0  0  0  0  0  0  0
  -18.6884  -30.2247   23.7761 C   0  0  0  0  0  0  0  0  0  0  0  0
  -27.5651  -21.0291   22.4120 C   0  0  0  0  0  0  0  0  0  0  0  0
  -19.2137  -29.9438   22.3718 C   0  0  0  0  0  0  0  0  0  0  0  0
  -27.4996  -19.5119   22.5957 C   0  0  0  0  0  0  0  0  0  0  0  0
  -27.1127  -21.4485   21.0151 C   0  0  0  0  0  0  0  0  0  0  0  0
  -27.7472  -19.2534   20.0916 C   0  0  0  0  0  0  0  0  0  0  0  0
  -19.5076  -28.4509   22.1811 C   0  0  1  0  0  0  0  0  0  0  0  0
  -23.1517  -27.8217   23.0517 C   0  0  1  0  0  0  0  0  0  0  0  0
  -28.2470  -18.7775   21.4664 C   0  0  2  0  0  0  0  0  0  0  0  0
  -29.6376  -31.7020   24.7485 C   0  0  0  0  0  0  0  0  0  0  0  0
  -23.7593  -32.2113   21.7389 C   0  0  0  0  0  0  0  0  0  0  0  0
  -26.0295  -33.1669   22.1877 C   0  0  0  0  0  0  0  0  0  0  0  0
  -24.4319  -32.8146   24.0709 C   0  0  0  0  0  0  0  0  0  0  0  0
  -27.8626  -20.5907   13.8312 C   0  0  0  0  0  0  0  0  0  0  0  0
  -29.5728  -19.0990   14.8905 C   0  0  0  0  0  0  0  0  0  0  0  0
  -29.1696  -27.9265   24.8009 C   0  0  0  0  0  0  0  0  0  0  0  0
  -30.4323  -23.5944   15.0585 C   0  0  0  0  0  0  0  0  0  0  0  0
  -26.8745  -26.2269   17.4011 C   0  0  0  0  0  0  0  0  0  1  0  0
  -30.0741  -21.2552   17.0455 C   0  0  0  0  0  0  0  0  0  0  0  0
  -25.5334  -30.8125   22.9889 C   0  0  1  0  0  0  0  0  0  0  0  0
  -28.8471  -30.4033   24.7836 C   0  0  2  0  0  0  0  0  0  0  0  0
  -29.2548  -21.5105   15.7725 C   0  0  2  0  0  0  0  0  0  0  0  0
  -24.9357  -32.2253   22.7354 C   0  0  0  0  0  0  0  0  0  0  0  0
  -28.5845  -20.2483   15.1481 C   0  0  0  0  0  0  0  0  0  0  0  0
  -27.1543  -16.6173   20.9954 N   0  0  0  0  0  0  0  0  0  0  0  0
  -28.1499  -17.2708   21.6183 N   0  0  0  0  0  0  0  0  0  0  0  0
  -24.2736  -28.7002   22.7145 N   0  0  0  0  0  0  0  0  0  0  0  0
  -27.8613  -20.7168   19.9903 N   0  0  0  0  0  0  0  0  0  0  0  0
  -30.0304  -16.9518   23.0227 N   0  0  0  0  0  0  0  0  0  0  0  0
  -28.4177  -12.7691   22.4748 N   0  0  0  0  0  0  0  0  0  0  0  0
  -27.5461  -19.7391   16.0604 N   0  0  0  0  0  0  0  0  0  0  0  0
  -20.7586  -28.0968   22.8168 N   0  0  0  0  0  0  0  0  0  0  0  0
  -26.6315  -30.7918   23.9491 N   0  0  0  0  0  0  0  0  0  0  0  0
  -29.2756  -20.6629   18.0954 N   0  0  0  0  0  0  0  0  0  0  0  0
  -29.8097  -29.2662   24.7486 N   0  3  0  0  0  0  0  0  0  0  0  0
  -30.1595  -22.1562   14.7859 N   0  3  0  0  0  0  0  0  0  0  0  0
  -30.0514  -14.0164   23.4915 O   0  0  0  0  0  0  0  0  0  0  0  0
  -22.1899  -28.6961   21.0805 O   0  0  0  0  0  0  0  0  0  0  0  0
  -23.9297  -30.0688   24.5706 O   0  0  0  0  0  0  0  0  0  0  0  0
  -28.2035  -29.8659   22.5178 O   0  0  0  0  0  0  0  0  0  0  0  0
  -28.6296  -22.6681   19.0003 O   0  0  0  0  0  0  0  0  0  0  0  0
  -23.9580  -11.3271   19.4636 O   0  0  0  0  0  0  0  0  0  0  0  0
  -26.1774  -25.1568   18.0377 O   0  0  0  0  0  0  0  0  0  1  0  0
  -22.2521   -7.5221   23.0713 F   0  0  0  0  0  0  0  0  0  0  0  0
  -21.2670  -10.9816   19.9944 F   0  0  0  0  0  0  0  0  0  0  0  0
  1  2  1  0  0  0  0
  1  6  2  0  0  0  0
  2  7  2  0  0  0  0
  3  9  1  0  0  0  0
  3 10  2  0  0  0  0
  4 11  2  0  0  0  0
  4 19  1  0  0  0  0
  5 12  1  0  0  0  0
  5 19  2  0  0  0  0
  6 21  1  0  0  0  0
  7 23  1  0  0  0  0
  8 13  2  0  0  0  0
  8 22  1  0  0  0  0
  9 25  2  0  0  0  0
 10 26  1  0  0  0  0
 11 27  1  0  0  0  0
 12 27  2  0  0  0  0
 13 28  1  0  0  0  0
 14 15  2  0  0  0  0
 14 29  1  0  0  0  0
 15 30  1  0  0  0  0
 16 24  1  0  0  0  0
 16 28  2  0  0  0  0
 17 25  1  0  0  0  0
 17 26  2  0  0  0  0
 18 30  2  0  0  0  0
 18 31  1  0  0  0  0
 19 32  1  0  0  0  0
 20 32  1  0  0  0  0
 20 33  2  0  0  0  0
 20 34  1  0  0  0  0
 21 23  2  0  0  0  0
 21 39  1  0  0  0  0
 22 24  2  0  0  0  0
 22 40  1  0  0  0  0
 23 48  1  0  0  0  0
 24 41  1  0  0  0  0
 25 58  1  0  0  0  0
 26 59  1  0  0  0  0
 27 83  1  0  0  0  0
 28 84  1  0  0  0  0
 29 31  2  0  0  0  0
 29 83  1  0  0  0  0
 30 85  1  0  0  0  0
 31 86  1  0  0  0  0
 32 66  2  0  0  0  0
 33 67  1  0  0  0  0
 33 70  1  0  0  0  0
 34 71  1  0  0  0  0
 34 78  2  0  0  0  0
 35 49  1  0  0  0  0
 35 73  1  0  0  0  0
 35 79  2  0  0  0  0
 36 61  1  0  0  0  0
 36 68  1  0  0  0  0
 36 80  2  0  0  0  0
 37 62  1  0  0  0  0
 37 74  1  0  0  0  0
 37 81  2  0  0  0  0
 38 69  1  0  0  0  0
 38 75  1  0  0  0  0
 38 82  2  0  0  0  0
 39 42  1  0  0  0  0
 40 49  1  0  0  0  0
 41 68  1  0  0  0  0
 42 44  1  0  0  0  0
 43 45  1  0  0  0  0
 43 46  1  0  0  0  0
 44 48  1  0  0  0  0
 45 50  1  0  0  0  0
 46 69  1  0  0  0  0
 47 50  1  0  0  0  0
 47 69  1  0  0  0  0
 48 73  1  0  0  0  0
 49 68  1  0  0  0  0
 50 67  1  0  0  0  0
 51 62  1  0  0  0  0
 52 64  1  0  0  0  0
 53 64  1  0  0  0  0
 54 64  1  0  0  0  0
 55 65  1  0  0  0  0
 56 65  1  0  0  0  0
 57 76  1  0  0  0  0
 58 77  1  0  0  0  0
 59 84  1  0  0  0  0
 60 63  1  0  0  0  0
 60 75  1  0  0  0  0
 61 64  1  0  0  0  0
 61 74  1  0  0  0  0
 62 76  1  0  0  0  0
 63 65  1  0  0  0  0
 63 77  1  0  0  0  0
 65 72  1  0  0  0  0
 66 67  1  0  0  0  0
M  CHG  2  76   1  77   1
M  ISO  4  38 100  59 101  75 100  84 101
M  END
> <Batch ID>
0109

> <Smiles>
CNC(C)C(=O)NC(C(=O)N1Cc2cc([101O:1][101CH2:1]c3cccc(CNC(C[100NH:0][100C:0](=O)N4CCCC(n5nc(-c6ccc(Oc7ccc(F)cc7F)cc6)c(C(N)=O)c5N)C4)C(C)(C)N)c3)ccc2CC1C(=O)NC1CCCc2ccccc21)C(C)(C)C

> <Shape>
0.260

> <Color>
0.053

> <Negative vol penalty>
0.000

$$$$

  -OEChem-04052319563D

 85 93  0     1  0  0  0  0  0999 V2000
  -36.1890  -25.4308   23.4839 C   0  0  0  0  0  0  0  0  0  0  0  0
  -35.0312  -24.8980   24.0418 C   0  0  0  0  0  0  0  0  0  0  0  0
  -23.2593   -9.9231   19.8815 C   0  0  0  0  0  0  0  0  0  0  0  0
  -23.7919   -9.9429   22.2379 C   0  0  0  0  0  0  0  0  0  0  0  0
  -36.2908  -26.8051   23.2722 C   0  0  0  0  0  0  0  0  0  0  0  0
  -33.9750  -25.7395   24.3893 C   0  0  0  0  0  0  0  0  0  0  0  0
  -29.4806  -23.9217   22.9261 C   0  0  0  0  0  0  0  0  0  0  0  0
  -22.5383   -8.7416   20.0543 C   0  0  0  0  0  0  0  0  0  0  0  0
  -23.0709   -8.7614   22.4108 C   0  0  0  0  0  0  0  0  0  0  0  0
  -28.9199  -22.9089   23.7030 C   0  0  0  0  0  0  0  0  0  0  0  0
  -19.8316   -7.8409   22.6939 C   0  0  0  0  0  0  0  0  0  0  0  0
  -18.9665   -7.7653   23.7854 C   0  0  0  0  0  0  0  0  0  0  0  0
  -27.4974  -24.5318   24.7811 C   0  0  0  0  0  0  0  0  0  0  0  0
  -28.7653  -15.2970   25.8990 C   0  0  0  0  0  0  0  0  0  0  0  0
  -20.2021   -5.8702   24.6333 C   0  0  0  0  0  0  0  0  0  0  0  0
  -29.6405  -15.7447   23.8734 C   0  0  0  0  0  0  0  0  0  0  0  0
  -23.8861  -10.5237   20.9733 C   0  0  0  0  0  0  0  0  0  0  0  0
  -24.1433  -13.0605   20.8947 C   0  0  0  0  0  0  0  0  0  0  0  0
  -35.2315  -27.6627   23.6083 C   0  0  0  0  0  0  0  0  0  0  0  0
  -29.0609  -25.2510   23.0788 C   0  0  0  0  0  0  0  0  0  0  0  0
  -34.0633  -27.1267   24.1831 C   0  0  0  0  0  0  0  0  0  0  0  0
  -28.0526  -25.5592   24.0031 C   0  0  0  0  0  0  0  0  0  0  0  0
  -28.5405  -15.9680   24.6717 C   0  0  0  0  0  0  0  0  0  0  0  0
  -22.4441   -8.1608   21.3190 C   0  0  0  0  0  0  0  0  0  0  0  0
  -27.9302  -23.2143   24.6327 C   0  0  0  0  0  0  0  0  0  0  0  0
  -20.8820   -6.9311   22.5720 C   0  0  0  0  0  0  0  0  0  0  0  0
  -19.1518   -6.7799   24.7551 C   0  0  0  0  0  0  0  0  0  0  0  0
  -21.0672   -5.9458   23.5417 C   0  0  0  0  0  0  0  0  0  0  0  0
  -24.6315  -11.7439   20.7952 C   0  0  0  0  0  0  0  0  0  0  0  0
  -29.9960  -14.6842   25.8134 C   0  0  0  0  0  0  0  0  0  0  0  0
  -25.2368  -13.8523   20.6417 C   0  0  0  0  0  0  0  0  0  0  0  0
  -22.8197  -13.5263   21.1895 C   0  0  0  0  0  0  0  0  0  0  0  0
  -30.4714  -27.9623   23.9524 C   0  0  0  0  0  0  0  0  0  0  0  0
  -27.6122  -29.2579   23.1349 C   0  0  0  0  0  0  0  0  0  0  0  0
  -24.2582  -28.8223   22.6792 C   0  0  0  0  0  0  0  0  0  0  0  0
  -31.1310  -12.9679   21.2137 C   0  0  0  0  0  0  0  0  0  0  0  0
  -35.4064  -29.1468   23.4046 C   0  0  0  0  0  0  0  0  0  0  0  0
  -29.6568  -26.3279   22.2142 C   0  0  0  0  0  0  0  0  0  0  0  0
  -27.5526  -26.9674   24.1910 C   0  0  0  0  0  0  0  0  0  0  0  0
  -34.0953  -29.9271   23.4540 C   0  0  0  0  0  0  0  0  0  0  0  0
  -29.3784  -13.8626   18.2464 C   0  0  0  0  0  0  0  0  0  0  0  0
  -33.2579  -29.4885   24.6511 C   0  0  0  0  0  0  0  0  0  0  0  0
  -27.9191  -13.5399   18.5721 C   0  0  0  0  0  0  0  0  0  0  0  0
  -30.3338  -12.8483   18.8713 C   0  0  0  0  0  0  0  0  0  0  0  0
  -28.7077  -12.3310   20.6495 C   0  0  0  0  0  0  0  0  0  0  0  0
  -32.8863  -28.0042   24.5503 C   0  0  1  0  0  0  0  0  0  0  0  0
  -29.5177  -27.7228   22.8163 C   0  0  1  0  0  0  0  0  0  0  0  0
  -27.7098  -13.3580   20.0875 C   0  0  2  0  0  0  0  0  0  0  0  0
  -30.7145  -13.8576   26.8052 C   0  0  0  0  0  0  0  0  0  0  0  0
  -22.1773  -30.0738   22.0460 C   0  0  0  0  0  0  0  0  0  0  0  0
  -24.6780  -18.1134   25.3983 C   0  0  0  0  0  0  0  0  0  0  0  0
  -27.5408  -30.5358   25.9047 C   0  0  0  0  0  0  0  0  0  0  0  0
  -25.0947  -30.9538   25.5724 C   0  0  0  0  0  0  0  0  0  0  0  0
  -26.7586  -32.0205   24.0504 C   0  0  0  0  0  0  0  0  0  0  0  0
  -23.8048  -27.1032   20.3132 C   0  0  0  0  0  0  0  0  0  0  0  0
  -27.3282  -16.7733   24.3072 C   0  0  0  0  0  0  0  0  0  0  0  0
  -26.1199  -20.1874   25.4012 C   0  0  0  0  0  0  0  0  0  0  0  0
  -31.7985  -14.5113   24.0771 C   0  0  0  0  0  0  0  0  0  0  0  0
  -31.7762  -13.0587   23.6084 C   0  0  0  0  0  0  0  0  0  0  0  0
  -27.3219  -20.9227   24.8187 C   0  0  0  0  0  0  0  0  0  1  0  0
  -26.3186  -29.5380   23.8610 C   0  0  1  0  0  0  0  0  0  0  0  0
  -23.3352  -29.2256   21.5435 C   0  0  2  0  0  0  0  0  0  0  0  0
  -25.9334  -18.7744   24.8449 C   0  0  1  0  0  0  0  0  0  0  0  0
  -26.4388  -30.7357   24.8452 C   0  0  0  0  0  0  0  0  0  0  0  0
  -25.9337  -11.6977   20.5017 N   0  0  0  0  0  0  0  0  0  0  0  0
  -30.5189  -14.9634   24.5778 N   0  0  0  0  0  0  0  0  0  0  0  0
  -26.2730  -12.9951   20.4146 N   0  0  0  0  0  0  0  0  0  0  0  0
  -28.1708  -27.9863   23.3267 N   0  0  0  0  0  0  0  0  0  0  0  0
  -30.0841  -12.7241   20.3094 N   0  0  0  0  0  0  0  0  0  0  0  0
  -25.4033  -15.1910   20.5936 N   0  0  0  0  0  0  0  0  0  0  0  0
  -21.8145  -12.5781   21.4239 N   0  0  0  0  0  0  0  0  0  0  0  0
  -31.8023  -27.8173   23.6099 N   0  0  0  0  0  0  0  0  0  0  0  0
  -25.3011  -29.7116   22.8301 N   0  0  0  0  0  0  0  0  0  0  0  0
  -30.8076  -12.8344   22.5584 N   0  0  0  0  0  0  0  0  0  0  0  0
  -22.7766  -28.0161   20.8756 N   0  3  0  0  0  0  0  0  0  0  0  0
  -27.1003  -17.9264   25.2162 N   0  3  0  0  0  0  0  0  0  0  0  0
  -22.5331  -14.7469   21.2273 O   0  0  0  0  0  0  0  0  0  0  0  0
  -30.0324  -28.2582   25.0576 O   0  0  0  0  0  0  0  0  0  0  0  0
  -28.1050  -30.1326   22.4182 O   0  0  0  0  0  0  0  0  0  0  0  0
  -24.0705  -27.8208   23.3664 O   0  0  0  0  0  0  0  0  0  0  0  0
  -32.2681  -13.2864   20.8497 O   0  0  0  0  0  0  0  0  0  0  0  0
  -21.7405   -7.0080   21.4881 O   0  0  0  0  0  0  0  0  0  0  0  0
  -27.3816  -22.2278   25.3928 O   0  0  0  0  0  0  0  0  0  1  0  0
  -18.3219   -6.7084   25.8041 F   0  0  0  0  0  0  0  0  0  0  0  0
  -22.0752   -5.0697   23.4307 F   0  0  0  0  0  0  0  0  0  0  0  0
  1  2  1  0  0  0  0
  1  5  2  0  0  0  0
  2  6  2  0  0  0  0
  3  8  2  0  0  0  0
  3 17  1  0  0  0  0
  4  9  1  0  0  0  0
  4 17  2  0  0  0  0
  5 19  1  0  0  0  0
  6 21  1  0  0  0  0
  7 10  2  0  0  0  0
  7 20  1  0  0  0  0
  8 24  1  0  0  0  0
  9 24  2  0  0  0  0
 10 25  1  0  0  0  0
 11 12  2  0  0  0  0
 11 26  1  0  0  0  0
 12 27  1  0  0  0  0
 13 22  1  0  0  0  0
 13 25  2  0  0  0  0
 14 23  1  0  0  0  0
 14 30  2  0  0  0  0
 15 27  2  0  0  0  0
 15 28  1  0  0  0  0
 16 23  2  0  0  0  0
 16 66  1  0  0  0  0
 17 29  1  0  0  0  0
 18 29  1  0  0  0  0
 18 31  2  0  0  0  0
 18 32  1  0  0  0  0
 19 21  2  0  0  0  0
 19 37  1  0  0  0  0
 20 22  2  0  0  0  0
 20 38  1  0  0  0  0
 21 46  1  0  0  0  0
 22 39  1  0  0  0  0
 23 56  1  0  0  0  0
 24 82  1  0  0  0  0
 25 83  1  0  0  0  0
 26 28  2  0  0  0  0
 26 82  1  0  0  0  0
 27 84  1  0  0  0  0
 28 85  1  0  0  0  0
 29 65  2  0  0  0  0
 30 49  1  0  0  0  0
 30 66  1  0  0  0  0
 31 67  1  0  0  0  0
 31 70  1  0  0  0  0
 32 71  1  0  0  0  0
 32 77  2  0  0  0  0
 33 47  1  0  0  0  0
 33 72  1  0  0  0  0
 33 78  2  0  0  0  0
 34 61  1  0  0  0  0
 34 68  1  0  0  0  0
 34 79  2  0  0  0  0
 35 62  1  0  0  0  0
 35 73  1  0  0  0  0
 35 80  2  0  0  0  0
 36 69  1  0  0  0  0
 36 74  1  0  0  0  0
 36 81  2  0  0  0  0
 37 40  1  0  0  0  0
 38 47  1  0  0  0  0
 39 68  1  0  0  0  0
 40 42  1  0  0  0  0
 41 43  1  0  0  0  0
 41 44  1  0  0  0  0
 42 46  1  0  0  0  0
 43 48  1  0  0  0  0
 44 69  1  0  0  0  0
 45 48  1  0  0  0  0
 45 69  1  0  0  0  0
 46 72  1  0  0  0  0
 47 68  1  0  0  0  0
 48 67  1  0  0  0  0
 50 62  1  0  0  0  0
 51 63  1  0  0  0  0
 52 64  1  0  0  0  0
 53 64  1  0  0  0  0
 54 64  1  0  0  0  0
 55 75  1  0  0  0  0
 56 76  1  0  0  0  0
 57 60  1  0  0  0  0
 57 63  1  0  0  0  0
 58 59  1  0  0  0  0
 58 66  1  0  0  0  0
 59 74  1  0  0  0  0
 60 83  1  0  0  0  0
 61 64  1  0  0  0  0
 61 73  1  0  0  0  0
 62 75  1  0  0  0  0
 63 76  1  0  0  0  0
 65 67  1  0  0  0  0
M  CHG  2  75   1  76   1
M  ISO  4  36 100  60 101  74 100  83 101
M  END
> <Batch ID>
0109

> <Smiles>
CNC(C)C(=O)NC(C(=O)N1Cc2cc([101O:1][101CH2:1]CC(C)NCc3cc(C)n(CC[100NH:0][100C:0](=O)N4CCCC(n5nc(-c6ccc(Oc7ccc(F)cc7F)cc6)c(C(N)=O)c5N)C4)c3)ccc2CC1C(=O)NC1CCCc2ccccc21)C(C)(C)C

> <Shape>
0.212

> <Color>
0.196

> <Negative vol penalty>
0.000

$$$$

  -OEChem-04052319563D

 85 93  0     1  0  0  0  0  0999 V2000
  -17.1395  -20.9826   26.1532 C   0  0  0  0  0  0  0  0  0  0  0  0
  -18.2923  -20.4776   25.5603 C   0  0  0  0  0  0  0  0  0  0  0  0
  -23.0724   -9.8711   19.9423 C   0  0  0  0  0  0  0  0  0  0  0  0
  -23.8350   -9.8778   22.2348 C   0  0  0  0  0  0  0  0  0  0  0  0
  -15.9092  -20.3716   25.9146 C   0  0  0  0  0  0  0  0  0  0  0  0
  -18.2155  -19.3606   24.7291 C   0  0  0  0  0  0  0  0  0  0  0  0
  -20.9172  -19.9103   20.4814 C   0  0  0  0  0  0  0  0  0  0  0  0
  -22.3288   -8.7180   20.1930 C   0  0  0  0  0  0  0  0  0  0  0  0
  -23.0913   -8.7247   22.4855 C   0  0  0  0  0  0  0  0  0  0  0  0
  -22.2971  -19.7351   20.5773 C   0  0  0  0  0  0  0  0  0  0  0  0
  -19.9436   -5.9778   20.3239 C   0  0  0  0  0  0  0  0  0  0  0  0
  -18.6373   -5.9299   19.8371 C   0  0  0  0  0  0  0  0  0  0  0  0
  -22.0678  -17.4986   19.7027 C   0  0  0  0  0  0  0  0  0  0  0  0
  -27.0490  -18.7397   19.5895 C   0  0  0  0  0  0  0  0  0  0  0  0
  -18.0738   -7.8727   21.1582 C   0  0  0  0  0  0  0  0  0  0  0  0
  -28.3742  -18.7563   21.9747 C   0  0  0  0  0  0  0  0  0  0  0  0
  -23.8256  -10.4510   20.9632 C   0  0  0  0  0  0  0  0  0  0  0  0
  -24.1674  -12.9761   20.8430 C   0  0  0  0  0  0  0  0  0  0  0  0
  -15.8159  -19.2524   25.0724 C   0  0  0  0  0  0  0  0  0  0  0  0
  -20.0998  -18.8754   20.0049 C   0  0  0  0  0  0  0  0  0  0  0  0
  -16.9829  -18.7333   24.4800 C   0  0  0  0  0  0  0  0  0  0  0  0
  -20.6782  -17.6641   19.5994 C   0  0  0  0  0  0  0  0  0  0  0  0
  -28.3965  -18.3985   19.6235 C   0  0  0  0  0  0  0  0  0  0  0  0
  -29.0790  -18.4045   20.8349 C   0  0  0  0  0  0  0  0  0  0  0  0
  -22.3382   -8.1448   21.4646 C   0  0  0  0  0  0  0  0  0  0  0  0
  -22.8722  -18.5281   20.1906 C   0  0  0  0  0  0  0  0  0  0  0  0
  -20.3150   -6.9730   21.2279 C   0  0  0  0  0  0  0  0  0  0  0  0
  -17.7024   -6.8774   20.2542 C   0  0  0  0  0  0  0  0  0  0  0  0
  -19.3801   -7.9205   21.6450 C   0  0  0  0  0  0  0  0  0  0  0  0
  -24.5945  -11.6419   20.7046 C   0  0  0  0  0  0  0  0  0  0  0  0
  -26.4350  -19.0763   20.7851 C   0  0  0  0  0  0  0  0  0  0  0  0
  -25.2592  -13.7256   20.4785 C   0  0  0  0  0  0  0  0  0  0  0  0
  -22.8975  -13.4920   21.2635 C   0  0  0  0  0  0  0  0  0  0  0  0
  -17.7247  -17.1506   21.2246 C   0  0  0  0  0  0  0  0  0  0  0  0
  -17.5375  -15.9867   18.2026 C   0  0  0  0  0  0  0  0  0  0  0  0
  -19.0953  -15.3940   15.2245 C   0  0  0  0  0  0  0  0  0  0  0  0
  -30.7433  -14.7443   20.6606 C   0  0  0  0  0  0  0  0  0  0  0  0
  -14.4708  -18.5973   24.8820 C   0  0  0  0  0  0  0  0  0  0  0  0
  -18.6160  -19.0896   19.8824 C   0  0  0  0  0  0  0  0  0  0  0  0
  -19.8468  -16.5290   19.0620 C   0  0  0  0  0  0  0  0  0  0  0  0
  -14.4205  -17.6445   23.6905 C   0  0  0  0  0  0  0  0  0  0  0  0
  -29.6027  -12.3601   18.2749 C   0  0  0  0  0  0  0  0  0  0  0  0
  -15.6409  -16.7294   23.6869 C   0  0  0  0  0  0  0  0  0  0  0  0
  -28.1657  -12.0664   18.7095 C   0  0  0  0  0  0  0  0  0  0  0  0
  -30.5212  -12.5807   19.4747 C   0  0  0  0  0  0  0  0  0  0  0  0
  -28.6212  -13.3118   20.8636 C   0  0  0  0  0  0  0  0  0  0  0  0
  -16.9367  -17.5383   23.5526 C   0  0  1  0  0  0  0  0  0  0  0  0
  -17.8234  -17.7862   19.8667 C   0  0  1  0  0  0  0  0  0  0  0  0
  -27.6456  -13.1374   19.6871 C   0  0  2  0  0  0  0  0  0  0  0  0
  -31.2709  -20.0506   15.8472 C   0  0  0  0  0  0  0  0  0  0  0  0
  -18.6965  -14.3951   12.9573 C   0  0  0  0  0  0  0  0  0  0  0  0
  -17.7497  -13.1887   19.4008 C   0  0  0  0  0  0  0  0  0  0  0  0
  -18.2992  -12.3272   17.1152 C   0  0  0  0  0  0  0  0  0  0  0  0
  -16.0902  -13.4045   17.5423 C   0  0  0  0  0  0  0  0  0  0  0  0
  -19.6304  -17.9693   13.8678 C   0  0  0  0  0  0  0  0  0  0  0  0
  -29.0873  -18.0304   18.3524 C   0  0  0  0  0  0  0  0  0  0  0  0
  -30.5221  -18.0482   20.9281 C   0  0  0  0  0  0  0  0  0  0  0  0
  -24.9819  -19.4503   20.7863 C   0  0  0  0  0  0  0  0  0  1  0  0
  -30.7326  -18.8418   16.5980 C   0  0  0  0  0  0  0  0  0  0  0  0
  -30.8107  -16.8947   21.8976 C   0  0  0  0  0  0  0  0  0  0  0  0
  -18.1721  -14.8366   17.4587 C   0  0  1  0  0  0  0  0  0  0  0  0
  -18.6688  -15.6653   13.7931 C   0  0  2  0  0  0  0  0  0  0  0  0
  -29.7064  -19.2480   17.6533 C   0  0  1  0  0  0  0  0  0  0  0  0
  -17.5935  -13.4598   17.8911 C   0  0  0  0  0  0  0  0  0  0  0  0
  -27.0651  -19.0936   21.9811 N   0  0  0  0  0  0  0  0  0  0  0  0
  -25.8588  -11.5460   20.2849 N   0  0  0  0  0  0  0  0  0  0  0  0
  -26.2357  -12.8295   20.1562 N   0  0  0  0  0  0  0  0  0  0  0  0
  -18.4000  -16.7848   18.9674 N   0  0  0  0  0  0  0  0  0  0  0  0
  -29.9718  -13.6092   20.3614 N   0  0  0  0  0  0  0  0  0  0  0  0
  -25.4696  -15.0570   20.4054 N   0  0  0  0  0  0  0  0  0  0  0  0
  -21.8859  -12.5828   21.6018 N   0  0  0  0  0  0  0  0  0  0  0  0
  -17.1330  -17.9542   22.1804 N   0  0  0  0  0  0  0  0  0  0  0  0
  -18.0139  -15.1319   16.0387 N   0  0  0  0  0  0  0  0  0  0  0  0
  -30.1451  -15.6730   21.5034 N   0  0  0  0  0  0  0  0  0  0  0  0
  -19.5781  -16.6631   13.1619 N   0  3  0  0  0  0  0  0  0  0  0  0
  -22.6614  -14.7226   21.3212 O   0  0  0  0  0  0  0  0  0  0  0  0
  -18.1523  -16.0145   21.3924 O   0  0  0  0  0  0  0  0  0  0  0  0
  -16.3224  -16.1745   18.1029 O   0  0  0  0  0  0  0  0  0  0  0  0
  -20.2706  -15.4093   15.5836 O   0  0  0  0  0  0  0  0  0  0  0  0
  -31.8787  -14.9197   20.2056 O   0  0  0  0  0  0  0  0  0  0  0  0
  -21.6124   -7.0197   21.7096 O   0  0  0  0  0  0  0  0  0  0  0  0
  -24.2187  -18.3543   20.2838 O   0  0  0  0  0  0  0  0  0  1  0  0
  -16.4485   -6.8322   19.7855 F   0  0  0  0  0  0  0  0  0  0  0  0
  -19.7314   -8.8797   22.5124 F   0  0  0  0  0  0  0  0  0  0  0  0
  -28.7052  -19.9324   17.0286 F   0  0  0  0  0  0  0  0  0  0  0  0
  1  2  1  0  0  0  0
  1  5  2  0  0  0  0
  2  6  2  0  0  0  0
  3  8  2  0  0  0  0
  3 17  1  0  0  0  0
  4  9  1  0  0  0  0
  4 17  2  0  0  0  0
  5 19  1  0  0  0  0
  6 21  1  0  0  0  0
  7 10  2  0  0  0  0
  7 20  1  0  0  0  0
  8 25  1  0  0  0  0
  9 25  2  0  0  0  0
 10 26  1  0  0  0  0
 11 12  2  0  0  0  0
 11 27  1  0  0  0  0
 12 28  1  0  0  0  0
 13 22  1  0  0  0  0
 13 26  2  0  0  0  0
 14 23  1  0  0  0  0
 14 31  2  0  0  0  0
 15 28  2  0  0  0  0
 15 29  1  0  0  0  0
 16 24  1  0  0  0  0
 16 65  2  0  0  0  0
 17 30  1  0  0  0  0
 18 30  1  0  0  0  0
 18 32  2  0  0  0  0
 18 33  1  0  0  0  0
 19 21  2  0  0  0  0
 19 38  1  0  0  0  0
 20 22  2  0  0  0  0
 20 39  1  0  0  0  0
 21 47  1  0  0  0  0
 22 40  1  0  0  0  0
 23 24  2  0  0  0  0
 23 56  1  0  0  0  0
 24 57  1  0  0  0  0
 25 81  1  0  0  0  0
 26 82  1  0  0  0  0
 27 29  2  0  0  0  0
 27 81  1  0  0  0  0
 28 83  1  0  0  0  0
 29 84  1  0  0  0  0
 30 66  2  0  0  0  0
 31 58  1  0  0  0  0
 31 65  1  0  0  0  0
 32 67  1  0  0  0  0
 32 70  1  0  0  0  0
 33 71  1  0  0  0  0
 33 76  2  0  0  0  0
 34 48  1  0  0  0  0
 34 72  1  0  0  0  0
 34 77  2  0  0  0  0
 35 61  1  0  0  0  0
 35 68  1  0  0  0  0
 35 78  2  0  0  0  0
 36 62  1  0  0  0  0
 36 73  1  0  0  0  0
 36 79  2  0  0  0  0
 37 69  1  0  0  0  0
 37 74  1  0  0  0  0
 37 80  2  0  0  0  0
 38 41  1  0  0  0  0
 39 48  1  0  0  0  0
 40 68  1  0  0  0  0
 41 43  1  0  0  0  0
 42 44  1  0  0  0  0
 42 45  1  0  0  0  0
 43 47  1  0  0  0  0
 44 49  1  0  0  0  0
 45 69  1  0  0  0  0
 46 49  1  0  0  0  0
 46 69  1  0  0  0  0
 47 72  1  0  0  0  0
 48 68  1  0  0  0  0
 49 67  1  0  0  0  0
 50 59  1  0  0  0  0
 51 62  1  0  0  0  0
 52 64  1  0  0  0  0
 53 64  1  0  0  0  0
 54 64  1  0  0  0  0
 55 75  1  0  0  0  0
 56 63  1  0  0  0  0
 57 60  1  0  0  0  0
 58 82  1  0  0  0  0
 59 63  1  0  0  0  0
 60 74  1  0  0  0  0
 61 64  1  0  0  0  0
 61 73  1  0  0  0  0
 62 75  1  0  0  0  0
 63 85  1  0  0  0  0
 66 67  1  0  0  0  0
M  CHG  1  75   1
M  ISO  4  37 100  58 101  74 100  82 101
M  END
> <Batch ID>
0109

> <Smiles>
CCC(F)Cc1cc([101CH2:1][101O:1]c2ccc3c(c2)CN(C(=O)C(NC(=O)C(C)NC)C(C)(C)C)C(C(=O)NC2CCCc4ccccc42)C3)ncc1CC[100NH:0][100C:0](=O)N1CCCC(n2nc(-c3ccc(Oc4ccc(F)cc4F)cc3)c(C(N)=O)c2N)C1

> <Shape>
0.176

> <Color>
0.191

> <Negative vol penalty>
0.000

$$$$

  -OEChem-04052319563D

 84 92  0     1  0  0  0  0  0999 V2000
  -41.2185  -24.6176   13.3564 C   0  0  0  0  0  0  0  0  0  0  0  0
  -40.1574  -23.9482   13.9576 C   0  0  0  0  0  0  0  0  0  0  0  0
  -22.9920   -9.8713   19.9828 C   0  0  0  0  0  0  0  0  0  0  0  0
  -23.7208   -9.9306   22.2855 C   0  0  0  0  0  0  0  0  0  0  0  0
  -40.9981  -25.8333   12.7105 C   0  0  0  0  0  0  0  0  0  0  0  0
  -38.8753  -24.4948   13.9141 C   0  0  0  0  0  0  0  0  0  0  0  0
  -33.5826  -21.4403   13.5111 C   0  0  0  0  0  0  0  0  0  0  0  0
  -22.2326   -8.7328   20.2524 C   0  0  0  0  0  0  0  0  0  0  0  0
  -22.9614   -8.7921   22.5551 C   0  0  0  0  0  0  0  0  0  0  0  0
  -32.6420  -21.0630   14.4687 C   0  0  0  0  0  0  0  0  0  0  0  0
  -23.2245   -5.4538   22.0887 C   0  0  0  0  0  0  0  0  0  0  0  0
  -23.8193   -4.4414   22.8415 C   0  0  0  0  0  0  0  0  0  0  0  0
  -31.3386  -23.0264   13.9532 C   0  0  0  0  0  0  0  0  0  0  0  0
  -29.3628  -18.6087   20.8007 C   0  0  0  0  0  0  0  0  0  0  0  0
  -22.0969   -4.6772   24.5193 C   0  0  0  0  0  0  0  0  0  0  0  0
  -31.4468  -19.1998   19.1413 C   0  0  0  0  0  0  0  0  0  0  0  0
  -23.7361  -10.4702   20.9993 C   0  0  0  0  0  0  0  0  0  0  0  0
  -24.1063  -12.9877   20.8182 C   0  0  0  0  0  0  0  0  0  0  0  0
  -39.7109  -26.3904   12.6508 C   0  0  0  0  0  0  0  0  0  0  0  0
  -33.4134  -22.6211   12.7739 C   0  0  0  0  0  0  0  0  0  0  0  0
  -38.6377  -25.7199   13.2680 C   0  0  0  0  0  0  0  0  0  0  0  0
  -32.2771  -23.4151   12.9851 C   0  0  0  0  0  0  0  0  0  0  0  0
  -29.2142  -19.6123   19.8498 C   0  0  0  0  0  0  0  0  0  0  0  0
  -30.2712  -19.9196   19.0005 C   0  0  0  0  0  0  0  0  0  0  0  0
  -22.2173   -8.1932   21.5386 C   0  0  0  0  0  0  0  0  0  0  0  0
  -31.5213  -21.8576   14.6919 C   0  0  0  0  0  0  0  0  0  0  0  0
  -22.0659   -6.0780   22.5511 C   0  0  0  0  0  0  0  0  0  0  0  0
  -23.2555   -4.0531   24.0568 C   0  0  0  0  0  0  0  0  0  0  0  0
  -21.5021   -5.6896   23.7664 C   0  0  0  0  0  0  0  0  0  0  0  0
  -24.5212  -11.6460   20.7212 C   0  0  0  0  0  0  0  0  0  0  0  0
  -30.5789  -17.9475   20.8608 C   0  0  0  0  0  0  0  0  0  0  0  0
  -25.2112  -13.7162   20.4506 C   0  0  0  0  0  0  0  0  0  0  0  0
  -22.8359  -13.5273   21.2060 C   0  0  0  0  0  0  0  0  0  0  0  0
  -35.0525  -25.3270   12.4651 C   0  0  0  0  0  0  0  0  0  0  0  0
  -32.8390  -25.9506   10.1773 C   0  0  0  0  0  0  0  0  0  0  0  0
  -29.7142  -25.3696    8.9343 C   0  0  0  0  0  0  0  0  0  0  0  0
  -30.7024  -14.6835   20.6881 C   0  0  0  0  0  0  0  0  0  0  0  0
  -39.5301  -27.7302   11.9822 C   0  0  0  0  0  0  0  0  0  0  0  0
  -34.4235  -23.0002   11.7258 C   0  0  0  0  0  0  0  0  0  0  0  0
  -32.0387  -24.6817   12.2058 C   0  0  0  0  0  0  0  0  0  0  0  0
  -38.0749  -28.0572   11.6571 C   0  0  0  0  0  0  0  0  0  0  0  0
  -29.5720  -12.2490   18.3488 C   0  0  0  0  0  0  0  0  0  0  0  0
  -37.1797  -27.7569   12.8552 C   0  0  0  0  0  0  0  0  0  0  0  0
  -28.1258  -11.9815   18.7694 C   0  0  0  0  0  0  0  0  0  0  0  0
  -30.4751  -12.4919   19.5561 C   0  0  0  0  0  0  0  0  0  0  0  0
  -28.5626  -13.2785   20.8967 C   0  0  0  0  0  0  0  0  0  0  0  0
  -37.2281  -26.2685   13.2207 C   0  0  1  0  0  0  0  0  0  0  0  0
  -34.4111  -24.4895   11.3951 C   0  0  1  0  0  0  0  0  0  0  0  0
  -27.6027  -13.0831   19.7107 C   0  0  2  0  0  0  0  0  0  0  0  0
  -26.7208  -19.4254   19.4742 C   0  0  0  0  0  0  0  0  0  0  0  0
  -28.1756  -26.0541    7.0738 C   0  0  0  0  0  0  0  0  0  0  0  0
  -32.2845  -28.5873   11.6092 C   0  0  0  0  0  0  0  0  0  0  0  0
  -30.1536  -28.7660   10.3072 C   0  0  0  0  0  0  0  0  0  0  0  0
  -32.3442  -28.7476    9.1142 C   0  0  0  0  0  0  0  0  0  0  0  0
  -29.5772  -22.6091    7.8760 C   0  0  0  0  0  0  0  0  0  0  0  0
  -30.7743  -16.8650   21.8693 C   0  0  0  0  0  0  0  0  0  0  0  0
  -31.0764  -20.7471   16.7473 C   0  0  0  0  0  0  0  0  0  1  0  0
  -27.9160  -20.3436   19.7590 C   0  0  1  0  0  0  0  0  0  0  0  0
  -30.1646  -21.0006   17.9500 C   0  0  2  0  0  0  0  0  0  0  0  0
  -31.4816  -26.6110   10.1547 C   0  0  1  0  0  0  0  0  0  0  0  0
  -29.2309  -25.0583    7.5293 C   0  0  2  0  0  0  0  0  0  0  0  0
  -31.5712  -28.1552   10.3126 C   0  0  0  0  0  0  0  0  0  0  0  0
  -31.6285  -18.2181   20.0529 N   0  0  0  0  0  0  0  0  0  0  0  0
  -25.7906  -11.5262   20.3231 N   0  0  0  0  0  0  0  0  0  0  0  0
  -26.1828  -12.8021   20.1666 N   0  0  0  0  0  0  0  0  0  0  0  0
  -33.0581  -25.0132   11.1966 N   0  0  0  0  0  0  0  0  0  0  0  0
  -29.9235  -13.5488   20.4073 N   0  0  0  0  0  0  0  0  0  0  0  0
  -25.4367  -15.0430   20.3458 N   0  0  0  0  0  0  0  0  0  0  0  0
  -21.8099  -12.6377   21.5528 N   0  0  0  0  0  0  0  0  0  0  0  0
  -36.4146  -25.4967   12.3059 N   0  0  0  0  0  0  0  0  0  0  0  0
  -30.8349  -26.1728    8.9226 N   0  0  0  0  0  0  0  0  0  0  0  0
  -30.1018  -15.6402   21.4973 N   0  0  0  0  0  0  0  0  0  0  0  0
  -27.5896  -21.1335   20.9950 N   0  3  0  0  0  0  0  0  0  0  0  0
  -30.4818  -22.3582   18.4988 N   0  3  0  0  0  0  0  0  0  0  0  0
  -28.6410  -23.6908    7.4756 N   0  3  0  0  0  0  0  0  0  0  0  0
  -22.6119  -14.7614   21.2279 O   0  0  0  0  0  0  0  0  0  0  0  0
  -34.3624  -25.7866   13.3675 O   0  0  0  0  0  0  0  0  0  0  0  0
  -33.6716  -26.2501    9.3178 O   0  0  0  0  0  0  0  0  0  0  0  0
  -29.1515  -24.9459    9.9414 O   0  0  0  0  0  0  0  0  0  0  0  0
  -31.8462  -14.8354   20.2458 O   0  0  0  0  0  0  0  0  0  0  0  0
  -21.4762   -7.0824   21.8021 O   0  0  0  0  0  0  0  0  0  0  0  0
  -30.6021  -21.4920   15.6264 O   0  0  0  0  0  0  0  0  0  1  0  0
  -23.8260   -3.0798   24.7790 F   0  0  0  0  0  0  0  0  0  0  0  0
  -20.3885   -6.2847   24.2153 F   0  0  0  0  0  0  0  0  0  0  0  0
  1  2  1  0  0  0  0
  1  5  2  0  0  0  0
  2  6  2  0  0  0  0
  3  8  2  0  0  0  0
  3 17  1  0  0  0  0
  4  9  1  0  0  0  0
  4 17  2  0  0  0  0
  5 19  1  0  0  0  0
  6 21  1  0  0  0  0
  7 10  2  0  0  0  0
  7 20  1  0  0  0  0
  8 25  1  0  0  0  0
  9 25  2  0  0  0  0
 10 26  1  0  0  0  0
 11 12  2  0  0  0  0
 11 27  1  0  0  0  0
 12 28  1  0  0  0  0
 13 22  1  0  0  0  0
 13 26  2  0  0  0  0
 14 23  1  0  0  0  0
 14 31  2  0  0  0  0
 15 28  2  0  0  0  0
 15 29  1  0  0  0  0
 16 24  1  0  0  0  0
 16 63  2  0  0  0  0
 17 30  1  0  0  0  0
 18 30  1  0  0  0  0
 18 32  2  0  0  0  0
 18 33  1  0  0  0  0
 19 21  2  0  0  0  0
 19 38  1  0  0  0  0
 20 22  2  0  0  0  0
 20 39  1  0  0  0  0
 21 47  1  0  0  0  0
 22 40  1  0  0  0  0
 23 24  2  0  0  0  0
 23 58  1  0  0  0  0
 24 59  1  0  0  0  0
 25 81  1  0  0  0  0
 26 82  1  0  0  0  0
 27 29  2  0  0  0  0
 27 81  1  0  0  0  0
 28 83  1  0  0  0  0
 29 84  1  0  0  0  0
 30 64  2  0  0  0  0
 31 56  1  0  0  0  0
 31 63  1  0  0  0  0
 32 65  1  0  0  0  0
 32 68  1  0  0  0  0
 33 69  1  0  0  0  0
 33 76  2  0  0  0  0
 34 48  1  0  0  0  0
 34 70  1  0  0  0  0
 34 77  2  0  0  0  0
 35 60  1  0  0  0  0
 35 66  1  0  0  0  0
 35 78  2  0  0  0  0
 36 61  1  0  0  0  0
 36 71  1  0  0  0  0
 36 79  2  0  0  0  0
 37 67  1  0  0  0  0
 37 72  1  0  0  0  0
 37 80  2  0  0  0  0
 38 41  1  0  0  0  0
 39 48  1  0  0  0  0
 40 66  1  0  0  0  0
 41 43  1  0  0  0  0
 42 44  1  0  0  0  0
 42 45  1  0  0  0  0
 43 47  1  0  0  0  0
 44 49  1  0  0  0  0
 45 67  1  0  0  0  0
 46 49  1  0  0  0  0
 46 67  1  0  0  0  0
 47 70  1  0  0  0  0
 48 66  1  0  0  0  0
 49 65  1  0  0  0  0
 50 58  1  0  0  0  0
 51 61  1  0  0  0  0
 52 62  1  0  0  0  0
 53 62  1  0  0  0  0
 54 62  1  0  0  0  0
 55 75  1  0  0  0  0
 56 72  1  0  0  0  0
 57 59  1  0  0  0  0
 57 82  1  0  0  0  0
 58 73  1  0  0  0  0
 59 74  1  0  0  0  0
 60 62  1  0  0  0  0
 60 71  1  0  0  0  0
 61 75  1  0  0  0  0
 64 65  1  0  0  0  0
M  CHG  3  73   1  74   1  75   1
M  ISO  4  37 100  57 101  72 100  82 101
M  END
> <Batch ID>
0109

> <Smiles>
CNC(C)C(=O)NC(C(=O)N1Cc2cc([101O:1][101CH2:1]C(N)c3cnc(C[100NH:0][100C:0](=O)N4CCCC(n5nc(-c6ccc(Oc7ccc(F)cc7F)cc6)c(C(N)=O)c5N)C4)cc3C(C)N)ccc2CC1C(=O)NC1CCCc2ccccc21)C(C)(C)C

> <Shape>
0.211

> <Color>
0.189

> <Negative vol penalty>
0.000

$$$$

  -OEChem-04052319563D

 82 89  0     1  0  0  0  0  0999 V2000
  -17.2021  -30.2405   23.9177 C   0  0  0  0  0  0  0  0  0  0  0  0
  -18.5474  -30.5947   23.9201 C   0  0  0  0  0  0  0  0  0  0  0  0
  -20.7529  -18.0815   20.2556 C   0  0  0  0  0  0  0  0  0  0  0  0
  -21.7944  -18.5856   18.1347 C   0  0  0  0  0  0  0  0  0  0  0  0
  -16.8176  -28.9703   23.4903 C   0  0  0  0  0  0  0  0  0  0  0  0
  -19.5092  -29.6784   23.4960 C   0  0  0  0  0  0  0  0  0  0  0  0
  -25.8511  -29.3748   20.1786 C   0  0  0  0  0  0  0  0  0  0  0  0
  -19.5383  -17.8604   19.6066 C   0  0  0  0  0  0  0  0  0  0  0  0
  -20.5797  -18.3644   17.4857 C   0  0  0  0  0  0  0  0  0  0  0  0
  -27.1299  -28.8453   20.3460 C   0  0  0  0  0  0  0  0  0  0  0  0
  -17.8391  -17.5811   15.2287 C   0  0  0  0  0  0  0  0  0  0  0  0
  -17.8564  -16.8189   14.0607 C   0  0  0  0  0  0  0  0  0  0  0  0
  -26.3419  -26.7073   19.5541 C   0  0  0  0  0  0  0  0  0  0  0  0
  -18.7654  -14.9504   15.2935 C   0  0  0  0  0  0  0  0  0  0  0  0
  -21.8810  -18.4442   19.5196 C   0  0  0  0  0  0  0  0  0  0  0  0
  -24.1418  -17.7256   20.4579 C   0  0  0  0  0  0  0  0  0  0  0  0
  -17.7743  -28.0413   23.0516 C   0  0  0  0  0  0  0  0  0  0  0  0
  -24.8037  -28.5702   19.7072 C   0  0  0  0  0  0  0  0  0  0  0  0
  -19.1373  -28.3942   23.0636 C   0  0  0  0  0  0  0  0  0  0  0  0
  -25.0513  -27.2296   19.3792 C   0  0  0  0  0  0  0  0  0  0  0  0
  -19.4516  -18.0018   18.2217 C   0  0  0  0  0  0  0  0  0  0  0  0
  -27.3748  -27.5107   20.0365 C   0  0  0  0  0  0  0  0  0  0  0  0
  -18.2850  -17.0281   16.4291 C   0  0  0  0  0  0  0  0  0  0  0  0
  -18.3195  -15.5035   14.0930 C   0  0  0  0  0  0  0  0  0  0  0  0
  -18.7481  -15.7127   16.4615 C   0  0  0  0  0  0  0  0  0  0  0  0
  -23.1360  -18.6733   20.1895 C   0  0  0  0  0  0  0  0  0  0  0  0
  -25.1204  -18.4380   21.1069 C   0  0  0  0  0  0  0  0  0  0  0  0
  -24.1874  -16.3264   20.1483 C   0  0  0  0  0  0  0  0  0  0  0  0
  -22.0141  -27.6024   20.8841 C   0  0  0  0  0  0  0  0  0  0  0  0
  -21.6265  -26.3743   17.9069 C   0  0  0  0  0  0  0  0  0  0  0  0
  -23.0704  -25.2360   15.0318 C   0  0  0  0  0  0  0  0  0  0  0  0
  -28.3228  -22.9832   21.5879 C   0  0  0  0  0  0  0  0  0  0  0  0
  -17.3150  -26.6640   22.6434 C   0  0  0  0  0  0  0  0  0  0  0  0
  -23.4361  -29.1634   19.5068 C   0  0  0  0  0  0  0  0  0  0  0  0
  -23.9659  -26.3291   18.8505 C   0  0  0  0  0  0  0  0  0  0  0  0
  -18.3622  -25.8813   21.8554 C   0  0  0  0  0  0  0  0  0  0  0  0
  -25.0648  -23.1214   23.0172 C   0  0  0  0  0  0  0  0  0  0  0  0
  -19.7253  -25.9821   22.5327 C   0  0  0  0  0  0  0  0  0  0  0  0
  -24.3542  -21.9024   22.4264 C   0  0  0  0  0  0  0  0  0  0  0  0
  -26.0108  -23.7675   22.0075 C   0  0  0  0  0  0  0  0  0  0  0  0
  -26.2827  -21.6294   20.8124 C   0  0  0  0  0  0  0  0  0  0  0  0
  -20.2080  -27.4365   22.5874 C   0  0  1  0  0  0  0  0  0  0  0  0
  -22.3253  -28.1177   19.5074 C   0  0  1  0  0  0  0  0  0  0  0  0
  -25.3598  -20.9106   21.8114 C   0  0  2  0  0  0  0  0  0  0  0  0
  -22.4971  -24.2620   12.7913 C   0  0  0  0  0  0  0  0  0  0  0  0
  -30.9645  -27.2877   18.5238 C   0  0  0  0  0  0  0  0  0  0  0  0
  -21.0429  -23.6863   19.2274 C   0  0  0  0  0  0  0  0  0  0  0  0
  -21.4203  -22.5924   17.0073 C   0  0  0  0  0  0  0  0  0  0  0  0
  -19.5658  -24.2374   17.2860 C   0  0  0  0  0  0  0  0  0  0  0  0
  -31.1696  -20.8164   20.4285 C   0  0  0  0  0  0  0  0  0  0  0  0
  -31.0028  -22.0740   22.5818 C   0  0  0  0  0  0  0  0  0  0  0  0
  -30.5100  -24.6337   16.9065 C   0  0  0  0  0  0  0  0  0  0  0  0
  -32.6056  -24.6781   18.2646 C   0  0  0  0  0  0  0  0  0  0  0  0
  -24.3196  -27.5032   13.5971 C   0  0  0  0  0  0  0  0  0  0  0  0
  -31.0667  -23.3594   20.4433 C   0  0  0  0  0  0  0  0  0  0  0  0
  -29.0043  -25.9323   19.3228 C   0  0  0  0  0  0  0  0  0  1  0  0
  -21.9561  -25.0601   17.2413 C   0  0  1  0  0  0  0  0  0  0  0  0
  -22.7809  -25.5358   13.5721 C   0  0  2  0  0  0  0  0  0  0  0  0
  -30.5340  -25.9370   19.1270 C   0  0  1  0  0  0  0  0  0  0  0  0
  -21.0165  -23.9102   17.7023 C   0  0  0  0  0  0  0  0  0  0  0  0
  -30.5755  -22.0598   21.1065 C   0  0  0  0  0  0  0  0  0  0  0  0
  -31.0707  -24.6997   18.3357 C   0  0  0  0  0  0  0  0  0  0  0  0
  -23.4469  -19.8946   20.6319 N   0  0  0  0  0  0  0  0  0  0  0  0
  -24.6591  -19.7192   21.1850 N   0  0  0  0  0  0  0  0  0  0  0  0
  -22.6441  -26.9539   18.6778 N   0  0  0  0  0  0  0  0  0  0  0  0
  -26.9395  -22.7739   21.4632 N   0  0  0  0  0  0  0  0  0  0  0  0
  -26.3219  -18.0873   21.6127 N   0  0  0  0  0  0  0  0  0  0  0  0
  -23.0974  -15.7546   19.4780 N   0  0  0  0  0  0  0  0  0  0  0  0
  -20.7187  -27.8484   21.2975 N   0  0  0  0  0  0  0  0  0  0  0  0
  -21.9310  -25.3125   15.8046 N   0  0  0  0  0  0  0  0  0  0  0  0
  -29.1324  -21.9900   21.0504 N   0  0  0  0  0  0  0  0  0  0  0  0
  -23.9446  -26.2228   12.9437 N   0  3  0  0  0  0  0  0  0  0  0  0
  -30.6519  -23.4331   19.0231 N   0  3  0  0  0  0  0  0  0  0  0  0
  -25.1585  -15.6012   20.4714 O   0  0  0  0  0  0  0  0  0  0  0  0
  -22.8844  -27.0231   21.5234 O   0  0  0  0  0  0  0  0  0  0  0  0
  -20.5098  -26.8720   17.7428 O   0  0  0  0  0  0  0  0  0  0  0  0
  -24.1941  -24.9578   15.4446 O   0  0  0  0  0  0  0  0  0  0  0  0
  -28.8010  -23.9787   22.1422 O   0  0  0  0  0  0  0  0  0  0  0  0
  -18.2665  -17.7858   17.5880 O   0  0  0  0  0  0  0  0  0  0  0  0
  -28.6220  -26.9912   20.1996 O   0  0  0  0  0  0  0  0  0  1  0  0
  -18.3346  -14.7712   12.9716 F   0  0  0  0  0  0  0  0  0  0  0  0
  -19.1767  -15.1755   17.6120 F   0  0  0  0  0  0  0  0  0  0  0  0
  1  2  1  0  0  0  0
  1  5  2  0  0  0  0
  2  6  2  0  0  0  0
  3  8  2  0  0  0  0
  3 15  1  0  0  0  0
  4  9  1  0  0  0  0
  4 15  2  0  0  0  0
  5 17  1  0  0  0  0
  6 19  1  0  0  0  0
  7 10  2  0  0  0  0
  7 18  1  0  0  0  0
  8 21  1  0  0  0  0
  9 21  2  0  0  0  0
 10 22  1  0  0  0  0
 11 12  2  0  0  0  0
 11 23  1  0  0  0  0
 12 24  1  0  0  0  0
 13 20  1  0  0  0  0
 13 22  2  0  0  0  0
 14 24  2  0  0  0  0
 14 25  1  0  0  0  0
 15 26  1  0  0  0  0
 16 26  1  0  0  0  0
 16 27  2  0  0  0  0
 16 28  1  0  0  0  0
 17 19  2  0  0  0  0
 17 33  1  0  0  0  0
 18 20  2  0  0  0  0
 18 34  1  0  0  0  0
 19 42  1  0  0  0  0
 20 35  1  0  0  0  0
 21 79  1  0  0  0  0
 22 80  1  0  0  0  0
 23 25  2  0  0  0  0
 23 79  1  0  0  0  0
 24 81  1  0  0  0  0
 25 82  1  0  0  0  0
 26 63  2  0  0  0  0
 27 64  1  0  0  0  0
 27 67  1  0  0  0  0
 28 68  1  0  0  0  0
 28 74  2  0  0  0  0
 29 43  1  0  0  0  0
 29 69  1  0  0  0  0
 29 75  2  0  0  0  0
 30 57  1  0  0  0  0
 30 65  1  0  0  0  0
 30 76  2  0  0  0  0
 31 58  1  0  0  0  0
 31 70  1  0  0  0  0
 31 77  2  0  0  0  0
 32 66  1  0  0  0  0
 32 71  1  0  0  0  0
 32 78  2  0  0  0  0
 33 36  1  0  0  0  0
 34 43  1  0  0  0  0
 35 65  1  0  0  0  0
 36 38  1  0  0  0  0
 37 39  1  0  0  0  0
 37 40  1  0  0  0  0
 38 42  1  0  0  0  0
 39 44  1  0  0  0  0
 40 66  1  0  0  0  0
 41 44  1  0  0  0  0
 41 66  1  0  0  0  0
 42 69  1  0  0  0  0
 43 65  1  0  0  0  0
 44 64  1  0  0  0  0
 45 58  1  0  0  0  0
 46 59  1  0  0  0  0
 47 60  1  0  0  0  0
 48 60  1  0  0  0  0
 49 60  1  0  0  0  0
 50 61  1  0  0  0  0
 51 61  1  0  0  0  0
 52 62  1  0  0  0  0
 53 62  1  0  0  0  0
 54 72  1  0  0  0  0
 55 61  1  0  0  0  0
 55 73  1  0  0  0  0
 56 59  1  0  0  0  0
 56 80  1  0  0  0  0
 57 60  1  0  0  0  0
 57 70  1  0  0  0  0
 58 72  1  0  0  0  0
 59 62  1  0  0  0  0
 61 71  1  0  0  0  0
 62 73  1  0  0  0  0
 63 64  1  0  0  0  0
M  CHG  2  72   1  73   1
M  ISO  4  32 100  56 101  71 100  80 101
M  END
> <Batch ID>
0109

> <Smiles>
CNC(C)C(=O)NC(C(=O)N1Cc2cc([101O:1][101CH2:1]C(C)C(C)(C)NCC(C)(C)[100NH:0][100C:0](=O)N3CCCC(n4nc(-c5ccc(Oc6ccc(F)cc6F)cc5)c(C(N)=O)c4N)C3)ccc2CC1C(=O)NC1CCCc2ccccc21)C(C)(C)C

> <Shape>
0.173

> <Color>
0.073

> <Negative vol penalty>
0.000

$$$$

  -OEChem-04052319563D

 80 87  0     1  0  0  0  0  0999 V2000
  -16.9033  -29.1522   24.2465 C   0  0  0  0  0  0  0  0  0  0  0  0
  -17.3204  -28.1948   23.3274 C   0  0  0  0  0  0  0  0  0  0  0  0
  -25.1257  -15.7338   21.6902 C   0  0  0  0  0  0  0  0  0  0  0  0
  -24.7901  -15.8672   19.3013 C   0  0  0  0  0  0  0  0  0  0  0  0
  -17.5999  -30.3542   24.3640 C   0  0  0  0  0  0  0  0  0  0  0  0
  -18.4338  -28.4394   22.5243 C   0  0  0  0  0  0  0  0  0  0  0  0
  -22.5524  -24.3389   20.5933 C   0  0  0  0  0  0  0  0  0  0  0  0
  -24.0004  -14.9174   21.8027 C   0  0  0  0  0  0  0  0  0  0  0  0
  -23.6648  -15.0506   19.4138 C   0  0  0  0  0  0  0  0  0  0  0  0
  -22.6966  -23.6493   19.3902 C   0  0  0  0  0  0  0  0  0  0  0  0
  -21.4257  -12.5031   22.6731 C   0  0  0  0  0  0  0  0  0  0  0  0
  -21.5249  -11.3698   23.4801 C   0  0  0  0  0  0  0  0  0  0  0  0
  -24.2680  -25.3147   18.6309 C   0  0  0  0  0  0  0  0  0  0  0  0
  -23.3152  -10.5356   22.0887 C   0  0  0  0  0  0  0  0  0  0  0  0
  -25.5205  -16.2088   20.4395 C   0  0  0  0  0  0  0  0  0  0  0  0
  -28.0129  -16.6433   20.1128 C   0  0  0  0  0  0  0  0  0  0  0  0
  -18.7282  -30.6096   23.5688 C   0  0  0  0  0  0  0  0  0  0  0  0
  -23.2579  -25.5294   20.8203 C   0  0  0  0  0  0  0  0  0  0  0  0
  -19.1454  -29.6465   22.6304 C   0  0  0  0  0  0  0  0  0  0  0  0
  -24.1330  -26.0161   19.8388 C   0  0  0  0  0  0  0  0  0  0  0  0
  -23.2700  -14.5757   20.6645 C   0  0  0  0  0  0  0  0  0  0  0  0
  -23.5522  -24.1387   18.4076 C   0  0  0  0  0  0  0  0  0  0  0  0
  -22.2712  -12.6527   21.5737 C   0  0  0  0  0  0  0  0  0  0  0  0
  -22.4696  -10.3861   23.1880 C   0  0  0  0  0  0  0  0  0  0  0  0
  -23.2160  -11.6690   21.2816 C   0  0  0  0  0  0  0  0  0  0  0  0
  -26.6825  -17.0528   20.3227 C   0  0  0  0  0  0  0  0  0  0  0  0
  -28.7307  -17.8138   20.0764 C   0  0  0  0  0  0  0  0  0  0  0  0
  -28.5517  -15.3230   19.9638 C   0  0  0  0  0  0  0  0  0  0  0  0
  -22.4401  -28.5523   21.3653 C   0  0  0  0  0  0  0  0  0  0  0  0
  -25.6303  -28.9250   21.8198 C   0  0  0  0  0  0  0  0  0  0  0  0
  -28.7947  -27.8044   21.2056 C   0  0  0  0  0  0  0  0  0  0  0  0
  -27.2597  -23.4588   18.7270 C   0  0  0  0  0  0  0  0  0  0  0  0
  -19.4208  -31.9431   23.6984 C   0  0  0  0  0  0  0  0  0  0  0  0
  -23.1117  -26.2471   22.1341 C   0  0  0  0  0  0  0  0  0  0  0  0
  -24.9285  -27.2789   20.0413 C   0  0  0  0  0  0  0  0  0  0  0  0
  -20.8135  -31.9694   23.0739 C   0  0  0  0  0  0  0  0  0  0  0  0
  -28.6864  -22.2876   21.7716 C   0  0  0  0  0  0  0  0  0  0  0  0
  -20.7884  -31.3363   21.6863 C   0  0  0  0  0  0  0  0  0  0  0  0
  -28.4547  -20.7762   21.7265 C   0  0  0  0  0  0  0  0  0  0  0  0
  -27.5184  -23.0562   21.1575 C   0  0  0  0  0  0  0  0  0  0  0  0
  -26.9195  -21.1262   19.7467 C   0  0  0  0  0  0  0  0  0  0  0  0
  -20.3633  -29.8647   21.7589 C   0  0  1  0  0  0  0  0  0  0  0  0
  -23.4876  -27.7234   22.0535 C   0  0  1  0  0  0  0  0  0  0  0  0
  -28.0956  -20.3062   20.3041 C   0  0  2  0  0  0  0  0  0  0  0  0
  -31.2944  -27.6738   21.3845 C   0  0  0  0  0  0  0  0  0  0  0  0
  -25.8258  -19.9153   15.0619 C   0  0  0  0  0  0  0  0  0  0  0  0
  -25.6648  -21.3097   12.9634 C   0  0  0  0  0  0  0  0  0  0  0  0
  -22.9132  -25.2912   15.8621 C   0  0  0  0  0  0  0  0  0  0  0  0
  -25.5321  -31.1816   19.7684 C   0  0  0  0  0  0  0  0  0  0  0  0
  -28.0240  -31.0268   19.5821 C   0  0  0  0  0  0  0  0  0  0  0  0
  -26.9737  -31.6435   21.7591 C   0  0  0  0  0  0  0  0  0  0  0  0
  -28.6491  -25.9543   23.5110 C   0  0  0  0  0  0  0  0  0  0  0  0
  -26.9793  -23.7012   16.2730 C   0  0  0  0  0  0  0  0  0  0  0  0
  -26.6469  -22.8753   15.0444 C   0  0  0  0  0  0  0  0  0  0  0  0
  -24.1993  -23.3057   14.8886 C   0  0  0  0  0  0  0  0  0  0  0  0
  -26.8046  -29.2602   20.9324 C   0  0  1  0  0  0  0  0  0  0  0  0
  -29.9737  -27.5595   22.1299 C   0  0  2  0  0  0  0  0  0  0  0  0
  -25.1028  -21.0483   14.3515 C   0  0  0  0  0  0  0  0  0  0  0  0
  -23.9988  -24.2442   16.0741 C   0  0  2  0  0  0  0  0  0  1  0  0
  -26.8173  -30.7552   20.5056 C   0  0  0  0  0  0  0  0  0  0  0  0
  -26.5596  -18.3797   20.4135 N   0  0  0  0  0  0  0  0  0  0  0  0
  -27.8220  -18.8141   20.2600 N   0  0  0  0  0  0  0  0  0  0  0  0
  -24.7465  -27.9480   21.3400 N   0  0  0  0  0  0  0  0  0  0  0  0
  -27.2300  -22.5631   19.8086 N   0  0  0  0  0  0  0  0  0  0  0  0
  -30.0442  -18.0745   19.9057 N   0  0  0  0  0  0  0  0  0  0  0  0
  -27.6740  -14.2322   20.0270 N   0  0  0  0  0  0  0  0  0  0  0  0
  -21.4645  -29.0423   22.2123 N   0  0  0  0  0  0  0  0  0  0  0  0
  -27.9978  -28.8354   21.6565 N   0  0  0  0  0  0  0  0  0  0  0  0
  -26.9809  -22.9081   17.4821 N   0  0  0  0  0  0  0  0  0  0  0  0
  -29.8884  -26.1975   22.7286 N   0  3  0  0  0  0  0  0  0  0  0  0
  -25.2564  -22.3040   15.1741 N   0  3  1  0  0  0  0  0  0  0  0  0
  -29.7775  -15.1158   19.7966 O   0  0  0  0  0  0  0  0  0  0  0  0
  -22.5126  -28.7350   20.1558 O   0  0  0  0  0  0  0  0  0  0  0  0
  -25.5057  -29.5035   22.9022 O   0  0  0  0  0  0  0  0  0  0  0  0
  -28.6022  -27.1493   20.1837 O   0  0  0  0  0  0  0  0  0  0  0  0
  -27.5209  -24.6592   18.8601 O   0  0  0  0  0  0  0  0  0  0  0  0
  -22.1720  -13.7788   20.7739 O   0  0  0  0  0  0  0  0  0  0  0  0
  -23.6942  -23.4680   17.2321 O   0  0  0  0  0  0  0  0  0  1  0  0
  -22.5658   -9.2986   23.9640 F   0  0  0  0  0  0  0  0  0  0  0  0
  -24.0318  -11.8076   20.2276 F   0  0  0  0  0  0  0  0  0  0  0  0
  1  2  1  0  0  0  0
  1  5  2  0  0  0  0
  2  6  2  0  0  0  0
  3  8  2  0  0  0  0
  3 15  1  0  0  0  0
  4  9  1  0  0  0  0
  4 15  2  0  0  0  0
  5 17  1  0  0  0  0
  6 19  1  0  0  0  0
  7 10  2  0  0  0  0
  7 18  1  0  0  0  0
  8 21  1  0  0  0  0
  9 21  2  0  0  0  0
 10 22  1  0  0  0  0
 11 12  2  0  0  0  0
 11 23  1  0  0  0  0
 12 24  1  0  0  0  0
 13 20  1  0  0  0  0
 13 22  2  0  0  0  0
 14 24  2  0  0  0  0
 14 25  1  0  0  0  0
 15 26  1  0  0  0  0
 16 26  1  0  0  0  0
 16 27  2  0  0  0  0
 16 28  1  0  0  0  0
 17 19  2  0  0  0  0
 17 33  1  0  0  0  0
 18 20  2  0  0  0  0
 18 34  1  0  0  0  0
 19 42  1  0  0  0  0
 20 35  1  0  0  0  0
 21 77  1  0  0  0  0
 22 78  1  0  0  0  0
 23 25  2  0  0  0  0
 23 77  1  0  0  0  0
 24 79  1  0  0  0  0
 25 80  1  0  0  0  0
 26 61  2  0  0  0  0
 27 62  1  0  0  0  0
 27 65  1  0  0  0  0
 28 66  1  0  0  0  0
 28 72  2  0  0  0  0
 29 43  1  0  0  0  0
 29 67  1  0  0  0  0
 29 73  2  0  0  0  0
 30 56  1  0  0  0  0
 30 63  1  0  0  0  0
 30 74  2  0  0  0  0
 31 57  1  0  0  0  0
 31 68  1  0  0  0  0
 31 75  2  0  0  0  0
 32 64  1  0  0  0  0
 32 69  1  0  0  0  0
 32 76  2  0  0  0  0
 33 36  1  0  0  0  0
 34 43  1  0  0  0  0
 35 63  1  0  0  0  0
 36 38  1  0  0  0  0
 37 39  1  0  0  0  0
 37 40  1  0  0  0  0
 38 42  1  0  0  0  0
 39 44  1  0  0  0  0
 40 64  1  0  0  0  0
 41 44  1  0  0  0  0
 41 64  1  0  0  0  0
 42 67  1  0  0  0  0
 43 63  1  0  0  0  0
 44 62  1  0  0  0  0
 45 57  1  0  0  0  0
 46 58  1  0  0  0  0
 47 58  1  0  0  0  0
 48 59  1  0  0  0  0
 49 60  1  0  0  0  0
 50 60  1  0  0  0  0
 51 60  1  0  0  0  0
 52 70  1  0  0  0  0
 53 54  1  0  0  0  0
 53 69  1  0  0  0  0
 54 71  1  0  0  0  0
 55 59  1  0  0  0  0
 55 71  1  0  0  0  0
 56 60  1  0  0  0  0
 56 68  1  0  0  0  0
 57 70  1  0  0  0  0
 58 71  1  0  0  0  0
 59 78  1  0  0  0  0
 61 62  1  0  0  0  0
M  CHG  2  70   1  71   1
M  ISO  4  32 100  59 101  69 100  78 101
M  END
> <Batch ID>
0109

> <Smiles>
CNC(C)C(=O)NC(C(=O)N1Cc2cc([101O:1][101CH:1](C)CN(CC[100NH:0][100C:0](=O)N3CCCC(n4nc(-c5ccc(Oc6ccc(F)cc6F)cc5)c(C(N)=O)c4N)C3)C(C)C)ccc2CC1C(=O)NC1CCCc2ccccc21)C(C)(C)C

> <Shape>
0.227

> <Color>
0.076

> <Negative vol penalty>
0.000

$$$$

  -OEChem-04052319563D

 77 84  0     1  0  0  0  0  0999 V2000
  -21.9452  -11.3217   19.5706 C   0  0  0  0  0  0  0  0  0  0  0  0
  -21.6902  -12.4590   20.3300 C   0  0  0  0  0  0  0  0  0  0  0  0
  -24.9969  -29.3938   19.5804 C   0  0  0  0  0  0  0  0  0  0  0  0
  -25.7255  -27.3339   20.6114 C   0  0  0  0  0  0  0  0  0  0  0  0
  -23.2589  -10.9023   19.3649 C   0  0  0  0  0  0  0  0  0  0  0  0
  -22.7488  -13.1771   20.8852 C   0  0  0  0  0  0  0  0  0  0  0  0
  -22.2354  -18.1780   20.2754 C   0  0  0  0  0  0  0  0  0  0  0  0
  -26.3029  -29.8811   19.6309 C   0  0  0  0  0  0  0  0  0  0  0  0
  -27.0315  -27.8211   20.6619 C   0  0  0  0  0  0  0  0  0  0  0  0
  -21.3509  -18.8361   21.1288 C   0  0  0  0  0  0  0  0  0  0  0  0
  -29.6311  -28.1993   18.5359 C   0  0  0  0  0  0  0  0  0  0  0  0
  -30.6572  -27.3407   18.1416 C   0  0  0  0  0  0  0  0  0  0  0  0
  -23.2094  -19.5651   22.4830 C   0  0  0  0  0  0  0  0  0  0  0  0
  -31.6502  -27.5193   20.3368 C   0  0  0  0  0  0  0  0  0  0  0  0
  -24.7082  -28.1203   20.0707 C   0  0  0  0  0  0  0  0  0  0  0  0
  -22.7647  -26.8834   18.9750 C   0  0  0  0  0  0  0  0  0  0  0  0
  -24.3346  -11.6211   19.9098 C   0  0  0  0  0  0  0  0  0  0  0  0
  -23.6150  -18.1995   20.5259 C   0  0  0  0  0  0  0  0  0  0  0  0
  -24.0780  -12.7662   20.6878 C   0  0  0  0  0  0  0  0  0  0  0  0
  -24.1095  -18.9087   21.6298 C   0  0  0  0  0  0  0  0  0  0  0  0
  -27.3202  -29.0947   20.1716 C   0  0  0  0  0  0  0  0  0  0  0  0
  -21.8375  -19.5273   22.2345 C   0  0  0  0  0  0  0  0  0  0  0  0
  -29.6146  -28.7180   19.8306 C   0  0  0  0  0  0  0  0  0  0  0  0
  -31.6667  -27.0006   19.0420 C   0  0  0  0  0  0  0  0  0  0  0  0
  -30.6241  -28.3780   20.7311 C   0  0  0  0  0  0  0  0  0  0  0  0
  -23.3592  -27.6166   20.0194 C   0  0  0  0  0  0  0  0  0  0  0  0
  -21.4831  -26.6460   19.4083 C   0  0  0  0  0  0  0  0  0  0  0  0
  -23.3211  -26.4551   17.7249 C   0  0  0  0  0  0  0  0  0  0  0  0
  -25.8146  -15.9936   21.1576 C   0  0  0  0  0  0  0  0  0  0  0  0
  -27.8465  -18.5109   20.9193 C   0  0  0  0  0  0  0  0  0  0  0  0
  -28.3107  -21.8870   21.1031 C   0  0  0  0  0  0  0  0  0  0  0  0
  -19.0133  -26.3277   24.8535 C   0  0  0  0  0  0  0  0  0  0  0  0
  -25.7351  -11.1022   19.6997 C   0  0  0  0  0  0  0  0  0  0  0  0
  -24.5581  -17.5070   19.5807 C   0  0  0  0  0  0  0  0  0  0  0  0
  -25.5834  -18.9792   21.9315 C   0  0  0  0  0  0  0  0  0  0  0  0
  -26.8189  -12.1315   20.0099 C   0  0  0  0  0  0  0  0  0  0  0  0
  -18.0693  -28.5039   22.1984 C   0  0  0  0  0  0  0  0  0  0  0  0
  -26.5316  -12.8257   21.3374 C   0  0  0  0  0  0  0  0  0  0  0  0
  -19.2643  -28.4572   21.2447 C   0  0  0  0  0  0  0  0  0  0  0  0
  -18.5101  -28.4387   23.6591 C   0  0  0  0  0  0  0  0  0  0  0  0
  -20.5783  -27.2509   23.0383 C   0  0  0  0  0  0  0  0  0  0  0  0
  -25.2008  -13.5858   21.2859 C   0  0  1  0  0  0  0  0  0  0  0  0
  -25.9003  -17.1646   20.2200 C   0  0  1  0  0  0  0  0  0  0  0  0
  -20.1807  -27.2576   21.5523 C   0  0  2  0  0  0  0  0  0  0  0  0
  -30.0896  -23.6449   20.8969 C   0  0  0  0  0  0  0  0  0  0  0  0
  -20.1046  -21.6405   21.3698 C   0  0  0  0  0  0  0  0  0  0  0  0
  -28.9182  -17.7459   23.6718 C   0  0  0  0  0  0  0  0  0  0  0  0
  -29.9664  -20.0149   23.8174 C   0  0  0  0  0  0  0  0  0  0  0  0
  -30.6700  -18.4306   22.0236 C   0  0  0  0  0  0  0  0  0  0  0  0
  -26.9209  -23.1929   18.8399 C   0  0  0  0  0  0  0  0  0  0  0  0
  -19.6458  -24.1934   25.9507 C   0  0  0  0  0  0  0  0  0  0  0  0
  -18.8361  -23.0578   25.3532 C   0  0  0  0  0  0  0  0  0  0  0  0
  -18.9117  -21.2770   23.6034 C   0  0  0  0  0  0  0  0  0  0  0  0
  -28.3994  -19.5335   21.8825 C   0  0  1  0  0  0  0  0  0  0  0  0
  -29.0086  -22.8600   20.1701 C   0  0  2  0  0  0  0  0  0  0  0  0
  -19.7697  -20.6722   22.4968 C   0  0  2  0  0  0  0  0  0  1  0  0
  -29.4605  -18.9284   22.8445 C   0  0  0  0  0  0  0  0  0  0  0  0
  -22.5239  -27.8310   21.0393 N   0  0  0  0  0  0  0  0  0  0  0  0
  -21.3914  -27.2290   20.6379 N   0  0  0  0  0  0  0  0  0  0  0  0
  -26.4648  -18.2808   20.9813 N   0  0  0  0  0  0  0  0  0  0  0  0
  -19.3750  -27.2781   23.8845 N   0  0  0  0  0  0  0  0  0  0  0  0
  -20.4370  -25.9976   18.8537 N   0  0  0  0  0  0  0  0  0  0  0  0
  -24.6532  -26.7840   17.4389 N   0  0  0  0  0  0  0  0  0  0  0  0
  -25.3578  -14.8314   20.5660 N   0  0  0  0  0  0  0  0  0  0  0  0
  -28.8930  -20.6377   21.0667 N   0  0  0  0  0  0  0  0  0  0  0  0
  -19.8850  -25.2554   24.9991 N   0  0  0  0  0  0  0  0  0  0  0  0
  -28.0274  -23.8271   19.6018 N   0  3  0  0  0  0  0  0  0  0  0  0
  -19.5875  -22.4426   24.2256 N   0  3  0  0  0  0  0  0  0  0  0  0
  -22.6518  -25.8144   16.8794 O   0  0  0  0  0  0  0  0  0  0  0  0
  -26.1405  -16.1337   22.3306 O   0  0  0  0  0  0  0  0  0  0  0  0
  -28.6112  -17.9428   20.1357 O   0  0  0  0  0  0  0  0  0  0  0  0
  -27.3477  -22.2045   21.7976 O   0  0  0  0  0  0  0  0  0  0  0  0
  -17.9868  -26.4246   25.5344 O   0  0  0  0  0  0  0  0  0  0  0  0
  -28.5948  -29.5697   20.2208 O   0  0  0  0  0  0  0  0  0  0  0  0
  -20.9763  -20.1699   23.0695 O   0  0  0  0  0  0  0  0  0  1  0  0
  -32.6511  -26.1748   18.6637 F   0  0  0  0  0  0  0  0  0  0  0  0
  -30.6130  -28.8722   21.9766 F   0  0  0  0  0  0  0  0  0  0  0  0
  1  2  1  0  0  0  0
  1  5  2  0  0  0  0
  2  6  2  0  0  0  0
  3  8  2  0  0  0  0
  3 15  1  0  0  0  0
  4  9  1  0  0  0  0
  4 15  2  0  0  0  0
  5 17  1  0  0  0  0
  6 19  1  0  0  0  0
  7 10  2  0  0  0  0
  7 18  1  0  0  0  0
  8 21  1  0  0  0  0
  9 21  2  0  0  0  0
 10 22  1  0  0  0  0
 11 12  2  0  0  0  0
 11 23  1  0  0  0  0
 12 24  1  0  0  0  0
 13 20  1  0  0  0  0
 13 22  2  0  0  0  0
 14 24  2  0  0  0  0
 14 25  1  0  0  0  0
 15 26  1  0  0  0  0
 16 26  1  0  0  0  0
 16 27  2  0  0  0  0
 16 28  1  0  0  0  0
 17 19  2  0  0  0  0
 17 33  1  0  0  0  0
 18 20  2  0  0  0  0
 18 34  1  0  0  0  0
 19 42  1  0  0  0  0
 20 35  1  0  0  0  0
 21 74  1  0  0  0  0
 22 75  1  0  0  0  0
 23 25  2  0  0  0  0
 23 74  1  0  0  0  0
 24 76  1  0  0  0  0
 25 77  1  0  0  0  0
 26 58  2  0  0  0  0
 27 59  1  0  0  0  0
 27 62  1  0  0  0  0
 28 63  1  0  0  0  0
 28 69  2  0  0  0  0
 29 43  1  0  0  0  0
 29 64  1  0  0  0  0
 29 70  2  0  0  0  0
 30 54  1  0  0  0  0
 30 60  1  0  0  0  0
 30 71  2  0  0  0  0
 31 55  1  0  0  0  0
 31 65  1  0  0  0  0
 31 72  2  0  0  0  0
 32 61  1  0  0  0  0
 32 66  1  0  0  0  0
 32 73  2  0  0  0  0
 33 36  1  0  0  0  0
 34 43  1  0  0  0  0
 35 60  1  0  0  0  0
 36 38  1  0  0  0  0
 37 39  1  0  0  0  0
 37 40  1  0  0  0  0
 38 42  1  0  0  0  0
 39 44  1  0  0  0  0
 40 61  1  0  0  0  0
 41 44  1  0  0  0  0
 41 61  1  0  0  0  0
 42 64  1  0  0  0  0
 43 60  1  0  0  0  0
 44 59  1  0  0  0  0
 45 55  1  0  0  0  0
 46 56  1  0  0  0  0
 47 57  1  0  0  0  0
 48 57  1  0  0  0  0
 49 57  1  0  0  0  0
 50 67  1  0  0  0  0
 51 52  1  0  0  0  0
 51 66  1  0  0  0  0
 52 68  1  0  0  0  0
 53 56  1  0  0  0  0
 53 68  1  0  0  0  0
 54 57  1  0  0  0  0
 54 65  1  0  0  0  0
 55 67  1  0  0  0  0
 56 75  1  0  0  0  0
 58 59  1  0  0  0  0
M  CHG  2  67   1  68   1
M  ISO  4  32 100  56 101  66 100  75 101
M  END
> <Batch ID>
0109

> <Smiles>
CNC(C)C(=O)NC(C(=O)N1Cc2cc([101O:1][101CH:1](C)CNCC[100NH:0][100C:0](=O)N3CCCC(n4nc(-c5ccc(Oc6ccc(F)cc6F)cc5)c(C(N)=O)c4N)C3)ccc2CC1C(=O)NC1CCCc2ccccc21)C(C)(C)C

> <Shape>
0.203

> <Color>
0.070

> <Negative vol penalty>
0.000

$$$$

  -OEChem-04052319563D

 82 90  0     1  0  0  0  0  0999 V2000
  -26.3362  -35.2169   23.1324 C   0  0  0  0  0  0  0  0  0  0  0  0
  -26.8280  -33.9330   22.9196 C   0  0  0  0  0  0  0  0  0  0  0  0
  -25.1693  -10.7619   22.9241 C   0  0  0  0  0  0  0  0  0  0  0  0
  -23.0104  -11.7966   22.5992 C   0  0  0  0  0  0  0  0  0  0  0  0
  -25.0407  -35.3945   23.6162 C   0  0  0  0  0  0  0  0  0  0  0  0
  -26.0249  -32.8260   23.1914 C   0  0  0  0  0  0  0  0  0  0  0  0
  -26.2204  -29.3370   19.5262 C   0  0  0  0  0  0  0  0  0  0  0  0
  -24.6189   -9.9158   23.8868 C   0  0  0  0  0  0  0  0  0  0  0  0
  -22.4599  -10.9505   23.5619 C   0  0  0  0  0  0  0  0  0  0  0  0
  -27.3407  -28.5077   19.4957 C   0  0  0  0  0  0  0  0  0  0  0  0
  -20.4080   -8.8192   25.6749 C   0  0  0  0  0  0  0  0  0  0  0  0
  -19.1844   -8.2155   25.3854 C   0  0  0  0  0  0  0  0  0  0  0  0
  -26.0723  -26.7646   20.5783 C   0  0  0  0  0  0  0  0  0  0  0  0
  -26.4742  -22.6731   17.7414 C   0  0  0  0  0  0  0  0  0  0  0  0
  -20.1695   -7.1432   23.4575 C   0  0  0  0  0  0  0  0  0  0  0  0
  -24.7594  -21.8463   18.9439 C   0  0  0  0  0  0  0  0  0  0  0  0
  -24.3650  -11.7024   22.2803 C   0  0  0  0  0  0  0  0  0  0  0  0
  -25.0285  -12.3417   19.9015 C   0  0  0  0  0  0  0  0  0  0  0  0
  -24.2179  -34.2894   23.8849 C   0  0  0  0  0  0  0  0  0  0  0  0
  -25.0187  -28.8894   20.0938 C   0  0  0  0  0  0  0  0  0  0  0  0
  -24.7176  -32.9890   23.6805 C   0  0  0  0  0  0  0  0  0  0  0  0
  -24.9375  -27.5893   20.6125 C   0  0  0  0  0  0  0  0  0  0  0  0
  -25.1063  -22.3077   17.6932 C   0  0  0  0  0  0  0  0  0  0  0  0
  -23.2642  -10.0101   24.2057 C   0  0  0  0  0  0  0  0  0  0  0  0
  -27.2676  -27.2223   20.0244 C   0  0  0  0  0  0  0  0  0  0  0  0
  -21.5124   -8.5850   24.8557 C   0  0  0  0  0  0  0  0  0  0  0  0
  -19.0651   -7.3774   24.2767 C   0  0  0  0  0  0  0  0  0  0  0  0
  -21.3932   -7.7470   23.7470 C   0  0  0  0  0  0  0  0  0  0  0  0
  -24.9331  -12.5770   21.2861 C   0  0  0  0  0  0  0  0  0  0  0  0
  -26.9217  -22.4237   19.0201 C   0  0  0  0  0  0  0  0  0  0  0  0
  -25.6412  -13.4656   19.4035 C   0  0  0  0  0  0  0  0  0  0  0  0
  -24.6014  -11.2084   19.1340 C   0  0  0  0  0  0  0  0  0  0  0  0
  -23.2158  -29.8099   22.5445 C   0  0  0  0  0  0  0  0  0  0  0  0
  -21.1968  -27.5393   21.4084 C   0  0  0  0  0  0  0  0  0  0  0  0
  -20.7815  -24.6719   19.6050 C   0  0  0  0  0  0  0  0  0  0  0  0
  -25.8447  -19.0306   21.3621 C   0  0  0  0  0  0  0  0  0  0  0  0
  -22.8411  -34.5301   24.4515 C   0  0  0  0  0  0  0  0  0  0  0  0
  -23.8116  -29.7868   20.0949 C   0  0  0  0  0  0  0  0  0  0  0  0
  -23.6650  -27.0538   21.2147 C   0  0  0  0  0  0  0  0  0  0  0  0
  -21.9233  -33.3138   24.3594 C   0  0  0  0  0  0  0  0  0  0  0  0
  -28.7008  -16.9288   20.6536 C   0  0  0  0  0  0  0  0  0  0  0  0
  -22.6524  -32.0582   24.8270 C   0  0  0  0  0  0  0  0  0  0  0  0
  -28.0544  -15.5429   20.6037 C   0  0  0  0  0  0  0  0  0  0  0  0
  -28.0634  -17.7962   21.7346 C   0  0  0  0  0  0  0  0  0  0  0  0
  -25.9370  -16.5618   21.5634 C   0  0  0  0  0  0  0  0  0  0  0  0
  -23.8682  -31.7638   23.9401 C   0  0  1  0  0  0  0  0  0  0  0  0
  -22.7876  -29.4096   21.1610 C   0  0  1  0  0  0  0  0  0  0  0  0
  -26.5225  -15.6426   20.4760 C   0  0  2  0  0  0  0  0  0  0  0  0
  -24.2161  -22.4036   16.5206 C   0  0  0  0  0  0  0  0  0  0  0  0
  -19.0210  -23.0347   18.8859 C   0  0  0  0  0  0  0  0  0  0  0  0
  -29.2386  -25.1684   18.1409 C   0  0  0  0  0  0  0  0  0  0  0  0
  -21.1798  -26.3307   24.2100 C   0  0  0  0  0  0  0  0  0  0  0  0
  -20.2200  -24.2382   23.2258 C   0  0  0  0  0  0  0  0  0  0  0  0
  -18.9486  -26.3796   23.0814 C   0  0  0  0  0  0  0  0  0  0  0  0
  -21.2618  -25.2368   16.7399 C   0  0  0  0  0  0  0  0  0  0  0  0
  -28.2886  -22.6267   19.6235 C   0  0  0  0  0  0  0  0  0  0  0  0
  -28.4881  -24.0136   20.2521 C   0  0  0  0  0  0  0  0  0  0  0  0
  -25.9118  -21.5107   21.1864 C   0  0  0  0  0  0  0  0  0  0  0  0
  -21.0068  -26.0610   21.6481 C   0  0  1  0  0  0  0  0  0  0  0  0
  -19.7852  -24.2982   18.5224 C   0  0  2  0  0  0  0  0  0  0  0  0
  -28.2356  -25.1788   19.2874 C   0  0  1  0  0  0  0  0  0  1  0  0
  -20.3635  -25.7629   23.0318 C   0  0  0  0  0  0  0  0  0  0  0  0
  -25.4444  -13.7576   21.6449 N   0  0  0  0  0  0  0  0  0  0  0  0
  -25.8709  -21.9211   19.7421 N   0  0  0  0  0  0  0  0  0  0  0  0
  -25.8671  -14.2741   20.4784 N   0  0  0  0  0  0  0  0  0  0  0  0
  -22.5140  -27.9715   21.1981 N   0  0  0  0  0  0  0  0  0  0  0  0
  -26.6081  -17.8654   21.5429 N   0  0  0  0  0  0  0  0  0  0  0  0
  -26.0034  -13.8311   18.1555 N   0  0  0  0  0  0  0  0  0  0  0  0
  -23.9894  -10.1402   19.8037 N   0  0  0  0  0  0  0  0  0  0  0  0
  -23.4494  -31.1639   22.6914 N   0  0  0  0  0  0  0  0  0  0  0  0
  -20.2412  -25.5585   20.5124 N   0  0  0  0  0  0  0  0  0  0  0  0
  -26.5603  -20.2224   21.3655 N   0  0  0  0  0  0  0  0  0  0  0  0
  -20.4883  -24.0666   17.2290 N   0  3  0  0  0  0  0  0  0  0  0  0
  -24.7726  -11.1380   17.8933 O   0  0  0  0  0  0  0  0  0  0  0  0
  -23.3245  -28.9540   23.4147 O   0  0  0  0  0  0  0  0  0  0  0  0
  -20.2121  -28.2822   21.4007 O   0  0  0  0  0  0  0  0  0  0  0  0
  -21.9236  -24.2195   19.6441 O   0  0  0  0  0  0  0  0  0  0  0  0
  -24.6193  -19.0107   21.2062 O   0  0  0  0  0  0  0  0  0  0  0  0
  -22.7268   -9.1845   25.1448 O   0  0  0  0  0  0  0  0  0  0  0  0
  -28.3598  -26.4110   19.9965 O   0  0  0  0  0  0  0  0  0  1  0  0
  -17.8904   -6.7965   23.9998 F   0  0  0  0  0  0  0  0  0  0  0  0
  -22.4510   -7.5173   22.9570 F   0  0  0  0  0  0  0  0  0  0  0  0
  1  2  1  0  0  0  0
  1  5  2  0  0  0  0
  2  6  2  0  0  0  0
  3  8  2  0  0  0  0
  3 17  1  0  0  0  0
  4  9  1  0  0  0  0
  4 17  2  0  0  0  0
  5 19  1  0  0  0  0
  6 21  1  0  0  0  0
  7 10  2  0  0  0  0
  7 20  1  0  0  0  0
  8 24  1  0  0  0  0
  9 24  2  0  0  0  0
 10 25  1  0  0  0  0
 11 12  2  0  0  0  0
 11 26  1  0  0  0  0
 12 27  1  0  0  0  0
 13 22  1  0  0  0  0
 13 25  2  0  0  0  0
 14 23  1  0  0  0  0
 14 30  2  0  0  0  0
 15 27  2  0  0  0  0
 15 28  1  0  0  0  0
 16 23  2  0  0  0  0
 16 64  1  0  0  0  0
 17 29  1  0  0  0  0
 18 29  1  0  0  0  0
 18 31  2  0  0  0  0
 18 32  1  0  0  0  0
 19 21  2  0  0  0  0
 19 37  1  0  0  0  0
 20 22  2  0  0  0  0
 20 38  1  0  0  0  0
 21 46  1  0  0  0  0
 22 39  1  0  0  0  0
 23 49  1  0  0  0  0
 24 79  1  0  0  0  0
 25 80  1  0  0  0  0
 26 28  2  0  0  0  0
 26 79  1  0  0  0  0
 27 81  1  0  0  0  0
 28 82  1  0  0  0  0
 29 63  2  0  0  0  0
 30 56  1  0  0  0  0
 30 64  1  0  0  0  0
 31 65  1  0  0  0  0
 31 68  1  0  0  0  0
 32 69  1  0  0  0  0
 32 74  2  0  0  0  0
 33 47  1  0  0  0  0
 33 70  1  0  0  0  0
 33 75  2  0  0  0  0
 34 59  1  0  0  0  0
 34 66  1  0  0  0  0
 34 76  2  0  0  0  0
 35 60  1  0  0  0  0
 35 71  1  0  0  0  0
 35 77  2  0  0  0  0
 36 67  1  0  0  0  0
 36 72  1  0  0  0  0
 36 78  2  0  0  0  0
 37 40  1  0  0  0  0
 38 47  1  0  0  0  0
 39 66  1  0  0  0  0
 40 42  1  0  0  0  0
 41 43  1  0  0  0  0
 41 44  1  0  0  0  0
 42 46  1  0  0  0  0
 43 48  1  0  0  0  0
 44 67  1  0  0  0  0
 45 48  1  0  0  0  0
 45 67  1  0  0  0  0
 46 70  1  0  0  0  0
 47 66  1  0  0  0  0
 48 65  1  0  0  0  0
 50 60  1  0  0  0  0
 51 61  1  0  0  0  0
 52 62  1  0  0  0  0
 53 62  1  0  0  0  0
 54 62  1  0  0  0  0
 55 73  1  0  0  0  0
 56 57  1  0  0  0  0
 57 61  1  0  0  0  0
 58 64  1  0  0  0  0
 58 72  1  0  0  0  0
 59 62  1  0  0  0  0
 59 71  1  0  0  0  0
 60 73  1  0  0  0  0
 61 80  1  0  0  0  0
 63 65  1  0  0  0  0
M  CHG  1  73   1
M  ISO  4  36 100  61 101  72 100  80 101
M  END
> <Batch ID>
0109

> <Smiles>
CNC(C)C(=O)NC(C(=O)N1Cc2cc([101O:1][101CH:1](C)CCc3cc(C)cn3C[100NH:0][100C:0](=O)N3CCCC(n4nc(-c5ccc(Oc6ccc(F)cc6F)cc5)c(C(N)=O)c4N)C3)ccc2CC1C(=O)NC1CCCc2ccccc21)C(C)(C)C

> <Shape>
0.225

> <Color>
0.070

> <Negative vol penalty>
0.000

$$$$

  -OEChem-04052319563D

 90 98  0     1  0  0  0  0  0999 V2000
  -35.7127  -23.2119   30.2735 C   0  0  0  0  0  0  0  0  0  0  0  0
  -34.7119  -24.1723   30.1665 C   0  0  0  0  0  0  0  0  0  0  0  0
  -29.0559  -17.7430   19.4260 C   0  0  0  0  0  0  0  0  0  0  0  0
  -30.5326  -18.1251   21.2996 C   0  0  0  0  0  0  0  0  0  0  0  0
  -35.6438  -22.0469   29.5106 C   0  0  0  0  0  0  0  0  0  0  0  0
  -33.6421  -23.9687   29.2957 C   0  0  0  0  0  0  0  0  0  0  0  0
  -26.6496  -25.3702   28.6192 C   0  0  0  0  0  0  0  0  0  0  0  0
  -23.6558  -29.3331   21.3134 C   0  0  0  0  0  0  0  0  0  0  0  0
  -24.4164  -30.5013   21.2620 C   0  0  0  0  0  0  0  0  0  0  0  0
  -29.5733  -16.4559   19.2806 C   0  0  0  0  0  0  0  0  0  0  0  0
  -31.0500  -16.8379   21.1543 C   0  0  0  0  0  0  0  0  0  0  0  0
  -25.7445  -25.9228   27.7141 C   0  0  0  0  0  0  0  0  0  0  0  0
  -30.2503  -12.9416   18.6432 C   0  0  0  0  0  0  0  0  0  0  0  0
  -29.3467  -11.8985   18.4406 C   0  0  0  0  0  0  0  0  0  0  0  0
  -25.6895  -23.8363   26.5046 C   0  0  0  0  0  0  0  0  0  0  0  0
  -25.5658  -28.0566   20.5654 C   0  0  0  0  0  0  0  0  0  0  0  0
  -28.2981  -12.3953   20.5598 C   0  0  0  0  0  0  0  0  0  0  0  0
  -29.5356  -18.5777   20.4354 C   0  0  0  0  0  0  0  0  0  0  0  0
  -27.9023  -20.2984   21.3730 C   0  0  0  0  0  0  0  0  0  0  0  0
  -34.5676  -21.8246   28.6371 C   0  0  0  0  0  0  0  0  0  0  0  0
  -27.0905  -24.0477   28.4673 C   0  0  0  0  0  0  0  0  0  0  0  0
  -33.5594  -22.8003   28.5194 C   0  0  0  0  0  0  0  0  0  0  0  0
  -26.5982  -23.2685   27.4106 C   0  0  0  0  0  0  0  0  0  0  0  0
  -24.2306  -28.1108   20.9651 C   0  0  0  0  0  0  0  0  0  0  0  0
  -25.7516  -30.4471   20.8622 C   0  0  0  0  0  0  0  0  0  0  0  0
  -26.3264  -29.2248   20.5139 C   0  0  0  0  0  0  0  0  0  0  0  0
  -30.5703  -16.0033   20.1448 C   0  0  0  0  0  0  0  0  0  0  0  0
  -25.2665  -25.1567   26.6549 C   0  0  0  0  0  0  0  0  0  0  0  0
  -30.1779  -13.7115   19.8041 C   0  0  0  0  0  0  0  0  0  0  0  0
  -28.3706  -11.6254   19.3989 C   0  0  0  0  0  0  0  0  0  0  0  0
  -29.2018  -13.4384   20.7624 C   0  0  0  0  0  0  0  0  0  0  0  0
  -29.0019  -19.9076   20.5857 C   0  0  0  0  0  0  0  0  0  0  0  0
  -27.8032  -21.6540   21.1757 C   0  0  0  0  0  0  0  0  0  0  0  0
  -27.0469  -19.5068   22.2081 C   0  0  0  0  0  0  0  0  0  0  0  0
  -29.9089  -22.6668   27.9636 C   0  0  0  0  0  0  0  0  0  0  0  0
  -28.2072  -19.9364   28.3785 C   0  0  0  0  0  0  0  0  0  0  0  0
  -25.1795  -18.3653   28.2728 C   0  0  0  0  0  0  0  0  0  0  0  0
  -30.1250  -26.6011   20.8882 C   0  0  0  0  0  0  0  0  0  0  0  0
  -34.5607  -20.5715   27.7979 C   0  0  0  0  0  0  0  0  0  0  0  0
  -28.0466  -23.4580   29.4676 C   0  0  0  0  0  0  0  0  0  0  0  0
  -27.0248  -21.8373   27.2150 C   0  0  0  0  0  0  0  0  0  0  0  0
  -33.2011  -20.2619   27.1767 C   0  0  0  0  0  0  0  0  0  0  0  0
  -30.0972  -24.6722   17.8262 C   0  0  0  0  0  0  0  0  0  0  0  0
  -32.6029  -21.5167   26.5488 C   0  0  0  0  0  0  0  0  0  0  0  0
  -29.7158  -23.2843   18.3444 C   0  0  0  0  0  0  0  0  0  0  0  0
  -31.0182  -25.3941   18.8054 C   0  0  0  0  0  0  0  0  0  0  0  0
  -30.0925  -24.1295   20.7074 C   0  0  0  0  0  0  0  0  0  0  0  0
  -32.3701  -22.6045   27.6042 C   0  0  1  0  0  0  0  0  0  0  0  0
  -28.8226  -22.2639   28.9204 C   0  0  1  0  0  0  0  0  0  0  0  0
  -29.1439  -23.3572   19.7726 C   0  0  2  0  0  0  0  0  0  0  0  0
  -23.2614  -26.2294   19.6204 C   0  0  0  0  0  0  0  0  0  0  0  0
  -26.6801  -32.3729   22.1975 C   0  0  0  0  0  0  0  0  0  0  0  0
  -25.9774  -32.7228   19.8020 C   0  0  0  0  0  0  0  0  0  0  0  0
  -24.1104  -16.1229   28.6277 C   0  0  0  0  0  0  0  0  0  0  0  0
  -29.3152  -18.9868   25.6988 C   0  0  0  0  0  0  0  0  0  0  0  0
  -27.5253  -17.2368   25.6579 C   0  0  0  0  0  0  0  0  0  0  0  0
  -29.2334  -17.2290   27.4758 C   0  0  0  0  0  0  0  0  0  0  0  0
  -30.7019  -30.2095   20.0030 C   0  0  0  0  0  0  0  0  0  0  0  0
  -31.0423  -29.1220   22.2267 C   0  0  0  0  0  0  0  0  0  0  0  0
  -23.4612  -19.3996   30.4491 C   0  0  0  0  0  0  0  0  0  0  0  0
  -27.7539  -29.1425   20.0826 C   0  0  0  0  0  0  0  0  0  0  0  0
  -28.7232  -29.2284   21.2778 C   0  0  0  0  0  0  0  0  0  0  0  0
  -23.9516  -26.2775   23.4640 C   0  0  0  0  0  0  0  0  0  0  0  0
  -23.9618  -25.7914   22.0074 C   0  0  0  0  0  0  0  0  0  0  0  0
  -24.4217  -25.1978   24.4322 C   0  0  0  0  0  0  0  0  0  1  0  0
  -23.4020  -26.8389   21.0207 C   0  0  1  0  0  0  0  0  0  0  0  0
  -26.5457  -31.7111   20.8139 C   0  0  0  0  0  0  0  0  0  0  0  0
  -27.4372  -19.0082   27.4705 C   0  0  1  0  0  0  0  0  0  0  0  0
  -24.4834  -17.4520   29.2657 C   0  0  2  0  0  0  0  0  0  0  0  0
  -28.3710  -18.1427   26.5781 C   0  0  0  0  0  0  0  0  0  0  0  0
  -30.2244  -29.0802   20.9261 C   0  0  0  0  0  0  0  0  0  0  0  0
  -29.5614  -20.9321   19.9366 N   0  0  0  0  0  0  0  0  0  0  0  0
  -28.8102  -21.9801   20.3155 N   0  0  0  0  0  0  0  0  0  0  0  0
  -27.9659  -21.3080   28.2158 N   0  0  0  0  0  0  0  0  0  0  0  0
  -30.4072  -25.4454   20.1411 N   0  0  0  0  0  0  0  0  0  0  0  0
  -26.9539  -22.5871   21.6558 N   0  0  0  0  0  0  0  0  0  0  0  0
  -27.2889  -18.1292   22.2972 N   0  0  0  0  0  0  0  0  0  0  0  0
  -31.1801  -22.3145   28.3750 N   0  0  0  0  0  0  0  0  0  0  0  0
  -26.5509  -18.2352   28.3337 N   0  0  0  0  0  0  0  0  0  0  0  0
  -30.4598  -27.8065   20.2833 N   0  0  0  0  0  0  0  0  0  0  0  0
  -23.2391  -18.0941   29.7759 N   0  3  0  0  0  0  0  0  0  0  0  0
  -26.0859  -20.0037   22.8431 O   0  0  0  0  0  0  0  0  0  0  0  0
  -29.6153  -23.2525   26.9280 O   0  0  0  0  0  0  0  0  0  0  0  0
  -28.9886  -19.4617   29.2066 O   0  0  0  0  0  0  0  0  0  0  0  0
  -24.5678  -19.1161   27.5161 O   0  0  0  0  0  0  0  0  0  0  0  0
  -29.6076  -26.5622   22.0097 O   0  0  0  0  0  0  0  0  0  0  0  0
  -31.0752  -14.7473   20.0034 O   0  0  0  0  0  0  0  0  0  0  0  0
  -24.3835  -25.6938   25.7696 O   0  0  0  0  0  0  0  0  0  1  0  0
  -27.5019  -10.6246   19.2035 F   0  0  0  0  0  0  0  0  0  0  0  0
  -29.1265  -14.1754   21.8791 F   0  0  0  0  0  0  0  0  0  0  0  0
  1  2  1  0  0  0  0
  1  5  2  0  0  0  0
  2  6  2  0  0  0  0
  3 10  2  0  0  0  0
  3 18  1  0  0  0  0
  4 11  1  0  0  0  0
  4 18  2  0  0  0  0
  5 20  1  0  0  0  0
  6 22  1  0  0  0  0
  7 12  2  0  0  0  0
  7 21  1  0  0  0  0
  8  9  2  0  0  0  0
  8 24  1  0  0  0  0
  9 25  1  0  0  0  0
 10 27  1  0  0  0  0
 11 27  2  0  0  0  0
 12 28  1  0  0  0  0
 13 14  2  0  0  0  0
 13 29  1  0  0  0  0
 14 30  1  0  0  0  0
 15 23  1  0  0  0  0
 15 28  2  0  0  0  0
 16 24  2  0  0  0  0
 16 26  1  0  0  0  0
 17 30  2  0  0  0  0
 17 31  1  0  0  0  0
 18 32  1  0  0  0  0
 19 32  1  0  0  0  0
 19 33  2  0  0  0  0
 19 34  1  0  0  0  0
 20 22  2  0  0  0  0
 20 39  1  0  0  0  0
 21 23  2  0  0  0  0
 21 40  1  0  0  0  0
 22 48  1  0  0  0  0
 23 41  1  0  0  0  0
 24 66  1  0  0  0  0
 25 26  2  0  0  0  0
 25 67  1  0  0  0  0
 26 61  1  0  0  0  0
 27 87  1  0  0  0  0
 28 88  1  0  0  0  0
 29 31  2  0  0  0  0
 29 87  1  0  0  0  0
 30 89  1  0  0  0  0
 31 90  1  0  0  0  0
 32 72  2  0  0  0  0
 33 73  1  0  0  0  0
 33 76  1  0  0  0  0
 34 77  1  0  0  0  0
 34 82  2  0  0  0  0
 35 49  1  0  0  0  0
 35 78  1  0  0  0  0
 35 83  2  0  0  0  0
 36 68  1  0  0  0  0
 36 74  1  0  0  0  0
 36 84  2  0  0  0  0
 37 69  1  0  0  0  0
 37 79  1  0  0  0  0
 37 85  2  0  0  0  0
 38 75  1  0  0  0  0
 38 80  1  0  0  0  0
 38 86  2  0  0  0  0
 39 42  1  0  0  0  0
 40 49  1  0  0  0  0
 41 74  1  0  0  0  0
 42 44  1  0  0  0  0
 43 45  1  0  0  0  0
 43 46  1  0  0  0  0
 44 48  1  0  0  0  0
 45 50  1  0  0  0  0
 46 75  1  0  0  0  0
 47 50  1  0  0  0  0
 47 75  1  0  0  0  0
 48 78  1  0  0  0  0
 49 74  1  0  0  0  0
 50 73  1  0  0  0  0
 51 66  1  0  0  0  0
 52 67  1  0  0  0  0
 53 67  1  0  0  0  0
 54 69  1  0  0  0  0
 55 70  1  0  0  0  0
 56 70  1  0  0  0  0
 57 70  1  0  0  0  0
 58 71  1  0  0  0  0
 59 71  1  0  0  0  0
 60 81  1  0  0  0  0
 61 62  1  0  0  0  0
 62 71  1  0  0  0  0
 63 64  1  0  0  0  0
 63 65  1  0  0  0  0
 64 66  1  0  0  0  0
 65 88  1  0  0  0  0
 68 70  1  0  0  0  0
 68 79  1  0  0  0  0
 69 81  1  0  0  0  0
 71 80  1  0  0  0  0
 72 73  1  0  0  0  0
M  CHG  1  81   1
M  ISO  4  38 100  65 101  80 100  88 101
M  END
> <Batch ID>
0109

> <Smiles>
CNC(C)C(=O)NC(C(=O)N1Cc2cc([101O:1][101CH2:1]CCC(C)c3ccc(C(C)C)c(CCC(C)(C)[100NH:0][100C:0](=O)N4CCCC(n5nc(-c6ccc(Oc7ccc(F)cc7F)cc6)c(C(N)=O)c5N)C4)c3)ccc2CC1C(=O)NC1CCCc2ccccc21)C(C)(C)C

> <Shape>
0.206

> <Color>
0.052

> <Negative vol penalty>
0.000

$$$$

  -OEChem-04052319563D

 86 94  0     1  0  0  0  0  0999 V2000
  -29.5372  -25.6662   16.8800 C   0  0  0  0  0  0  0  0  0  0  0  0
  -28.1659  -25.8967   16.9241 C   0  0  0  0  0  0  0  0  0  0  0  0
  -25.0335  -12.3006   20.0474 C   0  0  0  0  0  0  0  0  0  0  0  0
  -25.5344  -13.2863   22.1956 C   0  0  0  0  0  0  0  0  0  0  0  0
  -30.3174  -25.8910   18.0135 C   0  0  0  0  0  0  0  0  0  0  0  0
  -27.5739  -26.3511   18.1020 C   0  0  0  0  0  0  0  0  0  0  0  0
  -22.8242  -30.1858   18.5936 C   0  0  0  0  0  0  0  0  0  0  0  0
  -25.7681  -11.1673   20.3961 C   0  0  0  0  0  0  0  0  0  0  0  0
  -26.2689  -12.1529   22.5443 C   0  0  0  0  0  0  0  0  0  0  0  0
  -21.4632  -29.9708   18.8057 C   0  0  0  0  0  0  0  0  0  0  0  0
  -29.3362  -10.8797   21.9104 C   0  0  0  0  0  0  0  0  0  0  0  0
  -30.5793  -11.0731   22.5127 C   0  0  0  0  0  0  0  0  0  0  0  0
  -21.7780  -30.3472   21.1676 C   0  0  0  0  0  0  0  0  0  0  0  0
  -19.8821  -23.2977   21.1270 C   0  0  0  0  0  0  0  0  0  0  0  0
  -29.8220   -9.8660   24.4637 C   0  0  0  0  0  0  0  0  0  0  0  0
  -24.9167  -13.3602   20.9471 C   0  0  0  0  0  0  0  0  0  0  0  0
  -22.7858  -14.7554   20.8048 C   0  0  0  0  0  0  0  0  0  0  0  0
  -29.7361  -26.3576   19.2030 C   0  0  0  0  0  0  0  0  0  0  0  0
  -23.6758  -30.4729   19.6701 C   0  0  0  0  0  0  0  0  0  0  0  0
  -28.3469  -26.5811   19.2527 C   0  0  0  0  0  0  0  0  0  0  0  0
  -23.1490  -30.5680   20.9661 C   0  0  0  0  0  0  0  0  0  0  0  0
  -20.7061  -22.2474   20.7380 C   0  0  0  0  0  0  0  0  0  0  0  0
  -22.0798  -22.3402   20.9320 C   0  0  0  0  0  0  0  0  0  0  0  0
  -26.3858  -11.0934   21.6446 C   0  0  0  0  0  0  0  0  0  0  0  0
  -20.9403  -30.0486   20.0932 C   0  0  0  0  0  0  0  0  0  0  0  0
  -28.3358  -10.1795   22.5849 C   0  0  0  0  0  0  0  0  0  0  0  0
  -30.8222  -10.5663   23.7893 C   0  0  0  0  0  0  0  0  0  0  0  0
  -28.5788   -9.6726   23.8615 C   0  0  0  0  0  0  0  0  0  0  0  0
  -24.1585  -14.5314   20.5873 C   0  0  0  0  0  0  0  0  0  0  0  0
  -20.4765  -24.4100   21.7007 C   0  0  0  0  0  0  0  0  0  0  0  0
  -22.5758  -23.4955   21.5143 C   0  0  0  0  0  0  0  0  0  0  0  0
  -22.5555  -16.0060   20.2856 C   0  0  0  0  0  0  0  0  0  0  0  0
  -21.8065  -13.9088   21.4211 C   0  0  0  0  0  0  0  0  0  0  0  0
  -26.2031  -29.0512   20.9720 C   0  0  0  0  0  0  0  0  0  0  0  0
  -26.3091  -31.7513   22.7667 C   0  0  0  0  0  0  0  0  0  0  0  0
  -24.6444  -34.4279   24.0746 C   0  0  0  0  0  0  0  0  0  0  0  0
  -23.9897  -21.3454   19.6248 C   0  0  0  0  0  0  0  0  0  0  0  0
  -30.6130  -26.5409   20.4163 C   0  0  0  0  0  0  0  0  0  0  0  0
  -25.1369  -30.7286   19.4210 C   0  0  0  0  0  0  0  0  0  0  0  0
  -24.0172  -30.8933   22.1530 C   0  0  0  0  0  0  0  0  0  0  0  0
  -29.9655  -27.3803   21.5147 C   0  0  0  0  0  0  0  0  0  0  0  0
  -25.4927  -18.9790   17.4297 C   0  0  0  0  0  0  0  0  0  0  0  0
  -28.5318  -26.9216   21.7619 C   0  0  0  0  0  0  0  0  0  0  0  0
  -25.1667  -17.6294   18.0734 C   0  0  0  0  0  0  0  0  0  0  0  0
  -25.7761  -20.0536   18.4779 C   0  0  0  0  0  0  0  0  0  0  0  0
  -24.4095  -18.8619   20.1458 C   0  0  0  0  0  0  0  0  0  0  0  0
  -27.6717  -27.0978   20.5046 C   0  0  1  0  0  0  0  0  0  0  0  0
  -26.0017  -30.5068   20.6581 C   0  0  1  0  0  0  0  0  0  0  0  0
  -24.0532  -17.7636   19.1307 C   0  0  2  0  0  0  0  0  0  0  0  0
  -24.0429  -23.6562   21.7499 C   0  0  0  0  0  0  0  0  0  0  0  0
  -19.3756  -21.3577   18.7908 C   0  0  0  0  0  0  0  0  0  0  0  0
  -19.1230  -20.3144   21.0717 C   0  0  0  0  0  0  0  0  0  0  0  0
  -24.9888  -36.4417   25.5319 C   0  0  0  0  0  0  0  0  0  0  0  0
  -26.3175  -29.9596   25.2364 C   0  0  0  0  0  0  0  0  0  0  0  0
  -25.7075  -31.9640   26.6069 C   0  0  0  0  0  0  0  0  0  0  0  0
  -27.8689  -31.9170   25.3624 C   0  0  0  0  0  0  0  0  0  0  0  0
  -23.8960  -36.2802   21.8910 C   0  0  0  0  0  0  0  0  0  0  0  0
  -19.6185  -25.5631   22.1313 C   0  0  0  0  0  0  0  0  0  0  0  0
  -17.7928  -28.2832   20.1491 C   0  0  0  0  0  0  0  0  0  0  0  0
  -18.2271  -27.4948   21.3755 C   0  0  0  0  0  0  0  0  0  0  0  0
  -18.9460  -28.9489   19.4083 C   0  0  0  0  0  0  0  0  0  1  0  0
  -20.0900  -21.0369   20.1162 C   0  0  0  0  0  0  0  0  0  0  0  0
  -25.7063  -32.1859   24.0807 C   0  0  1  0  0  0  0  0  0  0  0  0
  -24.9840  -35.9071   24.1082 C   0  0  2  0  0  0  0  0  0  0  0  0
  -26.3838  -31.4986   25.2997 C   0  0  0  0  0  0  0  0  0  0  0  0
  -24.7581  -15.5573   19.9773 N   0  0  0  0  0  0  0  0  0  0  0  0
  -21.8068  -24.5365   21.9052 N   0  0  0  0  0  0  0  0  0  0  0  0
  -23.7574  -16.4380   19.8070 N   0  0  0  0  0  0  0  0  0  0  0  0
  -25.4405  -31.1289   21.8590 N   0  0  0  0  0  0  0  0  0  0  0  0
  -24.6769  -20.1266   19.4430 N   0  0  0  0  0  0  0  0  0  0  0  0
  -21.4442  -16.7672   20.1963 N   0  0  0  0  0  0  0  0  0  0  0  0
  -22.2129  -12.6560   21.9003 N   0  0  0  0  0  0  0  0  0  0  0  0
  -22.9429  -21.2856   20.5441 N   0  0  0  0  0  0  0  0  0  0  0  0
  -27.2944  -28.4854   20.3408 N   0  0  0  0  0  0  0  0  0  0  0  0
  -25.7777  -33.6429   24.1004 N   0  0  0  0  0  0  0  0  0  0  0  0
  -23.9890  -36.6852   23.3173 N   0  3  0  0  0  0  0  0  0  0  0  0
  -19.1294  -26.3846   20.9897 N   0  3  0  0  0  0  0  0  0  0  0  0
  -20.6031  -14.2463   21.5285 O   0  0  0  0  0  0  0  0  0  0  0  0
  -25.4269  -28.4840   21.7318 O   0  0  0  0  0  0  0  0  0  0  0  0
  -27.5050  -31.9628   22.5506 O   0  0  0  0  0  0  0  0  0  0  0  0
  -23.4891  -34.0106   24.0337 O   0  0  0  0  0  0  0  0  0  0  0  0
  -24.2891  -22.3601   18.9901 O   0  0  0  0  0  0  0  0  0  0  0  0
  -27.1024   -9.9876   21.9853 O   0  0  0  0  0  0  0  0  0  0  0  0
  -19.6123  -29.8385   20.3032 O   0  0  0  0  0  0  0  0  0  1  0  0
  -32.0166  -10.7508   24.3669 F   0  0  0  0  0  0  0  0  0  0  0  0
  -27.6221   -8.9981   24.5138 F   0  0  0  0  0  0  0  0  0  0  0  0
  1  2  1  0  0  0  0
  1  5  2  0  0  0  0
  2  6  2  0  0  0  0
  3  8  2  0  0  0  0
  3 16  1  0  0  0  0
  4  9  1  0  0  0  0
  4 16  2  0  0  0  0
  5 18  1  0  0  0  0
  6 20  1  0  0  0  0
  7 10  2  0  0  0  0
  7 19  1  0  0  0  0
  8 24  1  0  0  0  0
  9 24  2  0  0  0  0
 10 25  1  0  0  0  0
 11 12  2  0  0  0  0
 11 26  1  0  0  0  0
 12 27  1  0  0  0  0
 13 21  1  0  0  0  0
 13 25  2  0  0  0  0
 14 22  2  0  0  0  0
 14 30  1  0  0  0  0
 15 27  2  0  0  0  0
 15 28  1  0  0  0  0
 16 29  1  0  0  0  0
 17 29  1  0  0  0  0
 17 32  2  0  0  0  0
 17 33  1  0  0  0  0
 18 20  2  0  0  0  0
 18 38  1  0  0  0  0
 19 21  2  0  0  0  0
 19 39  1  0  0  0  0
 20 47  1  0  0  0  0
 21 40  1  0  0  0  0
 22 23  1  0  0  0  0
 22 62  1  0  0  0  0
 23 31  2  0  0  0  0
 23 73  1  0  0  0  0
 24 83  1  0  0  0  0
 25 84  1  0  0  0  0
 26 28  2  0  0  0  0
 26 83  1  0  0  0  0
 27 85  1  0  0  0  0
 28 86  1  0  0  0  0
 29 66  2  0  0  0  0
 30 58  1  0  0  0  0
 30 67  2  0  0  0  0
 31 50  1  0  0  0  0
 31 67  1  0  0  0  0
 32 68  1  0  0  0  0
 32 71  1  0  0  0  0
 33 72  1  0  0  0  0
 33 78  2  0  0  0  0
 34 48  1  0  0  0  0
 34 74  1  0  0  0  0
 34 79  2  0  0  0  0
 35 63  1  0  0  0  0
 35 69  1  0  0  0  0
 35 80  2  0  0  0  0
 36 64  1  0  0  0  0
 36 75  1  0  0  0  0
 36 81  2  0  0  0  0
 37 70  1  0  0  0  0
 37 73  1  0  0  0  0
 37 82  2  0  0  0  0
 38 41  1  0  0  0  0
 39 48  1  0  0  0  0
 40 69  1  0  0  0  0
 41 43  1  0  0  0  0
 42 44  1  0  0  0  0
 42 45  1  0  0  0  0
 43 47  1  0  0  0  0
 44 49  1  0  0  0  0
 45 70  1  0  0  0  0
 46 49  1  0  0  0  0
 46 70  1  0  0  0  0
 47 74  1  0  0  0  0
 48 69  1  0  0  0  0
 49 68  1  0  0  0  0
 51 62  1  0  0  0  0
 52 62  1  0  0  0  0
 53 64  1  0  0  0  0
 54 65  1  0  0  0  0
 55 65  1  0  0  0  0
 56 65  1  0  0  0  0
 57 76  1  0  0  0  0
 58 77  1  0  0  0  0
 59 60  1  0  0  0  0
 59 61  1  0  0  0  0
 60 77  1  0  0  0  0
 61 84  1  0  0  0  0
 63 65  1  0  0  0  0
 63 75  1  0  0  0  0
 64 76  1  0  0  0  0
 66 68  1  0  0  0  0
M  CHG  2  76   1  77   1
M  ISO  4  37 100  61 101  73 100  84 101
M  END
> <Batch ID>
0109

> <Smiles>
CNC(C)C(=O)NC(C(=O)N1Cc2cc([101O:1][101CH2:1]CCNCc3cc(C(C)C)c([100NH:0][100C:0](=O)N4CCCC(n5nc(-c6ccc(Oc7ccc(F)cc7F)cc6)c(C(N)=O)c5N)C4)c(C)n3)ccc2CC1C(=O)NC1CCCc2ccccc21)C(C)(C)C

> <Shape>
0.250

> <Color>
0.083

> <Negative vol penalty>
0.000

$$$$

  -OEChem-04052319563D

 87 95  0     1  0  0  0  0  0999 V2000
  -32.6495  -28.9115   24.3139 C   0  0  0  0  0  0  0  0  0  0  0  0
  -32.2660  -28.6950   22.9943 C   0  0  0  0  0  0  0  0  0  0  0  0
  -25.5351  -14.9228   21.5607 C   0  0  0  0  0  0  0  0  0  0  0  0
  -24.9306  -15.7817   19.3849 C   0  0  0  0  0  0  0  0  0  0  0  0
  -31.8150  -28.5097   25.3561 C   0  0  0  0  0  0  0  0  0  0  0  0
  -31.0481  -28.0755   22.7160 C   0  0  0  0  0  0  0  0  0  0  0  0
  -27.3300  -29.2224   17.9868 C   0  0  0  0  0  0  0  0  0  0  0  0
  -24.4156  -14.0910   21.5435 C   0  0  0  0  0  0  0  0  0  0  0  0
  -23.8111  -14.9498   19.3677 C   0  0  0  0  0  0  0  0  0  0  0  0
  -27.1480  -28.5845   16.7605 C   0  0  0  0  0  0  0  0  0  0  0  0
  -23.5182  -11.1511   20.1349 C   0  0  0  0  0  0  0  0  0  0  0  0
  -23.6898   -9.8250   20.5318 C   0  0  0  0  0  0  0  0  0  0  0  0
  -25.2932  -27.3497   17.6847 C   0  0  0  0  0  0  0  0  0  0  0  0
  -28.1113  -24.1418   15.1487 C   0  0  0  0  0  0  0  0  0  0  0  0
  -22.0866  -10.1498   22.3099 C   0  0  0  0  0  0  0  0  0  0  0  0
  -30.1251  -24.6406   13.9858 C   0  0  0  0  0  0  0  0  0  0  0  0
  -28.1285  -25.3615   13.1071 C   0  0  0  0  0  0  0  0  0  0  0  0
  -25.7926  -15.7682   20.4815 C   0  0  0  0  0  0  0  0  0  0  0  0
  -28.2386  -16.3280   20.0219 C   0  0  0  0  0  0  0  0  0  0  0  0
  -30.5819  -27.8936   25.0903 C   0  0  0  0  0  0  0  0  0  0  0  0
  -26.5004  -28.9202   19.0763 C   0  0  0  0  0  0  0  0  0  0  0  0
  -30.1970  -27.6638   23.7556 C   0  0  0  0  0  0  0  0  0  0  0  0
  -25.4651  -27.9870   18.9231 C   0  0  0  0  0  0  0  0  0  0  0  0
  -29.4967  -24.0526   15.0717 C   0  0  0  0  0  0  0  0  0  0  0  0
  -27.4066  -24.8070   14.1516 C   0  0  0  0  0  0  0  0  0  0  0  0
  -23.5536  -14.1045   20.4470 C   0  0  0  0  0  0  0  0  0  0  0  0
  -26.1314  -27.6459   16.6101 C   0  0  0  0  0  0  0  0  0  0  0  0
  -22.6309  -11.9766   20.8255 C   0  0  0  0  0  0  0  0  0  0  0  0
  -22.9740   -9.3243   21.6193 C   0  0  0  0  0  0  0  0  0  0  0  0
  -21.9151  -11.4760   21.9130 C   0  0  0  0  0  0  0  0  0  0  0  0
  -26.9486  -16.6281   20.4990 C   0  0  0  0  0  0  0  0  0  0  0  0
  -28.9686  -17.4654   20.2671 C   0  0  0  0  0  0  0  0  0  0  0  0
  -28.7329  -15.1285   19.4116 C   0  0  0  0  0  0  0  0  0  0  0  0
  -26.9599  -27.6981   21.9744 C   0  0  0  0  0  0  0  0  0  0  0  0
  -23.8183  -28.4142   22.3486 C   0  0  0  0  0  0  0  0  0  0  0  0
  -20.7847  -28.9894   20.8947 C   0  0  0  0  0  0  0  0  0  0  0  0
  -29.4931  -23.0210   20.1973 C   0  0  0  0  0  0  0  0  0  0  0  0
  -29.7351  -27.4339   26.2506 C   0  0  0  0  0  0  0  0  0  0  0  0
  -26.6927  -29.6366   20.3848 C   0  0  0  0  0  0  0  0  0  0  0  0
  -24.5344  -27.6420   20.0559 C   0  0  0  0  0  0  0  0  0  0  0  0
  -28.2912  -27.1225   25.8651 C   0  0  0  0  0  0  0  0  0  0  0  0
  -27.8486  -21.5704   23.0022 C   0  0  0  0  0  0  0  0  0  0  0  0
  -28.2481  -26.2725   24.5993 C   0  0  0  0  0  0  0  0  0  0  0  0
  -27.5690  -20.1332   22.5593 C   0  0  0  0  0  0  0  0  0  0  0  0
  -27.7028  -22.5561   21.8450 C   0  0  0  0  0  0  0  0  0  0  0  0
  -28.2196  -20.7906   20.2049 C   0  0  0  0  0  0  0  0  0  0  0  0
  -28.8723  -27.0172   23.4130 C   0  0  1  0  0  0  0  0  0  0  0  0
  -26.1155  -28.8746   21.5736 C   0  0  1  0  0  0  0  0  0  0  0  0
  -28.4088  -19.7534   21.3250 C   0  0  2  0  0  0  0  0  0  0  0  0
  -25.2301  -23.5442   14.1471 C   0  0  0  0  0  0  0  0  0  0  0  0
  -18.3964  -29.5115   21.4607 C   0  0  0  0  0  0  0  0  0  0  0  0
  -23.3859  -25.5132   23.1895 C   0  0  0  0  0  0  0  0  0  0  0  0
  -20.9321  -25.8444   22.8185 C   0  0  0  0  0  0  0  0  0  0  0  0
  -22.1235  -27.1920   24.5468 C   0  0  0  0  0  0  0  0  0  0  0  0
  -29.6994  -25.2128   17.7885 C   0  0  0  0  0  0  0  0  0  0  0  0
  -20.8743  -31.5536   19.4197 C   0  0  0  0  0  0  0  0  0  0  0  0
  -32.1379  -26.2591   17.6603 C   0  0  0  0  0  0  0  0  0  0  0  0
  -33.1824  -24.1961   16.7364 C   0  0  0  0  0  0  0  0  0  0  0  0
  -30.2795  -23.3488   16.1227 C   0  0  0  0  0  0  0  0  0  0  0  0
  -31.2701  -23.3333   18.4932 C   0  0  0  0  0  0  0  0  0  0  0  0
  -25.4203  -25.6976   15.4465 C   0  0  0  0  0  0  0  0  0  1  0  0
  -25.8915  -24.9240   14.2075 C   0  0  1  0  0  0  0  0  0  0  0  0
  -22.5190  -27.6871   22.0993 C   0  0  1  0  0  0  0  0  0  0  0  0
  -19.7584  -30.0877   21.1063 C   0  0  2  0  0  0  0  0  0  0  0  0
  -22.2587  -26.5640   23.1425 C   0  0  0  0  0  0  0  0  0  0  0  0
  -30.7644  -24.2080   17.3310 C   0  0  2  0  0  0  0  0  0  0  0  0
  -29.4744  -25.2951   12.9980 N   0  0  0  0  0  0  0  0  0  0  0  0
  -26.8609  -17.8595   21.0088 N   0  0  0  0  0  0  0  0  0  0  0  0
  -28.1051  -18.3432   20.8536 N   0  0  0  0  0  0  0  0  0  0  0  0
  -24.7669  -28.3647   21.3173 N   0  0  0  0  0  0  0  0  0  0  0  0
  -28.5257  -22.1393   20.7070 N   0  0  0  0  0  0  0  0  0  0  0  0
  -30.2584  -17.7901   20.0361 N   0  0  0  0  0  0  0  0  0  0  0  0
  -27.8487  -14.0556   19.2346 N   0  0  0  0  0  0  0  0  0  0  0  0
  -27.9482  -28.0012   22.8912 N   0  0  0  0  0  0  0  0  0  0  0  0
  -21.4808  -28.7110   22.0520 N   0  0  0  0  0  0  0  0  0  0  0  0
  -30.2338  -22.5451   19.1223 N   0  0  0  0  0  0  0  0  0  0  0  0
  -19.6147  -30.9075   19.8700 N   0  3  0  0  0  0  0  0  0  0  0  0
  -31.9355  -25.0226   16.8370 N   0  3  0  0  0  0  0  0  0  0  0  0
  -29.9276  -15.0056   19.0493 O   0  0  0  0  0  0  0  0  0  0  0  0
  -26.7306  -26.5965   21.4888 O   0  0  0  0  0  0  0  0  0  0  0  0
  -23.9825  -29.0103   23.4159 O   0  0  0  0  0  0  0  0  0  0  0  0
  -20.9497  -28.4314   19.8121 O   0  0  0  0  0  0  0  0  0  0  0  0
  -29.6862  -24.1468   20.6688 O   0  0  0  0  0  0  0  0  0  0  0  0
  -22.4612  -13.2927   20.4297 O   0  0  0  0  0  0  0  0  0  0  0  0
  -25.9520  -27.0214   15.4144 O   0  0  0  0  0  0  0  0  0  1  0  0
  -23.1376   -8.0504   21.9995 F   0  0  0  0  0  0  0  0  0  0  0  0
  -21.0604  -12.2640   22.5796 F   0  0  0  0  0  0  0  0  0  0  0  0
  1  2  1  0  0  0  0
  1  5  2  0  0  0  0
  2  6  2  0  0  0  0
  3  8  2  0  0  0  0
  3 18  1  0  0  0  0
  4  9  1  0  0  0  0
  4 18  2  0  0  0  0
  5 20  1  0  0  0  0
  6 22  1  0  0  0  0
  7 10  2  0  0  0  0
  7 21  1  0  0  0  0
  8 26  1  0  0  0  0
  9 26  2  0  0  0  0
 10 27  1  0  0  0  0
 11 12  2  0  0  0  0
 11 28  1  0  0  0  0
 12 29  1  0  0  0  0
 13 23  1  0  0  0  0
 13 27  2  0  0  0  0
 14 24  1  0  0  0  0
 14 25  2  0  0  0  0
 15 29  2  0  0  0  0
 15 30  1  0  0  0  0
 16 24  2  0  0  0  0
 16 67  1  0  0  0  0
 17 25  1  0  0  0  0
 17 67  2  0  0  0  0
 18 31  1  0  0  0  0
 19 31  1  0  0  0  0
 19 32  2  0  0  0  0
 19 33  1  0  0  0  0
 20 22  2  0  0  0  0
 20 38  1  0  0  0  0
 21 23  2  0  0  0  0
 21 39  1  0  0  0  0
 22 47  1  0  0  0  0
 23 40  1  0  0  0  0
 24 59  1  0  0  0  0
 25 62  1  0  0  0  0
 26 84  1  0  0  0  0
 27 85  1  0  0  0  0
 28 30  2  0  0  0  0
 28 84  1  0  0  0  0
 29 86  1  0  0  0  0
 30 87  1  0  0  0  0
 31 68  2  0  0  0  0
 32 69  1  0  0  0  0
 32 72  1  0  0  0  0
 33 73  1  0  0  0  0
 33 79  2  0  0  0  0
 34 48  1  0  0  0  0
 34 74  1  0  0  0  0
 34 80  2  0  0  0  0
 35 63  1  0  0  0  0
 35 70  1  0  0  0  0
 35 81  2  0  0  0  0
 36 64  1  0  0  0  0
 36 75  1  0  0  0  0
 36 82  2  0  0  0  0
 37 71  1  0  0  0  0
 37 76  1  0  0  0  0
 37 83  2  0  0  0  0
 38 41  1  0  0  0  0
 39 48  1  0  0  0  0
 40 70  1  0  0  0  0
 41 43  1  0  0  0  0
 42 44  1  0  0  0  0
 42 45  1  0  0  0  0
 43 47  1  0  0  0  0
 44 49  1  0  0  0  0
 45 71  1  0  0  0  0
 46 49  1  0  0  0  0
 46 71  1  0  0  0  0
 47 74  1  0  0  0  0
 48 70  1  0  0  0  0
 49 69  1  0  0  0  0
 50 62  1  0  0  0  0
 51 64  1  0  0  0  0
 52 65  1  0  0  0  0
 53 65  1  0  0  0  0
 54 65  1  0  0  0  0
 55 66  1  0  0  0  0
 56 77  1  0  0  0  0
 57 78  1  0  0  0  0
 58 78  1  0  0  0  0
 59 66  1  0  0  0  0
 60 66  1  0  0  0  0
 60 76  1  0  0  0  0
 61 62  1  0  0  0  0
 61 85  1  0  0  0  0
 63 65  1  0  0  0  0
 63 75  1  0  0  0  0
 64 77  1  0  0  0  0
 66 78  1  0  0  0  0
 68 69  1  0  0  0  0
M  CHG  2  77   1  78   1
M  ISO  4  37 100  61 101  76 100  85 101
M  END
> <Batch ID>
0109

> <Smiles>
CNC(C)C(=O)NC(C(=O)N1Cc2cc([101O:1][101CH2:1]C(C)c3cncc(CC(C)(C[100NH:0][100C:0](=O)N4CCCC(n5nc(-c6ccc(Oc7ccc(F)cc7F)cc6)c(C(N)=O)c5N)C4)N(C)C)c3)ccc2CC1C(=O)NC1CCCc2ccccc21)C(C)(C)C

> <Shape>
0.214

> <Color>
0.063

> <Negative vol penalty>
0.000

$$$$

  -OEChem-04052319563D

 85 93  0     1  0  0  0  0  0999 V2000
  -27.9479  -34.0881   28.5988 C   0  0  0  0  0  0  0  0  0  0  0  0
  -27.8310  -32.8704   27.9362 C   0  0  0  0  0  0  0  0  0  0  0  0
  -24.5889   -8.9396   21.4869 C   0  0  0  0  0  0  0  0  0  0  0  0
  -23.2065  -10.9182   21.5936 C   0  0  0  0  0  0  0  0  0  0  0  0
  -27.0046  -35.0916   28.3822 C   0  0  0  0  0  0  0  0  0  0  0  0
  -26.7700  -32.6553   27.0572 C   0  0  0  0  0  0  0  0  0  0  0  0
  -28.2422  -30.4690   22.7332 C   0  0  0  0  0  0  0  0  0  0  0  0
  -29.9549  -22.9481   21.7223 C   0  0  0  0  0  0  0  0  0  0  0  0
  -28.4497  -22.7692   23.6037 C   0  0  0  0  0  0  0  0  0  0  0  0
  -29.8799  -24.3391   21.7946 C   0  0  0  0  0  0  0  0  0  0  0  0
  -28.3748  -24.1601   23.6761 C   0  0  0  0  0  0  0  0  0  0  0  0
  -23.8387   -8.3603   22.5102 C   0  0  0  0  0  0  0  0  0  0  0  0
  -22.4563  -10.3388   22.6170 C   0  0  0  0  0  0  0  0  0  0  0  0
  -28.4854  -29.0965   22.7642 C   0  0  0  0  0  0  0  0  0  0  0  0
  -22.0622   -6.2161   24.8472 C   0  0  0  0  0  0  0  0  0  0  0  0
  -21.6737   -4.8854   24.6930 C   0  0  0  0  0  0  0  0  0  0  0  0
  -26.3127  -28.6958   21.7956 C   0  0  0  0  0  0  0  0  0  0  0  0
  -20.4667   -5.4706   22.6835 C   0  0  0  0  0  0  0  0  0  0  0  0
  -24.2728  -10.2186   21.0286 C   0  0  0  0  0  0  0  0  0  0  0  0
  -24.8104  -10.7270   18.5873 C   0  0  0  0  0  0  0  0  0  0  0  0
  -25.9369  -34.8922   27.4929 C   0  0  0  0  0  0  0  0  0  0  0  0
  -27.0261  -30.9654   22.2424 C   0  0  0  0  0  0  0  0  0  0  0  0
  -25.8108  -33.6567   26.8295 C   0  0  0  0  0  0  0  0  0  0  0  0
  -26.0576  -30.0751   21.7570 C   0  0  0  0  0  0  0  0  0  0  0  0
  -29.2397  -22.1632   22.6268 C   0  0  0  0  0  0  0  0  0  0  0  0
  -29.0899  -24.9451   22.7715 C   0  0  0  0  0  0  0  0  0  0  0  0
  -22.7724   -9.0598   23.0753 C   0  0  0  0  0  0  0  0  0  0  0  0
  -27.5194  -28.2095   22.2981 C   0  0  0  0  0  0  0  0  0  0  0  0
  -21.6529   -7.1741   23.9196 C   0  0  0  0  0  0  0  0  0  0  0  0
  -20.8760   -4.5126   23.6111 C   0  0  0  0  0  0  0  0  0  0  0  0
  -20.8552   -6.8014   22.8378 C   0  0  0  0  0  0  0  0  0  0  0  0
  -25.0477  -10.8178   19.9719 C   0  0  0  0  0  0  0  0  0  0  0  0
  -25.8195  -11.4638   18.0169 C   0  0  0  0  0  0  0  0  0  0  0  0
  -23.7708  -10.0383   17.8798 C   0  0  0  0  0  0  0  0  0  0  0  0
  -24.6301  -32.6513   23.4757 C   0  0  0  0  0  0  0  0  0  0  0  0
  -23.5630  -32.6437   20.4125 C   0  0  0  0  0  0  0  0  0  0  0  0
  -23.5618  -31.1404   17.3487 C   0  0  0  0  0  0  0  0  0  0  0  0
  -29.2037  -15.9794   20.0190 C   0  0  0  0  0  0  0  0  0  0  0  0
  -24.9156  -35.9895   27.3271 C   0  0  0  0  0  0  0  0  0  0  0  0
  -26.7899  -32.4500   22.1909 C   0  0  0  0  0  0  0  0  0  0  0  0
  -24.7438  -30.5583   21.2014 C   0  0  0  0  0  0  0  0  0  0  0  0
  -24.0308  -35.8170   26.0951 C   0  0  0  0  0  0  0  0  0  0  0  0
  -30.3380  -12.8421   18.7749 C   0  0  0  0  0  0  0  0  0  0  0  0
  -23.5239  -34.3815   25.9986 C   0  0  0  0  0  0  0  0  0  0  0  0
  -29.0894  -11.9594   18.8156 C   0  0  0  0  0  0  0  0  0  0  0  0
  -30.3878  -13.8043   19.9597 C   0  0  0  0  0  0  0  0  0  0  0  0
  -27.9333  -13.7526   20.1745 C   0  0  0  0  0  0  0  0  0  0  0  0
  -24.6879  -33.3943   25.8496 C   0  0  1  0  0  0  0  0  0  0  0  0
  -25.3102  -32.8185   22.1463 C   0  0  1  0  0  0  0  0  0  0  0  0
  -27.8103  -12.8041   18.9697 C   0  0  2  0  0  0  0  0  0  0  0  0
  -27.7091  -18.0175   17.4911 C   0  0  0  0  0  0  0  0  0  0  0  0
  -22.5638  -31.3435   15.0552 C   0  0  0  0  0  0  0  0  0  0  0  0
  -20.9194  -31.5451   21.4681 C   0  0  0  0  0  0  0  0  0  0  0  0
  -20.3373  -30.8861   19.1240 C   0  0  0  0  0  0  0  0  0  0  0  0
  -20.6889  -33.2897   19.6912 C   0  0  0  0  0  0  0  0  0  0  0  0
  -26.3824  -18.4309   20.1893 C   0  0  0  0  0  0  0  0  0  0  0  0
  -26.2219  -31.4688   16.0938 C   0  0  0  0  0  0  0  0  0  0  0  0
  -29.3193  -20.6760   22.5502 C   0  0  0  0  0  0  0  0  0  0  0  0
  -29.0112  -26.4414   22.8497 C   0  0  0  0  0  0  0  0  0  1  0  0
  -28.4051  -18.5986   18.7173 C   0  0  0  0  0  0  0  0  0  0  0  0
  -28.6541  -18.6236   21.2916 C   0  0  0  0  0  0  0  0  0  0  0  0
  -22.6807  -31.7359   19.5900 C   0  0  1  0  0  0  0  0  0  0  0  0
  -23.7393  -31.7036   15.9502 C   0  0  2  0  0  0  0  0  0  0  0  0
  -21.1804  -31.8547   19.9805 C   0  0  0  0  0  0  0  0  0  0  0  0
  -27.8765  -18.0756   20.0780 C   0  0  1  0  0  0  0  0  0  0  0  0
  -26.1232  -11.5541   20.2636 N   0  0  0  0  0  0  0  0  0  0  0  0
  -26.5708  -11.9326   19.0542 N   0  0  0  0  0  0  0  0  0  0  0  0
  -24.5574  -32.0185   21.1780 N   0  0  0  0  0  0  0  0  0  0  0  0
  -29.1460  -14.5762   20.0486 N   0  0  0  0  0  0  0  0  0  0  0  0
  -26.1287  -11.7499   16.7344 N   0  0  0  0  0  0  0  0  0  0  0  0
  -22.8149   -9.3296   18.6204 N   0  0  0  0  0  0  0  0  0  0  0  0
  -25.1880  -33.4038   24.4916 N   0  0  0  0  0  0  0  0  0  0  0  0
  -22.9612  -32.0500   18.1932 N   0  0  0  0  0  0  0  0  0  0  0  0
  -27.9806  -16.6336   20.1020 N   0  0  0  0  0  0  0  0  0  0  0  0
  -24.9838  -31.1674   15.3300 N   0  3  0  0  0  0  0  0  0  0  0  0
  -28.5412  -20.0999   21.4187 N   0  3  0  0  0  0  0  0  0  0  0  0
  -23.7012  -10.0373   16.6274 O   0  0  0  0  0  0  0  0  0  0  0  0
  -23.6695  -31.8967   23.5723 O   0  0  0  0  0  0  0  0  0  0  0  0
  -23.3813  -33.8631   20.3715 O   0  0  0  0  0  0  0  0  0  0  0  0
  -23.9166  -30.0055   17.6597 O   0  0  0  0  0  0  0  0  0  0  0  0
  -30.2660  -16.6028   19.9203 O   0  0  0  0  0  0  0  0  0  0  0  0
  -22.0401   -8.4947   24.0737 O   0  0  0  0  0  0  0  0  0  0  0  0
  -27.7539  -26.8694   22.3279 O   0  0  0  0  0  0  0  0  0  1  0  0
  -20.5043   -3.2344   23.4623 F   0  0  0  0  0  0  0  0  0  0  0  0
  -20.4599   -7.7170   21.9428 F   0  0  0  0  0  0  0  0  0  0  0  0
  1  2  1  0  0  0  0
  1  5  2  0  0  0  0
  2  6  2  0  0  0  0
  3 12  2  0  0  0  0
  3 19  1  0  0  0  0
  4 13  1  0  0  0  0
  4 19  2  0  0  0  0
  5 21  1  0  0  0  0
  6 23  1  0  0  0  0
  7 14  2  0  0  0  0
  7 22  1  0  0  0  0
  8 10  2  0  0  0  0
  8 25  1  0  0  0  0
  9 11  1  0  0  0  0
  9 25  2  0  0  0  0
 10 26  1  0  0  0  0
 11 26  2  0  0  0  0
 12 27  1  0  0  0  0
 13 27  2  0  0  0  0
 14 28  1  0  0  0  0
 15 16  2  0  0  0  0
 15 29  1  0  0  0  0
 16 30  1  0  0  0  0
 17 24  1  0  0  0  0
 17 28  2  0  0  0  0
 18 30  2  0  0  0  0
 18 31  1  0  0  0  0
 19 32  1  0  0  0  0
 20 32  1  0  0  0  0
 20 33  2  0  0  0  0
 20 34  1  0  0  0  0
 21 23  2  0  0  0  0
 21 39  1  0  0  0  0
 22 24  2  0  0  0  0
 22 40  1  0  0  0  0
 23 48  1  0  0  0  0
 24 41  1  0  0  0  0
 25 58  1  0  0  0  0
 26 59  1  0  0  0  0
 27 82  1  0  0  0  0
 28 83  1  0  0  0  0
 29 31  2  0  0  0  0
 29 82  1  0  0  0  0
 30 84  1  0  0  0  0
 31 85  1  0  0  0  0
 32 66  2  0  0  0  0
 33 67  1  0  0  0  0
 33 70  1  0  0  0  0
 34 71  1  0  0  0  0
 34 77  2  0  0  0  0
 35 49  1  0  0  0  0
 35 72  1  0  0  0  0
 35 78  2  0  0  0  0
 36 62  1  0  0  0  0
 36 68  1  0  0  0  0
 36 79  2  0  0  0  0
 37 63  1  0  0  0  0
 37 73  1  0  0  0  0
 37 80  2  0  0  0  0
 38 69  1  0  0  0  0
 38 74  1  0  0  0  0
 38 81  2  0  0  0  0
 39 42  1  0  0  0  0
 40 49  1  0  0  0  0
 41 68  1  0  0  0  0
 42 44  1  0  0  0  0
 43 45  1  0  0  0  0
 43 46  1  0  0  0  0
 44 48  1  0  0  0  0
 45 50  1  0  0  0  0
 46 69  1  0  0  0  0
 47 50  1  0  0  0  0
 47 69  1  0  0  0  0
 48 72  1  0  0  0  0
 49 68  1  0  0  0  0
 50 67  1  0  0  0  0
 51 60  1  0  0  0  0
 52 63  1  0  0  0  0
 53 64  1  0  0  0  0
 54 64  1  0  0  0  0
 55 64  1  0  0  0  0
 56 65  1  0  0  0  0
 57 75  1  0  0  0  0
 58 76  1  0  0  0  0
 59 83  1  0  0  0  0
 60 65  1  0  0  0  0
 61 65  1  0  0  0  0
 61 76  1  0  0  0  0
 62 64  1  0  0  0  0
 62 73  1  0  0  0  0
 63 75  1  0  0  0  0
 65 74  1  0  0  0  0
 66 67  1  0  0  0  0
M  CHG  2  75   1  76   1
M  ISO  4  38 100  59 101  74 100  83 101
M  END
> <Batch ID>
0109

> <Smiles>
CCC(C)(CNCc1ccc([101CH2:1][101O:1]c2ccc3c(c2)CN(C(=O)C(NC(=O)C(C)NC)C(C)(C)C)C(C(=O)NC2CCCc4ccccc42)C3)cc1)[100NH:0][100C:0](=O)N1CCCC(n2nc(-c3ccc(Oc4ccc(F)cc4F)cc3)c(C(N)=O)c2N)C1

> <Shape>
0.231

> <Color>
0.084

> <Negative vol penalty>
0.000

$$$$

  -OEChem-04052319563D

 85 93  0     1  0  0  0  0  0999 V2000
  -23.5353   -7.9545   21.6014 C   0  0  0  0  0  0  0  0  0  0  0  0
  -24.4262   -9.0095   21.4326 C   0  0  0  0  0  0  0  0  0  0  0  0
  -19.9848  -28.0654   23.5409 C   0  0  0  0  0  0  0  0  0  0  0  0
  -19.7037  -26.8159   21.4923 C   0  0  0  0  0  0  0  0  0  0  0  0
  -22.1648   -8.1723   21.4659 C   0  0  0  0  0  0  0  0  0  0  0  0
  -23.9472  -10.2830   21.1271 C   0  0  0  0  0  0  0  0  0  0  0  0
  -26.2846  -15.6354   22.9694 C   0  0  0  0  0  0  0  0  0  0  0  0
  -18.6495  -28.4639   23.4811 C   0  0  0  0  0  0  0  0  0  0  0  0
  -18.3683  -27.2143   21.4325 C   0  0  0  0  0  0  0  0  0  0  0  0
  -27.1271  -16.5551   22.3464 C   0  0  0  0  0  0  0  0  0  0  0  0
  -16.8059  -30.7526   21.8114 C   0  0  0  0  0  0  0  0  0  0  0  0
  -16.5190  -32.0944   22.0619 C   0  0  0  0  0  0  0  0  0  0  0  0
  -25.2051  -17.8392   21.6563 C   0  0  0  0  0  0  0  0  0  0  0  0
  -28.6000  -22.9656   19.8532 C   0  0  0  0  0  0  0  0  0  0  0  0
  -15.1234  -31.4482   23.9252 C   0  0  0  0  0  0  0  0  0  0  0  0
  -20.5120  -27.2414   22.5464 C   0  0  0  0  0  0  0  0  0  0  0  0
  -22.4091  -25.6818   23.2363 C   0  0  0  0  0  0  0  0  0  0  0  0
  -21.6682   -9.4511   21.1681 C   0  0  0  0  0  0  0  0  0  0  0  0
  -24.8931  -15.8051   22.9311 C   0  0  0  0  0  0  0  0  0  0  0  0
  -22.5689  -10.5179   20.9862 C   0  0  0  0  0  0  0  0  0  0  0  0
  -24.3472  -16.9216   22.2818 C   0  0  0  0  0  0  0  0  0  0  0  0
  -29.5656  -21.9846   19.6573 C   0  0  0  0  0  0  0  0  0  0  0  0
  -30.8394  -22.3457   19.2328 C   0  0  0  0  0  0  0  0  0  0  0  0
  -17.8412  -28.0384   22.4269 C   0  0  0  0  0  0  0  0  0  0  0  0
  -26.5873  -17.6557   21.6873 C   0  0  0  0  0  0  0  0  0  0  0  0
  -16.2516  -29.7585   22.6178 C   0  0  0  0  0  0  0  0  0  0  0  0
  -15.6778  -32.4422   23.1187 C   0  0  0  0  0  0  0  0  0  0  0  0
  -15.4103  -30.1063   23.6747 C   0  0  0  0  0  0  0  0  0  0  0  0
  -21.8915  -26.8299   22.6073 C   0  0  0  0  0  0  0  0  0  0  0  0
  -31.0951  -23.6907   19.0199 C   0  0  0  0  0  0  0  0  0  0  0  0
  -28.9559  -24.2830   19.6128 C   0  0  0  0  0  0  0  0  0  0  0  0
  -23.7623  -25.7468   23.0100 C   0  0  0  0  0  0  0  0  0  0  0  0
  -21.7277  -24.6488   23.9604 C   0  0  0  0  0  0  0  0  0  0  0  0
  -22.4605  -14.1301   21.7561 C   0  0  0  0  0  0  0  0  0  0  0  0
  -20.6853  -16.3956   23.2522 C   0  0  0  0  0  0  0  0  0  0  0  0
  -20.4917  -19.5630   24.5079 C   0  0  0  0  0  0  0  0  0  0  0  0
  -28.0985  -26.6516   19.6364 C   0  0  0  0  0  0  0  0  0  0  0  0
  -20.1816   -9.6280   20.9848 C   0  0  0  0  0  0  0  0  0  0  0  0
  -23.9992  -14.8184   23.6308 C   0  0  0  0  0  0  0  0  0  0  0  0
  -22.8611  -17.1603   22.2292 C   0  0  0  0  0  0  0  0  0  0  0  0
  -19.7316  -11.0860   21.0295 C   0  0  0  0  0  0  0  0  0  0  0  0
  -26.6182  -29.5013   21.1743 C   0  0  0  0  0  0  0  0  0  0  0  0
  -20.6419  -11.9524   20.1649 C   0  0  0  0  0  0  0  0  0  0  0  0
  -25.2991  -28.9659   21.7359 C   0  0  0  0  0  0  0  0  0  0  0  0
  -26.9678  -28.8555   19.8347 C   0  0  0  0  0  0  0  0  0  0  0  0
  -25.6495  -26.8517   20.3964 C   0  0  0  0  0  0  0  0  0  0  0  0
  -22.0863  -11.9188   20.6786 C   0  0  1  0  0  0  0  0  0  0  0  0
  -22.5732  -14.8150   23.0887 C   0  0  1  0  0  0  0  0  0  0  0  0
  -25.2878  -27.4252   21.7762 C   0  0  2  0  0  0  0  0  0  0  0  0
  -32.3735  -25.3767   17.6746 C   0  0  0  0  0  0  0  0  0  0  0  0
  -31.9191  -20.8084   17.5748 C   0  0  0  0  0  0  0  0  0  0  0  0
  -18.8995  -21.1411   25.6357 C   0  0  0  0  0  0  0  0  0  0  0  0
  -19.2697  -16.8657   20.5904 C   0  0  0  0  0  0  0  0  0  0  0  0
  -18.4077  -19.0288   21.5104 C   0  0  0  0  0  0  0  0  0  0  0  0
  -17.7648  -16.8727   22.5878 C   0  0  0  0  0  0  0  0  0  0  0  0
  -22.2169  -19.7757   26.9032 C   0  0  0  0  0  0  0  0  0  0  0  0
  -29.2083  -20.5417   19.9101 C   0  0  0  0  0  0  0  0  0  0  0  0
  -32.4452  -24.1381   18.5623 C   0  0  0  0  0  0  0  0  0  0  0  0
  -29.1507  -20.1723   21.3940 C   0  0  0  0  0  0  0  0  0  0  0  0
  -28.7056  -18.7357   21.6418 C   0  0  0  0  0  0  0  0  0  1  0  0
  -31.8961  -21.3155   19.0152 C   0  0  1  0  0  0  0  0  0  0  0  0
  -20.1228  -17.7418   22.8643 C   0  0  1  0  0  0  0  0  0  0  0  0
  -19.9805  -20.0904   25.8365 C   0  0  2  0  0  0  0  0  0  0  0  0
  -18.9192  -17.6220   21.8874 C   0  0  0  0  0  0  0  0  0  0  0  0
  -22.8386  -27.5702   22.0252 N   0  0  0  0  0  0  0  0  0  0  0  0
  -30.1829  -24.6722   19.1996 N   0  0  0  0  0  0  0  0  0  0  0  0
  -23.9650  -26.8858   22.2876 N   0  0  0  0  0  0  0  0  0  0  0  0
  -22.0283  -16.1640   22.9230 N   0  0  0  0  0  0  0  0  0  0  0  0
  -26.9416  -27.3958   19.9502 N   0  0  0  0  0  0  0  0  0  0  0  0
  -24.7866  -24.9404   23.3605 N   0  0  0  0  0  0  0  0  0  0  0  0
  -20.3358  -24.7366   24.0988 N   0  0  0  0  0  0  0  0  0  0  0  0
  -27.9648  -25.2751   19.8151 N   0  0  0  0  0  0  0  0  0  0  0  0
  -22.2296  -12.7703   21.8400 N   0  0  0  0  0  0  0  0  0  0  0  0
  -19.8128  -18.4298   24.1129 N   0  0  0  0  0  0  0  0  0  0  0  0
  -21.0943  -20.7044   26.6132 N   0  3  0  0  0  0  0  0  0  0  0  0
  -22.3371  -23.6853   24.4837 O   0  0  0  0  0  0  0  0  0  0  0  0
  -22.5732  -14.7871   20.7277 O   0  0  0  0  0  0  0  0  0  0  0  0
  -19.9618  -15.5823   23.8325 O   0  0  0  0  0  0  0  0  0  0  0  0
  -21.3999  -20.1045   23.8813 O   0  0  0  0  0  0  0  0  0  0  0  0
  -29.1404  -27.1978   19.2644 O   0  0  0  0  0  0  0  0  0  0  0  0
  -16.5380  -28.4268   22.3684 O   0  0  0  0  0  0  0  0  0  0  0  0
  -27.4073  -18.5546   21.0779 O   0  0  0  0  0  0  0  0  0  1  0  0
  -15.4035  -33.7309   23.3601 F   0  0  0  0  0  0  0  0  0  0  0  0
  -14.8757  -29.1558   24.4536 F   0  0  0  0  0  0  0  0  0  0  0  0
  -33.1601  -21.7699   19.2974 F   0  0  0  0  0  0  0  0  0  0  0  0
  1  2  1  0  0  0  0
  1  5  2  0  0  0  0
  2  6  2  0  0  0  0
  3  8  2  0  0  0  0
  3 16  1  0  0  0  0
  4  9  1  0  0  0  0
  4 16  2  0  0  0  0
  5 18  1  0  0  0  0
  6 20  1  0  0  0  0
  7 10  2  0  0  0  0
  7 19  1  0  0  0  0
  8 24  1  0  0  0  0
  9 24  2  0  0  0  0
 10 25  1  0  0  0  0
 11 12  2  0  0  0  0
 11 26  1  0  0  0  0
 12 27  1  0  0  0  0
 13 21  1  0  0  0  0
 13 25  2  0  0  0  0
 14 22  2  0  0  0  0
 14 31  1  0  0  0  0
 15 27  2  0  0  0  0
 15 28  1  0  0  0  0
 16 29  1  0  0  0  0
 17 29  1  0  0  0  0
 17 32  2  0  0  0  0
 17 33  1  0  0  0  0
 18 20  2  0  0  0  0
 18 38  1  0  0  0  0
 19 21  2  0  0  0  0
 19 39  1  0  0  0  0
 20 47  1  0  0  0  0
 21 40  1  0  0  0  0
 22 23  1  0  0  0  0
 22 57  1  0  0  0  0
 23 30  2  0  0  0  0
 23 61  1  0  0  0  0
 24 81  1  0  0  0  0
 25 82  1  0  0  0  0
 26 28  2  0  0  0  0
 26 81  1  0  0  0  0
 27 83  1  0  0  0  0
 28 84  1  0  0  0  0
 29 65  2  0  0  0  0
 30 58  1  0  0  0  0
 30 66  1  0  0  0  0
 31 66  2  0  0  0  0
 31 72  1  0  0  0  0
 32 67  1  0  0  0  0
 32 70  1  0  0  0  0
 33 71  1  0  0  0  0
 33 76  2  0  0  0  0
 34 48  1  0  0  0  0
 34 73  1  0  0  0  0
 34 77  2  0  0  0  0
 35 62  1  0  0  0  0
 35 68  1  0  0  0  0
 35 78  2  0  0  0  0
 36 63  1  0  0  0  0
 36 74  1  0  0  0  0
 36 79  2  0  0  0  0
 37 69  1  0  0  0  0
 37 72  1  0  0  0  0
 37 80  2  0  0  0  0
 38 41  1  0  0  0  0
 39 48  1  0  0  0  0
 40 68  1  0  0  0  0
 41 43  1  0  0  0  0
 42 44  1  0  0  0  0
 42 45  1  0  0  0  0
 43 47  1  0  0  0  0
 44 49  1  0  0  0  0
 45 69  1  0  0  0  0
 46 49  1  0  0  0  0
 46 69  1  0  0  0  0
 47 73  1  0  0  0  0
 48 68  1  0  0  0  0
 49 67  1  0  0  0  0
 50 58  1  0  0  0  0
 51 61  1  0  0  0  0
 52 63  1  0  0  0  0
 53 64  1  0  0  0  0
 54 64  1  0  0  0  0
 55 64  1  0  0  0  0
 56 75  1  0  0  0  0
 57 59  1  0  0  0  0
 59 60  1  0  0  0  0
 60 82  1  0  0  0  0
 61 85  1  0  0  0  0
 62 64  1  0  0  0  0
 62 74  1  0  0  0  0
 63 75  1  0  0  0  0
 65 67  1  0  0  0  0
M  CHG  1  75   1
M  ISO  4  37 100  60 101  72 100  82 101
M  END
> <Batch ID>
0109

> <Smiles>
CCc1nc([100NH:0][100C:0](=O)N2CCCC(n3nc(-c4ccc(Oc5ccc(F)cc5F)cc4)c(C(N)=O)c3N)C2)cc(CC[101CH2:1][101O:1]c2ccc3c(c2)CN(C(=O)C(NC(=O)C(C)NC)C(C)(C)C)C(C(=O)NC2CCCc4ccccc42)C3)c1C(C)F

> <Shape>
0.204

> <Color>
0.102

> <Negative vol penalty>
0.000

$$$$

  -OEChem-04052319563D

 87 95  0     1  0  0  0  0  0999 V2000
  -16.6123  -30.3524   23.3473 C   0  0  0  0  0  0  0  0  0  0  0  0
  -17.7327  -31.0766   23.7420 C   0  0  0  0  0  0  0  0  0  0  0  0
  -28.7735  -16.5820   22.8346 C   0  0  0  0  0  0  0  0  0  0  0  0
  -27.2016  -17.8858   21.5437 C   0  0  0  0  0  0  0  0  0  0  0  0
  -16.7497  -29.0276   22.9352 C   0  0  0  0  0  0  0  0  0  0  0  0
  -18.9910  -30.4759   23.7259 C   0  0  0  0  0  0  0  0  0  0  0  0
  -25.8987  -32.0158   22.6171 C   0  0  0  0  0  0  0  0  0  0  0  0
  -28.7057  -25.4597   24.4588 C   0  0  0  0  0  0  0  0  0  0  0  0
  -27.5238  -24.7563   24.6912 C   0  0  0  0  0  0  0  0  0  0  0  0
  -28.4124  -15.4395   22.1204 C   0  0  0  0  0  0  0  0  0  0  0  0
  -26.8405  -16.7433   20.8295 C   0  0  0  0  0  0  0  0  0  0  0  0
  -27.1450  -31.8734   23.2254 C   0  0  0  0  0  0  0  0  0  0  0  0
  -28.1649  -12.2510   20.3922 C   0  0  0  0  0  0  0  0  0  0  0  0
  -29.1885  -11.4179   19.9407 C   0  0  0  0  0  0  0  0  0  0  0  0
  -27.2725  -29.6034   22.4190 C   0  0  0  0  0  0  0  0  0  0  0  0
  -28.2997  -26.7937   26.4318 C   0  0  0  0  0  0  0  0  0  0  0  0
  -30.1025  -13.2421   18.6469 C   0  0  0  0  0  0  0  0  0  0  0  0
  -28.1680  -17.8051   22.5463 C   0  0  0  0  0  0  0  0  0  0  0  0
  -29.5611  -19.9008   22.9650 C   0  0  0  0  0  0  0  0  0  0  0  0
  -18.0116  -28.4134   22.9048 C   0  0  0  0  0  0  0  0  0  0  0  0
  -25.3240  -30.9478   21.9131 C   0  0  0  0  0  0  0  0  0  0  0  0
  -19.1452  -29.1412   23.3143 C   0  0  0  0  0  0  0  0  0  0  0  0
  -26.0199  -29.7357   21.8005 C   0  0  0  0  0  0  0  0  0  0  0  0
  -29.0936  -26.4784   25.3292 C   0  0  0  0  0  0  0  0  0  0  0  0
  -26.7298  -25.0716   25.7938 C   0  0  0  0  0  0  0  0  0  0  0  0
  -27.4460  -15.5202   21.1179 C   0  0  0  0  0  0  0  0  0  0  0  0
  -27.8308  -30.6662   23.1289 C   0  0  0  0  0  0  0  0  0  0  0  0
  -28.1100  -13.5796   19.9709 C   0  0  0  0  0  0  0  0  0  0  0  0
  -27.1177  -26.0903   26.6642 C   0  0  0  0  0  0  0  0  0  0  0  0
  -30.1573  -11.9135   19.0681 C   0  0  0  0  0  0  0  0  0  0  0  0
  -29.0788  -14.0752   19.0983 C   0  0  0  0  0  0  0  0  0  0  0  0
  -28.5402  -18.9855   23.2841 C   0  0  0  0  0  0  0  0  0  0  0  0
  -29.5102  -20.8359   23.9697 C   0  0  0  0  0  0  0  0  0  0  0  0
  -30.4737  -19.9054   21.8592 C   0  0  0  0  0  0  0  0  0  0  0  0
  -22.6773  -29.2165   22.2321 C   0  0  0  0  0  0  0  0  0  0  0  0
  -25.5800  -23.5163   27.3037 C   0  0  0  0  0  0  0  0  0  0  0  0
  -23.6352  -27.9444   19.4061 C   0  0  0  0  0  0  0  0  0  0  0  0
  -26.1927  -27.2815   17.2458 C   0  0  0  0  0  0  0  0  0  0  0  0
  -18.1040  -26.9643   22.4968 C   0  0  0  0  0  0  0  0  0  0  0  0
  -23.9907  -31.1261   21.2400 C   0  0  0  0  0  0  0  0  0  0  0  0
  -25.4556  -28.5652   21.0390 C   0  0  0  0  0  0  0  0  0  0  0  0
  -19.5225  -26.5179   22.1520 C   0  0  0  0  0  0  0  0  0  0  0  0
  -27.7155  -20.9307   28.5665 C   0  0  0  0  0  0  0  0  0  0  0  0
  -20.5068  -27.0008   23.2126 C   0  0  0  0  0  0  0  0  0  0  0  0
  -28.2205  -20.2336   27.3038 C   0  0  0  0  0  0  0  0  0  0  0  0
  -26.2778  -21.4130   28.4009 C   0  0  0  0  0  0  0  0  0  0  0  0
  -26.5708  -21.6028   25.9515 C   0  0  0  0  0  0  0  0  0  0  0  0
  -20.5303  -28.5322   23.2870 C   0  0  1  0  0  0  0  0  0  0  0  0
  -23.2696  -29.8065   20.9836 C   0  0  1  0  0  0  0  0  0  0  0  0
  -28.0299  -21.1271   26.0653 C   0  0  2  0  0  0  0  0  0  0  0  0
  -26.6723  -26.1959   15.0348 C   0  0  0  0  0  0  0  0  0  0  0  0
  -22.9152  -24.3342   26.3229 C   0  0  0  0  0  0  0  0  0  0  0  0
  -23.9751  -25.9341   24.7325 C   0  0  0  0  0  0  0  0  0  0  0  0
  -23.4055  -25.1949   20.7089 C   0  0  0  0  0  0  0  0  0  0  0  0
  -24.7714  -24.2662   18.8274 C   0  0  0  0  0  0  0  0  0  0  0  0
  -22.5547  -25.3106   18.3601 C   0  0  0  0  0  0  0  0  0  0  0  0
  -27.1765  -29.8187   16.0823 C   0  0  0  0  0  0  0  0  0  0  0  0
  -26.8261  -27.4645   28.5831 C   0  0  0  0  0  0  0  0  0  0  0  0
  -30.3720  -27.2381   25.0779 C   0  0  0  0  0  0  0  0  0  0  0  0
  -30.1922  -28.4813   24.2005 C   0  0  0  0  0  0  0  0  0  0  0  0
  -29.4933  -30.1564   26.0592 C   0  0  0  0  0  0  0  0  0  0  0  0
  -25.4674  -24.3092   26.0260 C   0  0  1  0  0  0  0  0  0  0  0  0
  -24.5087  -26.7828   18.9979 C   0  0  1  0  0  0  0  0  0  0  0  0
  -26.3272  -27.4936   15.7487 C   0  0  2  0  0  0  0  0  0  0  0  0
  -24.1697  -25.1785   26.0541 C   0  0  0  0  0  0  0  0  0  0  0  0
  -29.1710  -29.5063   24.7146 C   0  0  1  0  0  0  0  0  0  1  0  0
  -23.8201  -25.4099   19.2396 C   0  0  0  0  0  0  0  0  0  0  0  0
  -27.8886  -19.3097   24.4040 N   0  0  0  0  0  0  0  0  0  0  0  0
  -28.5015  -20.4391   24.7975 N   0  0  0  0  0  0  0  0  0  0  0  0
  -24.1461  -28.7868   20.4037 N   0  0  0  0  0  0  0  0  0  0  0  0
  -26.1335  -22.2399   27.2015 N   0  0  0  0  0  0  0  0  0  0  0  0
  -30.2305  -21.9505   24.2171 N   0  0  0  0  0  0  0  0  0  0  0  0
  -30.3886  -18.8700   20.9184 N   0  0  0  0  0  0  0  0  0  0  0  0
  -21.3029  -29.0796   22.1925 N   0  0  0  0  0  0  0  0  0  0  0  0
  -24.8878  -27.0250   17.6101 N   0  0  0  0  0  0  0  0  0  0  0  0
  -30.7521  -30.9383   25.9832 N   0  3  0  0  0  0  0  0  0  0  0  0
  -27.3992  -28.4879   15.4606 N   0  3  0  0  0  0  0  0  0  0  0  0
  -31.3497  -20.7922   21.7186 O   0  0  0  0  0  0  0  0  0  0  0  0
  -23.4131  -28.9070   23.1619 O   0  0  0  0  0  0  0  0  0  0  0  0
  -25.1898  -24.0191   28.3607 O   0  0  0  0  0  0  0  0  0  0  0  0
  -22.5431  -28.1028   18.8549 O   0  0  0  0  0  0  0  0  0  0  0  0
  -27.1501  -27.3342   18.0147 O   0  0  0  0  0  0  0  0  0  0  0  0
  -27.0936  -14.4057   20.4206 O   0  0  0  0  0  0  0  0  0  0  0  0
  -26.3545  -26.4102   27.7465 O   0  0  0  0  0  0  0  0  0  0  0  0
  -29.0472  -30.5242   23.7222 O   0  0  0  0  0  0  0  0  0  1  0  0
  -31.1411  -11.1138   18.6359 F   0  0  0  0  0  0  0  0  0  0  0  0
  -29.0320  -15.3510   18.6911 F   0  0  0  0  0  0  0  0  0  0  0  0
  1  2  1  0  0  0  0
  1  5  2  0  0  0  0
  2  6  2  0  0  0  0
  3 10  2  0  0  0  0
  3 18  1  0  0  0  0
  4 11  1  0  0  0  0
  4 18  2  0  0  0  0
  5 20  1  0  0  0  0
  6 22  1  0  0  0  0
  7 12  2  0  0  0  0
  7 21  1  0  0  0  0
  8  9  2  0  0  0  0
  8 24  1  0  0  0  0
  9 25  1  0  0  0  0
 10 26  1  0  0  0  0
 11 26  2  0  0  0  0
 12 27  1  0  0  0  0
 13 14  2  0  0  0  0
 13 28  1  0  0  0  0
 14 30  1  0  0  0  0
 15 23  1  0  0  0  0
 15 27  2  0  0  0  0
 16 24  2  0  0  0  0
 16 29  1  0  0  0  0
 17 30  2  0  0  0  0
 17 31  1  0  0  0  0
 18 32  1  0  0  0  0
 19 32  1  0  0  0  0
 19 33  2  0  0  0  0
 19 34  1  0  0  0  0
 20 22  2  0  0  0  0
 20 39  1  0  0  0  0
 21 23  2  0  0  0  0
 21 40  1  0  0  0  0
 22 48  1  0  0  0  0
 23 41  1  0  0  0  0
 24 59  1  0  0  0  0
 25 29  2  0  0  0  0
 25 62  1  0  0  0  0
 26 83  1  0  0  0  0
 27 85  1  0  0  0  0
 28 31  2  0  0  0  0
 28 83  1  0  0  0  0
 29 84  1  0  0  0  0
 30 86  1  0  0  0  0
 31 87  1  0  0  0  0
 32 68  2  0  0  0  0
 33 69  1  0  0  0  0
 33 72  1  0  0  0  0
 34 73  1  0  0  0  0
 34 78  2  0  0  0  0
 35 49  1  0  0  0  0
 35 74  1  0  0  0  0
 35 79  2  0  0  0  0
 36 62  1  0  0  0  0
 36 71  1  0  0  0  0
 36 80  2  0  0  0  0
 37 63  1  0  0  0  0
 37 70  1  0  0  0  0
 37 81  2  0  0  0  0
 38 64  1  0  0  0  0
 38 75  1  0  0  0  0
 38 82  2  0  0  0  0
 39 42  1  0  0  0  0
 40 49  1  0  0  0  0
 41 70  1  0  0  0  0
 42 44  1  0  0  0  0
 43 45  1  0  0  0  0
 43 46  1  0  0  0  0
 44 48  1  0  0  0  0
 45 50  1  0  0  0  0
 46 71  1  0  0  0  0
 47 50  1  0  0  0  0
 47 71  1  0  0  0  0
 48 74  1  0  0  0  0
 49 70  1  0  0  0  0
 50 69  1  0  0  0  0
 51 64  1  0  0  0  0
 52 65  1  0  0  0  0
 53 65  1  0  0  0  0
 54 67  1  0  0  0  0
 55 67  1  0  0  0  0
 56 67  1  0  0  0  0
 57 77  1  0  0  0  0
 58 84  1  0  0  0  0
 59 60  1  0  0  0  0
 60 66  1  0  0  0  0
 61 66  1  0  0  0  0
 61 76  1  0  0  0  0
 62 65  1  0  0  0  0
 63 67  1  0  0  0  0
 63 75  1  0  0  0  0
 64 77  1  0  0  0  0
 66 85  1  0  0  0  0
 68 69  1  0  0  0  0
M  CHG  2  76   1  77   1
M  ISO  4  36 100  62 100  66 101  85 101
M  END
> <Batch ID>
0109

> <Smiles>
CNC(C)C(=O)NC(C(=O)N1Cc2cc([101O:1][101CH:1](CN)CCc3ccc([100CH:0](C(C)C)[100C:0](=O)N4CCCC(n5nc(-c6ccc(Oc7ccc(F)cc7F)cc6)c(C(N)=O)c5N)C4)c(OC)c3)ccc2CC1C(=O)NC1CCCc2ccccc21)C(C)(C)C

> <Shape>
0.209

> <Color>
0.107

> <Negative vol penalty>
0.000

$$$$

  -OEChem-04052319563D

 83 91  0     1  0  0  0  0  0999 V2000
  -23.5003  -19.5978   25.9314 C   0  0  0  0  0  0  0  0  0  0  0  0
  -24.2734  -19.9464   24.8285 C   0  0  0  0  0  0  0  0  0  0  0  0
  -26.4725  -12.5215   21.6912 C   0  0  0  0  0  0  0  0  0  0  0  0
  -25.9650  -13.9309   19.7956 C   0  0  0  0  0  0  0  0  0  0  0  0
  -22.3789  -20.3570   26.2631 C   0  0  0  0  0  0  0  0  0  0  0  0
  -23.9248  -21.0537   24.0560 C   0  0  0  0  0  0  0  0  0  0  0  0
  -27.9126  -23.9582   22.9131 C   0  0  0  0  0  0  0  0  0  0  0  0
  -25.1774  -12.0049   21.6539 C   0  0  0  0  0  0  0  0  0  0  0  0
  -24.6699  -13.4143   19.7582 C   0  0  0  0  0  0  0  0  0  0  0  0
  -28.7494  -23.5165   21.8893 C   0  0  0  0  0  0  0  0  0  0  0  0
  -23.4569   -9.7230   19.8468 C   0  0  0  0  0  0  0  0  0  0  0  0
  -23.3060   -8.3419   19.9715 C   0  0  0  0  0  0  0  0  0  0  0  0
  -27.6707  -25.0380   20.3594 C   0  0  0  0  0  0  0  0  0  0  0  0
  -21.9655   -8.6676   21.9550 C   0  0  0  0  0  0  0  0  0  0  0  0
  -26.8663  -13.4845   20.7621 C   0  0  0  0  0  0  0  0  0  0  0  0
  -29.3370  -13.5231   20.1282 C   0  0  0  0  0  0  0  0  0  0  0  0
  -22.0219  -21.4799   25.5001 C   0  0  0  0  0  0  0  0  0  0  0  0
  -26.9396  -24.9370   22.6648 C   0  0  0  0  0  0  0  0  0  0  0  0
  -22.7968  -21.8278   24.3771 C   0  0  0  0  0  0  0  0  0  0  0  0
  -26.8245  -25.4922   21.3824 C   0  0  0  0  0  0  0  0  0  0  0  0
  -24.2760  -12.4513   20.6874 C   0  0  0  0  0  0  0  0  0  0  0  0
  -28.6266  -24.0543   20.6114 C   0  0  0  0  0  0  0  0  0  0  0  0
  -22.8622  -10.5763   20.7762 C   0  0  0  0  0  0  0  0  0  0  0  0
  -22.5603   -7.8142   21.0256 C   0  0  0  0  0  0  0  0  0  0  0  0
  -22.1165  -10.0486   21.8303 C   0  0  0  0  0  0  0  0  0  0  0  0
  -28.2038  -14.0189   20.8005 C   0  0  0  0  0  0  0  0  0  0  0  0
  -30.3512  -14.3759   20.4897 C   0  0  0  0  0  0  0  0  0  0  0  0
  -29.4617  -12.3928   19.2550 C   0  0  0  0  0  0  0  0  0  0  0  0
  -23.7663  -25.0354   22.8201 C   0  0  0  0  0  0  0  0  0  0  0  0
  -24.2210  -28.1809   22.1708 C   0  0  0  0  0  0  0  0  0  0  0  0
  -26.2194  -30.6044   20.8366 C   0  0  0  0  0  0  0  0  0  0  0  0
  -32.2890  -19.5339   21.3760 C   0  0  0  0  0  0  0  0  0  0  0  0
  -20.7740  -22.2419   25.8698 C   0  0  0  0  0  0  0  0  0  0  0  0
  -26.0625  -25.4219   23.7864 C   0  0  0  0  0  0  0  0  0  0  0  0
  -25.8095  -26.5599   21.0688 C   0  0  0  0  0  0  0  0  0  0  0  0
  -20.6875  -23.6207   25.2205 C   0  0  0  0  0  0  0  0  0  0  0  0
  -30.5188  -17.9732   24.0420 C   0  0  0  0  0  0  0  0  0  0  0  0
  -21.0296  -23.5344   23.7365 C   0  0  0  0  0  0  0  0  0  0  0  0
  -29.8476  -16.7687   23.3796 C   0  0  0  0  0  0  0  0  0  0  0  0
  -32.8528  -22.7457   16.7208 C   0  0  0  0  0  0  0  0  0  0  0  0
  -30.7433  -21.9569   17.8752 C   0  0  0  0  0  0  0  0  0  0  0  0
  -30.5550  -19.1822   23.1099 C   0  0  0  0  0  0  0  0  0  0  0  0
  -30.4854  -17.7226   21.1253 C   0  0  0  0  0  0  0  0  0  0  0  0
  -32.0994  -23.9567   16.1901 C   0  0  0  0  0  0  0  0  0  0  0  0
  -22.4652  -23.0366   23.5293 C   0  0  1  0  0  0  0  0  0  0  0  0
  -24.7625  -26.0536   23.2981 C   0  0  1  0  0  0  0  0  0  0  0  0
  -30.4752  -16.4618   22.0066 C   0  0  2  0  0  0  0  0  0  0  0  0
  -31.9034  -21.5737   16.9579 C   0  0  2  0  0  0  0  0  0  0  0  0
  -29.9959  -23.1761   17.3299 C   0  0  1  0  0  0  0  0  0  0  0  0
  -26.3056  -33.0773   20.4191 C   0  0  0  0  0  0  0  0  0  0  0  0
  -27.6728  -22.7866   18.2116 C   0  0  0  0  0  0  0  0  0  0  0  0
  -22.2743  -27.8535   19.8442 C   0  0  0  0  0  0  0  0  0  0  0  0
  -23.1182  -30.0235   18.9237 C   0  0  0  0  0  0  0  0  0  0  0  0
  -21.9935  -29.9680   21.1496 C   0  0  0  0  0  0  0  0  0  0  0  0
  -28.6333  -30.9216   22.5193 C   0  0  0  0  0  0  0  0  0  0  0  0
  -33.3880  -19.6148   16.5586 C   0  0  0  0  0  0  0  0  0  0  0  0
  -33.9668  -19.7555   19.5608 C   0  0  0  0  0  0  0  0  0  0  0  0
  -33.5940  -20.9236   18.6670 C   0  0  0  0  0  0  0  0  0  0  0  0
  -24.3209  -29.0092   20.9127 C   0  0  1  0  0  0  0  0  0  0  0  0
  -26.6659  -31.9514   21.3757 C   0  0  2  0  0  0  0  0  0  0  0  0
  -28.9159  -23.6603   18.2840 C   0  0  1  0  0  0  0  0  0  1  0  0
  -22.9447  -29.1921   20.2127 C   0  0  0  0  0  0  0  0  0  0  0  0
  -28.4724  -15.1026   21.5337 N   0  0  0  0  0  0  0  0  0  0  0  0
  -29.7859  -15.2947   21.3243 N   0  0  0  0  0  0  0  0  0  0  0  0
  -24.9709  -26.9965   22.1973 N   0  0  0  0  0  0  0  0  0  0  0  0
  -31.1632  -18.8246   21.8261 N   0  0  0  0  0  0  0  0  0  0  0  0
  -31.6624  -14.4220   20.1720 N   0  0  0  0  0  0  0  0  0  0  0  0
  -28.3201  -11.6241   18.9900 N   0  0  0  0  0  0  0  0  0  0  0  0
  -23.4108  -24.1039   23.7768 N   0  0  0  0  0  0  0  0  0  0  0  0
  -24.9663  -30.2597   21.2975 N   0  0  0  0  0  0  0  0  0  0  0  0
  -32.8070  -19.1268   20.1527 N   0  0  0  0  0  0  0  0  0  0  0  0
  -30.9811  -24.2915   17.1239 N   0  3  0  0  0  0  0  0  0  0  0  0
  -28.1419  -31.9635   21.5813 N   0  3  0  0  0  0  0  0  0  0  0  0
  -32.6616  -20.4556   17.5782 N   0  3  1  0  0  0  0  0  0  0  0  0
  -30.5566  -12.0643   18.7384 O   0  0  0  0  0  0  0  0  0  0  0  0
  -23.3497  -25.0917   21.6690 O   0  0  0  0  0  0  0  0  0  0  0  0
  -23.5095  -28.5739   23.0987 O   0  0  0  0  0  0  0  0  0  0  0  0
  -26.9112  -29.9274   20.0793 O   0  0  0  0  0  0  0  0  0  0  0  0
  -32.7981  -20.4579   22.0195 O   0  0  0  0  0  0  0  0  0  0  0  0
  -23.0123  -11.9472   20.6505 O   0  0  0  0  0  0  0  0  0  0  0  0
  -29.4417  -23.6244   19.6101 O   0  0  0  0  0  0  0  0  0  1  0  0
  -22.4142   -6.4881   21.1444 F   0  0  0  0  0  0  0  0  0  0  0  0
  -21.5418  -10.8635   22.7256 F   0  0  0  0  0  0  0  0  0  0  0  0
  1  2  1  0  0  0  0
  1  5  2  0  0  0  0
  2  6  2  0  0  0  0
  3  8  2  0  0  0  0
  3 15  1  0  0  0  0
  4  9  1  0  0  0  0
  4 15  2  0  0  0  0
  5 17  1  0  0  0  0
  6 19  1  0  0  0  0
  7 10  2  0  0  0  0
  7 18  1  0  0  0  0
  8 21  1  0  0  0  0
  9 21  2  0  0  0  0
 10 22  1  0  0  0  0
 11 12  2  0  0  0  0
 11 23  1  0  0  0  0
 12 24  1  0  0  0  0
 13 20  1  0  0  0  0
 13 22  2  0  0  0  0
 14 24  2  0  0  0  0
 14 25  1  0  0  0  0
 15 26  1  0  0  0  0
 16 26  1  0  0  0  0
 16 27  2  0  0  0  0
 16 28  1  0  0  0  0
 17 19  2  0  0  0  0
 17 33  1  0  0  0  0
 18 20  2  0  0  0  0
 18 34  1  0  0  0  0
 19 45  1  0  0  0  0
 20 35  1  0  0  0  0
 21 80  1  0  0  0  0
 22 81  1  0  0  0  0
 23 25  2  0  0  0  0
 23 80  1  0  0  0  0
 24 82  1  0  0  0  0
 25 83  1  0  0  0  0
 26 63  2  0  0  0  0
 27 64  1  0  0  0  0
 27 67  1  0  0  0  0
 28 68  1  0  0  0  0
 28 75  2  0  0  0  0
 29 46  1  0  0  0  0
 29 69  1  0  0  0  0
 29 76  2  0  0  0  0
 30 59  1  0  0  0  0
 30 65  1  0  0  0  0
 30 77  2  0  0  0  0
 31 60  1  0  0  0  0
 31 70  1  0  0  0  0
 31 78  2  0  0  0  0
 32 66  1  0  0  0  0
 32 71  1  0  0  0  0
 32 79  2  0  0  0  0
 33 36  1  0  0  0  0
 34 46  1  0  0  0  0
 35 65  1  0  0  0  0
 36 38  1  0  0  0  0
 37 39  1  0  0  0  0
 37 42  1  0  0  0  0
 38 45  1  0  0  0  0
 39 47  1  0  0  0  0
 40 44  1  0  0  0  0
 40 48  1  0  0  0  0
 41 48  1  0  0  0  0
 41 49  1  0  0  0  0
 42 66  1  0  0  0  0
 43 47  1  0  0  0  0
 43 66  1  0  0  0  0
 44 72  1  0  0  0  0
 45 69  1  0  0  0  0
 46 65  1  0  0  0  0
 47 64  1  0  0  0  0
 48 74  1  0  0  0  0
 49 61  1  0  0  0  0
 49 72  1  0  0  0  0
 50 60  1  0  0  0  0
 51 61  1  0  0  0  0
 52 62  1  0  0  0  0
 53 62  1  0  0  0  0
 54 62  1  0  0  0  0
 55 73  1  0  0  0  0
 56 74  1  0  0  0  0
 57 58  1  0  0  0  0
 57 71  1  0  0  0  0
 58 74  1  0  0  0  0
 59 62  1  0  0  0  0
 59 70  1  0  0  0  0
 60 73  1  0  0  0  0
 61 81  1  0  0  0  0
 63 64  1  0  0  0  0
M  CHG  3  72   1  73   1  74   1
M  ISO  4  32 100  61 101  71 100  81 101
M  END
> <Batch ID>
0109

> <Smiles>
CNC(C)C(=O)NC(C(=O)N1Cc2cc([101O:1][101CH:1](C)C3CC(N(C)CC[100NH:0][100C:0](=O)N4CCCC(n5nc(-c6ccc(Oc7ccc(F)cc7F)cc6)c(C(N)=O)c5N)C4)CCN3)ccc2CC1C(=O)NC1CCCc2ccccc21)C(C)(C)C

> <Shape>
0.224

> <Color>
0.068

> <Negative vol penalty>
0.000

$$$$

  -OEChem-04052319563D

 80 88  0     1  0  0  0  0  0999 V2000
  -23.8081  -31.6396   20.9773 C   0  0  0  0  0  0  0  0  0  0  0  0
  -23.4751  -30.5323   20.2054 C   0  0  0  0  0  0  0  0  0  0  0  0
  -19.4358  -16.2489   19.9420 C   0  0  0  0  0  0  0  0  0  0  0  0
  -20.3416  -16.1696   22.1803 C   0  0  0  0  0  0  0  0  0  0  0  0
  -24.9309  -31.5980   21.8012 C   0  0  0  0  0  0  0  0  0  0  0  0
  -24.2579  -29.3788   20.2661 C   0  0  0  0  0  0  0  0  0  0  0  0
  -26.5973  -21.9777   18.5417 C   0  0  0  0  0  0  0  0  0  0  0  0
  -18.1700  -16.5156   20.4637 C   0  0  0  0  0  0  0  0  0  0  0  0
  -19.0758  -16.4363   22.7021 C   0  0  0  0  0  0  0  0  0  0  0  0
  -27.6902  -21.1140   18.6010 C   0  0  0  0  0  0  0  0  0  0  0  0
  -17.0746  -19.1263   23.1262 C   0  0  0  0  0  0  0  0  0  0  0  0
  -16.9810  -20.0792   24.1404 C   0  0  0  0  0  0  0  0  0  0  0  0
  -27.8614  -21.5035   20.9755 C   0  0  0  0  0  0  0  0  0  0  0  0
  -16.0597  -18.4097   25.6240 C   0  0  0  0  0  0  0  0  0  0  0  0
  -20.5216  -16.0758   20.8003 C   0  0  0  0  0  0  0  0  0  0  0  0
  -22.5751  -16.6083   19.3835 C   0  0  0  0  0  0  0  0  0  0  0  0
  -25.7344  -30.4474   21.8620 C   0  0  0  0  0  0  0  0  0  0  0  0
  -26.1343  -22.6203   19.6989 C   0  0  0  0  0  0  0  0  0  0  0  0
  -25.3814  -29.3087   21.1095 C   0  0  0  0  0  0  0  0  0  0  0  0
  -26.7609  -22.3728   20.9286 C   0  0  0  0  0  0  0  0  0  0  0  0
  -17.9900  -16.6094   21.8437 C   0  0  0  0  0  0  0  0  0  0  0  0
  -28.3242  -20.8790   19.8175 C   0  0  0  0  0  0  0  0  0  0  0  0
  -16.6607  -17.8150   23.3608 C   0  0  0  0  0  0  0  0  0  0  0  0
  -16.4736  -19.7209   25.3894 C   0  0  0  0  0  0  0  0  0  0  0  0
  -16.1533  -17.4567   24.6098 C   0  0  0  0  0  0  0  0  0  0  0  0
  -21.8294  -15.7997   20.2621 C   0  0  0  0  0  0  0  0  0  0  0  0
  -23.7376  -15.9071   19.1748 C   0  0  0  0  0  0  0  0  0  0  0  0
  -22.2465  -17.8795   18.8077 C   0  0  0  0  0  0  0  0  0  0  0  0
  -25.8618  -25.6483   20.6266 C   0  0  0  0  0  0  0  0  0  0  0  0
  -24.3614  -24.3236   23.1793 C   0  0  0  0  0  0  0  0  0  0  0  0
  -24.8360  -21.4554   25.3161 C   0  0  0  0  0  0  0  0  0  0  0  0
  -28.0107  -12.8826   21.1083 C   0  0  0  0  0  0  0  0  0  0  0  0
  -26.9339  -30.4540   22.7766 C   0  0  0  0  0  0  0  0  0  0  0  0
  -24.9376  -23.5283   19.6228 C   0  0  0  0  0  0  0  0  0  0  0  0
  -26.2899  -23.0221   22.2034 C   0  0  0  0  0  0  0  0  0  0  0  0
  -27.9438  -29.3616   22.4404 C   0  0  0  0  0  0  0  0  0  0  0  0
  -24.9805  -11.1568   20.3898 C   0  0  0  0  0  0  0  0  0  0  0  0
  -27.2342  -28.0231   22.3000 C   0  0  0  0  0  0  0  0  0  0  0  0
  -29.4487  -16.3471   19.1713 C   0  0  0  0  0  0  0  0  0  0  0  0
  -29.6486  -16.7290   21.6633 C   0  0  0  0  0  0  0  0  0  0  0  0
  -23.9516  -12.2769   20.2264 C   0  0  0  0  0  0  0  0  0  0  0  0
  -29.6081  -17.8456   18.9326 C   0  0  0  0  0  0  0  0  0  0  0  0
  -29.8068  -18.2265   21.4178 C   0  0  0  0  0  0  0  0  0  0  0  0
  -26.0010  -11.4824   21.4782 C   0  0  0  0  0  0  0  0  0  0  0  0
  -25.6534  -13.9009   21.1566 C   0  0  0  0  0  0  0  0  0  0  0  0
  -26.2354  -28.0540   21.1361 C   0  0  1  0  0  0  0  0  0  0  0  0
  -24.8717  -24.5277   20.7736 C   0  0  1  0  0  0  0  0  0  0  0  0
  -30.1429  -15.9042   20.4668 C   0  0  0  0  0  0  0  0  0  0  0  0
  -24.6361  -13.6432   20.0318 C   0  0  2  0  0  0  0  0  0  0  0  0
  -29.1187  -18.6621   20.1258 C   0  0  0  0  0  0  0  0  0  1  0  0
  -23.1777  -20.1127   26.6369 C   0  0  0  0  0  0  0  0  0  0  0  0
  -30.6597  -13.9789   21.9882 C   0  0  0  0  0  0  0  0  0  0  0  0
  -30.4510  -13.6026   19.5205 C   0  0  0  0  0  0  0  0  0  0  0  0
  -25.1140  -26.1899   25.4728 C   0  0  0  0  0  0  0  0  0  0  0  0
  -24.9701  -24.2293   27.0231 C   0  0  0  0  0  0  0  0  0  0  0  0
  -22.9444  -24.9839   25.7782 C   0  0  0  0  0  0  0  0  0  0  0  0
  -25.6824  -18.9281   24.0295 C   0  0  0  0  0  0  0  0  0  0  0  0
  -24.8007  -23.8075   24.5282 C   0  0  1  0  0  0  0  0  0  0  0  0
  -23.9860  -20.1981   25.3516 C   0  0  2  0  0  0  0  0  0  0  0  0
  -29.9244  -14.4125   20.7129 C   0  0  0  0  0  0  0  0  0  0  0  0
  -24.4747  -24.8020   25.6781 C   0  0  0  0  0  0  0  0  0  0  0  0
  -22.4646  -14.6711   20.5888 N   0  0  0  0  0  0  0  0  0  0  0  0
  -23.6218  -14.7655   19.9120 N   0  0  0  0  0  0  0  0  0  0  0  0
  -25.1199  -23.9067   22.0763 N   0  0  0  0  0  0  0  0  0  0  0  0
  -26.6148  -12.7899   21.2340 N   0  0  0  0  0  0  0  0  0  0  0  0
  -24.8373  -16.1619   18.4344 N   0  0  0  0  0  0  0  0  0  0  0  0
  -22.6099  -19.0415   19.5021 N   0  0  0  0  0  0  0  0  0  0  0  0
  -25.4380  -26.8478   21.1662 N   0  0  0  0  0  0  0  0  0  0  0  0
  -24.1861  -22.4935   24.6825 N   0  0  0  0  0  0  0  0  0  0  0  0
  -28.5100  -14.1575   20.8715 N   0  0  0  0  0  0  0  0  0  0  0  0
  -24.8490  -18.9867   25.2578 N   0  3  0  0  0  0  0  0  0  0  0  0
  -21.6339  -17.9819   17.7179 O   0  0  0  0  0  0  0  0  0  0  0  0
  -26.9315  -25.4398   20.0664 O   0  0  0  0  0  0  0  0  0  0  0  0
  -23.3770  -25.0633   23.1061 O   0  0  0  0  0  0  0  0  0  0  0  0
  -25.9622  -21.5122   25.8049 O   0  0  0  0  0  0  0  0  0  0  0  0
  -28.7564  -11.9011   21.1949 O   0  0  0  0  0  0  0  0  0  0  0  0
  -16.7550  -16.8699   22.3531 O   0  0  0  0  0  0  0  0  0  0  0  0
  -29.3915  -20.0370   19.8781 O   0  0  0  0  0  0  0  0  0  1  0  0
  -16.3852  -20.6358   26.3637 F   0  0  0  0  0  0  0  0  0  0  0  0
  -15.7552  -16.1983   24.8415 F   0  0  0  0  0  0  0  0  0  0  0  0
  1  2  1  0  0  0  0
  1  5  2  0  0  0  0
  2  6  2  0  0  0  0
  3  8  2  0  0  0  0
  3 15  1  0  0  0  0
  4  9  1  0  0  0  0
  4 15  2  0  0  0  0
  5 17  1  0  0  0  0
  6 19  1  0  0  0  0
  7 10  2  0  0  0  0
  7 18  1  0  0  0  0
  8 21  1  0  0  0  0
  9 21  2  0  0  0  0
 10 22  1  0  0  0  0
 11 12  2  0  0  0  0
 11 23  1  0  0  0  0
 12 24  1  0  0  0  0
 13 20  1  0  0  0  0
 13 22  2  0  0  0  0
 14 24  2  0  0  0  0
 14 25  1  0  0  0  0
 15 26  1  0  0  0  0
 16 26  1  0  0  0  0
 16 27  2  0  0  0  0
 16 28  1  0  0  0  0
 17 19  2  0  0  0  0
 17 33  1  0  0  0  0
 18 20  2  0  0  0  0
 18 34  1  0  0  0  0
 19 46  1  0  0  0  0
 20 35  1  0  0  0  0
 21 77  1  0  0  0  0
 22 78  1  0  0  0  0
 23 25  2  0  0  0  0
 23 77  1  0  0  0  0
 24 79  1  0  0  0  0
 25 80  1  0  0  0  0
 26 62  2  0  0  0  0
 27 63  1  0  0  0  0
 27 66  1  0  0  0  0
 28 67  1  0  0  0  0
 28 72  2  0  0  0  0
 29 47  1  0  0  0  0
 29 68  1  0  0  0  0
 29 73  2  0  0  0  0
 30 58  1  0  0  0  0
 30 64  1  0  0  0  0
 30 74  2  0  0  0  0
 31 59  1  0  0  0  0
 31 69  1  0  0  0  0
 31 75  2  0  0  0  0
 32 65  1  0  0  0  0
 32 70  1  0  0  0  0
 32 76  2  0  0  0  0
 33 36  1  0  0  0  0
 34 47  1  0  0  0  0
 35 64  1  0  0  0  0
 36 38  1  0  0  0  0
 37 41  1  0  0  0  0
 37 44  1  0  0  0  0
 38 46  1  0  0  0  0
 39 42  1  0  0  0  0
 39 48  1  0  0  0  0
 40 43  1  0  0  0  0
 40 48  1  0  0  0  0
 41 49  1  0  0  0  0
 42 50  1  0  0  0  0
 43 50  1  0  0  0  0
 44 65  1  0  0  0  0
 45 49  1  0  0  0  0
 45 65  1  0  0  0  0
 46 68  1  0  0  0  0
 47 64  1  0  0  0  0
 48 60  1  0  0  0  0
 49 63  1  0  0  0  0
 50 78  1  0  0  0  0
 51 59  1  0  0  0  0
 52 60  1  0  0  0  0
 53 60  1  0  0  0  0
 54 61  1  0  0  0  0
 55 61  1  0  0  0  0
 56 61  1  0  0  0  0
 57 71  1  0  0  0  0
 58 61  1  0  0  0  0
 58 69  1  0  0  0  0
 59 71  1  0  0  0  0
 60 70  1  0  0  0  0
 62 63  1  0  0  0  0
M  CHG  1  71   1
M  ISO  4  32 100  50 101  70 100  78 101
M  END
> <Batch ID>
0109

> <Smiles>
CNC(C)C(=O)NC(C(=O)N1Cc2cc([101O:1][101CH:1]3CCC(C(C)(C)[100NH:0][100C:0](=O)N4CCCC(n5nc(-c6ccc(Oc7ccc(F)cc7F)cc6)c(C(N)=O)c5N)C4)CC3)ccc2CC1C(=O)NC1CCCc2ccccc21)C(C)(C)C

> <Shape>
0.172

> <Color>
0.073

> <Negative vol penalty>
0.000

$$$$

  -OEChem-04052319563D

 82 90  0     1  0  0  0  0  0999 V2000
  -34.4282  -29.7761   17.2093 C   0  0  0  0  0  0  0  0  0  0  0  0
  -33.6289  -28.7360   17.6728 C   0  0  0  0  0  0  0  0  0  0  0  0
  -23.3767   -9.7007   19.9712 C   0  0  0  0  0  0  0  0  0  0  0  0
  -23.9505   -9.9155   22.3083 C   0  0  0  0  0  0  0  0  0  0  0  0
  -34.4867  -30.9768   17.9155 C   0  0  0  0  0  0  0  0  0  0  0  0
  -32.8885  -28.8957   18.8436 C   0  0  0  0  0  0  0  0  0  0  0  0
  -28.1418  -27.1911   18.3881 C   0  0  0  0  0  0  0  0  0  0  0  0
  -22.7451   -8.4860   20.2379 C   0  0  0  0  0  0  0  0  0  0  0  0
  -23.3188   -8.7009   22.5750 C   0  0  0  0  0  0  0  0  0  0  0  0
  -27.9504  -25.8122   18.4637 C   0  0  0  0  0  0  0  0  0  0  0  0
  -20.1591   -7.5775   22.9932 C   0  0  0  0  0  0  0  0  0  0  0  0
  -19.3221   -7.5150   24.1072 C   0  0  0  0  0  0  0  0  0  0  0  0
  -27.2547  -26.0409   20.7621 C   0  0  0  0  0  0  0  0  0  0  0  0
  -20.7051   -5.7718   25.0485 C   0  0  0  0  0  0  0  0  0  0  0  0
  -23.9795  -10.4155   21.0064 C   0  0  0  0  0  0  0  0  0  0  0  0
  -24.0538  -12.9530   20.7558 C   0  0  0  0  0  0  0  0  0  0  0  0
  -33.7392  -31.1547   19.0903 C   0  0  0  0  0  0  0  0  0  0  0  0
  -27.9010  -28.0054   19.5041 C   0  0  0  0  0  0  0  0  0  0  0  0
  -32.9382  -30.0994   19.5670 C   0  0  0  0  0  0  0  0  0  0  0  0
  -27.4413  -27.4302   20.6973 C   0  0  0  0  0  0  0  0  0  0  0  0
  -22.7161   -7.9861   21.5398 C   0  0  0  0  0  0  0  0  0  0  0  0
  -27.5096  -25.2365   19.6517 C   0  0  0  0  0  0  0  0  0  0  0  0
  -21.2691   -6.7371   22.9068 C   0  0  0  0  0  0  0  0  0  0  0  0
  -19.5950   -6.6122   25.1349 C   0  0  0  0  0  0  0  0  0  0  0  0
  -21.5421   -5.8344   23.9345 C   0  0  0  0  0  0  0  0  0  0  0  0
  -24.6326  -11.6700   20.7314 C   0  0  0  0  0  0  0  0  0  0  0  0
  -25.0833  -13.8004   20.4260 C   0  0  0  0  0  0  0  0  0  0  0  0
  -22.7062  -13.3439   21.0502 C   0  0  0  0  0  0  0  0  0  0  0  0
  -29.6805  -29.9297   21.3025 C   0  0  0  0  0  0  0  0  0  0  0  0
  -26.8278  -30.6500   22.6682 C   0  0  0  0  0  0  0  0  0  0  0  0
  -23.6191  -29.7054   23.3453 C   0  0  0  0  0  0  0  0  0  0  0  0
  -30.3928  -15.4397   20.9428 C   0  0  0  0  0  0  0  0  0  0  0  0
  -33.8714  -32.4537   19.8452 C   0  0  0  0  0  0  0  0  0  0  0  0
  -28.0867  -29.4943   19.3983 C   0  0  0  0  0  0  0  0  0  0  0  0
  -27.1490  -28.2627   21.9179 C   0  0  0  0  0  0  0  0  0  0  0  0
  -32.7656  -32.6757   20.8739 C   0  0  0  0  0  0  0  0  0  0  0  0
  -29.7097  -12.8183   18.6322 C   0  0  0  0  0  0  0  0  0  0  0  0
  -32.5471  -31.4143   21.7034 C   0  0  0  0  0  0  0  0  0  0  0  0
  -28.2833  -12.3879   18.9786 C   0  0  0  0  0  0  0  0  0  0  0  0
  -30.5012  -13.2048   19.8797 C   0  0  0  0  0  0  0  0  0  0  0  0
  -28.4292  -13.7898   21.0791 C   0  0  0  0  0  0  0  0  0  0  0  0
  -27.9714  -19.9919   19.7986 C   0  0  0  0  0  0  0  0  0  0  0  0
  -26.2910  -19.6521   22.1790 C   0  0  0  0  0  0  0  0  0  0  0  0
  -32.1011  -30.2432   20.8195 C   0  0  1  0  0  0  0  0  0  0  0  0
  -28.3034  -30.1670   20.7502 C   0  0  1  0  0  0  0  0  0  0  0  0
  -26.2652  -21.1891   22.1599 C   0  0  1  0  0  0  0  0  0  0  0  0
  -27.5744  -13.4439   19.8479 C   0  0  2  0  0  0  0  0  0  0  0  0
  -26.7466  -21.8314   20.8266 C   0  0  1  0  0  0  0  0  0  0  0  0
  -28.2975  -18.8836   20.8008 C   0  0  1  0  0  0  0  0  0  0  0  0
  -24.8333  -21.6362   22.4997 C   0  0  0  0  0  0  0  0  0  0  0  0
  -21.5399  -30.4877   24.5126 C   0  0  0  0  0  0  0  0  0  0  0  0
  -28.0883  -29.9718   25.3628 C   0  0  0  0  0  0  0  0  0  0  0  0
  -25.7828  -29.8443   26.3307 C   0  0  0  0  0  0  0  0  0  0  0  0
  -26.6170  -31.9940   25.3789 C   0  0  0  0  0  0  0  0  0  0  0  0
  -22.0557  -29.6707   20.8326 C   0  0  0  0  0  0  0  0  0  0  0  0
  -26.8720  -23.3587   20.9644 C   0  0  0  0  0  0  0  0  0  1  0  0
  -29.8006  -18.7048   21.0021 C   0  0  0  0  0  0  0  0  0  0  0  0
  -30.1286  -17.6469   22.0463 C   0  0  0  0  0  0  0  0  0  0  0  0
  -26.0229  -30.0954   23.8186 C   0  0  1  0  0  0  0  0  0  0  0  0
  -22.2996  -30.4411   23.1960 C   0  0  2  0  0  0  0  0  0  0  0  0
  -26.6350  -30.4602   25.2005 C   0  0  0  0  0  0  0  0  0  0  0  0
  -25.9291  -11.6952   20.4113 N   0  0  0  0  0  0  0  0  0  0  0  0
  -26.1735  -13.0044   20.2314 N   0  0  0  0  0  0  0  0  0  0  0  0
  -28.0592  -21.3404   20.3627 N   0  0  0  0  0  0  0  0  0  0  0  0
  -27.3518  -29.7130   21.7664 N   0  0  0  0  0  0  0  0  0  0  0  0
  -29.7751  -14.2105   20.6590 N   0  0  0  0  0  0  0  0  0  0  0  0
  -25.1531  -15.1413   20.2863 N   0  0  0  0  0  0  0  0  0  0  0  0
  -21.7756  -12.3458   21.3696 N   0  0  0  0  0  0  0  0  0  0  0  0
  -30.7000  -30.3709   20.4805 N   0  0  0  0  0  0  0  0  0  0  0  0
  -24.6564  -30.5691   23.6266 N   0  0  0  0  0  0  0  0  0  0  0  0
  -29.6327  -16.3386   21.6810 N   0  0  0  0  0  0  0  0  0  0  0  0
  -27.6993  -19.1572   22.1474 N   0  3  0  0  0  0  0  0  0  0  0  0
  -21.4416  -29.7654   22.1820 N   0  3  0  0  0  0  0  0  0  0  0  0
  -22.3342  -14.5414   21.0146 O   0  0  0  0  0  0  0  0  0  0  0  0
  -29.8087  -29.3879   22.3941 O   0  0  0  0  0  0  0  0  0  0  0  0
  -26.9798  -31.8702   22.5693 O   0  0  0  0  0  0  0  0  0  0  0  0
  -23.7188  -28.4860   23.2281 O   0  0  0  0  0  0  0  0  0  0  0  0
  -31.5349  -15.7177   20.5616 O   0  0  0  0  0  0  0  0  0  0  0  0
  -22.0996   -6.8010   21.8005 O   0  0  0  0  0  0  0  0  0  0  0  0
  -27.3207  -23.8773   19.7292 O   0  0  0  0  0  0  0  0  0  1  0  0
  -18.7920   -6.5533   26.2054 F   0  0  0  0  0  0  0  0  0  0  0  0
  -22.6076   -5.0253   23.8576 F   0  0  0  0  0  0  0  0  0  0  0  0
  1  2  1  0  0  0  0
  1  5  2  0  0  0  0
  2  6  2  0  0  0  0
  3  8  2  0  0  0  0
  3 15  1  0  0  0  0
  4  9  1  0  0  0  0
  4 15  2  0  0  0  0
  5 17  1  0  0  0  0
  6 19  1  0  0  0  0
  7 10  2  0  0  0  0
  7 18  1  0  0  0  0
  8 21  1  0  0  0  0
  9 21  2  0  0  0  0
 10 22  1  0  0  0  0
 11 12  2  0  0  0  0
 11 23  1  0  0  0  0
 12 24  1  0  0  0  0
 13 20  1  0  0  0  0
 13 22  2  0  0  0  0
 14 24  2  0  0  0  0
 14 25  1  0  0  0  0
 15 26  1  0  0  0  0
 16 26  1  0  0  0  0
 16 27  2  0  0  0  0
 16 28  1  0  0  0  0
 17 19  2  0  0  0  0
 17 33  1  0  0  0  0
 18 20  2  0  0  0  0
 18 34  1  0  0  0  0
 19 44  1  0  0  0  0
 20 35  1  0  0  0  0
 21 79  1  0  0  0  0
 22 80  1  0  0  0  0
 23 25  2  0  0  0  0
 23 79  1  0  0  0  0
 24 81  1  0  0  0  0
 25 82  1  0  0  0  0
 26 62  2  0  0  0  0
 27 63  1  0  0  0  0
 27 67  1  0  0  0  0
 28 68  1  0  0  0  0
 28 74  2  0  0  0  0
 29 45  1  0  0  0  0
 29 69  1  0  0  0  0
 29 75  2  0  0  0  0
 30 59  1  0  0  0  0
 30 65  1  0  0  0  0
 30 76  2  0  0  0  0
 31 60  1  0  0  0  0
 31 70  1  0  0  0  0
 31 77  2  0  0  0  0
 32 66  1  0  0  0  0
 32 71  1  0  0  0  0
 32 78  2  0  0  0  0
 33 36  1  0  0  0  0
 34 45  1  0  0  0  0
 35 65  1  0  0  0  0
 36 38  1  0  0  0  0
 37 39  1  0  0  0  0
 37 40  1  0  0  0  0
 38 44  1  0  0  0  0
 39 47  1  0  0  0  0
 40 66  1  0  0  0  0
 41 47  1  0  0  0  0
 41 66  1  0  0  0  0
 42 49  1  0  0  0  0
 42 64  1  0  0  0  0
 43 46  1  0  0  0  0
 43 72  1  0  0  0  0
 44 69  1  0  0  0  0
 45 65  1  0  0  0  0
 46 48  1  0  0  0  0
 46 50  1  0  0  0  0
 47 63  1  0  0  0  0
 48 56  1  0  0  0  0
 48 64  1  0  0  0  0
 49 57  1  0  0  0  0
 49 72  1  0  0  0  0
 51 60  1  0  0  0  0
 52 61  1  0  0  0  0
 53 61  1  0  0  0  0
 54 61  1  0  0  0  0
 55 73  1  0  0  0  0
 56 80  1  0  0  0  0
 57 58  1  0  0  0  0
 58 71  1  0  0  0  0
 59 61  1  0  0  0  0
 59 70  1  0  0  0  0
 60 73  1  0  0  0  0
 62 63  1  0  0  0  0
M  CHG  2  72   1  73   1
M  ISO  4  32 100  56 101  71 100  80 101
M  END
> <Batch ID>
0109

> <Smiles>
CNC(C)C(=O)NC(C(=O)N1Cc2cc([101O:1][101CH2:1]C3NCC(CC[100NH:0][100C:0](=O)N4CCCC(n5nc(-c6ccc(Oc7ccc(F)cc7F)cc6)c(C(N)=O)c5N)C4)NCC3C)ccc2CC1C(=O)NC1CCCc2ccccc21)C(C)(C)C

> <Shape>
0.317

> <Color>
0.207

> <Negative vol penalty>
0.000

$$$$

  -OEChem-04052319563D

 83 91  0     1  0  0  0  0  0999 V2000
  -35.7290  -25.1592   27.3136 C   0  0  0  0  0  0  0  0  0  0  0  0
  -35.2239  -24.4745   26.2130 C   0  0  0  0  0  0  0  0  0  0  0  0
  -23.0796   -9.8621   19.9447 C   0  0  0  0  0  0  0  0  0  0  0  0
  -23.8387   -9.8777   22.2382 C   0  0  0  0  0  0  0  0  0  0  0  0
  -34.9813  -26.1780   27.9026 C   0  0  0  0  0  0  0  0  0  0  0  0
  -33.9702  -24.8074   25.7014 C   0  0  0  0  0  0  0  0  0  0  0  0
  -33.9554  -25.1212   20.6470 C   0  0  0  0  0  0  0  0  0  0  0  0
  -22.3381   -8.7081   20.1979 C   0  0  0  0  0  0  0  0  0  0  0  0
  -23.0972   -8.7237   22.4915 C   0  0  0  0  0  0  0  0  0  0  0  0
  -33.9199  -23.9232   19.9348 C   0  0  0  0  0  0  0  0  0  0  0  0
  -19.8706   -7.9208   23.0954 C   0  0  0  0  0  0  0  0  0  0  0  0
  -19.1134   -7.8828   24.2662 C   0  0  0  0  0  0  0  0  0  0  0  0
  -31.5491  -24.2054   19.5901 C   0  0  0  0  0  0  0  0  0  0  0  0
  -20.3587   -5.9502   25.0089 C   0  0  0  0  0  0  0  0  0  0  0  0
  -23.8300  -10.4469   20.9648 C   0  0  0  0  0  0  0  0  0  0  0  0
  -24.1664  -12.9724   20.8373 C   0  0  0  0  0  0  0  0  0  0  0  0
  -33.7219  -26.5301   27.3920 C   0  0  0  0  0  0  0  0  0  0  0  0
  -32.7840  -25.8661   20.8458 C   0  0  0  0  0  0  0  0  0  0  0  0
  -33.2043  -25.8309   26.2849 C   0  0  0  0  0  0  0  0  0  0  0  0
  -31.5729  -25.4138   20.3030 C   0  0  0  0  0  0  0  0  0  0  0  0
  -22.3469   -8.1389   21.4713 C   0  0  0  0  0  0  0  0  0  0  0  0
  -32.7161  -23.4636   19.4087 C   0  0  0  0  0  0  0  0  0  0  0  0
  -20.8718   -6.9735   22.8813 C   0  0  0  0  0  0  0  0  0  0  0  0
  -19.3574   -6.8975   25.2229 C   0  0  0  0  0  0  0  0  0  0  0  0
  -21.1159   -5.9882   23.8380 C   0  0  0  0  0  0  0  0  0  0  0  0
  -24.5966  -11.6386   20.7037 C   0  0  0  0  0  0  0  0  0  0  0  0
  -25.2571  -13.7231   20.4721 C   0  0  0  0  0  0  0  0  0  0  0  0
  -22.8947  -13.4867   21.2542 C   0  0  0  0  0  0  0  0  0  0  0  0
  -31.1170  -26.7884   23.3902 C   0  0  0  0  0  0  0  0  0  0  0  0
  -29.4033  -28.4377   21.1845 C   0  0  0  0  0  0  0  0  0  0  0  0
  -28.4065  -28.7558   17.9361 C   0  0  0  0  0  0  0  0  0  0  0  0
  -30.7386  -14.7544   20.6590 C   0  0  0  0  0  0  0  0  0  0  0  0
  -32.9300  -27.6064   28.0914 C   0  0  0  0  0  0  0  0  0  0  0  0
  -32.8440  -27.1698   21.5935 C   0  0  0  0  0  0  0  0  0  0  0  0
  -30.2910  -26.1864   20.4710 C   0  0  0  0  0  0  0  0  0  0  0  0
  -31.7727  -28.1502   27.2577 C   0  0  0  0  0  0  0  0  0  0  0  0
  -29.6069  -12.3602   18.2791 C   0  0  0  0  0  0  0  0  0  0  0  0
  -30.9808  -27.0059   26.6331 C   0  0  0  0  0  0  0  0  0  0  0  0
  -31.9807  -19.7160   21.0616 C   0  0  0  0  0  0  0  0  0  0  0  0
  -31.0610  -18.3901   19.1149 C   0  0  0  0  0  0  0  0  0  0  0  0
  -28.1699  -12.0648   18.7125 C   0  0  0  0  0  0  0  0  0  0  0  0
  -30.7001  -19.4436   21.8519 C   0  0  0  0  0  0  0  0  0  0  0  0
  -29.7805  -18.1179   19.9055 C   0  0  0  0  0  0  0  0  0  0  0  0
  -30.5231  -12.5866   19.4796 C   0  0  0  0  0  0  0  0  0  0  0  0
  -28.6194  -13.3179   20.8634 C   0  0  0  0  0  0  0  0  0  0  0  0
  -31.8591  -26.1797   25.6858 C   0  0  1  0  0  0  0  0  0  0  0  0
  -31.4970  -27.5872   22.1756 C   0  0  1  0  0  0  0  0  0  0  0  0
  -31.7290  -19.6998   19.5494 C   0  0  0  0  0  0  0  0  0  0  0  0
  -27.6460  -13.1376   19.6860 C   0  0  2  0  0  0  0  0  0  0  0  0
  -29.9872  -18.1375   21.4364 C   0  0  0  0  0  0  0  0  0  0  0  0
  -28.6120  -18.0768   22.1279 C   0  0  0  0  0  0  0  0  0  0  0  0
  -26.9754  -30.1793   16.4451 C   0  0  0  0  0  0  0  0  0  0  0  0
  -26.9034  -27.0954   22.3064 C   0  0  0  0  0  0  0  0  0  0  0  0
  -25.6849  -27.7886   20.2320 C   0  0  0  0  0  0  0  0  0  0  0  0
  -26.6291  -29.5202   21.7594 C   0  0  0  0  0  0  0  0  0  0  0  0
  -30.7230  -29.5455   16.2720 C   0  0  0  0  0  0  0  0  0  0  0  0
  -33.9182  -19.5584   16.6373 C   0  0  0  0  0  0  0  0  0  0  0  0
  -30.7995  -16.9088   21.8894 C   0  0  0  0  0  0  0  0  0  0  0  0
  -33.6280  -21.2925   19.0762 C   0  0  0  0  0  0  0  0  0  1  0  0
  -28.1942  -28.1417   20.3303 C   0  0  1  0  0  0  0  0  0  0  0  0
  -28.3710  -29.9552   17.0062 C   0  0  2  0  0  0  0  0  0  0  0  0
  -33.0323  -19.9209   18.7835 C   0  0  2  0  0  0  0  0  0  0  0  0
  -26.8765  -28.1207   21.1553 C   0  0  0  0  0  0  0  0  0  0  0  0
  -25.8618  -11.5442   20.2861 N   0  0  0  0  0  0  0  0  0  0  0  0
  -26.2360  -12.8282   20.1540 N   0  0  0  0  0  0  0  0  0  0  0  0
  -30.3999  -27.4520   21.2153 N   0  0  0  0  0  0  0  0  0  0  0  0
  -29.9701  -13.6167   20.3623 N   0  0  0  0  0  0  0  0  0  0  0  0
  -25.4647  -15.0547   20.3951 N   0  0  0  0  0  0  0  0  0  0  0  0
  -21.8846  -12.5764   21.5939 N   0  0  0  0  0  0  0  0  0  0  0  0
  -32.0296  -26.8689   24.4247 N   0  0  0  0  0  0  0  0  0  0  0  0
  -28.2074  -29.1225   19.2503 N   0  0  0  0  0  0  0  0  0  0  0  0
  -30.1372  -15.6845   21.4981 N   0  0  0  0  0  0  0  0  0  0  0  0
  -29.3093  -29.7545   15.8659 N   0  3  0  0  0  0  0  0  0  0  0  0
  -22.6558  -14.7170   21.3078 O   0  0  0  0  0  0  0  0  0  0  0  0
  -30.0724  -26.1478   23.3895 O   0  0  0  0  0  0  0  0  0  0  0  0
  -29.4645  -29.5073   21.7960 O   0  0  0  0  0  0  0  0  0  0  0  0
  -28.5885  -27.6080   17.5362 O   0  0  0  0  0  0  0  0  0  0  0  0
  -31.8743  -14.9309   20.2052 O   0  0  0  0  0  0  0  0  0  0  0  0
  -21.6233   -7.0130   21.7188 O   0  0  0  0  0  0  0  0  0  0  0  0
  -32.6786  -22.2943   18.7137 O   0  0  0  0  0  0  0  0  0  1  0  0
  -32.7441  -19.8216   17.3897 O   0  0  0  0  0  0  0  0  0  0  0  0
  -18.6312   -6.8621   26.3479 F   0  0  0  0  0  0  0  0  0  0  0  0
  -22.0772   -5.0762   23.6385 F   0  0  0  0  0  0  0  0  0  0  0  0
  1  2  1  0  0  0  0
  1  5  2  0  0  0  0
  2  6  2  0  0  0  0
  3  8  2  0  0  0  0
  3 15  1  0  0  0  0
  4  9  1  0  0  0  0
  4 15  2  0  0  0  0
  5 17  1  0  0  0  0
  6 19  1  0  0  0  0
  7 10  2  0  0  0  0
  7 18  1  0  0  0  0
  8 21  1  0  0  0  0
  9 21  2  0  0  0  0
 10 22  1  0  0  0  0
 11 12  2  0  0  0  0
 11 23  1  0  0  0  0
 12 24  1  0  0  0  0
 13 20  1  0  0  0  0
 13 22  2  0  0  0  0
 14 24  2  0  0  0  0
 14 25  1  0  0  0  0
 15 26  1  0  0  0  0
 16 26  1  0  0  0  0
 16 27  2  0  0  0  0
 16 28  1  0  0  0  0
 17 19  2  0  0  0  0
 17 33  1  0  0  0  0
 18 20  2  0  0  0  0
 18 34  1  0  0  0  0
 19 46  1  0  0  0  0
 20 35  1  0  0  0  0
 21 79  1  0  0  0  0
 22 80  1  0  0  0  0
 23 25  2  0  0  0  0
 23 79  1  0  0  0  0
 24 82  1  0  0  0  0
 25 83  1  0  0  0  0
 26 64  2  0  0  0  0
 27 65  1  0  0  0  0
 27 68  1  0  0  0  0
 28 69  1  0  0  0  0
 28 74  2  0  0  0  0
 29 47  1  0  0  0  0
 29 70  1  0  0  0  0
 29 75  2  0  0  0  0
 30 60  1  0  0  0  0
 30 66  1  0  0  0  0
 30 76  2  0  0  0  0
 31 61  1  0  0  0  0
 31 71  1  0  0  0  0
 31 77  2  0  0  0  0
 32 67  1  0  0  0  0
 32 72  1  0  0  0  0
 32 78  2  0  0  0  0
 33 36  1  0  0  0  0
 34 47  1  0  0  0  0
 35 66  1  0  0  0  0
 36 38  1  0  0  0  0
 37 41  1  0  0  0  0
 37 44  1  0  0  0  0
 38 46  1  0  0  0  0
 39 42  1  0  0  0  0
 39 48  1  0  0  0  0
 40 43  1  0  0  0  0
 40 48  1  0  0  0  0
 41 49  1  0  0  0  0
 42 50  1  0  0  0  0
 43 50  1  0  0  0  0
 44 67  1  0  0  0  0
 45 49  1  0  0  0  0
 45 67  1  0  0  0  0
 46 70  1  0  0  0  0
 47 66  1  0  0  0  0
 48 62  1  0  0  0  0
 49 65  1  0  0  0  0
 50 51  1  0  0  0  0
 50 58  1  0  0  0  0
 52 61  1  0  0  0  0
 53 63  1  0  0  0  0
 54 63  1  0  0  0  0
 55 63  1  0  0  0  0
 56 73  1  0  0  0  0
 57 81  1  0  0  0  0
 58 72  1  0  0  0  0
 59 62  1  0  0  0  0
 59 80  1  0  0  0  0
 60 63  1  0  0  0  0
 60 71  1  0  0  0  0
 61 73  1  0  0  0  0
 62 81  1  0  0  0  0
 64 65  1  0  0  0  0
M  CHG  1  73   1
M  ISO  4  32 100  59 101  72 100  80 101
M  END
> <Batch ID>
0109

> <Smiles>
CNC(C)C(=O)NC(C(=O)N1Cc2cc([101O:1][101CH2:1]C(OC)C3CCC(C)(C[100NH:0][100C:0](=O)N4CCCC(n5nc(-c6ccc(Oc7ccc(F)cc7F)cc6)c(C(N)=O)c5N)C4)CC3)ccc2CC1C(=O)NC1CCCc2ccccc21)C(C)(C)C

> <Shape>
0.245

> <Color>
0.196

> <Negative vol penalty>
0.000

$$$$

  -OEChem-04052319563D

 85 93  0     1  0  0  0  0  0999 V2000
  -28.7420  -33.1909   26.3382 C   0  0  0  0  0  0  0  0  0  0  0  0
  -29.0656  -31.8923   25.9585 C   0  0  0  0  0  0  0  0  0  0  0  0
  -23.2630   -9.6721   20.0097 C   0  0  0  0  0  0  0  0  0  0  0  0
  -23.8973   -9.9031   22.3295 C   0  0  0  0  0  0  0  0  0  0  0  0
  -27.4827  -33.7098   26.0399 C   0  0  0  0  0  0  0  0  0  0  0  0
  -28.1298  -31.1114   25.2811 C   0  0  0  0  0  0  0  0  0  0  0  0
  -29.2630  -26.9537   20.9296 C   0  0  0  0  0  0  0  0  0  0  0  0
  -22.5958   -8.4847   20.3104 C   0  0  0  0  0  0  0  0  0  0  0  0
  -23.2301   -8.7157   22.6302 C   0  0  0  0  0  0  0  0  0  0  0  0
  -29.3726  -25.5643   20.9656 C   0  0  0  0  0  0  0  0  0  0  0  0
  -20.0437   -7.7106   23.1374 C   0  0  0  0  0  0  0  0  0  0  0  0
  -19.2308   -7.6949   24.2708 C   0  0  0  0  0  0  0  0  0  0  0  0
  -27.0637  -25.3707   20.2944 C   0  0  0  0  0  0  0  0  0  0  0  0
  -31.3622  -17.9196   21.4778 C   0  0  0  0  0  0  0  0  0  0  0  0
  -29.2230  -18.2388   22.5295 C   0  0  0  0  0  0  0  0  0  0  0  0
  -20.5736   -5.9192   25.2093 C   0  0  0  0  0  0  0  0  0  0  0  0
  -23.9138  -10.3813   21.0192 C   0  0  0  0  0  0  0  0  0  0  0  0
  -24.0706  -12.9105   20.7255 C   0  0  0  0  0  0  0  0  0  0  0  0
  -26.5344  -32.9382   25.3501 C   0  0  0  0  0  0  0  0  0  0  0  0
  -28.0477  -27.5631   20.5857 C   0  0  0  0  0  0  0  0  0  0  0  0
  -26.8562  -31.6200   24.9745 C   0  0  0  0  0  0  0  0  0  0  0  0
  -26.9419  -26.7680   20.2523 C   0  0  0  0  0  0  0  0  0  0  0  0
  -30.1030  -17.4350   21.8134 C   0  0  0  0  0  0  0  0  0  0  0  0
  -22.5793   -8.0064   21.6206 C   0  0  0  0  0  0  0  0  0  0  0  0
  -28.2721  -24.7726   20.6508 C   0  0  0  0  0  0  0  0  0  0  0  0
  -21.1215   -6.8306   23.0399 C   0  0  0  0  0  0  0  0  0  0  0  0
  -19.4958   -6.7992   25.3067 C   0  0  0  0  0  0  0  0  0  0  0  0
  -21.3865   -5.9349   24.0759 C   0  0  0  0  0  0  0  0  0  0  0  0
  -24.6037  -11.6077   20.7092 C   0  0  0  0  0  0  0  0  0  0  0  0
  -31.6906  -19.2046   21.8785 C   0  0  0  0  0  0  0  0  0  0  0  0
  -29.6472  -19.5095   22.8833 C   0  0  0  0  0  0  0  0  0  0  0  0
  -25.1210  -13.7159   20.3589 C   0  0  0  0  0  0  0  0  0  0  0  0
  -22.7444  -13.3530   21.0436 C   0  0  0  0  0  0  0  0  0  0  0  0
  -26.0092  -29.4977   22.0709 C   0  0  0  0  0  0  0  0  0  0  0  0
  -24.5569  -29.5556   19.1709 C   0  0  0  0  0  0  0  0  0  0  0  0
  -24.0098  -28.0185   16.1734 C   0  0  0  0  0  0  0  0  0  0  0  0
  -30.4760  -15.1996   20.7132 C   0  0  0  0  0  0  0  0  0  0  0  0
  -25.1696  -33.5260   25.0917 C   0  0  0  0  0  0  0  0  0  0  0  0
  -27.9533  -29.0631   20.5256 C   0  0  0  0  0  0  0  0  0  0  0  0
  -25.6205  -27.3731   19.8569 C   0  0  0  0  0  0  0  0  0  0  0  0
  -24.3670  -32.7632   24.0409 C   0  0  0  0  0  0  0  0  0  0  0  0
  -29.6737  -12.5422   18.4835 C   0  0  0  0  0  0  0  0  0  0  0  0
  -24.4338  -31.2621   24.3040 C   0  0  0  0  0  0  0  0  0  0  0  0
  -28.2393  -12.1693   18.8651 C   0  0  0  0  0  0  0  0  0  0  0  0
  -30.5039  -12.9279   19.7065 C   0  0  0  0  0  0  0  0  0  0  0  0
  -28.4772  -13.5965   20.9373 C   0  0  0  0  0  0  0  0  0  0  0  0
  -25.8767  -30.7504   24.2165 C   0  0  1  0  0  0  0  0  0  0  0  0
  -26.5235  -29.5776   20.6613 C   0  0  1  0  0  0  0  0  0  0  0  0
  -27.5841  -13.2631   19.7311 C   0  0  2  0  0  0  0  0  0  0  0  0
  -33.8708  -20.0858   22.7863 C   0  0  0  0  0  0  0  0  0  0  0  0
  -32.9453  -20.9960   20.6253 C   0  0  0  0  0  0  0  0  0  0  0  0
  -29.3069  -20.8492   25.0005 C   0  0  0  0  0  0  0  0  0  0  0  0
  -22.7465  -28.2896   14.0222 C   0  0  0  0  0  0  0  0  0  0  0  0
  -21.9785  -28.7425   20.5854 C   0  0  0  0  0  0  0  0  0  0  0  0
  -21.0345  -28.1135   18.3534 C   0  0  0  0  0  0  0  0  0  0  0  0
  -21.6904  -30.4772   18.8071 C   0  0  0  0  0  0  0  0  0  0  0  0
  -26.5032  -28.0610   14.5797 C   0  0  0  0  0  0  0  0  0  0  0  0
  -27.5782  -21.3650   21.6543 C   0  0  0  0  0  0  0  0  0  0  0  0
  -27.1959  -22.6823   21.0089 C   0  0  0  0  0  0  0  0  0  1  0  0
  -33.0338  -19.7571   21.5360 C   0  0  0  0  0  0  0  0  0  0  0  0
  -28.7174  -20.4111   23.6621 C   0  0  1  0  0  0  0  0  0  0  0  0
  -23.4905  -28.7299   18.4926 C   0  0  1  0  0  0  0  0  0  0  0  0
  -24.0581  -28.5420   14.7493 C   0  0  2  0  0  0  0  0  0  0  0  0
  -22.0727  -29.0041   19.0689 C   0  0  0  0  0  0  0  0  0  0  0  0
  -25.8926  -11.5823   20.3598 N   0  0  0  0  0  0  0  0  0  0  0  0
  -30.8626  -20.0150   22.5752 N   0  0  0  0  0  0  0  0  0  0  0  0
  -26.1781  -12.8792   20.1530 N   0  0  0  0  0  0  0  0  0  0  0  0
  -25.5765  -28.8442   19.8190 N   0  0  0  0  0  0  0  0  0  0  0  0
  -29.8231  -13.9715   20.4762 N   0  0  0  0  0  0  0  0  0  0  0  0
  -25.2342  -15.0512   20.1957 N   0  0  0  0  0  0  0  0  0  0  0  0
  -21.7873  -12.3933   21.4001 N   0  0  0  0  0  0  0  0  0  0  0  0
  -29.7183  -16.1268   21.4279 N   0  0  0  0  0  0  0  0  0  0  0  0
  -26.2826  -30.6168   22.8339 N   0  0  0  0  0  0  0  0  0  0  0  0
  -23.6162  -28.9952   17.0636 N   0  0  0  0  0  0  0  0  0  0  0  0
  -25.1528  -27.8751   13.9892 N   0  3  0  0  0  0  0  0  0  0  0  0
  -28.3337  -21.6326   22.9041 N   0  3  0  0  0  0  0  0  0  0  0  0
  -22.4135  -14.5621   20.9967 O   0  0  0  0  0  0  0  0  0  0  0  0
  -25.4075  -28.4955   22.4385 O   0  0  0  0  0  0  0  0  0  0  0  0
  -24.4916  -30.7864   19.1212 O   0  0  0  0  0  0  0  0  0  0  0  0
  -24.2894  -26.8581   16.4664 O   0  0  0  0  0  0  0  0  0  0  0  0
  -31.6124  -15.4231   20.2882 O   0  0  0  0  0  0  0  0  0  0  0  0
  -21.9281   -6.8479   21.9144 O   0  0  0  0  0  0  0  0  0  0  0  0
  -28.3763  -23.4162   20.6857 O   0  0  0  0  0  0  0  0  0  1  0  0
  -18.7160   -6.7853   26.3957 F   0  0  0  0  0  0  0  0  0  0  0  0
  -22.4212   -5.0878   23.9884 F   0  0  0  0  0  0  0  0  0  0  0  0
  1  2  1  0  0  0  0
  1  5  2  0  0  0  0
  2  6  2  0  0  0  0
  3  8  2  0  0  0  0
  3 17  1  0  0  0  0
  4  9  1  0  0  0  0
  4 17  2  0  0  0  0
  5 19  1  0  0  0  0
  6 21  1  0  0  0  0
  7 10  2  0  0  0  0
  7 20  1  0  0  0  0
  8 24  1  0  0  0  0
  9 24  2  0  0  0  0
 10 25  1  0  0  0  0
 11 12  2  0  0  0  0
 11 26  1  0  0  0  0
 12 27  1  0  0  0  0
 13 22  1  0  0  0  0
 13 25  2  0  0  0  0
 14 23  1  0  0  0  0
 14 30  2  0  0  0  0
 15 23  2  0  0  0  0
 15 31  1  0  0  0  0
 16 27  2  0  0  0  0
 16 28  1  0  0  0  0
 17 29  1  0  0  0  0
 18 29  1  0  0  0  0
 18 32  2  0  0  0  0
 18 33  1  0  0  0  0
 19 21  2  0  0  0  0
 19 38  1  0  0  0  0
 20 22  2  0  0  0  0
 20 39  1  0  0  0  0
 21 47  1  0  0  0  0
 22 40  1  0  0  0  0
 23 72  1  0  0  0  0
 24 82  1  0  0  0  0
 25 83  1  0  0  0  0
 26 28  2  0  0  0  0
 26 82  1  0  0  0  0
 27 84  1  0  0  0  0
 28 85  1  0  0  0  0
 29 65  2  0  0  0  0
 30 60  1  0  0  0  0
 30 66  1  0  0  0  0
 31 61  1  0  0  0  0
 31 66  2  0  0  0  0
 32 67  1  0  0  0  0
 32 70  1  0  0  0  0
 33 71  1  0  0  0  0
 33 77  2  0  0  0  0
 34 48  1  0  0  0  0
 34 73  1  0  0  0  0
 34 78  2  0  0  0  0
 35 62  1  0  0  0  0
 35 68  1  0  0  0  0
 35 79  2  0  0  0  0
 36 63  1  0  0  0  0
 36 74  1  0  0  0  0
 36 80  2  0  0  0  0
 37 69  1  0  0  0  0
 37 72  1  0  0  0  0
 37 81  2  0  0  0  0
 38 41  1  0  0  0  0
 39 48  1  0  0  0  0
 40 68  1  0  0  0  0
 41 43  1  0  0  0  0
 42 44  1  0  0  0  0
 42 45  1  0  0  0  0
 43 47  1  0  0  0  0
 44 49  1  0  0  0  0
 45 69  1  0  0  0  0
 46 49  1  0  0  0  0
 46 69  1  0  0  0  0
 47 73  1  0  0  0  0
 48 68  1  0  0  0  0
 49 67  1  0  0  0  0
 50 60  1  0  0  0  0
 51 60  1  0  0  0  0
 52 61  1  0  0  0  0
 53 63  1  0  0  0  0
 54 64  1  0  0  0  0
 55 64  1  0  0  0  0
 56 64  1  0  0  0  0
 57 75  1  0  0  0  0
 58 59  1  0  0  0  0
 58 76  1  0  0  0  0
 59 83  1  0  0  0  0
 61 76  1  0  0  0  0
 62 64  1  0  0  0  0
 62 74  1  0  0  0  0
 63 75  1  0  0  0  0
 65 67  1  0  0  0  0
M  CHG  2  75   1  76   1
M  ISO  4  37 100  59 101  72 100  83 101
M  END
> <Batch ID>
0109

> <Smiles>
CNC(C)C(=O)NC(C(=O)N1Cc2cc([101O:1][101CH2:1]CNC(C)c3cc([100NH:0][100C:0](=O)N4CCCC(n5nc(-c6ccc(Oc7ccc(F)cc7F)cc6)c(C(N)=O)c5N)C4)cc(C(C)C)n3)ccc2CC1C(=O)NC1CCCc2ccccc21)C(C)(C)C

> <Shape>
0.341

> <Color>
0.181

> <Negative vol penalty>
0.000

$$$$

  -OEChem-04052319563D

 85 93  0     1  0  0  0  0  0999 V2000
  -30.4846  -23.6405   17.9801 C   0  0  0  0  0  0  0  0  0  0  0  0
  -29.1951  -24.1172   18.1872 C   0  0  0  0  0  0  0  0  0  0  0  0
  -28.8260  -16.8986   22.4069 C   0  0  0  0  0  0  0  0  0  0  0  0
  -26.6058  -17.4484   21.6286 C   0  0  0  0  0  0  0  0  0  0  0  0
  -31.5243  -24.0753   18.7994 C   0  0  0  0  0  0  0  0  0  0  0  0
  -28.9470  -25.0378   19.2059 C   0  0  0  0  0  0  0  0  0  0  0  0
  -24.4301  -26.9762   19.4152 C   0  0  0  0  0  0  0  0  0  0  0  0
  -28.7606  -15.6794   21.7324 C   0  0  0  0  0  0  0  0  0  0  0  0
  -26.5404  -16.2292   20.9540 C   0  0  0  0  0  0  0  0  0  0  0  0
  -23.3159  -26.2480   19.8298 C   0  0  0  0  0  0  0  0  0  0  0  0
  -25.9567  -12.9877   21.7175 C   0  0  0  0  0  0  0  0  0  0  0  0
  -24.7824  -12.2443   21.8349 C   0  0  0  0  0  0  0  0  0  0  0  0
  -23.3873  -27.3663   21.9660 C   0  0  0  0  0  0  0  0  0  0  0  0
  -19.8332  -22.0737   24.1481 C   0  0  0  0  0  0  0  0  0  0  0  0
  -24.4691  -12.3612   19.4421 C   0  0  0  0  0  0  0  0  0  0  0  0
  -27.7486  -17.7830   22.3551 C   0  0  0  0  0  0  0  0  0  0  0  0
  -28.2943  -20.2673   22.5505 C   0  0  0  0  0  0  0  0  0  0  0  0
  -31.2856  -24.9922   19.8364 C   0  0  0  0  0  0  0  0  0  0  0  0
  -25.0390  -27.8987   20.2782 C   0  0  0  0  0  0  0  0  0  0  0  0
  -29.9873  -25.5070   20.0282 C   0  0  0  0  0  0  0  0  0  0  0  0
  -24.5076  -28.1069   21.5590 C   0  0  0  0  0  0  0  0  0  0  0  0
  -19.3687  -21.3433   25.2363 C   0  0  0  0  0  0  0  0  0  0  0  0
  -20.1319  -21.2736   26.3965 C   0  0  0  0  0  0  0  0  0  0  0  0
  -27.6178  -15.3448   21.0059 C   0  0  0  0  0  0  0  0  0  0  0  0
  -22.7960  -26.4409   21.1063 C   0  0  0  0  0  0  0  0  0  0  0  0
  -26.3873  -13.4180   20.4624 C   0  0  0  0  0  0  0  0  0  0  0  0
  -24.0386  -11.9310   20.6972 C   0  0  0  0  0  0  0  0  0  0  0  0
  -25.6435  -13.1047   19.3247 C   0  0  0  0  0  0  0  0  0  0  0  0
  -27.8153  -19.0423   23.0522 C   0  0  0  0  0  0  0  0  0  0  0  0
  -21.3428  -21.9467   26.4176 C   0  0  0  0  0  0  0  0  0  0  0  0
  -21.0574  -22.7111   24.2700 C   0  0  0  0  0  0  0  0  0  0  0  0
  -28.1455  -21.1476   23.5943 C   0  0  0  0  0  0  0  0  0  0  0  0
  -28.8262  -20.5815   21.2566 C   0  0  0  0  0  0  0  0  0  0  0  0
  -27.9168  -28.1725   21.6000 C   0  0  0  0  0  0  0  0  0  0  0  0
  -26.7464  -31.0190   22.6246 C   0  0  0  0  0  0  0  0  0  0  0  0
  -24.0205  -32.9240   23.3910 C   0  0  0  0  0  0  0  0  0  0  0  0
  -24.4971  -21.2647   28.3405 C   0  0  0  0  0  0  0  0  0  0  0  0
  -32.4490  -25.4350   20.6882 C   0  0  0  0  0  0  0  0  0  0  0  0
  -26.2241  -28.6957   19.8064 C   0  0  0  0  0  0  0  0  0  0  0  0
  -25.1121  -29.1000   22.5165 C   0  0  0  0  0  0  0  0  0  0  0  0
  -32.0142  -26.0614   22.0091 C   0  0  0  0  0  0  0  0  0  0  0  0
  -28.0572  -21.3060   28.3753 C   0  0  0  0  0  0  0  0  0  0  0  0
  -30.9472  -27.1163   21.7578 C   0  0  0  0  0  0  0  0  0  0  0  0
  -28.4421  -20.8411   26.9697 C   0  0  0  0  0  0  0  0  0  0  0  0
  -26.8145  -20.5820   28.8886 C   0  0  0  0  0  0  0  0  0  0  0  0
  -26.0300  -20.1825   26.5867 C   0  0  0  0  0  0  0  0  0  0  0  0
  -29.6882  -26.4855   21.1495 C   0  0  1  0  0  0  0  0  0  0  0  0
  -27.0755  -29.2353   20.9515 C   0  0  1  0  0  0  0  0  0  0  0  0
  -27.2448  -20.9247   26.0039 C   0  0  2  0  0  0  0  0  0  0  0  0
  -18.0530  -20.6450   25.1356 C   0  0  0  0  0  0  0  0  0  0  0  0
  -19.4400  -21.3806   28.8179 C   0  0  0  0  0  0  0  0  0  0  0  0
  -20.6036  -19.3286   27.9289 C   0  0  0  0  0  0  0  0  0  0  0  0
  -23.3817  -35.1978   24.2388 C   0  0  0  0  0  0  0  0  0  0  0  0
  -27.5375  -30.1848   25.4510 C   0  0  0  0  0  0  0  0  0  0  0  0
  -26.0560  -32.0029   26.3273 C   0  0  0  0  0  0  0  0  0  0  0  0
  -28.0172  -32.5757   24.8962 C   0  0  0  0  0  0  0  0  0  0  0  0
  -22.5397  -33.5610   20.9090 C   0  0  0  0  0  0  0  0  0  0  0  0
  -22.2058  -21.9073   27.6363 C   0  0  0  0  0  0  0  0  0  0  0  0
  -20.7754  -23.5541   21.9386 C   0  0  0  0  0  0  0  0  0  0  0  0
  -21.5381  -24.4281   20.9571 C   0  0  0  0  0  0  0  0  0  1  0  0
  -19.6599  -20.4941   27.5777 C   0  0  0  0  0  0  0  0  0  0  0  0
  -25.9916  -31.4876   23.8451 C   0  0  1  0  0  0  0  0  0  0  0  0
  -23.6440  -34.3439   23.0081 C   0  0  2  0  0  0  0  0  0  0  0  0
  -26.8901  -31.5426   25.1128 C   0  0  0  0  0  0  0  0  0  0  0  0
  -27.3938  -19.1323   24.3164 N   0  0  0  0  0  0  0  0  0  0  0  0
  -21.8270  -22.6662   25.3806 N   0  0  0  0  0  0  0  0  0  0  0  0
  -27.6076  -20.4244   24.6179 N   0  0  0  0  0  0  0  0  0  0  0  0
  -26.2734  -29.8505   22.0110 N   0  0  0  0  0  0  0  0  0  0  0  0
  -25.7155  -20.7009   27.9273 N   0  0  0  0  0  0  0  0  0  0  0  0
  -28.4236  -22.4619   23.7272 N   0  0  0  0  0  0  0  0  0  0  0  0
  -28.9085  -19.5588   20.3018 N   0  0  0  0  0  0  0  0  0  0  0  0
  -21.5082  -23.4343   23.1782 N   0  0  0  0  0  0  0  0  0  0  0  0
  -28.7866  -27.5374   20.7342 N   0  0  0  0  0  0  0  0  0  0  0  0
  -25.3870  -32.7657   23.4854 N   0  0  0  0  0  0  0  0  0  0  0  0
  -23.5105  -21.3458   27.3655 N   0  0  0  0  0  0  0  0  0  0  0  0
  -22.4152  -34.3445   22.1650 N   0  3  0  0  0  0  0  0  0  0  0  0
  -29.2321  -21.7311   20.9615 O   0  0  0  0  0  0  0  0  0  0  0  0
  -27.7874  -27.9466   22.7974 O   0  0  0  0  0  0  0  0  0  0  0  0
  -27.7155  -31.6699   22.2261 O   0  0  0  0  0  0  0  0  0  0  0  0
  -23.1857  -32.0442   23.5904 O   0  0  0  0  0  0  0  0  0  0  0  0
  -24.3048  -21.6709   29.4916 O   0  0  0  0  0  0  0  0  0  0  0  0
  -27.5538  -14.1553   20.3474 O   0  0  0  0  0  0  0  0  0  0  0  0
  -21.7089  -25.7309   21.5138 O   0  0  0  0  0  0  0  0  0  1  0  0
  -22.9117  -11.2157   20.8099 F   0  0  0  0  0  0  0  0  0  0  0  0
  -26.0527  -13.5142   18.1161 F   0  0  0  0  0  0  0  0  0  0  0  0
  1  2  1  0  0  0  0
  1  5  2  0  0  0  0
  2  6  2  0  0  0  0
  3  8  2  0  0  0  0
  3 16  1  0  0  0  0
  4  9  1  0  0  0  0
  4 16  2  0  0  0  0
  5 18  1  0  0  0  0
  6 20  1  0  0  0  0
  7 10  2  0  0  0  0
  7 19  1  0  0  0  0
  8 24  1  0  0  0  0
  9 24  2  0  0  0  0
 10 25  1  0  0  0  0
 11 12  2  0  0  0  0
 11 26  1  0  0  0  0
 12 27  1  0  0  0  0
 13 21  1  0  0  0  0
 13 25  2  0  0  0  0
 14 22  2  0  0  0  0
 14 31  1  0  0  0  0
 15 27  2  0  0  0  0
 15 28  1  0  0  0  0
 16 29  1  0  0  0  0
 17 29  1  0  0  0  0
 17 32  2  0  0  0  0
 17 33  1  0  0  0  0
 18 20  2  0  0  0  0
 18 38  1  0  0  0  0
 19 21  2  0  0  0  0
 19 39  1  0  0  0  0
 20 47  1  0  0  0  0
 21 40  1  0  0  0  0
 22 23  1  0  0  0  0
 22 50  1  0  0  0  0
 23 30  2  0  0  0  0
 23 61  1  0  0  0  0
 24 82  1  0  0  0  0
 25 83  1  0  0  0  0
 26 28  2  0  0  0  0
 26 82  1  0  0  0  0
 27 84  1  0  0  0  0
 28 85  1  0  0  0  0
 29 65  2  0  0  0  0
 30 58  1  0  0  0  0
 30 66  1  0  0  0  0
 31 66  2  0  0  0  0
 31 72  1  0  0  0  0
 32 67  1  0  0  0  0
 32 70  1  0  0  0  0
 33 71  1  0  0  0  0
 33 77  2  0  0  0  0
 34 48  1  0  0  0  0
 34 73  1  0  0  0  0
 34 78  2  0  0  0  0
 35 62  1  0  0  0  0
 35 68  1  0  0  0  0
 35 79  2  0  0  0  0
 36 63  1  0  0  0  0
 36 74  1  0  0  0  0
 36 80  2  0  0  0  0
 37 69  1  0  0  0  0
 37 75  1  0  0  0  0
 37 81  2  0  0  0  0
 38 41  1  0  0  0  0
 39 48  1  0  0  0  0
 40 68  1  0  0  0  0
 41 43  1  0  0  0  0
 42 44  1  0  0  0  0
 42 45  1  0  0  0  0
 43 47  1  0  0  0  0
 44 49  1  0  0  0  0
 45 69  1  0  0  0  0
 46 49  1  0  0  0  0
 46 69  1  0  0  0  0
 47 73  1  0  0  0  0
 48 68  1  0  0  0  0
 49 67  1  0  0  0  0
 51 61  1  0  0  0  0
 52 61  1  0  0  0  0
 53 63  1  0  0  0  0
 54 64  1  0  0  0  0
 55 64  1  0  0  0  0
 56 64  1  0  0  0  0
 57 76  1  0  0  0  0
 58 75  1  0  0  0  0
 59 60  1  0  0  0  0
 59 72  1  0  0  0  0
 60 83  1  0  0  0  0
 62 64  1  0  0  0  0
 62 74  1  0  0  0  0
 63 76  1  0  0  0  0
 65 67  1  0  0  0  0
M  CHG  1  76   1
M  ISO  4  37 100  60 101  75 100  83 101
M  END
> <Batch ID>
0109

> <Smiles>
CNC(C)C(=O)NC(C(=O)N1Cc2cc([101O:1][101CH2:1]CNc3cc(C)c(C(C)C)c(C[100NH:0][100C:0](=O)N4CCCC(n5nc(-c6ccc(Oc7ccc(F)cc7F)cc6)c(C(N)=O)c5N)C4)n3)ccc2CC1C(=O)NC1CCCc2ccccc21)C(C)(C)C

> <Shape>
0.217

> <Color>
0.058

> <Negative vol penalty>
0.000

$$$$

  -OEChem-04052319563D

 80 88  0     1  0  0  0  0  0999 V2000
  -21.7476  -11.7015   20.9088 C   0  0  0  0  0  0  0  0  0  0  0  0
  -21.7125  -12.9282   21.5641 C   0  0  0  0  0  0  0  0  0  0  0  0
  -21.4438  -29.8900   21.5983 C   0  0  0  0  0  0  0  0  0  0  0  0
  -22.2434  -27.8336   20.6140 C   0  0  0  0  0  0  0  0  0  0  0  0
  -22.9494  -11.2260   20.3857 C   0  0  0  0  0  0  0  0  0  0  0  0
  -22.8794  -13.6797   21.6977 C   0  0  0  0  0  0  0  0  0  0  0  0
  -22.1628  -18.5828   20.6534 C   0  0  0  0  0  0  0  0  0  0  0  0
  -20.1573  -29.3558   21.6693 C   0  0  0  0  0  0  0  0  0  0  0  0
  -20.9568  -27.2994   20.6850 C   0  0  0  0  0  0  0  0  0  0  0  0
  -21.5571  -19.3617   21.6384 C   0  0  0  0  0  0  0  0  0  0  0  0
  -16.7353  -28.4029   22.4421 C   0  0  0  0  0  0  0  0  0  0  0  0
  -16.0217  -28.5856   23.6266 C   0  0  0  0  0  0  0  0  0  0  0  0
  -23.7209  -20.1991   22.2985 C   0  0  0  0  0  0  0  0  0  0  0  0
  -17.7392  -27.4004   24.8442 C   0  0  0  0  0  0  0  0  0  0  0  0
  -22.4869  -29.1289   21.0706 C   0  0  0  0  0  0  0  0  0  0  0  0
  -24.2206  -30.8320   20.2951 C   0  0  0  0  0  0  0  0  0  0  0  0
  -24.1298  -11.9765   20.5045 C   0  0  0  0  0  0  0  0  0  0  0  0
  -23.5555  -18.5980   20.4904 C   0  0  0  0  0  0  0  0  0  0  0  0
  -24.0984  -13.2132   21.1769 C   0  0  0  0  0  0  0  0  0  0  0  0
  -24.3417  -19.4214   21.3090 C   0  0  0  0  0  0  0  0  0  0  0  0
  -19.9138  -28.0605   21.2127 C   0  0  0  0  0  0  0  0  0  0  0  0
  -22.3364  -20.1678   22.4630 C   0  0  0  0  0  0  0  0  0  0  0  0
  -17.9509  -27.7188   22.4587 C   0  0  0  0  0  0  0  0  0  0  0  0
  -16.5236  -28.0845   24.8276 C   0  0  0  0  0  0  0  0  0  0  0  0
  -18.4528  -27.2176   23.6597 C   0  0  0  0  0  0  0  0  0  0  0  0
  -23.8160  -29.6804   20.9965 C   0  0  0  0  0  0  0  0  0  0  0  0
  -25.5687  -30.9273   20.5402 C   0  0  0  0  0  0  0  0  0  0  0  0
  -23.4471  -31.7348   19.4937 C   0  0  0  0  0  0  0  0  0  0  0  0
  -25.8652  -16.4269   20.7259 C   0  0  0  0  0  0  0  0  0  0  0  0
  -27.7164  -18.8431   19.6045 C   0  0  0  0  0  0  0  0  0  0  0  0
  -22.6659  -22.7567   24.6012 C   0  0  0  0  0  0  0  0  0  0  0  0
  -28.1810  -22.2034   19.2310 C   0  0  0  0  0  0  0  0  0  0  0  0
  -26.2772  -26.7971   24.3120 C   0  0  0  0  0  0  0  0  0  0  0  0
  -25.4143  -11.3995   19.9645 C   0  0  0  0  0  0  0  0  0  0  0  0
  -24.1911  -17.7724   19.4057 C   0  0  0  0  0  0  0  0  0  0  0  0
  -25.8390  -19.4890   21.1613 C   0  0  0  0  0  0  0  0  0  0  0  0
  -26.5314  -12.4298   19.8199 C   0  0  0  0  0  0  0  0  0  0  0  0
  -27.6762  -27.2190   20.8671 C   0  0  0  0  0  0  0  0  0  0  0  0
  -26.6343  -13.2858   21.0783 C   0  0  0  0  0  0  0  0  0  0  0  0
  -28.0781  -28.6922   20.8959 C   0  0  0  0  0  0  0  0  0  0  0  0
  -27.7306  -26.6127   22.2624 C   0  0  0  0  0  0  0  0  0  0  0  0
  -24.2811  -24.3051   25.6482 C   0  0  0  0  0  0  0  0  0  0  0  0
  -23.6547  -24.6854   23.2783 C   0  0  0  0  0  0  0  0  0  0  0  0
  -25.7353  -24.5904   25.2962 C   0  0  0  0  0  0  0  0  0  0  0  0
  -25.1148  -25.0022   22.9491 C   0  0  0  0  0  0  0  0  0  0  0  0
  -27.2539  -28.8196   23.2871 C   0  0  0  0  0  0  0  0  0  0  0  0
  -25.3383  -14.0689   21.3202 C   0  0  1  0  0  0  0  0  0  0  0  0
  -25.6642  -17.4741   19.6673 C   0  0  1  0  0  0  0  0  0  0  0  0
  -27.2474  -29.5073   21.9069 C   0  0  2  0  0  0  0  0  0  0  0  0
  -20.5829  -23.0199   23.2798 C   0  0  0  0  0  0  0  0  0  0  0  0
  -29.8067  -23.8764   18.3061 C   0  0  0  0  0  0  0  0  0  0  0  0
  -29.5468  -18.3865   22.0026 C   0  0  0  0  0  0  0  0  0  0  0  0
  -30.5701  -20.6282   21.5600 C   0  0  0  0  0  0  0  0  0  0  0  0
  -30.7394  -18.8218   19.8480 C   0  0  0  0  0  0  0  0  0  0  0  0
  -26.1826  -23.2639   17.3229 C   0  0  0  0  0  0  0  0  0  0  0  0
  -28.5146  -19.9591   20.2341 C   0  0  1  0  0  0  0  0  0  0  0  0
  -21.9280  -22.3339   23.3558 C   0  0  2  0  0  0  0  0  0  1  0  0
  -28.5693  -23.0386   18.0243 C   0  0  2  0  0  0  0  0  0  0  0  0
  -29.8147  -19.4464   20.9155 C   0  0  0  0  0  0  0  0  0  0  0  0
  -24.8253  -29.0866   21.6389 N   0  0  0  0  0  0  0  0  0  0  0  0
  -25.8776  -29.8681   21.3420 N   0  0  0  0  0  0  0  0  0  0  0  0
  -26.4142  -18.6584   20.0904 N   0  0  0  0  0  0  0  0  0  0  0  0
  -23.5300  -23.8459   24.4769 N   0  0  0  0  0  0  0  0  0  0  0  0
  -26.9379  -27.3898   23.2222 N   0  0  0  0  0  0  0  0  0  0  0  0
  -25.8266  -25.4795   24.1404 N   0  0  0  0  0  0  0  0  0  0  0  0
  -26.5081  -31.8130   20.1459 N   0  0  0  0  0  0  0  0  0  0  0  0
  -23.3163  -31.4680   18.1240 N   0  0  0  0  0  0  0  0  0  0  0  0
  -25.2679  -15.2145   20.4386 N   0  0  0  0  0  0  0  0  0  0  0  0
  -28.7400  -20.9438   19.1816 N   0  0  0  0  0  0  0  0  0  0  0  0
  -27.4561  -23.9557   17.6493 N   0  3  0  0  0  0  0  0  0  0  0  0
  -22.9020  -32.7570   19.9748 O   0  0  0  0  0  0  0  0  0  0  0  0
  -26.5155  -16.6984   21.7285 O   0  0  0  0  0  0  0  0  0  0  0  0
  -28.2268  -18.1649   18.7094 O   0  0  0  0  0  0  0  0  0  0  0  0
  -22.4820  -22.1351   25.6510 O   0  0  0  0  0  0  0  0  0  0  0  0
  -27.4575  -22.6272   20.1295 O   0  0  0  0  0  0  0  0  0  0  0  0
  -26.0916  -27.4145   25.3681 O   0  0  0  0  0  0  0  0  0  0  0  0
  -18.6585  -27.5388   21.2821 O   0  0  0  0  0  0  0  0  0  0  0  0
  -21.7417  -20.9363   23.4355 O   0  0  0  0  0  0  0  0  0  1  0  0
  -15.8390  -28.2614   25.9652 F   0  0  0  0  0  0  0  0  0  0  0  0
  -19.6206  -26.5606   23.6821 F   0  0  0  0  0  0  0  0  0  0  0  0
  1  2  1  0  0  0  0
  1  5  2  0  0  0  0
  2  6  2  0  0  0  0
  3  8  2  0  0  0  0
  3 15  1  0  0  0  0
  4  9  1  0  0  0  0
  4 15  2  0  0  0  0
  5 17  1  0  0  0  0
  6 19  1  0  0  0  0
  7 10  2  0  0  0  0
  7 18  1  0  0  0  0
  8 21  1  0  0  0  0
  9 21  2  0  0  0  0
 10 22  1  0  0  0  0
 11 12  2  0  0  0  0
 11 23  1  0  0  0  0
 12 24  1  0  0  0  0
 13 20  1  0  0  0  0
 13 22  2  0  0  0  0
 14 24  2  0  0  0  0
 14 25  1  0  0  0  0
 15 26  1  0  0  0  0
 16 26  1  0  0  0  0
 16 27  2  0  0  0  0
 16 28  1  0  0  0  0
 17 19  2  0  0  0  0
 17 34  1  0  0  0  0
 18 20  2  0  0  0  0
 18 35  1  0  0  0  0
 19 47  1  0  0  0  0
 20 36  1  0  0  0  0
 21 77  1  0  0  0  0
 22 78  1  0  0  0  0
 23 25  2  0  0  0  0
 23 77  1  0  0  0  0
 24 79  1  0  0  0  0
 25 80  1  0  0  0  0
 26 60  2  0  0  0  0
 27 61  1  0  0  0  0
 27 66  1  0  0  0  0
 28 67  1  0  0  0  0
 28 71  2  0  0  0  0
 29 48  1  0  0  0  0
 29 68  1  0  0  0  0
 29 72  2  0  0  0  0
 30 56  1  0  0  0  0
 30 62  1  0  0  0  0
 30 73  2  0  0  0  0
 31 57  1  0  0  0  0
 31 63  1  0  0  0  0
 31 74  2  0  0  0  0
 32 58  1  0  0  0  0
 32 69  1  0  0  0  0
 32 75  2  0  0  0  0
 33 64  1  0  0  0  0
 33 65  1  0  0  0  0
 33 76  2  0  0  0  0
 34 37  1  0  0  0  0
 35 48  1  0  0  0  0
 36 62  1  0  0  0  0
 37 39  1  0  0  0  0
 38 40  1  0  0  0  0
 38 41  1  0  0  0  0
 39 47  1  0  0  0  0
 40 49  1  0  0  0  0
 41 64  1  0  0  0  0
 42 44  1  0  0  0  0
 42 63  1  0  0  0  0
 43 45  1  0  0  0  0
 43 63  1  0  0  0  0
 44 65  1  0  0  0  0
 45 65  1  0  0  0  0
 46 49  1  0  0  0  0
 46 64  1  0  0  0  0
 47 68  1  0  0  0  0
 48 62  1  0  0  0  0
 49 61  1  0  0  0  0
 50 57  1  0  0  0  0
 51 58  1  0  0  0  0
 52 59  1  0  0  0  0
 53 59  1  0  0  0  0
 54 59  1  0  0  0  0
 55 70  1  0  0  0  0
 56 59  1  0  0  0  0
 56 69  1  0  0  0  0
 57 78  1  0  0  0  0
 58 70  1  0  0  0  0
 60 61  1  0  0  0  0
M  CHG  1  70   1
M  ISO  4  33 100  57 101  65 100  78 101
M  END
> <Batch ID>
0109

> <Smiles>
CNC(C)C(=O)NC(C(=O)N1Cc2cc([101O:1][101CH:1](C)C(=O)N3CC[100N:0]([100C:0](=O)N4CCCC(n5nc(-c6ccc(Oc7ccc(F)cc7F)cc6)c(C(N)=O)c5N)C4)CC3)ccc2CC1C(=O)NC1CCCc2ccccc21)C(C)(C)C

> <Shape>
0.228

> <Color>
0.060

> <Negative vol penalty>
0.000

$$$$

  -OEChem-04052319563D

 87 95  0     1  0  0  0  0  0999 V2000
  -22.3738  -23.4028   18.2682 C   0  0  0  0  0  0  0  0  0  0  0  0
  -23.3614  -22.5443   17.7959 C   0  0  0  0  0  0  0  0  0  0  0  0
  -26.4165  -28.4641   19.0135 C   0  0  0  0  0  0  0  0  0  0  0  0
  -26.2983  -27.3561   21.1572 C   0  0  0  0  0  0  0  0  0  0  0  0
  -21.8014  -23.1832   19.5204 C   0  0  0  0  0  0  0  0  0  0  0  0
  -23.7781  -21.4663   18.5761 C   0  0  0  0  0  0  0  0  0  0  0  0
  -25.5438  -15.9489   16.5896 C   0  0  0  0  0  0  0  0  0  0  0  0
  -31.7087  -18.9239   22.1519 C   0  0  0  0  0  0  0  0  0  0  0  0
  -25.3285  -29.2625   19.3661 C   0  0  0  0  0  0  0  0  0  0  0  0
  -25.2103  -28.1546   21.5099 C   0  0  0  0  0  0  0  0  0  0  0  0
  -26.8018  -15.3888   16.3717 C   0  0  0  0  0  0  0  0  0  0  0  0
  -21.8906  -28.2622   20.8784 C   0  0  0  0  0  0  0  0  0  0  0  0
  -20.7967  -27.6387   21.4787 C   0  0  0  0  0  0  0  0  0  0  0  0
  -32.3198  -17.8906   21.4505 C   0  0  0  0  0  0  0  0  0  0  0  0
  -26.7225  -14.3748   18.5591 C   0  0  0  0  0  0  0  0  0  0  0  0
  -21.0789  -29.0276   23.4353 C   0  0  0  0  0  0  0  0  0  0  0  0
  -26.9014  -27.5108   19.9090 C   0  0  0  0  0  0  0  0  0  0  0  0
  -29.3881  -26.9609   19.7629 C   0  0  0  0  0  0  0  0  0  0  0  0
  -22.2045  -22.0963   20.3123 C   0  0  0  0  0  0  0  0  0  0  0  0
  -24.8693  -15.7348   17.8002 C   0  0  0  0  0  0  0  0  0  0  0  0
  -23.2115  -21.2327   19.8407 C   0  0  0  0  0  0  0  0  0  0  0  0
  -25.4549  -14.9312   18.7889 C   0  0  0  0  0  0  0  0  0  0  0  0
  -30.4052  -19.2933   21.8393 C   0  0  0  0  0  0  0  0  0  0  0  0
  -24.7254  -29.1078   20.6143 C   0  0  0  0  0  0  0  0  0  0  0  0
  -27.3926  -14.6040   17.3577 C   0  0  0  0  0  0  0  0  0  0  0  0
  -22.5786  -29.2683   21.5565 C   0  0  0  0  0  0  0  0  0  0  0  0
  -20.3909  -28.0214   22.7572 C   0  0  0  0  0  0  0  0  0  0  0  0
  -22.1728  -29.6511   22.8350 C   0  0  0  0  0  0  0  0  0  0  0  0
  -28.0249  -26.6854   19.5451 C   0  0  0  0  0  0  0  0  0  0  0  0
  -31.5903  -17.2634   20.4533 C   0  0  0  0  0  0  0  0  0  0  0  0
  -29.7615  -18.6035   20.8246 C   0  0  0  0  0  0  0  0  0  0  0  0
  -30.0459  -25.8750   19.2389 C   0  0  0  0  0  0  0  0  0  0  0  0
  -30.0047  -28.0968   20.3835 C   0  0  0  0  0  0  0  0  0  0  0  0
  -23.8377  -17.6048   20.1545 C   0  0  0  0  0  0  0  0  0  0  0  0
  -22.5252  -14.8465   21.2460 C   0  0  0  0  0  0  0  0  0  0  0  0
  -22.5796  -11.4346   21.2997 C   0  0  0  0  0  0  0  0  0  0  0  0
  -28.4224  -20.1894   18.2958 C   0  0  0  0  0  0  0  0  0  0  0  0
  -21.5903  -21.9270   21.6793 C   0  0  0  0  0  0  0  0  0  0  0  0
  -23.5013  -16.3240   18.0091 C   0  0  0  0  0  0  0  0  0  0  0  0
  -24.7635  -14.6542   20.0979 C   0  0  0  0  0  0  0  0  0  0  0  0
  -21.8221  -20.5447   22.2842 C   0  0  0  0  0  0  0  0  0  0  0  0
  -29.6173  -22.5052   15.8697 C   0  0  0  0  0  0  0  0  0  0  0  0
  -23.2819  -20.1311   22.1270 C   0  0  0  0  0  0  0  0  0  0  0  0
  -29.4677  -23.8640   16.5562 C   0  0  0  0  0  0  0  0  0  0  0  0
  -28.4740  -21.5603   16.2332 C   0  0  0  0  0  0  0  0  0  0  0  0
  -28.1076  -22.7374   18.3672 C   0  0  0  0  0  0  0  0  0  0  0  0
  -23.6726  -20.0380   20.6471 C   0  0  1  0  0  0  0  0  0  0  0  0
  -23.1292  -16.4630   19.4821 C   0  0  1  0  0  0  0  0  0  0  0  0
  -29.2668  -23.7056   18.0753 C   0  0  2  0  0  0  0  0  0  0  0  0
  -30.4683  -21.7493   22.4031 C   0  0  0  0  0  0  0  0  0  0  0  0
  -29.5937  -20.0911   24.0885 C   0  0  0  0  0  0  0  0  0  0  0  0
  -21.4054   -9.4614   22.3120 C   0  0  0  0  0  0  0  0  0  0  0  0
  -23.9334  -15.3736   23.9010 C   0  0  0  0  0  0  0  0  0  0  0  0
  -23.5229  -12.9812   24.5140 C   0  0  0  0  0  0  0  0  0  0  0  0
  -21.5950  -14.5126   24.1134 C   0  0  0  0  0  0  0  0  0  0  0  0
  -21.7834  -10.3989   18.6441 C   0  0  0  0  0  0  0  0  0  0  0  0
  -32.2632  -14.3525   21.4072 C   0  0  0  0  0  0  0  0  0  0  0  0
  -28.3596  -18.9548   20.4478 C   0  0  0  0  0  0  0  0  0  0  0  0
  -32.2180  -16.1432   19.6774 C   0  0  0  0  0  0  0  0  0  0  0  0
  -30.9046  -13.9844   17.8774 C   0  0  0  0  0  0  0  0  0  0  0  0
  -31.8891  -13.7651   19.0162 C   0  0  0  0  0  0  0  0  0  0  0  0
  -29.4450  -13.8518   18.2946 C   0  0  0  0  0  0  0  0  0  1  0  0
  -29.7457  -20.4004   22.5864 C   0  0  0  0  0  0  0  0  0  0  0  0
  -22.9841  -13.7292   22.1516 C   0  0  1  0  0  0  0  0  0  0  0  0
  -21.4767  -10.4067   21.1229 C   0  0  2  0  0  0  0  0  0  0  0  0
  -23.0230  -14.1558   23.6462 C   0  0  0  0  0  0  0  0  0  0  0  0
  -27.8269  -25.5162   18.9304 N   0  0  0  0  0  0  0  0  0  0  0  0
  -30.3223  -17.5944   20.1211 N   0  0  0  0  0  0  0  0  0  0  0  0
  -29.0745  -25.0474   18.7575 N   0  0  0  0  0  0  0  0  0  0  0  0
  -23.4302  -15.2578   20.2573 N   0  0  0  0  0  0  0  0  0  0  0  0
  -28.3377  -21.4528   17.6877 N   0  0  0  0  0  0  0  0  0  0  0  0
  -31.3547  -25.5569   19.1475 N   0  0  0  0  0  0  0  0  0  0  0  0
  -29.1814  -29.1226   20.8675 N   0  0  0  0  0  0  0  0  0  0  0  0
  -23.1694  -18.8111   20.0676 N   0  0  0  0  0  0  0  0  0  0  0  0
  -22.1086  -12.5951   21.8765 N   0  0  0  0  0  0  0  0  0  0  0  0
  -28.2889  -20.1773   19.6788 N   0  0  0  0  0  0  0  0  0  0  0  0
  -21.7141   -9.5984   19.8936 N   0  3  0  0  0  0  0  0  0  0  0  0
  -31.6969  -14.7832   20.0755 N   0  3  1  0  0  0  0  0  0  0  0  0
  -31.2497  -28.2067   20.4906 O   0  0  0  0  0  0  0  0  0  0  0  0
  -24.9106  -17.4057   20.7121 O   0  0  0  0  0  0  0  0  0  0  0  0
  -21.4022  -15.3314   21.4054 O   0  0  0  0  0  0  0  0  0  0  0  0
  -23.7435  -11.2273   20.9635 O   0  0  0  0  0  0  0  0  0  0  0  0
  -28.6089  -19.1499   17.6542 O   0  0  0  0  0  0  0  0  0  0  0  0
  -23.6639  -29.8869   20.9589 O   0  0  0  0  0  0  0  0  0  0  0  0
  -28.6207  -14.0567   17.1479 O   0  0  0  0  0  0  0  0  0  1  0  0
  -19.3395  -27.4237   23.3329 F   0  0  0  0  0  0  0  0  0  0  0  0
  -22.8291  -30.6179   23.4909 F   0  0  0  0  0  0  0  0  0  0  0  0
  1  2  1  0  0  0  0
  1  5  2  0  0  0  0
  2  6  2  0  0  0  0
  3  9  2  0  0  0  0
  3 17  1  0  0  0  0
  4 10  1  0  0  0  0
  4 17  2  0  0  0  0
  5 19  1  0  0  0  0
  6 21  1  0  0  0  0
  7 11  2  0  0  0  0
  7 20  1  0  0  0  0
  8 14  2  0  0  0  0
  8 23  1  0  0  0  0
  9 24  1  0  0  0  0
 10 24  2  0  0  0  0
 11 25  1  0  0  0  0
 12 13  2  0  0  0  0
 12 26  1  0  0  0  0
 13 27  1  0  0  0  0
 14 30  1  0  0  0  0
 15 22  1  0  0  0  0
 15 25  2  0  0  0  0
 16 27  2  0  0  0  0
 16 28  1  0  0  0  0
 17 29  1  0  0  0  0
 18 29  1  0  0  0  0
 18 32  2  0  0  0  0
 18 33  1  0  0  0  0
 19 21  2  0  0  0  0
 19 38  1  0  0  0  0
 20 22  2  0  0  0  0
 20 39  1  0  0  0  0
 21 47  1  0  0  0  0
 22 40  1  0  0  0  0
 23 31  2  0  0  0  0
 23 63  1  0  0  0  0
 24 84  1  0  0  0  0
 25 85  1  0  0  0  0
 26 28  2  0  0  0  0
 26 84  1  0  0  0  0
 27 86  1  0  0  0  0
 28 87  1  0  0  0  0
 29 67  2  0  0  0  0
 30 59  1  0  0  0  0
 30 68  2  0  0  0  0
 31 58  1  0  0  0  0
 31 68  1  0  0  0  0
 32 69  1  0  0  0  0
 32 72  1  0  0  0  0
 33 73  1  0  0  0  0
 33 79  2  0  0  0  0
 34 48  1  0  0  0  0
 34 74  1  0  0  0  0
 34 80  2  0  0  0  0
 35 64  1  0  0  0  0
 35 70  1  0  0  0  0
 35 81  2  0  0  0  0
 36 65  1  0  0  0  0
 36 75  1  0  0  0  0
 36 82  2  0  0  0  0
 37 71  1  0  0  0  0
 37 76  1  0  0  0  0
 37 83  2  0  0  0  0
 38 41  1  0  0  0  0
 39 48  1  0  0  0  0
 40 70  1  0  0  0  0
 41 43  1  0  0  0  0
 42 44  1  0  0  0  0
 42 45  1  0  0  0  0
 43 47  1  0  0  0  0
 44 49  1  0  0  0  0
 45 71  1  0  0  0  0
 46 49  1  0  0  0  0
 46 71  1  0  0  0  0
 47 74  1  0  0  0  0
 48 70  1  0  0  0  0
 49 69  1  0  0  0  0
 50 63  1  0  0  0  0
 51 63  1  0  0  0  0
 52 65  1  0  0  0  0
 53 66  1  0  0  0  0
 54 66  1  0  0  0  0
 55 66  1  0  0  0  0
 56 77  1  0  0  0  0
 57 78  1  0  0  0  0
 58 76  1  0  0  0  0
 59 78  1  0  0  0  0
 60 61  1  0  0  0  0
 60 62  1  0  0  0  0
 61 78  1  0  0  0  0
 62 85  1  0  0  0  0
 64 66  1  0  0  0  0
 64 75  1  0  0  0  0
 65 77  1  0  0  0  0
 67 69  1  0  0  0  0
M  CHG  2  77   1  78   1
M  ISO  4  37 100  62 101  76 100  85 101
M  END
> <Batch ID>
0109

> <Smiles>
CNC(C)C(=O)NC(C(=O)N1Cc2cc([101O:1][101CH2:1]CCN(C)Cc3ccc(C(C)C)c(C[100NH:0][100C:0](=O)N4CCCC(n5nc(-c6ccc(Oc7ccc(F)cc7F)cc6)c(C(N)=O)c5N)C4)n3)ccc2CC1C(=O)NC1CCCc2ccccc21)C(C)(C)C

> <Shape>
0.244

> <Color>
0.067

> <Negative vol penalty>
0.000

$$$$

  -OEChem-04052319563D

 88 96  0     1  0  0  0  0  0999 V2000
  -32.5622  -12.6787   21.0269 C   0  0  0  0  0  0  0  0  0  0  0  0
  -32.1625  -14.0090   21.1041 C   0  0  0  0  0  0  0  0  0  0  0  0
  -28.6455  -23.8807   19.3174 C   0  0  0  0  0  0  0  0  0  0  0  0
  -26.7562  -24.8054   18.1288 C   0  0  0  0  0  0  0  0  0  0  0  0
  -31.7264  -11.7342   20.4325 C   0  0  0  0  0  0  0  0  0  0  0  0
  -30.9271  -14.3958   20.5859 C   0  0  0  0  0  0  0  0  0  0  0  0
  -25.6090  -19.0586   21.7226 C   0  0  0  0  0  0  0  0  0  0  0  0
  -28.3209  -22.6094   18.8442 C   0  0  0  0  0  0  0  0  0  0  0  0
  -26.4317  -23.5340   17.6555 C   0  0  0  0  0  0  0  0  0  0  0  0
  -24.8628  -20.0260   21.0510 C   0  0  0  0  0  0  0  0  0  0  0  0
  -28.6876  -20.8486   15.9810 C   0  0  0  0  0  0  0  0  0  0  0  0
  -29.7244  -20.0561   15.4885 C   0  0  0  0  0  0  0  0  0  0  0  0
  -23.4678  -18.2934   20.1176 C   0  0  0  0  0  0  0  0  0  0  0  0
  -20.6745  -26.4596   21.4969 C   0  0  0  0  0  0  0  0  0  0  0  0
  -29.2395  -18.3821   17.1618 C   0  0  0  0  0  0  0  0  0  0  0  0
  -18.7564  -26.3767   20.3206 C   0  0  0  0  0  0  0  0  0  0  0  0
  -27.8630  -24.9788   18.9598 C   0  0  0  0  0  0  0  0  0  0  0  0
  -29.0438  -27.2367   18.8378 C   0  0  0  0  0  0  0  0  0  0  0  0
  -30.4760  -12.1079   19.9154 C   0  0  0  0  0  0  0  0  0  0  0  0
  -25.2964  -17.6982   21.5879 C   0  0  0  0  0  0  0  0  0  0  0  0
  -30.0743  -13.4557   19.9828 C   0  0  0  0  0  0  0  0  0  0  0  0
  -24.2099  -17.3109   20.7906 C   0  0  0  0  0  0  0  0  0  0  0  0
  -27.2141  -22.4360   18.0133 C   0  0  0  0  0  0  0  0  0  0  0  0
  -23.7939  -19.6433   20.2460 C   0  0  0  0  0  0  0  0  0  0  0  0
  -27.9268  -20.4079   17.0639 C   0  0  0  0  0  0  0  0  0  0  0  0
  -19.9140  -25.6806   20.5904 C   0  0  0  0  0  0  0  0  0  0  0  0
  -30.0004  -18.8228   16.0789 C   0  0  0  0  0  0  0  0  0  0  0  0
  -28.2027  -19.1747   17.6542 C   0  0  0  0  0  0  0  0  0  0  0  0
  -28.1974  -26.2922   19.4487 C   0  0  0  0  0  0  0  0  0  0  0  0
  -19.9585  -27.6079   21.7537 C   0  0  0  0  0  0  0  0  0  0  0  0
  -29.0316  -28.3121   19.6921 C   0  0  0  0  0  0  0  0  0  0  0  0
  -29.7756  -27.1498   17.6079 C   0  0  0  0  0  0  0  0  0  0  0  0
  -26.8246  -15.1456   20.4688 C   0  0  0  0  0  0  0  0  0  0  0  0
  -24.2246  -13.5741   21.6057 C   0  0  0  0  0  0  0  0  0  0  0  0
  -20.9314  -13.6850   22.4941 C   0  0  0  0  0  0  0  0  0  0  0  0
  -25.0720  -30.2591   23.7396 C   0  0  0  0  0  0  0  0  0  0  0  0
  -29.6273  -11.0601   19.2397 C   0  0  0  0  0  0  0  0  0  0  0  0
  -26.0944  -16.6689   22.3403 C   0  0  0  0  0  0  0  0  0  0  0  0
  -23.8207  -15.8649   20.6289 C   0  0  0  0  0  0  0  0  0  0  0  0
  -28.1729  -11.4834   19.0505 C   0  0  0  0  0  0  0  0  0  0  0  0
  -28.4829  -29.4155   24.3151 C   0  0  0  0  0  0  0  0  0  0  0  0
  -28.0978  -12.8998   18.4895 C   0  0  0  0  0  0  0  0  0  0  0  0
  -28.8729  -28.6046   23.0781 C   0  0  0  0  0  0  0  0  0  0  0  0
  -27.0423  -29.1393   24.7399 C   0  0  0  0  0  0  0  0  0  0  0  0
  -26.4274  -28.5081   22.4383 C   0  0  0  0  0  0  0  0  0  0  0  0
  -28.7309  -13.9096   19.4543 C   0  0  1  0  0  0  0  0  0  0  0  0
  -26.0070  -15.2767   21.7226 C   0  0  1  0  0  0  0  0  0  0  0  0
  -27.8537  -28.7950   21.9386 C   0  0  2  0  0  0  0  0  0  0  0  0
  -19.0723  -12.2335   23.3511 C   0  0  0  0  0  0  0  0  0  0  0  0
  -23.9147  -12.3383   18.8332 C   0  0  0  0  0  0  0  0  0  0  0  0
  -21.5802  -11.6868   19.4609 C   0  0  0  0  0  0  0  0  0  0  0  0
  -23.5164  -10.7580   20.7302 C   0  0  0  0  0  0  0  0  0  0  0  0
  -16.6112  -28.1036   20.0792 C   0  0  0  0  0  0  0  0  0  0  0  0
  -18.3359  -29.8952   20.5209 C   0  0  0  0  0  0  0  0  0  0  0  0
  -17.1190  -28.8233   22.4023 C   0  0  0  0  0  0  0  0  0  0  0  0
  -20.6309  -15.3169   24.9447 C   0  0  0  0  0  0  0  0  0  0  0  0
  -20.2876  -28.7555   22.6237 C   0  0  0  0  0  0  0  0  0  0  0  0
  -21.6453  -22.5247   19.8070 C   0  0  0  0  0  0  0  0  0  0  0  0
  -23.1323  -31.3040   22.5974 C   0  0  0  0  0  0  0  0  0  0  0  0
  -21.8499  -30.6507   23.0780 C   0  0  0  0  0  0  0  0  0  0  0  0
  -22.9599  -21.8701   20.2015 C   0  0  0  0  0  0  0  0  0  1  0  0
  -21.4748  -23.8917   20.4510 C   0  0  0  0  0  0  0  0  0  0  0  0
  -22.8795  -13.1848   21.0418 C   0  0  1  0  0  0  0  0  0  0  0  0
  -20.2028  -13.1790   23.7261 C   0  0  2  0  0  0  0  0  0  0  0  0
  -22.9810  -12.0192   20.0179 C   0  0  0  0  0  0  0  0  0  0  0  0
  -17.7547  -28.5521   21.0162 C   0  0  0  0  0  0  0  0  0  0  0  0
  -27.6849  -26.7291   20.6022 N   0  0  0  0  0  0  0  0  0  0  0  0
  -18.7941  -27.5466   21.0335 N   0  0  0  0  0  0  0  0  0  0  0  0
  -28.2108  -27.9599   20.7229 N   0  0  0  0  0  0  0  0  0  0  0  0
  -24.6354  -14.8954   21.3798 N   0  0  0  0  0  0  0  0  0  0  0  0
  -26.1263  -29.3394   23.6143 N   0  0  0  0  0  0  0  0  0  0  0  0
  -29.6430  -29.5151   19.6547 N   0  0  0  0  0  0  0  0  0  0  0  0
  -29.6759  -25.9734   16.8527 N   0  0  0  0  0  0  0  0  0  0  0  0
  -27.8279  -14.1987   20.5477 N   0  0  0  0  0  0  0  0  0  0  0  0
  -22.0231  -12.9003   22.1881 N   0  0  0  0  0  0  0  0  0  0  0  0
  -24.2546  -30.3928   22.6240 N   0  0  0  0  0  0  0  0  0  0  0  0
  -19.6266  -14.3201   24.4922 N   0  3  0  0  0  0  0  0  0  0  0  0
  -21.5471  -29.4636   22.2408 N   0  3  0  0  0  0  0  0  0  0  0  0
  -30.5096  -28.0813   17.1991 O   0  0  0  0  0  0  0  0  0  0  0  0
  -26.5635  -15.8504   19.5009 O   0  0  0  0  0  0  0  0  0  0  0  0
  -24.8833  -12.7386   22.2301 O   0  0  0  0  0  0  0  0  0  0  0  0
  -20.5662  -14.6749   21.8639 O   0  0  0  0  0  0  0  0  0  0  0  0
  -24.8771  -30.9167   24.7675 O   0  0  0  0  0  0  0  0  0  0  0  0
  -26.8973  -21.1956   17.5511 O   0  0  0  0  0  0  0  0  0  0  0  0
  -23.0643  -20.5855   19.5888 O   0  0  0  0  0  0  0  0  0  1  0  0
  -20.2329  -24.4591   20.0566 O   0  0  0  0  0  0  0  0  0  0  0  0
  -30.9950  -18.0611   15.6049 F   0  0  0  0  0  0  0  0  0  0  0  0
  -27.4745  -18.7455   18.6941 F   0  0  0  0  0  0  0  0  0  0  0  0
  1  2  1  0  0  0  0
  1  5  2  0  0  0  0
  2  6  2  0  0  0  0
  3  8  2  0  0  0  0
  3 17  1  0  0  0  0
  4  9  1  0  0  0  0
  4 17  2  0  0  0  0
  5 19  1  0  0  0  0
  6 21  1  0  0  0  0
  7 10  2  0  0  0  0
  7 20  1  0  0  0  0
  8 23  1  0  0  0  0
  9 23  2  0  0  0  0
 10 24  1  0  0  0  0
 11 12  2  0  0  0  0
 11 25  1  0  0  0  0
 12 27  1  0  0  0  0
 13 22  1  0  0  0  0
 13 24  2  0  0  0  0
 14 26  1  0  0  0  0
 14 30  2  0  0  0  0
 15 27  2  0  0  0  0
 15 28  1  0  0  0  0
 16 26  2  0  0  0  0
 16 68  1  0  0  0  0
 17 29  1  0  0  0  0
 18 29  1  0  0  0  0
 18 31  2  0  0  0  0
 18 32  1  0  0  0  0
 19 21  2  0  0  0  0
 19 37  1  0  0  0  0
 20 22  2  0  0  0  0
 20 38  1  0  0  0  0
 21 46  1  0  0  0  0
 22 39  1  0  0  0  0
 23 84  1  0  0  0  0
 24 85  1  0  0  0  0
 25 28  2  0  0  0  0
 25 84  1  0  0  0  0
 26 86  1  0  0  0  0
 27 87  1  0  0  0  0
 28 88  1  0  0  0  0
 29 67  2  0  0  0  0
 30 57  1  0  0  0  0
 30 68  1  0  0  0  0
 31 69  1  0  0  0  0
 31 72  1  0  0  0  0
 32 73  1  0  0  0  0
 32 79  2  0  0  0  0
 33 47  1  0  0  0  0
 33 74  1  0  0  0  0
 33 80  2  0  0  0  0
 34 63  1  0  0  0  0
 34 70  1  0  0  0  0
 34 81  2  0  0  0  0
 35 64  1  0  0  0  0
 35 75  1  0  0  0  0
 35 82  2  0  0  0  0
 36 71  1  0  0  0  0
 36 76  1  0  0  0  0
 36 83  2  0  0  0  0
 37 40  1  0  0  0  0
 38 47  1  0  0  0  0
 39 70  1  0  0  0  0
 40 42  1  0  0  0  0
 41 43  1  0  0  0  0
 41 44  1  0  0  0  0
 42 46  1  0  0  0  0
 43 48  1  0  0  0  0
 44 71  1  0  0  0  0
 45 48  1  0  0  0  0
 45 71  1  0  0  0  0
 46 74  1  0  0  0  0
 47 70  1  0  0  0  0
 48 69  1  0  0  0  0
 49 64  1  0  0  0  0
 50 65  1  0  0  0  0
 51 65  1  0  0  0  0
 52 65  1  0  0  0  0
 53 66  1  0  0  0  0
 54 66  1  0  0  0  0
 55 66  1  0  0  0  0
 56 77  1  0  0  0  0
 57 78  1  0  0  0  0
 58 61  1  0  0  0  0
 58 62  1  0  0  0  0
 59 60  1  0  0  0  0
 59 76  1  0  0  0  0
 60 78  1  0  0  0  0
 61 85  1  0  0  0  0
 62 86  1  0  0  0  0
 63 65  1  0  0  0  0
 63 75  1  0  0  0  0
 64 77  1  0  0  0  0
 66 68  1  0  0  0  0
 67 69  1  0  0  0  0
M  CHG  2  77   1  78   1
M  ISO  4  36 100  61 101  76 100  85 101
M  END
> <Batch ID>
0109

> <Smiles>
CNC(C)C(=O)NC(C(=O)N1Cc2cc([101O:1][101CH2:1]CCOc3cc(CNCC[100NH:0][100C:0](=O)N4CCCC(n5nc(-c6ccc(Oc7ccc(F)cc7F)cc6)c(C(N)=O)c5N)C4)n(C(C)(C)C)c3)ccc2CC1C(=O)NC1CCCc2ccccc21)C(C)(C)C

> <Shape>
0.239

> <Color>
0.061

> <Negative vol penalty>
0.000

$$$$

  -OEChem-04052319563D

 83 91  0     1  0  0  0  0  0999 V2000
  -30.0752  -25.6635   16.1379 C   0  0  0  0  0  0  0  0  0  0  0  0
  -28.8965  -25.4726   16.8519 C   0  0  0  0  0  0  0  0  0  0  0  0
  -26.5710  -13.3192   20.8687 C   0  0  0  0  0  0  0  0  0  0  0  0
  -24.4290  -14.3728   20.4966 C   0  0  0  0  0  0  0  0  0  0  0  0
  -31.0876  -26.4629   16.6669 C   0  0  0  0  0  0  0  0  0  0  0  0
  -28.7301  -26.0802   18.0959 C   0  0  0  0  0  0  0  0  0  0  0  0
  -24.1633  -28.2034   18.6257 C   0  0  0  0  0  0  0  0  0  0  0  0
  -25.9410  -12.0805   20.9886 C   0  0  0  0  0  0  0  0  0  0  0  0
  -23.7989  -13.1341   20.6164 C   0  0  0  0  0  0  0  0  0  0  0  0
  -23.0945  -27.3532   18.9061 C   0  0  0  0  0  0  0  0  0  0  0  0
  -24.6412   -9.7371   18.9267 C   0  0  0  0  0  0  0  0  0  0  0  0
  -25.2082   -8.6537   18.2555 C   0  0  0  0  0  0  0  0  0  0  0  0
  -23.2359  -27.9542   21.2380 C   0  0  0  0  0  0  0  0  0  0  0  0
  -24.1906  -23.3616   24.6602 C   0  0  0  0  0  0  0  0  0  0  0  0
  -25.5000   -7.5029   20.3597 C   0  0  0  0  0  0  0  0  0  0  0  0
  -25.8150  -14.4654   20.6227 C   0  0  0  0  0  0  0  0  0  0  0  0
  -26.9606  -16.3371   19.3220 C   0  0  0  0  0  0  0  0  0  0  0  0
  -30.9297  -27.0884   17.9137 C   0  0  0  0  0  0  0  0  0  0  0  0
  -24.7845  -28.9283   19.6529 C   0  0  0  0  0  0  0  0  0  0  0  0
  -29.7420  -26.8876   18.6427 C   0  0  0  0  0  0  0  0  0  0  0  0
  -24.3107  -28.8149   20.9677 C   0  0  0  0  0  0  0  0  0  0  0  0
  -24.1063  -22.1890   23.8696 C   0  0  0  0  0  0  0  0  0  0  0  0
  -24.5549  -11.9880   20.8624 C   0  0  0  0  0  0  0  0  0  0  0  0
  -22.6325  -27.2263   20.2128 C   0  0  0  0  0  0  0  0  0  0  0  0
  -24.5037   -9.7034   20.3144 C   0  0  0  0  0  0  0  0  0  0  0  0
  -25.6376   -7.5367   18.9720 C   0  0  0  0  0  0  0  0  0  0  0  0
  -24.9331   -8.5864   21.0309 C   0  0  0  0  0  0  0  0  0  0  0  0
  -26.4652  -15.7452   20.4993 C   0  0  0  0  0  0  0  0  0  0  0  0
  -23.0228  -24.0679   24.4742 C   0  0  0  0  0  0  0  0  0  0  0  0
  -22.8896  -22.2146   23.2243 C   0  0  0  0  0  0  0  0  0  0  0  0
  -27.4797  -17.5400   19.7345 C   0  0  0  0  0  0  0  0  0  0  0  0
  -26.9523  -15.8437   17.9758 C   0  0  0  0  0  0  0  0  0  0  0  0
  -27.7140  -29.0131   20.8837 C   0  0  0  0  0  0  0  0  0  0  0  0
  -26.5061  -31.4970   22.5847 C   0  0  0  0  0  0  0  0  0  0  0  0
  -23.7624  -33.0589   23.8806 C   0  0  0  0  0  0  0  0  0  0  0  0
  -26.3209  -21.1055   24.3874 C   0  0  0  0  0  0  0  0  0  0  0  0
  -32.0710  -27.9051   18.4659 C   0  0  0  0  0  0  0  0  0  0  0  0
  -25.9190  -29.8616   19.3299 C   0  0  0  0  0  0  0  0  0  0  0  0
  -24.9300  -29.5867   22.1032 C   0  0  0  0  0  0  0  0  0  0  0  0
  -31.6648  -28.8162   19.6213 C   0  0  0  0  0  0  0  0  0  0  0  0
  -29.4613  -19.6528   23.5481 C   0  0  0  0  0  0  0  0  0  0  0  0
  -30.8114  -28.0525   20.6289 C   0  0  0  0  0  0  0  0  0  0  0  0
  -29.0951  -18.5437   22.5592 C   0  0  0  0  0  0  0  0  0  0  0  0
  -28.4159  -19.7957   24.6528 C   0  0  0  0  0  0  0  0  0  0  0  0
  -26.6685  -18.8538   23.1938 C   0  0  0  0  0  0  0  0  0  0  0  0
  -29.5141  -27.5498   19.9842 C   0  0  1  0  0  0  0  0  0  0  0  0
  -26.8085  -30.1597   20.5330 C   0  0  1  0  0  0  0  0  0  0  0  0
  -27.6591  -18.7156   22.0262 C   0  0  2  0  0  0  0  0  0  0  0  0
  -22.5914  -25.3549   25.0579 C   0  0  0  0  0  0  0  0  0  0  0  0
  -22.2871  -21.2470   22.2816 C   0  0  0  0  0  0  0  0  0  0  0  0
  -23.0945  -35.0490   25.2558 C   0  0  0  0  0  0  0  0  0  0  0  0
  -27.4618  -30.0714   25.1075 C   0  0  0  0  0  0  0  0  0  0  0  0
  -25.9685  -31.5761   26.4395 C   0  0  0  0  0  0  0  0  0  0  0  0
  -27.8376  -32.5439   25.1006 C   0  0  0  0  0  0  0  0  0  0  0  0
  -22.1415  -34.1848   21.6752 C   0  0  0  0  0  0  0  0  0  0  0  0
  -20.8710  -23.7824   23.1221 C   0  0  0  0  0  0  0  0  0  0  0  0
  -19.4631  -24.5119   21.0796 C   0  0  0  0  0  0  0  0  0  0  0  0
  -21.5644  -25.7943   21.7827 C   0  0  0  0  0  0  0  0  0  1  0  0
  -25.7980  -31.6412   23.9101 C   0  0  1  0  0  0  0  0  0  0  0  0
  -23.3227  -34.5116   23.8516 C   0  0  2  0  0  0  0  0  0  0  0  0
  -20.8618  -24.4275   21.7183 C   0  0  1  0  0  0  0  0  0  0  0  0
  -26.7558  -31.4420   25.1186 C   0  0  0  0  0  0  0  0  0  0  0  0
  -26.6529  -16.5091   21.5788 N   0  0  0  0  0  0  0  0  0  0  0  0
  -22.2396  -23.3614   23.5992 N   0  0  0  0  0  0  0  0  0  0  0  0
  -27.2720  -17.5932   21.0815 N   0  0  0  0  0  0  0  0  0  0  0  0
  -26.0406  -30.4814   21.7376 N   0  0  0  0  0  0  0  0  0  0  0  0
  -27.0809  -19.9590   24.0731 N   0  0  0  0  0  0  0  0  0  0  0  0
  -28.0889  -18.5466   19.0729 N   0  0  0  0  0  0  0  0  0  0  0  0
  -26.3791  -14.5890   17.7276 N   0  0  0  0  0  0  0  0  0  0  0  0
  -25.0813  -21.1675   23.7517 N   0  0  0  0  0  0  0  0  0  0  0  0
  -28.5596  -28.6305   19.8600 N   0  0  0  0  0  0  0  0  0  0  0  0
  -25.1362  -32.9410   23.8801 N   0  0  0  0  0  0  0  0  0  0  0  0
  -18.5295  -25.3302   21.8889 N   0  3  0  0  0  0  0  0  0  0  0  0
  -22.0543  -34.6536   23.0822 N   0  3  0  0  0  0  0  0  0  0  0  0
  -27.4534  -16.4889   17.0239 O   0  0  0  0  0  0  0  0  0  0  0  0
  -27.6511  -28.5135   22.0009 O   0  0  0  0  0  0  0  0  0  0  0  0
  -27.4333  -32.2622   22.3081 O   0  0  0  0  0  0  0  0  0  0  0  0
  -22.9667  -32.1225   23.9053 O   0  0  0  0  0  0  0  0  0  0  0  0
  -26.7503  -21.9820   25.1420 O   0  0  0  0  0  0  0  0  0  0  0  0
  -23.9398  -10.7794   20.9791 O   0  0  0  0  0  0  0  0  0  0  0  0
  -21.5899  -26.3966   20.4893 O   0  0  0  0  0  0  0  0  0  1  0  0
  -26.1806   -6.4957   18.3272 F   0  0  0  0  0  0  0  0  0  0  0  0
  -24.8025   -8.5477   22.3640 F   0  0  0  0  0  0  0  0  0  0  0  0
  1  2  1  0  0  0  0
  1  5  2  0  0  0  0
  2  6  2  0  0  0  0
  3  8  2  0  0  0  0
  3 16  1  0  0  0  0
  4  9  1  0  0  0  0
  4 16  2  0  0  0  0
  5 18  1  0  0  0  0
  6 20  1  0  0  0  0
  7 10  2  0  0  0  0
  7 19  1  0  0  0  0
  8 23  1  0  0  0  0
  9 23  2  0  0  0  0
 10 24  1  0  0  0  0
 11 12  2  0  0  0  0
 11 25  1  0  0  0  0
 12 26  1  0  0  0  0
 13 21  1  0  0  0  0
 13 24  2  0  0  0  0
 14 22  1  0  0  0  0
 14 29  2  0  0  0  0
 15 26  2  0  0  0  0
 15 27  1  0  0  0  0
 16 28  1  0  0  0  0
 17 28  1  0  0  0  0
 17 31  2  0  0  0  0
 17 32  1  0  0  0  0
 18 20  2  0  0  0  0
 18 37  1  0  0  0  0
 19 21  2  0  0  0  0
 19 38  1  0  0  0  0
 20 46  1  0  0  0  0
 21 39  1  0  0  0  0
 22 30  2  0  0  0  0
 22 70  1  0  0  0  0
 23 80  1  0  0  0  0
 24 81  1  0  0  0  0
 25 27  2  0  0  0  0
 25 80  1  0  0  0  0
 26 82  1  0  0  0  0
 27 83  1  0  0  0  0
 28 63  2  0  0  0  0
 29 49  1  0  0  0  0
 29 64  1  0  0  0  0
 30 50  1  0  0  0  0
 30 64  1  0  0  0  0
 31 65  1  0  0  0  0
 31 68  1  0  0  0  0
 32 69  1  0  0  0  0
 32 75  2  0  0  0  0
 33 47  1  0  0  0  0
 33 71  1  0  0  0  0
 33 76  2  0  0  0  0
 34 59  1  0  0  0  0
 34 66  1  0  0  0  0
 34 77  2  0  0  0  0
 35 60  1  0  0  0  0
 35 72  1  0  0  0  0
 35 78  2  0  0  0  0
 36 67  1  0  0  0  0
 36 70  1  0  0  0  0
 36 79  2  0  0  0  0
 37 40  1  0  0  0  0
 38 47  1  0  0  0  0
 39 66  1  0  0  0  0
 40 42  1  0  0  0  0
 41 43  1  0  0  0  0
 41 44  1  0  0  0  0
 42 46  1  0  0  0  0
 43 48  1  0  0  0  0
 44 67  1  0  0  0  0
 45 48  1  0  0  0  0
 45 67  1  0  0  0  0
 46 71  1  0  0  0  0
 47 66  1  0  0  0  0
 48 65  1  0  0  0  0
 51 60  1  0  0  0  0
 52 62  1  0  0  0  0
 53 62  1  0  0  0  0
 54 62  1  0  0  0  0
 55 74  1  0  0  0  0
 56 61  1  0  0  0  0
 56 64  1  0  0  0  0
 57 61  1  0  0  0  0
 57 73  1  0  0  0  0
 58 61  1  0  0  0  0
 58 81  1  0  0  0  0
 59 62  1  0  0  0  0
 59 72  1  0  0  0  0
 60 74  1  0  0  0  0
 63 65  1  0  0  0  0
M  CHG  2  73   1  74   1
M  ISO  4  36 100  58 101  70 100  81 101
M  END
> <Batch ID>
0109

> <Smiles>
CNC(C)C(=O)NC(C(=O)N1Cc2cc([101O:1][101CH2:1]C(CN)Cn3c(C)cc([100NH:0][100C:0](=O)N4CCCC(n5nc(-c6ccc(Oc7ccc(F)cc7F)cc6)c(C(N)=O)c5N)C4)c3C)ccc2CC1C(=O)NC1CCCc2ccccc21)C(C)(C)C

> <Shape>
0.224

> <Color>
0.059

> <Negative vol penalty>
0.000

$$$$

  -OEChem-04052319563D

 83 91  0     1  0  0  0  0  0999 V2000
  -23.2225  -35.5691   19.1244 C   0  0  0  0  0  0  0  0  0  0  0  0
  -24.2125  -34.6355   19.4138 C   0  0  0  0  0  0  0  0  0  0  0  0
  -26.8268  -12.2296   21.0352 C   0  0  0  0  0  0  0  0  0  0  0  0
  -25.6539  -13.7570   19.5763 C   0  0  0  0  0  0  0  0  0  0  0  0
  -22.0287  -35.5636   19.8446 C   0  0  0  0  0  0  0  0  0  0  0  0
  -24.0096  -33.6964   20.4244 C   0  0  0  0  0  0  0  0  0  0  0  0
  -25.4198  -29.0302   19.0520 C   0  0  0  0  0  0  0  0  0  0  0  0
  -25.9508  -11.2076   20.6696 C   0  0  0  0  0  0  0  0  0  0  0  0
  -24.7779  -12.7350   19.2106 C   0  0  0  0  0  0  0  0  0  0  0  0
  -26.7846  -28.7459   19.0717 C   0  0  0  0  0  0  0  0  0  0  0  0
  -23.8011   -8.2877   20.3928 C   0  0  0  0  0  0  0  0  0  0  0  0
  -23.2866   -7.4790   21.4061 C   0  0  0  0  0  0  0  0  0  0  0  0
  -26.5172  -27.6397   21.1987 C   0  0  0  0  0  0  0  0  0  0  0  0
  -22.2913   -9.4181   22.4484 C   0  0  0  0  0  0  0  0  0  0  0  0
  -26.6783  -13.5043   20.4886 C   0  0  0  0  0  0  0  0  0  0  0  0
  -28.9799  -14.5846   20.6968 C   0  0  0  0  0  0  0  0  0  0  0  0
  -21.8072  -34.6178   20.8581 C   0  0  0  0  0  0  0  0  0  0  0  0
  -24.5941  -28.6303   20.1125 C   0  0  0  0  0  0  0  0  0  0  0  0
  -22.8122  -33.6790   21.1597 C   0  0  0  0  0  0  0  0  0  0  0  0
  -25.1419  -27.9179   21.1888 C   0  0  0  0  0  0  0  0  0  0  0  0
  -24.9263  -11.4602   19.7573 C   0  0  0  0  0  0  0  0  0  0  0  0
  -27.3340  -28.0530   20.1465 C   0  0  0  0  0  0  0  0  0  0  0  0
  -23.5607   -9.6617   20.4073 C   0  0  0  0  0  0  0  0  0  0  0  0
  -22.5317   -8.0441   22.4339 C   0  0  0  0  0  0  0  0  0  0  0  0
  -22.8058  -10.2268   21.4351 C   0  0  0  0  0  0  0  0  0  0  0  0
  -27.5826  -14.5606   20.8663 C   0  0  0  0  0  0  0  0  0  0  0  0
  -29.3678  -15.7965   21.2140 C   0  0  0  0  0  0  0  0  0  0  0  0
  -29.8495  -13.5996   20.1230 C   0  0  0  0  0  0  0  0  0  0  0  0
  -22.7849  -30.1461   22.2416 C   0  0  0  0  0  0  0  0  0  0  0  0
  -21.8935  -27.1335   23.0492 C   0  0  0  0  0  0  0  0  0  0  0  0
  -23.5094  -23.9377   23.4887 C   0  0  0  0  0  0  0  0  0  0  0  0
  -28.3161  -21.3814   21.3536 C   0  0  0  0  0  0  0  0  0  0  0  0
  -20.5199  -34.6811   21.6413 C   0  0  0  0  0  0  0  0  0  0  0  0
  -23.1192  -28.9213   20.0635 C   0  0  0  0  0  0  0  0  0  0  0  0
  -24.2948  -27.4486   22.3424 C   0  0  0  0  0  0  0  0  0  0  0  0
  -20.2322  -33.4148   22.4438 C   0  0  0  0  0  0  0  0  0  0  0  0
  -26.8225  -19.1981   23.9427 C   0  0  0  0  0  0  0  0  0  0  0  0
  -21.4792  -32.9672   23.1998 C   0  0  0  0  0  0  0  0  0  0  0  0
  -26.9428  -17.8094   23.3173 C   0  0  0  0  0  0  0  0  0  0  0  0
  -28.8830  -23.2121   19.0427 C   0  0  0  0  0  0  0  0  0  0  0  0
  -30.5604  -23.3239   20.9224 C   0  0  0  0  0  0  0  0  0  0  0  0
  -26.7154  -20.2901   22.8827 C   0  0  0  0  0  0  0  0  0  0  0  0
  -27.9398  -18.8829   21.2596 C   0  0  0  0  0  0  0  0  0  0  0  0
  -29.4540  -24.5005   18.4650 C   0  0  0  0  0  0  0  0  0  0  0  0
  -31.1220  -24.6125   20.3359 C   0  0  0  0  0  0  0  0  0  0  0  0
  -22.6194  -32.6287   22.2320 C   0  0  1  0  0  0  0  0  0  0  0  0
  -22.4630  -28.9162   21.4407 C   0  0  1  0  0  0  0  0  0  0  0  0
  -28.0964  -17.7639   22.3002 C   0  0  2  0  0  0  0  0  0  0  0  0
  -29.9336  -22.4414   19.8430 C   0  0  0  0  0  0  0  0  0  0  0  0
  -28.4726  -18.7939   16.9084 C   0  0  0  0  0  0  0  0  0  0  0  0
  -23.3076  -21.4383   23.3903 C   0  0  0  0  0  0  0  0  0  0  0  0
  -21.4131  -27.3338   26.0557 C   0  0  0  0  0  0  0  0  0  0  0  0
  -22.1035  -24.9355   26.2554 C   0  0  0  0  0  0  0  0  0  0  0  0
  -20.0963  -25.5455   24.9057 C   0  0  0  0  0  0  0  0  0  0  0  0
  -24.7472  -23.8275   20.8027 C   0  0  0  0  0  0  0  0  0  0  0  0
  -28.5585  -19.2377   18.3604 C   0  0  0  0  0  0  0  0  0  0  0  0
  -30.0051  -19.5156   18.7751 C   0  0  0  0  0  0  0  0  0  0  0  0
  -30.1167  -20.0204   20.2099 C   0  0  0  0  0  0  0  0  0  0  0  0
  -30.5062  -26.6755   19.0790 C   0  0  0  0  0  0  0  0  0  0  0  0
  -29.3127  -27.5946   18.9094 C   0  0  0  0  0  0  0  0  0  1  0  0
  -22.3996  -26.0924   24.0182 C   0  0  1  0  0  0  0  0  0  0  0  0
  -23.3864  -22.7252   22.5837 C   0  0  2  0  0  0  0  0  0  0  0  0
  -21.5206  -25.9960   25.2970 C   0  0  0  0  0  0  0  0  0  0  0  0
  -27.1144  -15.6691   21.4461 N   0  0  0  0  0  0  0  0  0  0  0  0
  -28.2238  -16.4009   21.6455 N   0  0  0  0  0  0  0  0  0  0  0  0
  -22.8594  -27.7629   22.2513 N   0  0  0  0  0  0  0  0  0  0  0  0
  -27.7996  -20.1971   21.9044 N   0  0  0  0  0  0  0  0  0  0  0  0
  -30.5723  -16.3932   21.3375 N   0  0  0  0  0  0  0  0  0  0  0  0
  -29.2858  -12.4111   19.6394 N   0  0  0  0  0  0  0  0  0  0  0  0
  -22.4057  -31.3280   21.6344 N   0  0  0  0  0  0  0  0  0  0  0  0
  -22.4971  -24.8468   23.2648 N   0  0  0  0  0  0  0  0  0  0  0  0
  -29.3624  -21.2529   20.4276 N   0  0  0  0  0  0  0  0  0  0  0  0
  -30.0353  -25.3374   19.5791 N   0  3  0  0  0  0  0  0  0  0  0  0
  -24.5625  -22.6375   21.6726 N   0  3  0  0  0  0  0  0  0  0  0  0
  -31.0917  -13.7614   20.0566 O   0  0  0  0  0  0  0  0  0  0  0  0
  -23.3352  -30.0311   23.3305 O   0  0  0  0  0  0  0  0  0  0  0  0
  -20.6848  -27.3743   22.9970 O   0  0  0  0  0  0  0  0  0  0  0  0
  -24.4109  -24.0640   24.3144 O   0  0  0  0  0  0  0  0  0  0  0  0
  -27.8741  -22.4909   21.6785 O   0  0  0  0  0  0  0  0  0  0  0  0
  -24.0715  -10.4632   19.4001 O   0  0  0  0  0  0  0  0  0  0  0  0
  -28.6659  -27.7748   20.1686 O   0  0  0  0  0  0  0  0  0  1  0  0
  -22.0365   -7.2671   23.4061 F   0  0  0  0  0  0  0  0  0  0  0  0
  -22.5705  -11.5460   21.4537 F   0  0  0  0  0  0  0  0  0  0  0  0
  1  2  1  0  0  0  0
  1  5  2  0  0  0  0
  2  6  2  0  0  0  0
  3  8  2  0  0  0  0
  3 15  1  0  0  0  0
  4  9  1  0  0  0  0
  4 15  2  0  0  0  0
  5 17  1  0  0  0  0
  6 19  1  0  0  0  0
  7 10  2  0  0  0  0
  7 18  1  0  0  0  0
  8 21  1  0  0  0  0
  9 21  2  0  0  0  0
 10 22  1  0  0  0  0
 11 12  2  0  0  0  0
 11 23  1  0  0  0  0
 12 24  1  0  0  0  0
 13 20  1  0  0  0  0
 13 22  2  0  0  0  0
 14 24  2  0  0  0  0
 14 25  1  0  0  0  0
 15 26  1  0  0  0  0
 16 26  1  0  0  0  0
 16 27  2  0  0  0  0
 16 28  1  0  0  0  0
 17 19  2  0  0  0  0
 17 33  1  0  0  0  0
 18 20  2  0  0  0  0
 18 34  1  0  0  0  0
 19 46  1  0  0  0  0
 20 35  1  0  0  0  0
 21 80  1  0  0  0  0
 22 81  1  0  0  0  0
 23 25  2  0  0  0  0
 23 80  1  0  0  0  0
 24 82  1  0  0  0  0
 25 83  1  0  0  0  0
 26 64  2  0  0  0  0
 27 65  1  0  0  0  0
 27 68  1  0  0  0  0
 28 69  1  0  0  0  0
 28 75  2  0  0  0  0
 29 47  1  0  0  0  0
 29 70  1  0  0  0  0
 29 76  2  0  0  0  0
 30 61  1  0  0  0  0
 30 66  1  0  0  0  0
 30 77  2  0  0  0  0
 31 62  1  0  0  0  0
 31 71  1  0  0  0  0
 31 78  2  0  0  0  0
 32 67  1  0  0  0  0
 32 72  1  0  0  0  0
 32 79  2  0  0  0  0
 33 36  1  0  0  0  0
 34 47  1  0  0  0  0
 35 66  1  0  0  0  0
 36 38  1  0  0  0  0
 37 39  1  0  0  0  0
 37 42  1  0  0  0  0
 38 46  1  0  0  0  0
 39 48  1  0  0  0  0
 40 44  1  0  0  0  0
 40 49  1  0  0  0  0
 41 45  1  0  0  0  0
 41 49  1  0  0  0  0
 42 67  1  0  0  0  0
 43 48  1  0  0  0  0
 43 67  1  0  0  0  0
 44 73  1  0  0  0  0
 45 73  1  0  0  0  0
 46 70  1  0  0  0  0
 47 66  1  0  0  0  0
 48 65  1  0  0  0  0
 49 72  1  0  0  0  0
 50 56  1  0  0  0  0
 51 62  1  0  0  0  0
 52 63  1  0  0  0  0
 53 63  1  0  0  0  0
 54 63  1  0  0  0  0
 55 74  1  0  0  0  0
 56 57  1  0  0  0  0
 57 58  1  0  0  0  0
 58 72  1  0  0  0  0
 59 60  1  0  0  0  0
 59 73  1  0  0  0  0
 60 81  1  0  0  0  0
 61 63  1  0  0  0  0
 61 71  1  0  0  0  0
 62 74  1  0  0  0  0
 64 65  1  0  0  0  0
M  CHG  2  73   1  74   1
M  ISO  4  32 100  60 101  72 100  81 101
M  END
> <Batch ID>
0109

> <Smiles>
CCCC[100N:0](C1CCN(C[101CH2:1][101O:1]c2ccc3c(c2)CN(C(=O)C(NC(=O)C(C)NC)C(C)(C)C)C(C(=O)NC2CCCc4ccccc42)C3)CC1)[100C:0](=O)N1CCCC(n2nc(-c3ccc(Oc4ccc(F)cc4F)cc3)c(C(N)=O)c2N)C1

> <Shape>
0.264

> <Color>
0.061

> <Negative vol penalty>
0.000

$$$$

  -OEChem-04052319563D

 83 90  0     1  0  0  0  0  0999 V2000
  -27.9187  -24.5364   16.7751 C   0  0  0  0  0  0  0  0  0  0  0  0
  -26.8116  -25.3098   17.1054 C   0  0  0  0  0  0  0  0  0  0  0  0
  -24.0912  -13.4925   18.2443 C   0  0  0  0  0  0  0  0  0  0  0  0
  -24.0391  -14.5564   20.4128 C   0  0  0  0  0  0  0  0  0  0  0  0
  -29.0224  -24.5073   17.6248 C   0  0  0  0  0  0  0  0  0  0  0  0
  -26.8126  -26.0637   18.2796 C   0  0  0  0  0  0  0  0  0  0  0  0
  -23.0204  -29.1192   18.9771 C   0  0  0  0  0  0  0  0  0  0  0  0
  -24.8733  -12.4632   18.7680 C   0  0  0  0  0  0  0  0  0  0  0  0
  -24.8212  -13.5271   20.9366 C   0  0  0  0  0  0  0  0  0  0  0  0
  -21.7384  -28.6700   19.2908 C   0  0  0  0  0  0  0  0  0  0  0  0
  -28.1152  -11.9682   19.5863 C   0  0  0  0  0  0  0  0  0  0  0  0
  -29.2208  -11.5533   18.8439 C   0  0  0  0  0  0  0  0  0  0  0  0
  -22.0798  -29.3192   21.5889 C   0  0  0  0  0  0  0  0  0  0  0  0
  -28.2931   -9.3267   18.7069 C   0  0  0  0  0  0  0  0  0  0  0  0
  -23.6741  -14.5392   19.0666 C   0  0  0  0  0  0  0  0  0  0  0  0
  -21.4612  -15.6571   18.4660 C   0  0  0  0  0  0  0  0  0  0  0  0
  -29.0312  -25.2517   18.8159 C   0  0  0  0  0  0  0  0  0  0  0  0
  -23.8472  -29.6626   19.9709 C   0  0  0  0  0  0  0  0  0  0  0  0
  -27.9267  -26.0663   19.1383 C   0  0  0  0  0  0  0  0  0  0  0  0
  -23.3710  -29.7769   21.2847 C   0  0  0  0  0  0  0  0  0  0  0  0
  -25.2383  -12.4804   20.1142 C   0  0  0  0  0  0  0  0  0  0  0  0
  -21.2690  -28.7673   20.5975 C   0  0  0  0  0  0  0  0  0  0  0  0
  -27.0986  -11.0624   19.8891 C   0  0  0  0  0  0  0  0  0  0  0  0
  -29.3097  -10.2326   18.4042 C   0  0  0  0  0  0  0  0  0  0  0  0
  -27.1876   -9.7416   19.4494 C   0  0  0  0  0  0  0  0  0  0  0  0
  -22.8666  -15.6031   18.5261 C   0  0  0  0  0  0  0  0  0  0  0  0
  -21.1892  -16.8636   17.8685 C   0  0  0  0  0  0  0  0  0  0  0  0
  -20.4885  -14.7022   18.9106 C   0  0  0  0  0  0  0  0  0  0  0  0
  -26.6594  -28.8762   21.2266 C   0  0  0  0  0  0  0  0  0  0  0  0
  -26.3174  -31.7032   22.7801 C   0  0  0  0  0  0  0  0  0  0  0  0
  -24.2231  -34.1249   23.9618 C   0  0  0  0  0  0  0  0  0  0  0  0
  -24.2390  -22.0018   17.4823 C   0  0  0  0  0  0  0  0  0  0  0  0
  -30.2553  -25.1897   19.6951 C   0  0  0  0  0  0  0  0  0  0  0  0
  -25.2177  -30.1672   19.6108 C   0  0  0  0  0  0  0  0  0  0  0  0
  -24.2116  -30.3712   22.3841 C   0  0  0  0  0  0  0  0  0  0  0  0
  -29.9885  -25.6640   21.1199 C   0  0  0  0  0  0  0  0  0  0  0  0
  -23.0410  -20.0151   14.7814 C   0  0  0  0  0  0  0  0  0  0  0  0
  -29.2665  -27.0029   21.0955 C   0  0  0  0  0  0  0  0  0  0  0  0
  -22.7337  -18.6639   15.4295 C   0  0  0  0  0  0  0  0  0  0  0  0
  -24.2777  -20.6672   15.3956 C   0  0  0  0  0  0  0  0  0  0  0  0
  -23.9344  -19.4517   17.5119 C   0  0  0  0  0  0  0  0  0  0  0  0
  -27.8930  -26.8705   20.4254 C   0  0  1  0  0  0  0  0  0  0  0  0
  -26.1639  -30.2309   20.8058 C   0  0  1  0  0  0  0  0  0  0  0  0
  -22.6630  -18.7811   16.9639 C   0  0  2  0  0  0  0  0  0  0  0  0
  -24.2333  -36.2950   25.2220 C   0  0  0  0  0  0  0  0  0  0  0  0
  -22.1924  -22.6506   21.9935 C   0  0  0  0  0  0  0  0  0  0  0  0
  -18.4264  -25.9646   19.8579 C   0  0  0  0  0  0  0  0  0  0  0  0
  -18.4493  -26.3513   23.7115 C   0  0  0  0  0  0  0  0  0  0  0  0
  -26.7863  -30.1854   25.3852 C   0  0  0  0  0  0  0  0  0  0  0  0
  -25.8593  -32.1567   26.6193 C   0  0  0  0  0  0  0  0  0  0  0  0
  -27.9301  -32.4054   25.2508 C   0  0  0  0  0  0  0  0  0  0  0  0
  -23.0302  -35.5879   21.6824 C   0  0  0  0  0  0  0  0  0  0  0  0
  -22.7952  -23.8620   19.8329 C   0  0  0  0  0  0  0  0  0  0  0  0
  -20.2112  -24.9398   21.3563 C   0  0  0  0  0  0  0  0  0  0  0  0
  -24.1618  -23.2018   19.6533 C   0  0  0  0  0  0  0  0  0  0  0  0
  -19.8060  -27.8367   22.2253 C   0  0  0  0  0  0  0  0  0  1  0  0
  -25.7011  -32.1365   24.0884 C   0  0  1  0  0  0  0  0  0  0  0  0
  -24.2689  -35.6382   23.8508 C   0  0  2  0  0  0  0  0  0  0  0  0
  -21.7490  -22.9930   20.5653 C   0  0  2  0  0  0  0  0  0  0  0  0
  -18.8078  -25.5964   21.2986 C   0  0  1  0  0  0  0  0  0  0  0  0
  -18.6578  -26.8167   22.2639 C   0  0  1  0  0  0  0  0  0  0  0  0
  -20.3431  -23.6507   20.5238 C   0  0  1  0  0  0  0  0  0  0  0  0
  -26.5539  -31.7080   25.3158 C   0  0  0  0  0  0  0  0  0  0  0  0
  -23.4470  -16.6887   18.0079 N   0  0  0  0  0  0  0  0  0  0  0  0
  -22.4011  -17.4363   17.6165 N   0  0  0  0  0  0  0  0  0  0  0  0
  -25.5468  -30.8446   21.9833 N   0  0  0  0  0  0  0  0  0  0  0  0
  -24.1464  -20.7497   16.8523 N   0  0  0  0  0  0  0  0  0  0  0  0
  -20.0341  -17.4797   17.5393 N   0  0  0  0  0  0  0  0  0  0  0  0
  -20.9399  -13.5150   19.5031 N   0  0  0  0  0  0  0  0  0  0  0  0
  -27.3321  -28.1898   20.2338 N   0  0  0  0  0  0  0  0  0  0  0  0
  -25.4877  -33.5758   23.9822 N   0  0  0  0  0  0  0  0  0  0  0  0
  -24.0970  -21.9916   18.8645 N   0  0  0  0  0  0  0  0  0  0  0  0
  -23.1065  -36.1351   23.0614 N   0  3  0  0  0  0  0  0  0  0  0  0
  -19.2559  -14.8887   18.7713 O   0  0  0  0  0  0  0  0  0  0  0  0
  -26.4483  -28.4835   22.3681 O   0  0  0  0  0  0  0  0  0  0  0  0
  -27.4381  -32.1173   22.4731 O   0  0  0  0  0  0  0  0  0  0  0  0
  -23.1708  -33.4934   24.0278 O   0  0  0  0  0  0  0  0  0  0  0  0
  -24.4284  -23.0515   16.8586 O   0  0  0  0  0  0  0  0  0  0  0  0
  -19.3733  -22.7114   20.9926 O   0  0  0  0  0  0  0  0  0  0  0  0
  -26.0013  -11.4761   20.6256 O   0  0  0  0  0  0  0  0  0  0  0  0
  -20.0081  -28.3254   20.9090 O   0  0  0  0  0  0  0  0  0  1  0  0
  -30.3707   -9.8346   17.6899 F   0  0  0  0  0  0  0  0  0  0  0  0
  -26.2135   -8.8671   19.7363 F   0  0  0  0  0  0  0  0  0  0  0  0
  1  2  1  0  0  0  0
  1  5  2  0  0  0  0
  2  6  2  0  0  0  0
  3  8  2  0  0  0  0
  3 15  1  0  0  0  0
  4  9  1  0  0  0  0
  4 15  2  0  0  0  0
  5 17  1  0  0  0  0
  6 19  1  0  0  0  0
  7 10  2  0  0  0  0
  7 18  1  0  0  0  0
  8 21  1  0  0  0  0
  9 21  2  0  0  0  0
 10 22  1  0  0  0  0
 11 12  2  0  0  0  0
 11 23  1  0  0  0  0
 12 24  1  0  0  0  0
 13 20  1  0  0  0  0
 13 22  2  0  0  0  0
 14 24  2  0  0  0  0
 14 25  1  0  0  0  0
 15 26  1  0  0  0  0
 16 26  1  0  0  0  0
 16 27  2  0  0  0  0
 16 28  1  0  0  0  0
 17 19  2  0  0  0  0
 17 33  1  0  0  0  0
 18 20  2  0  0  0  0
 18 34  1  0  0  0  0
 19 42  1  0  0  0  0
 20 35  1  0  0  0  0
 21 80  1  0  0  0  0
 22 81  1  0  0  0  0
 23 25  2  0  0  0  0
 23 80  1  0  0  0  0
 24 82  1  0  0  0  0
 25 83  1  0  0  0  0
 26 64  2  0  0  0  0
 27 65  1  0  0  0  0
 27 68  1  0  0  0  0
 28 69  1  0  0  0  0
 28 74  2  0  0  0  0
 29 43  1  0  0  0  0
 29 70  1  0  0  0  0
 29 75  2  0  0  0  0
 30 57  1  0  0  0  0
 30 66  1  0  0  0  0
 30 76  2  0  0  0  0
 31 58  1  0  0  0  0
 31 71  1  0  0  0  0
 31 77  2  0  0  0  0
 32 67  1  0  0  0  0
 32 72  1  0  0  0  0
 32 78  2  0  0  0  0
 33 36  1  0  0  0  0
 34 43  1  0  0  0  0
 35 66  1  0  0  0  0
 36 38  1  0  0  0  0
 37 39  1  0  0  0  0
 37 40  1  0  0  0  0
 38 42  1  0  0  0  0
 39 44  1  0  0  0  0
 40 67  1  0  0  0  0
 41 44  1  0  0  0  0
 41 67  1  0  0  0  0
 42 70  1  0  0  0  0
 43 66  1  0  0  0  0
 44 65  1  0  0  0  0
 45 58  1  0  0  0  0
 46 59  1  0  0  0  0
 47 60  1  0  0  0  0
 48 61  1  0  0  0  0
 49 63  1  0  0  0  0
 50 63  1  0  0  0  0
 51 63  1  0  0  0  0
 52 73  1  0  0  0  0
 53 55  1  0  0  0  0
 53 59  1  0  0  0  0
 54 60  1  0  0  0  0
 54 62  1  0  0  0  0
 55 72  1  0  0  0  0
 56 61  1  0  0  0  0
 56 81  1  0  0  0  0
 57 63  1  0  0  0  0
 57 71  1  0  0  0  0
 58 73  1  0  0  0  0
 59 62  1  0  0  0  0
 60 61  1  0  0  0  0
 62 79  1  0  0  0  0
 64 65  1  0  0  0  0
M  CHG  1  73   1
M  ISO  4  32 100  56 101  72 100  81 101
M  END
> <Batch ID>
0109

> <Smiles>
CNC(C)C(=O)NC(C(=O)N1Cc2cc([101O:1][101CH2:1]C(C)C(C)CC(O)C(C)CC[100NH:0][100C:0](=O)N3CCCC(n4nc(-c5ccc(Oc6ccc(F)cc6F)cc5)c(C(N)=O)c4N)C3)ccc2CC1C(=O)NC1CCCc2ccccc21)C(C)(C)C

> <Shape>
0.246

> <Color>
0.072

> <Negative vol penalty>
0.000

$$$$

  -OEChem-04052319563D

 84 91  0     1  0  0  0  0  0999 V2000
  -29.3881  -25.0459   17.2354 C   0  0  0  0  0  0  0  0  0  0  0  0
  -28.0184  -25.2816   17.2955 C   0  0  0  0  0  0  0  0  0  0  0  0
  -27.5998  -14.3298   21.3402 C   0  0  0  0  0  0  0  0  0  0  0  0
  -25.3103  -14.8781   20.7974 C   0  0  0  0  0  0  0  0  0  0  0  0
  -30.1955  -25.3512   18.3303 C   0  0  0  0  0  0  0  0  0  0  0  0
  -27.4550  -25.8217   18.4510 C   0  0  0  0  0  0  0  0  0  0  0  0
  -22.7191  -29.6909   18.7762 C   0  0  0  0  0  0  0  0  0  0  0  0
  -27.2163  -13.0220   21.6370 C   0  0  0  0  0  0  0  0  0  0  0  0
  -24.9267  -13.5702   21.0942 C   0  0  0  0  0  0  0  0  0  0  0  0
  -21.3635  -29.4944   19.0361 C   0  0  0  0  0  0  0  0  0  0  0  0
  -25.0286  -10.5447   19.5922 C   0  0  0  0  0  0  0  0  0  0  0  0
  -24.1652   -9.9062   18.7019 C   0  0  0  0  0  0  0  0  0  0  0  0
  -21.7353  -30.0413   21.3560 C   0  0  0  0  0  0  0  0  0  0  0  0
  -22.5391   -9.6412   20.4690 C   0  0  0  0  0  0  0  0  0  0  0  0
  -26.6468  -15.2579   20.9204 C   0  0  0  0  0  0  0  0  0  0  0  0
  -27.4581  -17.1111   19.3664 C   0  0  0  0  0  0  0  0  0  0  0  0
  -29.6432  -25.9043   19.4963 C   0  0  0  0  0  0  0  0  0  0  0  0
  -23.5964  -30.0540   19.8081 C   0  0  0  0  0  0  0  0  0  0  0  0
  -28.2556  -26.1334   19.5631 C   0  0  0  0  0  0  0  0  0  0  0  0
  -23.1011  -30.2442   21.1061 C   0  0  0  0  0  0  0  0  0  0  0  0
  -25.8798  -12.6422   21.5140 C   0  0  0  0  0  0  0  0  0  0  0  0
  -20.8719  -29.6668   20.3268 C   0  0  0  0  0  0  0  0  0  0  0  0
  -24.6473  -10.7313   20.9209 C   0  0  0  0  0  0  0  0  0  0  0  0
  -22.9205   -9.4545   19.1403 C   0  0  0  0  0  0  0  0  0  0  0  0
  -23.4025  -10.2797   21.3593 C   0  0  0  0  0  0  0  0  0  0  0  0
  -27.0423  -16.6092   20.6142 C   0  0  0  0  0  0  0  0  0  0  0  0
  -27.7197  -18.4390   19.6004 C   0  0  0  0  0  0  0  0  0  0  0  0
  -27.5955  -16.4374   18.1083 C   0  0  0  0  0  0  0  0  0  0  0  0
  -26.1542  -28.7262   21.1489 C   0  0  0  0  0  0  0  0  0  0  0  0
  -26.3039  -31.5495   22.7391 C   0  0  0  0  0  0  0  0  0  0  0  0
  -22.1330  -22.4323   23.4696 C   0  0  0  0  0  0  0  0  0  0  0  0
  -24.6714  -34.3174   23.8884 C   0  0  0  0  0  0  0  0  0  0  0  0
  -25.6957  -22.2696   23.8051 C   0  0  0  0  0  0  0  0  0  0  0  0
  -30.5492  -26.1738   20.6716 C   0  0  0  0  0  0  0  0  0  0  0  0
  -25.0511  -30.2882   19.5060 C   0  0  0  0  0  0  0  0  0  0  0  0
  -23.9977  -30.6535   22.2450 C   0  0  0  0  0  0  0  0  0  0  0  0
  -29.9284  -27.0921   21.7212 C   0  0  0  0  0  0  0  0  0  0  0  0
  -29.1041  -21.4420   23.0405 C   0  0  0  0  0  0  0  0  0  0  0  0
  -28.5011  -26.6553   22.0356 C   0  0  0  0  0  0  0  0  0  0  0  0
  -29.0034  -20.1394   22.2503 C   0  0  0  0  0  0  0  0  0  0  0  0
  -28.0334  -21.5171   24.1235 C   0  0  0  0  0  0  0  0  0  0  0  0
  -26.5291  -20.0544   22.8121 C   0  0  0  0  0  0  0  0  0  0  0  0
  -27.6109  -26.7412   20.7899 C   0  0  1  0  0  0  0  0  0  0  0  0
  -25.9455  -30.1553   20.7348 C   0  0  1  0  0  0  0  0  0  0  0  0
  -27.5832  -19.9446   21.6941 C   0  0  2  0  0  0  0  0  0  0  0  0
  -19.9807  -22.9863   24.5670 C   0  0  0  0  0  0  0  0  0  0  0  0
  -25.0512  -36.4312   25.1864 C   0  0  0  0  0  0  0  0  0  0  0  0
  -26.3716  -29.9423   25.3319 C   0  0  0  0  0  0  0  0  0  0  0  0
  -25.7951  -32.0424   26.5670 C   0  0  0  0  0  0  0  0  0  0  0  0
  -27.9258  -31.9009   25.2777 C   0  0  0  0  0  0  0  0  0  0  0  0
  -21.8342  -24.8045   21.5863 C   0  0  0  0  0  0  0  0  0  0  0  0
  -19.9185  -23.2071   21.4227 C   0  0  0  0  0  0  0  0  0  0  0  0
  -23.8708  -36.0072   21.5943 C   0  0  0  0  0  0  0  0  0  0  0  0
  -17.7248  -27.9120   20.5829 C   0  0  0  0  0  0  0  0  0  0  0  0
  -18.1860  -27.2142   21.8536 C   0  0  0  0  0  0  0  0  0  0  0  0
  -19.6352  -25.3714   22.7151 C   0  0  0  0  0  0  0  0  0  0  0  0
  -18.8608  -28.5245   19.7729 C   0  0  0  0  0  0  0  0  0  1  0  0
  -25.7329  -32.0798   24.0321 C   0  0  1  0  0  0  0  0  0  0  0  0
  -21.1061  -23.5515   23.6887 C   0  0  2  0  0  0  0  0  0  0  0  0
  -25.0120  -35.7944   23.8059 C   0  0  2  0  0  0  0  0  0  0  0  0
  -26.4396  -31.4817   25.2813 C   0  0  0  0  0  0  0  0  0  0  0  0
  -20.6196  -24.2243   22.3481 C   0  0  0  0  0  0  0  0  0  0  0  0
  -27.0386  -17.5421   21.5700 N   0  0  0  0  0  0  0  0  0  0  0  0
  -27.4553  -18.6436   20.9227 N   0  0  0  0  0  0  0  0  0  0  0  0
  -25.4135  -30.8643   21.9004 N   0  0  0  0  0  0  0  0  0  0  0  0
  -26.6938  -21.3081   23.5664 N   0  0  0  0  0  0  0  0  0  0  0  0
  -28.1479  -19.4399   18.8021 N   0  0  0  0  0  0  0  0  0  0  0  0
  -27.2846  -15.0723   18.0440 N   0  0  0  0  0  0  0  0  0  0  0  0
  -27.2299  -28.1138   20.5346 N   0  0  0  0  0  0  0  0  0  0  0  0
  -25.8049  -33.5342   23.9440 N   0  0  0  0  0  0  0  0  0  0  0  0
  -23.4344  -22.8992   23.4373 N   0  0  0  0  0  0  0  0  0  0  0  0
  -24.4573  -21.9999   23.2442 N   0  0  0  0  0  0  0  0  0  0  0  0
  -23.9983  -36.5147   22.9847 N   0  3  0  0  0  0  0  0  0  0  0  0
  -19.0874  -26.0759   21.5286 N   0  3  0  0  0  0  0  0  0  0  0  0
  -27.9981  -17.0246   17.0756 O   0  0  0  0  0  0  0  0  0  0  0  0
  -25.3965  -28.2172   21.9665 O   0  0  0  0  0  0  0  0  0  0  0  0
  -27.4942  -31.7425   22.4795 O   0  0  0  0  0  0  0  0  0  0  0  0
  -21.8076  -21.2536   23.3369 O   0  0  0  0  0  0  0  0  0  0  0  0
  -23.5155  -33.9003   23.9057 O   0  0  0  0  0  0  0  0  0  0  0  0
  -25.8997  -23.2918   24.4695 O   0  0  0  0  0  0  0  0  0  0  0  0
  -25.5052  -11.3661   21.8034 O   0  0  0  0  0  0  0  0  0  0  0  0
  -19.5400  -29.4737   20.5852 O   0  0  0  0  0  0  0  0  0  1  0  0
  -22.0909   -8.8429   18.2849 F   0  0  0  0  0  0  0  0  0  0  0  0
  -23.0301  -10.4572   22.6343 F   0  0  0  0  0  0  0  0  0  0  0  0
  1  2  1  0  0  0  0
  1  5  2  0  0  0  0
  2  6  2  0  0  0  0
  3  8  2  0  0  0  0
  3 15  1  0  0  0  0
  4  9  1  0  0  0  0
  4 15  2  0  0  0  0
  5 17  1  0  0  0  0
  6 19  1  0  0  0  0
  7 10  2  0  0  0  0
  7 18  1  0  0  0  0
  8 21  1  0  0  0  0
  9 21  2  0  0  0  0
 10 22  1  0  0  0  0
 11 12  2  0  0  0  0
 11 23  1  0  0  0  0
 12 24  1  0  0  0  0
 13 20  1  0  0  0  0
 13 22  2  0  0  0  0
 14 24  2  0  0  0  0
 14 25  1  0  0  0  0
 15 26  1  0  0  0  0
 16 26  1  0  0  0  0
 16 27  2  0  0  0  0
 16 28  1  0  0  0  0
 17 19  2  0  0  0  0
 17 34  1  0  0  0  0
 18 20  2  0  0  0  0
 18 35  1  0  0  0  0
 19 43  1  0  0  0  0
 20 36  1  0  0  0  0
 21 81  1  0  0  0  0
 22 82  1  0  0  0  0
 23 25  2  0  0  0  0
 23 81  1  0  0  0  0
 24 83  1  0  0  0  0
 25 84  1  0  0  0  0
 26 63  2  0  0  0  0
 27 64  1  0  0  0  0
 27 67  1  0  0  0  0
 28 68  1  0  0  0  0
 28 75  2  0  0  0  0
 29 44  1  0  0  0  0
 29 69  1  0  0  0  0
 29 76  2  0  0  0  0
 30 58  1  0  0  0  0
 30 65  1  0  0  0  0
 30 77  2  0  0  0  0
 31 59  1  0  0  0  0
 31 71  1  0  0  0  0
 31 78  2  0  0  0  0
 32 60  1  0  0  0  0
 32 70  1  0  0  0  0
 32 79  2  0  0  0  0
 33 66  1  0  0  0  0
 33 72  1  0  0  0  0
 33 80  2  0  0  0  0
 34 37  1  0  0  0  0
 35 44  1  0  0  0  0
 36 65  1  0  0  0  0
 37 39  1  0  0  0  0
 38 40  1  0  0  0  0
 38 41  1  0  0  0  0
 39 43  1  0  0  0  0
 40 45  1  0  0  0  0
 41 66  1  0  0  0  0
 42 45  1  0  0  0  0
 42 66  1  0  0  0  0
 43 69  1  0  0  0  0
 44 65  1  0  0  0  0
 45 64  1  0  0  0  0
 46 59  1  0  0  0  0
 47 60  1  0  0  0  0
 48 61  1  0  0  0  0
 49 61  1  0  0  0  0
 50 61  1  0  0  0  0
 51 62  1  0  0  0  0
 52 62  1  0  0  0  0
 53 73  1  0  0  0  0
 54 55  1  0  0  0  0
 54 57  1  0  0  0  0
 55 74  1  0  0  0  0
 56 62  1  0  0  0  0
 56 74  1  0  0  0  0
 57 82  1  0  0  0  0
 58 61  1  0  0  0  0
 58 70  1  0  0  0  0
 59 62  1  0  0  0  0
 60 73  1  0  0  0  0
 63 64  1  0  0  0  0
 71 72  1  0  0  0  0
M  CHG  2  73   1  74   1
M  ISO  4  33 100  57 101  72 100  82 101
M  END
> <Batch ID>
0109

> <Smiles>
CNC(C)C(=O)NC(C(=O)N1Cc2cc([101O:1][101CH2:1]CCNCC(C)(C)C(C)C(=O)N[100NH:0][100C:0](=O)N3CCCC(n4nc(-c5ccc(Oc6ccc(F)cc6F)cc5)c(C(N)=O)c4N)C3)ccc2CC1C(=O)NC1CCCc2ccccc21)C(C)(C)C

> <Shape>
0.300

> <Color>
0.053

> <Negative vol penalty>
0.000

$$$$

  -OEChem-04052319563D

 88 96  0     1  0  0  0  0  0999 V2000
  -26.4612  -38.9252   24.0520 C   0  0  0  0  0  0  0  0  0  0  0  0
  -27.4445  -37.9461   23.9527 C   0  0  0  0  0  0  0  0  0  0  0  0
  -24.5100   -9.6486   21.7670 C   0  0  0  0  0  0  0  0  0  0  0  0
  -24.6553  -10.9706   23.7839 C   0  0  0  0  0  0  0  0  0  0  0  0
  -25.2348  -38.6225   24.6419 C   0  0  0  0  0  0  0  0  0  0  0  0
  -27.2023  -36.6639   24.4444 C   0  0  0  0  0  0  0  0  0  0  0  0
  -28.7964  -29.7990   23.1606 C   0  0  0  0  0  0  0  0  0  0  0  0
  -24.1628   -8.5303   22.5249 C   0  0  0  0  0  0  0  0  0  0  0  0
  -24.3080   -9.8523   24.5419 C   0  0  0  0  0  0  0  0  0  0  0  0
  -29.2973  -28.6704   23.8079 C   0  0  0  0  0  0  0  0  0  0  0  0
  -21.4022   -7.3177   24.0552 C   0  0  0  0  0  0  0  0  0  0  0  0
  -20.3428   -6.5314   23.6026 C   0  0  0  0  0  0  0  0  0  0  0  0
  -27.1125  -28.2402   24.7356 C   0  0  0  0  0  0  0  0  0  0  0  0
  -21.8230   -4.6284   23.4440 C   0  0  0  0  0  0  0  0  0  0  0  0
  -24.7563  -10.8687   22.3965 C   0  0  0  0  0  0  0  0  0  0  0  0
  -24.2430  -12.9759   21.0533 C   0  0  0  0  0  0  0  0  0  0  0  0
  -24.9738  -37.3333   25.1324 C   0  0  0  0  0  0  0  0  0  0  0  0
  -27.4500  -30.1635   23.3049 C   0  0  0  0  0  0  0  0  0  0  0  0
  -25.9717  -36.3441   25.0426 C   0  0  0  0  0  0  0  0  0  0  0  0
  -26.5964  -29.3725   24.0870 C   0  0  0  0  0  0  0  0  0  0  0  0
  -24.0618   -8.6322   23.9124 C   0  0  0  0  0  0  0  0  0  0  0  0
  -28.4560  -27.8924   24.5979 C   0  0  0  0  0  0  0  0  0  0  0  0
  -22.6721   -6.7594   24.2021 C   0  0  0  0  0  0  0  0  0  0  0  0
  -20.5531   -5.1867   23.2970 C   0  0  0  0  0  0  0  0  0  0  0  0
  -22.8824   -5.4148   23.8965 C   0  0  0  0  0  0  0  0  0  0  0  0
  -25.1156  -12.0241   21.6141 C   0  0  0  0  0  0  0  0  0  0  0  0
  -25.0707  -13.8648   20.4121 C   0  0  0  0  0  0  0  0  0  0  0  0
  -22.8122  -13.0499   21.1073 C   0  0  0  0  0  0  0  0  0  0  0  0
  -25.9244  -32.6925   24.4798 C   0  0  0  0  0  0  0  0  0  0  0  0
  -27.0159  -22.1414   22.0137 C   0  0  0  0  0  0  0  0  0  0  0  0
  -23.3090  -31.1682   23.3142 C   0  0  0  0  0  0  0  0  0  0  0  0
  -21.8490  -28.2329   22.3660 C   0  0  0  0  0  0  0  0  0  0  0  0
  -29.6761  -17.0149   20.2994 C   0  0  0  0  0  0  0  0  0  0  0  0
  -23.6503  -37.0664   25.8045 C   0  0  0  0  0  0  0  0  0  0  0  0
  -26.9190  -31.3688   22.5785 C   0  0  0  0  0  0  0  0  0  0  0  0
  -25.1383  -29.7093   24.2579 C   0  0  0  0  0  0  0  0  0  0  0  0
  -23.3362  -35.5810   25.9629 C   0  0  0  0  0  0  0  0  0  0  0  0
  -30.0123  -13.5956   19.3657 C   0  0  0  0  0  0  0  0  0  0  0  0
  -24.5498  -34.8337   26.5065 C   0  0  0  0  0  0  0  0  0  0  0  0
  -28.6996  -12.9598   19.8267 C   0  0  0  0  0  0  0  0  0  0  0  0
  -27.3601  -19.8745   19.8852 C   0  0  0  0  0  0  0  0  0  0  0  0
  -29.2642  -20.0158   21.5452 C   0  0  0  0  0  0  0  0  0  0  0  0
  -27.4338  -21.3881   19.6622 C   0  0  0  0  0  0  0  0  0  0  0  0
  -29.3465  -21.5301   21.3310 C   0  0  0  0  0  0  0  0  0  0  0  0
  -30.4879  -14.6748   20.3358 C   0  0  0  0  0  0  0  0  0  0  0  0
  -28.1796  -15.0854   21.0956 C   0  0  0  0  0  0  0  0  0  0  0  0
  -25.7376  -34.9348   25.5419 C   0  0  1  0  0  0  0  0  0  0  0  0
  -25.6517  -31.9367   23.2101 C   0  0  1  0  0  0  0  0  0  0  0  0
  -27.6310  -14.0299   20.1203 C   0  0  2  0  0  0  0  0  0  0  0  0
  -28.7158  -19.3034   20.3072 C   0  0  0  0  0  0  0  0  0  0  0  0
  -28.0081  -22.1229   20.8779 C   0  0  0  0  0  0  0  0  0  0  0  0
  -19.6900  -27.2987   21.4922 C   0  0  0  0  0  0  0  0  0  0  0  0
  -22.0774  -31.4207   26.0944 C   0  0  0  0  0  0  0  0  0  0  0  0
  -20.3991  -29.6848   25.4325 C   0  0  0  0  0  0  0  0  0  0  0  0
  -20.4938  -31.8563   24.2085 C   0  0  0  0  0  0  0  0  0  0  0  0
  -31.2189  -23.9237   24.2929 C   0  0  0  0  0  0  0  0  0  0  0  0
  -30.2109  -24.4760   26.5110 C   0  0  0  0  0  0  0  0  0  0  0  0
  -25.9071  -23.7709   23.5738 C   0  0  0  0  0  0  0  0  0  0  0  0
  -23.1416  -27.2486   19.8922 C   0  0  0  0  0  0  0  0  0  0  0  0
  -28.6927  -23.9056   24.6078 C   0  0  0  0  0  0  0  0  0  0  0  0
  -28.3253  -23.9436   23.1252 C   0  0  0  0  0  0  0  0  0  0  0  0
  -30.0243  -26.1046   24.6025 C   0  0  0  0  0  0  0  0  0  1  0  0
  -22.3310  -30.1551   23.8584 C   0  0  1  0  0  0  0  0  0  0  0  0
  -21.0570  -27.8559   21.1269 C   0  0  2  0  0  0  0  0  0  0  0  0
  -21.3532  -30.7737   24.8970 C   0  0  0  0  0  0  0  0  0  0  0  0
  -30.0263  -24.6085   24.9840 C   0  0  0  0  0  0  0  0  0  0  0  0
  -26.3993  -12.2839   21.3520 N   0  0  0  0  0  0  0  0  0  0  0  0
  -26.3394  -13.4090   20.6194 N   0  0  0  0  0  0  0  0  0  0  0  0
  -24.6679  -30.9011   23.5326 N   0  0  0  0  0  0  0  0  0  0  0  0
  -29.4286  -15.6591   20.5705 N   0  0  0  0  0  0  0  0  0  0  0  0
  -24.8298  -14.9840   19.6967 N   0  0  0  0  0  0  0  0  0  0  0  0
  -22.1177  -12.0549   21.8086 N   0  0  0  0  0  0  0  0  0  0  0  0
  -25.5639  -34.0256   24.4294 N   0  0  0  0  0  0  0  0  0  0  0  0
  -21.6739  -29.5591   22.7002 N   0  0  0  0  0  0  0  0  0  0  0  0
  -28.6167  -17.8803   20.5434 N   0  0  0  0  0  0  0  0  0  0  0  0
  -27.0881  -23.2517   22.8763 N   0  0  0  0  0  0  0  0  0  0  0  0
  -28.2442  -23.5479   20.4860 N   0  3  0  0  0  0  0  0  0  0  0  0
  -21.7892  -26.8252   20.3379 N   0  3  0  0  0  0  0  0  0  0  0  0
  -22.1676  -13.9621   20.5363 O   0  0  0  0  0  0  0  0  0  0  0  0
  -26.4235  -32.1091   25.4349 O   0  0  0  0  0  0  0  0  0  0  0  0
  -26.2139  -21.2106   22.1275 O   0  0  0  0  0  0  0  0  0  0  0  0
  -22.8832  -32.1564   22.7112 O   0  0  0  0  0  0  0  0  0  0  0  0
  -22.5498  -27.4301   22.9784 O   0  0  0  0  0  0  0  0  0  0  0  0
  -30.7591  -17.4233   19.8665 O   0  0  0  0  0  0  0  0  0  0  0  0
  -23.7227   -7.5412   24.6523 O   0  0  0  0  0  0  0  0  0  0  0  0
  -28.9425  -26.7906   25.2313 O   0  0  0  0  0  0  0  0  0  1  0  0
  -19.5353   -4.4313   22.8639 F   0  0  0  0  0  0  0  0  0  0  0  0
  -24.0999   -4.8726   24.0368 F   0  0  0  0  0  0  0  0  0  0  0  0
  1  2  1  0  0  0  0
  1  5  2  0  0  0  0
  2  6  2  0  0  0  0
  3  8  2  0  0  0  0
  3 15  1  0  0  0  0
  4  9  1  0  0  0  0
  4 15  2  0  0  0  0
  5 17  1  0  0  0  0
  6 19  1  0  0  0  0
  7 10  2  0  0  0  0
  7 18  1  0  0  0  0
  8 21  1  0  0  0  0
  9 21  2  0  0  0  0
 10 22  1  0  0  0  0
 11 12  2  0  0  0  0
 11 23  1  0  0  0  0
 12 24  1  0  0  0  0
 13 20  1  0  0  0  0
 13 22  2  0  0  0  0
 14 24  2  0  0  0  0
 14 25  1  0  0  0  0
 15 26  1  0  0  0  0
 16 26  1  0  0  0  0
 16 27  2  0  0  0  0
 16 28  1  0  0  0  0
 17 19  2  0  0  0  0
 17 34  1  0  0  0  0
 18 20  2  0  0  0  0
 18 35  1  0  0  0  0
 19 47  1  0  0  0  0
 20 36  1  0  0  0  0
 21 85  1  0  0  0  0
 22 86  1  0  0  0  0
 23 25  2  0  0  0  0
 23 85  1  0  0  0  0
 24 87  1  0  0  0  0
 25 88  1  0  0  0  0
 26 67  2  0  0  0  0
 27 68  1  0  0  0  0
 27 71  1  0  0  0  0
 28 72  1  0  0  0  0
 28 79  2  0  0  0  0
 29 48  1  0  0  0  0
 29 73  1  0  0  0  0
 29 80  2  0  0  0  0
 30 51  1  0  0  0  0
 30 76  1  0  0  0  0
 30 81  2  0  0  0  0
 31 63  1  0  0  0  0
 31 69  1  0  0  0  0
 31 82  2  0  0  0  0
 32 64  1  0  0  0  0
 32 74  1  0  0  0  0
 32 83  2  0  0  0  0
 33 70  1  0  0  0  0
 33 75  1  0  0  0  0
 33 84  2  0  0  0  0
 34 37  1  0  0  0  0
 35 48  1  0  0  0  0
 36 69  1  0  0  0  0
 37 39  1  0  0  0  0
 38 40  1  0  0  0  0
 38 45  1  0  0  0  0
 39 47  1  0  0  0  0
 40 49  1  0  0  0  0
 41 43  1  0  0  0  0
 41 50  1  0  0  0  0
 42 44  1  0  0  0  0
 42 50  1  0  0  0  0
 43 51  1  0  0  0  0
 44 51  1  0  0  0  0
 45 70  1  0  0  0  0
 46 49  1  0  0  0  0
 46 70  1  0  0  0  0
 47 73  1  0  0  0  0
 48 69  1  0  0  0  0
 49 68  1  0  0  0  0
 50 75  1  0  0  0  0
 51 77  1  0  0  0  0
 52 64  1  0  0  0  0
 53 65  1  0  0  0  0
 54 65  1  0  0  0  0
 55 65  1  0  0  0  0
 56 66  1  0  0  0  0
 57 66  1  0  0  0  0
 58 76  1  0  0  0  0
 59 78  1  0  0  0  0
 60 61  1  0  0  0  0
 60 66  1  0  0  0  0
 61 76  1  0  0  0  0
 62 66  1  0  0  0  0
 62 86  1  0  0  0  0
 63 65  1  0  0  0  0
 63 74  1  0  0  0  0
 64 78  1  0  0  0  0
 67 68  1  0  0  0  0
M  CHG  2  77   1  78   1
M  ISO  4  33 100  62 101  75 100  86 101
M  END
> <Batch ID>
0109

> <Smiles>
CNC(C)C(=O)NC(C(=O)N1Cc2cc([101O:1][101CH2:1]C(C)(C)CCN(C)C(=O)C3(N)CCC([100NH:0][100C:0](=O)N4CCCC(n5nc(-c6ccc(Oc7ccc(F)cc7F)cc6)c(C(N)=O)c5N)C4)CC3)ccc2CC1C(=O)NC1CCCc2ccccc21)C(C)(C)C

> <Shape>
0.311

> <Color>
0.127

> <Negative vol penalty>
0.000

$$$$

  -OEChem-04052319563D

 74 81  0     1  0  0  0  0  0999 V2000
  -28.2308  -25.2084   16.1993 C   0  0  0  0  0  0  0  0  0  0  0  0
  -27.0595  -25.3005   16.9442 C   0  0  0  0  0  0  0  0  0  0  0  0
  -25.7130  -20.1520   24.9982 C   0  0  0  0  0  0  0  0  0  0  0  0
  -25.4260  -20.3799   22.6101 C   0  0  0  0  0  0  0  0  0  0  0  0
  -29.4176  -25.7421   16.6998 C   0  0  0  0  0  0  0  0  0  0  0  0
  -27.0745  -25.9256   18.1905 C   0  0  0  0  0  0  0  0  0  0  0  0
  -23.1587  -29.0718   18.8333 C   0  0  0  0  0  0  0  0  0  0  0  0
  -26.0405  -18.8066   24.8305 C   0  0  0  0  0  0  0  0  0  0  0  0
  -25.7535  -19.0344   22.4424 C   0  0  0  0  0  0  0  0  0  0  0  0
  -21.9260  -28.4990   19.1434 C   0  0  0  0  0  0  0  0  0  0  0  0
  -24.2290  -16.0370   22.7920 C   0  0  0  0  0  0  0  0  0  0  0  0
  -23.4337  -15.2787   21.9329 C   0  0  0  0  0  0  0  0  0  0  0  0
  -22.2663  -29.0406   21.4694 C   0  0  0  0  0  0  0  0  0  0  0  0
  -25.3647  -14.8111   20.5582 C   0  0  0  0  0  0  0  0  0  0  0  0
  -25.4057  -20.9387   23.8880 C   0  0  0  0  0  0  0  0  0  0  0  0
  -25.9494  -23.4252   24.0591 C   0  0  0  0  0  0  0  0  0  0  0  0
  -29.4452  -26.3826   17.9487 C   0  0  0  0  0  0  0  0  0  0  0  0
  -23.9607  -29.6244   19.8421 C   0  0  0  0  0  0  0  0  0  0  0  0
  -28.2630  -26.4673   18.7088 C   0  0  0  0  0  0  0  0  0  0  0  0
  -23.5077  -29.6220   21.1690 C   0  0  0  0  0  0  0  0  0  0  0  0
  -26.0607  -18.2478   23.5526 C   0  0  0  0  0  0  0  0  0  0  0  0
  -21.4809  -28.4808   20.4620 C   0  0  0  0  0  0  0  0  0  0  0  0
  -25.5921  -16.1824   22.5342 C   0  0  0  0  0  0  0  0  0  0  0  0
  -24.0016  -14.6657   20.8160 C   0  0  0  0  0  0  0  0  0  0  0  0
  -26.1600  -15.5695   21.4173 C   0  0  0  0  0  0  0  0  0  0  0  0
  -25.0668  -22.3284   24.0607 C   0  0  0  0  0  0  0  0  0  0  0  0
  -25.1406  -24.5170   24.2596 C   0  0  0  0  0  0  0  0  0  0  0  0
  -27.3730  -23.4544   23.8912 C   0  0  0  0  0  0  0  0  0  0  0  0
  -26.8571  -29.0058   20.9962 C   0  0  0  0  0  0  0  0  0  0  0  0
  -26.3188  -31.6994   22.7216 C   0  0  0  0  0  0  0  0  0  0  0  0
  -24.0595  -33.8640   24.0843 C   0  0  0  0  0  0  0  0  0  0  0  0
  -19.3416  -25.5483   23.1832 C   0  0  0  0  0  0  0  0  0  0  0  0
  -30.7618  -26.9025   18.4690 C   0  0  0  0  0  0  0  0  0  0  0  0
  -25.2759  -30.2623   19.4874 C   0  0  0  0  0  0  0  0  0  0  0  0
  -24.3218  -30.2203   22.2861 C   0  0  0  0  0  0  0  0  0  0  0  0
  -30.6139  -27.8799   19.6323 C   0  0  0  0  0  0  0  0  0  0  0  0
  -21.0137  -25.7924   26.3170 C   0  0  0  0  0  0  0  0  0  0  0  0
  -29.6297  -27.3372   20.6636 C   0  0  0  0  0  0  0  0  0  0  0  0
  -22.3217  -25.0313   26.0940 C   0  0  0  0  0  0  0  0  0  0  0  0
  -19.8488  -25.1425   25.5737 C   0  0  0  0  0  0  0  0  0  0  0  0
  -21.3833  -24.1694   23.9088 C   0  0  0  0  0  0  0  0  0  0  0  0
  -28.2338  -27.1597   20.0541 C   0  0  1  0  0  0  0  0  0  0  0  0
  -26.2414  -30.3361   20.6662 C   0  0  1  0  0  0  0  0  0  0  0  0
  -22.5980  -24.8190   24.5934 C   0  0  2  0  0  0  0  0  0  0  0  0
  -23.9197  -35.9507   25.4713 C   0  0  0  0  0  0  0  0  0  0  0  0
  -18.4543  -24.7437   19.8799 C   0  0  0  0  0  0  0  0  0  0  0  0
  -26.9729  -30.0781   25.2224 C   0  0  0  0  0  0  0  0  0  0  0  0
  -25.9151  -31.8898   26.5889 C   0  0  0  0  0  0  0  0  0  0  0  0
  -27.9255  -32.3904   25.1994 C   0  0  0  0  0  0  0  0  0  0  0  0
  -22.6964  -35.3510   21.9188 C   0  0  0  0  0  0  0  0  0  0  0  0
  -19.8320  -26.8485   19.9398 C   0  0  0  0  0  0  0  0  0  1  0  0
  -25.6997  -32.0029   24.0646 C   0  0  1  0  0  0  0  0  0  0  0  0
  -23.9772  -35.3797   24.0629 C   0  0  2  0  0  0  0  0  0  0  0  0
  -18.9738  -25.8797   20.7513 C   0  0  2  0  0  0  0  0  0  0  0  0
  -26.6136  -31.5772   25.2483 C   0  0  0  0  0  0  0  0  0  0  0  0
  -23.7948  -22.6905   24.2476 N   0  0  0  0  0  0  0  0  0  0  0  0
  -23.8722  -24.0270   24.3654 N   0  0  0  0  0  0  0  0  0  0  0  0
  -25.6034  -30.8266   21.8895 N   0  0  0  0  0  0  0  0  0  0  0  0
  -20.1744  -24.9709   24.1558 N   0  0  0  0  0  0  0  0  0  0  0  0
  -25.3978  -25.8389   24.3541 N   0  0  0  0  0  0  0  0  0  0  0  0
  -28.0477  -22.2417   23.6952 N   0  0  0  0  0  0  0  0  0  0  0  0
  -27.5608  -28.4369   19.9519 N   0  0  0  0  0  0  0  0  0  0  0  0
  -25.3654  -33.4229   24.0485 N   0  0  0  0  0  0  0  0  0  0  0  0
  -19.7256  -25.3429   21.8637 N   0  0  0  0  0  0  0  0  0  0  0  0
  -22.7595  -35.8220   23.3264 N   0  3  0  0  0  0  0  0  0  0  0  0
  -28.0293  -24.5227   23.9308 O   0  0  0  0  0  0  0  0  0  0  0  0
  -26.7061  -28.5313   22.1160 O   0  0  0  0  0  0  0  0  0  0  0  0
  -27.3938  -32.2232   22.4191 O   0  0  0  0  0  0  0  0  0  0  0  0
  -23.0649  -33.1435   24.1321 O   0  0  0  0  0  0  0  0  0  0  0  0
  -18.3335  -26.2030   23.4697 O   0  0  0  0  0  0  0  0  0  0  0  0
  -26.3805  -16.9350   23.3885 O   0  0  0  0  0  0  0  0  0  0  0  0
  -20.2784  -27.9218   20.7676 O   0  0  0  0  0  0  0  0  0  1  0  0
  -23.2381  -13.9363   19.9919 F   0  0  0  0  0  0  0  0  0  0  0  0
  -27.4692  -15.7046   21.1651 F   0  0  0  0  0  0  0  0  0  0  0  0
  1  2  1  0  0  0  0
  1  5  2  0  0  0  0
  2  6  2  0  0  0  0
  3  8  2  0  0  0  0
  3 15  1  0  0  0  0
  4  9  1  0  0  0  0
  4 15  2  0  0  0  0
  5 17  1  0  0  0  0
  6 19  1  0  0  0  0
  7 10  2  0  0  0  0
  7 18  1  0  0  0  0
  8 21  1  0  0  0  0
  9 21  2  0  0  0  0
 10 22  1  0  0  0  0
 11 12  2  0  0  0  0
 11 23  1  0  0  0  0
 12 24  1  0  0  0  0
 13 20  1  0  0  0  0
 13 22  2  0  0  0  0
 14 24  2  0  0  0  0
 14 25  1  0  0  0  0
 15 26  1  0  0  0  0
 16 26  1  0  0  0  0
 16 27  2  0  0  0  0
 16 28  1  0  0  0  0
 17 19  2  0  0  0  0
 17 33  1  0  0  0  0
 18 20  2  0  0  0  0
 18 34  1  0  0  0  0
 19 42  1  0  0  0  0
 20 35  1  0  0  0  0
 21 71  1  0  0  0  0
 22 72  1  0  0  0  0
 23 25  2  0  0  0  0
 23 71  1  0  0  0  0
 24 73  1  0  0  0  0
 25 74  1  0  0  0  0
 26 56  2  0  0  0  0
 27 57  1  0  0  0  0
 27 60  1  0  0  0  0
 28 61  1  0  0  0  0
 28 66  2  0  0  0  0
 29 43  1  0  0  0  0
 29 62  1  0  0  0  0
 29 67  2  0  0  0  0
 30 52  1  0  0  0  0
 30 58  1  0  0  0  0
 30 68  2  0  0  0  0
 31 53  1  0  0  0  0
 31 63  1  0  0  0  0
 31 69  2  0  0  0  0
 32 59  1  0  0  0  0
 32 64  1  0  0  0  0
 32 70  2  0  0  0  0
 33 36  1  0  0  0  0
 34 43  1  0  0  0  0
 35 58  1  0  0  0  0
 36 38  1  0  0  0  0
 37 39  1  0  0  0  0
 37 40  1  0  0  0  0
 38 42  1  0  0  0  0
 39 44  1  0  0  0  0
 40 59  1  0  0  0  0
 41 44  1  0  0  0  0
 41 59  1  0  0  0  0
 42 62  1  0  0  0  0
 43 58  1  0  0  0  0
 44 57  1  0  0  0  0
 45 53  1  0  0  0  0
 46 54  1  0  0  0  0
 47 55  1  0  0  0  0
 48 55  1  0  0  0  0
 49 55  1  0  0  0  0
 50 65  1  0  0  0  0
 51 54  1  0  0  0  0
 51 72  1  0  0  0  0
 52 55  1  0  0  0  0
 52 63  1  0  0  0  0
 53 65  1  0  0  0  0
 54 64  1  0  0  0  0
 56 57  1  0  0  0  0
M  CHG  1  65   1
M  ISO  4  32 100  51 101  64 100  72 101
M  END
> <Batch ID>
0109

> <Smiles>
CNC(C)C(=O)NC(C(=O)N1Cc2cc([101O:1][101CH2:1]C(C)[100NH:0][100C:0](=O)N3CCCC(n4nc(-c5ccc(Oc6ccc(F)cc6F)cc5)c(C(N)=O)c4N)C3)ccc2CC1C(=O)NC1CCCc2ccccc21)C(C)(C)C

> <Shape>
0.211

> <Color>
0.058

> <Negative vol penalty>
0.000

$$$$

  -OEChem-04052319563D

 84 92  0     1  0  0  0  0  0999 V2000
  -31.9971  -13.0294   21.3378 C   0  0  0  0  0  0  0  0  0  0  0  0
  -31.5475  -14.3453   21.2980 C   0  0  0  0  0  0  0  0  0  0  0  0
  -23.1685  -29.7984   20.4693 C   0  0  0  0  0  0  0  0  0  0  0  0
  -25.5809  -29.8506   20.5893 C   0  0  0  0  0  0  0  0  0  0  0  0
  -31.2317  -12.0147   20.7646 C   0  0  0  0  0  0  0  0  0  0  0  0
  -30.3325  -14.6474   20.6840 C   0  0  0  0  0  0  0  0  0  0  0  0
  -27.5104  -17.8358   23.4254 C   0  0  0  0  0  0  0  0  0  0  0  0
  -23.0943  -30.5882   21.6166 C   0  0  0  0  0  0  0  0  0  0  0  0
  -25.5068  -30.6405   21.7366 C   0  0  0  0  0  0  0  0  0  0  0  0
  -27.8567  -19.1857   23.3881 C   0  0  0  0  0  0  0  0  0  0  0  0
  -25.9505  -32.3705   24.9020 C   0  0  0  0  0  0  0  0  0  0  0  0
  -26.7804  -32.0382   25.9727 C   0  0  0  0  0  0  0  0  0  0  0  0
  -26.0957  -19.5871   21.7891 C   0  0  0  0  0  0  0  0  0  0  0  0
  -25.7377  -29.8628   26.1057 C   0  0  0  0  0  0  0  0  0  0  0  0
  -29.8483  -21.2324   19.9037 C   0  0  0  0  0  0  0  0  0  0  0  0
  -24.4118  -29.4295   19.9557 C   0  0  0  0  0  0  0  0  0  0  0  0
  -24.5461  -29.0558   17.4358 C   0  0  0  0  0  0  0  0  0  0  0  0
  -30.0021  -12.3033   20.1518 C   0  0  0  0  0  0  0  0  0  0  0  0
  -26.4594  -17.3485   22.6353 C   0  0  0  0  0  0  0  0  0  0  0  0
  -29.5505  -13.6359   20.1010 C   0  0  0  0  0  0  0  0  0  0  0  0
  -25.7364  -18.2310   21.8201 C   0  0  0  0  0  0  0  0  0  0  0  0
  -30.2573  -22.5449   19.7839 C   0  0  0  0  0  0  0  0  0  0  0  0
  -24.2634  -31.0093   22.2502 C   0  0  0  0  0  0  0  0  0  0  0  0
  -27.1512  -20.0611   22.5677 C   0  0  0  0  0  0  0  0  0  0  0  0
  -25.0141  -31.4491   24.4332 C   0  0  0  0  0  0  0  0  0  0  0  0
  -26.6740  -30.7844   26.5745 C   0  0  0  0  0  0  0  0  0  0  0  0
  -24.9077  -30.1952   25.0350 C   0  0  0  0  0  0  0  0  0  0  0  0
  -24.4891  -28.6131   18.7709 C   0  0  0  0  0  0  0  0  0  0  0  0
  -29.6659  -23.4365   20.6555 C   0  0  0  0  0  0  0  0  0  0  0  0
  -24.6088  -27.9017   16.6938 C   0  0  0  0  0  0  0  0  0  0  0  0
  -28.4301  -21.7759   21.5949 C   0  0  0  0  0  0  0  0  0  1  0  0
  -24.5428  -30.3909   16.9130 C   0  0  0  0  0  0  0  0  0  0  0  0
  -26.2207  -15.2274   20.2799 C   0  0  0  0  0  0  0  0  0  0  0  0
  -23.0446  -15.7966   20.6132 C   0  0  0  0  0  0  0  0  0  0  0  0
  -20.5726  -17.9167   21.6335 C   0  0  0  0  0  0  0  0  0  0  0  0
  -26.8862  -22.5827   16.8864 C   0  0  0  0  0  0  0  0  0  0  0  0
  -29.2324  -11.1795   19.5043 C   0  0  0  0  0  0  0  0  0  0  0  0
  -26.0809  -15.8945   22.7071 C   0  0  0  0  0  0  0  0  0  0  0  0
  -24.5866  -17.7618   20.9679 C   0  0  0  0  0  0  0  0  0  0  0  0
  -27.7780  -11.5319   19.2029 C   0  0  0  0  0  0  0  0  0  0  0  0
  -23.4294  -23.1695   17.5051 C   0  0  0  0  0  0  0  0  0  0  0  0
  -27.6873  -12.9028   18.5400 C   0  0  0  0  0  0  0  0  0  0  0  0
  -23.3555  -24.6742   17.7704 C   0  0  0  0  0  0  0  0  0  0  0  0
  -24.7101  -22.5590   18.0698 C   0  0  0  0  0  0  0  0  0  0  0  0
  -25.8816  -24.7203   17.8955 C   0  0  0  0  0  0  0  0  0  0  0  0
  -28.2261  -14.0000   19.4658 C   0  0  1  0  0  0  0  0  0  0  0  0
  -25.3256  -15.4120   21.4726 C   0  0  1  0  0  0  0  0  0  0  0  0
  -24.6339  -25.3908   17.2955 C   0  0  2  0  0  0  0  0  0  0  0  0
  -30.0310  -24.8837   20.6168 C   0  0  0  0  0  0  0  0  0  0  0  0
  -32.2642  -21.8284   18.4230 C   0  0  0  0  0  0  0  0  0  0  0  0
  -18.0739  -18.1218   21.7424 C   0  0  0  0  0  0  0  0  0  0  0  0
  -22.9661  -16.3991   17.6231 C   0  0  0  0  0  0  0  0  0  0  0  0
  -20.7404  -17.4909   17.9723 C   0  0  0  0  0  0  0  0  0  0  0  0
  -21.0285  -15.0635   18.4693 C   0  0  0  0  0  0  0  0  0  0  0  0
  -20.6009  -18.1074   24.5868 C   0  0  0  0  0  0  0  0  0  0  0  0
  -31.6117  -24.3188   16.7238 C   0  0  0  0  0  0  0  0  0  0  0  0
  -29.0679  -22.7690   15.7181 C   0  0  0  0  0  0  0  0  0  0  0  0
  -30.1759  -22.2863   16.6354 C   0  0  0  0  0  0  0  0  0  0  0  0
  -31.2692  -22.9461   18.7732 C   0  0  1  0  0  0  0  0  0  0  0  0
  -22.0653  -16.7763   20.0131 C   0  0  1  0  0  0  0  0  0  0  0  0
  -19.3319  -17.6855   22.4772 C   0  0  2  0  0  0  0  0  0  0  0  0
  -21.7230  -16.4412   18.5339 C   0  0  0  0  0  0  0  0  0  0  0  0
  -28.9335  -20.8113   20.8014 N   0  0  0  0  0  0  0  0  0  0  0  0
  -24.5133  -27.2817   18.8742 N   0  0  0  0  0  0  0  0  0  0  0  0
  -28.7452  -23.0851   21.5770 N   0  0  0  0  0  0  0  0  0  0  0  0
  -24.5861  -26.8778   17.5945 N   0  0  0  0  0  0  0  0  0  0  0  0
  -24.2589  -16.3299   21.0680 N   0  0  0  0  0  0  0  0  0  0  0  0
  -25.8853  -23.2832   17.5796 N   0  0  0  0  0  0  0  0  0  0  0  0
  -24.6806  -27.6729   15.3653 N   0  0  0  0  0  0  0  0  0  0  0  0
  -24.4740  -31.4614   17.8150 N   0  0  0  0  0  0  0  0  0  0  0  0
  -27.2498  -14.3278   20.4826 N   0  0  0  0  0  0  0  0  0  0  0  0
  -20.9102  -16.7964   20.9040 N   0  0  0  0  0  0  0  0  0  0  0  0
  -27.9627  -23.3457   16.4507 N   0  0  0  0  0  0  0  0  0  0  0  0
  -19.4218  -18.4527   23.7516 N   0  3  0  0  0  0  0  0  0  0  0  0
  -30.6703  -23.4258   17.4778 N   0  3  1  0  0  0  0  0  0  0  0  0
  -24.5825  -30.6271   15.6817 O   0  0  0  0  0  0  0  0  0  0  0  0
  -25.9935  -15.8537   19.2514 O   0  0  0  0  0  0  0  0  0  0  0  0
  -22.7404  -14.6032   20.6826 O   0  0  0  0  0  0  0  0  0  0  0  0
  -21.1792  -18.9855   21.6199 O   0  0  0  0  0  0  0  0  0  0  0  0
  -26.8224  -21.3684   16.6669 O   0  0  0  0  0  0  0  0  0  0  0  0
  -24.1914  -31.7802   23.3696 O   0  0  0  0  0  0  0  0  0  0  0  0
  -27.4876  -21.3791   22.5288 O   0  0  0  0  0  0  0  0  0  1  0  0
  -27.4721  -30.4648   27.6017 F   0  0  0  0  0  0  0  0  0  0  0  0
  -24.0109  -29.3054   24.5882 F   0  0  0  0  0  0  0  0  0  0  0  0
  1  2  1  0  0  0  0
  1  5  2  0  0  0  0
  2  6  2  0  0  0  0
  3  8  2  0  0  0  0
  3 16  1  0  0  0  0
  4  9  1  0  0  0  0
  4 16  2  0  0  0  0
  5 18  1  0  0  0  0
  6 20  1  0  0  0  0
  7 10  2  0  0  0  0
  7 19  1  0  0  0  0
  8 23  1  0  0  0  0
  9 23  2  0  0  0  0
 10 24  1  0  0  0  0
 11 12  2  0  0  0  0
 11 25  1  0  0  0  0
 12 26  1  0  0  0  0
 13 21  1  0  0  0  0
 13 24  2  0  0  0  0
 14 26  2  0  0  0  0
 14 27  1  0  0  0  0
 15 22  1  0  0  0  0
 15 63  2  0  0  0  0
 16 28  1  0  0  0  0
 17 28  1  0  0  0  0
 17 30  2  0  0  0  0
 17 32  1  0  0  0  0
 18 20  2  0  0  0  0
 18 37  1  0  0  0  0
 19 21  2  0  0  0  0
 19 38  1  0  0  0  0
 20 46  1  0  0  0  0
 21 39  1  0  0  0  0
 22 29  2  0  0  0  0
 22 59  1  0  0  0  0
 23 81  1  0  0  0  0
 24 82  1  0  0  0  0
 25 27  2  0  0  0  0
 25 81  1  0  0  0  0
 26 83  1  0  0  0  0
 27 84  1  0  0  0  0
 28 64  2  0  0  0  0
 29 49  1  0  0  0  0
 29 65  1  0  0  0  0
 30 66  1  0  0  0  0
 30 69  1  0  0  0  0
 31 63  1  0  0  0  0
 31 65  2  0  0  0  0
 31 82  1  0  0  0  0
 32 70  1  0  0  0  0
 32 76  2  0  0  0  0
 33 47  1  0  0  0  0
 33 71  1  0  0  0  0
 33 77  2  0  0  0  0
 34 60  1  0  0  0  0
 34 67  1  0  0  0  0
 34 78  2  0  0  0  0
 35 61  1  0  0  0  0
 35 72  1  0  0  0  0
 35 79  2  0  0  0  0
 36 68  1  0  0  0  0
 36 73  1  0  0  0  0
 36 80  2  0  0  0  0
 37 40  1  0  0  0  0
 38 47  1  0  0  0  0
 39 67  1  0  0  0  0
 40 42  1  0  0  0  0
 41 43  1  0  0  0  0
 41 44  1  0  0  0  0
 42 46  1  0  0  0  0
 43 48  1  0  0  0  0
 44 68  1  0  0  0  0
 45 48  1  0  0  0  0
 45 68  1  0  0  0  0
 46 71  1  0  0  0  0
 47 67  1  0  0  0  0
 48 66  1  0  0  0  0
 50 59  1  0  0  0  0
 51 61  1  0  0  0  0
 52 62  1  0  0  0  0
 53 62  1  0  0  0  0
 54 62  1  0  0  0  0
 55 74  1  0  0  0  0
 56 75  1  0  0  0  0
 57 58  1  0  0  0  0
 57 73  1  0  0  0  0
 58 75  1  0  0  0  0
 59 75  1  0  0  0  0
 60 62  1  0  0  0  0
 60 72  1  0  0  0  0
 61 74  1  0  0  0  0
 64 66  1  0  0  0  0
M  CHG  2  74   1  75   1
M  ISO  4  31 101  36 100  73 100  82 101
M  END
> <Batch ID>
0109

> <Smiles>
CNC(C)C(=O)NC(C(=O)N1Cc2cc([101O:1][101c:1]3ncc(C(C)N(C)CC[100NH:0][100C:0](=O)N4CCCC(n5nc(-c6ccc(Oc7ccc(F)cc7F)cc6)c(C(N)=O)c5N)C4)c(C)n3)ccc2CC1C(=O)NC1CCCc2ccccc21)C(C)(C)C

> <Shape>
0.216

> <Color>
0.066

> <Negative vol penalty>
0.000

$$$$

  -OEChem-04052319563D

 78 85  0     1  0  0  0  0  0999 V2000
  -24.5996  -28.4048   20.0248 C   0  0  0  0  0  0  0  0  0  0  0  0
  -24.4949  -27.1711   19.3903 C   0  0  0  0  0  0  0  0  0  0  0  0
  -18.8192  -22.1073   21.5452 C   0  0  0  0  0  0  0  0  0  0  0  0
  -20.8211  -22.9476   22.6051 C   0  0  0  0  0  0  0  0  0  0  0  0
  -25.8508  -28.8865   20.4075 C   0  0  0  0  0  0  0  0  0  0  0  0
  -25.6414  -26.4190   19.1372 C   0  0  0  0  0  0  0  0  0  0  0  0
  -25.0526  -21.5268   20.3055 C   0  0  0  0  0  0  0  0  0  0  0  0
  -18.5102  -23.3952   21.1077 C   0  0  0  0  0  0  0  0  0  0  0  0
  -20.5122  -24.2355   22.1675 C   0  0  0  0  0  0  0  0  0  0  0  0
  -24.3437  -20.7371   19.4013 C   0  0  0  0  0  0  0  0  0  0  0  0
  -18.4374  -26.7451   23.0775 C   0  0  0  0  0  0  0  0  0  0  0  0
  -18.5669  -27.7891   23.9933 C   0  0  0  0  0  0  0  0  0  0  0  0
  -26.4234  -19.8941   18.5162 C   0  0  0  0  0  0  0  0  0  0  0  0
  -20.1932  -28.8491   22.5551 C   0  0  0  0  0  0  0  0  0  0  0  0
  -19.9746  -21.8835   22.2939 C   0  0  0  0  0  0  0  0  0  0  0  0
  -19.5180  -19.7319   23.5861 C   0  0  0  0  0  0  0  0  0  0  0  0
  -27.0123  -28.1355   20.1676 C   0  0  0  0  0  0  0  0  0  0  0  0
  -26.4548  -21.5142   20.3145 C   0  0  0  0  0  0  0  0  0  0  0  0
  -26.9094  -26.8917   19.5159 C   0  0  0  0  0  0  0  0  0  0  0  0
  -27.1477  -20.6826   19.4233 C   0  0  0  0  0  0  0  0  0  0  0  0
  -19.3567  -24.4593   21.4188 C   0  0  0  0  0  0  0  0  0  0  0  0
  -25.0291  -19.9227   18.5045 C   0  0  0  0  0  0  0  0  0  0  0  0
  -19.1859  -26.7530   21.9004 C   0  0  0  0  0  0  0  0  0  0  0  0
  -19.4447  -28.8412   23.7321 C   0  0  0  0  0  0  0  0  0  0  0  0
  -20.0638  -27.8050   21.6392 C   0  0  0  0  0  0  0  0  0  0  0  0
  -20.2940  -20.5534   22.7467 C   0  0  0  0  0  0  0  0  0  0  0  0
  -20.2538  -18.5792   23.7142 C   0  0  0  0  0  0  0  0  0  0  0  0
  -18.2456  -19.9877   24.1955 C   0  0  0  0  0  0  0  0  0  0  0  0
  -28.7208  -23.6841   19.8037 C   0  0  0  0  0  0  0  0  0  0  0  0
  -30.6883  -21.2811   20.7403 C   0  0  0  0  0  0  0  0  0  0  0  0
  -31.1972  -17.9253   21.0958 C   0  0  0  0  0  0  0  0  0  0  0  0
  -24.4013  -15.9848   20.2619 C   0  0  0  0  0  0  0  0  0  0  0  0
  -28.3474  -28.7190   20.5571 C   0  0  0  0  0  0  0  0  0  0  0  0
  -27.2044  -22.3518   21.3141 C   0  0  0  0  0  0  0  0  0  0  0  0
  -28.6524  -20.6175   19.4061 C   0  0  0  0  0  0  0  0  0  0  0  0
  -29.4754  -27.6910   20.5889 C   0  0  0  0  0  0  0  0  0  0  0  0
  -24.7671  -16.9924   23.6571 C   0  0  0  0  0  0  0  0  0  0  0  0
  -29.4409  -26.8217   19.3359 C   0  0  0  0  0  0  0  0  0  0  0  0
  -23.5922  -17.9452   23.8845 C   0  0  0  0  0  0  0  0  0  0  0  0
  -25.3401  -17.1292   22.2482 C   0  0  0  0  0  0  0  0  0  0  0  0
  -23.1777  -17.9415   21.3891 C   0  0  0  0  0  0  0  0  0  0  0  0
  -28.1275  -26.0353   19.2461 C   0  0  1  0  0  0  0  0  0  0  0  0
  -28.6392  -22.6481   20.8890 C   0  0  1  0  0  0  0  0  0  0  0  0
  -22.5306  -17.8005   22.7776 C   0  0  2  0  0  0  0  0  0  0  0  0
  -32.9177  -16.2632   21.8539 C   0  0  0  0  0  0  0  0  0  0  0  0
  -24.9674  -16.7208   14.7962 C   0  0  0  0  0  0  0  0  0  0  0  0
  -32.2432  -21.7133   18.1508 C   0  0  0  0  0  0  0  0  0  0  0  0
  -33.3130  -19.4771   18.5018 C   0  0  0  0  0  0  0  0  0  0  0  0
  -33.6662  -21.3017   20.1658 C   0  0  0  0  0  0  0  0  0  0  0  0
  -29.4225  -16.8840   23.2231 C   0  0  0  0  0  0  0  0  0  0  0  0
  -22.0021  -16.4028   15.8495 C   0  0  0  0  0  0  0  0  0  0  0  0
  -23.3271  -14.9308   18.2885 C   0  0  0  0  0  0  0  0  0  0  0  0
  -23.9810  -15.4471   17.0204 C   0  0  0  0  0  0  0  0  0  0  0  0
  -25.1058  -18.3410   16.7302 C   0  0  0  0  0  0  0  0  0  1  0  0
  -31.4145  -20.1590   20.0385 C   0  0  1  0  0  0  0  0  0  0  0  0
  -31.7172  -17.1033   22.2613 C   0  0  2  0  0  0  0  0  0  0  0  0
  -24.1895  -17.5906   15.7703 C   0  0  2  0  0  0  0  0  0  0  0  0
  -32.6309  -20.6652   19.2130 C   0  0  0  0  0  0  0  0  0  0  0  0
  -21.4355  -19.9721   22.3683 N   0  0  0  0  0  0  0  0  0  0  0  0
  -21.3821  -18.7730   22.9728 N   0  0  0  0  0  0  0  0  0  0  0  0
  -29.3403  -21.4598   20.3985 N   0  0  0  0  0  0  0  0  0  0  0  0
  -24.2824  -16.9803   21.2457 N   0  0  0  0  0  0  0  0  0  0  0  0
  -20.0394  -17.4290   24.3876 N   0  0  0  0  0  0  0  0  0  0  0  0
  -18.2202  -20.5790   25.4660 N   0  0  0  0  0  0  0  0  0  0  0  0
  -28.1565  -24.8992   20.1422 N   0  0  0  0  0  0  0  0  0  0  0  0
  -31.7559  -19.1856   21.0702 N   0  0  0  0  0  0  0  0  0  0  0  0
  -23.3520  -15.9076   19.3543 N   0  0  0  0  0  0  0  0  0  0  0  0
  -30.6536  -16.1895   22.7660 N   0  3  0  0  0  0  0  0  0  0  0  0
  -23.2906  -16.7067   16.5675 N   0  3  1  0  0  0  0  0  0  0  0  0
  -17.1637  -19.6856   23.6372 O   0  0  0  0  0  0  0  0  0  0  0  0
  -29.2574  -23.4023   18.7386 O   0  0  0  0  0  0  0  0  0  0  0  0
  -31.2928  -21.9691   21.5667 O   0  0  0  0  0  0  0  0  0  0  0  0
  -30.3800  -17.4915   20.2868 O   0  0  0  0  0  0  0  0  0  0  0  0
  -25.3683  -15.2179   20.2004 O   0  0  0  0  0  0  0  0  0  0  0  0
  -19.0557  -25.7161   20.9918 O   0  0  0  0  0  0  0  0  0  0  0  0
  -24.3396  -19.1514   17.6205 O   0  0  0  0  0  0  0  0  0  1  0  0
  -19.5678  -29.8445   24.6110 F   0  0  0  0  0  0  0  0  0  0  0  0
  -20.7846  -27.8188   20.5096 F   0  0  0  0  0  0  0  0  0  0  0  0
  1  2  1  0  0  0  0
  1  5  2  0  0  0  0
  2  6  2  0  0  0  0
  3  8  2  0  0  0  0
  3 15  1  0  0  0  0
  4  9  1  0  0  0  0
  4 15  2  0  0  0  0
  5 17  1  0  0  0  0
  6 19  1  0  0  0  0
  7 10  2  0  0  0  0
  7 18  1  0  0  0  0
  8 21  1  0  0  0  0
  9 21  2  0  0  0  0
 10 22  1  0  0  0  0
 11 12  2  0  0  0  0
 11 23  1  0  0  0  0
 12 24  1  0  0  0  0
 13 20  1  0  0  0  0
 13 22  2  0  0  0  0
 14 24  2  0  0  0  0
 14 25  1  0  0  0  0
 15 26  1  0  0  0  0
 16 26  1  0  0  0  0
 16 27  2  0  0  0  0
 16 28  1  0  0  0  0
 17 19  2  0  0  0  0
 17 33  1  0  0  0  0
 18 20  2  0  0  0  0
 18 34  1  0  0  0  0
 19 42  1  0  0  0  0
 20 35  1  0  0  0  0
 21 75  1  0  0  0  0
 22 76  1  0  0  0  0
 23 25  2  0  0  0  0
 23 75  1  0  0  0  0
 24 77  1  0  0  0  0
 25 78  1  0  0  0  0
 26 59  2  0  0  0  0
 27 60  1  0  0  0  0
 27 63  1  0  0  0  0
 28 64  1  0  0  0  0
 28 70  2  0  0  0  0
 29 43  1  0  0  0  0
 29 65  1  0  0  0  0
 29 71  2  0  0  0  0
 30 55  1  0  0  0  0
 30 61  1  0  0  0  0
 30 72  2  0  0  0  0
 31 56  1  0  0  0  0
 31 66  1  0  0  0  0
 31 73  2  0  0  0  0
 32 62  1  0  0  0  0
 32 67  1  0  0  0  0
 32 74  2  0  0  0  0
 33 36  1  0  0  0  0
 34 43  1  0  0  0  0
 35 61  1  0  0  0  0
 36 38  1  0  0  0  0
 37 39  1  0  0  0  0
 37 40  1  0  0  0  0
 38 42  1  0  0  0  0
 39 44  1  0  0  0  0
 40 62  1  0  0  0  0
 41 44  1  0  0  0  0
 41 62  1  0  0  0  0
 42 65  1  0  0  0  0
 43 61  1  0  0  0  0
 44 60  1  0  0  0  0
 45 56  1  0  0  0  0
 46 57  1  0  0  0  0
 47 58  1  0  0  0  0
 48 58  1  0  0  0  0
 49 58  1  0  0  0  0
 50 68  1  0  0  0  0
 51 69  1  0  0  0  0
 52 53  1  0  0  0  0
 52 67  1  0  0  0  0
 53 69  1  0  0  0  0
 54 57  1  0  0  0  0
 54 76  1  0  0  0  0
 55 58  1  0  0  0  0
 55 66  1  0  0  0  0
 56 68  1  0  0  0  0
 57 69  1  0  0  0  0
 59 60  1  0  0  0  0
M  CHG  2  68   1  69   1
M  ISO  4  32 100  54 101  67 100  76 101
M  END
> <Batch ID>
0109

> <Smiles>
CNC(C)C(=O)NC(C(=O)N1Cc2cc([101O:1][101CH2:1]C(C)N(C)CC[100NH:0][100C:0](=O)N3CCCC(n4nc(-c5ccc(Oc6ccc(F)cc6F)cc5)c(C(N)=O)c4N)C3)ccc2CC1C(=O)NC1CCCc2ccccc21)C(C)(C)C

> <Shape>
0.178

> <Color>
0.080

> <Negative vol penalty>
0.000

$$$$

  -OEChem-04052319563D

 81 89  0     1  0  0  0  0  0999 V2000
  -17.8624  -30.7358   22.5550 C   0  0  0  0  0  0  0  0  0  0  0  0
  -19.2384  -30.9207   22.4672 C   0  0  0  0  0  0  0  0  0  0  0  0
  -27.7274  -15.1460   21.9803 C   0  0  0  0  0  0  0  0  0  0  0  0
  -28.3532  -14.9093   19.6588 C   0  0  0  0  0  0  0  0  0  0  0  0
  -17.3422  -29.4543   22.7309 C   0  0  0  0  0  0  0  0  0  0  0  0
  -20.0952  -29.8241   22.5563 C   0  0  0  0  0  0  0  0  0  0  0  0
  -25.4019  -29.0485   19.5994 C   0  0  0  0  0  0  0  0  0  0  0  0
  -26.8569  -14.0632   21.8561 C   0  0  0  0  0  0  0  0  0  0  0  0
  -27.4827  -13.8264   19.5346 C   0  0  0  0  0  0  0  0  0  0  0  0
  -26.7276  -29.2420   19.9851 C   0  0  0  0  0  0  0  0  0  0  0  0
  -27.0715  -10.6894   21.7917 C   0  0  0  0  0  0  0  0  0  0  0  0
  -27.0861   -9.7268   22.8011 C   0  0  0  0  0  0  0  0  0  0  0  0
  -32.3272  -26.8228   19.7817 C   0  0  0  0  0  0  0  0  0  0  0  0
  -26.9023  -26.9004   20.5378 C   0  0  0  0  0  0  0  0  0  0  0  0
  -24.7549  -10.1690   23.2565 C   0  0  0  0  0  0  0  0  0  0  0  0
  -32.2393  -25.7794   18.8868 C   0  0  0  0  0  0  0  0  0  0  0  0
  -30.6051  -27.2270   18.3885 C   0  0  0  0  0  0  0  0  0  0  0  0
  -28.4755  -15.5691   20.8816 C   0  0  0  0  0  0  0  0  0  0  0  0
  -30.7322  -16.6497   21.3788 C   0  0  0  0  0  0  0  0  0  0  0  0
  -18.1925  -28.3403   22.8125 C   0  0  0  0  0  0  0  0  0  0  0  0
  -24.8121  -27.7795   19.6904 C   0  0  0  0  0  0  0  0  0  0  0  0
  -19.5859  -28.5266   22.7348 C   0  0  0  0  0  0  0  0  0  0  0  0
  -25.5697  -26.6929   20.1501 C   0  0  0  0  0  0  0  0  0  0  0  0
  -31.2934  -27.7387   19.4664 C   0  0  0  0  0  0  0  0  0  0  0  0
  -26.7346  -13.4034   20.6333 C   0  0  0  0  0  0  0  0  0  0  0  0
  -27.4771  -28.1685   20.4571 C   0  0  0  0  0  0  0  0  0  0  0  0
  -25.8986  -11.3918   21.5147 C   0  0  0  0  0  0  0  0  0  0  0  0
  -25.9278   -9.4666   23.5335 C   0  0  0  0  0  0  0  0  0  0  0  0
  -24.7404  -11.1316   22.2471 C   0  0  0  0  0  0  0  0  0  0  0  0
  -29.3744  -16.6879   21.0091 C   0  0  0  0  0  0  0  0  0  0  0  0
  -31.1325  -17.9632   21.3519 C   0  0  0  0  0  0  0  0  0  0  0  0
  -31.5578  -15.5271   21.7163 C   0  0  0  0  0  0  0  0  0  0  0  0
  -22.3648  -26.5540   21.3068 C   0  0  0  0  0  0  0  0  0  0  0  0
  -23.0086  -23.9224   19.5227 C   0  0  0  0  0  0  0  0  0  0  0  0
  -25.2816  -22.1379   17.7074 C   0  0  0  0  0  0  0  0  0  0  0  0
  -29.1397  -22.6212   18.3209 C   0  0  0  0  0  0  0  0  0  0  0  0
  -17.5861  -26.9800   23.0502 C   0  0  0  0  0  0  0  0  0  0  0  0
  -23.3890  -27.5819   19.2451 C   0  0  0  0  0  0  0  0  0  0  0  0
  -24.9895  -25.3064   20.2479 C   0  0  0  0  0  0  0  0  0  0  0  0
  -18.5435  -25.8271   22.7595 C   0  0  0  0  0  0  0  0  0  0  0  0
  -29.4435  -22.4052   21.9207 C   0  0  0  0  0  0  0  0  0  0  0  0
  -19.9074  -26.0944   23.3881 C   0  0  0  0  0  0  0  0  0  0  0  0
  -29.5903  -20.8961   22.1235 C   0  0  0  0  0  0  0  0  0  0  0  0
  -28.4618  -22.7189   20.7955 C   0  0  0  0  0  0  0  0  0  0  0  0
  -28.9391  -20.5670   19.6929 C   0  0  0  0  0  0  0  0  0  0  0  0
  -20.5465  -27.3592   22.8021 C   0  0  1  0  0  0  0  0  0  0  0  0
  -22.7346  -26.3509   19.8646 C   0  0  1  0  0  0  0  0  0  0  0  0
  -29.9357  -20.1841   20.8021 C   0  0  2  0  0  0  0  0  0  0  0  0
  -31.8180  -30.1965   19.5927 C   0  0  0  0  0  0  0  0  0  0  0  0
  -25.5251  -20.0082   16.4026 C   0  0  0  0  0  0  0  0  0  0  0  0
  -23.1574  -22.3448   22.1301 C   0  0  0  0  0  0  0  0  0  0  0  0
  -24.3110  -20.5119   20.8740 C   0  0  0  0  0  0  0  0  0  0  0  0
  -21.9826  -21.1662   20.2633 C   0  0  0  0  0  0  0  0  0  0  0  0
  -25.9120  -23.6016   15.2136 C   0  0  0  0  0  0  0  0  0  0  0  0
  -30.7613  -25.1800   16.9617 C   0  0  0  0  0  0  0  0  0  0  0  0
  -29.2978  -24.7610   17.0744 C   0  0  0  0  0  0  0  0  0  0  0  0
  -29.5006  -29.3844   20.1684 C   0  0  0  0  0  0  0  0  0  1  0  0
  -30.9976  -29.0465   20.1837 C   0  0  1  0  0  0  0  0  0  0  0  0
  -23.8970  -22.7126   19.6839 C   0  0  1  0  0  0  0  0  0  0  0  0
  -25.1915  -21.4905   16.3373 C   0  0  2  0  0  0  0  0  0  0  0  0
  -23.3476  -21.7102   20.7380 C   0  0  0  0  0  0  0  0  0  0  0  0
  -28.9411  -17.9276   20.7654 N   0  0  0  0  0  0  0  0  0  0  0  0
  -31.1887  -26.0356   18.0449 N   0  0  0  0  0  0  0  0  0  0  0  0
  -30.0329  -18.6805   20.9824 N   0  0  0  0  0  0  0  0  0  0  0  0
  -23.5920  -25.1653   19.8066 N   0  0  0  0  0  0  0  0  0  0  0  0
  -28.8578  -22.0256   19.5615 N   0  0  0  0  0  0  0  0  0  0  0  0
  -32.3143  -18.5631   21.6086 N   0  0  0  0  0  0  0  0  0  0  0  0
  -30.9871  -14.2472   21.6938 N   0  0  0  0  0  0  0  0  0  0  0  0
  -21.1030  -27.0851   21.4946 N   0  0  0  0  0  0  0  0  0  0  0  0
  -24.0615  -22.1462   18.3496 N   0  0  0  0  0  0  0  0  0  0  0  0
  -29.0329  -24.0060   18.2790 N   0  0  0  0  0  0  0  0  0  0  0  0
  -26.1399  -22.1445   15.3919 N   0  3  0  0  0  0  0  0  0  0  0  0
  -32.7615  -15.6568   22.0446 O   0  0  0  0  0  0  0  0  0  0  0  0
  -23.1645  -26.2499   22.1841 O   0  0  0  0  0  0  0  0  0  0  0  0
  -21.8420  -23.7709   19.1514 O   0  0  0  0  0  0  0  0  0  0  0  0
  -26.3304  -22.5876   18.1639 O   0  0  0  0  0  0  0  0  0  0  0  0
  -29.4678  -21.9675   17.3248 O   0  0  0  0  0  0  0  0  0  0  0  0
  -25.8855  -12.3466   20.5118 O   0  0  0  0  0  0  0  0  0  0  0  0
  -28.7711  -28.3548   20.8349 O   0  0  0  0  0  0  0  0  0  1  0  0
  -25.9416   -8.5411   24.5017 F   0  0  0  0  0  0  0  0  0  0  0  0
  -23.6103  -11.8024   21.9848 F   0  0  0  0  0  0  0  0  0  0  0  0
  1  2  1  0  0  0  0
  1  5  2  0  0  0  0
  2  6  2  0  0  0  0
  3  8  2  0  0  0  0
  3 18  1  0  0  0  0
  4  9  1  0  0  0  0
  4 18  2  0  0  0  0
  5 20  1  0  0  0  0
  6 22  1  0  0  0  0
  7 10  2  0  0  0  0
  7 21  1  0  0  0  0
  8 25  1  0  0  0  0
  9 25  2  0  0  0  0
 10 26  1  0  0  0  0
 11 12  2  0  0  0  0
 11 27  1  0  0  0  0
 12 28  1  0  0  0  0
 13 16  2  0  0  0  0
 13 24  1  0  0  0  0
 14 23  1  0  0  0  0
 14 26  2  0  0  0  0
 15 28  2  0  0  0  0
 15 29  1  0  0  0  0
 16 63  1  0  0  0  0
 17 24  2  0  0  0  0
 17 63  1  0  0  0  0
 18 30  1  0  0  0  0
 19 30  1  0  0  0  0
 19 31  2  0  0  0  0
 19 32  1  0  0  0  0
 20 22  2  0  0  0  0
 20 37  1  0  0  0  0
 21 23  2  0  0  0  0
 21 38  1  0  0  0  0
 22 46  1  0  0  0  0
 23 39  1  0  0  0  0
 24 58  1  0  0  0  0
 25 78  1  0  0  0  0
 26 79  1  0  0  0  0
 27 29  2  0  0  0  0
 27 78  1  0  0  0  0
 28 80  1  0  0  0  0
 29 81  1  0  0  0  0
 30 62  2  0  0  0  0
 31 64  1  0  0  0  0
 31 67  1  0  0  0  0
 32 68  1  0  0  0  0
 32 73  2  0  0  0  0
 33 47  1  0  0  0  0
 33 69  1  0  0  0  0
 33 74  2  0  0  0  0
 34 59  1  0  0  0  0
 34 65  1  0  0  0  0
 34 75  2  0  0  0  0
 35 60  1  0  0  0  0
 35 70  1  0  0  0  0
 35 76  2  0  0  0  0
 36 66  1  0  0  0  0
 36 71  1  0  0  0  0
 36 77  2  0  0  0  0
 37 40  1  0  0  0  0
 38 47  1  0  0  0  0
 39 65  1  0  0  0  0
 40 42  1  0  0  0  0
 41 43  1  0  0  0  0
 41 44  1  0  0  0  0
 42 46  1  0  0  0  0
 43 48  1  0  0  0  0
 44 66  1  0  0  0  0
 45 48  1  0  0  0  0
 45 66  1  0  0  0  0
 46 69  1  0  0  0  0
 47 65  1  0  0  0  0
 48 64  1  0  0  0  0
 49 58  1  0  0  0  0
 50 60  1  0  0  0  0
 51 61  1  0  0  0  0
 52 61  1  0  0  0  0
 53 61  1  0  0  0  0
 54 72  1  0  0  0  0
 55 56  1  0  0  0  0
 55 63  1  0  0  0  0
 56 71  1  0  0  0  0
 57 58  1  0  0  0  0
 57 79  1  0  0  0  0
 59 61  1  0  0  0  0
 59 70  1  0  0  0  0
 60 72  1  0  0  0  0
 62 64  1  0  0  0  0
M  CHG  1  72   1
M  ISO  4  36 100  57 101  71 100  79 101
M  END
> <Batch ID>
0109

> <Smiles>
CNC(C)C(=O)NC(C(=O)N1Cc2cc([101O:1][101CH2:1]C(C)c3ccn(CC[100NH:0][100C:0](=O)N4CCCC(n5nc(-c6ccc(Oc7ccc(F)cc7F)cc6)c(C(N)=O)c5N)C4)c3)ccc2CC1C(=O)NC1CCCc2ccccc21)C(C)(C)C

> <Shape>
0.258

> <Color>
0.049

> <Negative vol penalty>
0.000

$$$$

  -OEChem-04052319563D

 88 96  0     1  0  0  0  0  0999 V2000
  -28.4885  -24.1853   16.9697 C   0  0  0  0  0  0  0  0  0  0  0  0
  -27.3233  -24.8746   17.2860 C   0  0  0  0  0  0  0  0  0  0  0  0
  -27.2624  -15.3293   19.9792 C   0  0  0  0  0  0  0  0  0  0  0  0
  -24.9210  -15.3016   19.3841 C   0  0  0  0  0  0  0  0  0  0  0  0
  -29.6008  -24.2850   17.8028 C   0  0  0  0  0  0  0  0  0  0  0  0
  -27.2738  -25.6732   18.4291 C   0  0  0  0  0  0  0  0  0  0  0  0
  -23.2426  -28.4211   19.0629 C   0  0  0  0  0  0  0  0  0  0  0  0
  -27.1867  -13.9841   20.3401 C   0  0  0  0  0  0  0  0  0  0  0  0
  -24.8453  -13.9563   19.7449 C   0  0  0  0  0  0  0  0  0  0  0  0
  -22.0075  -27.8777   19.4139 C   0  0  0  0  0  0  0  0  0  0  0  0
  -25.6812  -10.9688   18.4047 C   0  0  0  0  0  0  0  0  0  0  0  0
  -25.0102  -10.1042   17.5400 C   0  0  0  0  0  0  0  0  0  0  0  0
  -22.3195  -28.6471   21.6788 C   0  0  0  0  0  0  0  0  0  0  0  0
  -20.0062  -22.1390   20.4584 C   0  0  0  0  0  0  0  0  0  0  0  0
  -23.4506   -9.5533   19.3011 C   0  0  0  0  0  0  0  0  0  0  0  0
  -20.6925  -23.9189   21.6546 C   0  0  0  0  0  0  0  0  0  0  0  0
  -26.1296  -15.9881   19.5012 C   0  0  0  0  0  0  0  0  0  0  0  0
  -26.5229  -17.9019   17.8610 C   0  0  0  0  0  0  0  0  0  0  0  0
  -29.5599  -25.0755   18.9632 C   0  0  0  0  0  0  0  0  0  0  0  0
  -24.0316  -29.0731   20.0214 C   0  0  0  0  0  0  0  0  0  0  0  0
  -28.3937  -25.8057   19.2699 C   0  0  0  0  0  0  0  0  0  0  0  0
  -23.5630  -29.2001   21.3369 C   0  0  0  0  0  0  0  0  0  0  0  0
  -21.1169  -22.7252   21.1141 C   0  0  0  0  0  0  0  0  0  0  0  0
  -25.9781  -13.2976   20.2229 C   0  0  0  0  0  0  0  0  0  0  0  0
  -21.5471  -27.9881   20.7227 C   0  0  0  0  0  0  0  0  0  0  0  0
  -25.2371  -11.1256   19.7177 C   0  0  0  0  0  0  0  0  0  0  0  0
  -23.8949   -9.3965   17.9882 C   0  0  0  0  0  0  0  0  0  0  0  0
  -24.1217  -10.4178   20.1659 C   0  0  0  0  0  0  0  0  0  0  0  0
  -26.2071  -17.3779   19.1288 C   0  0  0  0  0  0  0  0  0  0  0  0
  -18.9369  -22.9926   20.6180 C   0  0  0  0  0  0  0  0  0  0  0  0
  -26.4635  -19.2639   18.0278 C   0  0  0  0  0  0  0  0  0  0  0  0
  -26.8414  -17.2185   16.6414 C   0  0  0  0  0  0  0  0  0  0  0  0
  -17.6033  -22.8220   20.1279 C   0  0  0  0  0  0  0  0  0  0  0  0
  -26.9155  -28.5807   21.2641 C   0  0  0  0  0  0  0  0  0  0  0  0
  -26.3513  -31.4296   22.7091 C   0  0  0  0  0  0  0  0  0  0  0  0
  -24.0717  -33.7107   23.8257 C   0  0  0  0  0  0  0  0  0  0  0  0
  -23.5229  -22.7828   21.8586 C   0  0  0  0  0  0  0  0  0  0  0  0
  -30.7953  -25.1538   19.8252 C   0  0  0  0  0  0  0  0  0  0  0  0
  -25.3495  -29.6773   19.6206 C   0  0  0  0  0  0  0  0  0  0  0  0
  -24.3627  -29.9083   22.3987 C   0  0  0  0  0  0  0  0  0  0  0  0
  -30.5059  -25.6616   21.2340 C   0  0  0  0  0  0  0  0  0  0  0  0
  -27.0455  -22.6577   21.3561 C   0  0  0  0  0  0  0  0  0  0  0  0
  -29.6717  -26.9321   21.1675 C   0  0  0  0  0  0  0  0  0  0  0  0
  -27.2583  -21.3402   20.6072 C   0  0  0  0  0  0  0  0  0  0  0  0
  -25.9363  -22.5438   22.4003 C   0  0  0  0  0  0  0  0  0  0  0  0
  -24.8704  -20.7114   21.1451 C   0  0  0  0  0  0  0  0  0  0  0  0
  -28.3067  -26.6561   20.5243 C   0  0  1  0  0  0  0  0  0  0  0  0
  -26.3010  -29.8700   20.7974 C   0  0  1  0  0  0  0  0  0  0  0  0
  -25.9338  -20.7953   20.0379 C   0  0  2  0  0  0  0  0  0  0  0  0
  -23.9112  -35.9235   24.9983 C   0  0  0  0  0  0  0  0  0  0  0  0
  -15.7856  -23.0135   17.3765 C   0  0  0  0  0  0  0  0  0  0  0  0
  -26.9795  -30.0650   25.3649 C   0  0  0  0  0  0  0  0  0  0  0  0
  -25.9020  -31.9991   26.5338 C   0  0  0  0  0  0  0  0  0  0  0  0
  -27.9274  -32.3668   25.1249 C   0  0  0  0  0  0  0  0  0  0  0  0
  -22.7309  -34.9725   21.5085 C   0  0  0  0  0  0  0  0  0  0  0  0
  -15.6632  -19.3928   19.7939 C   0  0  0  0  0  0  0  0  0  0  0  0
  -16.5172  -18.0500   17.8786 C   0  0  0  0  0  0  0  0  0  0  0  0
  -18.3034  -26.2703   20.6337 C   0  0  0  0  0  0  0  0  0  0  0  0
  -18.5221  -25.2523   21.7550 C   0  0  0  0  0  0  0  0  0  0  0  0
  -16.1231  -20.4938   17.6079 C   0  0  0  0  0  0  0  0  0  0  0  0
  -19.6022  -26.8024   20.0392 C   0  0  0  0  0  0  0  0  0  1  0  0
  -25.7159  -31.8620   24.0084 C   0  0  1  0  0  0  0  0  0  0  0  0
  -23.9865  -35.2166   23.6539 C   0  0  2  0  0  0  0  0  0  0  0  0
  -16.1511  -21.8558   18.3005 C   0  0  1  0  0  0  0  0  0  0  0  0
  -26.6168  -31.5581   25.2387 C   0  0  0  0  0  0  0  0  0  0  0  0
  -25.9651  -18.3294   20.0344 N   0  0  0  0  0  0  0  0  0  0  0  0
  -19.3658  -24.0713   21.3464 N   0  0  0  0  0  0  0  0  0  0  0  0
  -26.1290  -19.4651   19.3347 N   0  0  0  0  0  0  0  0  0  0  0  0
  -25.6477  -30.4767   21.9590 N   0  0  0  0  0  0  0  0  0  0  0  0
  -24.7111  -22.0253   21.7879 N   0  0  0  0  0  0  0  0  0  0  0  0
  -26.6653  -20.2971   17.1827 N   0  0  0  0  0  0  0  0  0  0  0  0
  -26.8578  -15.8171   16.6454 N   0  0  0  0  0  0  0  0  0  0  0  0
  -22.4309  -22.2042   21.2126 N   0  0  0  0  0  0  0  0  0  0  0  0
  -17.4288  -22.0940   18.9325 N   0  0  0  0  0  0  0  0  0  0  0  0
  -27.6327  -27.9140   20.2891 N   0  0  0  0  0  0  0  0  0  0  0  0
  -25.3788  -33.2724   23.8485 N   0  0  0  0  0  0  0  0  0  0  0  0
  -22.7766  -35.5801   22.8634 N   0  3  0  0  0  0  0  0  0  0  0  0
  -16.5050  -19.4058   18.5413 N   0  3  0  0  0  0  0  0  0  0  0  0
  -27.1198  -17.8327   15.5837 O   0  0  0  0  0  0  0  0  0  0  0  0
  -16.6174  -23.3191   20.7262 O   0  0  0  0  0  0  0  0  0  0  0  0
  -26.7524  -28.2185   22.4234 O   0  0  0  0  0  0  0  0  0  0  0  0
  -27.4288  -31.9245   22.3687 O   0  0  0  0  0  0  0  0  0  0  0  0
  -23.0782  -32.9952   23.9328 O   0  0  0  0  0  0  0  0  0  0  0  0
  -23.4842  -23.8779   22.4254 O   0  0  0  0  0  0  0  0  0  0  0  0
  -25.9039  -11.9849   20.5748 O   0  0  0  0  0  0  0  0  0  0  0  0
  -20.3423  -27.4581   21.0681 O   0  0  0  0  0  0  0  0  0  1  0  0
  -23.2496   -8.5674   17.1572 F   0  0  0  0  0  0  0  0  0  0  0  0
  -23.6896  -10.5652   21.4258 F   0  0  0  0  0  0  0  0  0  0  0  0
  1  2  1  0  0  0  0
  1  5  2  0  0  0  0
  2  6  2  0  0  0  0
  3  8  2  0  0  0  0
  3 17  1  0  0  0  0
  4  9  1  0  0  0  0
  4 17  2  0  0  0  0
  5 19  1  0  0  0  0
  6 21  1  0  0  0  0
  7 10  2  0  0  0  0
  7 20  1  0  0  0  0
  8 24  1  0  0  0  0
  9 24  2  0  0  0  0
 10 25  1  0  0  0  0
 11 12  2  0  0  0  0
 11 26  1  0  0  0  0
 12 27  1  0  0  0  0
 13 22  1  0  0  0  0
 13 25  2  0  0  0  0
 14 23  1  0  0  0  0
 14 30  2  0  0  0  0
 15 27  2  0  0  0  0
 15 28  1  0  0  0  0
 16 23  2  0  0  0  0
 16 67  1  0  0  0  0
 17 29  1  0  0  0  0
 18 29  1  0  0  0  0
 18 31  2  0  0  0  0
 18 32  1  0  0  0  0
 19 21  2  0  0  0  0
 19 38  1  0  0  0  0
 20 22  2  0  0  0  0
 20 39  1  0  0  0  0
 21 47  1  0  0  0  0
 22 40  1  0  0  0  0
 23 73  1  0  0  0  0
 24 85  1  0  0  0  0
 25 86  1  0  0  0  0
 26 28  2  0  0  0  0
 26 85  1  0  0  0  0
 27 87  1  0  0  0  0
 28 88  1  0  0  0  0
 29 66  2  0  0  0  0
 30 33  1  0  0  0  0
 30 67  1  0  0  0  0
 31 68  1  0  0  0  0
 31 71  1  0  0  0  0
 32 72  1  0  0  0  0
 32 79  2  0  0  0  0
 33 74  1  0  0  0  0
 33 80  2  0  0  0  0
 34 48  1  0  0  0  0
 34 75  1  0  0  0  0
 34 81  2  0  0  0  0
 35 62  1  0  0  0  0
 35 69  1  0  0  0  0
 35 82  2  0  0  0  0
 36 63  1  0  0  0  0
 36 76  1  0  0  0  0
 36 83  2  0  0  0  0
 37 70  1  0  0  0  0
 37 73  1  0  0  0  0
 37 84  2  0  0  0  0
 38 41  1  0  0  0  0
 39 48  1  0  0  0  0
 40 69  1  0  0  0  0
 41 43  1  0  0  0  0
 42 44  1  0  0  0  0
 42 45  1  0  0  0  0
 43 47  1  0  0  0  0
 44 49  1  0  0  0  0
 45 70  1  0  0  0  0
 46 49  1  0  0  0  0
 46 70  1  0  0  0  0
 47 75  1  0  0  0  0
 48 69  1  0  0  0  0
 49 68  1  0  0  0  0
 50 63  1  0  0  0  0
 51 64  1  0  0  0  0
 52 65  1  0  0  0  0
 53 65  1  0  0  0  0
 54 65  1  0  0  0  0
 55 77  1  0  0  0  0
 56 78  1  0  0  0  0
 57 78  1  0  0  0  0
 58 59  1  0  0  0  0
 58 61  1  0  0  0  0
 59 67  1  0  0  0  0
 60 64  1  0  0  0  0
 60 78  1  0  0  0  0
 61 86  1  0  0  0  0
 62 65  1  0  0  0  0
 62 76  1  0  0  0  0
 63 77  1  0  0  0  0
 64 74  1  0  0  0  0
 66 68  1  0  0  0  0
M  CHG  2  77   1  78   1
M  ISO  4  37 100  61 101  73 100  86 101
M  END
> <Batch ID>
0109

> <Smiles>
CNC(C)C(=O)NC(C(=O)N1Cc2cc([101O:1][101CH2:1]CCn3cc([100NH:0][100C:0](=O)N4CCCC(n5nc(-c6ccc(Oc7ccc(F)cc7F)cc6)c(C(N)=O)c5N)C4)cc3C(=O)NC(C)CN(C)C)ccc2CC1C(=O)NC1CCCc2ccccc21)C(C)(C)C

> <Shape>
0.236

> <Color>
0.066

> <Negative vol penalty>
0.000

$$$$

  -OEChem-04052319563D

 81 89  0     1  0  0  0  0  0999 V2000
  -27.6840  -34.8426   23.6072 C   0  0  0  0  0  0  0  0  0  0  0  0
  -28.4934  -33.7563   23.2907 C   0  0  0  0  0  0  0  0  0  0  0  0
  -22.9333  -10.2270   20.0901 C   0  0  0  0  0  0  0  0  0  0  0  0
  -24.3764   -9.5567   21.9081 C   0  0  0  0  0  0  0  0  0  0  0  0
  -26.3275  -34.6481   23.8643 C   0  0  0  0  0  0  0  0  0  0  0  0
  -27.9471  -32.4747   23.2322 C   0  0  0  0  0  0  0  0  0  0  0  0
  -28.6412  -26.2645   19.7297 C   0  0  0  0  0  0  0  0  0  0  0  0
  -28.9348  -18.9624   22.2270 C   0  0  0  0  0  0  0  0  0  0  0  0
  -22.3051   -8.9824   20.1298 C   0  0  0  0  0  0  0  0  0  0  0  0
  -23.7481   -8.3120   21.9479 C   0  0  0  0  0  0  0  0  0  0  0  0
  -28.8026  -24.9016   19.9753 C   0  0  0  0  0  0  0  0  0  0  0  0
  -20.8730   -7.0126   23.1586 C   0  0  0  0  0  0  0  0  0  0  0  0
  -20.5230   -6.5047   24.4097 C   0  0  0  0  0  0  0  0  0  0  0  0
  -28.9672  -20.3357   22.0120 C   0  0  0  0  0  0  0  0  0  0  0  0
  -26.4302  -24.6962   20.3607 C   0  0  0  0  0  0  0  0  0  0  0  0
  -21.9316   -4.5804   24.0225 C   0  0  0  0  0  0  0  0  0  0  0  0
  -23.9691  -10.5142   20.9792 C   0  0  0  0  0  0  0  0  0  0  0  0
  -24.2577  -12.9579   21.6522 C   0  0  0  0  0  0  0  0  0  0  0  0
  -25.7622  -33.3648   23.7995 C   0  0  0  0  0  0  0  0  0  0  0  0
  -27.3725  -26.8565   19.8086 C   0  0  0  0  0  0  0  0  0  0  0  0
  -26.5820  -32.2627   23.4900 C   0  0  0  0  0  0  0  0  0  0  0  0
  -26.2550  -26.0663   20.1131 C   0  0  0  0  0  0  0  0  0  0  0  0
  -29.0686  -18.0925   21.1506 C   0  0  0  0  0  0  0  0  0  0  0  0
  -22.7124   -8.0248   21.0587 C   0  0  0  0  0  0  0  0  0  0  0  0
  -27.6975  -24.1178   20.2937 C   0  0  0  0  0  0  0  0  0  0  0  0
  -21.7523   -6.3043   22.3394 C   0  0  0  0  0  0  0  0  0  0  0  0
  -21.0523   -5.2886   24.8416 C   0  0  0  0  0  0  0  0  0  0  0  0
  -22.2816   -5.0882   22.7714 C   0  0  0  0  0  0  0  0  0  0  0  0
  -24.6189  -11.7996   20.9382 C   0  0  0  0  0  0  0  0  0  0  0  0
  -29.1342  -20.7849   20.7120 C   0  0  0  0  0  0  0  0  0  0  0  0
  -29.2308  -18.6421   19.8890 C   0  0  0  0  0  0  0  0  0  0  0  0
  -25.1806  -13.8998   21.2680 C   0  0  0  0  0  0  0  0  0  0  0  0
  -23.1840  -13.1639   22.5798 C   0  0  0  0  0  0  0  0  0  0  0  0
  -26.0632  -29.1235   21.6115 C   0  0  0  0  0  0  0  0  0  0  0  0
  -23.5439  -28.7167   19.6090 C   0  0  0  0  0  0  0  0  0  0  0  0
  -21.8624  -26.6835   17.4443 C   0  0  0  0  0  0  0  0  0  0  0  0
  -30.6968  -14.9746   20.4113 C   0  0  0  0  0  0  0  0  0  0  0  0
  -24.3006  -33.1977   24.1317 C   0  0  0  0  0  0  0  0  0  0  0  0
  -27.2113  -28.3228   19.5146 C   0  0  0  0  0  0  0  0  0  0  0  0
  -24.8685  -26.6496   20.1905 C   0  0  0  0  0  0  0  0  0  0  0  0
  -23.7229  -31.8582   23.6818 C   0  0  0  0  0  0  0  0  0  0  0  0
  -28.6129  -13.8533   17.5650 C   0  0  0  0  0  0  0  0  0  0  0  0
  -24.6551  -30.7162   24.0737 C   0  0  0  0  0  0  0  0  0  0  0  0
  -27.3935  -13.2516   18.2616 C   0  0  0  0  0  0  0  0  0  0  0  0
  -29.8652  -13.7584   18.4312 C   0  0  0  0  0  0  0  0  0  0  0  0
  -28.4866  -13.7487   20.4839 C   0  0  0  0  0  0  0  0  0  0  0  0
  -26.0213  -30.8605   23.3924 C   0  0  1  0  0  0  0  0  0  0  0  0
  -25.9480  -28.9197   20.1273 C   0  0  1  0  0  0  0  0  0  0  0  0
  -27.1979  -13.8702   19.6567 C   0  0  2  0  0  0  0  0  0  0  0  0
  -29.3825  -17.7562   18.6962 C   0  0  0  0  0  0  0  0  0  0  0  0
  -19.8166  -26.6145   15.9927 C   0  0  0  0  0  0  0  0  0  0  0  0
  -21.8064  -28.2977   22.0819 C   0  0  0  0  0  0  0  0  0  0  0  0
  -20.0484  -27.3151   20.5946 C   0  0  0  0  0  0  0  0  0  0  0  0
  -20.7530  -29.6887   20.2902 C   0  0  0  0  0  0  0  0  0  0  0  0
  -31.4227  -16.7349   21.9778 C   0  0  0  0  0  0  0  0  0  0  0  0
  -23.4747  -26.3169   14.9897 C   0  0  0  0  0  0  0  0  0  0  0  0
  -29.0335  -16.6203   21.3745 C   0  0  0  0  0  0  0  0  0  0  0  0
  -29.1754  -22.2606   20.4437 C   0  0  0  0  0  0  0  0  0  1  0  0
  -22.3212  -27.8313   19.5952 C   0  0  1  0  0  0  0  0  0  0  0  0
  -21.3020  -26.9344   16.0560 C   0  0  2  0  0  0  0  0  0  0  0  0
  -21.2585  -28.2723   20.6410 C   0  0  0  0  0  0  0  0  0  0  0  0
  -25.6877  -11.9863   20.1593 N   0  0  0  0  0  0  0  0  0  0  0  0
  -29.2673  -19.9706   19.6411 N   0  0  0  0  0  0  0  0  0  0  0  0
  -26.0061  -13.2729   20.3816 N   0  0  0  0  0  0  0  0  0  0  0  0
  -24.7633  -28.0893   19.9010 N   0  0  0  0  0  0  0  0  0  0  0  0
  -29.6385  -14.3143   19.7657 N   0  0  0  0  0  0  0  0  0  0  0  0
  -25.3584  -15.1948   21.6053 N   0  0  0  0  0  0  0  0  0  0  0  0
  -22.3290  -12.0897   22.8615 N   0  0  0  0  0  0  0  0  0  0  0  0
  -25.9432  -30.4413   22.0094 N   0  0  0  0  0  0  0  0  0  0  0  0
  -21.8379  -27.8241   18.2187 N   0  0  0  0  0  0  0  0  0  0  0  0
  -30.3599  -16.0126   21.2932 N   0  0  0  0  0  0  0  0  0  0  0  0
  -22.0080  -26.0891   15.0519 N   0  3  0  0  0  0  0  0  0  0  0  0
  -22.9788  -14.2725   23.1298 O   0  0  0  0  0  0  0  0  0  0  0  0
  -26.2459  -28.1565   22.3418 O   0  0  0  0  0  0  0  0  0  0  0  0
  -23.4226  -29.9192   19.3624 O   0  0  0  0  0  0  0  0  0  0  0  0
  -22.2768  -25.5847   17.8069 O   0  0  0  0  0  0  0  0  0  0  0  0
  -31.8759  -14.6609   20.2037 O   0  0  0  0  0  0  0  0  0  0  0  0
  -22.0994   -6.8103   21.0980 O   0  0  0  0  0  0  0  0  0  0  0  0
  -27.8523  -22.7874   20.5345 O   0  0  0  0  0  0  0  0  0  1  0  0
  -20.7173   -4.8018   26.0437 F   0  0  0  0  0  0  0  0  0  0  0  0
  -23.1277   -4.4039   21.9894 F   0  0  0  0  0  0  0  0  0  0  0  0
  1  2  1  0  0  0  0
  1  5  2  0  0  0  0
  2  6  2  0  0  0  0
  3  9  2  0  0  0  0
  3 17  1  0  0  0  0
  4 10  1  0  0  0  0
  4 17  2  0  0  0  0
  5 19  1  0  0  0  0
  6 21  1  0  0  0  0
  7 11  2  0  0  0  0
  7 20  1  0  0  0  0
  8 14  2  0  0  0  0
  8 23  1  0  0  0  0
  9 24  1  0  0  0  0
 10 24  2  0  0  0  0
 11 25  1  0  0  0  0
 12 13  2  0  0  0  0
 12 26  1  0  0  0  0
 13 27  1  0  0  0  0
 14 30  1  0  0  0  0
 15 22  1  0  0  0  0
 15 25  2  0  0  0  0
 16 27  2  0  0  0  0
 16 28  1  0  0  0  0
 17 29  1  0  0  0  0
 18 29  1  0  0  0  0
 18 32  2  0  0  0  0
 18 33  1  0  0  0  0
 19 21  2  0  0  0  0
 19 38  1  0  0  0  0
 20 22  2  0  0  0  0
 20 39  1  0  0  0  0
 21 47  1  0  0  0  0
 22 40  1  0  0  0  0
 23 31  2  0  0  0  0
 23 57  1  0  0  0  0
 24 78  1  0  0  0  0
 25 79  1  0  0  0  0
 26 28  2  0  0  0  0
 26 78  1  0  0  0  0
 27 80  1  0  0  0  0
 28 81  1  0  0  0  0
 29 62  2  0  0  0  0
 30 58  1  0  0  0  0
 30 63  2  0  0  0  0
 31 50  1  0  0  0  0
 31 63  1  0  0  0  0
 32 64  1  0  0  0  0
 32 67  1  0  0  0  0
 33 68  1  0  0  0  0
 33 73  2  0  0  0  0
 34 48  1  0  0  0  0
 34 69  1  0  0  0  0
 34 74  2  0  0  0  0
 35 59  1  0  0  0  0
 35 65  1  0  0  0  0
 35 75  2  0  0  0  0
 36 60  1  0  0  0  0
 36 70  1  0  0  0  0
 36 76  2  0  0  0  0
 37 66  1  0  0  0  0
 37 71  1  0  0  0  0
 37 77  2  0  0  0  0
 38 41  1  0  0  0  0
 39 48  1  0  0  0  0
 40 65  1  0  0  0  0
 41 43  1  0  0  0  0
 42 44  1  0  0  0  0
 42 45  1  0  0  0  0
 43 47  1  0  0  0  0
 44 49  1  0  0  0  0
 45 66  1  0  0  0  0
 46 49  1  0  0  0  0
 46 66  1  0  0  0  0
 47 69  1  0  0  0  0
 48 65  1  0  0  0  0
 49 64  1  0  0  0  0
 51 60  1  0  0  0  0
 52 61  1  0  0  0  0
 53 61  1  0  0  0  0
 54 61  1  0  0  0  0
 55 71  1  0  0  0  0
 56 72  1  0  0  0  0
 57 71  1  0  0  0  0
 58 79  1  0  0  0  0
 59 61  1  0  0  0  0
 59 70  1  0  0  0  0
 60 72  1  0  0  0  0
 62 64  1  0  0  0  0
M  CHG  1  72   1
M  ISO  4  37 100  58 101  71 100  79 101
M  END
> <Batch ID>
0109

> <Smiles>
CNC(C)C(=O)NC(C(=O)N1Cc2cc([101O:1][101CH2:1]c3ccc(C[100N:0](C)[100C:0](=O)N4CCCC(n5nc(-c6ccc(Oc7ccc(F)cc7F)cc6)c(C(N)=O)c5N)C4)c(C)n3)ccc2CC1C(=O)NC1CCCc2ccccc21)C(C)(C)C

> <Shape>
0.377

> <Color>
0.153

> <Negative vol penalty>
0.000

$$$$

  -OEChem-04052319563D

 80 88  0     1  0  0  0  0  0999 V2000
  -17.5939  -25.9093   23.1041 C   0  0  0  0  0  0  0  0  0  0  0  0
  -18.8492  -25.5226   22.6459 C   0  0  0  0  0  0  0  0  0  0  0  0
  -26.1861  -13.3632   20.4242 C   0  0  0  0  0  0  0  0  0  0  0  0
  -24.3846  -14.8863   19.9028 C   0  0  0  0  0  0  0  0  0  0  0  0
  -17.2111  -27.2483   23.0385 C   0  0  0  0  0  0  0  0  0  0  0  0
  -19.7222  -26.4748   22.1207 C   0  0  0  0  0  0  0  0  0  0  0  0
  -25.8270  -26.5359   22.6040 C   0  0  0  0  0  0  0  0  0  0  0  0
  -26.6016  -24.2742   16.2183 C   0  0  0  0  0  0  0  0  0  0  0  0
  -25.2832  -12.5144   21.0645 C   0  0  0  0  0  0  0  0  0  0  0  0
  -23.4817  -14.0375   20.5431 C   0  0  0  0  0  0  0  0  0  0  0  0
  -26.8407  -26.1336   21.7356 C   0  0  0  0  0  0  0  0  0  0  0  0
  -22.9823  -10.2005   20.1788 C   0  0  0  0  0  0  0  0  0  0  0  0
  -23.0745   -8.8348   19.9105 C   0  0  0  0  0  0  0  0  0  0  0  0
  -27.3751  -25.4010   16.4738 C   0  0  0  0  0  0  0  0  0  0  0  0
  -27.0618  -28.4041   20.9513 C   0  0  0  0  0  0  0  0  0  0  0  0
  -23.4863   -8.4027   22.2516 C   0  0  0  0  0  0  0  0  0  0  0  0
  -25.7368  -14.5492   19.8434 C   0  0  0  0  0  0  0  0  0  0  0  0
  -27.0422  -15.4038   17.8252 C   0  0  0  0  0  0  0  0  0  0  0  0
  -18.0835  -28.2188   22.5212 C   0  0  0  0  0  0  0  0  0  0  0  0
  -25.4148  -27.8756   22.6449 C   0  0  0  0  0  0  0  0  0  0  0  0
  -19.3502  -27.8279   22.0469 C   0  0  0  0  0  0  0  0  0  0  0  0
  -26.0443  -28.8213   21.8230 C   0  0  0  0  0  0  0  0  0  0  0  0
  -26.8138  -23.1115   16.9506 C   0  0  0  0  0  0  0  0  0  0  0  0
  -23.9310  -12.8516   21.1239 C   0  0  0  0  0  0  0  0  0  0  0  0
  -27.4563  -27.0671   20.9070 C   0  0  0  0  0  0  0  0  0  0  0  0
  -23.1422  -10.6674   21.4835 C   0  0  0  0  0  0  0  0  0  0  0  0
  -23.3264   -7.9359   20.9469 C   0  0  0  0  0  0  0  0  0  0  0  0
  -23.3942   -9.7685   22.5199 C   0  0  0  0  0  0  0  0  0  0  0  0
  -26.6691  -15.4267   19.1824 C   0  0  0  0  0  0  0  0  0  0  0  0
  -28.3401  -25.3143   17.4643 C   0  0  0  0  0  0  0  0  0  0  0  0
  -27.8040  -23.1272   17.9196 C   0  0  0  0  0  0  0  0  0  0  0  0
  -27.9456  -16.4307   17.7000 C   0  0  0  0  0  0  0  0  0  0  0  0
  -26.6107  -14.5321   16.7717 C   0  0  0  0  0  0  0  0  0  0  0  0
  -22.6921  -29.4041   22.0495 C   0  0  0  0  0  0  0  0  0  0  0  0
  -24.3352  -31.9632   23.1781 C   0  0  0  0  0  0  0  0  0  0  0  0
  -27.3566  -33.4415   23.7543 C   0  0  0  0  0  0  0  0  0  0  0  0
  -28.9692  -21.7577   19.6841 C   0  0  0  0  0  0  0  0  0  0  0  0
  -17.6072  -29.6468   22.4270 C   0  0  0  0  0  0  0  0  0  0  0  0
  -24.3382  -28.2985   23.6064 C   0  0  0  0  0  0  0  0  0  0  0  0
  -25.6526  -30.2755   21.8433 C   0  0  0  0  0  0  0  0  0  0  0  0
  -18.7344  -30.6513   22.2020 C   0  0  0  0  0  0  0  0  0  0  0  0
  -30.8199  -18.9464   20.8454 C   0  0  0  0  0  0  0  0  0  0  0  0
  -19.6735  -30.1627   21.1037 C   0  0  0  0  0  0  0  0  0  0  0  0
  -29.9759  -17.7489   20.4030 C   0  0  0  0  0  0  0  0  0  0  0  0
  -29.9493  -20.1242   21.2798 C   0  0  0  0  0  0  0  0  0  0  0  0
  -28.0940  -19.3453   19.8584 C   0  0  0  0  0  0  0  0  0  0  0  0
  -20.3346  -28.8351   21.4933 C   0  0  1  0  0  0  0  0  0  0  0  0
  -23.6452  -29.5940   23.1955 C   0  0  1  0  0  0  0  0  0  0  0  0
  -28.9267  -18.1570   19.3503 C   0  0  2  0  0  0  0  0  0  0  0  0
  -25.9823  -21.9054   16.6737 C   0  0  0  0  0  0  0  0  0  0  0  0
  -28.3787  -35.5499   24.6529 C   0  0  0  0  0  0  0  0  0  0  0  0
  -23.5915  -33.4189   20.6017 C   0  0  0  0  0  0  0  0  0  0  0  0
  -25.3781  -35.0958   21.1157 C   0  0  0  0  0  0  0  0  0  0  0  0
  -23.4465  -34.8180   22.6695 C   0  0  0  0  0  0  0  0  0  0  0  0
  -28.7711  -31.9778   25.9027 C   0  0  0  0  0  0  0  0  0  0  0  0
  -29.1982  -26.5182   17.7687 C   0  0  0  0  0  0  0  0  0  0  0  0
  -28.5849  -27.4109   18.8420 C   0  0  0  0  0  0  0  0  0  1  0  0
  -25.2210  -33.0202   22.5642 C   0  0  1  0  0  0  0  0  0  0  0  0
  -27.9202  -34.1373   24.9801 C   0  0  2  0  0  0  0  0  0  0  0  0
  -24.4155  -34.0605   21.7358 C   0  0  0  0  0  0  0  0  0  0  0  0
  -27.2852  -16.3917   19.8703 N   0  0  0  0  0  0  0  0  0  0  0  0
  -28.5753  -24.2024   18.1964 N   0  0  0  0  0  0  0  0  0  0  0  0
  -28.0547  -16.9846   18.9416 N   0  0  0  0  0  0  0  0  0  0  0  0
  -24.5905  -30.6385   22.7960 N   0  0  0  0  0  0  0  0  0  0  0  0
  -28.9825  -20.4572   20.2314 N   0  0  0  0  0  0  0  0  0  0  0  0
  -28.6495  -16.9050   16.6502 N   0  0  0  0  0  0  0  0  0  0  0  0
  -25.6778  -13.5306   17.0732 N   0  0  0  0  0  0  0  0  0  0  0  0
  -28.0289  -21.9477   18.6719 N   0  0  0  0  0  0  0  0  0  0  0  0
  -21.4097  -29.0630   22.4349 N   0  0  0  0  0  0  0  0  0  0  0  0
  -25.9896  -33.5966   23.6622 N   0  0  0  0  0  0  0  0  0  0  0  0
  -29.0845  -33.3779   25.5174 N   0  3  0  0  0  0  0  0  0  0  0  0
  -27.0522  -14.6277   15.6015 O   0  0  0  0  0  0  0  0  0  0  0  0
  -23.0903  -29.5572   20.9007 O   0  0  0  0  0  0  0  0  0  0  0  0
  -23.4539  -32.2996   23.9730 O   0  0  0  0  0  0  0  0  0  0  0  0
  -28.0594  -32.8254   22.9561 O   0  0  0  0  0  0  0  0  0  0  0  0
  -29.7538  -22.6301   20.0650 O   0  0  0  0  0  0  0  0  0  0  0  0
  -23.0496  -12.0234   21.7483 O   0  0  0  0  0  0  0  0  0  0  0  0
  -28.4456  -26.6770   20.0579 O   0  0  0  0  0  0  0  0  0  1  0  0
  -23.4134   -6.6243   20.6894 F   0  0  0  0  0  0  0  0  0  0  0  0
  -23.5475  -10.2109   23.7755 F   0  0  0  0  0  0  0  0  0  0  0  0
  1  2  1  0  0  0  0
  1  5  2  0  0  0  0
  2  6  2  0  0  0  0
  3  9  2  0  0  0  0
  3 17  1  0  0  0  0
  4 10  1  0  0  0  0
  4 17  2  0  0  0  0
  5 19  1  0  0  0  0
  6 21  1  0  0  0  0
  7 11  2  0  0  0  0
  7 20  1  0  0  0  0
  8 14  2  0  0  0  0
  8 23  1  0  0  0  0
  9 24  1  0  0  0  0
 10 24  2  0  0  0  0
 11 25  1  0  0  0  0
 12 13  2  0  0  0  0
 12 26  1  0  0  0  0
 13 27  1  0  0  0  0
 14 30  1  0  0  0  0
 15 22  1  0  0  0  0
 15 25  2  0  0  0  0
 16 27  2  0  0  0  0
 16 28  1  0  0  0  0
 17 29  1  0  0  0  0
 18 29  1  0  0  0  0
 18 32  2  0  0  0  0
 18 33  1  0  0  0  0
 19 21  2  0  0  0  0
 19 38  1  0  0  0  0
 20 22  2  0  0  0  0
 20 39  1  0  0  0  0
 21 47  1  0  0  0  0
 22 40  1  0  0  0  0
 23 31  2  0  0  0  0
 23 50  1  0  0  0  0
 24 77  1  0  0  0  0
 25 78  1  0  0  0  0
 26 28  2  0  0  0  0
 26 77  1  0  0  0  0
 27 79  1  0  0  0  0
 28 80  1  0  0  0  0
 29 61  2  0  0  0  0
 30 56  1  0  0  0  0
 30 62  2  0  0  0  0
 31 62  1  0  0  0  0
 31 68  1  0  0  0  0
 32 63  1  0  0  0  0
 32 66  1  0  0  0  0
 33 67  1  0  0  0  0
 33 72  2  0  0  0  0
 34 48  1  0  0  0  0
 34 69  1  0  0  0  0
 34 73  2  0  0  0  0
 35 58  1  0  0  0  0
 35 64  1  0  0  0  0
 35 74  2  0  0  0  0
 36 59  1  0  0  0  0
 36 70  1  0  0  0  0
 36 75  2  0  0  0  0
 37 65  1  0  0  0  0
 37 68  1  0  0  0  0
 37 76  2  0  0  0  0
 38 41  1  0  0  0  0
 39 48  1  0  0  0  0
 40 64  1  0  0  0  0
 41 43  1  0  0  0  0
 42 44  1  0  0  0  0
 42 45  1  0  0  0  0
 43 47  1  0  0  0  0
 44 49  1  0  0  0  0
 45 65  1  0  0  0  0
 46 49  1  0  0  0  0
 46 65  1  0  0  0  0
 47 69  1  0  0  0  0
 48 64  1  0  0  0  0
 49 63  1  0  0  0  0
 51 59  1  0  0  0  0
 52 60  1  0  0  0  0
 53 60  1  0  0  0  0
 54 60  1  0  0  0  0
 55 71  1  0  0  0  0
 56 57  1  0  0  0  0
 57 78  1  0  0  0  0
 58 60  1  0  0  0  0
 58 70  1  0  0  0  0
 59 71  1  0  0  0  0
 61 63  1  0  0  0  0
M  CHG  1  71   1
M  ISO  4  37 100  57 101  68 100  78 101
M  END
> <Batch ID>
0109

> <Smiles>
CNC(C)C(=O)NC(C(=O)N1Cc2cc([101O:1][101CH2:1]Cc3ccc(C)c([100NH:0][100C:0](=O)N4CCCC(n5nc(-c6ccc(Oc7ccc(F)cc7F)cc6)c(C(N)=O)c5N)C4)n3)ccc2CC1C(=O)NC1CCCc2ccccc21)C(C)(C)C

> <Shape>
0.300

> <Color>
0.107

> <Negative vol penalty>
0.000

$$$$

  -OEChem-04052319563D

 84 92  0     1  0  0  0  0  0999 V2000
  -32.3152  -13.7201   21.0293 C   0  0  0  0  0  0  0  0  0  0  0  0
  -31.5762  -14.8479   21.3719 C   0  0  0  0  0  0  0  0  0  0  0  0
  -25.7723  -26.7328   20.6865 C   0  0  0  0  0  0  0  0  0  0  0  0
  -26.6220  -28.2638   19.0217 C   0  0  0  0  0  0  0  0  0  0  0  0
  -31.7158  -12.6878   20.3089 C   0  0  0  0  0  0  0  0  0  0  0  0
  -30.2376  -14.9444   20.9935 C   0  0  0  0  0  0  0  0  0  0  0  0
  -25.7030  -17.5938   24.1437 C   0  0  0  0  0  0  0  0  0  0  0  0
  -25.0145  -27.7616   21.2458 C   0  0  0  0  0  0  0  0  0  0  0  0
  -25.8641  -29.2926   19.5810 C   0  0  0  0  0  0  0  0  0  0  0  0
  -25.1044  -18.8494   24.0496 C   0  0  0  0  0  0  0  0  0  0  0  0
  -22.1094  -29.3597   20.5824 C   0  0  0  0  0  0  0  0  0  0  0  0
  -20.7838  -29.0812   20.9150 C   0  0  0  0  0  0  0  0  0  0  0  0
  -23.3572  -17.9072   22.6791 C   0  0  0  0  0  0  0  0  0  0  0  0
  -21.2494  -29.6212   23.2234 C   0  0  0  0  0  0  0  0  0  0  0  0
  -26.5761  -26.9839   19.5745 C   0  0  0  0  0  0  0  0  0  0  0  0
  -28.3654  -25.1665   19.6288 C   0  0  0  0  0  0  0  0  0  0  0  0
  -30.3666  -12.7674   19.9298 C   0  0  0  0  0  0  0  0  0  0  0  0
  -25.1381  -16.4857   23.4961 C   0  0  0  0  0  0  0  0  0  0  0  0
  -29.6200  -13.9127   20.2662 C   0  0  0  0  0  0  0  0  0  0  0  0
  -23.9491  -16.6381   22.7686 C   0  0  0  0  0  0  0  0  0  0  0  0
  -25.0604  -29.0415   20.6931 C   0  0  0  0  0  0  0  0  0  0  0  0
  -23.9330  -19.0069   23.3148 C   0  0  0  0  0  0  0  0  0  0  0  0
  -23.0052  -29.7688   21.5704 C   0  0  0  0  0  0  0  0  0  0  0  0
  -20.3537  -29.2120   22.2354 C   0  0  0  0  0  0  0  0  0  0  0  0
  -22.5751  -29.8996   22.8908 C   0  0  0  0  0  0  0  0  0  0  0  0
  -27.3596  -25.9217   18.9966 C   0  0  0  0  0  0  0  0  0  0  0  0
  -28.7980  -24.2927   18.6614 C   0  0  0  0  0  0  0  0  0  0  0  0
  -28.8640  -25.2475   20.9707 C   0  0  0  0  0  0  0  0  0  0  0  0
  -26.0955  -14.4947   21.2107 C   0  0  0  0  0  0  0  0  0  0  0  0
  -23.3317  -12.9574   21.9322 C   0  0  0  0  0  0  0  0  0  0  0  0
  -20.1802  -13.1197   23.2315 C   0  0  0  0  0  0  0  0  0  0  0  0
  -26.3486  -21.9437   13.8490 C   0  0  0  0  0  0  0  0  0  0  0  0
  -29.7753  -11.6473   19.1110 C   0  0  0  0  0  0  0  0  0  0  0  0
  -25.7814  -15.1326   23.6294 C   0  0  0  0  0  0  0  0  0  0  0  0
  -23.2915  -15.4762   22.0714 C   0  0  0  0  0  0  0  0  0  0  0  0
  -28.2493  -11.6608   19.0725 C   0  0  0  0  0  0  0  0  0  0  0  0
  -29.2421  -23.8535   13.9266 C   0  0  0  0  0  0  0  0  0  0  0  0
  -27.7349  -13.0687   18.7897 C   0  0  0  0  0  0  0  0  0  0  0  0
  -29.1955  -24.5360   15.2930 C   0  0  0  0  0  0  0  0  0  0  0  0
  -24.2243  -22.4537   16.5903 C   0  0  0  0  0  0  0  0  0  0  0  0
  -25.7291  -20.4507   16.9647 C   0  0  0  0  0  0  0  0  0  0  0  0
  -24.2673  -22.7645   18.0870 C   0  0  0  0  0  0  0  0  0  0  0  0
  -25.7719  -20.7634   18.4610 C   0  0  0  0  0  0  0  0  0  0  0  0
  -27.8594  -23.8219   13.2865 C   0  0  0  0  0  0  0  0  0  0  0  0
  -26.7610  -23.8248   15.5034 C   0  0  0  0  0  0  0  0  0  0  0  0
  -28.1587  -14.0433   19.8953 C   0  0  1  0  0  0  0  0  0  0  0  0
  -25.3999  -14.1761   22.5039 C   0  0  1  0  0  0  0  0  0  0  0  0
  -28.1365  -23.8837   16.1990 C   0  0  2  0  0  0  0  0  0  0  0  0
  -25.4866  -21.7156   16.1354 C   0  0  0  0  0  0  0  0  0  0  0  0
  -24.5059  -21.4948   18.9004 C   0  0  0  0  0  0  0  0  0  0  0  0
  -18.1467  -11.7098   23.6496 C   0  0  0  0  0  0  0  0  0  0  0  0
  -23.5860  -20.6944   13.2402 C   0  0  0  0  0  0  0  0  0  0  0  0
  -25.3044  -19.0449   14.0463 C   0  0  0  0  0  0  0  0  0  0  0  0
  -22.6192  -13.1108   18.9693 C   0  0  0  0  0  0  0  0  0  0  0  0
  -20.2511  -12.5775   19.5826 C   0  0  0  0  0  0  0  0  0  0  0  0
  -22.0632  -10.9323   20.0645 C   0  0  0  0  0  0  0  0  0  0  0  0
  -20.3455  -13.5427   26.1560 C   0  0  0  0  0  0  0  0  0  0  0  0
  -23.5802  -22.4994   22.4752 C   0  0  0  0  0  0  0  0  0  0  0  0
  -23.3492  -22.1512   21.0124 C   0  0  0  0  0  0  0  0  0  0  0  0
  -24.2063  -21.3692   23.2830 C   0  0  0  0  0  0  0  0  0  1  0  0
  -21.9039  -13.0417   21.4491 C   0  0  1  0  0  0  0  0  0  0  0  0
  -19.4536  -12.2320   24.2259 C   0  0  2  0  0  0  0  0  0  0  0  0
  -24.5051  -20.2957   14.3881 C   0  0  0  0  0  0  0  0  0  0  0  0
  -21.7225  -12.4380   20.0278 C   0  0  0  0  0  0  0  0  0  0  0  0
  -27.1648  -25.5596   17.7258 N   0  0  0  0  0  0  0  0  0  0  0  0
  -28.0543  -24.5673   17.5516 N   0  0  0  0  0  0  0  0  0  0  0  0
  -23.9621  -14.1747   22.2263 N   0  0  0  0  0  0  0  0  0  0  0  0
  -26.8780  -23.2008   14.1764 N   0  0  0  0  0  0  0  0  0  0  0  0
  -29.7383  -23.3241   18.6603 N   0  0  0  0  0  0  0  0  0  0  0  0
  -28.2520  -24.4648   21.9592 N   0  0  0  0  0  0  0  0  0  0  0  0
  -27.3223  -13.8759   21.0644 N   0  0  0  0  0  0  0  0  0  0  0  0
  -21.0870  -12.4058   22.4771 N   0  0  0  0  0  0  0  0  0  0  0  0
  -25.4047  -21.3956   14.7307 N   0  0  0  0  0  0  0  0  0  0  0  0
  -24.6350  -21.8602   20.3360 N   0  3  0  0  0  0  0  0  0  0  0  0
  -19.1479  -12.9914   25.4712 N   0  3  0  0  0  0  0  0  0  0  0  0
  -29.8132  -26.0041   21.2869 O   0  0  0  0  0  0  0  0  0  0  0  0
  -25.5582  -15.2451   20.4045 O   0  0  0  0  0  0  0  0  0  0  0  0
  -23.8655  -11.8517   22.0512 O   0  0  0  0  0  0  0  0  0  0  0  0
  -19.9622  -14.3251   23.1314 O   0  0  0  0  0  0  0  0  0  0  0  0
  -26.6937  -21.3460   12.8215 O   0  0  0  0  0  0  0  0  0  0  0  0
  -24.3208  -30.0456   21.2385 O   0  0  0  0  0  0  0  0  0  0  0  0
  -23.3471  -20.2316   23.2208 O   0  0  0  0  0  0  0  0  0  1  0  0
  -19.0802  -28.9461   22.5544 F   0  0  0  0  0  0  0  0  0  0  0  0
  -23.4308  -30.2934   23.8441 F   0  0  0  0  0  0  0  0  0  0  0  0
  1  2  1  0  0  0  0
  1  5  2  0  0  0  0
  2  6  2  0  0  0  0
  3  8  2  0  0  0  0
  3 15  1  0  0  0  0
  4  9  1  0  0  0  0
  4 15  2  0  0  0  0
  5 17  1  0  0  0  0
  6 19  1  0  0  0  0
  7 10  2  0  0  0  0
  7 18  1  0  0  0  0
  8 21  1  0  0  0  0
  9 21  2  0  0  0  0
 10 22  1  0  0  0  0
 11 12  2  0  0  0  0
 11 23  1  0  0  0  0
 12 24  1  0  0  0  0
 13 20  1  0  0  0  0
 13 22  2  0  0  0  0
 14 24  2  0  0  0  0
 14 25  1  0  0  0  0
 15 26  1  0  0  0  0
 16 26  1  0  0  0  0
 16 27  2  0  0  0  0
 16 28  1  0  0  0  0
 17 19  2  0  0  0  0
 17 33  1  0  0  0  0
 18 20  2  0  0  0  0
 18 34  1  0  0  0  0
 19 46  1  0  0  0  0
 20 35  1  0  0  0  0
 21 81  1  0  0  0  0
 22 82  1  0  0  0  0
 23 25  2  0  0  0  0
 23 81  1  0  0  0  0
 24 83  1  0  0  0  0
 25 84  1  0  0  0  0
 26 65  2  0  0  0  0
 27 66  1  0  0  0  0
 27 69  1  0  0  0  0
 28 70  1  0  0  0  0
 28 76  2  0  0  0  0
 29 47  1  0  0  0  0
 29 71  1  0  0  0  0
 29 77  2  0  0  0  0
 30 61  1  0  0  0  0
 30 67  1  0  0  0  0
 30 78  2  0  0  0  0
 31 62  1  0  0  0  0
 31 72  1  0  0  0  0
 31 79  2  0  0  0  0
 32 68  1  0  0  0  0
 32 73  1  0  0  0  0
 32 80  2  0  0  0  0
 33 36  1  0  0  0  0
 34 47  1  0  0  0  0
 35 67  1  0  0  0  0
 36 38  1  0  0  0  0
 37 39  1  0  0  0  0
 37 44  1  0  0  0  0
 38 46  1  0  0  0  0
 39 48  1  0  0  0  0
 40 42  1  0  0  0  0
 40 49  1  0  0  0  0
 41 43  1  0  0  0  0
 41 49  1  0  0  0  0
 42 50  1  0  0  0  0
 43 50  1  0  0  0  0
 44 68  1  0  0  0  0
 45 48  1  0  0  0  0
 45 68  1  0  0  0  0
 46 71  1  0  0  0  0
 47 67  1  0  0  0  0
 48 66  1  0  0  0  0
 49 73  1  0  0  0  0
 50 74  1  0  0  0  0
 51 62  1  0  0  0  0
 52 63  1  0  0  0  0
 53 63  1  0  0  0  0
 54 64  1  0  0  0  0
 55 64  1  0  0  0  0
 56 64  1  0  0  0  0
 57 75  1  0  0  0  0
 58 59  1  0  0  0  0
 58 60  1  0  0  0  0
 59 74  1  0  0  0  0
 60 82  1  0  0  0  0
 61 64  1  0  0  0  0
 61 72  1  0  0  0  0
 62 75  1  0  0  0  0
 63 73  1  0  0  0  0
 65 66  1  0  0  0  0
M  CHG  2  74   1  75   1
M  ISO  4  32 100  60 101  73 100  82 101
M  END
> <Batch ID>
0109

> <Smiles>
CNC(C)C(=O)NC(C(=O)N1Cc2cc([101O:1][101CH2:1]CCNC3CCC([100N:0](C(C)C)[100C:0](=O)N4CCCC(n5nc(-c6ccc(Oc7ccc(F)cc7F)cc6)c(C(N)=O)c5N)C4)CC3)ccc2CC1C(=O)NC1CCCc2ccccc21)C(C)(C)C

> <Shape>
0.194

> <Color>
0.070

> <Negative vol penalty>
0.000

$$$$

  -OEChem-04052319563D

 85 93  0     1  0  0  0  0  0999 V2000
  -24.5685  -31.2833   21.6715 C   0  0  0  0  0  0  0  0  0  0  0  0
  -25.3584  -30.3761   22.3686 C   0  0  0  0  0  0  0  0  0  0  0  0
  -23.0036  -15.3659   22.2919 C   0  0  0  0  0  0  0  0  0  0  0  0
  -23.1024  -15.8479   19.9265 C   0  0  0  0  0  0  0  0  0  0  0  0
  -24.0972  -30.9591   20.4011 C   0  0  0  0  0  0  0  0  0  0  0  0
  -25.6870  -29.1493   21.7908 C   0  0  0  0  0  0  0  0  0  0  0  0
  -28.9530  -21.9213   21.2318 C   0  0  0  0  0  0  0  0  0  0  0  0
  -22.0888  -16.4045   22.4653 C   0  0  0  0  0  0  0  0  0  0  0  0
  -22.1875  -16.8865   20.0999 C   0  0  0  0  0  0  0  0  0  0  0  0
  -28.8746  -20.7158   20.5359 C   0  0  0  0  0  0  0  0  0  0  0  0
  -19.6034  -19.4327   19.8607 C   0  0  0  0  0  0  0  0  0  0  0  0
  -18.5559  -19.5349   18.9453 C   0  0  0  0  0  0  0  0  0  0  0  0
  -29.1404  -21.9066   18.4550 C   0  0  0  0  0  0  0  0  0  0  0  0
  -17.7972  -17.3270   19.5672 C   0  0  0  0  0  0  0  0  0  0  0  0
  -23.5105  -15.0877   21.0224 C   0  0  0  0  0  0  0  0  0  0  0  0
  -24.2589  -12.6513   21.1294 C   0  0  0  0  0  0  0  0  0  0  0  0
  -24.4104  -29.7224   19.8133 C   0  0  0  0  0  0  0  0  0  0  0  0
  -29.1151  -23.1317   20.5426 C   0  0  0  0  0  0  0  0  0  0  0  0
  -25.2408  -28.8134   20.4998 C   0  0  0  0  0  0  0  0  0  0  0  0
  -29.2232  -23.1259   19.1447 C   0  0  0  0  0  0  0  0  0  0  0  0
  -21.6807  -17.1647   21.3694 C   0  0  0  0  0  0  0  0  0  0  0  0
  -28.9654  -20.7086   19.1471 C   0  0  0  0  0  0  0  0  0  0  0  0
  -19.7479  -18.2776   20.6293 C   0  0  0  0  0  0  0  0  0  0  0  0
  -17.6528  -18.4820   18.7986 C   0  0  0  0  0  0  0  0  0  0  0  0
  -18.8447  -17.2248   20.4825 C   0  0  0  0  0  0  0  0  0  0  0  0
  -24.4560  -14.0154   20.8427 C   0  0  0  0  0  0  0  0  0  0  0  0
  -25.4466  -12.0531   20.7859 C   0  0  0  0  0  0  0  0  0  0  0  0
  -23.1052  -11.9844   21.6587 C   0  0  0  0  0  0  0  0  0  0  0  0
  -27.3964  -25.7886   20.2407 C   0  0  0  0  0  0  0  0  0  0  0  0
  -30.0118  -26.8330   18.6311 C   0  0  0  0  0  0  0  0  0  0  0  0
  -32.3293  -25.4862   16.2159 C   0  0  0  0  0  0  0  0  0  0  0  0
  -29.6401  -13.5700   16.9169 C   0  0  0  0  0  0  0  0  0  0  0  0
  -23.8802  -29.4263   18.4325 C   0  0  0  0  0  0  0  0  0  0  0  0
  -29.2247  -24.4209   21.3098 C   0  0  0  0  0  0  0  0  0  0  0  0
  -29.4179  -24.3961   18.3590 C   0  0  0  0  0  0  0  0  0  0  0  0
  -23.9091  -27.9402   18.0907 C   0  0  0  0  0  0  0  0  0  0  0  0
  -30.1346  -12.9566   20.4491 C   0  0  0  0  0  0  0  0  0  0  0  0
  -25.2808  -27.3614   18.4038 C   0  0  0  0  0  0  0  0  0  0  0  0
  -31.7261  -17.3535   17.3189 C   0  0  0  0  0  0  0  0  0  0  0  0
  -30.7184  -18.5394   15.3254 C   0  0  0  0  0  0  0  0  0  0  0  0
  -28.6999  -13.0309   20.9745 C   0  0  0  0  0  0  0  0  0  0  0  0
  -30.5842  -17.8618   18.1938 C   0  0  0  0  0  0  0  0  0  0  0  0
  -29.5796  -19.0450   16.2060 C   0  0  0  0  0  0  0  0  0  0  0  0
  -30.3722  -13.9809   19.3434 C   0  0  0  0  0  0  0  0  0  0  0  0
  -27.9873  -13.9584   18.7224 C   0  0  0  0  0  0  0  0  0  0  0  0
  -25.5859  -27.4605   19.9039 C   0  0  1  0  0  0  0  0  0  0  0  0
  -28.8743  -25.6465   20.4717 C   0  0  1  0  0  0  0  0  0  0  0  0
  -31.2965  -17.2183   15.8514 C   0  0  0  0  0  0  0  0  0  0  0  0
  -27.6772  -12.9320   19.8271 C   0  0  2  0  0  0  0  0  0  0  0  0
  -30.0098  -19.1737   17.6657 C   0  0  0  0  0  0  0  0  0  1  0  0
  -34.7208  -26.0805   15.7420 C   0  0  0  0  0  0  0  0  0  0  0  0
  -31.0928  -13.5086   12.1097 C   0  0  0  0  0  0  0  0  0  0  0  0
  -28.8297  -28.6777   16.5075 C   0  0  0  0  0  0  0  0  0  0  0  0
  -30.7420  -28.0663   15.0116 C   0  0  0  0  0  0  0  0  0  0  0  0
  -31.1761  -29.2264   17.1769 C   0  0  0  0  0  0  0  0  0  0  0  0
  -33.2216  -22.6909   16.6016 C   0  0  0  0  0  0  0  0  0  0  0  0
  -34.0559  -14.8467   14.8428 C   0  0  0  0  0  0  0  0  0  0  0  0
  -32.4692  -16.7604   14.9862 C   0  0  0  0  0  0  0  0  0  0  0  0
  -31.4090  -13.1977   15.2170 C   0  0  0  0  0  0  0  0  0  0  0  0
  -30.4648  -26.8003   17.1914 C   0  0  1  0  0  0  0  0  0  0  0  0
  -33.7827  -25.1205   16.4569 C   0  0  2  0  0  0  0  0  0  0  0  0
  -31.6283  -14.4859   14.4205 C   0  0  2  0  0  0  0  0  0  0  0  0
  -32.1070  -14.2472   12.9770 C   0  0  2  0  0  0  0  0  0  0  0  0
  -30.2861  -28.1725   16.4825 C   0  0  0  0  0  0  0  0  0  0  0  0
  -25.6732  -14.2691   20.3549 N   0  0  0  0  0  0  0  0  0  0  0  0
  -26.2517  -13.0563   20.3324 N   0  0  0  0  0  0  0  0  0  0  0  0
  -29.5129  -25.6316   19.1540 N   0  0  0  0  0  0  0  0  0  0  0  0
  -29.3769  -13.8208   18.2738 N   0  0  0  0  0  0  0  0  0  0  0  0
  -25.8705  -10.7722   20.8306 N   0  0  0  0  0  0  0  0  0  0  0  0
  -21.9694  -12.7495   21.9568 N   0  0  0  0  0  0  0  0  0  0  0  0
  -26.9676  -27.0975   20.1296 N   0  0  0  0  0  0  0  0  0  0  0  0
  -31.8388  -26.3101   17.2068 N   0  0  0  0  0  0  0  0  0  0  0  0
  -30.9820  -13.4603   16.5734 N   0  0  0  0  0  0  0  0  0  0  0  0
  -34.0581  -23.7409   15.9653 N   0  3  0  0  0  0  0  0  0  0  0  0
  -32.6534  -15.3066   15.1695 N   0  3  1  0  0  0  0  0  0  0  0  0
  -23.0880  -10.7492   21.8767 O   0  0  0  0  0  0  0  0  0  0  0  0
  -26.6972  -24.7849   20.1672 O   0  0  0  0  0  0  0  0  0  0  0  0
  -30.1042  -27.8839   19.2703 O   0  0  0  0  0  0  0  0  0  0  0  0
  -31.6937  -25.0845   15.2437 O   0  0  0  0  0  0  0  0  0  0  0  0
  -28.7447  -13.4473   16.0740 O   0  0  0  0  0  0  0  0  0  0  0  0
  -32.4306  -15.4910   12.3591 O   0  0  0  0  0  0  0  0  0  0  0  0
  -20.7879  -18.1781   21.5382 O   0  0  0  0  0  0  0  0  0  0  0  0
  -28.8885  -19.5333   18.4654 O   0  0  0  0  0  0  0  0  0  1  0  0
  -16.6461  -18.5809   17.9206 F   0  0  0  0  0  0  0  0  0  0  0  0
  -18.9777  -16.1131   21.2189 F   0  0  0  0  0  0  0  0  0  0  0  0
  1  2  1  0  0  0  0
  1  5  2  0  0  0  0
  2  6  2  0  0  0  0
  3  8  2  0  0  0  0
  3 15  1  0  0  0  0
  4  9  1  0  0  0  0
  4 15  2  0  0  0  0
  5 17  1  0  0  0  0
  6 19  1  0  0  0  0
  7 10  2  0  0  0  0
  7 18  1  0  0  0  0
  8 21  1  0  0  0  0
  9 21  2  0  0  0  0
 10 22  1  0  0  0  0
 11 12  2  0  0  0  0
 11 23  1  0  0  0  0
 12 24  1  0  0  0  0
 13 20  1  0  0  0  0
 13 22  2  0  0  0  0
 14 24  2  0  0  0  0
 14 25  1  0  0  0  0
 15 26  1  0  0  0  0
 16 26  1  0  0  0  0
 16 27  2  0  0  0  0
 16 28  1  0  0  0  0
 17 19  2  0  0  0  0
 17 33  1  0  0  0  0
 18 20  2  0  0  0  0
 18 34  1  0  0  0  0
 19 46  1  0  0  0  0
 20 35  1  0  0  0  0
 21 82  1  0  0  0  0
 22 83  1  0  0  0  0
 23 25  2  0  0  0  0
 23 82  1  0  0  0  0
 24 84  1  0  0  0  0
 25 85  1  0  0  0  0
 26 65  2  0  0  0  0
 27 66  1  0  0  0  0
 27 69  1  0  0  0  0
 28 70  1  0  0  0  0
 28 76  2  0  0  0  0
 29 47  1  0  0  0  0
 29 71  1  0  0  0  0
 29 77  2  0  0  0  0
 30 60  1  0  0  0  0
 30 67  1  0  0  0  0
 30 78  2  0  0  0  0
 31 61  1  0  0  0  0
 31 72  1  0  0  0  0
 31 79  2  0  0  0  0
 32 68  1  0  0  0  0
 32 73  1  0  0  0  0
 32 80  2  0  0  0  0
 33 36  1  0  0  0  0
 34 47  1  0  0  0  0
 35 67  1  0  0  0  0
 36 38  1  0  0  0  0
 37 41  1  0  0  0  0
 37 44  1  0  0  0  0
 38 46  1  0  0  0  0
 39 42  1  0  0  0  0
 39 48  1  0  0  0  0
 40 43  1  0  0  0  0
 40 48  1  0  0  0  0
 41 49  1  0  0  0  0
 42 50  1  0  0  0  0
 43 50  1  0  0  0  0
 44 68  1  0  0  0  0
 45 49  1  0  0  0  0
 45 68  1  0  0  0  0
 46 71  1  0  0  0  0
 47 67  1  0  0  0  0
 48 58  1  0  0  0  0
 49 66  1  0  0  0  0
 50 83  1  0  0  0  0
 51 61  1  0  0  0  0
 52 63  1  0  0  0  0
 53 64  1  0  0  0  0
 54 64  1  0  0  0  0
 55 64  1  0  0  0  0
 56 74  1  0  0  0  0
 57 75  1  0  0  0  0
 58 75  1  0  0  0  0
 59 62  1  0  0  0  0
 59 73  1  0  0  0  0
 60 64  1  0  0  0  0
 60 72  1  0  0  0  0
 61 74  1  0  0  0  0
 62 63  1  0  0  0  0
 62 75  1  0  0  0  0
 63 81  1  0  0  0  0
 65 66  1  0  0  0  0
M  CHG  2  74   1  75   1
M  ISO  4  32 100  50 101  73 100  83 101
M  END
> <Batch ID>
0109

> <Smiles>
CNC(C)C(=O)NC(C(=O)N1Cc2cc([101O:1][101CH:1]3CCC(CN(C)C(C[100NH:0][100C:0](=O)N4CCCC(n5nc(-c6ccc(Oc7ccc(F)cc7F)cc6)c(C(N)=O)c5N)C4)C(C)O)CC3)ccc2CC1C(=O)NC1CCCc2ccccc21)C(C)(C)C

> <Shape>
0.224

> <Color>
0.079

> <Negative vol penalty>
0.000

$$$$

  -OEChem-04052319563D

 88 96  0     1  0  0  0  0  0999 V2000
  -16.3894  -29.8067   23.4458 C   0  0  0  0  0  0  0  0  0  0  0  0
  -16.9680  -30.0421   22.2027 C   0  0  0  0  0  0  0  0  0  0  0  0
  -28.3730  -14.1166   19.5487 C   0  0  0  0  0  0  0  0  0  0  0  0
  -27.2252  -14.7343   21.5829 C   0  0  0  0  0  0  0  0  0  0  0  0
  -17.1824  -29.8001   24.5925 C   0  0  0  0  0  0  0  0  0  0  0  0
  -18.3399  -30.2721   22.1058 C   0  0  0  0  0  0  0  0  0  0  0  0
  -23.7485  -26.5508   17.8719 C   0  0  0  0  0  0  0  0  0  0  0  0
  -27.7072  -12.8909   19.5452 C   0  0  0  0  0  0  0  0  0  0  0  0
  -26.5594  -13.5086   21.5794 C   0  0  0  0  0  0  0  0  0  0  0  0
  -24.8196  -25.8713   17.2913 C   0  0  0  0  0  0  0  0  0  0  0  0
  -23.9257  -12.1110   19.9885 C   0  0  0  0  0  0  0  0  0  0  0  0
  -22.5557  -12.1187   20.2503 C   0  0  0  0  0  0  0  0  0  0  0  0
  -26.2841  -26.6571   19.0479 C   0  0  0  0  0  0  0  0  0  0  0  0
  -30.4344  -24.4681   20.1325 C   0  0  0  0  0  0  0  0  0  0  0  0
  -22.9150  -10.6986   22.1717 C   0  0  0  0  0  0  0  0  0  0  0  0
  -29.2898  -22.9056   22.0545 C   0  0  0  0  0  0  0  0  0  0  0  0
  -28.1320  -15.0383   20.5676 C   0  0  0  0  0  0  0  0  0  0  0  0
  -28.3965  -17.5040   19.9690 C   0  0  0  0  0  0  0  0  0  0  0  0
  -18.5662  -30.0205   24.5085 C   0  0  0  0  0  0  0  0  0  0  0  0
  -23.9379  -27.2743   19.0526 C   0  0  0  0  0  0  0  0  0  0  0  0
  -19.1520  -30.2698   23.2527 C   0  0  0  0  0  0  0  0  0  0  0  0
  -25.2121  -27.3294   19.6409 C   0  0  0  0  0  0  0  0  0  0  0  0
  -30.9069  -24.5371   21.4384 C   0  0  0  0  0  0  0  0  0  0  0  0
  -30.3291  -23.7442   22.4236 C   0  0  0  0  0  0  0  0  0  0  0  0
  -26.8004  -12.5869   20.5606 C   0  0  0  0  0  0  0  0  0  0  0  0
  -26.0843  -25.9246   17.8777 C   0  0  0  0  0  0  0  0  0  0  0  0
  -24.7904  -11.3971   20.8182 C   0  0  0  0  0  0  0  0  0  0  0  0
  -22.0503  -11.4126   21.3419 C   0  0  0  0  0  0  0  0  0  0  0  0
  -24.2850  -10.6909   21.9098 C   0  0  0  0  0  0  0  0  0  0  0  0
  -28.8199  -16.3044   20.5720 C   0  0  0  0  0  0  0  0  0  0  0  0
  -29.3905  -23.5969   19.8659 C   0  0  0  0  0  0  0  0  0  0  0  0
  -29.3927  -18.4041   20.2588 C   0  0  0  0  0  0  0  0  0  0  0  0
  -27.2090  -17.7800   19.2146 C   0  0  0  0  0  0  0  0  0  0  0  0
  -22.4059  -29.4192   21.7225 C   0  0  0  0  0  0  0  0  0  0  0  0
  -24.3479  -27.5025   23.1245 C   0  0  0  0  0  0  0  0  0  0  0  0
  -26.2614  -24.9458   24.3239 C   0  0  0  0  0  0  0  0  0  0  0  0
  -32.9924  -20.6870   23.8609 C   0  0  0  0  0  0  0  0  0  0  0  0
  -19.3751  -30.0508   25.7811 C   0  0  0  0  0  0  0  0  0  0  0  0
  -22.8267  -28.0718   19.6794 C   0  0  0  0  0  0  0  0  0  0  0  0
  -25.3768  -28.1485   20.8919 C   0  0  0  0  0  0  0  0  0  0  0  0
  -20.8792  -29.9315   25.5498 C   0  0  0  0  0  0  0  0  0  0  0  0
  -34.0031  -17.6957   22.2156 C   0  0  0  0  0  0  0  0  0  0  0  0
  -21.3225  -30.8649   24.4277 C   0  0  0  0  0  0  0  0  0  0  0  0
  -32.7091  -17.1632   21.5973 C   0  0  0  0  0  0  0  0  0  0  0  0
  -33.7531  -18.3471   23.5740 C   0  0  0  0  0  0  0  0  0  0  0  0
  -31.4238  -18.8649   22.9578 C   0  0  0  0  0  0  0  0  0  0  0  0
  -20.6405  -30.4988   23.1039 C   0  0  1  0  0  0  0  0  0  0  0  0
  -22.8917  -28.0925   21.2171 C   0  0  1  0  0  0  0  0  0  0  0  0
  -31.6166  -18.2488   21.5615 C   0  0  2  0  0  0  0  0  0  0  0  0
  -27.2970  -24.0786   14.6729 C   0  0  0  0  0  0  0  0  0  0  0  0
  -27.1435  -23.9831   26.4669 C   0  0  0  0  0  0  0  0  0  0  0  0
  -30.5344  -27.4654   22.2711 C   0  0  0  0  0  0  0  0  0  0  0  0
  -32.9617  -27.8153   21.7720 C   0  0  0  0  0  0  0  0  0  0  0  0
  -26.4146  -29.7408   23.2749 C   0  0  0  0  0  0  0  0  0  0  0  0
  -27.7893  -28.2747   24.7679 C   0  0  0  0  0  0  0  0  0  0  0  0
  -25.5141  -29.0013   25.4878 C   0  0  0  0  0  0  0  0  0  0  0  0
  -24.8570  -22.3781   23.8839 C   0  0  0  0  0  0  0  0  0  0  0  0
  -32.0308  -25.4659   21.7588 C   0  0  0  0  0  0  0  0  0  0  0  0
  -30.7963  -23.7786   23.8374 C   0  0  0  0  0  0  0  0  0  0  0  0
  -27.7703  -23.3839   15.9431 C   0  0  0  0  0  0  0  0  0  0  0  0
  -32.0889  -22.9882   24.0787 C   0  0  0  0  0  0  0  0  0  0  0  0
  -27.5301  -23.1797   18.4444 C   0  0  0  0  0  0  0  0  0  0  0  0
  -25.7418  -27.2769   23.6529 C   0  0  1  0  0  0  0  0  0  0  0  0
  -26.0217  -23.9460   25.4407 C   0  0  2  0  0  0  0  0  0  0  0  0
  -31.7324  -26.9563   21.4656 C   0  0  0  0  0  0  0  0  0  0  0  0
  -26.9924  -23.8402   17.1788 C   0  0  1  0  0  0  0  0  0  1  0  0
  -26.3573  -28.5645   24.2700 C   0  0  0  0  0  0  0  0  0  0  0  0
  -28.8038  -22.8112   20.7965 N   0  0  0  0  0  0  0  0  0  0  0  0
  -29.9937  -16.4278   21.1974 N   0  0  0  0  0  0  0  0  0  0  0  0
  -30.3164  -17.7157   20.9889 N   0  0  0  0  0  0  0  0  0  0  0  0
  -24.2363  -27.9232   21.7936 N   0  0  0  0  0  0  0  0  0  0  0  0
  -32.7077  -19.3680   23.4708 N   0  0  0  0  0  0  0  0  0  0  0  0
  -29.5599  -19.7094   19.9576 N   0  0  0  0  0  0  0  0  0  0  0  0
  -26.2903  -16.7412   19.0109 N   0  0  0  0  0  0  0  0  0  0  0  0
  -21.2746  -29.3404   22.5121 N   0  0  0  0  0  0  0  0  0  0  0  0
  -25.6501  -26.1547   24.5806 N   0  0  0  0  0  0  0  0  0  0  0  0
  -31.9479  -21.5933   23.7250 N   0  0  0  0  0  0  0  0  0  0  0  0
  -25.9348  -22.5642   24.8892 N   0  3  0  0  0  0  0  0  0  0  0  0
  -26.9774  -18.9098   18.7214 O   0  0  0  0  0  0  0  0  0  0  0  0
  -23.0128  -30.4399   21.4203 O   0  0  0  0  0  0  0  0  0  0  0  0
  -23.3825  -27.3170   23.8708 O   0  0  0  0  0  0  0  0  0  0  0  0
  -26.9278  -24.6820   23.3254 O   0  0  0  0  0  0  0  0  0  0  0  0
  -34.0974  -21.0326   24.2929 O   0  0  0  0  0  0  0  0  0  0  0  0
  -26.1504  -11.3911   20.5574 O   0  0  0  0  0  0  0  0  0  0  0  0
  -27.1247  -25.2552   17.3082 O   0  0  0  0  0  0  0  0  0  1  0  0
  -28.9070  -23.5113   18.5873 O   0  0  0  0  0  0  0  0  0  0  0  0
  -20.7348  -11.4213   21.5941 F   0  0  0  0  0  0  0  0  0  0  0  0
  -25.1109  -10.0042   22.7111 F   0  0  0  0  0  0  0  0  0  0  0  0
  1  2  1  0  0  0  0
  1  5  2  0  0  0  0
  2  6  2  0  0  0  0
  3  8  2  0  0  0  0
  3 17  1  0  0  0  0
  4  9  1  0  0  0  0
  4 17  2  0  0  0  0
  5 19  1  0  0  0  0
  6 21  1  0  0  0  0
  7 10  2  0  0  0  0
  7 20  1  0  0  0  0
  8 25  1  0  0  0  0
  9 25  2  0  0  0  0
 10 26  1  0  0  0  0
 11 12  2  0  0  0  0
 11 27  1  0  0  0  0
 12 28  1  0  0  0  0
 13 22  1  0  0  0  0
 13 26  2  0  0  0  0
 14 23  2  0  0  0  0
 14 31  1  0  0  0  0
 15 28  2  0  0  0  0
 15 29  1  0  0  0  0
 16 24  2  0  0  0  0
 16 68  1  0  0  0  0
 17 30  1  0  0  0  0
 18 30  1  0  0  0  0
 18 32  2  0  0  0  0
 18 33  1  0  0  0  0
 19 21  2  0  0  0  0
 19 38  1  0  0  0  0
 20 22  2  0  0  0  0
 20 39  1  0  0  0  0
 21 47  1  0  0  0  0
 22 40  1  0  0  0  0
 23 24  1  0  0  0  0
 23 58  1  0  0  0  0
 24 59  1  0  0  0  0
 25 84  1  0  0  0  0
 26 85  1  0  0  0  0
 27 29  2  0  0  0  0
 27 84  1  0  0  0  0
 28 87  1  0  0  0  0
 29 88  1  0  0  0  0
 30 69  2  0  0  0  0
 31 68  2  0  0  0  0
 31 86  1  0  0  0  0
 32 70  1  0  0  0  0
 32 73  1  0  0  0  0
 33 74  1  0  0  0  0
 33 79  2  0  0  0  0
 34 48  1  0  0  0  0
 34 75  1  0  0  0  0
 34 80  2  0  0  0  0
 35 63  1  0  0  0  0
 35 71  1  0  0  0  0
 35 81  2  0  0  0  0
 36 64  1  0  0  0  0
 36 76  1  0  0  0  0
 36 82  2  0  0  0  0
 37 72  1  0  0  0  0
 37 77  1  0  0  0  0
 37 83  2  0  0  0  0
 38 41  1  0  0  0  0
 39 48  1  0  0  0  0
 40 71  1  0  0  0  0
 41 43  1  0  0  0  0
 42 44  1  0  0  0  0
 42 45  1  0  0  0  0
 43 47  1  0  0  0  0
 44 49  1  0  0  0  0
 45 72  1  0  0  0  0
 46 49  1  0  0  0  0
 46 72  1  0  0  0  0
 47 75  1  0  0  0  0
 48 71  1  0  0  0  0
 49 70  1  0  0  0  0
 50 60  1  0  0  0  0
 51 64  1  0  0  0  0
 52 65  1  0  0  0  0
 53 65  1  0  0  0  0
 54 67  1  0  0  0  0
 55 67  1  0  0  0  0
 56 67  1  0  0  0  0
 57 78  1  0  0  0  0
 58 65  1  0  0  0  0
 59 61  1  0  0  0  0
 60 66  1  0  0  0  0
 61 77  1  0  0  0  0
 62 66  1  0  0  0  0
 62 86  1  0  0  0  0
 63 67  1  0  0  0  0
 63 76  1  0  0  0  0
 64 78  1  0  0  0  0
 66 85  1  0  0  0  0
 69 70  1  0  0  0  0
M  CHG  1  78   1
M  ISO  4  37 100  66 101  77 100  85 101
M  END
> <Batch ID>
0109

> <Smiles>
CC[101CH:1](COc1cc(CC(C)C)c(CC[100NH:0][100C:0](=O)N2CCCC(n3nc(-c4ccc(Oc5ccc(F)cc5F)cc4)c(C(N)=O)c3N)C2)cn1)[101O:1]c1ccc2c(c1)CN(C(=O)C(NC(=O)C(C)NC)C(C)(C)C)C(C(=O)NC1CCCc3ccccc31)C2

> <Shape>
0.232

> <Color>
0.074

> <Negative vol penalty>
0.000

$$$$

  -OEChem-04052319563D

 83 91  0     1  0  0  0  0  0999 V2000
  -16.9489  -30.6650   23.7546 C   0  0  0  0  0  0  0  0  0  0  0  0
  -18.1487  -31.0038   24.3718 C   0  0  0  0  0  0  0  0  0  0  0  0
  -26.8604  -15.0386   21.8584 C   0  0  0  0  0  0  0  0  0  0  0  0
  -26.1760  -15.0920   19.5420 C   0  0  0  0  0  0  0  0  0  0  0  0
  -16.8860  -29.5497   22.9203 C   0  0  0  0  0  0  0  0  0  0  0  0
  -19.2863  -30.2268   24.1558 C   0  0  0  0  0  0  0  0  0  0  0  0
  -26.4098  -30.7803   23.6398 C   0  0  0  0  0  0  0  0  0  0  0  0
  -26.7277  -13.6501   21.8656 C   0  0  0  0  0  0  0  0  0  0  0  0
  -26.0433  -13.7035   19.5492 C   0  0  0  0  0  0  0  0  0  0  0  0
  -27.5743  -30.2230   24.1661 C   0  0  0  0  0  0  0  0  0  0  0  0
  -23.7938  -11.4214   20.6275 C   0  0  0  0  0  0  0  0  0  0  0  0
  -22.6504  -10.8767   20.0432 C   0  0  0  0  0  0  0  0  0  0  0  0
  -27.3667  -28.3647   22.6420 C   0  0  0  0  0  0  0  0  0  0  0  0
  -26.2245  -24.8523   25.7891 C   0  0  0  0  0  0  0  0  0  0  0  0
  -24.0303   -9.6621   18.4755 C   0  0  0  0  0  0  0  0  0  0  0  0
  -27.9457  -25.1182   24.3620 C   0  0  0  0  0  0  0  0  0  0  0  0
  -26.5845  -15.7596   20.6966 C   0  0  0  0  0  0  0  0  0  0  0  0
  -27.8723  -17.9366   20.3654 C   0  0  0  0  0  0  0  0  0  0  0  0
  -18.0257  -28.7642   22.6863 C   0  0  0  0  0  0  0  0  0  0  0  0
  -25.7078  -30.1274   22.6163 C   0  0  0  0  0  0  0  0  0  0  0  0
  -19.2383  -29.0992   23.3186 C   0  0  0  0  0  0  0  0  0  0  0  0
  -26.1949  -28.9171   22.1026 C   0  0  0  0  0  0  0  0  0  0  0  0
  -26.7236  -24.5004   24.5108 C   0  0  0  0  0  0  0  0  0  0  0  0
  -26.3191  -12.9825   20.7110 C   0  0  0  0  0  0  0  0  0  0  0  0
  -28.0514  -29.0136   23.6692 C   0  0  0  0  0  0  0  0  0  0  0  0
  -25.0555  -11.0866   20.1358 C   0  0  0  0  0  0  0  0  0  0  0  0
  -22.7687   -9.9970   18.9672 C   0  0  0  0  0  0  0  0  0  0  0  0
  -25.1737  -10.2069   19.0598 C   0  0  0  0  0  0  0  0  0  0  0  0
  -26.7209  -17.1939   20.6887 C   0  0  0  0  0  0  0  0  0  0  0  0
  -27.1567  -25.6746   26.3826 C   0  0  0  0  0  0  0  0  0  0  0  0
  -27.4870  -19.2472   20.5086 C   0  0  0  0  0  0  0  0  0  0  0  0
  -29.1738  -17.4825   19.9708 C   0  0  0  0  0  0  0  0  0  0  0  0
  -22.7926  -28.8933   22.3297 C   0  0  0  0  0  0  0  0  0  0  0  0
  -23.6948  -28.4794   19.2415 C   0  0  0  0  0  0  0  0  0  0  0  0
  -26.2322  -28.1220   16.9875 C   0  0  0  0  0  0  0  0  0  0  0  0
  -24.8343  -23.0614   23.7660 C   0  0  0  0  0  0  0  0  0  0  0  0
  -17.8975  -27.5406   21.8139 C   0  0  0  0  0  0  0  0  0  0  0  0
  -24.4678  -30.7550   22.0410 C   0  0  0  0  0  0  0  0  0  0  0  0
  -25.4894  -28.1865   20.9904 C   0  0  0  0  0  0  0  0  0  0  0  0
  -19.2389  -26.9867   21.3406 C   0  0  0  0  0  0  0  0  0  0  0  0
  -22.9200  -21.3032   21.1478 C   0  0  0  0  0  0  0  0  0  0  0  0
  -20.2232  -26.9058   22.5032 C   0  0  0  0  0  0  0  0  0  0  0  0
  -23.8098  -20.1047   20.8224 C   0  0  0  0  0  0  0  0  0  0  0  0
  -23.0848  -21.7549   22.5959 C   0  0  0  0  0  0  0  0  0  0  0  0
  -25.3874  -20.8463   22.6518 C   0  0  0  0  0  0  0  0  0  0  0  0
  -20.4999  -28.2954   23.0895 C   0  0  1  0  0  0  0  0  0  0  0  0
  -23.5517  -29.7471   21.3538 C   0  0  1  0  0  0  0  0  0  0  0  0
  -25.2759  -20.3945   21.1878 C   0  0  1  0  0  0  0  0  0  0  0  0
  -27.1137  -25.3090   28.8762 C   0  0  0  0  0  0  0  0  0  0  0  0
  -25.9731  -27.3232   27.8777 C   0  0  0  0  0  0  0  0  0  0  0  0
  -26.6575  -27.7629   14.5406 C   0  0  0  0  0  0  0  0  0  0  0  0
  -30.2755  -28.9740   26.2542 C   0  0  0  0  0  0  0  0  0  0  0  0
  -22.9247  -25.5422   19.5411 C   0  0  0  0  0  0  0  0  0  0  0  0
  -24.2279  -25.0601   17.4585 C   0  0  0  0  0  0  0  0  0  0  0  0
  -22.2523  -26.5804   17.3676 C   0  0  0  0  0  0  0  0  0  0  0  0
  -26.6591  -23.6122   22.1734 C   0  0  0  0  0  0  0  0  0  0  0  0
  -27.6997  -30.6810   16.7485 C   0  0  0  0  0  0  0  0  0  0  0  0
  -29.4427  -26.6523   25.7446 C   0  0  0  0  0  0  0  0  0  0  0  0
  -27.1400  -26.3232   27.7097 C   0  0  0  0  0  0  0  0  0  0  0  0
  -24.3834  -27.3818   18.4668 C   0  0  1  0  0  0  0  0  0  0  0  0
  -26.4927  -28.7903   15.6497 C   0  0  2  0  0  0  0  0  0  0  0  0
  -29.1867  -28.1535   25.5738 C   0  0  2  0  0  0  0  0  0  1  0  0
  -23.4596  -26.1537   18.2308 C   0  0  0  0  0  0  0  0  0  0  0  0
  -25.6821  -17.9683   21.0130 N   0  0  0  0  0  0  0  0  0  0  0  0
  -28.1986  -25.8295   25.5059 N   0  0  0  0  0  0  0  0  0  0  0  0
  -26.1793  -19.2112   20.8943 N   0  0  0  0  0  0  0  0  0  0  0  0
  -24.2778  -28.8374   20.4653 N   0  0  0  0  0  0  0  0  0  0  0  0
  -24.4917  -21.9795   22.9302 N   0  0  0  0  0  0  0  0  0  0  0  0
  -28.1427  -20.4153   20.3411 N   0  0  0  0  0  0  0  0  0  0  0  0
  -29.3987  -16.1025   19.8733 N   0  0  0  0  0  0  0  0  0  0  0  0
  -21.4198  -29.0264   22.2445 N   0  0  0  0  0  0  0  0  0  0  0  0
  -24.8828  -27.9979   17.2423 N   0  0  0  0  0  0  0  0  0  0  0  0
  -26.0927  -23.6543   23.5255 N   0  0  0  0  0  0  0  0  0  0  0  0
  -27.7328  -29.6143   15.7150 N   0  3  0  0  0  0  0  0  0  0  0  0
  -30.1142  -18.2764   19.7283 O   0  0  0  0  0  0  0  0  0  0  0  0
  -23.4067  -28.1664   23.1017 O   0  0  0  0  0  0  0  0  0  0  0  0
  -22.6811  -29.0048   18.7745 O   0  0  0  0  0  0  0  0  0  0  0  0
  -27.1355  -27.7441   17.7304 O   0  0  0  0  0  0  0  0  0  0  0  0
  -24.0639  -23.4822   24.6373 O   0  0  0  0  0  0  0  0  0  0  0  0
  -26.1897  -11.6276   20.7176 O   0  0  0  0  0  0  0  0  0  0  0  0
  -29.1875  -28.4671   24.1816 O   0  0  0  0  0  0  0  0  0  1  0  0
  -21.6706   -9.4728   18.4071 F   0  0  0  0  0  0  0  0  0  0  0  0
  -26.3832   -9.8805   18.5839 F   0  0  0  0  0  0  0  0  0  0  0  0
  1  2  1  0  0  0  0
  1  5  2  0  0  0  0
  2  6  2  0  0  0  0
  3  8  2  0  0  0  0
  3 17  1  0  0  0  0
  4  9  1  0  0  0  0
  4 17  2  0  0  0  0
  5 19  1  0  0  0  0
  6 21  1  0  0  0  0
  7 10  2  0  0  0  0
  7 20  1  0  0  0  0
  8 24  1  0  0  0  0
  9 24  2  0  0  0  0
 10 25  1  0  0  0  0
 11 12  2  0  0  0  0
 11 26  1  0  0  0  0
 12 27  1  0  0  0  0
 13 22  1  0  0  0  0
 13 25  2  0  0  0  0
 14 23  1  0  0  0  0
 14 30  2  0  0  0  0
 15 27  2  0  0  0  0
 15 28  1  0  0  0  0
 16 23  2  0  0  0  0
 16 65  1  0  0  0  0
 17 29  1  0  0  0  0
 18 29  1  0  0  0  0
 18 31  2  0  0  0  0
 18 32  1  0  0  0  0
 19 21  2  0  0  0  0
 19 37  1  0  0  0  0
 20 22  2  0  0  0  0
 20 38  1  0  0  0  0
 21 46  1  0  0  0  0
 22 39  1  0  0  0  0
 23 73  1  0  0  0  0
 24 80  1  0  0  0  0
 25 81  1  0  0  0  0
 26 28  2  0  0  0  0
 26 80  1  0  0  0  0
 27 82  1  0  0  0  0
 28 83  1  0  0  0  0
 29 64  2  0  0  0  0
 30 59  1  0  0  0  0
 30 65  1  0  0  0  0
 31 66  1  0  0  0  0
 31 69  1  0  0  0  0
 32 70  1  0  0  0  0
 32 75  2  0  0  0  0
 33 47  1  0  0  0  0
 33 71  1  0  0  0  0
 33 76  2  0  0  0  0
 34 60  1  0  0  0  0
 34 67  1  0  0  0  0
 34 77  2  0  0  0  0
 35 61  1  0  0  0  0
 35 72  1  0  0  0  0
 35 78  2  0  0  0  0
 36 68  1  0  0  0  0
 36 73  1  0  0  0  0
 36 79  2  0  0  0  0
 37 40  1  0  0  0  0
 38 47  1  0  0  0  0
 39 67  1  0  0  0  0
 40 42  1  0  0  0  0
 41 43  1  0  0  0  0
 41 44  1  0  0  0  0
 42 46  1  0  0  0  0
 43 48  1  0  0  0  0
 44 68  1  0  0  0  0
 45 48  1  0  0  0  0
 45 68  1  0  0  0  0
 46 71  1  0  0  0  0
 47 67  1  0  0  0  0
 48 66  1  0  0  0  0
 49 59  1  0  0  0  0
 50 59  1  0  0  0  0
 51 61  1  0  0  0  0
 52 62  1  0  0  0  0
 53 63  1  0  0  0  0
 54 63  1  0  0  0  0
 55 63  1  0  0  0  0
 56 73  1  0  0  0  0
 57 74  1  0  0  0  0
 58 62  1  0  0  0  0
 58 65  1  0  0  0  0
 60 63  1  0  0  0  0
 60 72  1  0  0  0  0
 61 74  1  0  0  0  0
 62 81  1  0  0  0  0
 64 66  1  0  0  0  0
M  CHG  1  74   1
M  ISO  4  36 100  62 101  73 100  81 101
M  END
> <Batch ID>
0109

> <Smiles>
CNC(C)C(=O)NC(C(=O)N1Cc2cc([101O:1][101CH:1](C)Cn3cc([100N:0](C)[100C:0](=O)N4CCCC(n5nc(-c6ccc(Oc7ccc(F)cc7F)cc6)c(C(N)=O)c5N)C4)cc3C(C)C)ccc2CC1C(=O)NC1CCCc2ccccc21)C(C)(C)C

> <Shape>
0.214

> <Color>
0.109

> <Negative vol penalty>
0.000

$$$$

  -OEChem-04052319563D

 78 85  0     1  0  0  0  0  0999 V2000
  -16.4559  -29.6998   23.3872 C   0  0  0  0  0  0  0  0  0  0  0  0
  -17.1706  -29.3848   22.2359 C   0  0  0  0  0  0  0  0  0  0  0  0
  -24.6866  -13.4918   19.4470 C   0  0  0  0  0  0  0  0  0  0  0  0
  -25.4032  -14.3360   21.5943 C   0  0  0  0  0  0  0  0  0  0  0  0
  -17.0907  -29.6776   24.6283 C   0  0  0  0  0  0  0  0  0  0  0  0
  -18.5209  -29.0485   22.3251 C   0  0  0  0  0  0  0  0  0  0  0  0
  -23.4553  -24.8891   19.2157 C   0  0  0  0  0  0  0  0  0  0  0  0
  -24.7815  -12.1862   19.9286 C   0  0  0  0  0  0  0  0  0  0  0  0
  -25.4982  -13.0303   22.0759 C   0  0  0  0  0  0  0  0  0  0  0  0
  -24.7289  -24.9652   18.6536 C   0  0  0  0  0  0  0  0  0  0  0  0
  -24.4880   -8.6464   20.7024 C   0  0  0  0  0  0  0  0  0  0  0  0
  -23.4420   -7.7704   20.4121 C   0  0  0  0  0  0  0  0  0  0  0  0
  -25.7009  -24.8828   20.8599 C   0  0  0  0  0  0  0  0  0  0  0  0
  -21.9010   -9.2268   21.5703 C   0  0  0  0  0  0  0  0  0  0  0  0
  -24.9975  -14.5667   20.2798 C   0  0  0  0  0  0  0  0  0  0  0  0
  -23.7738  -16.7588   19.8274 C   0  0  0  0  0  0  0  0  0  0  0  0
  -18.4470  -29.3315   24.7338 C   0  0  0  0  0  0  0  0  0  0  0  0
  -23.2942  -24.8202   20.6070 C   0  0  0  0  0  0  0  0  0  0  0  0
  -19.1748  -29.0230   23.5686 C   0  0  0  0  0  0  0  0  0  0  0  0
  -24.4242  -24.8033   21.4370 C   0  0  0  0  0  0  0  0  0  0  0  0
  -25.1873  -11.9554   21.2430 C   0  0  0  0  0  0  0  0  0  0  0  0
  -25.8518  -24.9650   19.4759 C   0  0  0  0  0  0  0  0  0  0  0  0
  -24.2405   -9.8125   21.4267 C   0  0  0  0  0  0  0  0  0  0  0  0
  -22.1485   -8.0606   20.8461 C   0  0  0  0  0  0  0  0  0  0  0  0
  -22.9470  -10.1027   21.8606 C   0  0  0  0  0  0  0  0  0  0  0  0
  -24.9002  -15.9156   19.7827 C   0  0  0  0  0  0  0  0  0  0  0  0
  -24.1925  -17.9230   19.2309 C   0  0  0  0  0  0  0  0  0  0  0  0
  -22.4659  -16.5119   20.3605 C   0  0  0  0  0  0  0  0  0  0  0  0
  -21.9074  -26.6582   22.7984 C   0  0  0  0  0  0  0  0  0  0  0  0
  -22.6561  -24.1965   24.7737 C   0  0  0  0  0  0  0  0  0  0  0  0
  -24.6457  -21.4990   25.4157 C   0  0  0  0  0  0  0  0  0  0  0  0
  -29.5443  -20.3523   18.6722 C   0  0  0  0  0  0  0  0  0  0  0  0
  -19.1019  -29.3673   26.0919 C   0  0  0  0  0  0  0  0  0  0  0  0
  -21.9146  -24.7116   21.1963 C   0  0  0  0  0  0  0  0  0  0  0  0
  -24.3061  -24.7104   22.9356 C   0  0  0  0  0  0  0  0  0  0  0  0
  -20.4409  -28.6361   26.1419 C   0  0  0  0  0  0  0  0  0  0  0  0
  -27.2839  -19.5537   15.9611 C   0  0  0  0  0  0  0  0  0  0  0  0
  -21.3065  -29.0250   24.9476 C   0  0  0  0  0  0  0  0  0  0  0  0
  -26.3046  -18.6028   16.6516 C   0  0  0  0  0  0  0  0  0  0  0  0
  -28.7085  -19.3417   16.4647 C   0  0  0  0  0  0  0  0  0  0  0  0
  -27.8859  -18.5109   18.6343 C   0  0  0  0  0  0  0  0  0  0  0  0
  -20.6347  -28.6290   23.6272 C   0  0  1  0  0  0  0  0  0  0  0  0
  -21.8493  -25.1639   22.6518 C   0  0  1  0  0  0  0  0  0  0  0  0
  -26.4246  -18.6911   18.1846 C   0  0  2  0  0  0  0  0  0  0  0  0
  -25.0425  -19.7067   27.1267 C   0  0  0  0  0  0  0  0  0  0  0  0
  -24.0369  -26.2306   26.5808 C   0  0  0  0  0  0  0  0  0  0  0  0
  -25.1958  -24.3267   27.7212 C   0  0  0  0  0  0  0  0  0  0  0  0
  -22.7078  -24.4924   27.7917 C   0  0  0  0  0  0  0  0  0  0  0  0
  -31.9377  -22.9533   17.4340 C   0  0  0  0  0  0  0  0  0  0  0  0
  -32.2482  -21.4729   19.4218 C   0  0  0  0  0  0  0  0  0  0  0  0
  -24.0404  -19.3493   23.4738 C   0  0  0  0  0  0  0  0  0  0  0  0
  -30.3723  -23.2073   19.3785 C   0  0  0  0  0  0  0  0  0  0  0  0
  -28.1574  -24.4063   19.6430 C   0  0  0  0  0  0  0  0  0  1  0  0
  -23.8456  -23.8374   25.6311 C   0  0  1  0  0  0  0  0  0  0  0  0
  -24.3131  -20.0817   25.8461 C   0  0  2  0  0  0  0  0  0  0  0  0
  -29.2238  -23.9320   18.6565 C   0  0  1  0  0  0  0  0  0  0  0  0
  -23.9490  -24.7255   26.9031 C   0  0  0  0  0  0  0  0  0  0  0  0
  -31.2068  -22.1905   18.5523 C   0  0  0  0  0  0  0  0  0  0  0  0
  -25.9552  -16.4948   19.2035 N   0  0  0  0  0  0  0  0  0  0  0  0
  -25.4935  -17.7143   18.8786 N   0  0  0  0  0  0  0  0  0  0  0  0
  -22.9356  -24.6126   23.4643 N   0  0  0  0  0  0  0  0  0  0  0  0
  -28.7570  -19.4570   17.9291 N   0  0  0  0  0  0  0  0  0  0  0  0
  -23.5711  -19.0946   18.9785 N   0  0  0  0  0  0  0  0  0  0  0  0
  -22.2049  -15.2619   20.9382 N   0  0  0  0  0  0  0  0  0  0  0  0
  -20.7864  -27.2096   23.3888 N   0  0  0  0  0  0  0  0  0  0  0  0
  -23.7337  -22.4092   25.9069 N   0  0  0  0  0  0  0  0  0  0  0  0
  -30.3462  -21.2098   17.9289 N   0  0  0  0  0  0  0  0  0  0  0  0
  -29.7470  -25.1298   17.9403 N   0  3  0  0  0  0  0  0  0  0  0  0
  -24.7020  -19.1128   24.7827 N   0  3  0  0  0  0  0  0  0  0  0  0
  -21.5507  -17.3684   20.3109 O   0  0  0  0  0  0  0  0  0  0  0  0
  -22.8968  -27.2657   22.4064 O   0  0  0  0  0  0  0  0  0  0  0  0
  -21.5203  -24.1041   25.2461 O   0  0  0  0  0  0  0  0  0  0  0  0
  -25.6193  -21.7719   24.7171 O   0  0  0  0  0  0  0  0  0  0  0  0
  -29.5297  -20.3887   19.9073 O   0  0  0  0  0  0  0  0  0  0  0  0
  -25.2798  -10.6816   21.7134 O   0  0  0  0  0  0  0  0  0  0  0  0
  -27.0961  -25.0398   18.9299 O   0  0  0  0  0  0  0  0  0  1  0  0
  -21.1439   -7.2201   20.5659 F   0  0  0  0  0  0  0  0  0  0  0  0
  -22.7028  -11.2221   22.5557 F   0  0  0  0  0  0  0  0  0  0  0  0
  1  2  1  0  0  0  0
  1  5  2  0  0  0  0
  2  6  2  0  0  0  0
  3  8  2  0  0  0  0
  3 15  1  0  0  0  0
  4  9  1  0  0  0  0
  4 15  2  0  0  0  0
  5 17  1  0  0  0  0
  6 19  1  0  0  0  0
  7 10  2  0  0  0  0
  7 18  1  0  0  0  0
  8 21  1  0  0  0  0
  9 21  2  0  0  0  0
 10 22  1  0  0  0  0
 11 12  2  0  0  0  0
 11 23  1  0  0  0  0
 12 24  1  0  0  0  0
 13 20  1  0  0  0  0
 13 22  2  0  0  0  0
 14 24  2  0  0  0  0
 14 25  1  0  0  0  0
 15 26  1  0  0  0  0
 16 26  1  0  0  0  0
 16 27  2  0  0  0  0
 16 28  1  0  0  0  0
 17 19  2  0  0  0  0
 17 33  1  0  0  0  0
 18 20  2  0  0  0  0
 18 34  1  0  0  0  0
 19 42  1  0  0  0  0
 20 35  1  0  0  0  0
 21 75  1  0  0  0  0
 22 76  1  0  0  0  0
 23 25  2  0  0  0  0
 23 75  1  0  0  0  0
 24 77  1  0  0  0  0
 25 78  1  0  0  0  0
 26 59  2  0  0  0  0
 27 60  1  0  0  0  0
 27 63  1  0  0  0  0
 28 64  1  0  0  0  0
 28 70  2  0  0  0  0
 29 43  1  0  0  0  0
 29 65  1  0  0  0  0
 29 71  2  0  0  0  0
 30 54  1  0  0  0  0
 30 61  1  0  0  0  0
 30 72  2  0  0  0  0
 31 55  1  0  0  0  0
 31 66  1  0  0  0  0
 31 73  2  0  0  0  0
 32 62  1  0  0  0  0
 32 67  1  0  0  0  0
 32 74  2  0  0  0  0
 33 36  1  0  0  0  0
 34 43  1  0  0  0  0
 35 61  1  0  0  0  0
 36 38  1  0  0  0  0
 37 39  1  0  0  0  0
 37 40  1  0  0  0  0
 38 42  1  0  0  0  0
 39 44  1  0  0  0  0
 40 62  1  0  0  0  0
 41 44  1  0  0  0  0
 41 62  1  0  0  0  0
 42 65  1  0  0  0  0
 43 61  1  0  0  0  0
 44 60  1  0  0  0  0
 45 55  1  0  0  0  0
 46 57  1  0  0  0  0
 47 57  1  0  0  0  0
 48 57  1  0  0  0  0
 49 58  1  0  0  0  0
 50 58  1  0  0  0  0
 51 69  1  0  0  0  0
 52 56  1  0  0  0  0
 52 58  1  0  0  0  0
 53 56  1  0  0  0  0
 53 76  1  0  0  0  0
 54 57  1  0  0  0  0
 54 66  1  0  0  0  0
 55 69  1  0  0  0  0
 56 68  1  0  0  0  0
 58 67  1  0  0  0  0
 59 60  1  0  0  0  0
M  CHG  2  68   1  69   1
M  ISO  4  32 100  53 101  67 100  76 101
M  END
> <Batch ID>
0109

> <Smiles>
CNC(C)C(=O)NC(C(=O)N1Cc2cc([101O:1][101CH2:1]C(N)CC(C)(C)[100NH:0][100C:0](=O)N3CCCC(n4nc(-c5ccc(Oc6ccc(F)cc6F)cc5)c(C(N)=O)c4N)C3)ccc2CC1C(=O)NC1CCCc2ccccc21)C(C)(C)C

> <Shape>
0.166

> <Color>
0.070

> <Negative vol penalty>
0.000

$$$$

  -OEChem-04052319563D

 81 89  0     1  0  0  0  0  0999 V2000
  -16.5888  -30.0119   23.5056 C   0  0  0  0  0  0  0  0  0  0  0  0
  -17.6964  -30.7934   23.8144 C   0  0  0  0  0  0  0  0  0  0  0  0
  -30.4274  -21.7244   22.2338 C   0  0  0  0  0  0  0  0  0  0  0  0
  -32.5132  -20.6487   21.6599 C   0  0  0  0  0  0  0  0  0  0  0  0
  -16.7669  -28.7208   23.0131 C   0  0  0  0  0  0  0  0  0  0  0  0
  -18.9825  -30.2884   23.6197 C   0  0  0  0  0  0  0  0  0  0  0  0
  -27.0772  -29.0831   22.0627 C   0  0  0  0  0  0  0  0  0  0  0  0
  -31.1249  -22.8654   22.6302 C   0  0  0  0  0  0  0  0  0  0  0  0
  -33.2107  -21.7897   22.0563 C   0  0  0  0  0  0  0  0  0  0  0  0
  -27.8157  -28.0864   21.4262 C   0  0  0  0  0  0  0  0  0  0  0  0
  -34.2225  -23.2106   24.9526 C   0  0  0  0  0  0  0  0  0  0  0  0
  -35.3588  -23.0339   25.7420 C   0  0  0  0  0  0  0  0  0  0  0  0
  -26.1051  -27.9075   19.7347 C   0  0  0  0  0  0  0  0  0  0  0  0
  -36.7036  -24.1084   24.0466 C   0  0  0  0  0  0  0  0  0  0  0  0
  -31.1216  -20.6160   21.7487 C   0  0  0  0  0  0  0  0  0  0  0  0
  -29.5586  -18.6370   22.1342 C   0  0  0  0  0  0  0  0  0  0  0  0
  -18.0560  -28.1961   22.8243 C   0  0  0  0  0  0  0  0  0  0  0  0
  -25.8399  -29.4925   21.5451 C   0  0  0  0  0  0  0  0  0  0  0  0
  -19.1831  -28.9964   23.1011 C   0  0  0  0  0  0  0  0  0  0  0  0
  -25.3541  -28.9114   20.3651 C   0  0  0  0  0  0  0  0  0  0  0  0
  -32.5166  -22.8981   22.5414 C   0  0  0  0  0  0  0  0  0  0  0  0
  -27.3283  -27.4964   20.2637 C   0  0  0  0  0  0  0  0  0  0  0  0
  -34.3267  -23.8361   23.7101 C   0  0  0  0  0  0  0  0  0  0  0  0
  -36.5993  -23.4829   25.2890 C   0  0  0  0  0  0  0  0  0  0  0  0
  -35.5672  -24.2851   23.2572 C   0  0  0  0  0  0  0  0  0  0  0  0
  -30.4016  -19.4368   21.3395 C   0  0  0  0  0  0  0  0  0  0  0  0
  -29.1226  -17.6491   21.2855 C   0  0  0  0  0  0  0  0  0  0  0  0
  -29.2015  -18.7749   23.5159 C   0  0  0  0  0  0  0  0  0  0  0  0
  -22.8438  -29.4625   22.6062 C   0  0  0  0  0  0  0  0  0  0  0  0
  -22.2736  -31.1259   19.8804 C   0  0  0  0  0  0  0  0  0  0  0  0
  -23.3351  -30.9793   16.4352 C   0  0  0  0  0  0  0  0  0  0  0  0
  -28.8810  -17.7211   15.1639 C   0  0  0  0  0  0  0  0  0  0  0  0
  -18.1912  -26.7954   22.2811 C   0  0  0  0  0  0  0  0  0  0  0  0
  -25.0681  -30.5877   22.2286 C   0  0  0  0  0  0  0  0  0  0  0  0
  -24.0409  -29.3295   19.7575 C   0  0  0  0  0  0  0  0  0  0  0  0
  -19.5704  -26.1927   22.5275 C   0  0  0  0  0  0  0  0  0  0  0  0
  -30.4190  -15.1982   17.3935 C   0  0  0  0  0  0  0  0  0  0  0  0
  -20.6507  -27.1714   22.0919 C   0  0  0  0  0  0  0  0  0  0  0  0
  -30.5787  -15.9657   18.7047 C   0  0  0  0  0  0  0  0  0  0  0  0
  -27.3020  -24.8951   18.0228 C   0  0  0  0  0  0  0  0  0  0  0  0
  -28.2647  -24.2136   20.2459 C   0  0  0  0  0  0  0  0  0  0  0  0
  -30.4650  -16.1266   16.1837 C   0  0  0  0  0  0  0  0  0  0  0  0
  -29.6450  -18.0127   17.5564 C   0  0  0  0  0  0  0  0  0  0  0  0
  -26.7723  -23.4838   17.8227 C   0  0  0  0  0  0  0  0  0  0  0  0
  -27.7326  -22.8039   20.0415 C   0  0  0  0  0  0  0  0  0  0  0  0
  -20.5913  -28.4572   22.9263 C   0  0  1  0  0  0  0  0  0  0  0  0
  -23.5789  -30.5651   21.8981 C   0  0  1  0  0  0  0  0  0  0  0  0
  -29.5565  -17.1120   18.7975 C   0  0  2  0  0  0  0  0  0  0  0  0
  -27.4275  -25.2493   19.5021 C   0  0  0  0  0  0  0  0  0  1  0  0
  -23.4997  -32.7851   14.7005 C   0  0  0  0  0  0  0  0  0  0  0  0
  -19.4727  -30.2148   19.0837 C   0  0  0  0  0  0  0  0  0  0  0  0
  -20.1097  -30.5814   16.6904 C   0  0  0  0  0  0  0  0  0  0  0  0
  -20.0930  -32.5014   18.2830 C   0  0  0  0  0  0  0  0  0  0  0  0
  -27.2770  -19.3073   14.1684 C   0  0  0  0  0  0  0  0  0  0  0  0
  -26.1870  -30.3818   15.9167 C   0  0  0  0  0  0  0  0  0  0  0  0
  -27.7738  -20.6509   16.9435 C   0  0  0  0  0  0  0  0  0  0  0  0
  -27.4384  -19.1973   16.6276 C   0  0  0  0  0  0  0  0  0  0  0  0
  -27.2431  -21.0831   18.3045 C   0  0  0  0  0  0  0  0  0  0  0  0
  -21.9178  -30.7604   18.4595 C   0  0  1  0  0  0  0  0  0  0  0  0
  -24.2564  -31.9552   15.7258 C   0  0  2  0  0  0  0  0  0  0  0  0
  -20.4135  -30.9970   18.1456 C   0  0  0  0  0  0  0  0  0  0  0  0
  -30.4971  -18.9950   20.0827 N   0  0  0  0  0  0  0  0  0  0  0  0
  -29.7084  -17.9069   20.0811 N   0  0  0  0  0  0  0  0  0  0  0  0
  -23.3202  -30.3999   20.4663 N   0  0  0  0  0  0  0  0  0  0  0  0
  -29.5143  -17.2309   16.3177 N   0  0  0  0  0  0  0  0  0  0  0  0
  -28.2992  -16.5936   21.4595 N   0  0  0  0  0  0  0  0  0  0  0  0
  -29.7392  -19.8469   24.2412 N   0  0  0  0  0  0  0  0  0  0  0  0
  -21.4863  -29.4360   22.3495 N   0  0  0  0  0  0  0  0  0  0  0  0
  -22.8317  -31.5097   17.6042 N   0  0  0  0  0  0  0  0  0  0  0  0
  -27.9677  -18.7727   15.3334 N   0  0  0  0  0  0  0  0  0  0  0  0
  -27.6550  -22.5064   18.5625 N   0  3  0  0  0  0  0  0  0  0  0  0
  -25.3470  -31.2211   15.0239 N   0  3  0  0  0  0  0  0  0  0  0  0
  -28.4415  -17.9619   24.0946 O   0  0  0  0  0  0  0  0  0  0  0  0
  -23.4626  -28.6919   23.3307 O   0  0  0  0  0  0  0  0  0  0  0  0
  -21.6507  -32.0273   20.4469 O   0  0  0  0  0  0  0  0  0  0  0  0
  -23.0839  -29.8598   15.9944 O   0  0  0  0  0  0  0  0  0  0  0  0
  -29.1112  -17.2396   14.0471 O   0  0  0  0  0  0  0  0  0  0  0  0
  -33.1975  -24.0114   22.9280 O   0  0  0  0  0  0  0  0  0  0  0  0
  -28.0468  -26.5229   19.6409 O   0  0  0  0  0  0  0  0  0  1  0  0
  -37.6902  -23.3145   26.0479 F   0  0  0  0  0  0  0  0  0  0  0  0
  -35.6734  -24.8878   22.0651 F   0  0  0  0  0  0  0  0  0  0  0  0
  1  2  1  0  0  0  0
  1  5  2  0  0  0  0
  2  6  2  0  0  0  0
  3  8  2  0  0  0  0
  3 15  1  0  0  0  0
  4  9  1  0  0  0  0
  4 15  2  0  0  0  0
  5 17  1  0  0  0  0
  6 19  1  0  0  0  0
  7 10  2  0  0  0  0
  7 18  1  0  0  0  0
  8 21  1  0  0  0  0
  9 21  2  0  0  0  0
 10 22  1  0  0  0  0
 11 12  2  0  0  0  0
 11 23  1  0  0  0  0
 12 24  1  0  0  0  0
 13 20  1  0  0  0  0
 13 22  2  0  0  0  0
 14 24  2  0  0  0  0
 14 25  1  0  0  0  0
 15 26  1  0  0  0  0
 16 26  1  0  0  0  0
 16 27  2  0  0  0  0
 16 28  1  0  0  0  0
 17 19  2  0  0  0  0
 17 33  1  0  0  0  0
 18 20  2  0  0  0  0
 18 34  1  0  0  0  0
 19 46  1  0  0  0  0
 20 35  1  0  0  0  0
 21 78  1  0  0  0  0
 22 79  1  0  0  0  0
 23 25  2  0  0  0  0
 23 78  1  0  0  0  0
 24 80  1  0  0  0  0
 25 81  1  0  0  0  0
 26 62  2  0  0  0  0
 27 63  1  0  0  0  0
 27 66  1  0  0  0  0
 28 67  1  0  0  0  0
 28 73  2  0  0  0  0
 29 47  1  0  0  0  0
 29 68  1  0  0  0  0
 29 74  2  0  0  0  0
 30 59  1  0  0  0  0
 30 64  1  0  0  0  0
 30 75  2  0  0  0  0
 31 60  1  0  0  0  0
 31 69  1  0  0  0  0
 31 76  2  0  0  0  0
 32 65  1  0  0  0  0
 32 70  1  0  0  0  0
 32 77  2  0  0  0  0
 33 36  1  0  0  0  0
 34 47  1  0  0  0  0
 35 64  1  0  0  0  0
 36 38  1  0  0  0  0
 37 39  1  0  0  0  0
 37 42  1  0  0  0  0
 38 46  1  0  0  0  0
 39 48  1  0  0  0  0
 40 44  1  0  0  0  0
 40 49  1  0  0  0  0
 41 45  1  0  0  0  0
 41 49  1  0  0  0  0
 42 65  1  0  0  0  0
 43 48  1  0  0  0  0
 43 65  1  0  0  0  0
 44 71  1  0  0  0  0
 45 71  1  0  0  0  0
 46 68  1  0  0  0  0
 47 64  1  0  0  0  0
 48 63  1  0  0  0  0
 49 79  1  0  0  0  0
 50 60  1  0  0  0  0
 51 61  1  0  0  0  0
 52 61  1  0  0  0  0
 53 61  1  0  0  0  0
 54 70  1  0  0  0  0
 55 72  1  0  0  0  0
 56 57  1  0  0  0  0
 56 58  1  0  0  0  0
 57 70  1  0  0  0  0
 58 71  1  0  0  0  0
 59 61  1  0  0  0  0
 59 69  1  0  0  0  0
 60 72  1  0  0  0  0
 62 63  1  0  0  0  0
M  CHG  2  71   1  72   1
M  ISO  4  32 100  49 101  70 100  79 101
M  END
> <Batch ID>
0109

> <Smiles>
CNC(C)C(=O)NC(C(=O)N1Cc2cc([101O:1][101CH:1]3CCN(CCC[100N:0](C)[100C:0](=O)N4CCCC(n5nc(-c6ccc(Oc7ccc(F)cc7F)cc6)c(C(N)=O)c5N)C4)CC3)ccc2CC1C(=O)NC1CCCc2ccccc21)C(C)(C)C

> <Shape>
0.192

> <Color>
0.126

> <Negative vol penalty>
0.000

$$$$

  -OEChem-04052319563D

 81 89  0     1  0  0  0  0  0999 V2000
  -32.3613  -13.9490   21.2295 C   0  0  0  0  0  0  0  0  0  0  0  0
  -31.7940  -15.2070   21.0532 C   0  0  0  0  0  0  0  0  0  0  0  0
  -28.0790  -29.0442   21.4460 C   0  0  0  0  0  0  0  0  0  0  0  0
  -26.5536  -28.0359   19.8669 C   0  0  0  0  0  0  0  0  0  0  0  0
  -31.6759  -12.8110   20.8064 C   0  0  0  0  0  0  0  0  0  0  0  0
  -30.5414  -15.3277   20.4526 C   0  0  0  0  0  0  0  0  0  0  0  0
  -24.6358  -19.3788   20.6221 C   0  0  0  0  0  0  0  0  0  0  0  0
  -29.1601  -28.6099   20.6791 C   0  0  0  0  0  0  0  0  0  0  0  0
  -27.6347  -27.6016   19.0999 C   0  0  0  0  0  0  0  0  0  0  0  0
  -23.8009  -20.1020   19.7714 C   0  0  0  0  0  0  0  0  0  0  0  0
  -29.9061  -25.0989   19.1879 C   0  0  0  0  0  0  0  0  0  0  0  0
  -29.8805  -23.7865   18.7164 C   0  0  0  0  0  0  0  0  0  0  0  0
  -22.6744  -18.0608   19.1518 C   0  0  0  0  0  0  0  0  0  0  0  0
  -29.9757  -24.6011   16.4438 C   0  0  0  0  0  0  0  0  0  0  0  0
  -26.7757  -28.7572   21.0400 C   0  0  0  0  0  0  0  0  0  0  0  0
  -25.3280  -30.5332   22.1613 C   0  0  0  0  0  0  0  0  0  0  0  0
  -30.4100  -12.9171   20.2091 C   0  0  0  0  0  0  0  0  0  0  0  0
  -24.5031  -17.9875   20.7361 C   0  0  0  0  0  0  0  0  0  0  0  0
  -29.8390  -14.1901   20.0198 C   0  0  0  0  0  0  0  0  0  0  0  0
  -23.5071  -17.3227   20.0066 C   0  0  0  0  0  0  0  0  0  0  0  0
  -28.9380  -27.8887   19.5060 C   0  0  0  0  0  0  0  0  0  0  0  0
  -22.8219  -19.4426   19.0338 C   0  0  0  0  0  0  0  0  0  0  0  0
  -29.9665  -26.1625   18.2875 C   0  0  0  0  0  0  0  0  0  0  0  0
  -29.9153  -23.5376   17.3443 C   0  0  0  0  0  0  0  0  0  0  0  0
  -30.0013  -25.9136   16.9155 C   0  0  0  0  0  0  0  0  0  0  0  0
  -25.6585  -29.2050   21.8321 C   0  0  0  0  0  0  0  0  0  0  0  0
  -24.1903  -30.4252   22.9231 C   0  0  0  0  0  0  0  0  0  0  0  0
  -25.9902  -31.7554   21.8099 C   0  0  0  0  0  0  0  0  0  0  0  0
  -26.3850  -15.4979   20.1326 C   0  0  0  0  0  0  0  0  0  0  0  0
  -23.9609  -13.8302   21.4983 C   0  0  0  0  0  0  0  0  0  0  0  0
  -20.6472  -13.6662   22.2976 C   0  0  0  0  0  0  0  0  0  0  0  0
  -19.8928  -26.2702   23.2669 C   0  0  0  0  0  0  0  0  0  0  0  0
  -29.7282  -11.6619   19.7250 C   0  0  0  0  0  0  0  0  0  0  0  0
  -25.3940  -17.2254   21.6784 C   0  0  0  0  0  0  0  0  0  0  0  0
  -23.3104  -15.8329   20.1086 C   0  0  0  0  0  0  0  0  0  0  0  0
  -28.2407  -11.8489   19.4374 C   0  0  0  0  0  0  0  0  0  0  0  0
  -21.9607  -27.4359   25.9204 C   0  0  0  0  0  0  0  0  0  0  0  0
  -28.0098  -13.1180   18.6232 C   0  0  0  0  0  0  0  0  0  0  0  0
  -23.1131  -28.1413   25.2032 C   0  0  0  0  0  0  0  0  0  0  0  0
  -20.3793  -23.5175   17.8583 C   0  0  0  0  0  0  0  0  0  0  0  0
  -20.5942  -22.9308   20.3141 C   0  0  0  0  0  0  0  0  0  0  0  0
  -20.8255  -22.1058   17.4854 C   0  0  0  0  0  0  0  0  0  0  0  0
  -21.0404  -21.5207   19.9352 C   0  0  0  0  0  0  0  0  0  0  0  0
  -21.4931  -26.1991   25.1564 C   0  0  0  0  0  0  0  0  0  0  0  0
  -22.2956  -27.1448   23.0267 C   0  0  0  0  0  0  0  0  0  0  0  0
  -28.4713  -14.3602   19.3950 C   0  0  1  0  0  0  0  0  0  0  0  0
  -25.5080  -15.7452   21.3273 C   0  0  1  0  0  0  0  0  0  0  0  0
  -22.7644  -28.4297   23.7306 C   0  0  2  0  0  0  0  0  0  0  0  0
  -19.7027  -23.5286   19.2276 C   0  0  0  0  0  0  0  0  0  0  0  0
  -21.7166  -21.4919   18.5642 C   0  0  0  0  0  0  0  0  0  1  0  0
  -18.9535  -12.1622   23.3778 C   0  0  0  0  0  0  0  0  0  0  0  0
  -16.9537  -24.8490   19.8939 C   0  0  0  0  0  0  0  0  0  0  0  0
  -23.9208  -12.0829   18.9972 C   0  0  0  0  0  0  0  0  0  0  0  0
  -21.6640  -11.2547   19.6967 C   0  0  0  0  0  0  0  0  0  0  0  0
  -23.6496  -10.8339   21.1468 C   0  0  0  0  0  0  0  0  0  0  0  0
  -20.0451  -15.6610   24.3993 C   0  0  0  0  0  0  0  0  0  0  0  0
  -18.4026  -26.4222   21.2881 C   0  0  0  0  0  0  0  0  0  0  0  0
  -22.6994  -13.1718   20.9943 C   0  0  1  0  0  0  0  0  0  0  0  0
  -19.9396  -13.3004   23.5899 C   0  0  2  0  0  0  0  0  0  0  0  0
  -18.2873  -25.0659   20.5958 C   0  0  2  0  0  0  0  0  0  0  0  0
  -22.9882  -11.8637   20.2051 C   0  0  0  0  0  0  0  0  0  0  0  0
  -24.8002  -28.3183   22.3430 N   0  0  0  0  0  0  0  0  0  0  0  0
  -23.9192  -29.0908   23.0011 N   0  0  0  0  0  0  0  0  0  0  0  0
  -24.2103  -15.1312   21.0387 N   0  0  0  0  0  0  0  0  0  0  0  0
  -21.1769  -26.5411   23.7675 N   0  0  0  0  0  0  0  0  0  0  0  0
  -23.4053  -31.3424   23.5272 N   0  0  0  0  0  0  0  0  0  0  0  0
  -27.1467  -31.6858   21.0212 N   0  0  0  0  0  0  0  0  0  0  0  0
  -27.4959  -14.7212   20.4013 N   0  0  0  0  0  0  0  0  0  0  0  0
  -21.8406  -12.9895   22.1595 N   0  0  0  0  0  0  0  0  0  0  0  0
  -19.6747  -26.6314   21.9430 N   0  0  0  0  0  0  0  0  0  0  0  0
  -19.3759  -24.9327   19.5917 N   0  3  0  0  0  0  0  0  0  0  0  0
  -19.1937  -14.4754   24.1225 N   0  3  0  0  0  0  0  0  0  0  0  0
  -25.5781  -32.8749   22.1978 O   0  0  0  0  0  0  0  0  0  0  0  0
  -26.0760  -15.9751   19.0471 O   0  0  0  0  0  0  0  0  0  0  0  0
  -24.6943  -13.2157   22.2768 O   0  0  0  0  0  0  0  0  0  0  0  0
  -20.1854  -14.4689   21.4895 O   0  0  0  0  0  0  0  0  0  0  0  0
  -19.0046  -25.7502   23.9508 O   0  0  0  0  0  0  0  0  0  0  0  0
  -29.9926  -27.4649   18.7573 O   0  0  0  0  0  0  0  0  0  0  0  0
  -22.0062  -20.1460   18.2021 O   0  0  0  0  0  0  0  0  0  1  0  0
  -29.8923  -22.2771   16.8917 F   0  0  0  0  0  0  0  0  0  0  0  0
  -30.0605  -26.9313   16.0456 F   0  0  0  0  0  0  0  0  0  0  0  0
  1  2  1  0  0  0  0
  1  5  2  0  0  0  0
  2  6  2  0  0  0  0
  3  8  2  0  0  0  0
  3 15  1  0  0  0  0
  4  9  1  0  0  0  0
  4 15  2  0  0  0  0
  5 17  1  0  0  0  0
  6 19  1  0  0  0  0
  7 10  2  0  0  0  0
  7 18  1  0  0  0  0
  8 21  1  0  0  0  0
  9 21  2  0  0  0  0
 10 22  1  0  0  0  0
 11 12  2  0  0  0  0
 11 23  1  0  0  0  0
 12 24  1  0  0  0  0
 13 20  1  0  0  0  0
 13 22  2  0  0  0  0
 14 24  2  0  0  0  0
 14 25  1  0  0  0  0
 15 26  1  0  0  0  0
 16 26  1  0  0  0  0
 16 27  2  0  0  0  0
 16 28  1  0  0  0  0
 17 19  2  0  0  0  0
 17 33  1  0  0  0  0
 18 20  2  0  0  0  0
 18 34  1  0  0  0  0
 19 46  1  0  0  0  0
 20 35  1  0  0  0  0
 21 78  1  0  0  0  0
 22 79  1  0  0  0  0
 23 25  2  0  0  0  0
 23 78  1  0  0  0  0
 24 80  1  0  0  0  0
 25 81  1  0  0  0  0
 26 62  2  0  0  0  0
 27 63  1  0  0  0  0
 27 66  1  0  0  0  0
 28 67  1  0  0  0  0
 28 73  2  0  0  0  0
 29 47  1  0  0  0  0
 29 68  1  0  0  0  0
 29 74  2  0  0  0  0
 30 58  1  0  0  0  0
 30 64  1  0  0  0  0
 30 75  2  0  0  0  0
 31 59  1  0  0  0  0
 31 69  1  0  0  0  0
 31 76  2  0  0  0  0
 32 65  1  0  0  0  0
 32 70  1  0  0  0  0
 32 77  2  0  0  0  0
 33 36  1  0  0  0  0
 34 47  1  0  0  0  0
 35 64  1  0  0  0  0
 36 38  1  0  0  0  0
 37 39  1  0  0  0  0
 37 44  1  0  0  0  0
 38 46  1  0  0  0  0
 39 48  1  0  0  0  0
 40 42  1  0  0  0  0
 40 49  1  0  0  0  0
 41 43  1  0  0  0  0
 41 49  1  0  0  0  0
 42 50  1  0  0  0  0
 43 50  1  0  0  0  0
 44 65  1  0  0  0  0
 45 48  1  0  0  0  0
 45 65  1  0  0  0  0
 46 68  1  0  0  0  0
 47 64  1  0  0  0  0
 48 63  1  0  0  0  0
 49 71  1  0  0  0  0
 50 79  1  0  0  0  0
 51 59  1  0  0  0  0
 52 60  1  0  0  0  0
 53 61  1  0  0  0  0
 54 61  1  0  0  0  0
 55 61  1  0  0  0  0
 56 72  1  0  0  0  0
 57 60  1  0  0  0  0
 57 70  1  0  0  0  0
 58 61  1  0  0  0  0
 58 69  1  0  0  0  0
 59 72  1  0  0  0  0
 60 71  1  0  0  0  0
 62 63  1  0  0  0  0
M  CHG  2  71   1  72   1
M  ISO  4  32 100  50 101  70 100  79 101
M  END
> <Batch ID>
0109

> <Smiles>
CNC(C)C(=O)NC(C(=O)N1Cc2cc([101O:1][101CH:1]3CCC(NC(C)C[100NH:0][100C:0](=O)N4CCCC(n5nc(-c6ccc(Oc7ccc(F)cc7F)cc6)c(C(N)=O)c5N)C4)CC3)ccc2CC1C(=O)NC1CCCc2ccccc21)C(C)(C)C

> <Shape>
0.250

> <Color>
0.048

> <Negative vol penalty>
0.000

$$$$

  -OEChem-04052319563D

 84 92  0     1  0  0  0  0  0999 V2000
  -24.4056  -31.2676   21.6707 C   0  0  0  0  0  0  0  0  0  0  0  0
  -24.6743  -30.3216   22.6547 C   0  0  0  0  0  0  0  0  0  0  0  0
  -23.2282   -9.8488   19.9100 C   0  0  0  0  0  0  0  0  0  0  0  0
  -23.6569   -9.9743   22.2843 C   0  0  0  0  0  0  0  0  0  0  0  0
  -24.5755  -30.9405   20.3260 C   0  0  0  0  0  0  0  0  0  0  0  0
  -25.1119  -29.0476   22.2947 C   0  0  0  0  0  0  0  0  0  0  0  0
  -29.3398  -23.7405   24.5917 C   0  0  0  0  0  0  0  0  0  0  0  0
  -22.4550   -8.7052   20.1100 C   0  0  0  0  0  0  0  0  0  0  0  0
  -22.8837   -8.8307   22.4844 C   0  0  0  0  0  0  0  0  0  0  0  0
  -29.3082  -22.3690   24.8401 C   0  0  0  0  0  0  0  0  0  0  0  0
  -22.9762   -5.4087   20.6445 C   0  0  0  0  0  0  0  0  0  0  0  0
  -23.1735   -4.3341   19.7775 C   0  0  0  0  0  0  0  0  0  0  0  0
  -29.6418  -21.9417   22.4896 C   0  0  0  0  0  0  0  0  0  0  0  0
  -20.8627   -4.4684   19.0853 C   0  0  0  0  0  0  0  0  0  0  0  0
  -23.8292  -10.4833   20.9972 C   0  0  0  0  0  0  0  0  0  0  0  0
  -24.1878  -13.0013   20.8002 C   0  0  0  0  0  0  0  0  0  0  0  0
  -25.0248  -29.6649   19.9497 C   0  0  0  0  0  0  0  0  0  0  0  0
  -29.5121  -24.2237   23.2866 C   0  0  0  0  0  0  0  0  0  0  0  0
  -25.2867  -28.7027   20.9437 C   0  0  0  0  0  0  0  0  0  0  0  0
  -29.6778  -23.3198   22.2276 C   0  0  0  0  0  0  0  0  0  0  0  0
  -22.2827   -8.1962   21.3972 C   0  0  0  0  0  0  0  0  0  0  0  0
  -29.4563  -21.4693   23.7886 C   0  0  0  0  0  0  0  0  0  0  0  0
  -21.7222   -6.0131   20.7321 C   0  0  0  0  0  0  0  0  0  0  0  0
  -22.1168   -3.8639   18.9978 C   0  0  0  0  0  0  0  0  0  0  0  0
  -20.6654   -5.5430   19.9524 C   0  0  0  0  0  0  0  0  0  0  0  0
  -24.6285  -11.6643   20.7911 C   0  0  0  0  0  0  0  0  0  0  0  0
  -25.3212  -13.7381   20.5575 C   0  0  0  0  0  0  0  0  0  0  0  0
  -22.8716  -13.5299   21.0095 C   0  0  0  0  0  0  0  0  0  0  0  0
  -27.7679  -25.9879   21.2994 C   0  0  0  0  0  0  0  0  0  0  0  0
  -30.4316  -25.8430   19.4539 C   0  0  0  0  0  0  0  0  0  0  0  0
  -33.3075  -24.1948   18.6418 C   0  0  0  0  0  0  0  0  0  0  0  0
  -31.1458  -12.6711   21.4446 C   0  0  0  0  0  0  0  0  0  0  0  0
  -25.1481  -29.3426   18.4815 C   0  0  0  0  0  0  0  0  0  0  0  0
  -29.5707  -25.7062   23.0390 C   0  0  0  0  0  0  0  0  0  0  0  0
  -29.8859  -23.7874   20.8111 C   0  0  0  0  0  0  0  0  0  0  0  0
  -25.9743  -28.0901   18.2001 C   0  0  0  0  0  0  0  0  0  0  0  0
  -29.5616  -13.4703   18.3578 C   0  0  0  0  0  0  0  0  0  0  0  0
  -25.5503  -26.9524   19.1235 C   0  0  0  0  0  0  0  0  0  0  0  0
  -28.0779  -13.2187   18.6322 C   0  0  0  0  0  0  0  0  0  0  0  0
  -30.2187  -17.2389   25.8888 C   0  0  0  0  0  0  0  0  0  0  0  0
  -30.4485  -12.4564   19.0773 C   0  0  0  0  0  0  0  0  0  0  0  0
  -28.7268  -12.0938   20.8030 C   0  0  0  0  0  0  0  0  0  0  0  0
  -31.0140  -15.9620   25.6749 C   0  0  0  0  0  0  0  0  0  0  0  0
  -28.8378  -15.8475   24.5649 C   0  0  0  0  0  0  0  0  0  0  0  0
  -25.7870  -27.3179   20.5939 C   0  0  1  0  0  0  0  0  0  0  0  0
  -29.2369  -26.0852   21.5995 C   0  0  1  0  0  0  0  0  0  0  0  0
  -29.2874  -17.2939   24.6867 C   0  0  1  0  0  0  0  0  0  0  0  0
  -27.7952  -13.1252   20.1437 C   0  0  2  0  0  0  0  0  0  0  0  0
  -35.2589  -24.2967   17.0673 C   0  0  0  0  0  0  0  0  0  0  0  0
  -27.2190  -18.2328   23.6426 C   0  0  0  0  0  0  0  0  0  0  0  0
  -28.6573  -24.8197   17.1923 C   0  0  0  0  0  0  0  0  0  0  0  0
  -30.7265  -24.0544   16.0088 C   0  0  0  0  0  0  0  0  0  0  0  0
  -30.3909  -26.4792   16.4887 C   0  0  0  0  0  0  0  0  0  0  0  0
  -32.1471  -13.0453   26.3114 C   0  0  0  0  0  0  0  0  0  0  0  0
  -30.5399  -11.3222   25.4964 C   0  0  0  0  0  0  0  0  0  0  0  0
  -35.2406  -24.4392   20.8694 C   0  0  0  0  0  0  0  0  0  0  0  0
  -31.6880  -12.8654   23.8586 C   0  0  0  0  0  0  0  0  0  0  0  0
  -29.8554  -13.7215   25.4572 C   0  0  0  0  0  0  0  0  0  0  0  0
  -28.6312  -19.6853   25.1274 C   0  0  0  0  0  0  0  0  0  1  0  0
  -30.9440  -24.9047   18.3880 C   0  0  1  0  0  0  0  0  0  0  0  0
  -34.7283  -24.6888   18.4375 C   0  0  2  0  0  0  0  0  0  0  0  0
  -28.1314  -18.2617   24.8669 C   0  0  2  0  0  0  0  0  0  0  0  0
  -30.1738  -25.0554   17.0458 C   0  0  0  0  0  0  0  0  0  0  0  0
  -31.0507  -12.7601   25.2646 C   0  0  0  0  0  0  0  0  0  0  0  0
  -25.9396  -11.5551   20.5606 N   0  0  0  0  0  0  0  0  0  0  0  0
  -26.3325  -12.8328   20.4226 N   0  0  0  0  0  0  0  0  0  0  0  0
  -29.9295  -25.2464   20.6191 N   0  0  0  0  0  0  0  0  0  0  0  0
  -30.1311  -12.4179   20.5069 N   0  0  0  0  0  0  0  0  0  0  0  0
  -25.5416  -15.0654   20.4482 N   0  0  0  0  0  0  0  0  0  0  0  0
  -21.8210  -12.6328   21.2459 N   0  0  0  0  0  0  0  0  0  0  0  0
  -27.1889  -27.1864   20.9281 N   0  0  0  0  0  0  0  0  0  0  0  0
  -32.3786  -25.1491   18.2844 N   0  0  0  0  0  0  0  0  0  0  0  0
  -30.7586  -12.6210   22.7781 N   0  0  0  0  0  0  0  0  0  0  0  0
  -30.1029  -15.0669   24.8543 N   0  3  2  0  0  0  0  0  0  0  0  0
  -35.6311  -24.1125   19.4737 N   0  3  0  0  0  0  0  0  0  0  0  0
  -22.6312  -14.7605   20.9713 O   0  0  0  0  0  0  0  0  0  0  0  0
  -27.2019  -24.9053   21.3960 O   0  0  0  0  0  0  0  0  0  0  0  0
  -30.4818  -27.0606   19.2627 O   0  0  0  0  0  0  0  0  0  0  0  0
  -33.0476  -23.0730   19.0716 O   0  0  0  0  0  0  0  0  0  0  0  0
  -32.3093  -12.9282   21.1175 O   0  0  0  0  0  0  0  0  0  0  0  0
  -21.5281   -7.0804   21.5928 O   0  0  0  0  0  0  0  0  0  0  0  0
  -29.4251  -20.1301   24.0282 O   0  0  0  0  0  0  0  0  0  1  0  0
  -22.3067   -2.8329   18.1640 F   0  0  0  0  0  0  0  0  0  0  0  0
  -19.4587   -6.1204   20.0313 F   0  0  0  0  0  0  0  0  0  0  0  0
  1  2  1  0  0  0  0
  1  5  2  0  0  0  0
  2  6  2  0  0  0  0
  3  8  2  0  0  0  0
  3 15  1  0  0  0  0
  4  9  1  0  0  0  0
  4 15  2  0  0  0  0
  5 17  1  0  0  0  0
  6 19  1  0  0  0  0
  7 10  2  0  0  0  0
  7 18  1  0  0  0  0
  8 21  1  0  0  0  0
  9 21  2  0  0  0  0
 10 22  1  0  0  0  0
 11 12  2  0  0  0  0
 11 23  1  0  0  0  0
 12 24  1  0  0  0  0
 13 20  1  0  0  0  0
 13 22  2  0  0  0  0
 14 24  2  0  0  0  0
 14 25  1  0  0  0  0
 15 26  1  0  0  0  0
 16 26  1  0  0  0  0
 16 27  2  0  0  0  0
 16 28  1  0  0  0  0
 17 19  2  0  0  0  0
 17 33  1  0  0  0  0
 18 20  2  0  0  0  0
 18 34  1  0  0  0  0
 19 45  1  0  0  0  0
 20 35  1  0  0  0  0
 21 81  1  0  0  0  0
 22 82  1  0  0  0  0
 23 25  2  0  0  0  0
 23 81  1  0  0  0  0
 24 83  1  0  0  0  0
 25 84  1  0  0  0  0
 26 65  2  0  0  0  0
 27 66  1  0  0  0  0
 27 69  1  0  0  0  0
 28 70  1  0  0  0  0
 28 76  2  0  0  0  0
 29 46  1  0  0  0  0
 29 71  1  0  0  0  0
 29 77  2  0  0  0  0
 30 60  1  0  0  0  0
 30 67  1  0  0  0  0
 30 78  2  0  0  0  0
 31 61  1  0  0  0  0
 31 72  1  0  0  0  0
 31 79  2  0  0  0  0
 32 68  1  0  0  0  0
 32 73  1  0  0  0  0
 32 80  2  0  0  0  0
 33 36  1  0  0  0  0
 34 46  1  0  0  0  0
 35 67  1  0  0  0  0
 36 38  1  0  0  0  0
 37 39  1  0  0  0  0
 37 41  1  0  0  0  0
 38 45  1  0  0  0  0
 39 48  1  0  0  0  0
 40 43  1  0  0  0  0
 40 47  1  0  0  0  0
 41 68  1  0  0  0  0
 42 48  1  0  0  0  0
 42 68  1  0  0  0  0
 43 74  1  0  0  0  0
 44 47  1  0  0  0  0
 44 74  1  0  0  0  0
 45 71  1  0  0  0  0
 46 67  1  0  0  0  0
 47 62  1  0  0  0  0
 48 66  1  0  0  0  0
 49 61  1  0  0  0  0
 50 62  1  0  0  0  0
 51 63  1  0  0  0  0
 52 63  1  0  0  0  0
 53 63  1  0  0  0  0
 54 64  1  0  0  0  0
 55 64  1  0  0  0  0
 56 75  1  0  0  0  0
 57 64  1  0  0  0  0
 57 73  1  0  0  0  0
 58 64  1  0  0  0  0
 58 74  1  0  0  0  0
 59 62  1  0  0  0  0
 59 82  1  0  0  0  0
 60 63  1  0  0  0  0
 60 72  1  0  0  0  0
 61 75  1  0  0  0  0
 65 66  1  0  0  0  0
M  CHG  2  74   1  75   1
M  ISO  4  32 100  59 101  73 100  82 101
M  END
> <Batch ID>
0109

> <Smiles>
CNC(C)C(=O)NC(C(=O)N1Cc2cc([101O:1][101CH2:1]C(C)C3CCN(CC(C)(C)C[100NH:0][100C:0](=O)N4CCCC(n5nc(-c6ccc(Oc7ccc(F)cc7F)cc6)c(C(N)=O)c5N)C4)C3)ccc2CC1C(=O)NC1CCCc2ccccc21)C(C)(C)C

> <Shape>
0.231

> <Color>
0.198

> <Negative vol penalty>
0.000

$$$$

  -OEChem-04052319563D

 85 93  0     1  0  0  0  0  0999 V2000
  -19.8399   -8.5658   19.8240 C   0  0  0  0  0  0  0  0  0  0  0  0
  -19.7310   -9.9008   20.2001 C   0  0  0  0  0  0  0  0  0  0  0  0
  -25.3046  -33.1900   22.6796 C   0  0  0  0  0  0  0  0  0  0  0  0
  -26.5070  -31.4010   23.7706 C   0  0  0  0  0  0  0  0  0  0  0  0
  -21.0403   -7.8838   20.0180 C   0  0  0  0  0  0  0  0  0  0  0  0
  -20.8224  -10.5542   20.7714 C   0  0  0  0  0  0  0  0  0  0  0  0
  -22.3737  -16.4365   20.0659 C   0  0  0  0  0  0  0  0  0  0  0  0
  -21.4222  -21.7878   23.6984 C   0  0  0  0  0  0  0  0  0  0  0  0
  -21.2481  -23.0913   23.2337 C   0  0  0  0  0  0  0  0  0  0  0  0
  -25.7783  -34.0904   23.6338 C   0  0  0  0  0  0  0  0  0  0  0  0
  -26.9809  -32.3013   24.7248 C   0  0  0  0  0  0  0  0  0  0  0  0
  -22.1617  -17.5640   20.8581 C   0  0  0  0  0  0  0  0  0  0  0  0
  -25.0578  -34.9479   26.8228 C   0  0  0  0  0  0  0  0  0  0  0  0
  -24.1454  -35.8485   27.3722 C   0  0  0  0  0  0  0  0  0  0  0  0
  -24.3549  -17.2901   21.8244 C   0  0  0  0  0  0  0  0  0  0  0  0
  -25.4665  -37.6932   26.5422 C   0  0  0  0  0  0  0  0  0  0  0  0
  -25.6689  -31.8453   22.7480 C   0  0  0  0  0  0  0  0  0  0  0  0
  -25.7858  -30.5754   20.5386 C   0  0  0  0  0  0  0  0  0  0  0  0
  -22.1499   -8.5319   20.5831 C   0  0  0  0  0  0  0  0  0  0  0  0
  -23.5757  -15.7198   20.1550 C   0  0  0  0  0  0  0  0  0  0  0  0
  -22.0384   -9.8798   20.9744 C   0  0  0  0  0  0  0  0  0  0  0  0
  -24.5808  -16.1554   21.0303 C   0  0  0  0  0  0  0  0  0  0  0  0
  -22.6414  -21.4033   24.2567 C   0  0  0  0  0  0  0  0  0  0  0  0
  -23.6863  -22.3225   24.3503 C   0  0  0  0  0  0  0  0  0  0  0  0
  -23.5122  -23.6261   23.8855 C   0  0  0  0  0  0  0  0  0  0  0  0
  -22.2931  -24.0105   23.3273 C   0  0  0  0  0  0  0  0  0  0  0  0
  -26.6165  -33.6461   24.6564 C   0  0  0  0  0  0  0  0  0  0  0  0
  -23.1512  -17.9893   21.7396 C   0  0  0  0  0  0  0  0  0  0  0  0
  -26.1746  -35.4198   26.1331 C   0  0  0  0  0  0  0  0  0  0  0  0
  -24.3497  -37.2212   27.2319 C   0  0  0  0  0  0  0  0  0  0  0  0
  -26.3789  -36.7925   25.9928 C   0  0  0  0  0  0  0  0  0  0  0  0
  -25.1794  -30.9146   21.7629 C   0  0  0  0  0  0  0  0  0  0  0  0
  -24.9330  -29.6577   19.9757 C   0  0  0  0  0  0  0  0  0  0  0  0
  -27.0106  -31.0475   19.9619 C   0  0  0  0  0  0  0  0  0  0  0  0
  -24.3621  -12.7527   20.9806 C   0  0  0  0  0  0  0  0  0  0  0  0
  -27.3155  -13.6824   20.0136 C   0  0  0  0  0  0  0  0  0  0  0  0
  -29.5104  -16.2347   19.4525 C   0  0  0  0  0  0  0  0  0  0  0  0
  -20.9380  -25.8528   22.2708 C   0  0  0  0  0  0  0  0  0  0  0  0
  -23.4120   -7.7399   20.8167 C   0  0  0  0  0  0  0  0  0  0  0  0
  -23.7994  -14.5212   19.2742 C   0  0  0  0  0  0  0  0  0  0  0  0
  -25.8969  -15.4327   21.1490 C   0  0  0  0  0  0  0  0  0  0  0  0
  -24.6369   -8.6108   21.0840 C   0  0  0  0  0  0  0  0  0  0  0  0
  -20.3102  -28.4108   19.8752 C   0  0  0  0  0  0  0  0  0  0  0  0
  -24.3066   -9.6991   22.1005 C   0  0  0  0  0  0  0  0  0  0  0  0
  -21.5456  -29.3090   19.9716 C   0  0  0  0  0  0  0  0  0  0  0  0
  -19.9001  -27.8618   21.2405 C   0  0  0  0  0  0  0  0  0  0  0  0
  -22.2055  -28.0828   22.0807 C   0  0  0  0  0  0  0  0  0  0  0  0
  -23.2076  -10.6301   21.5745 C   0  0  1  0  0  0  0  0  0  0  0  0
  -24.8581  -13.5680   19.8200 C   0  0  1  0  0  0  0  0  0  0  0  0
  -22.6953  -28.6074   20.7211 C   0  0  2  0  0  0  0  0  0  0  0  0
  -24.9927  -21.9073   24.9497 C   0  0  0  0  0  0  0  0  0  0  0  0
  -31.8623  -16.6806   18.6993 C   0  0  0  0  0  0  0  0  0  0  0  0
  -26.5845  -26.4698   21.3547 C   0  0  0  0  0  0  0  0  0  0  0  0
  -27.6403  -25.2282   23.2829 C   0  0  0  0  0  0  0  0  0  0  0  0
  -28.3571  -12.7653   22.7309 C   0  0  0  0  0  0  0  0  0  0  0  0
  -30.4451  -14.0762   22.2951 C   0  0  0  0  0  0  0  0  0  0  0  0
  -29.8302  -12.1788   20.7970 C   0  0  0  0  0  0  0  0  0  0  0  0
  -28.5895  -17.8289   17.1353 C   0  0  0  0  0  0  0  0  0  0  0  0
  -22.8029  -19.9866   24.7519 C   0  0  0  0  0  0  0  0  0  0  0  0
  -24.6350  -24.6109   23.9870 C   0  0  0  0  0  0  0  0  0  0  0  0
  -23.6004  -19.1210   23.7825 C   0  0  0  0  0  0  0  0  0  1  0  0
  -28.5050  -14.3288   20.6817 C   0  0  1  0  0  0  0  0  0  0  0  0
  -30.4093  -16.5486   18.2701 C   0  0  2  0  0  0  0  0  0  0  0  0
  -26.3830  -25.8939   22.7471 C   0  0  0  0  0  0  0  0  0  0  0  0
  -29.2589  -13.3499   21.6256 C   0  0  0  0  0  0  0  0  0  0  0  0
  -24.0299  -30.2654   21.9664 N   0  0  0  0  0  0  0  0  0  0  0  0
  -23.9073  -29.5091   20.8623 N   0  0  0  0  0  0  0  0  0  0  0  0
  -26.0655  -14.2628   20.2713 N   0  0  0  0  0  0  0  0  0  0  0  0
  -21.0383  -27.2075   21.8895 N   0  0  0  0  0  0  0  0  0  0  0  0
  -24.9678  -28.9715   18.8136 N   0  0  0  0  0  0  0  0  0  0  0  0
  -27.7649  -31.9898   20.6742 N   0  0  0  0  0  0  0  0  0  0  0  0
  -22.0940  -25.3294   22.8490 N   0  0  0  0  0  0  0  0  0  0  0  0
  -23.7544  -11.5664   20.6160 N   0  0  0  0  0  0  0  0  0  0  0  0
  -29.3277  -14.8770   19.6088 N   0  0  0  0  0  0  0  0  0  0  0  0
  -29.9915  -17.8262   17.6266 N   0  3  0  0  0  0  0  0  0  0  0  0
  -25.3007  -24.8761   22.6842 N   0  3  0  0  0  0  0  0  0  0  0  0
  -27.4157  -30.6578   18.8404 O   0  0  0  0  0  0  0  0  0  0  0  0
  -24.5204  -13.1684   22.1225 O   0  0  0  0  0  0  0  0  0  0  0  0
  -27.4899  -12.7031   19.2840 O   0  0  0  0  0  0  0  0  0  0  0  0
  -29.0224  -17.1066   20.1682 O   0  0  0  0  0  0  0  0  0  0  0  0
  -19.9119  -25.1971   22.0725 O   0  0  0  0  0  0  0  0  0  0  0  0
  -27.0792  -34.5244   25.5875 O   0  0  0  0  0  0  0  0  0  0  0  0
  -22.9466  -19.0891   22.5145 O   0  0  0  0  0  0  0  0  0  1  0  0
  -23.4726  -38.0859   27.7583 F   0  0  0  0  0  0  0  0  0  0  0  0
  -27.4493  -37.2519   25.3302 F   0  0  0  0  0  0  0  0  0  0  0  0
  1  2  1  0  0  0  0
  1  5  2  0  0  0  0
  2  6  2  0  0  0  0
  3 10  2  0  0  0  0
  3 17  1  0  0  0  0
  4 11  1  0  0  0  0
  4 17  2  0  0  0  0
  5 19  1  0  0  0  0
  6 21  1  0  0  0  0
  7 12  2  0  0  0  0
  7 20  1  0  0  0  0
  8  9  2  0  0  0  0
  8 23  1  0  0  0  0
  9 26  1  0  0  0  0
 10 27  1  0  0  0  0
 11 27  2  0  0  0  0
 12 28  1  0  0  0  0
 13 14  2  0  0  0  0
 13 29  1  0  0  0  0
 14 30  1  0  0  0  0
 15 22  1  0  0  0  0
 15 28  2  0  0  0  0
 16 30  2  0  0  0  0
 16 31  1  0  0  0  0
 17 32  1  0  0  0  0
 18 32  1  0  0  0  0
 18 33  2  0  0  0  0
 18 34  1  0  0  0  0
 19 21  2  0  0  0  0
 19 39  1  0  0  0  0
 20 22  2  0  0  0  0
 20 40  1  0  0  0  0
 21 48  1  0  0  0  0
 22 41  1  0  0  0  0
 23 24  2  0  0  0  0
 23 59  1  0  0  0  0
 24 25  1  0  0  0  0
 24 51  1  0  0  0  0
 25 26  2  0  0  0  0
 25 60  1  0  0  0  0
 26 72  1  0  0  0  0
 27 82  1  0  0  0  0
 28 83  1  0  0  0  0
 29 31  2  0  0  0  0
 29 82  1  0  0  0  0
 30 84  1  0  0  0  0
 31 85  1  0  0  0  0
 32 66  2  0  0  0  0
 33 67  1  0  0  0  0
 33 70  1  0  0  0  0
 34 71  1  0  0  0  0
 34 77  2  0  0  0  0
 35 49  1  0  0  0  0
 35 73  1  0  0  0  0
 35 78  2  0  0  0  0
 36 62  1  0  0  0  0
 36 68  1  0  0  0  0
 36 79  2  0  0  0  0
 37 63  1  0  0  0  0
 37 74  1  0  0  0  0
 37 80  2  0  0  0  0
 38 69  1  0  0  0  0
 38 72  1  0  0  0  0
 38 81  2  0  0  0  0
 39 42  1  0  0  0  0
 40 49  1  0  0  0  0
 41 68  1  0  0  0  0
 42 44  1  0  0  0  0
 43 45  1  0  0  0  0
 43 46  1  0  0  0  0
 44 48  1  0  0  0  0
 45 50  1  0  0  0  0
 46 69  1  0  0  0  0
 47 50  1  0  0  0  0
 47 69  1  0  0  0  0
 48 73  1  0  0  0  0
 49 68  1  0  0  0  0
 50 67  1  0  0  0  0
 52 63  1  0  0  0  0
 53 64  1  0  0  0  0
 54 64  1  0  0  0  0
 55 65  1  0  0  0  0
 56 65  1  0  0  0  0
 57 65  1  0  0  0  0
 58 75  1  0  0  0  0
 59 61  1  0  0  0  0
 60 76  1  0  0  0  0
 61 83  1  0  0  0  0
 62 65  1  0  0  0  0
 62 74  1  0  0  0  0
 63 75  1  0  0  0  0
 64 76  1  0  0  0  0
 66 67  1  0  0  0  0
M  CHG  2  75   1  76   1
M  ISO  4  38 100  61 101  72 100  83 101
M  END
> <Batch ID>
0109

> <Smiles>
CNC(C)C(=O)NC(C(=O)N1Cc2cc([101O:1][101CH2:1]Cc3ccc([100NH:0][100C:0](=O)N4CCCC(n5nc(-c6ccc(Oc7ccc(F)cc7F)cc6)c(C(N)=O)c5N)C4)c(CNC(C)C)c3C)ccc2CC1C(=O)NC1CCCc2ccccc21)C(C)(C)C

> <Shape>
0.255

> <Color>
0.039

> <Negative vol penalty>
0.000

$$$$

  -OEChem-04052319563D

 80 87  0     1  0  0  0  0  0999 V2000
  -26.3120  -25.5493   18.9853 C   0  0  0  0  0  0  0  0  0  0  0  0
  -26.6176  -24.3941   19.6977 C   0  0  0  0  0  0  0  0  0  0  0  0
  -23.0008   -9.8944   19.9807 C   0  0  0  0  0  0  0  0  0  0  0  0
  -23.7316   -9.9427   22.2830 C   0  0  0  0  0  0  0  0  0  0  0  0
  -27.3250  -26.4436   18.6417 C   0  0  0  0  0  0  0  0  0  0  0  0
  -27.9368  -24.1320   20.0660 C   0  0  0  0  0  0  0  0  0  0  0  0
  -29.8503  -21.3758   25.1892 C   0  0  0  0  0  0  0  0  0  0  0  0
  -22.2363   -8.7585   20.2471 C   0  0  0  0  0  0  0  0  0  0  0  0
  -22.9671   -8.8068   22.5495 C   0  0  0  0  0  0  0  0  0  0  0  0
  -30.2405  -20.0649   25.4595 C   0  0  0  0  0  0  0  0  0  0  0  0
  -23.2143   -5.4689   22.0718 C   0  0  0  0  0  0  0  0  0  0  0  0
  -23.8049   -4.4513   22.8209 C   0  0  0  0  0  0  0  0  0  0  0  0
  -32.5487  -20.6952   25.1530 C   0  0  0  0  0  0  0  0  0  0  0  0
  -22.0849   -4.6895   24.5007 C   0  0  0  0  0  0  0  0  0  0  0  0
  -23.7485  -10.4864   20.9986 C   0  0  0  0  0  0  0  0  0  0  0  0
  -24.1303  -13.0028   20.8255 C   0  0  0  0  0  0  0  0  0  0  0  0
  -28.6558  -26.1971   19.0143 C   0  0  0  0  0  0  0  0  0  0  0  0
  -30.8072  -22.3555   24.8876 C   0  0  0  0  0  0  0  0  0  0  0  0
  -28.9687  -25.0231   19.7259 C   0  0  0  0  0  0  0  0  0  0  0  0
  -32.1683  -22.0184   24.8818 C   0  0  0  0  0  0  0  0  0  0  0  0
  -22.2194   -8.2148   21.5315 C   0  0  0  0  0  0  0  0  0  0  0  0
  -31.5897  -19.7238   25.4386 C   0  0  0  0  0  0  0  0  0  0  0  0
  -22.0590   -6.0969   22.5372 C   0  0  0  0  0  0  0  0  0  0  0  0
  -23.2402   -4.0615   24.0353 C   0  0  0  0  0  0  0  0  0  0  0  0
  -21.4943   -5.7072   23.7516 C   0  0  0  0  0  0  0  0  0  0  0  0
  -24.5388  -11.6594   20.7238 C   0  0  0  0  0  0  0  0  0  0  0  0
  -25.2382  -13.7273   20.4595 C   0  0  0  0  0  0  0  0  0  0  0  0
  -22.8626  -13.5470   21.2160 C   0  0  0  0  0  0  0  0  0  0  0  0
  -31.4148  -24.1974   22.3693 C   0  0  0  0  0  0  0  0  0  0  0  0
  -33.6082  -25.5228   24.3580 C   0  0  0  0  0  0  0  0  0  0  0  0
  -35.6126  -25.1835   27.0991 C   0  0  0  0  0  0  0  0  0  0  0  0
  -30.7341  -14.6682   20.6959 C   0  0  0  0  0  0  0  0  0  0  0  0
  -29.7235  -27.1694   18.5793 C   0  0  0  0  0  0  0  0  0  0  0  0
  -30.3719  -23.7710   24.6246 C   0  0  0  0  0  0  0  0  0  0  0  0
  -33.2364  -23.0376   24.5836 C   0  0  0  0  0  0  0  0  0  0  0  0
  -31.0410  -27.0044   19.3324 C   0  0  0  0  0  0  0  0  0  0  0  0
  -29.5906  -12.2468   18.3495 C   0  0  0  0  0  0  0  0  0  0  0  0
  -31.4349  -25.5324   19.4029 C   0  0  0  0  0  0  0  0  0  0  0  0
  -28.1434  -11.9846   18.7703 C   0  0  0  0  0  0  0  0  0  0  0  0
  -30.4957  -12.4814   19.5569 C   0  0  0  0  0  0  0  0  0  0  0  0
  -28.5879  -13.2725   20.9016 C   0  0  0  0  0  0  0  0  0  0  0  0
  -30.3840  -24.7160   20.1649 C   0  0  1  0  0  0  0  0  0  0  0  0
  -31.3945  -24.5717   23.8243 C   0  0  1  0  0  0  0  0  0  0  0  0
  -27.6262  -13.0855   19.7157 C   0  0  2  0  0  0  0  0  0  0  0  0
  -32.6424  -13.8044   23.7062 C   0  0  0  0  0  0  0  0  0  0  0  0
  -37.3206  -26.4238   28.4562 C   0  0  0  0  0  0  0  0  0  0  0  0
  -35.6959  -25.0128   22.1920 C   0  0  0  0  0  0  0  0  0  0  0  0
  -37.4732  -25.3714   23.9185 C   0  0  0  0  0  0  0  0  0  0  0  0
  -35.9047  -27.2236   23.3423 C   0  0  0  0  0  0  0  0  0  0  0  0
  -29.8935  -17.6832   22.7809 C   0  0  0  0  0  0  0  0  0  0  0  0
  -31.1257  -17.6407   20.6069 C   0  0  0  0  0  0  0  0  0  0  0  0
  -33.9337  -25.0658   29.5335 C   0  0  0  0  0  0  0  0  0  0  0  0
  -31.5093  -14.6962   24.1644 C   0  0  0  0  0  0  0  0  0  0  0  0
  -33.0917  -16.4767   24.8902 C   0  0  0  0  0  0  0  0  0  0  0  0
  -32.1463  -16.5149   22.5869 C   0  0  0  0  0  0  0  0  0  0  0  0
  -33.1641  -17.9805   25.0668 C   0  0  0  0  0  0  0  0  0  1  0  0
  -35.0578  -25.2539   24.6821 C   0  0  1  0  0  0  0  0  0  0  0  0
  -35.8459  -26.0893   28.2947 C   0  0  2  0  0  0  0  0  0  0  0  0
  -36.0129  -25.6956   23.5375 C   0  0  0  0  0  0  0  0  0  0  0  0
  -30.8170  -16.8454   21.8843 C   0  0  0  0  0  0  0  0  0  0  0  0
  -25.8073  -11.5351   20.3243 N   0  0  0  0  0  0  0  0  0  0  0  0
  -26.2053  -12.8096   20.1717 N   0  0  0  0  0  0  0  0  0  0  0  0
  -32.7600  -24.4068   24.3267 N   0  0  0  0  0  0  0  0  0  0  0  0
  -29.9497  -13.5381   20.4120 N   0  0  0  0  0  0  0  0  0  0  0  0
  -25.4698  -15.0534   20.3589 N   0  0  0  0  0  0  0  0  0  0  0  0
  -21.8327  -12.6611   21.5607 N   0  0  0  0  0  0  0  0  0  0  0  0
  -30.5263  -24.9149   21.5913 N   0  0  0  0  0  0  0  0  0  0  0  0
  -35.3176  -25.9049   25.9617 N   0  0  0  0  0  0  0  0  0  0  0  0
  -30.1385  -15.6250   21.5087 N   0  0  0  0  0  0  0  0  0  0  0  0
  -35.3742  -25.4291   29.5447 N   0  3  0  0  0  0  0  0  0  0  0  0
  -31.9282  -16.1395   24.0318 N   0  3  1  0  0  0  0  0  0  0  0  0
  -22.6444  -14.7820   21.2422 O   0  0  0  0  0  0  0  0  0  0  0  0
  -32.1810  -23.3234   21.9809 O   0  0  0  0  0  0  0  0  0  0  0  0
  -33.2404  -26.6813   24.1475 O   0  0  0  0  0  0  0  0  0  0  0  0
  -35.6885  -23.9587   27.1665 O   0  0  0  0  0  0  0  0  0  0  0  0
  -31.8782  -14.8162   20.2533 O   0  0  0  0  0  0  0  0  0  0  0  0
  -21.4733   -7.1066   21.7920 O   0  0  0  0  0  0  0  0  0  0  0  0
  -31.9733  -18.4449   25.7014 O   0  0  0  0  0  0  0  0  0  1  0  0
  -23.8067   -3.0832   24.7538 F   0  0  0  0  0  0  0  0  0  0  0  0
  -20.3838   -6.3060   24.2033 F   0  0  0  0  0  0  0  0  0  0  0  0
  1  2  1  0  0  0  0
  1  5  2  0  0  0  0
  2  6  2  0  0  0  0
  3  8  2  0  0  0  0
  3 15  1  0  0  0  0
  4  9  1  0  0  0  0
  4 15  2  0  0  0  0
  5 17  1  0  0  0  0
  6 19  1  0  0  0  0
  7 10  2  0  0  0  0
  7 18  1  0  0  0  0
  8 21  1  0  0  0  0
  9 21  2  0  0  0  0
 10 22  1  0  0  0  0
 11 12  2  0  0  0  0
 11 23  1  0  0  0  0
 12 24  1  0  0  0  0
 13 20  1  0  0  0  0
 13 22  2  0  0  0  0
 14 24  2  0  0  0  0
 14 25  1  0  0  0  0
 15 26  1  0  0  0  0
 16 26  1  0  0  0  0
 16 27  2  0  0  0  0
 16 28  1  0  0  0  0
 17 19  2  0  0  0  0
 17 33  1  0  0  0  0
 18 20  2  0  0  0  0
 18 34  1  0  0  0  0
 19 42  1  0  0  0  0
 20 35  1  0  0  0  0
 21 77  1  0  0  0  0
 22 78  1  0  0  0  0
 23 25  2  0  0  0  0
 23 77  1  0  0  0  0
 24 79  1  0  0  0  0
 25 80  1  0  0  0  0
 26 61  2  0  0  0  0
 27 62  1  0  0  0  0
 27 65  1  0  0  0  0
 28 66  1  0  0  0  0
 28 72  2  0  0  0  0
 29 43  1  0  0  0  0
 29 67  1  0  0  0  0
 29 73  2  0  0  0  0
 30 57  1  0  0  0  0
 30 63  1  0  0  0  0
 30 74  2  0  0  0  0
 31 58  1  0  0  0  0
 31 68  1  0  0  0  0
 31 75  2  0  0  0  0
 32 64  1  0  0  0  0
 32 69  1  0  0  0  0
 32 76  2  0  0  0  0
 33 36  1  0  0  0  0
 34 43  1  0  0  0  0
 35 63  1  0  0  0  0
 36 38  1  0  0  0  0
 37 39  1  0  0  0  0
 37 40  1  0  0  0  0
 38 42  1  0  0  0  0
 39 44  1  0  0  0  0
 40 64  1  0  0  0  0
 41 44  1  0  0  0  0
 41 64  1  0  0  0  0
 42 67  1  0  0  0  0
 43 63  1  0  0  0  0
 44 62  1  0  0  0  0
 45 53  1  0  0  0  0
 46 58  1  0  0  0  0
 47 59  1  0  0  0  0
 48 59  1  0  0  0  0
 49 59  1  0  0  0  0
 50 60  1  0  0  0  0
 51 60  1  0  0  0  0
 52 70  1  0  0  0  0
 53 71  1  0  0  0  0
 54 56  1  0  0  0  0
 54 71  1  0  0  0  0
 55 60  1  0  0  0  0
 55 71  1  0  0  0  0
 56 78  1  0  0  0  0
 57 59  1  0  0  0  0
 57 68  1  0  0  0  0
 58 70  1  0  0  0  0
 60 69  1  0  0  0  0
 61 62  1  0  0  0  0
M  CHG  2  70   1  71   1
M  ISO  4  32 100  56 101  69 100  78 101
M  END
> <Batch ID>
0109

> <Smiles>
CCN(CC(C)(C)[100NH:0][100C:0](=O)N1CCCC(n2nc(-c3ccc(Oc4ccc(F)cc4F)cc3)c(C(N)=O)c2N)C1)C[101CH2:1][101O:1]c1ccc2c(c1)CN(C(=O)C(NC(=O)C(C)NC)C(C)(C)C)C(C(=O)NC1CCCc3ccccc31)C2

> <Shape>
0.225

> <Color>
0.197

> <Negative vol penalty>
0.000

$$$$

  -OEChem-04052319563D

 85 93  0     1  0  0  0  0  0999 V2000
  -22.6757  -10.3607   24.9503 C   0  0  0  0  0  0  0  0  0  0  0  0
  -23.3436  -11.5744   25.0782 C   0  0  0  0  0  0  0  0  0  0  0  0
  -23.4414  -29.9750   20.0096 C   0  0  0  0  0  0  0  0  0  0  0  0
  -23.6389  -28.6456   22.0173 C   0  0  0  0  0  0  0  0  0  0  0  0
  -22.6597   -9.7012   23.7221 C   0  0  0  0  0  0  0  0  0  0  0  0
  -23.9969  -12.1287   23.9780 C   0  0  0  0  0  0  0  0  0  0  0  0
  -23.0994  -17.0877   23.4811 C   0  0  0  0  0  0  0  0  0  0  0  0
  -22.1451  -30.3362   20.3763 C   0  0  0  0  0  0  0  0  0  0  0  0
  -22.3425  -29.0069   22.3840 C   0  0  0  0  0  0  0  0  0  0  0  0
  -23.8013  -17.9493   24.3229 C   0  0  0  0  0  0  0  0  0  0  0  0
  -18.9555  -29.2894   23.6716 C   0  0  0  0  0  0  0  0  0  0  0  0
  -18.1106  -28.2840   24.1415 C   0  0  0  0  0  0  0  0  0  0  0  0
  -25.3484  -18.4264   22.5346 C   0  0  0  0  0  0  0  0  0  0  0  0
  -29.1633  -19.5543   22.2816 C   0  0  0  0  0  0  0  0  0  0  0  0
  -28.1092  -21.7093   22.1107 C   0  0  0  0  0  0  0  0  0  0  0  0
  -18.3378  -27.1116   22.0413 C   0  0  0  0  0  0  0  0  0  0  0  0
  -24.1884  -29.1296   20.8301 C   0  0  0  0  0  0  0  0  0  0  0  0
  -26.7216  -29.4257   20.7780 C   0  0  0  0  0  0  0  0  0  0  0  0
  -23.3050  -10.2524   22.6038 C   0  0  0  0  0  0  0  0  0  0  0  0
  -23.5237  -16.8803   22.1608 C   0  0  0  0  0  0  0  0  0  0  0  0
  -23.9907  -11.4752   22.7340 C   0  0  0  0  0  0  0  0  0  0  0  0
  -24.6486  -17.5636   21.6773 C   0  0  0  0  0  0  0  0  0  0  0  0
  -28.5245  -20.6318   22.8851 C   0  0  0  0  0  0  0  0  0  0  0  0
  -21.5956  -29.8522   21.5635 C   0  0  0  0  0  0  0  0  0  0  0  0
  -24.9277  -18.6166   23.8506 C   0  0  0  0  0  0  0  0  0  0  0  0
  -19.4915  -29.2061   22.3865 C   0  0  0  0  0  0  0  0  0  0  0  0
  -17.8018  -27.1950   23.3264 C   0  0  0  0  0  0  0  0  0  0  0  0
  -19.1827  -28.1171   21.5714 C   0  0  0  0  0  0  0  0  0  0  0  0
  -25.5274  -28.7556   20.4515 C   0  0  0  0  0  0  0  0  0  0  0  0
  -29.3614  -19.6025   20.9111 C   0  0  0  0  0  0  0  0  0  0  0  0
  -28.3547  -21.6611   20.7479 C   0  0  0  0  0  0  0  0  0  0  0  0
  -27.7087  -28.6765   20.1858 C   0  0  0  0  0  0  0  0  0  0  0  0
  -26.9209  -30.6188   21.5478 C   0  0  0  0  0  0  0  0  0  0  0  0
  -24.5324  -14.3663   20.4977 C   0  0  0  0  0  0  0  0  0  0  0  0
  -24.4428  -16.4595   18.0212 C   0  0  0  0  0  0  0  0  0  0  0  0
  -25.3353  -19.9093   17.4556 C   0  0  0  0  0  0  0  0  0  0  0  0
  -28.0690  -22.9294   18.5900 C   0  0  0  0  0  0  0  0  0  0  0  0
  -23.3004   -9.4794   21.3088 C   0  0  0  0  0  0  0  0  0  0  0  0
  -22.7400  -15.9682   21.2573 C   0  0  0  0  0  0  0  0  0  0  0  0
  -25.1336  -17.3911   20.2619 C   0  0  0  0  0  0  0  0  0  0  0  0
  -23.7000  -10.3180   20.0975 C   0  0  0  0  0  0  0  0  0  0  0  0
  -28.4727  -25.7584   16.4662 C   0  0  0  0  0  0  0  0  0  0  0  0
  -24.9467  -11.1411   20.4058 C   0  0  0  0  0  0  0  0  0  0  0  0
  -27.8774  -26.9101   17.2794 C   0  0  0  0  0  0  0  0  0  0  0  0
  -27.6942  -24.4597   16.6684 C   0  0  0  0  0  0  0  0  0  0  0  0
  -26.9149  -25.2094   18.8819 C   0  0  0  0  0  0  0  0  0  0  0  0
  -24.6902  -12.1206   21.5574 C   0  0  1  0  0  0  0  0  0  0  0  0
  -23.5613  -15.4367   20.0867 C   0  0  1  0  0  0  0  0  0  0  0  0
  -27.7043  -26.5232   18.7612 C   0  0  2  0  0  0  0  0  0  0  0  0
  -32.4134  -19.4077   20.4711 C   0  0  0  0  0  0  0  0  0  0  0  0
  -29.1068  -17.7655   19.2225 C   0  0  0  0  0  0  0  0  0  0  0  0
  -24.4312  -21.5807   15.8166 C   0  0  0  0  0  0  0  0  0  0  0  0
  -24.5146  -21.5865   24.7998 C   0  0  0  0  0  0  0  0  0  0  0  0
  -26.7554  -15.5439   16.2538 C   0  0  0  0  0  0  0  0  0  0  0  0
  -27.0417  -17.9197   15.5176 C   0  0  0  0  0  0  0  0  0  0  0  0
  -24.9115  -16.7146   15.0357 C   0  0  0  0  0  0  0  0  0  0  0  0
  -24.7025  -21.8457   19.6024 C   0  0  0  0  0  0  0  0  0  0  0  0
  -28.2831  -20.6319   24.3735 C   0  0  0  0  0  0  0  0  0  0  0  0
  -31.3652  -18.8556   19.5126 C   0  0  0  0  0  0  0  0  0  0  0  0
  -27.0292  -21.4105   24.7975 C   0  0  0  0  0  0  0  0  0  0  0  0
  -30.0444  -18.4639   20.2296 C   0  0  1  0  0  0  0  0  0  0  0  0
  -25.4216  -17.4305   17.4062 C   0  0  1  0  0  0  0  0  0  0  0  0
  -24.3820  -21.0725   17.2491 C   0  0  2  0  0  0  0  0  0  0  0  0
  -25.7178  -20.8215   24.2633 C   0  0  1  0  0  0  0  0  0  1  0  0
  -26.0337  -16.8953   16.0809 C   0  0  0  0  0  0  0  0  0  0  0  0
  -25.7346  -27.6646   19.7094 N   0  0  0  0  0  0  0  0  0  0  0  0
  -28.9722  -20.6318   20.1259 N   0  0  0  0  0  0  0  0  0  0  0  0
  -27.0705  -27.6435   19.5645 N   0  0  0  0  0  0  0  0  0  0  0  0
  -24.3373  -16.4837   19.4191 N   0  0  0  0  0  0  0  0  0  0  0  0
  -27.5737  -24.1546   18.0957 N   0  0  0  0  0  0  0  0  0  0  0  0
  -29.0516  -28.8070   20.1410 N   0  0  0  0  0  0  0  0  0  0  0  0
  -25.7977  -31.2632   22.0841 N   0  0  0  0  0  0  0  0  0  0  0  0
  -27.9281  -22.7642   19.9675 N   0  0  0  0  0  0  0  0  0  0  0  0
  -23.9405  -13.2664   21.0887 N   0  0  0  0  0  0  0  0  0  0  0  0
  -24.7086  -18.6956   17.2670 N   0  0  0  0  0  0  0  0  0  0  0  0
  -24.7339  -22.1985   18.1597 N   0  3  0  0  0  0  0  0  0  0  0  0
  -28.0597  -31.1082   21.7403 O   0  0  0  0  0  0  0  0  0  0  0  0
  -25.7300  -14.5257   20.2923 O   0  0  0  0  0  0  0  0  0  0  0  0
  -23.7906  -15.7122   17.2879 O   0  0  0  0  0  0  0  0  0  0  0  0
  -26.5185  -20.0621   17.7508 O   0  0  0  0  0  0  0  0  0  0  0  0
  -28.6050  -22.1003   17.8503 O   0  0  0  0  0  0  0  0  0  0  0  0
  -20.3307  -30.2047   21.9217 O   0  0  0  0  0  0  0  0  0  0  0  0
  -25.6151  -19.4576   24.6704 O   0  0  0  0  0  0  0  0  0  1  0  0
  -16.9917  -26.2287   23.7783 F   0  0  0  0  0  0  0  0  0  0  0  0
  -19.6955  -28.0309   20.3363 F   0  0  0  0  0  0  0  0  0  0  0  0
  1  2  1  0  0  0  0
  1  5  2  0  0  0  0
  2  6  2  0  0  0  0
  3  8  2  0  0  0  0
  3 17  1  0  0  0  0
  4  9  1  0  0  0  0
  4 17  2  0  0  0  0
  5 19  1  0  0  0  0
  6 21  1  0  0  0  0
  7 10  2  0  0  0  0
  7 20  1  0  0  0  0
  8 24  1  0  0  0  0
  9 24  2  0  0  0  0
 10 25  1  0  0  0  0
 11 12  2  0  0  0  0
 11 26  1  0  0  0  0
 12 27  1  0  0  0  0
 13 22  1  0  0  0  0
 13 25  2  0  0  0  0
 14 23  2  0  0  0  0
 14 30  1  0  0  0  0
 15 23  1  0  0  0  0
 15 31  2  0  0  0  0
 16 27  2  0  0  0  0
 16 28  1  0  0  0  0
 17 29  1  0  0  0  0
 18 29  1  0  0  0  0
 18 32  2  0  0  0  0
 18 33  1  0  0  0  0
 19 21  2  0  0  0  0
 19 38  1  0  0  0  0
 20 22  2  0  0  0  0
 20 39  1  0  0  0  0
 21 47  1  0  0  0  0
 22 40  1  0  0  0  0
 23 58  1  0  0  0  0
 24 82  1  0  0  0  0
 25 83  1  0  0  0  0
 26 28  2  0  0  0  0
 26 82  1  0  0  0  0
 27 84  1  0  0  0  0
 28 85  1  0  0  0  0
 29 66  2  0  0  0  0
 30 61  1  0  0  0  0
 30 67  2  0  0  0  0
 31 67  1  0  0  0  0
 31 73  1  0  0  0  0
 32 68  1  0  0  0  0
 32 71  1  0  0  0  0
 33 72  1  0  0  0  0
 33 77  2  0  0  0  0
 34 48  1  0  0  0  0
 34 74  1  0  0  0  0
 34 78  2  0  0  0  0
 35 62  1  0  0  0  0
 35 69  1  0  0  0  0
 35 79  2  0  0  0  0
 36 63  1  0  0  0  0
 36 75  1  0  0  0  0
 36 80  2  0  0  0  0
 37 70  1  0  0  0  0
 37 73  1  0  0  0  0
 37 81  2  0  0  0  0
 38 41  1  0  0  0  0
 39 48  1  0  0  0  0
 40 69  1  0  0  0  0
 41 43  1  0  0  0  0
 42 44  1  0  0  0  0
 42 45  1  0  0  0  0
 43 47  1  0  0  0  0
 44 49  1  0  0  0  0
 45 70  1  0  0  0  0
 46 49  1  0  0  0  0
 46 70  1  0  0  0  0
 47 74  1  0  0  0  0
 48 69  1  0  0  0  0
 49 68  1  0  0  0  0
 50 59  1  0  0  0  0
 51 61  1  0  0  0  0
 52 63  1  0  0  0  0
 53 64  1  0  0  0  0
 54 65  1  0  0  0  0
 55 65  1  0  0  0  0
 56 65  1  0  0  0  0
 57 76  1  0  0  0  0
 58 60  1  0  0  0  0
 59 61  1  0  0  0  0
 60 64  1  0  0  0  0
 62 65  1  0  0  0  0
 62 75  1  0  0  0  0
 63 76  1  0  0  0  0
 64 83  1  0  0  0  0
 66 68  1  0  0  0  0
M  CHG  1  76   1
M  ISO  4  37 100  64 101  73 100  83 101
M  END
> <Batch ID>
0109

> <Smiles>
CCC(C)c1cc(CC[101CH:1](C)[101O:1]c2ccc3c(c2)CN(C(=O)C(NC(=O)C(C)NC)C(C)(C)C)C(C(=O)NC2CCCc4ccccc42)C3)cc([100NH:0][100C:0](=O)N2CCCC(n3nc(-c4ccc(Oc5ccc(F)cc5F)cc4)c(C(N)=O)c3N)C2)n1

> <Shape>
0.223

> <Color>
0.053

> <Negative vol penalty>
0.000

$$$$

  -OEChem-04052319563D

 89 97  0     1  0  0  0  0  0999 V2000
  -30.8459  -24.8359   17.5342 C   0  0  0  0  0  0  0  0  0  0  0  0
  -29.5746  -25.1719   17.0800 C   0  0  0  0  0  0  0  0  0  0  0  0
  -27.5758  -15.0003   21.4512 C   0  0  0  0  0  0  0  0  0  0  0  0
  -25.8384  -15.8132   19.9822 C   0  0  0  0  0  0  0  0  0  0  0  0
  -31.1121  -24.8108   18.9025 C   0  0  0  0  0  0  0  0  0  0  0  0
  -28.5683  -25.4820   17.9942 C   0  0  0  0  0  0  0  0  0  0  0  0
  -22.7848  -29.6441   18.7318 C   0  0  0  0  0  0  0  0  0  0  0  0
  -27.0399  -13.7149   21.3736 C   0  0  0  0  0  0  0  0  0  0  0  0
  -25.3026  -14.5277   19.9046 C   0  0  0  0  0  0  0  0  0  0  0  0
  -21.4353  -29.5624   19.0725 C   0  0  0  0  0  0  0  0  0  0  0  0
  -23.2661  -11.5321   19.6067 C   0  0  0  0  0  0  0  0  0  0  0  0
  -21.8832  -11.3976   19.7293 C   0  0  0  0  0  0  0  0  0  0  0  0
  -22.0317  -29.5634   21.4100 C   0  0  0  0  0  0  0  0  0  0  0  0
  -20.9026  -24.9815   22.5410 C   0  0  0  0  0  0  0  0  0  0  0  0
  -21.9831  -12.3806   21.9341 C   0  0  0  0  0  0  0  0  0  0  0  0
  -20.1549  -26.9658   23.2980 C   0  0  0  0  0  0  0  0  0  0  0  0
  -26.9750  -16.0496   20.7555 C   0  0  0  0  0  0  0  0  0  0  0  0
  -28.5038  -17.9445   19.9945 C   0  0  0  0  0  0  0  0  0  0  0  0
  -30.1112  -25.1301   19.8336 C   0  0  0  0  0  0  0  0  0  0  0  0
  -23.7701  -29.6752   19.7291 C   0  0  0  0  0  0  0  0  0  0  0  0
  -28.8210  -25.4599   19.3764 C   0  0  0  0  0  0  0  0  0  0  0  0
  -23.3928  -29.6481   21.0793 C   0  0  0  0  0  0  0  0  0  0  0  0
  -21.0292  -25.9388   23.5776 C   0  0  0  0  0  0  0  0  0  0  0  0
  -25.9034  -13.4785   20.6003 C   0  0  0  0  0  0  0  0  0  0  0  0
  -21.0588  -29.5191   20.4117 C   0  0  0  0  0  0  0  0  0  0  0  0
  -24.0076  -12.0907   20.6478 C   0  0  0  0  0  0  0  0  0  0  0  0
  -21.2417  -11.8219   20.8930 C   0  0  0  0  0  0  0  0  0  0  0  0
  -23.3661  -12.5150   21.8114 C   0  0  0  0  0  0  0  0  0  0  0  0
  -27.5277  -17.3778   20.8357 C   0  0  0  0  0  0  0  0  0  0  0  0
  -19.9549  -25.4527   21.6594 C   0  0  0  0  0  0  0  0  0  0  0  0
  -28.6832  -19.2152   20.4841 C   0  0  0  0  0  0  0  0  0  0  0  0
  -29.1873  -17.3735   18.8709 C   0  0  0  0  0  0  0  0  0  0  0  0
  -26.2054  -27.7983   20.5355 C   0  0  0  0  0  0  0  0  0  0  0  0
  -26.8455  -30.1879   22.6337 C   0  0  0  0  0  0  0  0  0  0  0  0
  -25.6874  -32.8304   24.4565 C   0  0  0  0  0  0  0  0  0  0  0  0
  -25.1054  -22.8052   23.5118 C   0  0  0  0  0  0  0  0  0  0  0  0
  -30.4334  -25.0433   21.3044 C   0  0  0  0  0  0  0  0  0  0  0  0
  -25.2199  -29.7904   19.3454 C   0  0  0  0  0  0  0  0  0  0  0  0
  -24.4107  -29.6993   22.1882 C   0  0  0  0  0  0  0  0  0  0  0  0
  -29.4136  -25.7493   22.1941 C   0  0  0  0  0  0  0  0  0  0  0  0
  -28.4067  -21.7385   24.5417 C   0  0  0  0  0  0  0  0  0  0  0  0
  -27.9939  -25.3805   21.7754 C   0  0  0  0  0  0  0  0  0  0  0  0
  -28.6429  -20.5437   23.6160 C   0  0  0  0  0  0  0  0  0  0  0  0
  -26.9509  -21.8089   24.9930 C   0  0  0  0  0  0  0  0  0  0  0  0
  -26.1957  -20.6509   22.9528 C   0  0  0  0  0  0  0  0  0  0  0  0
  -27.7098  -25.8265   20.3360 C   0  0  1  0  0  0  0  0  0  0  0  0
  -26.1673  -29.2970   20.4347 C   0  0  1  0  0  0  0  0  0  0  0  0
  -27.6441  -20.5373   22.4436 C   0  0  2  0  0  0  0  0  0  0  0  0
  -18.7322  -23.4993   20.6382 C   0  0  0  0  0  0  0  0  0  0  0  0
  -20.5351  -24.6806   19.3310 C   0  0  0  0  0  0  0  0  0  0  0  0
  -26.4384  -34.5648   26.1073 C   0  0  0  0  0  0  0  0  0  0  0  0
  -20.8537  -25.4596   27.4526 C   0  0  0  0  0  0  0  0  0  0  0  0
  -20.7857  -27.9617   27.6959 C   0  0  0  0  0  0  0  0  0  0  0  0
  -17.8954  -28.7891   19.3676 C   0  0  0  0  0  0  0  0  0  0  0  0
  -26.8646  -28.0781   24.8379 C   0  0  0  0  0  0  0  0  0  0  0  0
  -26.6643  -29.9274   26.5136 C   0  0  0  0  0  0  0  0  0  0  0  0
  -28.6653  -29.8030   25.0292 C   0  0  0  0  0  0  0  0  0  0  0  0
  -24.9752  -35.0462   22.6283 C   0  0  0  0  0  0  0  0  0  0  0  0
  -18.4625  -27.5327   21.4756 C   0  0  0  0  0  0  0  0  0  0  0  0
  -24.1056  -24.9695   24.1996 C   0  0  0  0  0  0  0  0  0  0  0  0
  -22.7627  -24.7178   24.8676 C   0  0  0  0  0  0  0  0  0  0  0  0
  -21.9204  -26.9298   25.6714 C   0  0  0  0  0  0  0  0  0  0  0  0
  -19.4419  -24.8535   20.4102 C   0  0  0  0  0  0  0  0  0  0  0  0
  -26.4397  -30.5010   24.0537 C   0  0  1  0  0  0  0  0  0  0  0  0
  -26.2208  -34.2401   24.6377 C   0  0  2  0  0  0  0  0  0  0  0  0
  -20.7985  -26.7943   26.7080 C   0  0  0  0  0  0  0  0  0  0  0  0
  -19.0198  -28.3028   20.2736 C   0  0  2  0  0  0  0  0  0  1  0  0
  -27.1392  -29.5745   25.0879 C   0  0  0  0  0  0  0  0  0  0  0  0
  -27.1158  -18.2193   21.7877 N   0  0  0  0  0  0  0  0  0  0  0  0
  -19.5075  -26.6598   22.1295 N   0  0  0  0  0  0  0  0  0  0  0  0
  -27.8368  -19.3278   21.5476 N   0  0  0  0  0  0  0  0  0  0  0  0
  -25.8159  -29.8054   21.7622 N   0  0  0  0  0  0  0  0  0  0  0  0
  -26.0532  -21.8182   23.8293 N   0  0  0  0  0  0  0  0  0  0  0  0
  -29.4808  -20.2360   20.1044 N   0  0  0  0  0  0  0  0  0  0  0  0
  -28.8830  -16.0558   18.5029 N   0  0  0  0  0  0  0  0  0  0  0  0
  -27.4495  -27.2494   20.2899 N   0  0  0  0  0  0  0  0  0  0  0  0
  -26.7042  -31.9223   24.2498 N   0  0  0  0  0  0  0  0  0  0  0  0
  -25.0286  -23.8740   24.3964 N   0  0  0  0  0  0  0  0  0  0  0  0
  -21.8517  -25.8644   24.6443 N   0  0  3  0  0  0  0  0  0  0  0  0
  -25.2629  -35.2328   24.0738 N   0  3  0  0  0  0  0  0  0  0  0  0
  -30.0544  -18.0072   18.2228 O   0  0  0  0  0  0  0  0  0  0  0  0
  -25.1822  -27.1854   20.8168 O   0  0  0  0  0  0  0  0  0  0  0  0
  -28.0312  -30.2861   22.3079 O   0  0  0  0  0  0  0  0  0  0  0  0
  -24.4890  -32.5612   24.4982 O   0  0  0  0  0  0  0  0  0  0  0  0
  -24.3841  -22.7416   22.5104 O   0  0  0  0  0  0  0  0  0  0  0  0
  -25.3804  -12.2242   20.5242 O   0  0  0  0  0  0  0  0  0  0  0  0
  -19.7424  -29.4386   20.7471 O   0  0  0  0  0  0  0  0  0  1  0  0
  -19.9135  -11.6941   21.0100 F   0  0  0  0  0  0  0  0  0  0  0  0
  -24.0729  -13.0536   22.8145 F   0  0  0  0  0  0  0  0  0  0  0  0
  1  2  1  0  0  0  0
  1  5  2  0  0  0  0
  2  6  2  0  0  0  0
  3  8  2  0  0  0  0
  3 17  1  0  0  0  0
  4  9  1  0  0  0  0
  4 17  2  0  0  0  0
  5 19  1  0  0  0  0
  6 21  1  0  0  0  0
  7 10  2  0  0  0  0
  7 20  1  0  0  0  0
  8 24  1  0  0  0  0
  9 24  2  0  0  0  0
 10 25  1  0  0  0  0
 11 12  2  0  0  0  0
 11 26  1  0  0  0  0
 12 27  1  0  0  0  0
 13 22  1  0  0  0  0
 13 25  2  0  0  0  0
 14 23  1  0  0  0  0
 14 30  2  0  0  0  0
 15 27  2  0  0  0  0
 15 28  1  0  0  0  0
 16 23  2  0  0  0  0
 16 70  1  0  0  0  0
 17 29  1  0  0  0  0
 18 29  1  0  0  0  0
 18 31  2  0  0  0  0
 18 32  1  0  0  0  0
 19 21  2  0  0  0  0
 19 37  1  0  0  0  0
 20 22  2  0  0  0  0
 20 38  1  0  0  0  0
 21 46  1  0  0  0  0
 22 39  1  0  0  0  0
 23 79  1  0  0  0  0
 24 86  1  0  0  0  0
 25 87  1  0  0  0  0
 26 28  2  0  0  0  0
 26 86  1  0  0  0  0
 27 88  1  0  0  0  0
 28 89  1  0  0  0  0
 29 69  2  0  0  0  0
 30 63  1  0  0  0  0
 30 70  1  0  0  0  0
 31 71  1  0  0  0  0
 31 74  1  0  0  0  0
 32 75  1  0  0  0  0
 32 81  2  0  0  0  0
 33 47  1  0  0  0  0
 33 76  1  0  0  0  0
 33 82  2  0  0  0  0
 34 64  1  0  0  0  0
 34 72  1  0  0  0  0
 34 83  2  0  0  0  0
 35 65  1  0  0  0  0
 35 77  1  0  0  0  0
 35 84  2  0  0  0  0
 36 73  1  0  0  0  0
 36 78  1  0  0  0  0
 36 85  2  0  0  0  0
 37 40  1  0  0  0  0
 38 47  1  0  0  0  0
 39 72  1  0  0  0  0
 40 42  1  0  0  0  0
 41 43  1  0  0  0  0
 41 44  1  0  0  0  0
 42 46  1  0  0  0  0
 43 48  1  0  0  0  0
 44 73  1  0  0  0  0
 45 48  1  0  0  0  0
 45 73  1  0  0  0  0
 46 76  1  0  0  0  0
 47 72  1  0  0  0  0
 48 71  1  0  0  0  0
 49 63  1  0  0  0  0
 50 63  1  0  0  0  0
 51 65  1  0  0  0  0
 52 66  1  0  0  0  0
 53 66  1  0  0  0  0
 54 67  1  0  0  0  0
 55 68  1  0  0  0  0
 56 68  1  0  0  0  0
 57 68  1  0  0  0  0
 58 80  1  0  0  0  0
 59 67  1  0  0  0  0
 59 70  1  0  0  0  0
 60 61  1  0  0  0  0
 60 78  1  0  0  0  0
 61 79  1  0  0  0  0
 62 66  1  0  0  0  0
 62 79  1  0  0  0  0
 64 68  1  0  0  0  0
 64 77  1  0  0  0  0
 65 80  1  0  0  0  0
 67 87  1  0  0  0  0
 69 71  1  0  0  0  0
M  CHG  1  80   1
M  ISO  4  36 100  67 101  78 100  87 101
M  END
> <Batch ID>
0109

> <Smiles>
CNC(C)C(=O)NC(C(=O)N1Cc2cc([101O:1][101CH:1](C)Cn3cc(N(CC[100NH:0][100C:0](=O)N4CCCC(n5nc(-c6ccc(Oc7ccc(F)cc7F)cc6)c(C(N)=O)c5N)C4)CC(C)C)cc3C(C)C)ccc2CC1C(=O)NC1CCCc2ccccc21)C(C)(C)C

> <Shape>
0.300

> <Color>
0.050

> <Negative vol penalty>
0.000

$$$$

  -OEChem-04052319563D

 77 85  0     1  0  0  0  0  0999 V2000
  -17.2523  -29.9703   24.1261 C   0  0  0  0  0  0  0  0  0  0  0  0
  -18.5980  -30.3170   24.1911 C   0  0  0  0  0  0  0  0  0  0  0  0
  -26.2962  -14.7851   19.0098 C   0  0  0  0  0  0  0  0  0  0  0  0
  -24.0851  -14.8458   19.9817 C   0  0  0  0  0  0  0  0  0  0  0  0
  -16.8708  -28.7714   23.5252 C   0  0  0  0  0  0  0  0  0  0  0  0
  -19.5631  -29.4645   23.6562 C   0  0  0  0  0  0  0  0  0  0  0  0
  -25.9405  -29.5984   20.3961 C   0  0  0  0  0  0  0  0  0  0  0  0
  -26.4753  -13.4908   19.4979 C   0  0  0  0  0  0  0  0  0  0  0  0
  -24.2642  -13.5514   20.4698 C   0  0  0  0  0  0  0  0  0  0  0  0
  -27.2167  -29.0474   20.5033 C   0  0  0  0  0  0  0  0  0  0  0  0
  -24.2765  -10.3995   22.2796 C   0  0  0  0  0  0  0  0  0  0  0  0
  -23.8924  -10.1442   23.5960 C   0  0  0  0  0  0  0  0  0  0  0  0
  -26.4345  -27.0397   19.4187 C   0  0  0  0  0  0  0  0  0  0  0  0
  -25.4630  -11.8058   24.3766 C   0  0  0  0  0  0  0  0  0  0  0  0
  -25.1011  -15.4626   19.2517 C   0  0  0  0  0  0  0  0  0  0  0  0
  -24.3777  -17.1719   17.5016 C   0  0  0  0  0  0  0  0  0  0  0  0
  -17.8310  -27.9083   22.9740 C   0  0  0  0  0  0  0  0  0  0  0  0
  -24.8973  -28.8686   19.8082 C   0  0  0  0  0  0  0  0  0  0  0  0
  -19.1942  -28.2523   23.0485 C   0  0  0  0  0  0  0  0  0  0  0  0
  -25.1466  -27.5846   19.3029 C   0  0  0  0  0  0  0  0  0  0  0  0
  -25.4593  -12.8740   20.2279 C   0  0  0  0  0  0  0  0  0  0  0  0
  -27.4632  -27.7668   20.0172 C   0  0  0  0  0  0  0  0  0  0  0  0
  -25.2540  -11.3580   22.0117 C   0  0  0  0  0  0  0  0  0  0  0  0
  -24.4856  -10.8473   24.6445 C   0  0  0  0  0  0  0  0  0  0  0  0
  -25.8472  -12.0611   23.0602 C   0  0  0  0  0  0  0  0  0  0  0  0
  -24.9157  -16.7999   18.7482 C   0  0  0  0  0  0  0  0  0  0  0  0
  -24.4167  -18.5448   17.5067 C   0  0  0  0  0  0  0  0  0  0  0  0
  -23.8866  -16.3499   16.4344 C   0  0  0  0  0  0  0  0  0  0  0  0
  -22.0936  -27.7572   20.8122 C   0  0  0  0  0  0  0  0  0  0  0  0
  -21.7369  -26.9480   17.6913 C   0  0  0  0  0  0  0  0  0  0  0  0
  -23.2107  -26.2086   14.7033 C   0  0  0  0  0  0  0  0  0  0  0  0
  -27.9744  -22.2774   20.4916 C   0  0  0  0  0  0  0  0  0  0  0  0
  -17.3742  -26.6009   22.3768 C   0  0  0  0  0  0  0  0  0  0  0  0
  -23.5328  -29.4875   19.6761 C   0  0  0  0  0  0  0  0  0  0  0  0
  -24.0658  -26.7678   18.6448 C   0  0  0  0  0  0  0  0  0  0  0  0
  -18.4290  -25.9301   21.5005 C   0  0  0  0  0  0  0  0  0  0  0  0
  -24.2852  -22.2937   20.4493 C   0  0  0  0  0  0  0  0  0  0  0  0
  -19.7847  -25.9336   22.1997 C   0  0  0  0  0  0  0  0  0  0  0  0
  -23.9914  -20.8860   19.9392 C   0  0  0  0  0  0  0  0  0  0  0  0
  -30.5079  -23.9403   22.0001 C   0  0  0  0  0  0  0  0  0  0  0  0
  -25.5444  -22.3393   21.3139 C   0  0  0  0  0  0  0  0  0  0  0  0
  -26.4532  -20.3591   20.1319 C   0  0  0  0  0  0  0  0  0  0  0  0
  -20.2687  -27.3656   22.4576 C   0  0  1  0  0  0  0  0  0  0  0  0
  -22.4206  -28.4547   19.5222 C   0  0  1  0  0  0  0  0  0  0  0  0
  -29.7825  -25.2555   22.0426 C   0  0  2  0  0  0  0  0  0  0  0  0
  -25.2176  -20.3026   19.2205 C   0  0  1  0  0  0  0  0  0  0  0  0
  -29.4134  -24.2263   21.0046 C   0  0  2  0  0  0  0  0  0  0  0  0
  -22.6606  -25.5511   12.3448 C   0  0  0  0  0  0  0  0  0  0  0  0
  -31.4212  -27.0126   22.7252 C   0  0  0  0  0  0  0  0  0  0  0  0
  -21.1352  -24.1066   18.6263 C   0  0  0  0  0  0  0  0  0  0  0  0
  -21.5355  -23.3249   16.2817 C   0  0  0  0  0  0  0  0  0  0  0  0
  -19.6803  -24.9217   16.7626 C   0  0  0  0  0  0  0  0  0  0  0  0
  -24.4786  -28.6468   13.6049 C   0  0  0  0  0  0  0  0  0  0  0  0
  -29.5054  -27.6410   21.2295 C   0  0  0  0  0  0  0  0  0  1  0  0
  -22.0720  -25.7360   16.8560 C   0  0  1  0  0  0  0  0  0  0  0  0
  -22.9376  -26.7056   13.2951 C   0  0  2  0  0  0  0  0  0  0  0  0
  -30.4979  -26.5427   21.6293 C   0  0  2  0  0  0  0  0  0  0  0  0
  -21.1259  -24.5367   17.1458 C   0  0  0  0  0  0  0  0  0  0  0  0
  -25.2706  -17.8516   19.4911 N   0  0  0  0  0  0  0  0  0  0  0  0
  -24.9551  -18.8979   18.7091 N   0  0  0  0  0  0  0  0  0  0  0  0
  -22.7468  -27.4141   18.5449 N   0  0  0  0  0  0  0  0  0  0  0  0
  -26.6913  -21.7185   20.6326 N   0  0  0  0  0  0  0  0  0  0  0  0
  -24.0428  -19.4723   16.5999 N   0  0  0  0  0  0  0  0  0  0  0  0
  -23.9193  -14.9578   16.5939 N   0  0  0  0  0  0  0  0  0  0  0  0
  -20.7941  -27.9482   21.2414 N   0  0  0  0  0  0  0  0  0  0  0  0
  -22.0630  -26.1822   15.4671 N   0  0  0  0  0  0  0  0  0  0  0  0
  -28.1547  -23.5322   21.0624 N   0  0  0  0  0  0  0  0  0  0  0  0
  -24.1091  -27.4686   12.7789 N   0  3  0  0  0  0  0  0  0  0  0  0
  -23.4473  -16.8350   15.3643 O   0  0  0  0  0  0  0  0  0  0  0  0
  -22.9561  -27.0936   21.3757 O   0  0  0  0  0  0  0  0  0  0  0  0
  -20.6228  -27.4666   17.5848 O   0  0  0  0  0  0  0  0  0  0  0  0
  -24.3295  -25.8735   15.0862 O   0  0  0  0  0  0  0  0  0  0  0  0
  -28.8961  -21.6993   19.9050 O   0  0  0  0  0  0  0  0  0  0  0  0
  -25.6337  -11.6109   20.7042 O   0  0  0  0  0  0  0  0  0  0  0  0
  -28.7078  -27.2264   20.1212 O   0  0  0  0  0  0  0  0  0  1  0  0
  -24.1156  -10.6031   25.9084 F   0  0  0  0  0  0  0  0  0  0  0  0
  -26.7859  -12.9839   22.8090 F   0  0  0  0  0  0  0  0  0  0  0  0
  1  2  1  0  0  0  0
  1  5  2  0  0  0  0
  2  6  2  0  0  0  0
  3  8  2  0  0  0  0
  3 15  1  0  0  0  0
  4  9  1  0  0  0  0
  4 15  2  0  0  0  0
  5 17  1  0  0  0  0
  6 19  1  0  0  0  0
  7 10  2  0  0  0  0
  7 18  1  0  0  0  0
  8 21  1  0  0  0  0
  9 21  2  0  0  0  0
 10 22  1  0  0  0  0
 11 12  2  0  0  0  0
 11 23  1  0  0  0  0
 12 24  1  0  0  0  0
 13 20  1  0  0  0  0
 13 22  2  0  0  0  0
 14 24  2  0  0  0  0
 14 25  1  0  0  0  0
 15 26  1  0  0  0  0
 16 26  1  0  0  0  0
 16 27  2  0  0  0  0
 16 28  1  0  0  0  0
 17 19  2  0  0  0  0
 17 33  1  0  0  0  0
 18 20  2  0  0  0  0
 18 34  1  0  0  0  0
 19 43  1  0  0  0  0
 20 35  1  0  0  0  0
 21 74  1  0  0  0  0
 22 75  1  0  0  0  0
 23 25  2  0  0  0  0
 23 74  1  0  0  0  0
 24 76  1  0  0  0  0
 25 77  1  0  0  0  0
 26 59  2  0  0  0  0
 27 60  1  0  0  0  0
 27 63  1  0  0  0  0
 28 64  1  0  0  0  0
 28 69  2  0  0  0  0
 29 44  1  0  0  0  0
 29 65  1  0  0  0  0
 29 70  2  0  0  0  0
 30 55  1  0  0  0  0
 30 61  1  0  0  0  0
 30 71  2  0  0  0  0
 31 56  1  0  0  0  0
 31 66  1  0  0  0  0
 31 72  2  0  0  0  0
 32 62  1  0  0  0  0
 32 67  1  0  0  0  0
 32 73  2  0  0  0  0
 33 36  1  0  0  0  0
 34 44  1  0  0  0  0
 35 61  1  0  0  0  0
 36 38  1  0  0  0  0
 37 39  1  0  0  0  0
 37 41  1  0  0  0  0
 38 43  1  0  0  0  0
 39 46  1  0  0  0  0
 40 45  1  0  0  0  0
 40 47  1  0  0  0  0
 41 62  1  0  0  0  0
 42 46  1  0  0  0  0
 42 62  1  0  0  0  0
 43 65  1  0  0  0  0
 44 61  1  0  0  0  0
 45 47  1  0  0  0  0
 45 57  1  0  0  0  0
 46 60  1  0  0  0  0
 47 67  1  0  0  0  0
 48 56  1  0  0  0  0
 49 57  1  0  0  0  0
 50 58  1  0  0  0  0
 51 58  1  0  0  0  0
 52 58  1  0  0  0  0
 53 68  1  0  0  0  0
 54 57  1  0  0  0  0
 54 75  1  0  0  0  0
 55 58  1  0  0  0  0
 55 66  1  0  0  0  0
 56 68  1  0  0  0  0
 59 60  1  0  0  0  0
M  CHG  1  68   1
M  ISO  4  32 100  54 101  67 100  75 101
M  END
> <Batch ID>
0109

> <Smiles>
CNC(C)C(=O)NC(C(=O)N1Cc2cc([101O:1][101CH2:1]C(C)C3CC3[100NH:0][100C:0](=O)N3CCCC(n4nc(-c5ccc(Oc6ccc(F)cc6F)cc5)c(C(N)=O)c4N)C3)ccc2CC1C(=O)NC1CCCc2ccccc21)C(C)(C)C

> <Shape>
0.197

> <Color>
0.083

> <Negative vol penalty>
0.000

$$$$

  -OEChem-04052319563D

 83 90  0     1  0  0  0  0  0999 V2000
  -22.5316  -26.9641   21.9948 C   0  0  0  0  0  0  0  0  0  0  0  0
  -23.0988  -26.0313   21.1325 C   0  0  0  0  0  0  0  0  0  0  0  0
  -26.2682  -28.6053   18.9568 C   0  0  0  0  0  0  0  0  0  0  0  0
  -26.4888  -28.3760   21.3517 C   0  0  0  0  0  0  0  0  0  0  0  0
  -22.2436  -26.6091   23.3120 C   0  0  0  0  0  0  0  0  0  0  0  0
  -23.3793  -24.7433   21.5872 C   0  0  0  0  0  0  0  0  0  0  0  0
  -23.6069  -17.9501   19.3249 C   0  0  0  0  0  0  0  0  0  0  0  0
  -25.3401  -29.6303   19.1404 C   0  0  0  0  0  0  0  0  0  0  0  0
  -25.5607  -29.4010   21.5354 C   0  0  0  0  0  0  0  0  0  0  0  0
  -24.4650  -16.8516   19.2994 C   0  0  0  0  0  0  0  0  0  0  0  0
  -25.5249  -32.7780   21.4124 C   0  0  0  0  0  0  0  0  0  0  0  0
  -25.8225  -33.7576   22.3597 C   0  0  0  0  0  0  0  0  0  0  0  0
  -23.8514  -16.3273   21.5727 C   0  0  0  0  0  0  0  0  0  0  0  0
  -23.8196  -33.1833   23.5827 C   0  0  0  0  0  0  0  0  0  0  0  0
  -26.8425  -27.9781   20.0625 C   0  0  0  0  0  0  0  0  0  0  0  0
  -29.1979  -27.0472   19.7573 C   0  0  0  0  0  0  0  0  0  0  0  0
  -22.5117  -25.3132   23.7804 C   0  0  0  0  0  0  0  0  0  0  0  0
  -22.8716  -18.2524   20.4800 C   0  0  0  0  0  0  0  0  0  0  0  0
  -23.0958  -24.3711   22.9123 C   0  0  0  0  0  0  0  0  0  0  0  0
  -22.9827  -17.4287   21.6094 C   0  0  0  0  0  0  0  0  0  0  0  0
  -24.9864  -30.0281   20.4297 C   0  0  0  0  0  0  0  0  0  0  0  0
  -24.5895  -16.0416   20.4244 C   0  0  0  0  0  0  0  0  0  0  0  0
  -24.3746  -32.0011   21.5502 C   0  0  0  0  0  0  0  0  0  0  0  0
  -24.9699  -33.9602   23.4449 C   0  0  0  0  0  0  0  0  0  0  0  0
  -23.5220  -32.2037   22.6353 C   0  0  0  0  0  0  0  0  0  0  0  0
  -27.8008  -26.9189   19.8735 C   0  0  0  0  0  0  0  0  0  0  0  0
  -29.6485  -25.7602   19.5934 C   0  0  0  0  0  0  0  0  0  0  0  0
  -30.0153  -28.2246   19.7942 C   0  0  0  0  0  0  0  0  0  0  0  0
  -22.7554  -20.7168   22.4843 C   0  0  0  0  0  0  0  0  0  0  0  0
  -20.2737  -19.0621   23.7592 C   0  0  0  0  0  0  0  0  0  0  0  0
  -18.7294  -16.0539   24.2202 C   0  0  0  0  0  0  0  0  0  0  0  0
  -29.6505  -20.4949   21.0847 C   0  0  0  0  0  0  0  0  0  0  0  0
  -22.2266  -24.9902   25.2257 C   0  0  0  0  0  0  0  0  0  0  0  0
  -21.9302  -19.4254   20.4824 C   0  0  0  0  0  0  0  0  0  0  0  0
  -22.2000  -17.6983   22.8676 C   0  0  0  0  0  0  0  0  0  0  0  0
  -22.2086  -23.4931   25.5232 C   0  0  0  0  0  0  0  0  0  0  0  0
  -27.1183  -21.4734   18.6914 C   0  0  0  0  0  0  0  0  0  0  0  0
  -23.4141  -22.8080   24.8874 C   0  0  0  0  0  0  0  0  0  0  0  0
  -27.1896  -22.9990   18.7798 C   0  0  0  0  0  0  0  0  0  0  0  0
  -27.3201  -20.8304   20.0603 C   0  0  0  0  0  0  0  0  0  0  0  0
  -28.6550  -22.7510   20.8368 C   0  0  0  0  0  0  0  0  0  0  0  0
  -23.3918  -22.9566   23.3613 C   0  0  1  0  0  0  0  0  0  0  0  0
  -21.6184  -19.9385   21.8849 C   0  0  1  0  0  0  0  0  0  0  0  0
  -28.4810  -23.4599   19.4813 C   0  0  2  0  0  0  0  0  0  0  0  0
  -16.7385  -15.0124   25.3379 C   0  0  0  0  0  0  0  0  0  0  0  0
  -28.7914  -13.5936   17.9935 C   0  0  0  0  0  0  0  0  0  0  0  0
  -29.9749  -12.1467   20.4993 C   0  0  0  0  0  0  0  0  0  0  0  0
  -21.6786  -19.2796   26.4590 C   0  0  0  0  0  0  0  0  0  0  0  0
  -20.1805  -17.4616   27.3067 C   0  0  0  0  0  0  0  0  0  0  0  0
  -19.2031  -19.6250   26.5404 C   0  0  0  0  0  0  0  0  0  0  0  0
  -32.1740  -15.4589   20.2085 C   0  0  0  0  0  0  0  0  0  0  0  0
  -31.7785  -15.9534   22.6397 C   0  0  0  0  0  0  0  0  0  0  0  0
  -17.6285  -15.1108   21.6400 C   0  0  0  0  0  0  0  0  0  0  0  0
  -30.0851  -16.7450   20.9505 C   0  0  0  0  0  0  0  0  0  0  0  0
  -27.7062  -14.2491   20.1943 C   0  0  0  0  0  0  0  0  0  0  0  0
  -30.5154  -18.1766   21.2695 C   0  0  0  0  0  0  0  0  0  0  0  0
  -26.5787  -15.0614   19.5652 C   0  0  0  0  0  0  0  0  0  1  0  0
  -20.1292  -18.0088   24.8310 C   0  0  1  0  0  0  0  0  0  0  0  0
  -17.2807  -15.6300   24.0583 C   0  0  2  0  0  0  0  0  0  0  0  0
  -29.0088  -14.2480   19.3641 C   0  0  1  0  0  0  0  0  0  0  0  0
  -30.1756  -13.6218   20.1687 C   0  0  1  0  0  0  0  0  0  0  0  0
  -20.3142  -18.5895   26.2614 C   0  0  0  0  0  0  0  0  0  0  0  0
  -31.1118  -15.6456   21.2940 C   0  0  0  0  0  0  0  0  0  0  0  0
  -27.3909  -25.6504   19.7903 N   0  0  0  0  0  0  0  0  0  0  0  0
  -28.5372  -24.9699   19.6200 N   0  0  0  0  0  0  0  0  0  0  0  0
  -21.2975  -18.8607   22.8227 N   0  0  0  0  0  0  0  0  0  0  0  0
  -28.5756  -21.2965   20.6657 N   0  0  0  0  0  0  0  0  0  0  0  0
  -30.8829  -25.2386   19.4304 N   0  0  0  0  0  0  0  0  0  0  0  0
  -29.3902  -29.4667   19.9700 N   0  0  0  0  0  0  0  0  0  0  0  0
  -22.4449  -22.0310   22.7772 N   0  0  0  0  0  0  0  0  0  0  0  0
  -18.8354  -17.3731   24.6069 N   0  0  0  0  0  0  0  0  0  0  0  0
  -29.4930  -19.1276   20.8939 N   0  0  0  0  0  0  0  0  0  0  0  0
  -17.1535  -14.6282   22.9623 N   0  3  0  0  0  0  0  0  0  0  0  0
  -30.3988  -14.3515   21.4488 N   0  3  0  0  0  0  0  0  0  0  0  0
  -31.2614  -28.1782   19.6585 O   0  0  0  0  0  0  0  0  0  0  0  0
  -23.8341  -20.1653   22.6687 O   0  0  0  0  0  0  0  0  0  0  0  0
  -19.5019  -20.0243   23.7490 O   0  0  0  0  0  0  0  0  0  0  0  0
  -19.6725  -15.2899   24.0269 O   0  0  0  0  0  0  0  0  0  0  0  0
  -30.6776  -20.9636   21.5872 O   0  0  0  0  0  0  0  0  0  0  0  0
  -24.0810  -31.0284   20.6092 O   0  0  0  0  0  0  0  0  0  0  0  0
  -25.4268  -14.9691   20.4024 O   0  0  0  0  0  0  0  0  0  1  0  0
  -25.2565  -34.8999   24.3554 F   0  0  0  0  0  0  0  0  0  0  0  0
  -22.4161  -31.4597   22.7736 F   0  0  0  0  0  0  0  0  0  0  0  0
  1  2  1  0  0  0  0
  1  5  2  0  0  0  0
  2  6  2  0  0  0  0
  3  8  2  0  0  0  0
  3 15  1  0  0  0  0
  4  9  1  0  0  0  0
  4 15  2  0  0  0  0
  5 17  1  0  0  0  0
  6 19  1  0  0  0  0
  7 10  2  0  0  0  0
  7 18  1  0  0  0  0
  8 21  1  0  0  0  0
  9 21  2  0  0  0  0
 10 22  1  0  0  0  0
 11 12  2  0  0  0  0
 11 23  1  0  0  0  0
 12 24  1  0  0  0  0
 13 20  1  0  0  0  0
 13 22  2  0  0  0  0
 14 24  2  0  0  0  0
 14 25  1  0  0  0  0
 15 26  1  0  0  0  0
 16 26  1  0  0  0  0
 16 27  2  0  0  0  0
 16 28  1  0  0  0  0
 17 19  2  0  0  0  0
 17 33  1  0  0  0  0
 18 20  2  0  0  0  0
 18 34  1  0  0  0  0
 19 42  1  0  0  0  0
 20 35  1  0  0  0  0
 21 80  1  0  0  0  0
 22 81  1  0  0  0  0
 23 25  2  0  0  0  0
 23 80  1  0  0  0  0
 24 82  1  0  0  0  0
 25 83  1  0  0  0  0
 26 64  2  0  0  0  0
 27 65  1  0  0  0  0
 27 68  1  0  0  0  0
 28 69  1  0  0  0  0
 28 75  2  0  0  0  0
 29 43  1  0  0  0  0
 29 70  1  0  0  0  0
 29 76  2  0  0  0  0
 30 58  1  0  0  0  0
 30 66  1  0  0  0  0
 30 77  2  0  0  0  0
 31 59  1  0  0  0  0
 31 71  1  0  0  0  0
 31 78  2  0  0  0  0
 32 67  1  0  0  0  0
 32 72  1  0  0  0  0
 32 79  2  0  0  0  0
 33 36  1  0  0  0  0
 34 43  1  0  0  0  0
 35 66  1  0  0  0  0
 36 38  1  0  0  0  0
 37 39  1  0  0  0  0
 37 40  1  0  0  0  0
 38 42  1  0  0  0  0
 39 44  1  0  0  0  0
 40 67  1  0  0  0  0
 41 44  1  0  0  0  0
 41 67  1  0  0  0  0
 42 70  1  0  0  0  0
 43 66  1  0  0  0  0
 44 65  1  0  0  0  0
 45 59  1  0  0  0  0
 46 60  1  0  0  0  0
 47 61  1  0  0  0  0
 48 62  1  0  0  0  0
 49 62  1  0  0  0  0
 50 62  1  0  0  0  0
 51 63  1  0  0  0  0
 52 63  1  0  0  0  0
 53 73  1  0  0  0  0
 54 56  1  0  0  0  0
 54 63  1  0  0  0  0
 55 57  1  0  0  0  0
 55 60  1  0  0  0  0
 56 72  1  0  0  0  0
 57 81  1  0  0  0  0
 58 62  1  0  0  0  0
 58 71  1  0  0  0  0
 59 73  1  0  0  0  0
 60 61  1  0  0  0  0
 61 74  1  0  0  0  0
 63 74  1  0  0  0  0
 64 65  1  0  0  0  0
M  CHG  2  73   1  74   1
M  ISO  4  32 100  57 101  72 100  81 101
M  END
> <Batch ID>
0109

> <Smiles>
CNC(C)C(=O)NC(C(=O)N1Cc2cc([101O:1][101CH2:1]CC(C)C(C)NC(C)(C)CC[100NH:0][100C:0](=O)N3CCCC(n4nc(-c5ccc(Oc6ccc(F)cc6F)cc5)c(C(N)=O)c4N)C3)ccc2CC1C(=O)NC1CCCc2ccccc21)C(C)(C)C

> <Shape>
0.212

> <Color>
0.048

> <Negative vol penalty>
0.000

$$$$

  -OEChem-04052319563D

 83 90  0     1  0  0  0  0  0999 V2000
  -17.1233  -28.6209   24.7185 C   0  0  0  0  0  0  0  0  0  0  0  0
  -18.2677  -27.8484   24.8887 C   0  0  0  0  0  0  0  0  0  0  0  0
  -24.4752   -9.5754   21.7338 C   0  0  0  0  0  0  0  0  0  0  0  0
  -24.3751  -11.0274   23.6622 C   0  0  0  0  0  0  0  0  0  0  0  0
  -16.9922  -29.4318   23.5919 C   0  0  0  0  0  0  0  0  0  0  0  0
  -19.2813  -27.8856   23.9318 C   0  0  0  0  0  0  0  0  0  0  0  0
  -25.3061  -27.4280   24.9310 C   0  0  0  0  0  0  0  0  0  0  0  0
  -24.1245   -8.4882   22.5341 C   0  0  0  0  0  0  0  0  0  0  0  0
  -24.0244   -9.9402   24.4626 C   0  0  0  0  0  0  0  0  0  0  0  0
  -26.1951  -26.3588   24.8300 C   0  0  0  0  0  0  0  0  0  0  0  0
  -22.9033   -5.3951   24.0025 C   0  0  0  0  0  0  0  0  0  0  0  0
  -21.9331   -4.5185   23.5168 C   0  0  0  0  0  0  0  0  0  0  0  0
  -26.8023  -27.0811   22.6099 C   0  0  0  0  0  0  0  0  0  0  0  0
  -20.3408   -6.3330   23.4224 C   0  0  0  0  0  0  0  0  0  0  0  0
  -24.6005  -10.8450   22.2978 C   0  0  0  0  0  0  0  0  0  0  0  0
  -24.0924  -12.8299   20.7781 C   0  0  0  0  0  0  0  0  0  0  0  0
  -18.0089  -29.4863   22.6255 C   0  0  0  0  0  0  0  0  0  0  0  0
  -25.1502  -28.3271   23.8662 C   0  0  0  0  0  0  0  0  0  0  0  0
  -19.1631  -28.6970   22.7906 C   0  0  0  0  0  0  0  0  0  0  0  0
  -25.9125  -28.1624   22.7009 C   0  0  0  0  0  0  0  0  0  0  0  0
  -23.8991   -8.6706   23.8985 C   0  0  0  0  0  0  0  0  0  0  0  0
  -26.9412  -26.1835   23.6682 C   0  0  0  0  0  0  0  0  0  0  0  0
  -22.5922   -6.7407   24.1982 C   0  0  0  0  0  0  0  0  0  0  0  0
  -20.6519   -4.9874   23.2267 C   0  0  0  0  0  0  0  0  0  0  0  0
  -21.3109   -7.2096   23.9081 C   0  0  0  0  0  0  0  0  0  0  0  0
  -24.9633  -11.9684   21.4717 C   0  0  0  0  0  0  0  0  0  0  0  0
  -24.9233  -13.7244   20.1488 C   0  0  0  0  0  0  0  0  0  0  0  0
  -22.6603  -12.8224   20.7089 C   0  0  0  0  0  0  0  0  0  0  0  0
  -22.7363  -29.1714   21.9783 C   0  0  0  0  0  0  0  0  0  0  0  0
  -29.3539  -17.1346   20.3229 C   0  0  0  0  0  0  0  0  0  0  0  0
  -24.8645  -31.3652   20.8920 C   0  0  0  0  0  0  0  0  0  0  0  0
  -26.6171  -23.4277   21.2482 C   0  0  0  0  0  0  0  0  0  0  0  0
  -28.1263  -32.2765   20.4713 C   0  0  0  0  0  0  0  0  0  0  0  0
  -17.8013  -30.3417   21.4009 C   0  0  0  0  0  0  0  0  0  0  0  0
  -24.2068  -29.4907   24.0011 C   0  0  0  0  0  0  0  0  0  0  0  0
  -25.7971  -29.1114   21.5370 C   0  0  0  0  0  0  0  0  0  0  0  0
  -19.0855  -30.6097   20.6203 C   0  0  0  0  0  0  0  0  0  0  0  0
  -29.9337  -13.6923   19.5142 C   0  0  0  0  0  0  0  0  0  0  0  0
  -19.8767  -29.3188   20.4347 C   0  0  0  0  0  0  0  0  0  0  0  0
  -28.6322  -13.0034   19.9225 C   0  0  0  0  0  0  0  0  0  0  0  0
  -30.2750  -14.8437   20.4549 C   0  0  0  0  0  0  0  0  0  0  0  0
  -27.8842  -15.1720   21.0009 C   0  0  0  0  0  0  0  0  0  0  0  0
  -20.2953  -28.7291   21.7870 C   0  0  1  0  0  0  0  0  0  0  0  0
  -23.7501  -30.0487   22.6567 C   0  0  1  0  0  0  0  0  0  0  0  0
  -27.4867  -14.0221   20.0585 C   0  0  2  0  0  0  0  0  0  0  0  0
  -29.5528  -34.1070   19.5164 C   0  0  0  0  0  0  0  0  0  0  0  0
  -26.1807  -24.4228   18.3732 C   0  0  0  0  0  0  0  0  0  0  0  0
  -24.6161  -22.5786   19.0784 C   0  0  0  0  0  0  0  0  0  0  0  0
  -27.8987  -23.1432   24.8867 C   0  0  0  0  0  0  0  0  0  0  0  0
  -24.3071  -30.3279   18.0772 C   0  0  0  0  0  0  0  0  0  0  0  0
  -26.3904  -31.4869   17.3127 C   0  0  0  0  0  0  0  0  0  0  0  0
  -24.4999  -32.8151   18.2532 C   0  0  0  0  0  0  0  0  0  0  0  0
  -29.3251  -32.8772   23.1097 C   0  0  0  0  0  0  0  0  0  0  0  0
  -28.1509  -18.0332   20.4629 C   0  0  0  0  0  0  0  0  0  0  0  0
  -27.5578  -23.0587   22.3921 C   0  0  0  0  0  0  0  0  0  0  0  0
  -27.9241  -21.8042   19.9258 C   0  0  0  0  0  0  0  0  0  0  0  0
  -27.4261  -20.4167   20.2840 C   0  0  0  0  0  0  0  0  0  0  0  0
  -25.9069  -31.3943   19.8004 C   0  0  1  0  0  0  0  0  0  0  0  0
  -28.8538  -33.5775   20.7589 C   0  0  2  0  0  0  0  0  0  0  0  0
  -26.0620  -22.9700   18.8104 C   0  0  0  0  0  0  0  0  0  0  0  0
  -27.2629  -23.8272   23.6833 C   0  0  2  0  0  0  0  0  0  1  0  0
  -25.2771  -31.4869   18.3819 C   0  0  0  0  0  0  0  0  0  0  0  0
  -26.2490  -12.2868   21.2993 N   0  0  0  0  0  0  0  0  0  0  0  0
  -26.1920  -13.3583   20.4902 N   0  0  0  0  0  0  0  0  0  0  0  0
  -24.8564  -30.2300   21.7148 N   0  0  0  0  0  0  0  0  0  0  0  0
  -29.1536  -15.7772   20.5746 N   0  0  0  0  0  0  0  0  0  0  0  0
  -24.6852  -14.7804   19.3423 N   0  0  0  0  0  0  0  0  0  0  0  0
  -21.9624  -11.8339   21.4160 N   0  0  0  0  0  0  0  0  0  0  0  0
  -21.4282  -29.4517   22.3244 N   0  0  0  0  0  0  0  0  0  0  0  0
  -26.8090  -32.4935   20.1265 N   0  0  0  0  0  0  0  0  0  0  0  0
  -26.8397  -22.7728   20.0317 N   0  0  0  0  0  0  0  0  0  0  0  0
  -29.8771  -33.3744   21.8232 N   0  3  0  0  0  0  0  0  0  0  0  0
  -28.5246  -19.4327   20.1211 N   0  3  0  0  0  0  0  0  0  0  0  0
  -22.0192  -13.6573   20.0266 O   0  0  0  0  0  0  0  0  0  0  0  0
  -23.1129  -28.3053   21.1975 O   0  0  0  0  0  0  0  0  0  0  0  0
  -30.4376  -17.6259   19.9967 O   0  0  0  0  0  0  0  0  0  0  0  0
  -24.0907  -32.3180   21.0148 O   0  0  0  0  0  0  0  0  0  0  0  0
  -25.7207  -24.2588   21.4157 O   0  0  0  0  0  0  0  0  0  0  0  0
  -28.6730  -31.1780   20.5416 O   0  0  0  0  0  0  0  0  0  0  0  0
  -23.5567   -7.6099   24.6798 O   0  0  0  0  0  0  0  0  0  0  0  0
  -27.8092  -25.1404   23.5668 O   0  0  0  0  0  0  0  0  0  1  0  0
  -19.7208   -4.1458   22.7589 F   0  0  0  0  0  0  0  0  0  0  0  0
  -21.0065   -8.5015   24.0930 F   0  0  0  0  0  0  0  0  0  0  0  0
  1  2  1  0  0  0  0
  1  5  2  0  0  0  0
  2  6  2  0  0  0  0
  3  8  2  0  0  0  0
  3 15  1  0  0  0  0
  4  9  1  0  0  0  0
  4 15  2  0  0  0  0
  5 17  1  0  0  0  0
  6 19  1  0  0  0  0
  7 10  2  0  0  0  0
  7 18  1  0  0  0  0
  8 21  1  0  0  0  0
  9 21  2  0  0  0  0
 10 22  1  0  0  0  0
 11 12  2  0  0  0  0
 11 23  1  0  0  0  0
 12 24  1  0  0  0  0
 13 20  1  0  0  0  0
 13 22  2  0  0  0  0
 14 24  2  0  0  0  0
 14 25  1  0  0  0  0
 15 26  1  0  0  0  0
 16 26  1  0  0  0  0
 16 27  2  0  0  0  0
 16 28  1  0  0  0  0
 17 19  2  0  0  0  0
 17 34  1  0  0  0  0
 18 20  2  0  0  0  0
 18 35  1  0  0  0  0
 19 43  1  0  0  0  0
 20 36  1  0  0  0  0
 21 80  1  0  0  0  0
 22 81  1  0  0  0  0
 23 25  2  0  0  0  0
 23 80  1  0  0  0  0
 24 82  1  0  0  0  0
 25 83  1  0  0  0  0
 26 63  2  0  0  0  0
 27 64  1  0  0  0  0
 27 67  1  0  0  0  0
 28 68  1  0  0  0  0
 28 74  2  0  0  0  0
 29 44  1  0  0  0  0
 29 69  1  0  0  0  0
 29 75  2  0  0  0  0
 30 54  1  0  0  0  0
 30 66  1  0  0  0  0
 30 76  2  0  0  0  0
 31 58  1  0  0  0  0
 31 65  1  0  0  0  0
 31 77  2  0  0  0  0
 32 55  1  0  0  0  0
 32 71  1  0  0  0  0
 32 78  2  0  0  0  0
 33 59  1  0  0  0  0
 33 70  1  0  0  0  0
 33 79  2  0  0  0  0
 34 37  1  0  0  0  0
 35 44  1  0  0  0  0
 36 65  1  0  0  0  0
 37 39  1  0  0  0  0
 38 40  1  0  0  0  0
 38 41  1  0  0  0  0
 39 43  1  0  0  0  0
 40 45  1  0  0  0  0
 41 66  1  0  0  0  0
 42 45  1  0  0  0  0
 42 66  1  0  0  0  0
 43 69  1  0  0  0  0
 44 65  1  0  0  0  0
 45 64  1  0  0  0  0
 46 59  1  0  0  0  0
 47 60  1  0  0  0  0
 48 60  1  0  0  0  0
 49 61  1  0  0  0  0
 50 62  1  0  0  0  0
 51 62  1  0  0  0  0
 52 62  1  0  0  0  0
 53 72  1  0  0  0  0
 54 73  1  0  0  0  0
 55 61  1  0  0  0  0
 56 57  1  0  0  0  0
 56 71  1  0  0  0  0
 57 73  1  0  0  0  0
 58 62  1  0  0  0  0
 58 70  1  0  0  0  0
 59 72  1  0  0  0  0
 60 71  1  0  0  0  0
 61 81  1  0  0  0  0
 63 64  1  0  0  0  0
M  CHG  2  72   1  73   1
M  ISO  4  30 100  54 100  61 101  81 101
M  END
> <Batch ID>
0109

> <Smiles>
CNC(C)C(=O)NC(C(=O)N1Cc2cc([101O:1][101CH:1](C)CC(=O)N(CCN[100CH2:0][100C:0](=O)N3CCCC(n4nc(-c5ccc(Oc6ccc(F)cc6F)cc5)c(C(N)=O)c4N)C3)C(C)C)ccc2CC1C(=O)NC1CCCc2ccccc21)C(C)(C)C

> <Shape>
0.241

> <Color>
0.106

> <Negative vol penalty>
0.000

$$$$

  -OEChem-04052319563D

 86 94  0     1  0  0  0  0  0999 V2000
  -27.5618  -36.4097   25.6670 C   0  0  0  0  0  0  0  0  0  0  0  0
  -28.0405  -35.8080   24.5076 C   0  0  0  0  0  0  0  0  0  0  0  0
  -24.3656   -9.4465   21.9108 C   0  0  0  0  0  0  0  0  0  0  0  0
  -22.9054  -10.3006   20.1859 C   0  0  0  0  0  0  0  0  0  0  0  0
  -26.8584  -35.6538   26.6039 C   0  0  0  0  0  0  0  0  0  0  0  0
  -27.8171  -34.4497   24.2850 C   0  0  0  0  0  0  0  0  0  0  0  0
  -26.6715  -29.7767   18.9778 C   0  0  0  0  0  0  0  0  0  0  0  0
  -24.5219  -22.9574   20.8479 C   0  0  0  0  0  0  0  0  0  0  0  0
  -24.1080  -23.4093   18.5110 C   0  0  0  0  0  0  0  0  0  0  0  0
  -25.6990  -23.7029   20.7837 C   0  0  0  0  0  0  0  0  0  0  0  0
  -25.2851  -24.1550   18.4467 C   0  0  0  0  0  0  0  0  0  0  0  0
  -23.5416   -8.3304   22.0557 C   0  0  0  0  0  0  0  0  0  0  0  0
  -22.0813   -9.1846   20.3308 C   0  0  0  0  0  0  0  0  0  0  0  0
  -27.1582  -28.5672   18.4839 C   0  0  0  0  0  0  0  0  0  0  0  0
  -20.6025   -7.5818   23.5476 C   0  0  0  0  0  0  0  0  0  0  0  0
  -20.2803   -7.1789   24.8436 C   0  0  0  0  0  0  0  0  0  0  0  0
  -25.8619  -27.3783   20.1348 C   0  0  0  0  0  0  0  0  0  0  0  0
  -21.3042   -5.0300   24.4301 C   0  0  0  0  0  0  0  0  0  0  0  0
  -24.0475  -10.4316   20.9759 C   0  0  0  0  0  0  0  0  0  0  0  0
  -25.9999  -11.7220   19.9608 C   0  0  0  0  0  0  0  0  0  0  0  0
  -26.6179  -34.2877   26.3881 C   0  0  0  0  0  0  0  0  0  0  0  0
  -25.7833  -29.7967   20.0627 C   0  0  0  0  0  0  0  0  0  0  0  0
  -27.1110  -33.6746   25.2205 C   0  0  0  0  0  0  0  0  0  0  0  0
  -25.3633  -28.5893   20.6389 C   0  0  0  0  0  0  0  0  0  0  0  0
  -23.7264  -22.8105   19.7116 C   0  0  0  0  0  0  0  0  0  0  0  0
  -26.0806  -24.3018   19.5831 C   0  0  0  0  0  0  0  0  0  0  0  0
  -22.3994   -8.1994   21.2658 C   0  0  0  0  0  0  0  0  0  0  0  0
  -26.7557  -27.3679   19.0643 C   0  0  0  0  0  0  0  0  0  0  0  0
  -21.2754   -6.7087   22.6928 C   0  0  0  0  0  0  0  0  0  0  0  0
  -20.6312   -5.9031   25.2848 C   0  0  0  0  0  0  0  0  0  0  0  0
  -21.6263   -5.4328   23.1341 C   0  0  0  0  0  0  0  0  0  0  0  0
  -24.8980  -11.5850   20.8261 C   0  0  0  0  0  0  0  0  0  0  0  0
  -26.4648  -12.9929   20.1954 C   0  0  0  0  0  0  0  0  0  0  0  0
  -26.5537  -10.7843   19.0282 C   0  0  0  0  0  0  0  0  0  0  0  0
  -25.8657  -30.9904   23.0075 C   0  0  0  0  0  0  0  0  0  0  0  0
  -22.7762  -30.0041   23.0748 C   0  0  0  0  0  0  0  0  0  0  0  0
  -20.3754  -27.9122   21.8472 C   0  0  0  0  0  0  0  0  0  0  0  0
  -23.8606  -17.9684   22.2725 C   0  0  0  0  0  0  0  0  0  0  0  0
  -25.8937  -33.5012   27.4519 C   0  0  0  0  0  0  0  0  0  0  0  0
  -25.2465  -31.1084   20.5665 C   0  0  0  0  0  0  0  0  0  0  0  0
  -24.3957  -28.5554   21.7926 C   0  0  0  0  0  0  0  0  0  0  0  0
  -25.3751  -32.1509   26.9640 C   0  0  0  0  0  0  0  0  0  0  0  0
  -26.7084  -16.3166   23.6284 C   0  0  0  0  0  0  0  0  0  0  0  0
  -26.4563  -31.4162   26.1780 C   0  0  0  0  0  0  0  0  0  0  0  0
  -26.6668  -14.9290   22.9859 C   0  0  0  0  0  0  0  0  0  0  0  0
  -25.3066  -16.8382   23.9363 C   0  0  0  0  0  0  0  0  0  0  0  0
  -24.3374  -15.4478   22.1471 C   0  0  0  0  0  0  0  0  0  0  0  0
  -26.8674  -32.2092   24.9316 C   0  0  1  0  0  0  0  0  0  0  0  0
  -24.7466  -31.0361   22.0060 C   0  0  1  0  0  0  0  0  0  0  0  0
  -25.7250  -14.9035   21.7670 C   0  0  2  0  0  0  0  0  0  0  0  0
  -24.4776  -19.3791   17.2469 C   0  0  0  0  0  0  0  0  0  0  0  0
  -21.2170  -22.8184   19.4023 C   0  0  0  0  0  0  0  0  0  0  0  0
  -28.5546  -24.2615   19.1135 C   0  0  0  0  0  0  0  0  0  0  0  0
  -17.9541  -27.3143   22.1251 C   0  0  0  0  0  0  0  0  0  0  0  0
  -23.4474  -28.4864   25.6353 C   0  0  0  0  0  0  0  0  0  0  0  0
  -21.3293  -27.1854   25.3366 C   0  0  0  0  0  0  0  0  0  0  0  0
  -21.2373  -29.6566   25.6650 C   0  0  0  0  0  0  0  0  0  0  0  0
  -19.7482  -28.6697   19.0559 C   0  0  0  0  0  0  0  0  0  0  0  0
  -23.6841  -18.7082   18.3601 C   0  0  0  0  0  0  0  0  0  0  0  0
  -22.4038  -18.9590   20.5245 C   0  0  0  0  0  0  0  0  0  0  0  0
  -22.4678  -22.0135   19.7794 C   0  0  1  0  0  0  0  0  0  0  0  0
  -27.3554  -25.1110   19.5147 C   0  0  1  0  0  0  0  0  0  1  0  0
  -22.0695  -28.7286   23.4653 C   0  0  1  0  0  0  0  0  0  0  0  0
  -18.9575  -28.1746   21.3729 C   0  0  2  0  0  0  0  0  0  0  0  0
  -23.2679  -19.6663   19.4814 C   0  0  2  0  0  0  0  0  0  0  0  0
  -22.0406  -28.5147   25.0051 C   0  0  0  0  0  0  0  0  0  0  0  0
  -24.6762  -12.6813   21.5561 N   0  0  0  0  0  0  0  0  0  0  0  0
  -25.6452  -13.5193   21.1501 N   0  0  0  0  0  0  0  0  0  0  0  0
  -23.9040  -29.8643   22.2535 N   0  0  0  0  0  0  0  0  0  0  0  0
  -24.4644  -16.7889   22.7388 N   0  0  0  0  0  0  0  0  0  0  0  0
  -27.4907  -13.7004   19.6763 N   0  0  0  0  0  0  0  0  0  0  0  0
  -25.9535   -9.5230   18.9128 N   0  0  0  0  0  0  0  0  0  0  0  0
  -25.8781  -32.0567   23.8864 N   0  0  0  0  0  0  0  0  0  0  0  0
  -20.7501  -28.7867   22.8453 N   0  0  0  0  0  0  0  0  0  0  0  0
  -23.0839  -17.8348   21.1282 N   0  0  0  0  0  0  0  0  0  0  0  0
  -18.8345  -27.8765   19.9179 N   0  3  0  0  0  0  0  0  0  0  0  0
  -22.4895  -20.7879   18.9093 N   0  3  0  0  0  0  0  0  0  0  0  0
  -27.5613  -11.0509   18.3302 O   0  0  0  0  0  0  0  0  0  0  0  0
  -26.6585  -30.0562   22.9855 O   0  0  0  0  0  0  0  0  0  0  0  0
  -22.3395  -31.0852   23.4775 O   0  0  0  0  0  0  0  0  0  0  0  0
  -21.0789  -27.0183   21.3818 O   0  0  0  0  0  0  0  0  0  0  0  0
  -24.0076  -19.0607   22.8313 O   0  0  0  0  0  0  0  0  0  0  0  0
  -21.5953   -7.1104   21.4068 O   0  0  0  0  0  0  0  0  0  0  0  0
  -27.2298  -26.1859   18.5846 O   0  0  0  0  0  0  0  0  0  1  0  0
  -20.3231   -5.5169   26.5299 F   0  0  0  0  0  0  0  0  0  0  0  0
  -22.2739   -4.5901   22.3179 F   0  0  0  0  0  0  0  0  0  0  0  0
  1  2  1  0  0  0  0
  1  5  2  0  0  0  0
  2  6  2  0  0  0  0
  3 12  2  0  0  0  0
  3 19  1  0  0  0  0
  4 13  1  0  0  0  0
  4 19  2  0  0  0  0
  5 21  1  0  0  0  0
  6 23  1  0  0  0  0
  7 14  2  0  0  0  0
  7 22  1  0  0  0  0
  8 10  2  0  0  0  0
  8 25  1  0  0  0  0
  9 11  1  0  0  0  0
  9 25  2  0  0  0  0
 10 26  1  0  0  0  0
 11 26  2  0  0  0  0
 12 27  1  0  0  0  0
 13 27  2  0  0  0  0
 14 28  1  0  0  0  0
 15 16  2  0  0  0  0
 15 29  1  0  0  0  0
 16 30  1  0  0  0  0
 17 24  1  0  0  0  0
 17 28  2  0  0  0  0
 18 30  2  0  0  0  0
 18 31  1  0  0  0  0
 19 32  1  0  0  0  0
 20 32  1  0  0  0  0
 20 33  2  0  0  0  0
 20 34  1  0  0  0  0
 21 23  2  0  0  0  0
 21 39  1  0  0  0  0
 22 24  2  0  0  0  0
 22 40  1  0  0  0  0
 23 48  1  0  0  0  0
 24 41  1  0  0  0  0
 25 61  1  0  0  0  0
 26 62  1  0  0  0  0
 27 83  1  0  0  0  0
 28 84  1  0  0  0  0
 29 31  2  0  0  0  0
 29 83  1  0  0  0  0
 30 85  1  0  0  0  0
 31 86  1  0  0  0  0
 32 67  2  0  0  0  0
 33 68  1  0  0  0  0
 33 71  1  0  0  0  0
 34 72  1  0  0  0  0
 34 78  2  0  0  0  0
 35 49  1  0  0  0  0
 35 73  1  0  0  0  0
 35 79  2  0  0  0  0
 36 63  1  0  0  0  0
 36 69  1  0  0  0  0
 36 80  2  0  0  0  0
 37 64  1  0  0  0  0
 37 74  1  0  0  0  0
 37 81  2  0  0  0  0
 38 70  1  0  0  0  0
 38 75  1  0  0  0  0
 38 82  2  0  0  0  0
 39 42  1  0  0  0  0
 40 49  1  0  0  0  0
 41 69  1  0  0  0  0
 42 44  1  0  0  0  0
 43 45  1  0  0  0  0
 43 46  1  0  0  0  0
 44 48  1  0  0  0  0
 45 50  1  0  0  0  0
 46 70  1  0  0  0  0
 47 50  1  0  0  0  0
 47 70  1  0  0  0  0
 48 73  1  0  0  0  0
 49 69  1  0  0  0  0
 50 68  1  0  0  0  0
 51 59  1  0  0  0  0
 52 61  1  0  0  0  0
 53 62  1  0  0  0  0
 54 64  1  0  0  0  0
 55 66  1  0  0  0  0
 56 66  1  0  0  0  0
 57 66  1  0  0  0  0
 58 76  1  0  0  0  0
 59 65  1  0  0  0  0
 60 65  1  0  0  0  0
 60 75  1  0  0  0  0
 61 77  1  0  0  0  0
 62 84  1  0  0  0  0
 63 66  1  0  0  0  0
 63 74  1  0  0  0  0
 64 76  1  0  0  0  0
 65 77  1  0  0  0  0
 67 68  1  0  0  0  0
M  CHG  2  76   1  77   1
M  ISO  4  38 100  62 101  75 100  84 101
M  END
> <Batch ID>
0109

> <Smiles>
CCC(C[100NH:0][100C:0](=O)N1CCCC(n2nc(-c3ccc(Oc4ccc(F)cc4F)cc3)c(C(N)=O)c2N)C1)NC(C)c1ccc([101CH:1](C)[101O:1]c2ccc3c(c2)CN(C(=O)C(NC(=O)C(C)NC)C(C)(C)C)C(C(=O)NC2CCCc4ccccc42)C3)cc1

> <Shape>
0.282

> <Color>
0.096

> <Negative vol penalty>
0.000

$$$$

  -OEChem-04052319563D

 85 93  0     1  0  0  0  0  0999 V2000
  -27.8852  -37.2237   22.5256 C   0  0  0  0  0  0  0  0  0  0  0  0
  -28.3473  -35.9437   22.2369 C   0  0  0  0  0  0  0  0  0  0  0  0
  -24.4133   -9.6646   21.1923 C   0  0  0  0  0  0  0  0  0  0  0  0
  -24.9934  -10.5767   23.3530 C   0  0  0  0  0  0  0  0  0  0  0  0
  -26.6650  -37.3923   23.1786 C   0  0  0  0  0  0  0  0  0  0  0  0
  -27.5899  -34.8313   22.6022 C   0  0  0  0  0  0  0  0  0  0  0  0
  -27.0977  -29.5475   19.5452 C   0  0  0  0  0  0  0  0  0  0  0  0
  -24.1260   -8.4365   21.7878 C   0  0  0  0  0  0  0  0  0  0  0  0
  -24.7060   -9.3486   23.9485 C   0  0  0  0  0  0  0  0  0  0  0  0
  -27.7235  -28.3116   19.7017 C   0  0  0  0  0  0  0  0  0  0  0  0
  -21.5934   -7.0553   23.5518 C   0  0  0  0  0  0  0  0  0  0  0  0
  -20.4207   -6.4063   23.1658 C   0  0  0  0  0  0  0  0  0  0  0  0
  -25.8423  -27.5294   20.9935 C   0  0  0  0  0  0  0  0  0  0  0  0
  -27.6292  -19.8350   21.3599 C   0  0  0  0  0  0  0  0  0  0  0  0
  -21.7178   -4.5164   22.4025 C   0  0  0  0  0  0  0  0  0  0  0  0
  -24.8471  -10.7348   21.9748 C   0  0  0  0  0  0  0  0  0  0  0  0
  -24.2557  -13.0741   21.1470 C   0  0  0  0  0  0  0  0  0  0  0  0
  -25.8876  -36.2818   23.5434 C   0  0  0  0  0  0  0  0  0  0  0  0
  -25.8422  -29.7878   20.1219 C   0  0  0  0  0  0  0  0  0  0  0  0
  -26.3587  -34.9852   23.2619 C   0  0  0  0  0  0  0  0  0  0  0  0
  -25.2016  -28.7685   20.8407 C   0  0  0  0  0  0  0  0  0  0  0  0
  -27.5988  -21.2242   21.4093 C   0  0  0  0  0  0  0  0  0  0  0  0
  -28.6391  -21.9571   20.8488 C   0  0  0  0  0  0  0  0  0  0  0  0
  -24.2723   -8.2785   23.1660 C   0  0  0  0  0  0  0  0  0  0  0  0
  -27.0971  -27.3032   20.4283 C   0  0  0  0  0  0  0  0  0  0  0  0
  -22.8284   -6.4349   23.3630 C   0  0  0  0  0  0  0  0  0  0  0  0
  -20.4828   -5.1369   22.5912 C   0  0  0  0  0  0  0  0  0  0  0  0
  -22.8906   -5.1655   22.7884 C   0  0  0  0  0  0  0  0  0  0  0  0
  -25.1446  -12.0035   21.3601 C   0  0  0  0  0  0  0  0  0  0  0  0
  -28.7135  -19.2315   20.7437 C   0  0  0  0  0  0  0  0  0  0  0  0
  -29.6783  -21.2586   20.2557 C   0  0  0  0  0  0  0  0  0  0  0  0
  -25.0196  -14.0382   20.5359 C   0  0  0  0  0  0  0  0  0  0  0  0
  -22.8639  -13.1871   21.4725 C   0  0  0  0  0  0  0  0  0  0  0  0
  -24.7265  -31.8115   22.3044 C   0  0  0  0  0  0  0  0  0  0  0  0
  -21.8664  -30.5350   21.4605 C   0  0  0  0  0  0  0  0  0  0  0  0
  -20.1473  -27.9041   20.1300 C   0  0  0  0  0  0  0  0  0  0  0  0
  -29.7162  -17.0020   20.1350 C   0  0  0  0  0  0  0  0  0  0  0  0
  -24.5975  -36.5125   24.2899 C   0  0  0  0  0  0  0  0  0  0  0  0
  -25.1686  -31.1176   19.9213 C   0  0  0  0  0  0  0  0  0  0  0  0
  -23.8445  -28.9690   21.4625 C   0  0  0  0  0  0  0  0  0  0  0  0
  -23.6784  -35.2938   24.3086 C   0  0  0  0  0  0  0  0  0  0  0  0
  -29.6833  -13.7977   18.5831 C   0  0  0  0  0  0  0  0  0  0  0  0
  -24.4660  -34.0365   24.6631 C   0  0  0  0  0  0  0  0  0  0  0  0
  -28.4264  -13.1334   19.1497 C   0  0  0  0  0  0  0  0  0  0  0  0
  -30.3865  -14.6638   19.6267 C   0  0  0  0  0  0  0  0  0  0  0  0
  -28.2748  -14.9958   20.8513 C   0  0  0  0  0  0  0  0  0  0  0  0
  -25.5540  -33.7546   23.6199 C   0  0  1  0  0  0  0  0  0  0  0  0
  -24.1195  -31.4226   20.9861 C   0  0  1  0  0  0  0  0  0  0  0  0
  -27.4965  -14.1647   19.8182 C   0  0  2  0  0  0  0  0  0  0  0  0
  -26.4437  -21.9039   22.0672 C   0  0  0  0  0  0  0  0  0  0  0  0
  -29.8037  -24.0148   21.7302 C   0  0  0  0  0  0  0  0  0  0  0  0
  -17.8161  -27.1370   19.6060 C   0  0  0  0  0  0  0  0  0  0  0  0
  -21.3982  -29.9459   24.4175 C   0  0  0  0  0  0  0  0  0  0  0  0
  -19.5683  -28.3758   23.7433 C   0  0  0  0  0  0  0  0  0  0  0  0
  -19.3923  -30.8027   23.1941 C   0  0  0  0  0  0  0  0  0  0  0  0
  -20.7373  -27.7095   17.2364 C   0  0  0  0  0  0  0  0  0  0  0  0
  -31.7553  -21.1638   19.1011 C   0  0  0  0  0  0  0  0  0  0  0  0
  -28.5740  -25.6673   19.5348 C   0  0  0  0  0  0  0  0  0  1  0  0
  -28.6388  -23.4787   20.8852 C   0  0  1  0  0  0  0  0  0  0  0  0
  -21.0395  -29.3618   21.9283 C   0  0  1  0  0  0  0  0  0  0  0  0
  -19.0549  -27.8434   19.0777 C   0  0  2  0  0  0  0  0  0  0  0  0
  -28.6082  -24.1394   19.4856 C   0  0  1  0  0  0  0  0  0  0  0  0
  -20.3760  -29.6181   23.3108 C   0  0  0  0  0  0  0  0  0  0  0  0
  -26.3787  -12.2626   20.9200 N   0  0  0  0  0  0  0  0  0  0  0  0
  -29.7425  -19.9098   20.1883 N   0  0  0  0  0  0  0  0  0  0  0  0
  -26.2708  -13.5070   20.4241 N   0  0  0  0  0  0  0  0  0  0  0  0
  -23.2295  -30.2887   21.2438 N   0  0  0  0  0  0  0  0  0  0  0  0
  -29.4451  -15.6196   20.2139 N   0  0  0  0  0  0  0  0  0  0  0  0
  -24.7363  -15.2800   20.0885 N   0  0  0  0  0  0  0  0  0  0  0  0
  -22.2340  -12.1029   22.0985 N   0  0  0  0  0  0  0  0  0  0  0  0
  -28.7340  -17.8154   20.6993 N   0  0  0  0  0  0  0  0  0  0  0  0
  -24.9746  -33.1649   22.4321 N   0  0  0  0  0  0  0  0  0  0  0  0
  -20.0933  -29.0756   20.8553 N   0  0  0  0  0  0  0  0  0  0  0  0
  -19.5363  -27.1100   17.8730 N   0  3  0  0  0  0  0  0  0  0  0  0
  -22.1947  -14.2127   21.2010 O   0  0  0  0  0  0  0  0  0  0  0  0
  -24.9517  -30.9479   23.1441 O   0  0  0  0  0  0  0  0  0  0  0  0
  -21.3214  -31.6279   21.2867 O   0  0  0  0  0  0  0  0  0  0  0  0
  -20.9643  -27.0009   20.2948 O   0  0  0  0  0  0  0  0  0  0  0  0
  -30.7308  -17.4338   19.5816 O   0  0  0  0  0  0  0  0  0  0  0  0
  -27.4860  -23.6715   18.7376 O   0  0  0  0  0  0  0  0  0  0  0  0
  -23.9918   -7.0803   23.7475 O   0  0  0  0  0  0  0  0  0  0  0  0
  -27.7060  -26.0961   20.5832 O   0  0  0  0  0  0  0  0  0  1  0  0
  -30.7233  -21.9440   19.6922 O   0  0  0  0  0  0  0  0  0  0  0  0
  -19.3564   -4.5131   22.2220 F   0  0  0  0  0  0  0  0  0  0  0  0
  -24.0740   -4.5639   22.6057 F   0  0  0  0  0  0  0  0  0  0  0  0
  1  2  1  0  0  0  0
  1  5  2  0  0  0  0
  2  6  2  0  0  0  0
  3  8  2  0  0  0  0
  3 16  1  0  0  0  0
  4  9  1  0  0  0  0
  4 16  2  0  0  0  0
  5 18  1  0  0  0  0
  6 20  1  0  0  0  0
  7 10  2  0  0  0  0
  7 19  1  0  0  0  0
  8 24  1  0  0  0  0
  9 24  2  0  0  0  0
 10 25  1  0  0  0  0
 11 12  2  0  0  0  0
 11 26  1  0  0  0  0
 12 27  1  0  0  0  0
 13 21  1  0  0  0  0
 13 25  2  0  0  0  0
 14 22  2  0  0  0  0
 14 30  1  0  0  0  0
 15 27  2  0  0  0  0
 15 28  1  0  0  0  0
 16 29  1  0  0  0  0
 17 29  1  0  0  0  0
 17 32  2  0  0  0  0
 17 33  1  0  0  0  0
 18 20  2  0  0  0  0
 18 38  1  0  0  0  0
 19 21  2  0  0  0  0
 19 39  1  0  0  0  0
 20 47  1  0  0  0  0
 21 40  1  0  0  0  0
 22 23  1  0  0  0  0
 22 50  1  0  0  0  0
 23 31  2  0  0  0  0
 23 59  1  0  0  0  0
 24 81  1  0  0  0  0
 25 82  1  0  0  0  0
 26 28  2  0  0  0  0
 26 81  1  0  0  0  0
 27 84  1  0  0  0  0
 28 85  1  0  0  0  0
 29 64  2  0  0  0  0
 30 65  2  0  0  0  0
 30 71  1  0  0  0  0
 31 65  1  0  0  0  0
 31 83  1  0  0  0  0
 32 66  1  0  0  0  0
 32 69  1  0  0  0  0
 33 70  1  0  0  0  0
 33 75  2  0  0  0  0
 34 48  1  0  0  0  0
 34 72  1  0  0  0  0
 34 76  2  0  0  0  0
 35 60  1  0  0  0  0
 35 67  1  0  0  0  0
 35 77  2  0  0  0  0
 36 61  1  0  0  0  0
 36 73  1  0  0  0  0
 36 78  2  0  0  0  0
 37 68  1  0  0  0  0
 37 71  1  0  0  0  0
 37 79  2  0  0  0  0
 38 41  1  0  0  0  0
 39 48  1  0  0  0  0
 40 67  1  0  0  0  0
 41 43  1  0  0  0  0
 42 44  1  0  0  0  0
 42 45  1  0  0  0  0
 43 47  1  0  0  0  0
 44 49  1  0  0  0  0
 45 68  1  0  0  0  0
 46 49  1  0  0  0  0
 46 68  1  0  0  0  0
 47 72  1  0  0  0  0
 48 67  1  0  0  0  0
 49 66  1  0  0  0  0
 51 59  1  0  0  0  0
 52 61  1  0  0  0  0
 53 63  1  0  0  0  0
 54 63  1  0  0  0  0
 55 63  1  0  0  0  0
 56 74  1  0  0  0  0
 57 83  1  0  0  0  0
 58 62  1  0  0  0  0
 58 82  1  0  0  0  0
 59 62  1  0  0  0  0
 60 63  1  0  0  0  0
 60 73  1  0  0  0  0
 61 74  1  0  0  0  0
 62 80  1  0  0  0  0
 64 66  1  0  0  0  0
M  CHG  1  74   1
M  ISO  4  37 100  58 101  71 100  82 101
M  END
> <Batch ID>
0109

> <Smiles>
CNC(C)C(=O)NC(C(=O)N1Cc2cc([101O:1][101CH2:1]C(O)C(C)c3c(C)cc([100NH:0][100C:0](=O)N4CCCC(n5nc(-c6ccc(Oc7ccc(F)cc7F)cc6)c(C(N)=O)c5N)C4)nc3OC)ccc2CC1C(=O)NC1CCCc2ccccc21)C(C)(C)C

> <Shape>
0.369

> <Color>
0.150

> <Negative vol penalty>
0.000

$$$$

  -OEChem-04052319563D

 85 93  0     1  0  0  0  0  0999 V2000
  -26.4770  -19.2219   12.0206 C   0  0  0  0  0  0  0  0  0  0  0  0
  -26.6224  -18.6057   13.2593 C   0  0  0  0  0  0  0  0  0  0  0  0
  -26.5746  -28.2892   18.8048 C   0  0  0  0  0  0  0  0  0  0  0  0
  -26.3801  -27.9732   21.1921 C   0  0  0  0  0  0  0  0  0  0  0  0
  -26.0696  -20.5534   11.9492 C   0  0  0  0  0  0  0  0  0  0  0  0
  -26.3615  -19.3210   14.4275 C   0  0  0  0  0  0  0  0  0  0  0  0
  -23.6136  -16.6712   17.7551 C   0  0  0  0  0  0  0  0  0  0  0  0
  -25.4543  -29.1199   18.8234 C   0  0  0  0  0  0  0  0  0  0  0  0
  -25.2597  -28.8040   21.2107 C   0  0  0  0  0  0  0  0  0  0  0  0
  -24.2811  -15.7039   18.5051 C   0  0  0  0  0  0  0  0  0  0  0  0
  -21.9717  -28.5697   20.4592 C   0  0  0  0  0  0  0  0  0  0  0  0
  -20.8647  -28.1484   21.1958 C   0  0  0  0  0  0  0  0  0  0  0  0
  -24.3871  -17.2311   20.3694 C   0  0  0  0  0  0  0  0  0  0  0  0
  -28.2088  -15.8635   21.3063 C   0  0  0  0  0  0  0  0  0  0  0  0
  -21.0248  -30.1295   22.5694 C   0  0  0  0  0  0  0  0  0  0  0  0
  -27.0375  -27.7158   19.9891 C   0  0  0  0  0  0  0  0  0  0  0  0
  -29.5396  -27.2396   20.1309 C   0  0  0  0  0  0  0  0  0  0  0  0
  -25.7943  -21.2825   13.1167 C   0  0  0  0  0  0  0  0  0  0  0  0
  -23.3370  -17.9317   18.3039 C   0  0  0  0  0  0  0  0  0  0  0  0
  -25.9513  -20.6639   14.3717 C   0  0  0  0  0  0  0  0  0  0  0  0
  -23.7137  -18.2118   19.6252 C   0  0  0  0  0  0  0  0  0  0  0  0
  -29.2749  -16.7554   21.3407 C   0  0  0  0  0  0  0  0  0  0  0  0
  -30.5204  -16.3602   20.8654 C   0  0  0  0  0  0  0  0  0  0  0  0
  -24.7969  -29.3773   20.0263 C   0  0  0  0  0  0  0  0  0  0  0  0
  -24.6706  -15.9848   19.8114 C   0  0  0  0  0  0  0  0  0  0  0  0
  -22.6053  -29.7709   20.7777 C   0  0  0  0  0  0  0  0  0  0  0  0
  -20.3912  -28.9283   22.2509 C   0  0  0  0  0  0  0  0  0  0  0  0
  -22.1319  -30.5508   21.8328 C   0  0  0  0  0  0  0  0  0  0  0  0
  -28.1944  -26.8571   19.9704 C   0  0  0  0  0  0  0  0  0  0  0  0
  -28.4383  -14.5980   20.7909 C   0  0  0  0  0  0  0  0  0  0  0  0
  -30.6465  -15.0724   20.3699 C   0  0  0  0  0  0  0  0  0  0  0  0
  -30.2446  -26.0648   20.0337 C   0  0  0  0  0  0  0  0  0  0  0  0
  -30.1018  -28.5405   20.3485 C   0  0  0  0  0  0  0  0  0  0  0  0
  -24.1720  -20.9169   17.6002 C   0  0  0  0  0  0  0  0  0  0  0  0
  -22.0673  -21.6480   19.9577 C   0  0  0  0  0  0  0  0  0  0  0  0
  -20.4169  -20.6604   22.7769 C   0  0  0  0  0  0  0  0  0  0  0  0
  -28.7286  -20.4656   21.1323 C   0  0  0  0  0  0  0  0  0  0  0  0
  -25.4023  -22.7335   12.9911 C   0  0  0  0  0  0  0  0  0  0  0  0
  -22.5924  -18.9550   17.4909 C   0  0  0  0  0  0  0  0  0  0  0  0
  -23.4224  -19.5425   20.2677 C   0  0  0  0  0  0  0  0  0  0  0  0
  -24.7842  -23.3097   14.2623 C   0  0  0  0  0  0  0  0  0  0  0  0
  -30.0430  -21.7333   18.0077 C   0  0  0  0  0  0  0  0  0  0  0  0
  -25.6134  -22.9217   15.4824 C   0  0  0  0  0  0  0  0  0  0  0  0
  -29.8408  -23.2396   18.1815 C   0  0  0  0  0  0  0  0  0  0  0  0
  -28.8853  -20.9464   18.6149 C   0  0  0  0  0  0  0  0  0  0  0  0
  -28.4197  -22.7518   20.2265 C   0  0  0  0  0  0  0  0  0  0  0  0
  -25.6538  -21.3992   15.6605 C   0  0  1  0  0  0  0  0  0  0  0  0
  -22.8186  -20.3835   17.9763 C   0  0  1  0  0  0  0  0  0  0  0  0
  -29.5679  -23.6022   19.6533 C   0  0  2  0  0  0  0  0  0  0  0  0
  -31.6850  -17.2920   20.8891 C   0  0  0  0  0  0  0  0  0  0  0  0
  -18.7930  -21.4893   24.5012 C   0  0  0  0  0  0  0  0  0  0  0  0
  -26.6816  -13.2515   22.1249 C   0  0  0  0  0  0  0  0  0  0  0  0
  -27.8028  -12.2534   20.1440 C   0  0  0  0  0  0  0  0  0  0  0  0
  -24.2926  -23.2722   21.2692 C   0  0  0  0  0  0  0  0  0  0  0  0
  -22.9514  -23.2723   23.3833 C   0  0  0  0  0  0  0  0  0  0  0  0
  -22.0381  -24.3530   21.3289 C   0  0  0  0  0  0  0  0  0  0  0  0
  -18.4306  -18.5821   22.0736 C   0  0  0  0  0  0  0  0  0  0  0  0
  -31.9151  -13.3108   19.3987 C   0  0  0  0  0  0  0  0  0  0  0  0
  -29.0594  -18.1264   21.8909 C   0  0  0  0  0  0  0  0  0  0  0  0
  -26.1403  -14.1152   19.8327 C   0  0  0  0  0  0  0  0  0  1  0  0
  -22.1585  -21.8307   21.4535 C   0  0  1  0  0  0  0  0  0  0  0  0
  -18.9557  -20.7610   23.1761 C   0  0  2  0  0  0  0  0  0  0  0  0
  -27.2815  -13.5826   20.7372 C   0  0  0  0  0  0  0  0  0  0  0  0
  -22.8675  -23.1576   21.8462 C   0  0  0  0  0  0  0  0  0  0  0  0
  -28.0508  -25.5421   19.7852 N   0  0  0  0  0  0  0  0  0  0  0  0
  -29.6340  -14.1780   20.3202 N   0  0  0  0  0  0  0  0  0  0  0  0
  -29.3149  -25.0881   19.8286 N   0  0  0  0  0  0  0  0  0  0  0  0
  -22.6977  -20.5123   19.4299 N   0  0  0  0  0  0  0  0  0  0  0  0
  -28.6902  -21.3249   20.0216 N   0  0  0  0  0  0  0  0  0  0  0  0
  -31.5627  -25.7823   20.1045 N   0  0  0  0  0  0  0  0  0  0  0  0
  -29.2347  -29.6391   20.4224 N   0  0  0  0  0  0  0  0  0  0  0  0
  -24.4153  -20.9251   16.2399 N   0  0  0  0  0  0  0  0  0  0  0  0
  -20.7973  -21.7069   21.9636 N   0  0  0  0  0  0  0  0  0  0  0  0
  -28.9836  -19.1289   20.8516 N   0  0  0  0  0  0  0  0  0  0  0  0
  -18.3608  -19.4013   23.3110 N   0  3  0  0  0  0  0  0  0  0  0  0
  -31.3377  -28.7254   20.4571 O   0  0  0  0  0  0  0  0  0  0  0  0
  -24.9381  -21.2945   18.4789 O   0  0  0  0  0  0  0  0  0  0  0  0
  -21.4530  -22.4783   19.2834 O   0  0  0  0  0  0  0  0  0  0  0  0
  -21.1486  -19.7470   23.1522 O   0  0  0  0  0  0  0  0  0  0  0  0
  -28.5540  -20.8614   22.2898 O   0  0  0  0  0  0  0  0  0  0  0  0
  -23.7038  -30.1881   20.0449 O   0  0  0  0  0  0  0  0  0  0  0  0
  -25.3228  -15.0426   20.5454 O   0  0  0  0  0  0  0  0  0  1  0  0
  -31.8574  -14.6438   19.8920 O   0  0  0  0  0  0  0  0  0  0  0  0
  -19.3272  -28.5244   22.9572 F   0  0  0  0  0  0  0  0  0  0  0  0
  -22.7357  -31.7063   22.1427 F   0  0  0  0  0  0  0  0  0  0  0  0
  1  2  1  0  0  0  0
  1  5  2  0  0  0  0
  2  6  2  0  0  0  0
  3  8  2  0  0  0  0
  3 16  1  0  0  0  0
  4  9  1  0  0  0  0
  4 16  2  0  0  0  0
  5 18  1  0  0  0  0
  6 20  1  0  0  0  0
  7 10  2  0  0  0  0
  7 19  1  0  0  0  0
  8 24  1  0  0  0  0
  9 24  2  0  0  0  0
 10 25  1  0  0  0  0
 11 12  2  0  0  0  0
 11 26  1  0  0  0  0
 12 27  1  0  0  0  0
 13 21  1  0  0  0  0
 13 25  2  0  0  0  0
 14 22  2  0  0  0  0
 14 30  1  0  0  0  0
 15 27  2  0  0  0  0
 15 28  1  0  0  0  0
 16 29  1  0  0  0  0
 17 29  1  0  0  0  0
 17 32  2  0  0  0  0
 17 33  1  0  0  0  0
 18 20  2  0  0  0  0
 18 38  1  0  0  0  0
 19 21  2  0  0  0  0
 19 39  1  0  0  0  0
 20 47  1  0  0  0  0
 21 40  1  0  0  0  0
 22 23  1  0  0  0  0
 22 59  1  0  0  0  0
 23 31  2  0  0  0  0
 23 50  1  0  0  0  0
 24 81  1  0  0  0  0
 25 82  1  0  0  0  0
 26 28  2  0  0  0  0
 26 81  1  0  0  0  0
 27 84  1  0  0  0  0
 28 85  1  0  0  0  0
 29 65  2  0  0  0  0
 30 63  1  0  0  0  0
 30 66  2  0  0  0  0
 31 66  1  0  0  0  0
 31 83  1  0  0  0  0
 32 67  1  0  0  0  0
 32 70  1  0  0  0  0
 33 71  1  0  0  0  0
 33 76  2  0  0  0  0
 34 48  1  0  0  0  0
 34 72  1  0  0  0  0
 34 77  2  0  0  0  0
 35 61  1  0  0  0  0
 35 68  1  0  0  0  0
 35 78  2  0  0  0  0
 36 62  1  0  0  0  0
 36 73  1  0  0  0  0
 36 79  2  0  0  0  0
 37 69  1  0  0  0  0
 37 74  1  0  0  0  0
 37 80  2  0  0  0  0
 38 41  1  0  0  0  0
 39 48  1  0  0  0  0
 40 68  1  0  0  0  0
 41 43  1  0  0  0  0
 42 44  1  0  0  0  0
 42 45  1  0  0  0  0
 43 47  1  0  0  0  0
 44 49  1  0  0  0  0
 45 69  1  0  0  0  0
 46 49  1  0  0  0  0
 46 69  1  0  0  0  0
 47 72  1  0  0  0  0
 48 68  1  0  0  0  0
 49 67  1  0  0  0  0
 51 62  1  0  0  0  0
 52 63  1  0  0  0  0
 53 63  1  0  0  0  0
 54 64  1  0  0  0  0
 55 64  1  0  0  0  0
 56 64  1  0  0  0  0
 57 75  1  0  0  0  0
 58 83  1  0  0  0  0
 59 74  1  0  0  0  0
 60 63  1  0  0  0  0
 60 82  1  0  0  0  0
 61 64  1  0  0  0  0
 61 73  1  0  0  0  0
 62 75  1  0  0  0  0
 65 67  1  0  0  0  0
M  CHG  1  75   1
M  ISO  4  37 100  60 101  74 100  82 101
M  END
> <Batch ID>
0109

> <Smiles>
CNC(C)C(=O)NC(C(=O)N1Cc2cc([101O:1][101CH2:1]C(C)(C)c3cc(C[100NH:0][100C:0](=O)N4CCCC(n5nc(-c6ccc(Oc7ccc(F)cc7F)cc6)c(C(N)=O)c5N)C4)c(C)c(OC)n3)ccc2CC1C(=O)NC1CCCc2ccccc21)C(C)(C)C

> <Shape>
0.224

> <Color>
0.062

> <Negative vol penalty>
0.000

$$$$

  -OEChem-04052319563D

 87 95  0     1  0  0  0  0  0999 V2000
  -15.6208  -32.6739   28.5945 C   0  0  0  0  0  0  0  0  0  0  0  0
  -16.5437  -31.6385   28.4859 C   0  0  0  0  0  0  0  0  0  0  0  0
  -23.1065   -9.8101   19.9202 C   0  0  0  0  0  0  0  0  0  0  0  0
  -23.8751   -9.8049   22.2107 C   0  0  0  0  0  0  0  0  0  0  0  0
  -14.6174  -32.8152   27.6368 C   0  0  0  0  0  0  0  0  0  0  0  0
  -16.4630  -30.7432   27.4199 C   0  0  0  0  0  0  0  0  0  0  0  0
  -21.1319  -28.0442   24.5177 C   0  0  0  0  0  0  0  0  0  0  0  0
  -22.3788   -8.6449   20.1617 C   0  0  0  0  0  0  0  0  0  0  0  0
  -23.1474   -8.6397   22.4522 C   0  0  0  0  0  0  0  0  0  0  0  0
  -21.7058  -26.7793   24.6380 C   0  0  0  0  0  0  0  0  0  0  0  0
  -19.9323   -7.7937   23.0590 C   0  0  0  0  0  0  0  0  0  0  0  0
  -19.1805   -7.7326   24.2323 C   0  0  0  0  0  0  0  0  0  0  0  0
  -20.3500  -25.9962   22.8029 C   0  0  0  0  0  0  0  0  0  0  0  0
  -20.4501   -5.8046   24.9453 C   0  0  0  0  0  0  0  0  0  0  0  0
  -23.8548  -10.3901   20.9446 C   0  0  0  0  0  0  0  0  0  0  0  0
  -24.1630  -12.9206   20.8478 C   0  0  0  0  0  0  0  0  0  0  0  0
  -14.5303  -31.9269   26.5533 C   0  0  0  0  0  0  0  0  0  0  0  0
  -20.1532  -28.2921   23.5446 C   0  0  0  0  0  0  0  0  0  0  0  0
  -15.4567  -30.8719   26.4475 C   0  0  0  0  0  0  0  0  0  0  0  0
  -19.7671  -27.2658   22.6706 C   0  0  0  0  0  0  0  0  0  0  0  0
  -22.3992   -8.0597   21.4277 C   0  0  0  0  0  0  0  0  0  0  0  0
  -21.3129  -25.7543   23.7824 C   0  0  0  0  0  0  0  0  0  0  0  0
  -20.9430   -6.8603   22.8288 C   0  0  0  0  0  0  0  0  0  0  0  0
  -19.4394   -6.7380   25.1755 C   0  0  0  0  0  0  0  0  0  0  0  0
  -21.2019   -5.8658   23.7719 C   0  0  0  0  0  0  0  0  0  0  0  0
  -24.6071  -11.5934   20.6956 C   0  0  0  0  0  0  0  0  0  0  0  0
  -25.2438  -13.6878   20.4878 C   0  0  0  0  0  0  0  0  0  0  0  0
  -22.8874  -13.4155   21.2765 C   0  0  0  0  0  0  0  0  0  0  0  0
  -17.0994  -29.1720   23.6077 C   0  0  0  0  0  0  0  0  0  0  0  0
  -17.4764  -29.3089   20.3888 C   0  0  0  0  0  0  0  0  0  0  0  0
  -19.1849  -28.2655   17.6249 C   0  0  0  0  0  0  0  0  0  0  0  0
  -30.7144  -14.7771   20.6655 C   0  0  0  0  0  0  0  0  0  0  0  0
  -13.3996  -32.0915   25.5688 C   0  0  0  0  0  0  0  0  0  0  0  0
  -19.5631  -29.6691   23.4103 C   0  0  0  0  0  0  0  0  0  0  0  0
  -18.7351  -27.4857   21.5959 C   0  0  0  0  0  0  0  0  0  0  0  0
  -13.6102  -31.3247   24.2657 C   0  0  0  0  0  0  0  0  0  0  0  0
  -29.5989  -12.4009   18.2600 C   0  0  0  0  0  0  0  0  0  0  0  0
  -14.0733  -29.9001   24.5535 C   0  0  0  0  0  0  0  0  0  0  0  0
  -28.4274  -18.7393   22.3091 C   0  0  0  0  0  0  0  0  0  0  0  0
  -28.7154  -19.5629   19.9394 C   0  0  0  0  0  0  0  0  0  0  0  0
  -26.9504  -19.1270   22.2643 C   0  0  0  0  0  0  0  0  0  0  0  0
  -27.2383  -19.9502   19.8946 C   0  0  0  0  0  0  0  0  0  0  0  0
  -28.1671  -12.0842   18.6954 C   0  0  0  0  0  0  0  0  0  0  0  0
  -30.5177  -12.6222   19.4595 C   0  0  0  0  0  0  0  0  0  0  0  0
  -28.6119  -13.3148   20.8603 C   0  0  0  0  0  0  0  0  0  0  0  0
  -15.4171  -29.8954   25.2922 C   0  0  1  0  0  0  0  0  0  0  0  0
  -18.2031  -29.6716   22.7190 C   0  0  1  0  0  0  0  0  0  0  0  0
  -28.9687  -18.4052   20.9132 C   0  0  0  0  0  0  0  0  0  0  0  0
  -26.6975  -20.2848   21.2904 C   0  0  0  0  0  0  0  0  0  0  0  0
  -27.6356  -13.1388   19.6846 C   0  0  2  0  0  0  0  0  0  0  0  0
  -19.2380  -28.5208   15.1290 C   0  0  0  0  0  0  0  0  0  0  0  0
  -15.0492  -27.4752   20.1521 C   0  0  0  0  0  0  0  0  0  0  0  0
  -15.7196  -27.0087   17.7854 C   0  0  0  0  0  0  0  0  0  0  0  0
  -15.1226  -29.3302   18.4763 C   0  0  0  0  0  0  0  0  0  0  0  0
  -21.2853  -22.4124   25.8298 C   0  0  0  0  0  0  0  0  0  0  0  0
  -20.5252  -20.9876   23.9235 C   0  0  0  0  0  0  0  0  0  0  0  0
  -21.9224  -29.3889   17.6818 C   0  0  0  0  0  0  0  0  0  0  0  0
  -30.4577  -18.0712   20.9778 C   0  0  0  0  0  0  0  0  0  0  0  0
  -25.2087  -20.6203   21.2260 C   0  0  0  0  0  0  0  0  0  0  0  0
  -22.9493  -21.7492   24.0837 C   0  0  0  0  0  0  0  0  0  0  0  0
  -30.7568  -16.9163   21.9230 C   0  0  0  0  0  0  0  0  0  0  0  0
  -23.2988  -21.3794   22.6455 C   0  0  0  0  0  0  0  0  0  0  0  0
  -21.0618  -23.4032   23.5277 C   0  0  0  0  0  0  0  0  0  1  0  0
  -17.3122  -28.3309   19.2506 C   0  0  1  0  0  0  0  0  0  0  0  0
  -19.7752  -29.0336   16.4561 C   0  0  2  0  0  0  0  0  0  0  0  0
  -15.8190  -28.0313   18.9375 C   0  0  0  0  0  0  0  0  0  0  0  0
  -21.4639  -22.1410   24.3207 C   0  0  0  0  0  0  0  0  0  0  0  0
  -25.8715  -11.5183   20.2717 N   0  0  0  0  0  0  0  0  0  0  0  0
  -26.2311  -12.8079   20.1544 N   0  0  0  0  0  0  0  0  0  0  0  0
  -18.1828  -28.8477   21.5086 N   0  0  0  0  0  0  0  0  0  0  0  0
  -29.9571  -13.6348   20.3575 N   0  0  0  0  0  0  0  0  0  0  0  0
  -25.4364  -15.0226   20.4269 N   0  0  0  0  0  0  0  0  0  0  0  0
  -21.8889  -12.4899   21.6087 N   0  0  0  0  0  0  0  0  0  0  0  0
  -16.5015  -30.1571   24.3702 N   0  0  0  0  0  0  0  0  0  0  0  0
  -18.0591  -28.8841   18.1261 N   0  0  0  0  0  0  0  0  0  0  0  0
  -30.1063  -15.6898   21.5188 N   0  0  0  0  0  0  0  0  0  0  0  0
  -21.2595  -28.9002   16.4453 N   0  3  0  0  0  0  0  0  0  0  0  0
  -24.7271  -20.9748   22.5880 N   0  3  0  0  0  0  0  0  0  0  0  0
  -22.6353  -14.6423   21.3467 O   0  0  0  0  0  0  0  0  0  0  0  0
  -16.8105  -27.9811   23.6010 O   0  0  0  0  0  0  0  0  0  0  0  0
  -17.0018  -30.4428   20.2851 O   0  0  0  0  0  0  0  0  0  0  0  0
  -19.6716  -27.2194   18.0484 O   0  0  0  0  0  0  0  0  0  0  0  0
  -31.8461  -14.9718   20.2094 O   0  0  0  0  0  0  0  0  0  0  0  0
  -21.6891   -6.9229   21.6638 O   0  0  0  0  0  0  0  0  0  0  0  0
  -21.8710  -24.5186   23.8981 O   0  0  0  0  0  0  0  0  0  1  0  0
  -18.7183   -6.6803   26.3028 F   0  0  0  0  0  0  0  0  0  0  0  0
  -22.1723   -4.9670   23.5569 F   0  0  0  0  0  0  0  0  0  0  0  0
  1  2  1  0  0  0  0
  1  5  2  0  0  0  0
  2  6  2  0  0  0  0
  3  8  2  0  0  0  0
  3 15  1  0  0  0  0
  4  9  1  0  0  0  0
  4 15  2  0  0  0  0
  5 17  1  0  0  0  0
  6 19  1  0  0  0  0
  7 10  2  0  0  0  0
  7 18  1  0  0  0  0
  8 21  1  0  0  0  0
  9 21  2  0  0  0  0
 10 22  1  0  0  0  0
 11 12  2  0  0  0  0
 11 23  1  0  0  0  0
 12 24  1  0  0  0  0
 13 20  1  0  0  0  0
 13 22  2  0  0  0  0
 14 24  2  0  0  0  0
 14 25  1  0  0  0  0
 15 26  1  0  0  0  0
 16 26  1  0  0  0  0
 16 27  2  0  0  0  0
 16 28  1  0  0  0  0
 17 19  2  0  0  0  0
 17 33  1  0  0  0  0
 18 20  2  0  0  0  0
 18 34  1  0  0  0  0
 19 46  1  0  0  0  0
 20 35  1  0  0  0  0
 21 84  1  0  0  0  0
 22 85  1  0  0  0  0
 23 25  2  0  0  0  0
 23 84  1  0  0  0  0
 24 86  1  0  0  0  0
 25 87  1  0  0  0  0
 26 68  2  0  0  0  0
 27 69  1  0  0  0  0
 27 72  1  0  0  0  0
 28 73  1  0  0  0  0
 28 79  2  0  0  0  0
 29 47  1  0  0  0  0
 29 74  1  0  0  0  0
 29 80  2  0  0  0  0
 30 64  1  0  0  0  0
 30 70  1  0  0  0  0
 30 81  2  0  0  0  0
 31 65  1  0  0  0  0
 31 75  1  0  0  0  0
 31 82  2  0  0  0  0
 32 71  1  0  0  0  0
 32 76  1  0  0  0  0
 32 83  2  0  0  0  0
 33 36  1  0  0  0  0
 34 47  1  0  0  0  0
 35 70  1  0  0  0  0
 36 38  1  0  0  0  0
 37 43  1  0  0  0  0
 37 44  1  0  0  0  0
 38 46  1  0  0  0  0
 39 41  1  0  0  0  0
 39 48  1  0  0  0  0
 40 42  1  0  0  0  0
 40 48  1  0  0  0  0
 41 49  1  0  0  0  0
 42 49  1  0  0  0  0
 43 50  1  0  0  0  0
 44 71  1  0  0  0  0
 45 50  1  0  0  0  0
 45 71  1  0  0  0  0
 46 74  1  0  0  0  0
 47 70  1  0  0  0  0
 48 58  1  0  0  0  0
 49 59  1  0  0  0  0
 50 69  1  0  0  0  0
 51 65  1  0  0  0  0
 52 66  1  0  0  0  0
 53 66  1  0  0  0  0
 54 66  1  0  0  0  0
 55 67  1  0  0  0  0
 56 67  1  0  0  0  0
 57 77  1  0  0  0  0
 58 61  1  0  0  0  0
 59 78  1  0  0  0  0
 60 62  1  0  0  0  0
 60 67  1  0  0  0  0
 61 76  1  0  0  0  0
 62 78  1  0  0  0  0
 63 67  1  0  0  0  0
 63 85  1  0  0  0  0
 64 66  1  0  0  0  0
 64 75  1  0  0  0  0
 65 77  1  0  0  0  0
 68 69  1  0  0  0  0
M  CHG  2  77   1  78   1
M  ISO  4  32 100  63 101  76 100  85 101
M  END
> <Batch ID>
0109

> <Smiles>
CNC(C)C(=O)NC(C(=O)N1Cc2cc([101O:1][101CH2:1]C(C)(C)CCNCC3CCC(CC[100NH:0][100C:0](=O)N4CCCC(n5nc(-c6ccc(Oc7ccc(F)cc7F)cc6)c(C(N)=O)c5N)C4)CC3)ccc2CC1C(=O)NC1CCCc2ccccc21)C(C)(C)C

> <Shape>
0.264

> <Color>
0.199

> <Negative vol penalty>
0.000

$$$$

  -OEChem-04052319563D

 87 95  0     1  0  0  0  0  0999 V2000
  -25.5137  -37.6919   21.9365 C   0  0  0  0  0  0  0  0  0  0  0  0
  -26.2739  -36.6102   21.5034 C   0  0  0  0  0  0  0  0  0  0  0  0
  -27.2199  -11.4693   18.9179 C   0  0  0  0  0  0  0  0  0  0  0  0
  -28.0804  -11.9764   21.1178 C   0  0  0  0  0  0  0  0  0  0  0  0
  -24.5443  -37.5110   22.9221 C   0  0  0  0  0  0  0  0  0  0  0  0
  -26.0657  -35.3472   22.0564 C   0  0  0  0  0  0  0  0  0  0  0  0
  -26.5173  -29.9536   19.1908 C   0  0  0  0  0  0  0  0  0  0  0  0
  -28.4654  -10.9621   18.5476 C   0  0  0  0  0  0  0  0  0  0  0  0
  -29.3258  -11.4691   20.7476 C   0  0  0  0  0  0  0  0  0  0  0  0
  -27.5358  -29.0032   19.1357 C   0  0  0  0  0  0  0  0  0  0  0  0
  -30.7721   -8.4356   20.3915 C   0  0  0  0  0  0  0  0  0  0  0  0
  -31.4195   -7.5899   21.2923 C   0  0  0  0  0  0  0  0  0  0  0  0
  -26.4686  -27.7654   20.9100 C   0  0  0  0  0  0  0  0  0  0  0  0
  -24.2270  -21.0234   23.8578 C   0  0  0  0  0  0  0  0  0  0  0  0
  -33.2788   -9.1289   21.4007 C   0  0  0  0  0  0  0  0  0  0  0  0
  -25.3557  -23.0616   22.4374 C   0  0  0  0  0  0  0  0  0  0  0  0
  -27.0274  -11.9766   20.2030 C   0  0  0  0  0  0  0  0  0  0  0  0
  -24.6729  -11.7926   21.1673 C   0  0  0  0  0  0  0  0  0  0  0  0
  -24.3175  -36.2432   23.4806 C   0  0  0  0  0  0  0  0  0  0  0  0
  -25.4708  -29.8226   20.1150 C   0  0  0  0  0  0  0  0  0  0  0  0
  -25.0932  -35.1495   23.0513 C   0  0  0  0  0  0  0  0  0  0  0  0
  -25.4367  -28.7143   20.9731 C   0  0  0  0  0  0  0  0  0  0  0  0
  -24.0859  -21.0510   22.4748 C   0  0  0  0  0  0  0  0  0  0  0  0
  -24.6580  -22.0861   21.7437 C   0  0  0  0  0  0  0  0  0  0  0  0
  -29.5183  -10.9619   19.4625 C   0  0  0  0  0  0  0  0  0  0  0  0
  -27.5131  -27.9104   19.9973 C   0  0  0  0  0  0  0  0  0  0  0  0
  -31.3781   -9.6279   19.9953 C   0  0  0  0  0  0  0  0  0  0  0  0
  -32.6729   -7.9366   21.7969 C   0  0  0  0  0  0  0  0  0  0  0  0
  -32.6314   -9.9746   20.4999 C   0  0  0  0  0  0  0  0  0  0  0  0
  -25.7413  -12.5013   20.5858 C   0  0  0  0  0  0  0  0  0  0  0  0
  -24.9442  -22.0464   24.4569 C   0  0  0  0  0  0  0  0  0  0  0  0
  -23.6877  -12.7345   21.3365 C   0  0  0  0  0  0  0  0  0  0  0  0
  -24.5794  -10.4067   21.5228 C   0  0  0  0  0  0  0  0  0  0  0  0
  -24.4102  -31.5512   22.5626 C   0  0  0  0  0  0  0  0  0  0  0  0
  -24.0069  -18.6316   21.9669 C   0  0  0  0  0  0  0  0  0  0  0  0
  -22.0233  -29.3547   22.5753 C   0  0  0  0  0  0  0  0  0  0  0  0
  -20.9762  -26.2093   21.7649 C   0  0  0  0  0  0  0  0  0  0  0  0
  -23.2910  -36.1061   24.5770 C   0  0  0  0  0  0  0  0  0  0  0  0
  -24.3656  -30.8425   20.1436 C   0  0  0  0  0  0  0  0  0  0  0  0
  -24.3247  -28.5168   21.9696 C   0  0  0  0  0  0  0  0  0  0  0  0
  -22.8748  -34.6620   24.8446 C   0  0  0  0  0  0  0  0  0  0  0  0
  -22.0503  -16.8251   19.4899 C   0  0  0  0  0  0  0  0  0  0  0  0
  -24.1019  -33.7600   24.9308 C   0  0  0  0  0  0  0  0  0  0  0  0
  -22.7066  -15.4457   19.5288 C   0  0  0  0  0  0  0  0  0  0  0  0
  -23.0714  -17.9388   19.7071 C   0  0  0  0  0  0  0  0  0  0  0  0
  -24.5238  -16.4117   21.0044 C   0  0  0  0  0  0  0  0  0  0  0  0
  -24.8799  -33.7591   23.6093 C   0  0  1  0  0  0  0  0  0  0  0  0
  -23.6210  -30.8795   21.4746 C   0  0  1  0  0  0  0  0  0  0  0  0
  -23.5227  -15.2590   20.8198 C   0  0  2  0  0  0  0  0  0  0  0  0
  -25.1156  -22.0494   25.9393 C   0  0  0  0  0  0  0  0  0  0  0  0
  -21.0187  -21.0588   21.9678 C   0  0  0  0  0  0  0  0  0  0  0  0
  -18.9860  -24.6903   21.9364 C   0  0  0  0  0  0  0  0  0  0  0  0
  -22.6335  -28.8927   25.5290 C   0  0  0  0  0  0  0  0  0  0  0  0
  -21.3192  -26.7659   25.3962 C   0  0  0  0  0  0  0  0  0  0  0  0
  -20.1980  -28.9520   24.9638 C   0  0  0  0  0  0  0  0  0  0  0  0
  -20.7542  -25.9769   18.8228 C   0  0  0  0  0  0  0  0  0  0  0  0
  -24.5355  -22.1655   20.2429 C   0  0  0  0  0  0  0  0  0  0  0  0
  -21.8524  -19.8197   22.2671 C   0  0  0  0  0  0  0  0  0  0  0  0
  -25.5115  -21.2510   19.4909 C   0  0  0  0  0  0  0  0  0  0  0  0
  -29.0672  -24.6855   19.5376 C   0  0  0  0  0  0  0  0  0  0  0  0
  -26.9891  -21.4802   19.7937 C   0  0  0  0  0  0  0  0  0  0  0  0
  -28.7832  -23.2179   19.8198 C   0  0  0  0  0  0  0  0  0  0  0  0
  -28.1632  -25.6434   20.3038 C   0  0  0  0  0  0  0  0  0  1  0  0
  -23.3192  -19.9631   21.7987 C   0  0  1  0  0  0  0  0  0  0  0  0
  -21.8019  -28.0203   23.2457 C   0  0  1  0  0  0  0  0  0  0  0  0
  -19.7162  -25.7125   21.0792 C   0  0  2  0  0  0  0  0  0  0  0  0
  -21.5103  -28.1622   24.7663 C   0  0  0  0  0  0  0  0  0  0  0  0
  -25.5141  -23.0685   23.7800 N   0  0  0  0  0  0  0  0  0  0  0  0
  -25.4612  -13.7937   20.3981 N   0  0  0  0  0  0  0  0  0  0  0  0
  -24.2055  -13.9045   20.8641 N   0  0  0  0  0  0  0  0  0  0  0  0
  -23.2704  -29.5445   21.9635 N   0  0  0  0  0  0  0  0  0  0  0  0
  -23.8468  -17.7097   20.9321 N   0  0  0  0  0  0  0  0  0  0  0  0
  -22.4376  -12.6678   21.8416 N   0  0  0  0  0  0  0  0  0  0  0  0
  -25.6841   -9.5788   21.2807 N   0  0  0  0  0  0  0  0  0  0  0  0
  -24.2192  -32.9179   22.6345 N   0  0  0  0  0  0  0  0  0  0  0  0
  -20.7427  -27.3564   22.4935 N   0  0  0  0  0  0  0  0  0  0  0  0
  -20.0530  -25.0767   19.7741 N   0  3  0  0  0  0  0  0  0  0  0  0
  -27.3760  -22.8868   19.4948 N   0  3  0  0  0  0  0  0  0  0  0  0
  -23.5409   -9.9135   22.0247 O   0  0  0  0  0  0  0  0  0  0  0  0
  -25.1374  -30.8790   23.2845 O   0  0  0  0  0  0  0  0  0  0  0  0
  -24.6638  -18.4182   22.9892 O   0  0  0  0  0  0  0  0  0  0  0  0
  -21.1202  -30.1949   22.5877 O   0  0  0  0  0  0  0  0  0  0  0  0
  -22.0584  -25.6350   21.6671 O   0  0  0  0  0  0  0  0  0  0  0  0
  -30.7337  -10.4667   19.1016 O   0  0  0  0  0  0  0  0  0  0  0  0
  -28.5063  -26.9815   19.9461 O   0  0  0  0  0  0  0  0  0  1  0  0
  -33.2938   -7.1252   22.6631 F   0  0  0  0  0  0  0  0  0  0  0  0
  -33.2180  -11.1192   20.1239 F   0  0  0  0  0  0  0  0  0  0  0  0
  1  2  1  0  0  0  0
  1  5  2  0  0  0  0
  2  6  2  0  0  0  0
  3  8  2  0  0  0  0
  3 17  1  0  0  0  0
  4  9  1  0  0  0  0
  4 17  2  0  0  0  0
  5 19  1  0  0  0  0
  6 21  1  0  0  0  0
  7 10  2  0  0  0  0
  7 20  1  0  0  0  0
  8 25  1  0  0  0  0
  9 25  2  0  0  0  0
 10 26  1  0  0  0  0
 11 12  2  0  0  0  0
 11 27  1  0  0  0  0
 12 28  1  0  0  0  0
 13 22  1  0  0  0  0
 13 26  2  0  0  0  0
 14 23  1  0  0  0  0
 14 31  2  0  0  0  0
 15 28  2  0  0  0  0
 15 29  1  0  0  0  0
 16 24  1  0  0  0  0
 16 68  2  0  0  0  0
 17 30  1  0  0  0  0
 18 30  1  0  0  0  0
 18 32  2  0  0  0  0
 18 33  1  0  0  0  0
 19 21  2  0  0  0  0
 19 38  1  0  0  0  0
 20 22  2  0  0  0  0
 20 39  1  0  0  0  0
 21 47  1  0  0  0  0
 22 40  1  0  0  0  0
 23 24  2  0  0  0  0
 23 64  1  0  0  0  0
 24 57  1  0  0  0  0
 25 84  1  0  0  0  0
 26 85  1  0  0  0  0
 27 29  2  0  0  0  0
 27 84  1  0  0  0  0
 28 86  1  0  0  0  0
 29 87  1  0  0  0  0
 30 69  2  0  0  0  0
 31 50  1  0  0  0  0
 31 68  1  0  0  0  0
 32 70  1  0  0  0  0
 32 73  1  0  0  0  0
 33 74  1  0  0  0  0
 33 79  2  0  0  0  0
 34 48  1  0  0  0  0
 34 75  1  0  0  0  0
 34 80  2  0  0  0  0
 35 64  1  0  0  0  0
 35 72  1  0  0  0  0
 35 81  2  0  0  0  0
 36 65  1  0  0  0  0
 36 71  1  0  0  0  0
 36 82  2  0  0  0  0
 37 66  1  0  0  0  0
 37 76  1  0  0  0  0
 37 83  2  0  0  0  0
 38 41  1  0  0  0  0
 39 48  1  0  0  0  0
 40 71  1  0  0  0  0
 41 43  1  0  0  0  0
 42 44  1  0  0  0  0
 42 45  1  0  0  0  0
 43 47  1  0  0  0  0
 44 49  1  0  0  0  0
 45 72  1  0  0  0  0
 46 49  1  0  0  0  0
 46 72  1  0  0  0  0
 47 75  1  0  0  0  0
 48 71  1  0  0  0  0
 49 70  1  0  0  0  0
 51 58  1  0  0  0  0
 52 66  1  0  0  0  0
 53 67  1  0  0  0  0
 54 67  1  0  0  0  0
 55 67  1  0  0  0  0
 56 77  1  0  0  0  0
 57 59  1  0  0  0  0
 58 64  1  0  0  0  0
 59 61  1  0  0  0  0
 60 62  1  0  0  0  0
 60 63  1  0  0  0  0
 61 78  1  0  0  0  0
 62 78  1  0  0  0  0
 63 85  1  0  0  0  0
 65 67  1  0  0  0  0
 65 76  1  0  0  0  0
 66 77  1  0  0  0  0
 69 70  1  0  0  0  0
M  CHG  2  77   1  78   1
M  ISO  4  35 100  63 101  64 100  85 101
M  END
> <Batch ID>
0109

> <Smiles>
CC[100CH:0](c1cc(C)ncc1CCCNCC[101CH2:1][101O:1]c1ccc2c(c1)CN(C(=O)C(NC(=O)C(C)NC)C(C)(C)C)C(C(=O)NC1CCCc3ccccc31)C2)[100C:0](=O)N1CCCC(n2nc(-c3ccc(Oc4ccc(F)cc4F)cc3)c(C(N)=O)c2N)C1

> <Shape>
0.252

> <Color>
0.077

> <Negative vol penalty>
0.000

$$$$

  -OEChem-04052319563D

 88 96  0     1  0  0  0  0  0999 V2000
  -25.3268  -32.1343   22.7050 C   0  0  0  0  0  0  0  0  0  0  0  0
  -24.8757  -30.8786   22.3112 C   0  0  0  0  0  0  0  0  0  0  0  0
  -23.5535   -9.6757   21.2827 C   0  0  0  0  0  0  0  0  0  0  0  0
  -24.2194  -10.6012   23.4127 C   0  0  0  0  0  0  0  0  0  0  0  0
  -26.6572  -32.4938   22.4935 C   0  0  0  0  0  0  0  0  0  0  0  0
  -25.7547  -29.9819   21.7048 C   0  0  0  0  0  0  0  0  0  0  0  0
  -27.0909  -22.9635   21.1824 C   0  0  0  0  0  0  0  0  0  0  0  0
  -22.9729   -8.5889   21.9364 C   0  0  0  0  0  0  0  0  0  0  0  0
  -23.6388   -9.5144   24.0665 C   0  0  0  0  0  0  0  0  0  0  0  0
  -27.2878  -21.9732   20.2209 C   0  0  0  0  0  0  0  0  0  0  0  0
  -20.1168   -7.9321   23.6229 C   0  0  0  0  0  0  0  0  0  0  0  0
  -18.8487   -7.5271   23.2064 C   0  0  0  0  0  0  0  0  0  0  0  0
  -29.5834  -22.6735   19.9783 C   0  0  0  0  0  0  0  0  0  0  0  0
  -19.7281   -5.3472   22.6484 C   0  0  0  0  0  0  0  0  0  0  0  0
  -24.1768  -10.6819   22.0209 C   0  0  0  0  0  0  0  0  0  0  0  0
  -24.1594  -13.0238   21.0097 C   0  0  0  0  0  0  0  0  0  0  0  0
  -27.5553  -31.5974   21.8930 C   0  0  0  0  0  0  0  0  0  0  0  0
  -28.1376  -23.8247   21.5417 C   0  0  0  0  0  0  0  0  0  0  0  0
  -27.0981  -30.3301   21.4839 C   0  0  0  0  0  0  0  0  0  0  0  0
  -29.3980  -23.6722   20.9464 C   0  0  0  0  0  0  0  0  0  0  0  0
  -23.0155   -8.5082   23.3283 C   0  0  0  0  0  0  0  0  0  0  0  0
  -28.5333  -21.8299   19.6166 C   0  0  0  0  0  0  0  0  0  0  0  0
  -21.1906   -7.0447   23.5520 C   0  0  0  0  0  0  0  0  0  0  0  0
  -18.6543   -6.2347   22.7192 C   0  0  0  0  0  0  0  0  0  0  0  0
  -20.9963   -5.7522   23.0648 C   0  0  0  0  0  0  0  0  0  0  0  0
  -24.7773  -11.8045   21.3461 C   0  0  0  0  0  0  0  0  0  0  0  0
  -25.1462  -13.7486   20.3873 C   0  0  0  0  0  0  0  0  0  0  0  0
  -22.8137  -13.4622   21.2394 C   0  0  0  0  0  0  0  0  0  0  0  0
  -28.6160  -26.9630   21.3799 C   0  0  0  0  0  0  0  0  0  0  0  0
  -31.3138  -26.2436   23.0311 C   0  0  0  0  0  0  0  0  0  0  0  0
  -33.6679  -23.9169   23.8629 C   0  0  0  0  0  0  0  0  0  0  0  0
  -30.8535  -14.6801   20.6580 C   0  0  0  0  0  0  0  0  0  0  0  0
  -28.9725  -32.0484   21.6423 C   0  0  0  0  0  0  0  0  0  0  0  0
  -27.9165  -24.8706   22.5999 C   0  0  0  0  0  0  0  0  0  0  0  0
  -30.5599  -24.5582   21.3117 C   0  0  0  0  0  0  0  0  0  0  0  0
  -29.9311  -30.9013   21.3333 C   0  0  0  0  0  0  0  0  0  0  0  0
  -33.2081  -13.5305   26.0814 C   0  0  0  0  0  0  0  0  0  0  0  0
  -31.8343  -13.4980   25.4188 C   0  0  0  0  0  0  0  0  0  0  0  0
  -33.7686  -14.9479   26.1414 C   0  0  0  0  0  0  0  0  0  0  0  0
  -29.4032  -12.6241   18.1388 C   0  0  0  0  0  0  0  0  0  0  0  0
  -29.3165  -29.9535   20.3082 C   0  0  0  0  0  0  0  0  0  0  0  0
  -31.8595  -14.1491   24.0378 C   0  0  0  0  0  0  0  0  0  0  0  0
  -33.7969  -15.6016   24.7617 C   0  0  0  0  0  0  0  0  0  0  0  0
  -28.0050  -12.3165   18.6778 C   0  0  0  0  0  0  0  0  0  0  0  0
  -30.4403  -12.6784   19.2584 C   0  0  0  0  0  0  0  0  0  0  0  0
  -28.7104  -13.2864   20.9051 C   0  0  0  0  0  0  0  0  0  0  0  0
  -28.0272  -29.3206   20.8454 C   0  0  1  0  0  0  0  0  0  0  0  0
  -28.9104  -26.0249   22.5161 C   0  0  1  0  0  0  0  0  0  0  0  0
  -32.4146  -15.5787   24.0955 C   0  0  0  0  0  0  0  0  0  0  0  0
  -27.6205  -13.2766   19.8195 C   0  0  2  0  0  0  0  0  0  0  0  0
  -35.7721  -23.6347   25.2007 C   0  0  0  0  0  0  0  0  0  0  0  0
  -31.9441  -18.9793   21.2409 C   0  0  0  0  0  0  0  0  0  0  0  0
  -32.8792  -27.7370   20.8795 C   0  0  0  0  0  0  0  0  0  0  0  0
  -34.9606  -26.6325   21.7256 C   0  0  0  0  0  0  0  0  0  0  0  0
  -33.6628  -28.1530   23.2177 C   0  0  0  0  0  0  0  0  0  0  0  0
  -27.7919  -17.2199   18.3192 C   0  0  0  0  0  0  0  0  0  0  0  0
  -28.9082  -18.7307   16.6719 C   0  0  0  0  0  0  0  0  0  0  0  0
  -30.2758  -17.3431   23.2241 C   0  0  0  0  0  0  0  0  0  0  0  0
  -32.4359  -21.8456   25.5807 C   0  0  0  0  0  0  0  0  0  0  0  0
  -32.4798  -16.1889   22.6966 C   0  0  0  0  0  0  0  0  0  0  0  0
  -30.0722  -18.2325   18.8133 C   0  0  0  0  0  0  0  0  0  0  0  0
  -27.9482  -19.6754   18.7970 C   0  0  0  0  0  0  0  0  0  1  0  0
  -32.7285  -25.8714   22.6579 C   0  0  1  0  0  0  0  0  0  0  0  0
  -34.2562  -23.5137   25.2029 C   0  0  2  0  0  0  0  0  0  0  0  0
  -31.2916  -17.6369   20.9103 C   0  0  1  0  0  0  0  0  0  0  0  0
  -33.5355  -27.0828   22.1117 C   0  0  0  0  0  0  0  0  0  0  0  0
  -28.6837  -18.4671   18.1761 C   0  0  0  0  0  0  0  0  0  0  0  0
  -31.1173  -16.6666   22.1221 C   0  0  2  0  0  0  0  0  0  0  0  0
  -26.0574  -11.7537   20.9685 N   0  0  0  0  0  0  0  0  0  0  0  0
  -26.2520  -12.9502   20.3883 N   0  0  0  0  0  0  0  0  0  0  0  0
  -30.2920  -25.5699   22.3471 N   0  0  0  0  0  0  0  0  0  0  0  0
  -30.0163  -13.6078   20.3083 N   0  0  0  0  0  0  0  0  0  0  0  0
  -25.1672  -14.9845   19.8445 N   0  0  0  0  0  0  0  0  0  0  0  0
  -21.9300  -12.5925   21.8928 N   0  0  0  0  0  0  0  0  0  0  0  0
  -28.3362  -28.2567   21.7766 N   0  0  0  0  0  0  0  0  0  0  0  0
  -33.3125  -25.2490   23.8411 N   0  0  0  0  0  0  0  0  0  0  0  0
  -30.3732  -15.5170   21.6579 N   0  0  0  0  0  0  0  0  0  0  0  0
  -33.8979  -22.1029   25.5225 N   0  3  0  0  0  0  0  0  0  0  0  0
  -29.9842  -17.9342   20.2636 N   0  3  0  0  0  0  0  0  0  0  0  0
  -22.4025  -14.5854   20.8614 O   0  0  0  0  0  0  0  0  0  0  0  0
  -28.6423  -26.5444   20.2284 O   0  0  0  0  0  0  0  0  0  0  0  0
  -31.1225  -27.0953   23.9027 O   0  0  0  0  0  0  0  0  0  0  0  0
  -33.5401  -23.1298   22.9276 O   0  0  0  0  0  0  0  0  0  0  0  0
  -31.9455  -14.8802   20.1153 O   0  0  0  0  0  0  0  0  0  0  0  0
  -22.4489   -7.4480   23.9665 O   0  0  0  0  0  0  0  0  0  0  0  0
  -28.7280  -20.8646   18.6775 O   0  0  0  0  0  0  0  0  0  1  0  0
  -17.4362   -5.8454   22.3208 F   0  0  0  0  0  0  0  0  0  0  0  0
  -22.0238   -4.8948   22.9954 F   0  0  0  0  0  0  0  0  0  0  0  0
  1  2  1  0  0  0  0
  1  5  2  0  0  0  0
  2  6  2  0  0  0  0
  3  8  2  0  0  0  0
  3 15  1  0  0  0  0
  4  9  1  0  0  0  0
  4 15  2  0  0  0  0
  5 17  1  0  0  0  0
  6 19  1  0  0  0  0
  7 10  2  0  0  0  0
  7 18  1  0  0  0  0
  8 21  1  0  0  0  0
  9 21  2  0  0  0  0
 10 22  1  0  0  0  0
 11 12  2  0  0  0  0
 11 23  1  0  0  0  0
 12 24  1  0  0  0  0
 13 20  1  0  0  0  0
 13 22  2  0  0  0  0
 14 24  2  0  0  0  0
 14 25  1  0  0  0  0
 15 26  1  0  0  0  0
 16 26  1  0  0  0  0
 16 27  2  0  0  0  0
 16 28  1  0  0  0  0
 17 19  2  0  0  0  0
 17 33  1  0  0  0  0
 18 20  2  0  0  0  0
 18 34  1  0  0  0  0
 19 47  1  0  0  0  0
 20 35  1  0  0  0  0
 21 85  1  0  0  0  0
 22 86  1  0  0  0  0
 23 25  2  0  0  0  0
 23 85  1  0  0  0  0
 24 87  1  0  0  0  0
 25 88  1  0  0  0  0
 26 69  2  0  0  0  0
 27 70  1  0  0  0  0
 27 73  1  0  0  0  0
 28 74  1  0  0  0  0
 28 80  2  0  0  0  0
 29 48  1  0  0  0  0
 29 75  1  0  0  0  0
 29 81  2  0  0  0  0
 30 63  1  0  0  0  0
 30 71  1  0  0  0  0
 30 82  2  0  0  0  0
 31 64  1  0  0  0  0
 31 76  1  0  0  0  0
 31 83  2  0  0  0  0
 32 72  1  0  0  0  0
 32 77  1  0  0  0  0
 32 84  2  0  0  0  0
 33 36  1  0  0  0  0
 34 48  1  0  0  0  0
 35 71  1  0  0  0  0
 36 41  1  0  0  0  0
 37 38  1  0  0  0  0
 37 39  1  0  0  0  0
 38 42  1  0  0  0  0
 39 43  1  0  0  0  0
 40 44  1  0  0  0  0
 40 45  1  0  0  0  0
 41 47  1  0  0  0  0
 42 49  1  0  0  0  0
 43 49  1  0  0  0  0
 44 50  1  0  0  0  0
 45 72  1  0  0  0  0
 46 50  1  0  0  0  0
 46 72  1  0  0  0  0
 47 75  1  0  0  0  0
 48 71  1  0  0  0  0
 49 60  1  0  0  0  0
 50 70  1  0  0  0  0
 51 64  1  0  0  0  0
 52 65  1  0  0  0  0
 53 66  1  0  0  0  0
 54 66  1  0  0  0  0
 55 66  1  0  0  0  0
 56 67  1  0  0  0  0
 57 67  1  0  0  0  0
 58 68  1  0  0  0  0
 59 78  1  0  0  0  0
 60 68  1  0  0  0  0
 61 67  1  0  0  0  0
 61 79  1  0  0  0  0
 62 67  1  0  0  0  0
 62 86  1  0  0  0  0
 63 66  1  0  0  0  0
 63 76  1  0  0  0  0
 64 78  1  0  0  0  0
 65 68  1  0  0  0  0
 65 79  1  0  0  0  0
 68 77  1  0  0  0  0
 69 70  1  0  0  0  0
M  CHG  2  78   1  79   1
M  ISO  4  32 100  62 101  77 100  86 101
M  END
> <Batch ID>
0109

> <Smiles>
CNC(C)C(=O)NC(C(=O)N1Cc2cc([101O:1][101CH2:1]C(C)(C)CNC(C)C(C)(CC3CCCCC3)[100NH:0][100C:0](=O)N3CCCC(n4nc(-c5ccc(Oc6ccc(F)cc6F)cc5)c(C(N)=O)c4N)C3)ccc2CC1C(=O)NC1CCCc2ccccc21)C(C)(C)C

> <Shape>
0.281

> <Color>
0.163

> <Negative vol penalty>
0.000

$$$$

  -OEChem-04052319563D

 90 98  0     1  0  0  0  0  0999 V2000
  -25.9663  -16.4352   13.5503 C   0  0  0  0  0  0  0  0  0  0  0  0
  -26.4409  -15.4849   14.4473 C   0  0  0  0  0  0  0  0  0  0  0  0
  -26.5722  -27.8191   21.1416 C   0  0  0  0  0  0  0  0  0  0  0  0
  -25.9371  -27.5818   18.8227 C   0  0  0  0  0  0  0  0  0  0  0  0
  -25.1067  -17.4382   13.9934 C   0  0  0  0  0  0  0  0  0  0  0  0
  -26.0466  -15.5300   15.7849 C   0  0  0  0  0  0  0  0  0  0  0  0
  -27.4254  -11.7753   18.6493 C   0  0  0  0  0  0  0  0  0  0  0  0
  -25.5260  -28.7209   21.3359 C   0  0  0  0  0  0  0  0  0  0  0  0
  -24.8908  -28.4836   19.0170 C   0  0  0  0  0  0  0  0  0  0  0  0
  -28.7430  -11.5889   19.0652 C   0  0  0  0  0  0  0  0  0  0  0  0
  -22.1792  -28.5912   21.7991 C   0  0  0  0  0  0  0  0  0  0  0  0
  -21.3912  -28.4341   22.9393 C   0  0  0  0  0  0  0  0  0  0  0  0
  -28.1665  -12.4335   21.2500 C   0  0  0  0  0  0  0  0  0  0  0  0
  -30.2525  -17.4798   21.3532 C   0  0  0  0  0  0  0  0  0  0  0  0
  -22.0107  -30.6511   23.6729 C   0  0  0  0  0  0  0  0  0  0  0  0
  -26.7778  -27.2495   19.8850 C   0  0  0  0  0  0  0  0  0  0  0  0
  -29.2336  -26.5593   19.8662 C   0  0  0  0  0  0  0  0  0  0  0  0
  -24.7121  -17.5023   15.3399 C   0  0  0  0  0  0  0  0  0  0  0  0
  -26.4693  -12.3034   19.5289 C   0  0  0  0  0  0  0  0  0  0  0  0
  -25.1607  -16.5203   16.2465 C   0  0  0  0  0  0  0  0  0  0  0  0
  -26.8369  -12.6233   20.8436 C   0  0  0  0  0  0  0  0  0  0  0  0
  -31.4356  -16.7005   21.3427 C   0  0  0  0  0  0  0  0  0  0  0  0
  -24.6853  -29.0532   20.2737 C   0  0  0  0  0  0  0  0  0  0  0  0
  -29.1144  -11.9207   20.3648 C   0  0  0  0  0  0  0  0  0  0  0  0
  -22.8830  -29.7782   21.5958 C   0  0  0  0  0  0  0  0  0  0  0  0
  -21.3070  -29.4640   23.8762 C   0  0  0  0  0  0  0  0  0  0  0  0
  -22.7987  -30.8082   22.5327 C   0  0  0  0  0  0  0  0  0  0  0  0
  -27.8587  -26.3183   19.6835 C   0  0  0  0  0  0  0  0  0  0  0  0
  -29.3887  -16.9285   20.4329 C   0  0  0  0  0  0  0  0  0  0  0  0
  -29.8365  -25.3673   19.5469 C   0  0  0  0  0  0  0  0  0  0  0  0
  -31.2588  -15.6968   20.4161 C   0  0  0  0  0  0  0  0  0  0  0  0
  -29.9056  -27.7539   20.2871 C   0  0  0  0  0  0  0  0  0  0  0  0
  -24.6574  -14.9147   19.5679 C   0  0  0  0  0  0  0  0  0  0  0  0
  -23.3690  -13.5090   22.1920 C   0  0  0  0  0  0  0  0  0  0  0  0
  -23.7359  -11.3086   24.7747 C   0  0  0  0  0  0  0  0  0  0  0  0
  -27.8778  -19.8003   19.7115 C   0  0  0  0  0  0  0  0  0  0  0  0
  -23.7737  -18.6045   15.7638 C   0  0  0  0  0  0  0  0  0  0  0  0
  -25.0461  -12.4734   19.0730 C   0  0  0  0  0  0  0  0  0  0  0  0
  -25.8438  -13.1744   21.8329 C   0  0  0  0  0  0  0  0  0  0  0  0
  -23.7671  -18.8325   17.2719 C   0  0  0  0  0  0  0  0  0  0  0  0
  -29.2418  -21.4841   16.8130 C   0  0  0  0  0  0  0  0  0  0  0  0
  -23.5908  -17.5068   17.9972 C   0  0  0  0  0  0  0  0  0  0  0  0
  -29.1687  -22.9484   17.2494 C   0  0  0  0  0  0  0  0  0  0  0  0
  -28.0327  -20.6978   17.3108 C   0  0  0  0  0  0  0  0  0  0  0  0
  -27.7455  -22.2264   19.2225 C   0  0  0  0  0  0  0  0  0  0  0  0
  -24.7697  -16.5676   17.7125 C   0  0  1  0  0  0  0  0  0  0  0  0
  -24.2736  -13.4996   19.8961 C   0  0  1  0  0  0  0  0  0  0  0  0
  -28.9510  -23.0699   18.7693 C   0  0  2  0  0  0  0  0  0  0  0  0
  -23.0893   -9.9335   26.7718 C   0  0  0  0  0  0  0  0  0  0  0  0
  -29.6256  -13.4207   16.2195 C   0  0  0  0  0  0  0  0  0  0  0  0
  -28.9090  -15.4994   15.0253 C   0  0  0  0  0  0  0  0  0  0  0  0
  -32.4653  -18.1695   23.1112 C   0  0  0  0  0  0  0  0  0  0  0  0
  -33.9076  -17.1842   21.2987 C   0  0  0  0  0  0  0  0  0  0  0  0
  -33.0373  -15.7500   23.1336 C   0  0  0  0  0  0  0  0  0  0  0  0
  -23.9394  -16.0969   23.7043 C   0  0  0  0  0  0  0  0  0  0  0  0
  -23.6098  -14.8379   25.8431 C   0  0  0  0  0  0  0  0  0  0  0  0
  -21.7266  -15.0525   24.2214 C   0  0  0  0  0  0  0  0  0  0  0  0
  -22.8024   -9.0712   23.0772 C   0  0  0  0  0  0  0  0  0  0  0  0
  -28.0250  -17.3460   20.0459 C   0  0  0  0  0  0  0  0  0  0  0  0
  -29.4798  -15.6392   17.4677 C   0  0  0  0  0  0  0  0  0  0  0  0
  -32.6971  -12.3840   20.4123 C   0  0  0  0  0  0  0  0  0  0  0  0
  -29.4395  -14.9882   18.8518 C   0  0  0  0  0  0  0  0  0  0  0  0
  -31.4188  -11.8554   19.7807 C   0  0  0  0  0  0  0  0  0  1  0  0
  -32.5017  -13.7624   21.0239 C   0  0  0  0  0  0  0  0  0  0  0  0
  -23.6684  -13.5296   23.6715 C   0  0  1  0  0  0  0  0  0  0  0  0
  -22.8280  -10.2110   25.2996 C   0  0  2  0  0  0  0  0  0  0  0  0
  -28.8848  -14.7512   16.3603 C   0  0  0  0  0  0  0  0  0  0  0  0
  -32.6344  -16.9270   22.1733 C   0  0  0  0  0  0  0  0  0  0  0  0
  -23.2554  -14.8707   24.3411 C   0  0  0  0  0  0  0  0  0  0  0  0
  -27.6031  -25.0712   19.2793 N   0  0  0  0  0  0  0  0  0  0  0  0
  -30.0111  -15.8454   19.8691 N   0  0  0  0  0  0  0  0  0  0  0  0
  -28.8256  -24.5180   19.2053 N   0  0  0  0  0  0  0  0  0  0  0  0
  -24.4659  -13.3284   21.3376 N   0  0  0  0  0  0  0  0  0  0  0  0
  -27.8928  -20.8400   18.7670 N   0  0  0  0  0  0  0  0  0  0  0  0
  -31.1276  -24.9733   19.5277 N   0  0  0  0  0  0  0  0  0  0  0  0
  -30.3114  -28.6721   19.3091 N   0  0  0  0  0  0  0  0  0  0  0  0
  -24.4672  -15.2563   18.2425 N   0  0  0  0  0  0  0  0  0  0  0  0
  -23.0153  -12.3537   24.2365 N   0  0  0  0  0  0  0  0  0  0  0  0
  -28.0159  -18.5168   19.1973 N   0  0  0  0  0  0  0  0  0  0  0  0
  -23.0468   -8.9491   24.5375 N   0  3  0  0  0  0  0  0  0  0  0  0
  -30.1539  -27.9920   21.4934 O   0  0  0  0  0  0  0  0  0  0  0  0
  -25.0925  -15.6433   20.4519 O   0  0  0  0  0  0  0  0  0  0  0  0
  -22.2040  -13.6408   21.8089 O   0  0  0  0  0  0  0  0  0  0  0  0
  -24.9617  -11.2468   24.8393 O   0  0  0  0  0  0  0  0  0  0  0  0
  -27.7557  -20.0012   20.9247 O   0  0  0  0  0  0  0  0  0  0  0  0
  -23.6642  -29.9329   20.4630 O   0  0  0  0  0  0  0  0  0  0  0  0
  -30.3999  -11.7403   20.7732 O   0  0  0  0  0  0  0  0  0  1  0  0
  -32.0902  -14.6813   20.0208 O   0  0  0  0  0  0  0  0  0  0  0  0
  -20.5491  -29.3136   24.9703 F   0  0  0  0  0  0  0  0  0  0  0  0
  -23.4716  -31.9513   22.3423 F   0  0  0  0  0  0  0  0  0  0  0  0
  1  2  1  0  0  0  0
  1  5  2  0  0  0  0
  2  6  2  0  0  0  0
  3  8  2  0  0  0  0
  3 16  1  0  0  0  0
  4  9  1  0  0  0  0
  4 16  2  0  0  0  0
  5 18  1  0  0  0  0
  6 20  1  0  0  0  0
  7 10  2  0  0  0  0
  7 19  1  0  0  0  0
  8 23  1  0  0  0  0
  9 23  2  0  0  0  0
 10 24  1  0  0  0  0
 11 12  2  0  0  0  0
 11 25  1  0  0  0  0
 12 26  1  0  0  0  0
 13 21  1  0  0  0  0
 13 24  2  0  0  0  0
 14 22  1  0  0  0  0
 14 29  2  0  0  0  0
 15 26  2  0  0  0  0
 15 27  1  0  0  0  0
 16 28  1  0  0  0  0
 17 28  1  0  0  0  0
 17 30  2  0  0  0  0
 17 32  1  0  0  0  0
 18 20  2  0  0  0  0
 18 37  1  0  0  0  0
 19 21  2  0  0  0  0
 19 38  1  0  0  0  0
 20 46  1  0  0  0  0
 21 39  1  0  0  0  0
 22 31  2  0  0  0  0
 22 68  1  0  0  0  0
 23 86  1  0  0  0  0
 24 87  1  0  0  0  0
 25 27  2  0  0  0  0
 25 86  1  0  0  0  0
 26 89  1  0  0  0  0
 27 90  1  0  0  0  0
 28 70  2  0  0  0  0
 29 59  1  0  0  0  0
 29 71  1  0  0  0  0
 30 72  1  0  0  0  0
 30 75  1  0  0  0  0
 31 71  1  0  0  0  0
 31 88  1  0  0  0  0
 32 76  1  0  0  0  0
 32 81  2  0  0  0  0
 33 47  1  0  0  0  0
 33 77  1  0  0  0  0
 33 82  2  0  0  0  0
 34 65  1  0  0  0  0
 34 73  1  0  0  0  0
 34 83  2  0  0  0  0
 35 66  1  0  0  0  0
 35 78  1  0  0  0  0
 35 84  2  0  0  0  0
 36 74  1  0  0  0  0
 36 79  1  0  0  0  0
 36 85  2  0  0  0  0
 37 40  1  0  0  0  0
 38 47  1  0  0  0  0
 39 73  1  0  0  0  0
 40 42  1  0  0  0  0
 41 43  1  0  0  0  0
 41 44  1  0  0  0  0
 42 46  1  0  0  0  0
 43 48  1  0  0  0  0
 44 74  1  0  0  0  0
 45 48  1  0  0  0  0
 45 74  1  0  0  0  0
 46 77  1  0  0  0  0
 47 73  1  0  0  0  0
 48 72  1  0  0  0  0
 49 66  1  0  0  0  0
 50 67  1  0  0  0  0
 51 67  1  0  0  0  0
 52 68  1  0  0  0  0
 53 68  1  0  0  0  0
 54 68  1  0  0  0  0
 55 69  1  0  0  0  0
 56 69  1  0  0  0  0
 57 69  1  0  0  0  0
 58 80  1  0  0  0  0
 59 79  1  0  0  0  0
 60 62  1  0  0  0  0
 60 67  1  0  0  0  0
 61 63  1  0  0  0  0
 61 64  1  0  0  0  0
 62 71  1  0  0  0  0
 63 87  1  0  0  0  0
 64 88  1  0  0  0  0
 65 69  1  0  0  0  0
 65 78  1  0  0  0  0
 66 80  1  0  0  0  0
 70 72  1  0  0  0  0
M  CHG  1  80   1
M  ISO  4  36 100  63 101  79 100  87 101
M  END
> <Batch ID>
0109

> <Smiles>
CNC(C)C(=O)NC(C(=O)N1Cc2cc([101O:1][101CH2:1]CCOc3c(C(C)(C)C)cc(C[100NH:0][100C:0](=O)N4CCCC(n5nc(-c6ccc(Oc7ccc(F)cc7F)cc6)c(C(N)=O)c5N)C4)n3CCC(C)C)ccc2CC1C(=O)NC1CCCc2ccccc21)C(C)(C)C

> <Shape>
0.269

> <Color>
0.084

> <Negative vol penalty>
0.000

$$$$

  -OEChem-04052319563D

 86 94  0     1  0  0  0  0  0999 V2000
  -16.6228  -26.3535   20.7659 C   0  0  0  0  0  0  0  0  0  0  0  0
  -17.5400  -25.3978   20.3406 C   0  0  0  0  0  0  0  0  0  0  0  0
  -28.2488  -20.7888   21.4889 C   0  0  0  0  0  0  0  0  0  0  0  0
  -29.5958  -19.9092   19.6864 C   0  0  0  0  0  0  0  0  0  0  0  0
  -17.0263  -27.3684   21.6324 C   0  0  0  0  0  0  0  0  0  0  0  0
  -18.8618  -25.4572   20.7809 C   0  0  0  0  0  0  0  0  0  0  0  0
  -20.6431  -20.9330   22.1964 C   0  0  0  0  0  0  0  0  0  0  0  0
  -20.1343  -13.4006   21.2237 C   0  0  0  0  0  0  0  0  0  0  0  0
  -28.1131  -21.9937   20.7995 C   0  0  0  0  0  0  0  0  0  0  0  0
  -29.4601  -21.1141   18.9970 C   0  0  0  0  0  0  0  0  0  0  0  0
  -21.0274  -20.0549   21.1840 C   0  0  0  0  0  0  0  0  0  0  0  0
  -29.9676  -24.7627   20.2355 C   0  0  0  0  0  0  0  0  0  0  0  0
  -30.1388  -25.9441   20.9570 C   0  0  0  0  0  0  0  0  0  0  0  0
  -20.1939  -14.4064   20.2655 C   0  0  0  0  0  0  0  0  0  0  0  0
  -23.3345  -20.6626   21.5410 C   0  0  0  0  0  0  0  0  0  0  0  0
  -27.8848  -26.6115   20.3990 C   0  0  0  0  0  0  0  0  0  0  0  0
  -28.9902  -19.7465   20.9324 C   0  0  0  0  0  0  0  0  0  0  0  0
  -29.7029  -18.3100   22.9163 C   0  0  0  0  0  0  0  0  0  0  0  0
  -18.3514  -27.4347   22.0912 C   0  0  0  0  0  0  0  0  0  0  0  0
  -21.6022  -21.6919   22.8825 C   0  0  0  0  0  0  0  0  0  0  0  0
  -19.2838  -26.4748   21.6534 C   0  0  0  0  0  0  0  0  0  0  0  0
  -22.9600  -21.5477   22.5634 C   0  0  0  0  0  0  0  0  0  0  0  0
  -21.3091  -12.9105   21.7831 C   0  0  0  0  0  0  0  0  0  0  0  0
  -28.7188  -22.1564   19.5535 C   0  0  0  0  0  0  0  0  0  0  0  0
  -22.3730  -19.9217   20.8542 C   0  0  0  0  0  0  0  0  0  0  0  0
  -28.7550  -24.5057   19.5957 C   0  0  0  0  0  0  0  0  0  0  0  0
  -29.0974  -26.8685   21.0388 C   0  0  0  0  0  0  0  0  0  0  0  0
  -27.7137  -25.4301   19.6775 C   0  0  0  0  0  0  0  0  0  0  0  0
  -29.1312  -18.5017   21.6443 C   0  0  0  0  0  0  0  0  0  0  0  0
  -21.4431  -14.8844   19.9038 C   0  0  0  0  0  0  0  0  0  0  0  0
  -22.5084  -13.4553   21.3533 C   0  0  0  0  0  0  0  0  0  0  0  0
  -29.5964  -16.9591   23.1406 C   0  0  0  0  0  0  0  0  0  0  0  0
  -30.2788  -19.2674   23.8149 C   0  0  0  0  0  0  0  0  0  0  0  0
  -22.1760  -24.7991   23.2282 C   0  0  0  0  0  0  0  0  0  0  0  0
  -24.4190  -23.7543   25.3257 C   0  0  0  0  0  0  0  0  0  0  0  0
  -26.4738  -21.2300   26.3516 C   0  0  0  0  0  0  0  0  0  0  0  0
  -25.8516  -12.7773   20.9732 C   0  0  0  0  0  0  0  0  0  0  0  0
  -18.7522  -28.5778   22.9898 C   0  0  0  0  0  0  0  0  0  0  0  0
  -21.1739  -22.6149   23.9902 C   0  0  0  0  0  0  0  0  0  0  0  0
  -24.0306  -22.3245   23.2836 C   0  0  0  0  0  0  0  0  0  0  0  0
  -20.0811  -28.3522   23.7063 C   0  0  0  0  0  0  0  0  0  0  0  0
  -29.4246  -12.7764   20.8444 C   0  0  0  0  0  0  0  0  0  0  0  0
  -21.1344  -27.8402   22.7290 C   0  0  0  0  0  0  0  0  0  0  0  0
  -29.8078  -14.2283   21.1242 C   0  0  0  0  0  0  0  0  0  0  0  0
  -28.1401  -12.6900   20.0270 C   0  0  0  0  0  0  0  0  0  0  0  0
  -27.3561  -14.8554   20.9279 C   0  0  0  0  0  0  0  0  0  0  0  0
  -20.7205  -26.4912   22.1286 C   0  0  1  0  0  0  0  0  0  0  0  0
  -22.1874  -23.7195   24.2731 C   0  0  1  0  0  0  0  0  0  0  0  0
  -28.6386  -14.9911   21.7703 C   0  0  2  0  0  0  0  0  0  0  0  0
  -21.5759   -9.3662   23.2904 C   0  0  0  0  0  0  0  0  0  0  0  0
  -28.2185  -20.6858   28.0712 C   0  0  0  0  0  0  0  0  0  0  0  0
  -23.3702  -15.5357   17.4726 C   0  0  0  0  0  0  0  0  0  0  0  0
  -26.4596  -25.4113   23.7763 C   0  0  0  0  0  0  0  0  0  0  0  0
  -28.2733  -24.1110   24.9110 C   0  0  0  0  0  0  0  0  0  0  0  0
  -26.7096  -25.5075   26.2628 C   0  0  0  0  0  0  0  0  0  0  0  0
  -24.8419  -19.0346   27.4812 C   0  0  0  0  0  0  0  0  0  0  0  0
  -21.2409  -11.8326   22.8108 C   0  0  0  0  0  0  0  0  0  0  0  0
  -21.6127  -10.4583   22.2331 C   0  0  0  0  0  0  0  0  0  0  0  0
  -22.4206  -17.8417   17.8274 C   0  0  0  0  0  0  0  0  0  0  0  0
  -21.8204  -18.8456   18.8066 C   0  0  0  0  0  0  0  0  0  1  0  0
  -25.8725  -23.3582   25.2275 C   0  0  1  0  0  0  0  0  0  0  0  0
  -26.7381  -20.6418   27.7258 C   0  0  2  0  0  0  0  0  0  0  0  0
  -22.7152  -16.4837   18.4723 C   0  0  1  0  0  0  0  0  0  0  0  0
  -26.8086  -24.5836   25.0293 C   0  0  0  0  0  0  0  0  0  0  0  0
  -28.6940  -17.3637   21.0986 N   0  0  0  0  0  0  0  0  0  0  0  0
  -22.6060  -14.4332   20.4249 N   0  0  0  0  0  0  0  0  0  0  0  0
  -28.9912  -16.4439   22.0323 N   0  0  0  0  0  0  0  0  0  0  0  0
  -23.5610  -23.2187   24.3548 N   0  0  0  0  0  0  0  0  0  0  0  0
  -27.0541  -13.4386   20.6657 N   0  0  0  0  0  0  0  0  0  0  0  0
  -29.9623  -16.1737   24.1758 N   0  0  0  0  0  0  0  0  0  0  0  0
  -31.6497  -19.5400   23.7120 N   0  0  0  0  0  0  0  0  0  0  0  0
  -21.4862  -15.8845   18.9491 N   0  0  0  0  0  0  0  0  0  0  0  0
  -23.6943  -12.9642   21.9127 N   0  0  0  0  0  0  0  0  0  0  0  0
  -20.9524  -25.4232   23.0773 N   0  0  0  0  0  0  0  0  0  0  0  0
  -26.1627  -22.5715   26.4213 N   0  0  0  0  0  0  0  0  0  0  0  0
  -24.8821  -13.5574   21.5831 N   0  0  0  0  0  0  0  0  0  0  0  0
  -26.2853  -19.2230   27.7779 N   0  3  0  0  0  0  0  0  0  0  0  0
  -29.6010  -19.8513   24.6943 O   0  0  0  0  0  0  0  0  0  0  0  0
  -23.2019  -25.0486   22.6060 O   0  0  0  0  0  0  0  0  0  0  0  0
  -24.0571  -24.5055   26.2348 O   0  0  0  0  0  0  0  0  0  0  0  0
  -26.5406  -20.5666   25.3191 O   0  0  0  0  0  0  0  0  0  0  0  0
  -25.6672  -11.5802   20.7265 O   0  0  0  0  0  0  0  0  0  0  0  0
  -28.5864  -23.3320   18.8804 O   0  0  0  0  0  0  0  0  0  0  0  0
  -22.7507  -19.0658   19.8660 O   0  0  0  0  0  0  0  0  0  1  0  0
  -29.2615  -28.0023   21.7330 F   0  0  0  0  0  0  0  0  0  0  0  0
  -26.5461  -25.1882   19.0659 F   0  0  0  0  0  0  0  0  0  0  0  0
  1  2  1  0  0  0  0
  1  5  2  0  0  0  0
  2  6  2  0  0  0  0
  3  9  2  0  0  0  0
  3 17  1  0  0  0  0
  4 10  1  0  0  0  0
  4 17  2  0  0  0  0
  5 19  1  0  0  0  0
  6 21  1  0  0  0  0
  7 11  2  0  0  0  0
  7 20  1  0  0  0  0
  8 14  2  0  0  0  0
  8 23  1  0  0  0  0
  9 24  1  0  0  0  0
 10 24  2  0  0  0  0
 11 25  1  0  0  0  0
 12 13  2  0  0  0  0
 12 26  1  0  0  0  0
 13 27  1  0  0  0  0
 14 30  1  0  0  0  0
 15 22  1  0  0  0  0
 15 25  2  0  0  0  0
 16 27  2  0  0  0  0
 16 28  1  0  0  0  0
 17 29  1  0  0  0  0
 18 29  1  0  0  0  0
 18 32  2  0  0  0  0
 18 33  1  0  0  0  0
 19 21  2  0  0  0  0
 19 38  1  0  0  0  0
 20 22  2  0  0  0  0
 20 39  1  0  0  0  0
 21 47  1  0  0  0  0
 22 40  1  0  0  0  0
 23 31  2  0  0  0  0
 23 57  1  0  0  0  0
 24 83  1  0  0  0  0
 25 84  1  0  0  0  0
 26 28  2  0  0  0  0
 26 83  1  0  0  0  0
 27 85  1  0  0  0  0
 28 86  1  0  0  0  0
 29 65  2  0  0  0  0
 30 66  2  0  0  0  0
 30 72  1  0  0  0  0
 31 66  1  0  0  0  0
 31 73  1  0  0  0  0
 32 67  1  0  0  0  0
 32 70  1  0  0  0  0
 33 71  1  0  0  0  0
 33 78  2  0  0  0  0
 34 48  1  0  0  0  0
 34 74  1  0  0  0  0
 34 79  2  0  0  0  0
 35 61  1  0  0  0  0
 35 68  1  0  0  0  0
 35 80  2  0  0  0  0
 36 62  1  0  0  0  0
 36 75  1  0  0  0  0
 36 81  2  0  0  0  0
 37 69  1  0  0  0  0
 37 76  1  0  0  0  0
 37 82  2  0  0  0  0
 38 41  1  0  0  0  0
 39 48  1  0  0  0  0
 40 68  1  0  0  0  0
 41 43  1  0  0  0  0
 42 44  1  0  0  0  0
 42 45  1  0  0  0  0
 43 47  1  0  0  0  0
 44 49  1  0  0  0  0
 45 69  1  0  0  0  0
 46 49  1  0  0  0  0
 46 69  1  0  0  0  0
 47 74  1  0  0  0  0
 48 68  1  0  0  0  0
 49 67  1  0  0  0  0
 50 58  1  0  0  0  0
 51 62  1  0  0  0  0
 52 63  1  0  0  0  0
 53 64  1  0  0  0  0
 54 64  1  0  0  0  0
 55 64  1  0  0  0  0
 56 77  1  0  0  0  0
 57 58  1  0  0  0  0
 59 60  1  0  0  0  0
 59 63  1  0  0  0  0
 60 84  1  0  0  0  0
 61 64  1  0  0  0  0
 61 75  1  0  0  0  0
 62 77  1  0  0  0  0
 63 72  1  0  0  0  0
 65 67  1  0  0  0  0
 73 76  1  0  0  0  0
M  CHG  1  77   1
M  ISO  4  37 100  60 101  76 100  84 101
M  END
> <Batch ID>
0109

> <Smiles>
CCCc1ccc(NC(C)C[101CH2:1][101O:1]c2ccc3c(c2)CN(C(=O)C(NC(=O)C(C)NC)C(C)(C)C)C(C(=O)NC2CCCc4ccccc42)C3)nc1N[100NH:0][100C:0](=O)N1CCCC(n2nc(-c3ccc(Oc4ccc(F)cc4F)cc3)c(C(N)=O)c2N)C1

> <Shape>
0.208

> <Color>
0.065

> <Negative vol penalty>
0.000

$$$$

  -OEChem-04052319563D

 84 92  0     1  0  0  0  0  0999 V2000
  -15.4509  -28.2098   23.4249 C   0  0  0  0  0  0  0  0  0  0  0  0
  -15.6397  -26.8344   23.3354 C   0  0  0  0  0  0  0  0  0  0  0  0
  -31.1862  -21.9641   20.9171 C   0  0  0  0  0  0  0  0  0  0  0  0
  -28.8368  -22.3354   20.4932 C   0  0  0  0  0  0  0  0  0  0  0  0
  -16.5306  -29.0736   23.2460 C   0  0  0  0  0  0  0  0  0  0  0  0
  -16.9083  -26.3220   23.0658 C   0  0  0  0  0  0  0  0  0  0  0  0
  -19.3113  -21.1179   25.2219 C   0  0  0  0  0  0  0  0  0  0  0  0
  -31.4811  -23.2174   20.3807 C   0  0  0  0  0  0  0  0  0  0  0  0
  -29.1317  -23.5888   19.9568 C   0  0  0  0  0  0  0  0  0  0  0  0
  -19.4346  -19.8429   24.6714 C   0  0  0  0  0  0  0  0  0  0  0  0
  -29.8705  -26.6785   21.1094 C   0  0  0  0  0  0  0  0  0  0  0  0
  -29.0719  -27.7532   21.5002 C   0  0  0  0  0  0  0  0  0  0  0  0
  -21.6788  -20.3724   23.9627 C   0  0  0  0  0  0  0  0  0  0  0  0
  -28.4291  -28.1122   19.1990 C   0  0  0  0  0  0  0  0  0  0  0  0
  -24.0412  -13.0760   20.1403 C   0  0  0  0  0  0  0  0  0  0  0  0
  -22.2747  -13.9765   21.1810 C   0  0  0  0  0  0  0  0  0  0  0  0
  -29.8640  -21.5231   20.9734 C   0  0  0  0  0  0  0  0  0  0  0  0
  -29.2682  -19.9252   22.8706 C   0  0  0  0  0  0  0  0  0  0  0  0
  -17.8149  -28.5712   22.9837 C   0  0  0  0  0  0  0  0  0  0  0  0
  -20.3688  -22.0350   25.1372 C   0  0  0  0  0  0  0  0  0  0  0  0
  -18.0059  -27.1800   22.8819 C   0  0  0  0  0  0  0  0  0  0  0  0
  -21.5674  -21.6575   24.5151 C   0  0  0  0  0  0  0  0  0  0  0  0
  -24.3932  -14.3531   20.5177 C   0  0  0  0  0  0  0  0  0  0  0  0
  -30.4539  -24.0298   19.9005 C   0  0  0  0  0  0  0  0  0  0  0  0
  -20.6174  -19.4710   24.0392 C   0  0  0  0  0  0  0  0  0  0  0  0
  -29.9486  -26.3206   19.7635 C   0  0  0  0  0  0  0  0  0  0  0  0
  -23.2756  -14.9229   21.1760 C   0  0  0  0  0  0  0  0  0  0  0  0
  -28.3511  -28.4700   20.5450 C   0  0  0  0  0  0  0  0  0  0  0  0
  -29.2278  -27.0375   18.8083 C   0  0  0  0  0  0  0  0  0  0  0  0
  -29.5588  -20.2282   21.5269 C   0  0  0  0  0  0  0  0  0  0  0  0
  -29.0517  -18.5689   22.8776 C   0  0  0  0  0  0  0  0  0  0  0  0
  -29.2001  -20.7921   24.0105 C   0  0  0  0  0  0  0  0  0  0  0  0
  -20.7584  -24.8919   23.7993 C   0  0  0  0  0  0  0  0  0  0  0  0
  -23.6214  -24.7818   25.3204 C   0  0  0  0  0  0  0  0  0  0  0  0
  -26.0975  -22.8818   26.7008 C   0  0  0  0  0  0  0  0  0  0  0  0
  -26.7490  -14.3875   19.6259 C   0  0  0  0  0  0  0  0  0  0  0  0
  -18.9420  -29.5459   22.7508 C   0  0  0  0  0  0  0  0  0  0  0  0
  -20.2297  -23.3973   25.7595 C   0  0  0  0  0  0  0  0  0  0  0  0
  -22.7395  -22.5980   24.4154 C   0  0  0  0  0  0  0  0  0  0  0  0
  -20.3264  -28.9087   22.8398 C   0  0  0  0  0  0  0  0  0  0  0  0
  -30.2731  -14.8294   19.8762 C   0  0  0  0  0  0  0  0  0  0  0  0
  -20.3660  -27.6053   22.0484 C   0  0  0  0  0  0  0  0  0  0  0  0
  -30.4215  -16.2368   20.4587 C   0  0  0  0  0  0  0  0  0  0  0  0
  -29.0999  -14.7397   18.9019 C   0  0  0  0  0  0  0  0  0  0  0  0
  -27.9635  -16.6212   20.0144 C   0  0  0  0  0  0  0  0  0  0  0  0
  -19.3717  -26.5850   22.6156 C   0  0  1  0  0  0  0  0  0  0  0  0
  -21.1844  -24.4270   25.1631 C   0  0  1  0  0  0  0  0  0  0  0  0
  -29.0923  -16.7446   21.0510 C   0  0  2  0  0  0  0  0  0  0  0  0
  -28.3292  -23.0739   27.8321 C   0  0  0  0  0  0  0  0  0  0  0  0
  -20.1467   -9.4069   21.3432 C   0  0  0  0  0  0  0  0  0  0  0  0
  -22.1760   -8.1746   22.1333 C   0  0  0  0  0  0  0  0  0  0  0  0
  -24.9330  -25.3667   22.6283 C   0  0  0  0  0  0  0  0  0  0  0  0
  -27.1120  -24.6143   23.6052 C   0  0  0  0  0  0  0  0  0  0  0  0
  -25.9339  -26.5927   24.5647 C   0  0  0  0  0  0  0  0  0  0  0  0
  -25.0876  -21.5959   29.1677 C   0  0  0  0  0  0  0  0  0  0  0  0
  -22.4295  -10.5428   21.3345 C   0  0  0  0  0  0  0  0  0  0  0  0
  -22.0092  -11.6343   20.3480 C   0  0  0  0  0  0  0  0  0  0  0  0
  -21.9798  -17.9132   22.8674 C   0  0  0  0  0  0  0  0  0  1  0  0
  -21.9165  -16.4965   22.3302 C   0  0  0  0  0  0  0  0  0  0  0  0
  -25.0003  -24.2781   24.9685 C   0  0  1  0  0  0  0  0  0  0  0  0
  -26.8240  -22.9847   28.0297 C   0  0  2  0  0  0  0  0  0  0  0  0
  -21.6532   -9.2263   21.1519 C   0  0  0  0  0  0  0  0  0  0  0  0
  -25.7222  -25.1957   23.9417 C   0  0  0  0  0  0  0  0  0  0  0  0
  -29.5304  -19.1511   20.7376 N   0  0  0  0  0  0  0  0  0  0  0  0
  -22.7514  -12.8578   20.5490 N   0  0  0  0  0  0  0  0  0  0  0  0
  -29.2195  -18.1579   21.5879 N   0  0  0  0  0  0  0  0  0  0  0  0
  -22.5524  -23.9210   25.0338 N   0  0  0  0  0  0  0  0  0  0  0  0
  -27.8742  -15.2337   19.5331 N   0  0  0  0  0  0  0  0  0  0  0  0
  -28.7361  -17.6996   23.8610 N   0  0  0  0  0  0  0  0  0  0  0  0
  -29.4501  -22.1588   23.8263 N   0  0  0  0  0  0  0  0  0  0  0  0
  -25.6529  -14.9547   20.2750 N   0  0  0  0  0  0  0  0  0  0  0  0
  -19.9020  -25.9762   23.8166 N   0  0  0  0  0  0  0  0  0  0  0  0
  -25.7119  -24.1199   26.2322 N   0  0  0  0  0  0  0  0  0  0  0  0
  -26.5306  -21.7923   28.8742 N   0  3  0  0  0  0  0  0  0  0  0  0
  -28.9417  -20.3649   25.1612 O   0  0  0  0  0  0  0  0  0  0  0  0
  -21.1770  -24.3110   22.8048 O   0  0  0  0  0  0  0  0  0  0  0  0
  -23.4979  -25.8950   25.8374 O   0  0  0  0  0  0  0  0  0  0  0  0
  -25.8958  -21.8105   26.1331 O   0  0  0  0  0  0  0  0  0  0  0  0
  -26.7664  -13.2343   19.1878 O   0  0  0  0  0  0  0  0  0  0  0  0
  -30.7413  -25.2529   19.3772 O   0  0  0  0  0  0  0  0  0  0  0  0
  -20.7401  -18.2274   23.5004 O   0  0  0  0  0  0  0  0  0  1  0  0
  -23.1613  -16.1742   21.7222 O   0  0  0  0  0  0  0  0  0  0  0  0
  -27.5830  -29.5011   20.9206 F   0  0  0  0  0  0  0  0  0  0  0  0
  -29.2979  -26.6976   17.5139 F   0  0  0  0  0  0  0  0  0  0  0  0
  1  2  1  0  0  0  0
  1  5  2  0  0  0  0
  2  6  2  0  0  0  0
  3  8  2  0  0  0  0
  3 17  1  0  0  0  0
  4  9  1  0  0  0  0
  4 17  2  0  0  0  0
  5 19  1  0  0  0  0
  6 21  1  0  0  0  0
  7 10  2  0  0  0  0
  7 20  1  0  0  0  0
  8 24  1  0  0  0  0
  9 24  2  0  0  0  0
 10 25  1  0  0  0  0
 11 12  2  0  0  0  0
 11 26  1  0  0  0  0
 12 28  1  0  0  0  0
 13 22  1  0  0  0  0
 13 25  2  0  0  0  0
 14 28  2  0  0  0  0
 14 29  1  0  0  0  0
 15 23  2  0  0  0  0
 15 65  1  0  0  0  0
 16 27  2  0  0  0  0
 16 65  1  0  0  0  0
 17 30  1  0  0  0  0
 18 30  1  0  0  0  0
 18 31  2  0  0  0  0
 18 32  1  0  0  0  0
 19 21  2  0  0  0  0
 19 37  1  0  0  0  0
 20 22  2  0  0  0  0
 20 38  1  0  0  0  0
 21 46  1  0  0  0  0
 22 39  1  0  0  0  0
 23 27  1  0  0  0  0
 23 71  1  0  0  0  0
 24 80  1  0  0  0  0
 25 81  1  0  0  0  0
 26 29  2  0  0  0  0
 26 80  1  0  0  0  0
 27 82  1  0  0  0  0
 28 83  1  0  0  0  0
 29 84  1  0  0  0  0
 30 64  2  0  0  0  0
 31 66  1  0  0  0  0
 31 69  1  0  0  0  0
 32 70  1  0  0  0  0
 32 75  2  0  0  0  0
 33 47  1  0  0  0  0
 33 72  1  0  0  0  0
 33 76  2  0  0  0  0
 34 60  1  0  0  0  0
 34 67  1  0  0  0  0
 34 77  2  0  0  0  0
 35 61  1  0  0  0  0
 35 73  1  0  0  0  0
 35 78  2  0  0  0  0
 36 68  1  0  0  0  0
 36 71  1  0  0  0  0
 36 79  2  0  0  0  0
 37 40  1  0  0  0  0
 38 47  1  0  0  0  0
 39 67  1  0  0  0  0
 40 42  1  0  0  0  0
 41 43  1  0  0  0  0
 41 44  1  0  0  0  0
 42 46  1  0  0  0  0
 43 48  1  0  0  0  0
 44 68  1  0  0  0  0
 45 48  1  0  0  0  0
 45 68  1  0  0  0  0
 46 72  1  0  0  0  0
 47 67  1  0  0  0  0
 48 66  1  0  0  0  0
 49 61  1  0  0  0  0
 50 62  1  0  0  0  0
 51 62  1  0  0  0  0
 52 63  1  0  0  0  0
 53 63  1  0  0  0  0
 54 63  1  0  0  0  0
 55 74  1  0  0  0  0
 56 57  1  0  0  0  0
 56 62  1  0  0  0  0
 57 65  1  0  0  0  0
 58 59  1  0  0  0  0
 58 81  1  0  0  0  0
 59 82  1  0  0  0  0
 60 63  1  0  0  0  0
 60 73  1  0  0  0  0
 61 74  1  0  0  0  0
 64 66  1  0  0  0  0
M  CHG  1  74   1
M  ISO  4  36 100  58 101  71 100  81 101
M  END
> <Batch ID>
0109

> <Smiles>
CNC(C)C(=O)NC(C(=O)N1Cc2cc([101O:1][101CH2:1]COc3cn(CCC(C)C)cc3[100NH:0][100C:0](=O)N3CCCC(n4nc(-c5ccc(Oc6ccc(F)cc6F)cc5)c(C(N)=O)c4N)C3)ccc2CC1C(=O)NC1CCCc2ccccc21)C(C)(C)C

> <Shape>
0.217

> <Color>
0.053

> <Negative vol penalty>
0.000

$$$$

  -OEChem-04052319563D

 85 93  0     1  0  0  0  0  0999 V2000
  -21.0423  -29.2837   25.5112 C   0  0  0  0  0  0  0  0  0  0  0  0
  -21.0819  -27.9276   25.8193 C   0  0  0  0  0  0  0  0  0  0  0  0
  -30.1305  -24.4420   19.1648 C   0  0  0  0  0  0  0  0  0  0  0  0
  -28.9890  -24.3470   21.2920 C   0  0  0  0  0  0  0  0  0  0  0  0
  -20.6548  -29.6969   24.2372 C   0  0  0  0  0  0  0  0  0  0  0  0
  -20.7330  -26.9840   24.8538 C   0  0  0  0  0  0  0  0  0  0  0  0
  -23.1645  -21.4136   24.1024 C   0  0  0  0  0  0  0  0  0  0  0  0
  -29.6785  -25.7486   18.9805 C   0  0  0  0  0  0  0  0  0  0  0  0
  -28.5370  -25.6537   21.1077 C   0  0  0  0  0  0  0  0  0  0  0  0
  -22.7450  -20.1454   24.5014 C   0  0  0  0  0  0  0  0  0  0  0  0
  -26.1038  -27.2256   19.3643 C   0  0  0  0  0  0  0  0  0  0  0  0
  -24.7649  -27.4943   19.6483 C   0  0  0  0  0  0  0  0  0  0  0  0
  -21.7433  -19.8014   22.3340 C   0  0  0  0  0  0  0  0  0  0  0  0
  -24.6360  -13.1323   21.9982 C   0  0  0  0  0  0  0  0  0  0  0  0
  -25.4421  -29.1057   21.3163 C   0  0  0  0  0  0  0  0  0  0  0  0
  -26.1618  -12.1577   20.4559 C   0  0  0  0  0  0  0  0  0  0  0  0
  -29.7857  -23.7411   20.3205 C   0  0  0  0  0  0  0  0  0  0  0  0
  -31.4468  -21.9844   21.1345 C   0  0  0  0  0  0  0  0  0  0  0  0
  -20.3102  -28.7574   23.2527 C   0  0  0  0  0  0  0  0  0  0  0  0
  -22.8667  -21.8904   22.8177 C   0  0  0  0  0  0  0  0  0  0  0  0
  -20.3392  -27.3850   23.5659 C   0  0  0  0  0  0  0  0  0  0  0  0
  -22.1625  -21.0750   21.9202 C   0  0  0  0  0  0  0  0  0  0  0  0
  -25.9170  -13.0806   21.4599 C   0  0  0  0  0  0  0  0  0  0  0  0
  -23.6528  -12.2717   21.5226 C   0  0  0  0  0  0  0  0  0  0  0  0
  -28.8818  -26.3545   19.9520 C   0  0  0  0  0  0  0  0  0  0  0  0
  -22.0317  -19.3402   23.6182 C   0  0  0  0  0  0  0  0  0  0  0  0
  -27.1119  -27.8969   20.0563 C   0  0  0  0  0  0  0  0  0  0  0  0
  -24.4341  -28.4344   20.6243 C   0  0  0  0  0  0  0  0  0  0  0  0
  -26.7811  -28.8369   21.0323 C   0  0  0  0  0  0  0  0  0  0  0  0
  -30.2518  -22.3911   20.5112 C   0  0  0  0  0  0  0  0  0  0  0  0
  -23.9989  -11.3852   20.5156 C   0  0  0  0  0  0  0  0  0  0  0  0
  -31.4227  -20.6131   21.0614 C   0  0  0  0  0  0  0  0  0  0  0  0
  -32.4856  -22.7755   21.7268 C   0  0  0  0  0  0  0  0  0  0  0  0
  -21.1936  -24.3345   21.6641 C   0  0  0  0  0  0  0  0  0  0  0  0
  -22.3973  -23.3156   18.8294 C   0  0  0  0  0  0  0  0  0  0  0  0
  -23.6973  -20.7540   16.9868 C   0  0  0  0  0  0  0  0  0  0  0  0
  -27.7185  -16.3073   21.4503 C   0  0  0  0  0  0  0  0  0  0  0  0
  -19.8521  -29.2539   21.9042 C   0  0  0  0  0  0  0  0  0  0  0  0
  -23.3496  -23.2502   22.3934 C   0  0  0  0  0  0  0  0  0  0  0  0
  -21.8349  -21.5321   20.5230 C   0  0  0  0  0  0  0  0  0  0  0  0
  -19.8584  -28.1754   20.8238 C   0  0  0  0  0  0  0  0  0  0  0  0
  -29.0533  -17.3142   18.2406 C   0  0  0  0  0  0  0  0  0  0  0  0
  -19.2128  -26.8950   21.3440 C   0  0  0  0  0  0  0  0  0  0  0  0
  -29.6187  -18.6977   18.5668 C   0  0  0  0  0  0  0  0  0  0  0  0
  -27.7520  -17.0570   18.9948 C   0  0  0  0  0  0  0  0  0  0  0  0
  -28.4207  -18.5939   20.8015 C   0  0  0  0  0  0  0  0  0  0  0  0
  -19.9917  -26.3301   22.5380 C   0  0  1  0  0  0  0  0  0  0  0  0
  -22.5452  -23.8360   21.2371 C   0  0  1  0  0  0  0  0  0  0  0  0
  -29.7485  -18.9057   20.0874 C   0  0  2  0  0  0  0  0  0  0  0  0
  -22.9859  -10.4357   19.9633 C   0  0  0  0  0  0  0  0  0  0  0  0
  -24.7616  -19.6005   15.0287 C   0  0  0  0  0  0  0  0  0  0  0  0
  -20.7390  -12.6588   23.7936 C   0  0  0  0  0  0  0  0  0  0  0  0
  -19.5311  -23.2278   17.7866 C   0  0  0  0  0  0  0  0  0  0  0  0
  -20.3407  -21.8169   15.8833 C   0  0  0  0  0  0  0  0  0  0  0  0
  -21.2033  -24.1404   16.1663 C   0  0  0  0  0  0  0  0  0  0  0  0
  -26.4244  -21.3574   17.9655 C   0  0  0  0  0  0  0  0  0  0  0  0
  -26.9906  -13.9877   21.9469 C   0  0  0  0  0  0  0  0  0  0  0  0
  -21.7735  -15.7264   23.5790 C   0  0  0  0  0  0  0  0  0  0  0  0
  -21.6867  -14.6179   22.5207 C   0  0  0  0  0  0  0  0  0  0  0  0
  -21.5096  -17.1070   22.9886 C   0  0  0  0  0  0  0  0  0  1  0  0
  -21.9540  -22.3358   17.7700 C   0  0  1  0  0  0  0  0  0  0  0  0
  -24.9204  -20.6772   16.0909 C   0  0  2  0  0  0  0  0  0  0  0  0
  -21.9746  -13.2270   23.1027 C   0  0  2  0  0  0  0  0  0  0  0  0
  -20.7616  -22.8721   16.9285 C   0  0  0  0  0  0  0  0  0  0  0  0
  -25.2325  -11.3056   19.9681 N   0  0  0  0  0  0  0  0  0  0  0  0
  -29.5219  -21.3615   20.0741 N   0  0  0  0  0  0  0  0  0  0  0  0
  -30.2603  -20.2942   20.4232 N   0  0  0  0  0  0  0  0  0  0  0  0
  -22.3233  -22.8720   20.1574 N   0  0  0  0  0  0  0  0  0  0  0  0
  -27.9484  -17.2538   20.4380 N   0  0  0  0  0  0  0  0  0  0  0  0
  -32.2828  -19.6610   21.4812 N   0  0  0  0  0  0  0  0  0  0  0  0
  -32.3514  -24.1706   21.7162 N   0  0  0  0  0  0  0  0  0  0  0  0
  -22.3751  -12.3159   22.0508 N   0  0  0  0  0  0  0  0  0  0  0  0
  -21.1867  -25.6503   22.0860 N   0  0  0  0  0  0  0  0  0  0  0  0
  -23.1424  -22.0163   16.9864 N   0  0  0  0  0  0  0  0  0  0  0  0
  -27.2657  -15.0652   21.0226 N   0  0  0  0  0  0  0  0  0  0  0  0
  -26.1345  -20.3664   16.8973 N   0  3  0  0  0  0  0  0  0  0  0  0
  -33.5105  -22.2612   22.2353 O   0  0  0  0  0  0  0  0  0  0  0  0
  -20.2281  -23.5815   21.6131 O   0  0  0  0  0  0  0  0  0  0  0  0
  -22.8013  -24.4308   18.4907 O   0  0  0  0  0  0  0  0  0  0  0  0
  -23.2741  -19.7897   17.6204 O   0  0  0  0  0  0  0  0  0  0  0  0
  -27.9081  -16.5495   22.6472 O   0  0  0  0  0  0  0  0  0  0  0  0
  -28.4408  -27.6296   19.7726 O   0  0  0  0  0  0  0  0  0  0  0  0
  -21.6204  -18.1021   24.0054 O   0  0  0  0  0  0  0  0  0  1  0  0
  -23.1482  -28.6934   20.8958 F   0  0  0  0  0  0  0  0  0  0  0  0
  -27.7452  -29.4858   21.6996 F   0  0  0  0  0  0  0  0  0  0  0  0
  1  2  1  0  0  0  0
  1  5  2  0  0  0  0
  2  6  2  0  0  0  0
  3  8  2  0  0  0  0
  3 17  1  0  0  0  0
  4  9  1  0  0  0  0
  4 17  2  0  0  0  0
  5 19  1  0  0  0  0
  6 21  1  0  0  0  0
  7 10  2  0  0  0  0
  7 20  1  0  0  0  0
  8 25  1  0  0  0  0
  9 25  2  0  0  0  0
 10 26  1  0  0  0  0
 11 12  2  0  0  0  0
 11 27  1  0  0  0  0
 12 28  1  0  0  0  0
 13 22  1  0  0  0  0
 13 26  2  0  0  0  0
 14 23  2  0  0  0  0
 14 24  1  0  0  0  0
 15 28  2  0  0  0  0
 15 29  1  0  0  0  0
 16 23  1  0  0  0  0
 16 65  2  0  0  0  0
 17 30  1  0  0  0  0
 18 30  1  0  0  0  0
 18 32  2  0  0  0  0
 18 33  1  0  0  0  0
 19 21  2  0  0  0  0
 19 38  1  0  0  0  0
 20 22  2  0  0  0  0
 20 39  1  0  0  0  0
 21 47  1  0  0  0  0
 22 40  1  0  0  0  0
 23 57  1  0  0  0  0
 24 31  2  0  0  0  0
 24 72  1  0  0  0  0
 25 82  1  0  0  0  0
 26 83  1  0  0  0  0
 27 29  2  0  0  0  0
 27 82  1  0  0  0  0
 28 84  1  0  0  0  0
 29 85  1  0  0  0  0
 30 66  2  0  0  0  0
 31 50  1  0  0  0  0
 31 65  1  0  0  0  0
 32 67  1  0  0  0  0
 32 70  1  0  0  0  0
 33 71  1  0  0  0  0
 33 77  2  0  0  0  0
 34 48  1  0  0  0  0
 34 73  1  0  0  0  0
 34 78  2  0  0  0  0
 35 61  1  0  0  0  0
 35 68  1  0  0  0  0
 35 79  2  0  0  0  0
 36 62  1  0  0  0  0
 36 74  1  0  0  0  0
 36 80  2  0  0  0  0
 37 69  1  0  0  0  0
 37 75  1  0  0  0  0
 37 81  2  0  0  0  0
 38 41  1  0  0  0  0
 39 48  1  0  0  0  0
 40 68  1  0  0  0  0
 41 43  1  0  0  0  0
 42 44  1  0  0  0  0
 42 45  1  0  0  0  0
 43 47  1  0  0  0  0
 44 49  1  0  0  0  0
 45 69  1  0  0  0  0
 46 49  1  0  0  0  0
 46 69  1  0  0  0  0
 47 73  1  0  0  0  0
 48 68  1  0  0  0  0
 49 67  1  0  0  0  0
 51 62  1  0  0  0  0
 52 63  1  0  0  0  0
 53 64  1  0  0  0  0
 54 64  1  0  0  0  0
 55 64  1  0  0  0  0
 56 76  1  0  0  0  0
 57 75  1  0  0  0  0
 58 59  1  0  0  0  0
 58 60  1  0  0  0  0
 59 63  1  0  0  0  0
 60 83  1  0  0  0  0
 61 64  1  0  0  0  0
 61 74  1  0  0  0  0
 62 76  1  0  0  0  0
 63 72  1  0  0  0  0
 66 67  1  0  0  0  0
M  CHG  1  76   1
M  ISO  4  37 100  60 101  75 100  83 101
M  END
> <Batch ID>
0109

> <Smiles>
CNC(C)C(=O)NC(C(=O)N1Cc2cc([101O:1][101CH2:1]CCC(C)Nc3cc(C[100NH:0][100C:0](=O)N4CCCC(n5nc(-c6ccc(Oc7ccc(F)cc7F)cc6)c(C(N)=O)c5N)C4)cnc3C)ccc2CC1C(=O)NC1CCCc2ccccc21)C(C)(C)C

> <Shape>
0.211

> <Color>
0.080

> <Negative vol penalty>
0.000

$$$$

  -OEChem-04052319563D

 85 93  0     1  0  0  0  0  0999 V2000
  -17.0317  -24.7418   24.1521 C   0  0  0  0  0  0  0  0  0  0  0  0
  -18.3012  -24.1885   24.0188 C   0  0  0  0  0  0  0  0  0  0  0  0
  -22.8788  -10.0269   20.0679 C   0  0  0  0  0  0  0  0  0  0  0  0
  -23.5983  -10.1204   22.3724 C   0  0  0  0  0  0  0  0  0  0  0  0
  -16.8073  -26.0666   23.7801 C   0  0  0  0  0  0  0  0  0  0  0  0
  -19.3468  -24.9595   23.5123 C   0  0  0  0  0  0  0  0  0  0  0  0
  -25.2442  -24.6898   25.1414 C   0  0  0  0  0  0  0  0  0  0  0  0
  -22.0537   -8.9434   20.3695 C   0  0  0  0  0  0  0  0  0  0  0  0
  -22.7732   -9.0369   22.6740 C   0  0  0  0  0  0  0  0  0  0  0  0
  -26.3477  -24.0592   24.5684 C   0  0  0  0  0  0  0  0  0  0  0  0
  -22.8458   -5.6754   22.3189 C   0  0  0  0  0  0  0  0  0  0  0  0
  -23.3775   -4.6560   23.1087 C   0  0  0  0  0  0  0  0  0  0  0  0
  -26.9375  -26.1164   23.4550 C   0  0  0  0  0  0  0  0  0  0  0  0
  -21.6631   -5.0457   24.7659 C   0  0  0  0  0  0  0  0  0  0  0  0
  -23.6512  -10.6153   21.0694 C   0  0  0  0  0  0  0  0  0  0  0  0
  -24.1668  -13.1000   20.8085 C   0  0  0  0  0  0  0  0  0  0  0  0
  -17.8530  -26.8571   23.2778 C   0  0  0  0  0  0  0  0  0  0  0  0
  -24.9724  -26.0378   24.8664 C   0  0  0  0  0  0  0  0  0  0  0  0
  -19.1359  -26.2958   23.1319 C   0  0  0  0  0  0  0  0  0  0  0  0
  -25.8313  -26.7624   24.0278 C   0  0  0  0  0  0  0  0  0  0  0  0
  -22.0009   -8.4484   21.6725 C   0  0  0  0  0  0  0  0  0  0  0  0
  -27.1929  -24.7717   23.7228 C   0  0  0  0  0  0  0  0  0  0  0  0
  -21.7228   -6.3801   22.7527 C   0  0  0  0  0  0  0  0  0  0  0  0
  -22.7861   -4.3411   24.3321 C   0  0  0  0  0  0  0  0  0  0  0  0
  -21.1315   -6.0652   23.9761 C   0  0  0  0  0  0  0  0  0  0  0  0
  -24.5041  -11.7342   20.7584 C   0  0  0  0  0  0  0  0  0  0  0  0
  -25.3136  -13.7512   20.4249 C   0  0  0  0  0  0  0  0  0  0  0  0
  -22.9276  -13.7243   21.1696 C   0  0  0  0  0  0  0  0  0  0  0  0
  -22.5703  -27.6082   23.5000 C   0  0  0  0  0  0  0  0  0  0  0  0
  -24.2453  -30.2164   24.4561 C   0  0  0  0  0  0  0  0  0  0  0  0
  -27.2549  -31.5652   25.3334 C   0  0  0  0  0  0  0  0  0  0  0  0
  -30.8502  -14.4088   20.6685 C   0  0  0  0  0  0  0  0  0  0  0  0
  -17.5513  -28.2699   22.8446 C   0  0  0  0  0  0  0  0  0  0  0  0
  -23.7931  -26.7106   25.5137 C   0  0  0  0  0  0  0  0  0  0  0  0
  -25.5950  -28.2170   23.7168 C   0  0  0  0  0  0  0  0  0  0  0  0
  -18.7985  -29.1322   22.6677 C   0  0  0  0  0  0  0  0  0  0  0  0
  -27.7371  -18.0345   18.0900 C   0  0  0  0  0  0  0  0  0  0  0  0
  -29.1524  -17.7838   17.5649 C   0  0  0  0  0  0  0  0  0  0  0  0
  -29.5931  -11.9672   18.4025 C   0  0  0  0  0  0  0  0  0  0  0  0
  -19.8604  -28.3783   21.8734 C   0  0  0  0  0  0  0  0  0  0  0  0
  -28.1317  -11.7973   18.8216 C   0  0  0  0  0  0  0  0  0  0  0  0
  -27.8444  -19.2026   19.0697 C   0  0  0  0  0  0  0  0  0  0  0  0
  -30.0509  -18.8140   18.2482 C   0  0  0  0  0  0  0  0  0  0  0  0
  -30.5026  -12.1976   19.6074 C   0  0  0  0  0  0  0  0  0  0  0  0
  -28.6319  -13.1367   20.9083 C   0  0  0  0  0  0  0  0  0  0  0  0
  -20.3015  -27.1076   22.6098 C   0  0  1  0  0  0  0  0  0  0  0  0
  -23.3213  -27.9480   24.7562 C   0  0  1  0  0  0  0  0  0  0  0  0
  -27.6683  -12.9577   19.7227 C   0  0  2  0  0  0  0  0  0  0  0  0
  -29.3033  -19.2038   19.5215 C   0  0  0  0  0  0  0  0  0  0  0  0
  -28.3158  -33.7310   26.0273 C   0  0  0  0  0  0  0  0  0  0  0  0
  -31.2446  -20.4439   20.4788 C   0  0  0  0  0  0  0  0  0  0  0  0
  -30.6486  -17.1228   23.1640 C   0  0  0  0  0  0  0  0  0  0  0  0
  -24.1216  -31.1988   21.5700 C   0  0  0  0  0  0  0  0  0  0  0  0
  -25.9539  -32.8155   22.1151 C   0  0  0  0  0  0  0  0  0  0  0  0
  -23.7608  -32.9751   23.2930 C   0  0  0  0  0  0  0  0  0  0  0  0
  -28.1097  -30.4465   27.9367 C   0  0  0  0  0  0  0  0  0  0  0  0
  -29.0035  -22.4142   21.6844 C   0  0  0  0  0  0  0  0  0  0  0  0
  -28.9422  -20.9202   21.3643 C   0  0  0  0  0  0  0  0  0  0  0  0
  -30.9037  -17.6808   20.6862 C   0  0  0  0  0  0  0  0  0  0  0  0
  -28.1607  -22.7589   22.9054 C   0  0  0  0  0  0  0  0  0  1  0  0
  -25.3301  -31.0722   23.8480 C   0  0  1  0  0  0  0  0  0  0  0  0
  -27.6629  -32.4425   26.5032 C   0  0  2  0  0  0  0  0  0  0  0  0
  -29.7588  -20.5252   20.1199 C   0  0  2  0  0  0  0  0  0  0  0  0
  -31.0418  -16.6205   21.7781 C   0  0  2  0  0  0  0  0  0  0  0  0
  -24.7952  -31.9875   22.7106 C   0  0  0  0  0  0  0  0  0  0  0  0
  -25.7664  -11.5286   20.3732 N   0  0  0  0  0  0  0  0  0  0  0  0
  -26.2323  -12.7739   20.1777 N   0  0  0  0  0  0  0  0  0  0  0  0
  -24.4252  -28.8286   24.3688 N   0  0  0  0  0  0  0  0  0  0  0  0
  -30.0086  -13.3121   20.4196 N   0  0  0  0  0  0  0  0  0  0  0  0
  -25.6158  -15.0588   20.2783 N   0  0  0  0  0  0  0  0  0  0  0  0
  -21.8503  -12.9071   21.5383 N   0  0  0  0  0  0  0  0  0  0  0  0
  -21.2117  -27.4369   23.6855 N   0  0  0  0  0  0  0  0  0  0  0  0
  -25.9490  -31.7940   24.9546 N   0  0  0  0  0  0  0  0  0  0  0  0
  -30.3017  -15.4247   21.4418 N   0  0  0  0  0  0  0  0  0  0  0  0
  -29.4990  -18.1373   20.5522 N   0  3  0  0  0  0  0  0  0  0  0  0
  -28.6294  -31.7216   27.3790 N   0  3  0  0  0  0  0  0  0  0  0  0
  -22.7750  -14.9692   21.1496 O   0  0  0  0  0  0  0  0  0  0  0  0
  -23.1782  -27.5102   22.4404 O   0  0  0  0  0  0  0  0  0  0  0  0
  -23.2777  -30.7592   24.9951 O   0  0  0  0  0  0  0  0  0  0  0  0
  -28.0195  -30.7603   24.8060 O   0  0  0  0  0  0  0  0  0  0  0  0
  -32.0030  -14.4800   20.2294 O   0  0  0  0  0  0  0  0  0  0  0  0
  -21.1957   -7.3914   21.9671 O   0  0  0  0  0  0  0  0  0  0  0  0
  -28.2704  -24.1585   23.1616 O   0  0  0  0  0  0  0  0  0  1  0  0
  -23.2959   -3.3611   25.0897 F   0  0  0  0  0  0  0  0  0  0  0  0
  -20.0517   -6.7378   24.3976 F   0  0  0  0  0  0  0  0  0  0  0  0
  1  2  1  0  0  0  0
  1  5  2  0  0  0  0
  2  6  2  0  0  0  0
  3  8  2  0  0  0  0
  3 15  1  0  0  0  0
  4  9  1  0  0  0  0
  4 15  2  0  0  0  0
  5 17  1  0  0  0  0
  6 19  1  0  0  0  0
  7 10  2  0  0  0  0
  7 18  1  0  0  0  0
  8 21  1  0  0  0  0
  9 21  2  0  0  0  0
 10 22  1  0  0  0  0
 11 12  2  0  0  0  0
 11 23  1  0  0  0  0
 12 24  1  0  0  0  0
 13 20  1  0  0  0  0
 13 22  2  0  0  0  0
 14 24  2  0  0  0  0
 14 25  1  0  0  0  0
 15 26  1  0  0  0  0
 16 26  1  0  0  0  0
 16 27  2  0  0  0  0
 16 28  1  0  0  0  0
 17 19  2  0  0  0  0
 17 33  1  0  0  0  0
 18 20  2  0  0  0  0
 18 34  1  0  0  0  0
 19 46  1  0  0  0  0
 20 35  1  0  0  0  0
 21 82  1  0  0  0  0
 22 83  1  0  0  0  0
 23 25  2  0  0  0  0
 23 82  1  0  0  0  0
 24 84  1  0  0  0  0
 25 85  1  0  0  0  0
 26 66  2  0  0  0  0
 27 67  1  0  0  0  0
 27 70  1  0  0  0  0
 28 71  1  0  0  0  0
 28 77  2  0  0  0  0
 29 47  1  0  0  0  0
 29 72  1  0  0  0  0
 29 78  2  0  0  0  0
 30 61  1  0  0  0  0
 30 68  1  0  0  0  0
 30 79  2  0  0  0  0
 31 62  1  0  0  0  0
 31 73  1  0  0  0  0
 31 80  2  0  0  0  0
 32 69  1  0  0  0  0
 32 74  1  0  0  0  0
 32 81  2  0  0  0  0
 33 36  1  0  0  0  0
 34 47  1  0  0  0  0
 35 68  1  0  0  0  0
 36 40  1  0  0  0  0
 37 38  1  0  0  0  0
 37 42  1  0  0  0  0
 38 43  1  0  0  0  0
 39 41  1  0  0  0  0
 39 44  1  0  0  0  0
 40 46  1  0  0  0  0
 41 48  1  0  0  0  0
 42 49  1  0  0  0  0
 43 49  1  0  0  0  0
 44 69  1  0  0  0  0
 45 48  1  0  0  0  0
 45 69  1  0  0  0  0
 46 72  1  0  0  0  0
 47 68  1  0  0  0  0
 48 67  1  0  0  0  0
 49 63  1  0  0  0  0
 49 75  1  0  0  0  0
 50 62  1  0  0  0  0
 51 63  1  0  0  0  0
 52 64  1  0  0  0  0
 53 65  1  0  0  0  0
 54 65  1  0  0  0  0
 55 65  1  0  0  0  0
 56 76  1  0  0  0  0
 57 58  1  0  0  0  0
 57 60  1  0  0  0  0
 58 63  1  0  0  0  0
 59 64  1  0  0  0  0
 59 75  1  0  0  0  0
 60 83  1  0  0  0  0
 61 65  1  0  0  0  0
 61 73  1  0  0  0  0
 62 76  1  0  0  0  0
 64 74  1  0  0  0  0
 66 67  1  0  0  0  0
M  CHG  2  75   1  76   1
M  ISO  4  32 100  60 101  74 100  83 101
M  END
> <Batch ID>
0109

> <Smiles>
CNC(C)C(=O)NC(C(=O)N1Cc2cc([101O:1][101CH2:1]CCC(C)C3(NCC(C)[100NH:0][100C:0](=O)N4CCCC(n5nc(-c6ccc(Oc7ccc(F)cc7F)cc6)c(C(N)=O)c5N)C4)CCCC3)ccc2CC1C(=O)NC1CCCc2ccccc21)C(C)(C)C

> <Shape>
0.376

> <Color>
0.207

> <Negative vol penalty>
0.000

$$$$

  -OEChem-04052319563D

 84 92  0     1  0  0  0  0  0999 V2000
  -17.6838  -30.6441   21.9628 C   0  0  0  0  0  0  0  0  0  0  0  0
  -19.0508  -30.9023   21.9734 C   0  0  0  0  0  0  0  0  0  0  0  0
  -25.5772  -15.7219   21.6895 C   0  0  0  0  0  0  0  0  0  0  0  0
  -24.9018  -16.8854   19.6827 C   0  0  0  0  0  0  0  0  0  0  0  0
  -17.2194  -29.3448   22.1627 C   0  0  0  0  0  0  0  0  0  0  0  0
  -19.9542  -29.8614   22.1851 C   0  0  0  0  0  0  0  0  0  0  0  0
  -25.5160  -29.2504   19.6954 C   0  0  0  0  0  0  0  0  0  0  0  0
  -24.3176  -15.1282   21.7692 C   0  0  0  0  0  0  0  0  0  0  0  0
  -23.6422  -16.2916   19.7624 C   0  0  0  0  0  0  0  0  0  0  0  0
  -26.7941  -29.5366   20.1731 C   0  0  0  0  0  0  0  0  0  0  0  0
  -21.2130  -16.0000   22.7819 C   0  0  0  0  0  0  0  0  0  0  0  0
  -20.5874  -15.9740   24.0283 C   0  0  0  0  0  0  0  0  0  0  0  0
  -27.0469  -27.2370   20.8566 C   0  0  0  0  0  0  0  0  0  0  0  0
  -32.0096  -26.7440   18.5872 C   0  0  0  0  0  0  0  0  0  0  0  0
  -20.5339  -13.5598   23.9510 C   0  0  0  0  0  0  0  0  0  0  0  0
  -31.7497  -27.1507   20.7865 C   0  0  0  0  0  0  0  0  0  0  0  0
  -25.8693  -16.6006   20.6462 C   0  0  0  0  0  0  0  0  0  0  0  0
  -28.3040  -16.7175   19.8936 C   0  0  0  0  0  0  0  0  0  0  0  0
  -18.1179  -28.2858   22.3673 C   0  0  0  0  0  0  0  0  0  0  0  0
  -24.9886  -27.9557   19.8047 C   0  0  0  0  0  0  0  0  0  0  0  0
  -19.5013  -28.5469   22.3893 C   0  0  0  0  0  0  0  0  0  0  0  0
  -25.7628  -26.9364   20.3771 C   0  0  0  0  0  0  0  0  0  0  0  0
  -32.0972  -26.1729   19.8808 C   0  0  0  0  0  0  0  0  0  0  0  0
  -23.3501  -15.4129   20.8057 C   0  0  0  0  0  0  0  0  0  0  0  0
  -27.5587  -28.5305   20.7565 C   0  0  0  0  0  0  0  0  0  0  0  0
  -21.4990  -14.8060   22.1200 C   0  0  0  0  0  0  0  0  0  0  0  0
  -20.2478  -14.7539   24.6129 C   0  0  0  0  0  0  0  0  0  0  0  0
  -21.1595  -13.5859   22.7045 C   0  0  0  0  0  0  0  0  0  0  0  0
  -27.1702  -17.2147   20.5637 C   0  0  0  0  0  0  0  0  0  0  0  0
  -31.6113  -28.0535   18.7419 C   0  0  0  0  0  0  0  0  0  0  0  0
  -29.2753  -17.6633   20.1139 C   0  0  0  0  0  0  0  0  0  0  0  0
  -28.4648  -15.5088   19.1392 C   0  0  0  0  0  0  0  0  0  0  0  0
  -22.4867  -26.6704   21.2854 C   0  0  0  0  0  0  0  0  0  0  0  0
  -23.4105  -23.9991   19.6938 C   0  0  0  0  0  0  0  0  0  0  0  0
  -25.9138  -22.2633   18.1552 C   0  0  0  0  0  0  0  0  0  0  0  0
  -30.8856  -22.8922   20.2217 C   0  0  0  0  0  0  0  0  0  0  0  0
  -17.5669  -26.9059   22.6260 C   0  0  0  0  0  0  0  0  0  0  0  0
  -23.6186  -27.6572   19.2603 C   0  0  0  0  0  0  0  0  0  0  0  0
  -25.2505  -25.5254   20.5000 C   0  0  0  0  0  0  0  0  0  0  0  0
  -18.6041  -25.7968   22.4703 C   0  0  0  0  0  0  0  0  0  0  0  0
  -29.3588  -21.6311   23.2509 C   0  0  0  0  0  0  0  0  0  0  0  0
  -19.8968  -26.1700   23.1890 C   0  0  0  0  0  0  0  0  0  0  0  0
  -28.7441  -20.3197   22.7585 C   0  0  0  0  0  0  0  0  0  0  0  0
  -29.2486  -22.7249   22.1928 C   0  0  0  0  0  0  0  0  0  0  0  0
  -29.2277  -21.0567   20.3788 C   0  0  0  0  0  0  0  0  0  0  0  0
  -20.5136  -27.4402   22.5910 C   0  0  1  0  0  0  0  0  0  0  0  0
  -22.9821  -26.4214   19.8888 C   0  0  1  0  0  0  0  0  0  0  0  0
  -29.3277  -19.9045   21.3949 C   0  0  2  0  0  0  0  0  0  0  0  0
  -30.2173  -28.7344   16.7552 C   0  0  0  0  0  0  0  0  0  0  0  0
  -32.6296  -29.4504   16.9073 C   0  0  0  0  0  0  0  0  0  0  0  0
  -26.3741  -20.0922   16.9839 C   0  0  0  0  0  0  0  0  0  0  0  0
  -23.4312  -22.5559   22.3821 C   0  0  0  0  0  0  0  0  0  0  0  0
  -24.7776  -20.7346   21.3152 C   0  0  0  0  0  0  0  0  0  0  0  0
  -22.4749  -21.2267   20.4918 C   0  0  0  0  0  0  0  0  0  0  0  0
  -26.6656  -23.6423   15.6468 C   0  0  0  0  0  0  0  0  0  0  0  0
  -31.0295  -29.5958   20.7074 C   0  0  0  0  0  0  0  0  0  0  0  0
  -33.7421  -24.7116   21.1000 C   0  0  0  0  0  0  0  0  0  0  0  0
  -29.5318  -29.8442   20.5650 C   0  0  0  0  0  0  0  0  0  1  0  0
  -32.4881  -24.7866   20.2002 C   0  0  1  0  0  0  0  0  0  0  0  0
  -31.3660  -29.0963   17.7242 C   0  0  0  0  0  0  0  0  0  0  0  0
  -24.3456  -22.8503   19.9856 C   0  0  1  0  0  0  0  0  0  0  0  0
  -25.9690  -21.5485   16.8171 C   0  0  2  0  0  0  0  0  0  0  0  0
  -23.7665  -21.8688   21.0432 C   0  0  0  0  0  0  0  0  0  0  0  0
  -27.3986  -18.3854   21.1648 N   0  0  0  0  0  0  0  0  0  0  0  0
  -31.4566  -28.2897   20.0829 N   0  0  0  0  0  0  0  0  0  0  0  0
  -28.6872  -18.6316   20.8734 N   0  0  0  0  0  0  0  0  0  0  0  0
  -23.9028  -25.2849   19.9585 N   0  0  0  0  0  0  0  0  0  0  0  0
  -29.8389  -22.2730   20.9249 N   0  0  0  0  0  0  0  0  0  0  0  0
  -30.5665  -17.7527   19.7304 N   0  0  0  0  0  0  0  0  0  0  0  0
  -27.3650  -14.6494   19.0120 N   0  0  0  0  0  0  0  0  0  0  0  0
  -21.1876  -27.1373   21.3467 N   0  0  0  0  0  0  0  0  0  0  0  0
  -24.6471  -22.2325   18.6988 N   0  0  0  0  0  0  0  0  0  0  0  0
  -31.4044  -24.0427   20.8030 N   0  0  0  0  0  0  0  0  0  0  0  0
  -34.1246  -23.3003   21.3619 N   0  3  0  0  0  0  0  0  0  0  0  0
  -26.9550  -22.2104   15.9166 N   0  3  0  0  0  0  0  0  0  0  0  0
  -29.5561  -15.1922   18.6080 O   0  0  0  0  0  0  0  0  0  0  0  0
  -23.2278  -26.4534   22.2369 O   0  0  0  0  0  0  0  0  0  0  0  0
  -22.2874  -23.7645   19.2407 O   0  0  0  0  0  0  0  0  0  0  0  0
  -26.8971  -22.7926   18.6687 O   0  0  0  0  0  0  0  0  0  0  0  0
  -31.3291  -22.4493   19.1567 O   0  0  0  0  0  0  0  0  0  0  0  0
  -22.1209  -14.8335   20.8830 O   0  0  0  0  0  0  0  0  0  0  0  0
  -28.8063  -28.8072   21.2242 O   0  0  0  0  0  0  0  0  0  1  0  0
  -19.6484  -14.7289   25.8105 F   0  0  0  0  0  0  0  0  0  0  0  0
  -21.4328  -12.4354   22.0740 F   0  0  0  0  0  0  0  0  0  0  0  0
  1  2  1  0  0  0  0
  1  5  2  0  0  0  0
  2  6  2  0  0  0  0
  3  8  2  0  0  0  0
  3 17  1  0  0  0  0
  4  9  1  0  0  0  0
  4 17  2  0  0  0  0
  5 19  1  0  0  0  0
  6 21  1  0  0  0  0
  7 10  2  0  0  0  0
  7 20  1  0  0  0  0
  8 24  1  0  0  0  0
  9 24  2  0  0  0  0
 10 25  1  0  0  0  0
 11 12  2  0  0  0  0
 11 26  1  0  0  0  0
 12 27  1  0  0  0  0
 13 22  1  0  0  0  0
 13 25  2  0  0  0  0
 14 23  1  0  0  0  0
 14 30  2  0  0  0  0
 15 27  2  0  0  0  0
 15 28  1  0  0  0  0
 16 23  2  0  0  0  0
 16 65  1  0  0  0  0
 17 29  1  0  0  0  0
 18 29  1  0  0  0  0
 18 31  2  0  0  0  0
 18 32  1  0  0  0  0
 19 21  2  0  0  0  0
 19 37  1  0  0  0  0
 20 22  2  0  0  0  0
 20 38  1  0  0  0  0
 21 46  1  0  0  0  0
 22 39  1  0  0  0  0
 23 59  1  0  0  0  0
 24 81  1  0  0  0  0
 25 82  1  0  0  0  0
 26 28  2  0  0  0  0
 26 81  1  0  0  0  0
 27 83  1  0  0  0  0
 28 84  1  0  0  0  0
 29 64  2  0  0  0  0
 30 60  1  0  0  0  0
 30 65  1  0  0  0  0
 31 66  1  0  0  0  0
 31 69  1  0  0  0  0
 32 70  1  0  0  0  0
 32 76  2  0  0  0  0
 33 47  1  0  0  0  0
 33 71  1  0  0  0  0
 33 77  2  0  0  0  0
 34 61  1  0  0  0  0
 34 67  1  0  0  0  0
 34 78  2  0  0  0  0
 35 62  1  0  0  0  0
 35 72  1  0  0  0  0
 35 79  2  0  0  0  0
 36 68  1  0  0  0  0
 36 73  1  0  0  0  0
 36 80  2  0  0  0  0
 37 40  1  0  0  0  0
 38 47  1  0  0  0  0
 39 67  1  0  0  0  0
 40 42  1  0  0  0  0
 41 43  1  0  0  0  0
 41 44  1  0  0  0  0
 42 46  1  0  0  0  0
 43 48  1  0  0  0  0
 44 68  1  0  0  0  0
 45 48  1  0  0  0  0
 45 68  1  0  0  0  0
 46 71  1  0  0  0  0
 47 67  1  0  0  0  0
 48 66  1  0  0  0  0
 49 60  1  0  0  0  0
 50 60  1  0  0  0  0
 51 62  1  0  0  0  0
 52 63  1  0  0  0  0
 53 63  1  0  0  0  0
 54 63  1  0  0  0  0
 55 75  1  0  0  0  0
 56 58  1  0  0  0  0
 56 65  1  0  0  0  0
 57 59  1  0  0  0  0
 57 74  1  0  0  0  0
 58 82  1  0  0  0  0
 59 73  1  0  0  0  0
 61 63  1  0  0  0  0
 61 72  1  0  0  0  0
 62 75  1  0  0  0  0
 64 66  1  0  0  0  0
M  CHG  2  74   1  75   1
M  ISO  4  36 100  58 101  73 100  82 101
M  END
> <Batch ID>
0109

> <Smiles>
CNC(C)C(=O)NC(C(=O)N1Cc2cc([101O:1][101CH2:1]Cn3cc(C(CN)[100NH:0][100C:0](=O)N4CCCC(n5nc(-c6ccc(Oc7ccc(F)cc7F)cc6)c(C(N)=O)c5N)C4)cc3C(C)C)ccc2CC1C(=O)NC1CCCc2ccccc21)C(C)(C)C

> <Shape>
0.194

> <Color>
0.066

> <Negative vol penalty>
0.000

$$$$

  -OEChem-04052319563D

 89 98  0     1  0  0  0  0  0999 V2000
  -31.7881  -12.2653   22.0224 C   0  0  0  0  0  0  0  0  0  0  0  0
  -31.1372  -13.3691   22.5639 C   0  0  0  0  0  0  0  0  0  0  0  0
  -22.5057  -29.0294   22.4362 C   0  0  0  0  0  0  0  0  0  0  0  0
  -22.7913  -26.9661   23.6601 C   0  0  0  0  0  0  0  0  0  0  0  0
  -31.3053  -11.6764   20.8545 C   0  0  0  0  0  0  0  0  0  0  0  0
  -30.0036  -13.8854   21.9371 C   0  0  0  0  0  0  0  0  0  0  0  0
  -25.1196  -16.3962   24.6479 C   0  0  0  0  0  0  0  0  0  0  0  0
  -21.1283  -28.8141   22.3945 C   0  0  0  0  0  0  0  0  0  0  0  0
  -21.4138  -26.7507   23.6185 C   0  0  0  0  0  0  0  0  0  0  0  0
  -24.7517  -17.7214   24.8767 C   0  0  0  0  0  0  0  0  0  0  0  0
  -18.4887  -29.1606   24.4791 C   0  0  0  0  0  0  0  0  0  0  0  0
  -17.6547  -30.2397   24.7719 C   0  0  0  0  0  0  0  0  0  0  0  0
  -23.3972  -17.6834   22.8809 C   0  0  0  0  0  0  0  0  0  0  0  0
  -26.4065  -20.7084   21.5935 C   0  0  0  0  0  0  0  0  0  0  0  0
  -16.6633  -30.0695   22.5752 C   0  0  0  0  0  0  0  0  0  0  0  0
  -27.1397  -22.3735   22.9201 C   0  0  0  0  0  0  0  0  0  0  0  0
  -23.3373  -28.1054   23.0689 C   0  0  0  0  0  0  0  0  0  0  0  0
  -25.4840  -29.0154   24.1039 C   0  0  0  0  0  0  0  0  0  0  0  0
  -30.1596  -12.1798   20.2184 C   0  0  0  0  0  0  0  0  0  0  0  0
  -24.6370  -15.7070   23.5262 C   0  0  0  0  0  0  0  0  0  0  0  0
  -29.5058  -13.3036   20.7588 C   0  0  0  0  0  0  0  0  0  0  0  0
  -23.7585  -16.3488   22.6416 C   0  0  0  0  0  0  0  0  0  0  0  0
  -26.0007  -21.7353   22.4811 C   0  0  0  0  0  0  0  0  0  0  0  0
  -20.5823  -27.6747   22.9857 C   0  0  0  0  0  0  0  0  0  0  0  0
  -23.8926  -18.3661   23.9915 C   0  0  0  0  0  0  0  0  0  0  0  0
  -18.4100  -28.5361   23.2343 C   0  0  0  0  0  0  0  0  0  0  0  0
  -16.7420  -30.6941   23.8200 C   0  0  0  0  0  0  0  0  0  0  0  0
  -17.4974  -28.9905   22.2824 C   0  0  0  0  0  0  0  0  0  0  0  0
  -24.7604  -28.3270   23.1118 C   0  0  0  0  0  0  0  0  0  0  0  0
  -27.7812  -20.7502   21.5172 C   0  0  0  0  0  0  0  0  0  0  0  0
  -26.7905  -28.9471   23.6856 C   0  0  0  0  0  0  0  0  0  0  0  0
  -25.0170  -29.6590   25.2970 C   0  0  0  0  0  0  0  0  0  0  0  0
  -25.9720  -14.3613   20.9746 C   0  0  0  0  0  0  0  0  0  0  0  0
  -22.9407  -13.3589   20.4009 C   0  0  0  0  0  0  0  0  0  0  0  0
  -19.5942  -13.8332   20.8729 C   0  0  0  0  0  0  0  0  0  0  0  0
  -29.7517  -25.1072   20.1732 C   0  0  0  0  0  0  0  0  0  0  0  0
  -29.7027  -11.5388   18.9319 C   0  0  0  0  0  0  0  0  0  0  0  0
  -25.0222  -14.2695   23.3081 C   0  0  0  0  0  0  0  0  0  0  0  0
  -23.1965  -15.6467   21.4334 C   0  0  0  0  0  0  0  0  0  0  0  0
  -28.2776  -11.9162   18.5358 C   0  0  0  0  0  0  0  0  0  0  0  0
  -27.6655  -19.9095   17.1079 C   0  0  0  0  0  0  0  0  0  0  0  0
  -28.5042  -18.6328   17.1880 C   0  0  0  0  0  0  0  0  0  0  0  0
  -29.4384  -28.6240   19.7139 C   0  0  0  0  0  0  0  0  0  0  0  0
  -28.0669  -13.4210   18.6704 C   0  0  0  0  0  0  0  0  0  0  0  0
  -27.7839  -20.5812   18.4725 C   0  0  0  0  0  0  0  0  0  0  0  0
  -29.1018  -18.6075   18.5910 C   0  0  0  0  0  0  0  0  0  0  0  0
  -28.2692  -29.0088   20.6221 C   0  0  0  0  0  0  0  0  0  0  0  0
  -29.2231  -27.2586   19.0647 C   0  0  0  0  0  0  0  0  0  0  0  0
  -27.7601  -26.5485   20.9165 C   0  0  0  0  0  0  0  0  0  0  0  0
  -28.2588  -13.8773   20.1217 C   0  0  1  0  0  0  0  0  0  0  0  0
  -24.8787  -13.8262   21.8554 C   0  0  1  0  0  0  0  0  0  0  0  0
  -28.1269  -19.4366   19.4210 C   0  0  0  0  0  0  0  0  0  0  0  0
  -27.9572  -27.8930   21.6375 C   0  0  2  0  0  0  0  0  0  0  0  0
  -24.2061  -23.4859   22.4099 C   0  0  0  0  0  0  0  0  0  0  0  0
  -29.2267  -18.6851   21.5352 C   0  0  0  0  0  0  0  0  0  0  0  0
  -17.3612  -12.8738   20.2478 C   0  0  0  0  0  0  0  0  0  0  0  0
  -23.1945  -14.5870   17.6193 C   0  0  0  0  0  0  0  0  0  0  0  0
  -20.7033  -14.4523   17.4087 C   0  0  0  0  0  0  0  0  0  0  0  0
  -22.0450  -12.3667   17.6785 C   0  0  0  0  0  0  0  0  0  0  0  0
  -18.9133  -13.2749   23.6984 C   0  0  0  0  0  0  0  0  0  0  0  0
  -24.3134  -21.9226   24.3878 C   0  0  0  0  0  0  0  0  0  0  0  0
  -29.5942  -22.1521   22.5378 C   0  0  0  0  0  0  0  0  0  0  0  0
  -30.1619  -22.9839   21.3907 C   0  0  0  0  0  0  0  0  0  0  0  0
  -24.4754  -20.4903   24.8883 C   0  0  0  0  0  0  0  0  0  1  0  0
  -24.5732  -22.0720   22.8763 C   0  0  2  0  0  0  0  0  0  0  0  0
  -28.7136  -19.9075   20.7402 C   0  0  2  0  0  0  0  0  0  0  0  0
  -21.7534  -13.9172   19.6541 C   0  0  1  0  0  0  0  0  0  0  0  0
  -18.4871  -12.8736   21.2702 C   0  0  2  0  0  0  0  0  0  0  0  0
  -21.9360  -13.8449   18.1118 C   0  0  0  0  0  0  0  0  0  0  0  0
  -25.5422  -27.8562   22.1366 N   0  0  0  0  0  0  0  0  0  0  0  0
  -28.2160  -21.7660   22.3279 N   0  0  0  0  0  0  0  0  0  0  0  0
  -26.7707  -28.2495   22.5138 N   0  0  0  0  0  0  0  0  0  0  0  0
  -23.6077  -14.2438   21.2600 N   0  0  0  0  0  0  0  0  0  0  0  0
  -28.9331  -26.2450   20.0818 N   0  0  0  0  0  0  0  0  0  0  0  0
  -27.9427  -29.4165   24.2094 N   0  0  0  0  0  0  0  0  0  0  0  0
  -23.6436  -29.6349   25.5753 N   0  0  0  0  0  0  0  0  0  0  0  0
  -27.0908  -13.5527   20.9122 N   0  0  0  0  0  0  0  0  0  0  0  0
  -20.5844  -13.2001   20.1517 N   0  0  0  0  0  0  0  0  0  0  0  0
  -29.4111  -24.1994   21.1685 N   0  0  0  0  0  0  0  0  0  0  0  0
  -17.9198  -13.2568   22.5940 N   0  3  0  0  0  0  0  0  0  0  0  0
  -25.7926  -30.2525   26.0842 O   0  0  0  0  0  0  0  0  0  0  0  0
  -25.8118  -15.4282   20.3933 O   0  0  0  0  0  0  0  0  0  0  0  0
  -23.2602  -12.1793   20.2337 O   0  0  0  0  0  0  0  0  0  0  0  0
  -19.5802  -15.0259   21.1692 O   0  0  0  0  0  0  0  0  0  0  0  0
  -30.7181  -24.9173   19.4269 O   0  0  0  0  0  0  0  0  0  0  0  0
  -19.2381  -27.4644   22.9454 O   0  0  0  0  0  0  0  0  0  0  0  0
  -23.5324  -19.6597   24.2120 O   0  0  0  0  0  0  0  0  0  1  0  0
  -15.9402  -31.7294   24.1018 F   0  0  0  0  0  0  0  0  0  0  0  0
  -17.4164  -28.3937   21.0852 F   0  0  0  0  0  0  0  0  0  0  0  0
  1  2  1  0  0  0  0
  1  5  2  0  0  0  0
  2  6  2  0  0  0  0
  3  8  2  0  0  0  0
  3 17  1  0  0  0  0
  4  9  1  0  0  0  0
  4 17  2  0  0  0  0
  5 19  1  0  0  0  0
  6 21  1  0  0  0  0
  7 10  2  0  0  0  0
  7 20  1  0  0  0  0
  8 24  1  0  0  0  0
  9 24  2  0  0  0  0
 10 25  1  0  0  0  0
 11 12  2  0  0  0  0
 11 26  1  0  0  0  0
 12 27  1  0  0  0  0
 13 22  1  0  0  0  0
 13 25  2  0  0  0  0
 14 23  1  0  0  0  0
 14 30  2  0  0  0  0
 15 27  2  0  0  0  0
 15 28  1  0  0  0  0
 16 23  2  0  0  0  0
 16 71  1  0  0  0  0
 17 29  1  0  0  0  0
 18 29  1  0  0  0  0
 18 31  2  0  0  0  0
 18 32  1  0  0  0  0
 19 21  2  0  0  0  0
 19 37  1  0  0  0  0
 20 22  2  0  0  0  0
 20 38  1  0  0  0  0
 21 50  1  0  0  0  0
 22 39  1  0  0  0  0
 23 65  1  0  0  0  0
 24 86  1  0  0  0  0
 25 87  1  0  0  0  0
 26 28  2  0  0  0  0
 26 86  1  0  0  0  0
 27 88  1  0  0  0  0
 28 89  1  0  0  0  0
 29 70  2  0  0  0  0
 30 66  1  0  0  0  0
 30 71  1  0  0  0  0
 31 72  1  0  0  0  0
 31 75  1  0  0  0  0
 32 76  1  0  0  0  0
 32 81  2  0  0  0  0
 33 51  1  0  0  0  0
 33 77  1  0  0  0  0
 33 82  2  0  0  0  0
 34 67  1  0  0  0  0
 34 73  1  0  0  0  0
 34 83  2  0  0  0  0
 35 68  1  0  0  0  0
 35 78  1  0  0  0  0
 35 84  2  0  0  0  0
 36 74  1  0  0  0  0
 36 79  1  0  0  0  0
 36 85  2  0  0  0  0
 37 40  1  0  0  0  0
 38 51  1  0  0  0  0
 39 73  1  0  0  0  0
 40 44  1  0  0  0  0
 41 42  1  0  0  0  0
 41 45  1  0  0  0  0
 42 46  1  0  0  0  0
 43 47  1  0  0  0  0
 43 48  1  0  0  0  0
 44 50  1  0  0  0  0
 45 52  1  0  0  0  0
 46 52  1  0  0  0  0
 47 53  1  0  0  0  0
 48 74  1  0  0  0  0
 49 53  1  0  0  0  0
 49 74  1  0  0  0  0
 50 77  1  0  0  0  0
 51 73  1  0  0  0  0
 52 66  1  0  0  0  0
 53 72  1  0  0  0  0
 54 65  1  0  0  0  0
 55 66  1  0  0  0  0
 56 68  1  0  0  0  0
 57 69  1  0  0  0  0
 58 69  1  0  0  0  0
 59 69  1  0  0  0  0
 60 80  1  0  0  0  0
 61 64  1  0  0  0  0
 61 65  1  0  0  0  0
 62 63  1  0  0  0  0
 62 71  1  0  0  0  0
 63 79  1  0  0  0  0
 64 87  1  0  0  0  0
 67 69  1  0  0  0  0
 67 78  1  0  0  0  0
 68 80  1  0  0  0  0
 70 72  1  0  0  0  0
M  CHG  1  80   1
M  ISO  4  36 100  64 101  79 100  87 101
M  END
> <Batch ID>
0109

> <Smiles>
CNC(C)C(=O)NC(C(=O)N1Cc2cc([101O:1][101CH2:1]CC(C)c3cc(C(C)C4CCCC4)n(CC[100NH:0][100C:0](=O)N4CCCC(n5nc(-c6ccc(Oc7ccc(F)cc7F)cc6)c(C(N)=O)c5N)C4)c3)ccc2CC1C(=O)NC1CCCc2ccccc21)C(C)(C)C

> <Shape>
0.252

> <Color>
0.066

> <Negative vol penalty>
0.000

$$$$

  -OEChem-04052319563D

 80 88  0     1  0  0  0  0  0999 V2000
  -24.9953  -11.2906   20.2818 C   0  0  0  0  0  0  0  0  0  0  0  0
  -24.0837  -12.2337   19.8182 C   0  0  0  0  0  0  0  0  0  0  0  0
  -29.4786  -28.7977   20.9262 C   0  0  0  0  0  0  0  0  0  0  0  0
  -28.4858  -26.7433   21.7205 C   0  0  0  0  0  0  0  0  0  0  0  0
  -26.0230  -11.6792   21.1401 C   0  0  0  0  0  0  0  0  0  0  0  0
  -24.1987  -13.5660   20.2136 C   0  0  0  0  0  0  0  0  0  0  0  0
  -23.0720  -20.2197   17.8106 C   0  0  0  0  0  0  0  0  0  0  0  0
  -30.6594  -28.4880   21.6010 C   0  0  0  0  0  0  0  0  0  0  0  0
  -29.6667  -26.4336   22.3953 C   0  0  0  0  0  0  0  0  0  0  0  0
  -22.4278  -21.4015   18.1741 C   0  0  0  0  0  0  0  0  0  0  0  0
  -31.8257  -28.6247   24.7704 C   0  0  0  0  0  0  0  0  0  0  0  0
  -32.4365  -29.6405   25.5057 C   0  0  0  0  0  0  0  0  0  0  0  0
  -24.2903  -21.9721   19.5970 C   0  0  0  0  0  0  0  0  0  0  0  0
  -34.4233  -29.4292   24.1473 C   0  0  0  0  0  0  0  0  0  0  0  0
  -28.3918  -27.9253   20.9860 C   0  0  0  0  0  0  0  0  0  0  0  0
  -26.8310  -27.8984   18.9683 C   0  0  0  0  0  0  0  0  0  0  0  0
  -26.1564  -13.0187   21.5386 C   0  0  0  0  0  0  0  0  0  0  0  0
  -24.3275  -19.8995   18.3469 C   0  0  0  0  0  0  0  0  0  0  0  0
  -25.2283  -13.9727   21.0792 C   0  0  0  0  0  0  0  0  0  0  0  0
  -24.9495  -20.7869   19.2368 C   0  0  0  0  0  0  0  0  0  0  0  0
  -30.7535  -27.3060   22.3355 C   0  0  0  0  0  0  0  0  0  0  0  0
  -23.0356  -22.2765   19.0697 C   0  0  0  0  0  0  0  0  0  0  0  0
  -32.5137  -28.0111   23.7235 C   0  0  0  0  0  0  0  0  0  0  0  0
  -33.7353  -30.0427   25.1942 C   0  0  0  0  0  0  0  0  0  0  0  0
  -33.8124  -28.4134   23.4120 C   0  0  0  0  0  0  0  0  0  0  0  0
  -27.1715  -28.2449   20.2896 C   0  0  0  0  0  0  0  0  0  0  0  0
  -25.5786  -28.4318   18.7853 C   0  0  0  0  0  0  0  0  0  0  0  0
  -27.5798  -27.1602   17.9936 C   0  0  0  0  0  0  0  0  0  0  0  0
  -25.4598  -17.5425   20.1541 C   0  0  0  0  0  0  0  0  0  0  0  0
  -28.3061  -18.9835   19.5674 C   0  0  0  0  0  0  0  0  0  0  0  0
  -29.9948  -21.8277   18.7273 C   0  0  0  0  0  0  0  0  0  0  0  0
  -21.1599  -29.8537   22.5674 C   0  0  0  0  0  0  0  0  0  0  0  0
  -27.2553  -13.3825   22.5054 C   0  0  0  0  0  0  0  0  0  0  0  0
  -25.0212  -18.6337   17.9241 C   0  0  0  0  0  0  0  0  0  0  0  0
  -26.3058  -20.4993   19.8252 C   0  0  0  0  0  0  0  0  0  0  0  0
  -27.5304  -14.8822   22.5785 C   0  0  0  0  0  0  0  0  0  0  0  0
  -22.7870  -32.0256   20.2626 C   0  0  0  0  0  0  0  0  0  0  0  0
  -18.6328  -26.6010   19.3482 C   0  0  0  0  0  0  0  0  0  0  0  0
  -26.2231  -15.6597   22.6947 C   0  0  0  0  0  0  0  0  0  0  0  0
  -19.2205  -25.3180   18.7699 C   0  0  0  0  0  0  0  0  0  0  0  0
  -24.0645  -31.2717   19.8889 C   0  0  0  0  0  0  0  0  0  0  0  0
  -22.4170  -31.8168   21.7294 C   0  0  0  0  0  0  0  0  0  0  0  0
  -23.5945  -29.6523   21.7745 C   0  0  0  0  0  0  0  0  0  0  0  0
  -18.5739  -26.5607   20.8676 C   0  0  0  0  0  0  0  0  0  0  0  0
  -20.5171  -24.9725   20.9084 C   0  0  0  0  0  0  0  0  0  0  0  0
  -25.3346  -15.4319   21.4658 C   0  0  1  0  0  0  0  0  0  0  0  0
  -26.0686  -18.1623   18.9282 C   0  0  1  0  0  0  0  0  0  0  0  0
  -20.5913  -25.0068   19.3809 C   0  0  1  0  0  0  0  0  0  0  0  0
  -23.9772  -29.7870   20.2907 C   0  0  2  0  0  0  0  0  0  0  0  0
  -32.3177  -22.7046   18.3630 C   0  0  0  0  0  0  0  0  0  0  0  0
  -28.7492  -19.0565   22.5854 C   0  0  0  0  0  0  0  0  0  0  0  0
  -30.5602  -20.7436   22.2085 C   0  0  0  0  0  0  0  0  0  0  0  0
  -30.7740  -18.4514   21.2480 C   0  0  0  0  0  0  0  0  0  0  0  0
  -29.4183  -22.5138   15.9067 C   0  0  0  0  0  0  0  0  0  0  0  0
  -21.1298  -23.6814   18.8453 C   0  0  0  0  0  0  0  0  0  1  0  0
  -20.0289  -27.7943   23.3666 C   0  0  0  0  0  0  0  0  0  0  0  0
  -19.9742  -26.3457   22.9183 C   0  0  0  0  0  0  0  0  0  0  0  0
  -29.1135  -20.0685   20.2382 C   0  0  1  0  0  0  0  0  0  0  0  0
  -31.0921  -22.0844   17.7102 C   0  0  2  0  0  0  0  0  0  0  0  0
  -29.7728  -19.5848   21.5606 C   0  0  0  0  0  0  0  0  0  0  0  0
  -26.2130  -28.9446   20.9025 N   0  0  0  0  0  0  0  0  0  0  0  0
  -25.2578  -29.0420   19.9621 N   0  0  0  0  0  0  0  0  0  0  0  0
  -26.9408  -19.2458   19.3858 N   0  0  0  0  0  0  0  0  0  0  0  0
  -22.3493  -30.3879   22.0449 N   0  0  0  0  0  0  0  0  0  0  0  0
  -24.7316  -28.4338   17.7341 N   0  0  0  0  0  0  0  0  0  0  0  0
  -28.8497  -26.6840   18.3469 N   0  0  0  0  0  0  0  0  0  0  0  0
  -25.8075  -16.2191   20.3473 N   0  0  0  0  0  0  0  0  0  0  0  0
  -30.0615  -20.5489   19.2387 N   0  0  0  0  0  0  0  0  0  0  0  0
  -21.1786  -28.4899   22.8326 N   0  0  0  0  0  0  0  0  0  0  0  0
  -19.9515  -26.2785   21.4158 N   0  3  2  0  0  0  0  0  0  0  0  0
  -30.6070  -23.0094   16.6472 N   0  3  0  0  0  0  0  0  0  0  0  0
  -27.1427  -26.9437   16.8379 O   0  0  0  0  0  0  0  0  0  0  0  0
  -24.7299  -18.2155   20.8724 O   0  0  0  0  0  0  0  0  0  0  0  0
  -28.8676  -17.9446   19.2110 O   0  0  0  0  0  0  0  0  0  0  0  0
  -29.1640  -22.6778   19.0397 O   0  0  0  0  0  0  0  0  0  0  0  0
  -20.1540  -30.5402   22.7767 O   0  0  0  0  0  0  0  0  0  0  0  0
  -31.9056  -27.0034   22.9939 O   0  0  0  0  0  0  0  0  0  0  0  0
  -22.4087  -23.4304   19.4267 O   0  0  0  0  0  0  0  0  0  1  0  0
  -34.3212  -31.0193   25.8994 F   0  0  0  0  0  0  0  0  0  0  0  0
  -34.4780  -27.8285   22.4066 F   0  0  0  0  0  0  0  0  0  0  0  0
  1  2  1  0  0  0  0
  1  5  2  0  0  0  0
  2  6  2  0  0  0  0
  3  8  2  0  0  0  0
  3 15  1  0  0  0  0
  4  9  1  0  0  0  0
  4 15  2  0  0  0  0
  5 17  1  0  0  0  0
  6 19  1  0  0  0  0
  7 10  2  0  0  0  0
  7 18  1  0  0  0  0
  8 21  1  0  0  0  0
  9 21  2  0  0  0  0
 10 22  1  0  0  0  0
 11 12  2  0  0  0  0
 11 23  1  0  0  0  0
 12 24  1  0  0  0  0
 13 20  1  0  0  0  0
 13 22  2  0  0  0  0
 14 24  2  0  0  0  0
 14 25  1  0  0  0  0
 15 26  1  0  0  0  0
 16 26  1  0  0  0  0
 16 27  2  0  0  0  0
 16 28  1  0  0  0  0
 17 19  2  0  0  0  0
 17 33  1  0  0  0  0
 18 20  2  0  0  0  0
 18 34  1  0  0  0  0
 19 46  1  0  0  0  0
 20 35  1  0  0  0  0
 21 77  1  0  0  0  0
 22 78  1  0  0  0  0
 23 25  2  0  0  0  0
 23 77  1  0  0  0  0
 24 79  1  0  0  0  0
 25 80  1  0  0  0  0
 26 61  2  0  0  0  0
 27 62  1  0  0  0  0
 27 65  1  0  0  0  0
 28 66  1  0  0  0  0
 28 72  2  0  0  0  0
 29 47  1  0  0  0  0
 29 67  1  0  0  0  0
 29 73  2  0  0  0  0
 30 58  1  0  0  0  0
 30 63  1  0  0  0  0
 30 74  2  0  0  0  0
 31 59  1  0  0  0  0
 31 68  1  0  0  0  0
 31 75  2  0  0  0  0
 32 64  1  0  0  0  0
 32 69  1  0  0  0  0
 32 76  2  0  0  0  0
 33 36  1  0  0  0  0
 34 47  1  0  0  0  0
 35 63  1  0  0  0  0
 36 39  1  0  0  0  0
 37 41  1  0  0  0  0
 37 42  1  0  0  0  0
 38 40  1  0  0  0  0
 38 44  1  0  0  0  0
 39 46  1  0  0  0  0
 40 48  1  0  0  0  0
 41 49  1  0  0  0  0
 42 64  1  0  0  0  0
 43 49  1  0  0  0  0
 43 64  1  0  0  0  0
 44 70  1  0  0  0  0
 45 48  1  0  0  0  0
 45 70  1  0  0  0  0
 46 67  1  0  0  0  0
 47 63  1  0  0  0  0
 48 55  1  0  0  0  0
 49 62  1  0  0  0  0
 50 59  1  0  0  0  0
 51 60  1  0  0  0  0
 52 60  1  0  0  0  0
 53 60  1  0  0  0  0
 54 71  1  0  0  0  0
 55 78  1  0  0  0  0
 56 57  1  0  0  0  0
 56 69  1  0  0  0  0
 57 70  1  0  0  0  0
 58 60  1  0  0  0  0
 58 68  1  0  0  0  0
 59 71  1  0  0  0  0
 61 62  1  0  0  0  0
M  CHG  2  70   1  71   1
M  ISO  4  32 100  55 101  69 100  78 101
M  END
> <Batch ID>
0109

> <Smiles>
CNC(C)C(=O)NC(C(=O)N1Cc2cc([101O:1][101CH2:1]C3CCCN(CC[100NH:0][100C:0](=O)N4CCCC(n5nc(-c6ccc(Oc7ccc(F)cc7F)cc6)c(C(N)=O)c5N)C4)C3)ccc2CC1C(=O)NC1CCCc2ccccc21)C(C)(C)C

> <Shape>
0.216

> <Color>
0.065

> <Negative vol penalty>
0.000

$$$$

  -OEChem-04052319563D

 81 89  0     1  0  0  0  0  0999 V2000
  -23.5005  -24.1291   18.1660 C   0  0  0  0  0  0  0  0  0  0  0  0
  -24.1668  -22.9202   18.3391 C   0  0  0  0  0  0  0  0  0  0  0  0
  -27.6357  -25.9727   17.6709 C   0  0  0  0  0  0  0  0  0  0  0  0
  -27.1739  -25.4376   19.9812 C   0  0  0  0  0  0  0  0  0  0  0  0
  -23.1853  -24.9149   19.2737 C   0  0  0  0  0  0  0  0  0  0  0  0
  -24.5193  -22.4969   19.6201 C   0  0  0  0  0  0  0  0  0  0  0  0
  -23.4757  -17.6041   20.4052 C   0  0  0  0  0  0  0  0  0  0  0  0
  -26.6393  -26.9483   17.6977 C   0  0  0  0  0  0  0  0  0  0  0  0
  -26.1775  -26.4133   20.0080 C   0  0  0  0  0  0  0  0  0  0  0  0
  -24.3566  -16.6700   19.8620 C   0  0  0  0  0  0  0  0  0  0  0  0
  -25.9934  -29.7764   20.2840 C   0  0  0  0  0  0  0  0  0  0  0  0
  -25.9533  -30.6295   21.3868 C   0  0  0  0  0  0  0  0  0  0  0  0
  -28.9120  -11.9151   19.1221 C   0  0  0  0  0  0  0  0  0  0  0  0
  -25.4037  -16.4115   22.0198 C   0  0  0  0  0  0  0  0  0  0  0  0
  -23.7188  -29.8653   21.8967 C   0  0  0  0  0  0  0  0  0  0  0  0
  -29.8561  -12.9147   19.2048 C   0  0  0  0  0  0  0  0  0  0  0  0
  -27.9031  -25.2173   18.8127 C   0  0  0  0  0  0  0  0  0  0  0  0
  -30.2946  -24.3761   19.0969 C   0  0  0  0  0  0  0  0  0  0  0  0
  -23.5255  -24.4964   20.5698 C   0  0  0  0  0  0  0  0  0  0  0  0
  -23.5593  -17.9576   21.7597 C   0  0  0  0  0  0  0  0  0  0  0  0
  -24.2095  -23.2785   20.7461 C   0  0  0  0  0  0  0  0  0  0  0  0
  -24.5210  -17.3485   22.5784 C   0  0  0  0  0  0  0  0  0  0  0  0
  -27.7486  -12.3760   19.7862 C   0  0  0  0  0  0  0  0  0  0  0  0
  -25.9101  -27.1686   18.8662 C   0  0  0  0  0  0  0  0  0  0  0  0
  -25.3227  -16.0757   20.6686 C   0  0  0  0  0  0  0  0  0  0  0  0
  -24.8962  -28.9678   19.9875 C   0  0  0  0  0  0  0  0  0  0  0  0
  -24.8160  -30.6740   22.1932 C   0  0  0  0  0  0  0  0  0  0  0  0
  -23.7589  -29.0122   20.7939 C   0  0  0  0  0  0  0  0  0  0  0  0
  -28.9319  -24.2089   18.7855 C   0  0  0  0  0  0  0  0  0  0  0  0
  -28.0171  -13.6434   20.2544 C   0  0  0  0  0  0  0  0  0  0  0  0
  -30.8430  -23.1296   18.9187 C   0  0  0  0  0  0  0  0  0  0  0  0
  -31.0014  -25.5531   19.5102 C   0  0  0  0  0  0  0  0  0  0  0  0
  -24.1467  -20.6505   23.3429 C   0  0  0  0  0  0  0  0  0  0  0  0
  -23.4209  -18.8307   25.9282 C   0  0  0  0  0  0  0  0  0  0  0  0
  -23.2097  -15.7190   27.3137 C   0  0  0  0  0  0  0  0  0  0  0  0
  -29.5404  -17.6510   19.7523 C   0  0  0  0  0  0  0  0  0  0  0  0
  -23.2058  -25.4023   21.7325 C   0  0  0  0  0  0  0  0  0  0  0  0
  -22.5843  -18.9470   22.3365 C   0  0  0  0  0  0  0  0  0  0  0  0
  -24.6392  -17.6784   24.0432 C   0  0  0  0  0  0  0  0  0  0  0  0
  -23.2821  -24.7038   23.0877 C   0  0  0  0  0  0  0  0  0  0  0  0
  -29.5275  -19.0661   16.4245 C   0  0  0  0  0  0  0  0  0  0  0  0
  -24.5578  -23.8738   23.1895 C   0  0  0  0  0  0  0  0  0  0  0  0
  -29.5067  -20.5650   16.7308 C   0  0  0  0  0  0  0  0  0  0  0  0
  -28.6752  -18.2873   17.4217 C   0  0  0  0  0  0  0  0  0  0  0  0
  -29.0239  -20.0014   19.1581 C   0  0  0  0  0  0  0  0  0  0  0  0
  -24.5867  -22.7734   22.1219 C   0  0  1  0  0  0  0  0  0  0  0  0
  -23.0930  -19.6136   23.6110 C   0  0  1  0  0  0  0  0  0  0  0  0
  -29.8842  -20.8431   18.1981 C   0  0  2  0  0  0  0  0  0  0  0  0
  -26.6514  -10.3248   20.7568 C   0  0  0  0  0  0  0  0  0  0  0  0
  -25.8040  -11.3035   18.5937 C   0  0  0  0  0  0  0  0  0  0  0  0
  -22.6213  -14.5525   29.4562 C   0  0  0  0  0  0  0  0  0  0  0  0
  -26.0915  -19.6910   27.1272 C   0  0  0  0  0  0  0  0  0  0  0  0
  -25.8850  -17.8064   28.7624 C   0  0  0  0  0  0  0  0  0  0  0  0
  -24.1890  -19.6357   28.7495 C   0  0  0  0  0  0  0  0  0  0  0  0
  -21.0056  -14.2201   26.0276 C   0  0  0  0  0  0  0  0  0  0  0  0
  -27.1491  -14.5946   21.0245 C   0  0  0  0  0  0  0  0  0  1  0  0
  -30.0083  -15.2498   20.2009 C   0  0  0  0  0  0  0  0  0  0  0  0
  -26.4849  -11.6291   19.9433 C   0  0  0  0  0  0  0  0  0  0  0  0
  -24.2052  -17.9472   26.8679 C   0  0  1  0  0  0  0  0  0  0  0  0
  -22.1085  -15.0443   28.1116 C   0  0  2  0  0  0  0  0  0  0  0  0
  -25.0920  -18.7651   27.8488 C   0  0  0  0  0  0  0  0  0  0  0  0
  -28.6330  -22.9549   18.4359 N   0  0  0  0  0  0  0  0  0  0  0  0
  -29.3009  -13.9606   19.8949 N   0  0  0  0  0  0  0  0  0  0  0  0
  -29.8156  -22.3229   18.5264 N   0  0  0  0  0  0  0  0  0  0  0  0
  -23.6672  -18.6565   24.5589 N   0  0  0  0  0  0  0  0  0  0  0  0
  -29.0998  -18.5821   18.7974 N   0  0  0  0  0  0  0  0  0  0  0  0
  -32.0991  -22.6557   19.0607 N   0  0  0  0  0  0  0  0  0  0  0  0
  -30.2851  -26.7504   19.6436 N   0  0  0  0  0  0  0  0  0  0  0  0
  -23.7322  -21.6713   22.5088 N   0  0  0  0  0  0  0  0  0  0  0  0
  -23.2307  -17.0817   27.5233 N   0  0  0  0  0  0  0  0  0  0  0  0
  -29.5721  -16.3274   19.3287 N   0  0  0  0  0  0  0  0  0  0  0  0
  -21.5652  -13.8775   27.3604 N   0  3  0  0  0  0  0  0  0  0  0  0
  -32.2349  -25.5470   19.7383 O   0  0  0  0  0  0  0  0  0  0  0  0
  -25.2535  -20.5340   23.8560 O   0  0  0  0  0  0  0  0  0  0  0  0
  -22.6139  -19.6405   26.3916 O   0  0  0  0  0  0  0  0  0  0  0  0
  -23.9770  -15.0988   26.5808 O   0  0  0  0  0  0  0  0  0  0  0  0
  -29.8828  -17.9745   20.8945 O   0  0  0  0  0  0  0  0  0  0  0  0
  -24.9378  -28.1208   18.8928 O   0  0  0  0  0  0  0  0  0  0  0  0
  -26.1843  -15.1641   20.1407 O   0  0  0  0  0  0  0  0  0  1  0  0
  -24.7783  -31.4921   23.2531 F   0  0  0  0  0  0  0  0  0  0  0  0
  -22.7021  -28.2369   20.5147 F   0  0  0  0  0  0  0  0  0  0  0  0
  1  2  1  0  0  0  0
  1  5  2  0  0  0  0
  2  6  2  0  0  0  0
  3  8  2  0  0  0  0
  3 17  1  0  0  0  0
  4  9  1  0  0  0  0
  4 17  2  0  0  0  0
  5 19  1  0  0  0  0
  6 21  1  0  0  0  0
  7 10  2  0  0  0  0
  7 20  1  0  0  0  0
  8 24  1  0  0  0  0
  9 24  2  0  0  0  0
 10 25  1  0  0  0  0
 11 12  2  0  0  0  0
 11 26  1  0  0  0  0
 12 27  1  0  0  0  0
 13 16  2  0  0  0  0
 13 23  1  0  0  0  0
 14 22  1  0  0  0  0
 14 25  2  0  0  0  0
 15 27  2  0  0  0  0
 15 28  1  0  0  0  0
 16 63  1  0  0  0  0
 17 29  1  0  0  0  0
 18 29  1  0  0  0  0
 18 31  2  0  0  0  0
 18 32  1  0  0  0  0
 19 21  2  0  0  0  0
 19 37  1  0  0  0  0
 20 22  2  0  0  0  0
 20 38  1  0  0  0  0
 21 46  1  0  0  0  0
 22 39  1  0  0  0  0
 23 30  2  0  0  0  0
 23 58  1  0  0  0  0
 24 78  1  0  0  0  0
 25 79  1  0  0  0  0
 26 28  2  0  0  0  0
 26 78  1  0  0  0  0
 27 80  1  0  0  0  0
 28 81  1  0  0  0  0
 29 62  2  0  0  0  0
 30 56  1  0  0  0  0
 30 63  1  0  0  0  0
 31 64  1  0  0  0  0
 31 67  1  0  0  0  0
 32 68  1  0  0  0  0
 32 73  2  0  0  0  0
 33 47  1  0  0  0  0
 33 69  1  0  0  0  0
 33 74  2  0  0  0  0
 34 59  1  0  0  0  0
 34 65  1  0  0  0  0
 34 75  2  0  0  0  0
 35 60  1  0  0  0  0
 35 70  1  0  0  0  0
 35 76  2  0  0  0  0
 36 66  1  0  0  0  0
 36 71  1  0  0  0  0
 36 77  2  0  0  0  0
 37 40  1  0  0  0  0
 38 47  1  0  0  0  0
 39 65  1  0  0  0  0
 40 42  1  0  0  0  0
 41 43  1  0  0  0  0
 41 44  1  0  0  0  0
 42 46  1  0  0  0  0
 43 48  1  0  0  0  0
 44 66  1  0  0  0  0
 45 48  1  0  0  0  0
 45 66  1  0  0  0  0
 46 69  1  0  0  0  0
 47 65  1  0  0  0  0
 48 64  1  0  0  0  0
 49 58  1  0  0  0  0
 50 58  1  0  0  0  0
 51 60  1  0  0  0  0
 52 61  1  0  0  0  0
 53 61  1  0  0  0  0
 54 61  1  0  0  0  0
 55 72  1  0  0  0  0
 56 79  1  0  0  0  0
 57 63  1  0  0  0  0
 57 71  1  0  0  0  0
 59 61  1  0  0  0  0
 59 70  1  0  0  0  0
 60 72  1  0  0  0  0
 62 64  1  0  0  0  0
M  CHG  1  72   1
M  ISO  4  36 100  56 101  71 100  79 101
M  END
> <Batch ID>
0109

> <Smiles>
CNC(C)C(=O)NC(C(=O)N1Cc2cc([101O:1][101CH2:1]c3c(C(C)C)ccn3C[100NH:0][100C:0](=O)N3CCCC(n4nc(-c5ccc(Oc6ccc(F)cc6F)cc5)c(C(N)=O)c4N)C3)ccc2CC1C(=O)NC1CCCc2ccccc21)C(C)(C)C

> <Shape>
0.198

> <Color>
0.067

> <Negative vol penalty>
0.000

$$$$

  -OEChem-04052319563D

 81 88  0     1  0  0  0  0  0999 V2000
  -19.7081  -23.9985   22.8860 C   0  0  0  0  0  0  0  0  0  0  0  0
  -20.8878  -24.3329   22.2288 C   0  0  0  0  0  0  0  0  0  0  0  0
  -27.1394  -14.8272   21.5156 C   0  0  0  0  0  0  0  0  0  0  0  0
  -26.6871  -14.8933   19.1432 C   0  0  0  0  0  0  0  0  0  0  0  0
  -18.7914  -24.9944   23.2204 C   0  0  0  0  0  0  0  0  0  0  0  0
  -21.1510  -25.6633   21.9048 C   0  0  0  0  0  0  0  0  0  0  0  0
  -25.9081  -27.0217   22.9864 C   0  0  0  0  0  0  0  0  0  0  0  0
  -26.6435  -13.5248   21.5739 C   0  0  0  0  0  0  0  0  0  0  0  0
  -26.1912  -13.5908   19.2015 C   0  0  0  0  0  0  0  0  0  0  0  0
  -26.9036  -26.6160   22.0986 C   0  0  0  0  0  0  0  0  0  0  0  0
  -27.7273  -10.4109   20.8243 C   0  0  0  0  0  0  0  0  0  0  0  0
  -28.4612   -9.4696   21.5460 C   0  0  0  0  0  0  0  0  0  0  0  0
  -26.8968  -28.8108   21.0975 C   0  0  0  0  0  0  0  0  0  0  0  0
  -26.5670   -9.1090   23.0018 C   0  0  0  0  0  0  0  0  0  0  0  0
  -27.1611  -15.5115   20.3003 C   0  0  0  0  0  0  0  0  0  0  0  0
  -29.0023  -17.2509   19.9968 C   0  0  0  0  0  0  0  0  0  0  0  0
  -19.0480  -26.3389   22.9089 C   0  0  0  0  0  0  0  0  0  0  0  0
  -25.3909  -28.3239   22.9291 C   0  0  0  0  0  0  0  0  0  0  0  0
  -20.2363  -26.6780   22.2341 C   0  0  0  0  0  0  0  0  0  0  0  0
  -25.8966  -29.2313   21.9873 C   0  0  0  0  0  0  0  0  0  0  0  0
  -26.1695  -12.9066   20.4169 C   0  0  0  0  0  0  0  0  0  0  0  0
  -27.3961  -27.5097   21.1521 C   0  0  0  0  0  0  0  0  0  0  0  0
  -26.4133  -10.7014   21.1914 C   0  0  0  0  0  0  0  0  0  0  0  0
  -27.8811   -8.8186   22.6348 C   0  0  0  0  0  0  0  0  0  0  0  0
  -25.8332  -10.0504   22.2801 C   0  0  0  0  0  0  0  0  0  0  0  0
  -27.6727  -16.8571   20.2395 C   0  0  0  0  0  0  0  0  0  0  0  0
  -28.9673  -18.6233   20.0408 C   0  0  0  0  0  0  0  0  0  0  0  0
  -30.1649  -16.4481   19.7533 C   0  0  0  0  0  0  0  0  0  0  0  0
  -22.5248  -29.5761   22.3624 C   0  0  0  0  0  0  0  0  0  0  0  0
  -24.0115  -32.3496   23.1497 C   0  0  0  0  0  0  0  0  0  0  0  0
  -26.9288  -34.1023   23.4035 C   0  0  0  0  0  0  0  0  0  0  0  0
  -26.5638  -23.4762   18.6926 C   0  0  0  0  0  0  0  0  0  0  0  0
  -18.0054  -27.3744   23.2484 C   0  0  0  0  0  0  0  0  0  0  0  0
  -24.3361  -28.7541   23.9114 C   0  0  0  0  0  0  0  0  0  0  0  0
  -25.3892  -30.6466   21.8979 C   0  0  0  0  0  0  0  0  0  0  0  0
  -18.5320  -28.8065   23.2033 C   0  0  0  0  0  0  0  0  0  0  0  0
  -25.3164  -21.7766   21.5618 C   0  0  0  0  0  0  0  0  0  0  0  0
  -19.3457  -29.0364   21.9337 C   0  0  0  0  0  0  0  0  0  0  0  0
  -25.9226  -20.3767   21.4500 C   0  0  0  0  0  0  0  0  0  0  0  0
  -24.9496  -22.3438   20.1921 C   0  0  0  0  0  0  0  0  0  0  0  0
  -26.6532  -20.9411   19.0949 C   0  0  0  0  0  0  0  0  0  0  0  0
  -20.5691  -28.1130   21.8877 C   0  0  1  0  0  0  0  0  0  0  0  0
  -23.5189  -29.9474   23.4262 C   0  0  1  0  0  0  0  0  0  0  0  0
  -27.0908  -20.3500   20.4460 C   0  0  2  0  0  0  0  0  0  0  0  0
  -27.7604  -23.5330   14.8566 C   0  0  0  0  0  0  0  0  0  0  0  0
  -27.8219  -36.3591   24.0412 C   0  0  0  0  0  0  0  0  0  0  0  0
  -31.2165  -27.6936   20.3375 C   0  0  0  0  0  0  0  0  0  0  0  0
  -23.0155  -33.4897   20.5006 C   0  0  0  0  0  0  0  0  0  0  0  0
  -24.6842  -35.3395   20.7492 C   0  0  0  0  0  0  0  0  0  0  0  0
  -22.8672  -35.0662   22.4363 C   0  0  0  0  0  0  0  0  0  0  0  0
  -28.5702  -32.9641   25.5873 C   0  0  0  0  0  0  0  0  0  0  0  0
  -31.8415  -23.8827   18.2974 C   0  0  0  0  0  0  0  0  0  0  0  0
  -27.5804  -24.7029   15.8158 C   0  0  0  0  0  0  0  0  0  0  0  0
  -30.5686  -26.0084   18.5458 C   0  0  0  0  0  0  0  0  0  0  0  0
  -29.7587  -24.2479   16.9820 C   0  0  0  0  0  0  0  0  0  0  0  0
  -29.2803  -26.1185   20.7395 C   0  0  0  0  0  0  0  0  0  1  0  0
  -24.7743  -33.4070   22.3889 C   0  0  1  0  0  0  0  0  0  0  0  0
  -27.4981  -34.9537   24.5239 C   0  0  2  0  0  0  0  0  0  0  0  0
  -30.6369  -26.3043   20.0484 C   0  0  2  0  0  0  0  0  0  0  0  0
  -28.2580  -24.4674   17.1740 C   0  0  2  0  0  0  0  0  0  0  0  0
  -23.8437  -34.2984   21.5189 C   0  0  0  0  0  0  0  0  0  0  0  0
  -26.8529  -17.8953   20.4242 N   0  0  0  0  0  0  0  0  0  0  0  0
  -27.6696  -18.9551   20.2976 N   0  0  0  0  0  0  0  0  0  0  0  0
  -24.3533  -31.0176   22.8760 N   0  0  0  0  0  0  0  0  0  0  0  0
  -26.1010  -22.2911   19.2880 N   0  0  0  0  0  0  0  0  0  0  0  0
  -29.9204  -19.5665   19.8846 N   0  0  0  0  0  0  0  0  0  0  0  0
  -30.0236  -15.0537   19.7421 N   0  0  0  0  0  0  0  0  0  0  0  0
  -21.6136  -28.6144   22.7550 N   0  0  0  0  0  0  0  0  0  0  0  0
  -25.5507  -34.1433   23.3806 N   0  0  0  0  0  0  0  0  0  0  0  0
  -27.6633  -23.3386   17.8543 N   0  0  0  0  0  0  0  0  0  0  0  0
  -28.7474  -34.3404   25.0569 N   0  3  0  0  0  0  0  0  0  0  0  0
  -30.4901  -24.5548   18.2664 N   0  3  1  0  0  0  0  0  0  0  0  0
  -31.2987  -16.9517   19.5678 O   0  0  0  0  0  0  0  0  0  0  0  0
  -22.5795  -30.1228   21.2670 O   0  0  0  0  0  0  0  0  0  0  0  0
  -23.1493  -32.6929   23.9624 O   0  0  0  0  0  0  0  0  0  0  0  0
  -27.6359  -33.4675   22.6240 O   0  0  0  0  0  0  0  0  0  0  0  0
  -26.0394  -24.5762   18.8973 O   0  0  0  0  0  0  0  0  0  0  0  0
  -25.6858  -11.6356   20.4734 O   0  0  0  0  0  0  0  0  0  0  0  0
  -28.3673  -27.1161   20.2839 O   0  0  0  0  0  0  0  0  0  1  0  0
  -28.5854   -7.9135   23.3268 F   0  0  0  0  0  0  0  0  0  0  0  0
  -24.5708  -10.3243   22.6367 F   0  0  0  0  0  0  0  0  0  0  0  0
  1  2  1  0  0  0  0
  1  5  2  0  0  0  0
  2  6  2  0  0  0  0
  3  8  2  0  0  0  0
  3 15  1  0  0  0  0
  4  9  1  0  0  0  0
  4 15  2  0  0  0  0
  5 17  1  0  0  0  0
  6 19  1  0  0  0  0
  7 10  2  0  0  0  0
  7 18  1  0  0  0  0
  8 21  1  0  0  0  0
  9 21  2  0  0  0  0
 10 22  1  0  0  0  0
 11 12  2  0  0  0  0
 11 23  1  0  0  0  0
 12 24  1  0  0  0  0
 13 20  1  0  0  0  0
 13 22  2  0  0  0  0
 14 24  2  0  0  0  0
 14 25  1  0  0  0  0
 15 26  1  0  0  0  0
 16 26  1  0  0  0  0
 16 27  2  0  0  0  0
 16 28  1  0  0  0  0
 17 19  2  0  0  0  0
 17 33  1  0  0  0  0
 18 20  2  0  0  0  0
 18 34  1  0  0  0  0
 19 42  1  0  0  0  0
 20 35  1  0  0  0  0
 21 78  1  0  0  0  0
 22 79  1  0  0  0  0
 23 25  2  0  0  0  0
 23 78  1  0  0  0  0
 24 80  1  0  0  0  0
 25 81  1  0  0  0  0
 26 62  2  0  0  0  0
 27 63  1  0  0  0  0
 27 66  1  0  0  0  0
 28 67  1  0  0  0  0
 28 73  2  0  0  0  0
 29 43  1  0  0  0  0
 29 68  1  0  0  0  0
 29 74  2  0  0  0  0
 30 57  1  0  0  0  0
 30 64  1  0  0  0  0
 30 75  2  0  0  0  0
 31 58  1  0  0  0  0
 31 69  1  0  0  0  0
 31 76  2  0  0  0  0
 32 65  1  0  0  0  0
 32 70  1  0  0  0  0
 32 77  2  0  0  0  0
 33 36  1  0  0  0  0
 34 43  1  0  0  0  0
 35 64  1  0  0  0  0
 36 38  1  0  0  0  0
 37 39  1  0  0  0  0
 37 40  1  0  0  0  0
 38 42  1  0  0  0  0
 39 44  1  0  0  0  0
 40 65  1  0  0  0  0
 41 44  1  0  0  0  0
 41 65  1  0  0  0  0
 42 68  1  0  0  0  0
 43 64  1  0  0  0  0
 44 63  1  0  0  0  0
 45 53  1  0  0  0  0
 46 58  1  0  0  0  0
 47 59  1  0  0  0  0
 48 61  1  0  0  0  0
 49 61  1  0  0  0  0
 50 61  1  0  0  0  0
 51 71  1  0  0  0  0
 52 72  1  0  0  0  0
 53 60  1  0  0  0  0
 54 59  1  0  0  0  0
 54 72  1  0  0  0  0
 55 60  1  0  0  0  0
 55 72  1  0  0  0  0
 56 59  1  0  0  0  0
 56 79  1  0  0  0  0
 57 61  1  0  0  0  0
 57 69  1  0  0  0  0
 58 71  1  0  0  0  0
 60 70  1  0  0  0  0
 62 63  1  0  0  0  0
M  CHG  2  71   1  72   1
M  ISO  4  32 100  56 101  70 100  79 101
M  END
> <Batch ID>
0109

> <Smiles>
CCC(CN(C)CC(C)[101CH2:1][101O:1]c1ccc2c(c1)CN(C(=O)C(NC(=O)C(C)NC)C(C)(C)C)C(C(=O)NC1CCCc3ccccc31)C2)[100NH:0][100C:0](=O)N1CCCC(n2nc(-c3ccc(Oc4ccc(F)cc4F)cc3)c(C(N)=O)c2N)C1

> <Shape>
0.272

> <Color>
0.095

> <Negative vol penalty>
0.000

$$$$

  -OEChem-04052319563D

 87 95  0     1  0  0  0  0  0999 V2000
  -24.7198  -18.1729   17.6373 C   0  0  0  0  0  0  0  0  0  0  0  0
  -25.5574  -18.8460   18.5208 C   0  0  0  0  0  0  0  0  0  0  0  0
  -23.0732   -9.8701   19.9389 C   0  0  0  0  0  0  0  0  0  0  0  0
  -23.8375   -9.8711   22.2308 C   0  0  0  0  0  0  0  0  0  0  0  0
  -30.2311  -18.9384   23.1578 C   0  0  0  0  0  0  0  0  0  0  0  0
  -24.3424  -18.7772   16.4388 C   0  0  0  0  0  0  0  0  0  0  0  0
  -26.0190  -20.1236   18.2059 C   0  0  0  0  0  0  0  0  0  0  0  0
  -25.7132  -23.3198   22.1219 C   0  0  0  0  0  0  0  0  0  0  0  0
  -22.3297   -8.7164   20.1873 C   0  0  0  0  0  0  0  0  0  0  0  0
  -23.0939   -8.7174   22.4792 C   0  0  0  0  0  0  0  0  0  0  0  0
  -26.6946  -23.2159   23.1067 C   0  0  0  0  0  0  0  0  0  0  0  0
  -19.8668   -7.9185   23.0859 C   0  0  0  0  0  0  0  0  0  0  0  0
  -19.1121   -7.8757   24.2582 C   0  0  0  0  0  0  0  0  0  0  0  0
  -29.7564  -17.7047   22.7264 C   0  0  0  0  0  0  0  0  0  0  0  0
  -27.8560  -25.0960   22.1394 C   0  0  0  0  0  0  0  0  0  0  0  0
  -20.3547   -5.9362   24.9873 C   0  0  0  0  0  0  0  0  0  0  0  0
  -23.8272  -10.4474   20.9606 C   0  0  0  0  0  0  0  0  0  0  0  0
  -31.4927  -19.3686   22.7621 C   0  0  0  0  0  0  0  0  0  0  0  0
  -24.1692  -12.9728   20.8464 C   0  0  0  0  0  0  0  0  0  0  0  0
  -24.7917  -20.0667   16.1134 C   0  0  0  0  0  0  0  0  0  0  0  0
  -25.8017  -24.3074   21.1303 C   0  0  0  0  0  0  0  0  0  0  0  0
  -25.6483  -20.7452   17.0013 C   0  0  0  0  0  0  0  0  0  0  0  0
  -26.8731  -25.2120   21.1446 C   0  0  0  0  0  0  0  0  0  0  0  0
  -22.3400   -8.1401   21.4575 C   0  0  0  0  0  0  0  0  0  0  0  0
  -27.7677  -24.1022   23.1139 C   0  0  0  0  0  0  0  0  0  0  0  0
  -20.8654   -6.9701   22.8643 C   0  0  0  0  0  0  0  0  0  0  0  0
  -19.3561   -6.8846   25.2089 C   0  0  0  0  0  0  0  0  0  0  0  0
  -21.1093   -5.9790   23.8149 C   0  0  0  0  0  0  0  0  0  0  0  0
  -24.5960  -11.6388   20.7044 C   0  0  0  0  0  0  0  0  0  0  0  0
  -32.2343  -18.5346   21.9410 C   0  0  0  0  0  0  0  0  0  0  0  0
  -30.5757  -16.9453   21.9068 C   0  0  0  0  0  0  0  0  0  0  0  0
  -25.2608  -13.7231   20.4829 C   0  0  0  0  0  0  0  0  0  0  0  0
  -33.1107  -20.8212   23.9497 C   0  0  0  0  0  0  0  0  0  0  0  0
  -31.9936  -20.6776   23.2212 C   0  0  0  0  0  0  0  0  0  0  0  0
  -22.8996  -13.4877   21.2691 C   0  0  0  0  0  0  0  0  0  0  0  0
  -26.0661  -24.2884   17.9628 C   0  0  0  0  0  0  0  0  0  0  0  0
  -25.7130  -27.4949   18.3036 C   0  0  0  0  0  0  0  0  0  0  0  0
  -26.0028  -30.2451   20.3033 C   0  0  0  0  0  0  0  0  0  0  0  0
  -30.7275  -14.7674   20.6497 C   0  0  0  0  0  0  0  0  0  0  0  0
  -24.3951  -20.6599   14.7848 C   0  0  0  0  0  0  0  0  0  0  0  0
  -24.7209  -24.4232   20.0907 C   0  0  0  0  0  0  0  0  0  0  0  0
  -27.0037  -26.3028   20.1144 C   0  0  0  0  0  0  0  0  0  0  0  0
  -24.6255  -22.1664   14.6972 C   0  0  0  0  0  0  0  0  0  0  0  0
  -29.6081  -12.3598   18.2774 C   0  0  0  0  0  0  0  0  0  0  0  0
  -26.0092  -22.5266   15.2287 C   0  0  0  0  0  0  0  0  0  0  0  0
  -28.1692  -12.0674   18.7090 C   0  0  0  0  0  0  0  0  0  0  0  0
  -30.5256  -12.5854   19.4779 C   0  0  0  0  0  0  0  0  0  0  0  0
  -28.6214  -13.3066   20.8647 C   0  0  0  0  0  0  0  0  0  0  0  0
  -26.1498  -22.1423   16.7066 C   0  0  1  0  0  0  0  0  0  0  0  0
  -25.1820  -25.1425   18.8269 C   0  0  1  0  0  0  0  0  0  0  0  0
  -27.6463  -13.1365   19.6883 C   0  0  2  0  0  0  0  0  0  0  0  0
  -33.5985  -18.9346   21.4789 C   0  0  0  0  0  0  0  0  0  0  0  0
  -25.6747  -32.7330   20.2910 C   0  0  0  0  0  0  0  0  0  0  0  0
  -33.1230  -23.0398   21.6923 C   0  0  0  0  0  0  0  0  0  0  0  0
  -30.7354  -23.2476   20.8984 C   0  0  0  0  0  0  0  0  0  0  0  0
  -28.2818  -27.8231   16.6901 C   0  0  0  0  0  0  0  0  0  0  0  0
  -28.4125  -30.1851   17.5099 C   0  0  0  0  0  0  0  0  0  0  0  0
  -26.4751  -29.4551   16.1184 C   0  0  0  0  0  0  0  0  0  0  0  0
  -23.9823  -30.1060   22.4615 C   0  0  0  0  0  0  0  0  0  0  0  0
  -30.4414  -22.6323   25.0420 C   0  0  0  0  0  0  0  0  0  0  0  0
  -31.4324  -22.8977   23.9187 C   0  0  0  0  0  0  0  0  0  0  0  0
  -28.9839  -22.7025   24.6030 C   0  0  0  0  0  0  0  0  0  1  0  0
  -26.6529  -28.6578   18.5111 C   0  0  1  0  0  0  0  0  0  0  0  0
  -25.0423  -31.3839   20.5954 C   0  0  2  0  0  0  0  0  0  0  0  0
  -31.7886  -22.3356   21.5069 C   0  0  0  0  0  0  0  0  0  0  0  0
  -27.4544  -29.0086   17.2258 C   0  0  0  0  0  0  0  0  0  0  0  0
  -25.8600  -11.5439   20.2835 N   0  0  0  0  0  0  0  0  0  0  0  0
  -31.8068  -17.3297   21.5016 N   0  0  0  0  0  0  0  0  0  0  0  0
  -26.2369  -12.8277   20.1577 N   0  0  0  0  0  0  0  0  0  0  0  0
  -25.9248  -26.3711   19.1149 N   0  0  0  0  0  0  0  0  0  0  0  0
  -29.9684  -13.6141   20.3590 N   0  0  0  0  0  0  0  0  0  0  0  0
  -25.4712  -15.0547   20.4129 N   0  0  0  0  0  0  0  0  0  0  0  0
  -21.8882  -12.5779   21.6060 N   0  0  0  0  0  0  0  0  0  0  0  0
  -30.0818  -15.6904   21.4718 N   0  0  0  0  0  0  0  0  0  0  0  0
  -25.4769  -23.1098   17.5466 N   0  0  0  0  0  0  0  0  0  0  0  0
  -25.8389  -29.7538   19.0254 N   0  0  0  0  0  0  0  0  0  0  0  0
  -24.6394  -31.3666   22.0301 N   0  3  0  0  0  0  0  0  0  0  0  0
  -31.3007  -21.8755   22.8542 N   0  3  1  0  0  0  0  0  0  0  0  0
  -22.6637  -14.7182   21.3301 O   0  0  0  0  0  0  0  0  0  0  0  0
  -27.1984  -24.6711   17.6924 O   0  0  0  0  0  0  0  0  0  0  0  0
  -24.8193  -27.5831   17.4581 O   0  0  0  0  0  0  0  0  0  0  0  0
  -26.8194  -29.8351   21.1253 O   0  0  0  0  0  0  0  0  0  0  0  0
  -31.8557  -14.9372   20.1804 O   0  0  0  0  0  0  0  0  0  0  0  0
  -21.6143   -7.0145   21.7003 O   0  0  0  0  0  0  0  0  0  0  0  0
  -28.7273  -24.0026   24.0736 O   0  0  0  0  0  0  0  0  0  1  0  0
  -18.6323   -6.8445   26.3352 F   0  0  0  0  0  0  0  0  0  0  0  0
  -22.0681   -5.0659   23.6081 F   0  0  0  0  0  0  0  0  0  0  0  0
  1  2  1  0  0  0  0
  1  6  2  0  0  0  0
  2  7  2  0  0  0  0
  3  9  2  0  0  0  0
  3 17  1  0  0  0  0
  4 10  1  0  0  0  0
  4 17  2  0  0  0  0
  5 14  2  0  0  0  0
  5 18  1  0  0  0  0
  6 20  1  0  0  0  0
  7 22  1  0  0  0  0
  8 11  2  0  0  0  0
  8 21  1  0  0  0  0
  9 24  1  0  0  0  0
 10 24  2  0  0  0  0
 11 25  1  0  0  0  0
 12 13  2  0  0  0  0
 12 26  1  0  0  0  0
 13 27  1  0  0  0  0
 14 31  1  0  0  0  0
 15 23  1  0  0  0  0
 15 25  2  0  0  0  0
 16 27  2  0  0  0  0
 16 28  1  0  0  0  0
 17 29  1  0  0  0  0
 18 30  2  0  0  0  0
 18 34  1  0  0  0  0
 19 29  1  0  0  0  0
 19 32  2  0  0  0  0
 19 35  1  0  0  0  0
 20 22  2  0  0  0  0
 20 40  1  0  0  0  0
 21 23  2  0  0  0  0
 21 41  1  0  0  0  0
 22 49  1  0  0  0  0
 23 42  1  0  0  0  0
 24 84  1  0  0  0  0
 25 85  1  0  0  0  0
 26 28  2  0  0  0  0
 26 84  1  0  0  0  0
 27 86  1  0  0  0  0
 28 87  1  0  0  0  0
 29 67  2  0  0  0  0
 30 52  1  0  0  0  0
 30 68  1  0  0  0  0
 31 68  2  0  0  0  0
 31 74  1  0  0  0  0
 32 69  1  0  0  0  0
 32 72  1  0  0  0  0
 33 34  2  0  0  0  0
 34 78  1  0  0  0  0
 35 73  1  0  0  0  0
 35 79  2  0  0  0  0
 36 50  1  0  0  0  0
 36 75  1  0  0  0  0
 36 80  2  0  0  0  0
 37 63  1  0  0  0  0
 37 70  1  0  0  0  0
 37 81  2  0  0  0  0
 38 64  1  0  0  0  0
 38 76  1  0  0  0  0
 38 82  2  0  0  0  0
 39 71  1  0  0  0  0
 39 74  1  0  0  0  0
 39 83  2  0  0  0  0
 40 43  1  0  0  0  0
 41 50  1  0  0  0  0
 42 70  1  0  0  0  0
 43 45  1  0  0  0  0
 44 46  1  0  0  0  0
 44 47  1  0  0  0  0
 45 49  1  0  0  0  0
 46 51  1  0  0  0  0
 47 71  1  0  0  0  0
 48 51  1  0  0  0  0
 48 71  1  0  0  0  0
 49 75  1  0  0  0  0
 50 70  1  0  0  0  0
 51 69  1  0  0  0  0
 53 64  1  0  0  0  0
 54 65  1  0  0  0  0
 55 65  1  0  0  0  0
 56 66  1  0  0  0  0
 57 66  1  0  0  0  0
 58 66  1  0  0  0  0
 59 77  1  0  0  0  0
 60 61  1  0  0  0  0
 60 62  1  0  0  0  0
 61 78  1  0  0  0  0
 62 85  1  0  0  0  0
 63 66  1  0  0  0  0
 63 76  1  0  0  0  0
 64 77  1  0  0  0  0
 65 78  1  0  0  0  0
 67 69  1  0  0  0  0
M  CHG  2  77   1  78   1
M  ISO  4  39 100  62 101  74 100  85 101
M  END
> <Batch ID>
0109

> <Smiles>
C=C(c1ccc([100NH:0][100C:0](=O)N2CCCC(n3nc(-c4ccc(Oc5ccc(F)cc5F)cc4)c(C(N)=O)c3N)C2)nc1C)N(CC[101CH2:1][101O:1]c1ccc2c(c1)CN(C(=O)C(NC(=O)C(C)NC)C(C)(C)C)C(C(=O)NC1CCCc3ccccc31)C2)C(C)C

> <Shape>
0.233

> <Color>
0.184

> <Negative vol penalty>
0.000

$$$$

  -OEChem-04052319563D

 86 94  0     1  0  0  0  0  0999 V2000
  -24.3686  -32.3249   19.3542 C   0  0  0  0  0  0  0  0  0  0  0  0
  -24.7428  -30.9852   19.3297 C   0  0  0  0  0  0  0  0  0  0  0  0
  -23.0044   -9.8774   20.0188 C   0  0  0  0  0  0  0  0  0  0  0  0
  -23.7309   -9.9960   22.3199 C   0  0  0  0  0  0  0  0  0  0  0  0
  -24.7192  -33.1257   20.4403 C   0  0  0  0  0  0  0  0  0  0  0  0
  -25.4688  -30.4458   20.3910 C   0  0  0  0  0  0  0  0  0  0  0  0
  -25.0609  -24.7539   22.6140 C   0  0  0  0  0  0  0  0  0  0  0  0
  -22.2391   -8.7504   20.3184 C   0  0  0  0  0  0  0  0  0  0  0  0
  -22.9656   -8.8690   22.6196 C   0  0  0  0  0  0  0  0  0  0  0  0
  -25.8301  -23.6094   22.4087 C   0  0  0  0  0  0  0  0  0  0  0  0
  -21.4878   -5.8108   23.9133 C   0  0  0  0  0  0  0  0  0  0  0  0
  -22.0753   -4.8180   24.6974 C   0  0  0  0  0  0  0  0  0  0  0  0
  -27.0888  -24.1044   24.4061 C   0  0  0  0  0  0  0  0  0  0  0  0
  -28.1905  -19.2925   22.9926 C   0  0  0  0  0  0  0  0  0  0  0  0
  -23.8008   -4.5239   23.0321 C   0  0  0  0  0  0  0  0  0  0  0  0
  -29.8212  -18.9821   20.8270 C   0  0  0  0  0  0  0  0  0  0  0  0
  -23.7504  -10.5002   21.0195 C   0  0  0  0  0  0  0  0  0  0  0  0
  -24.1332  -13.0099   20.7701 C   0  0  0  0  0  0  0  0  0  0  0  0
  -25.4415  -32.5934   21.5199 C   0  0  0  0  0  0  0  0  0  0  0  0
  -25.3074  -25.5895   23.7128 C   0  0  0  0  0  0  0  0  0  0  0  0
  -25.8305  -31.2406   21.4920 C   0  0  0  0  0  0  0  0  0  0  0  0
  -26.3196  -25.2575   24.6245 C   0  0  0  0  0  0  0  0  0  0  0  0
  -29.0480  -18.1995   22.9356 C   0  0  0  0  0  0  0  0  0  0  0  0
  -29.8821  -18.0340   21.8356 C   0  0  0  0  0  0  0  0  0  0  0  0
  -22.2197   -8.2462   21.6189 C   0  0  0  0  0  0  0  0  0  0  0  0
  -26.8461  -23.2860   23.3032 C   0  0  0  0  0  0  0  0  0  0  0  0
  -22.0568   -6.1602   22.6886 C   0  0  0  0  0  0  0  0  0  0  0  0
  -23.2318   -4.1746   24.2568 C   0  0  0  0  0  0  0  0  0  0  0  0
  -23.2133   -5.5168   22.2480 C   0  0  0  0  0  0  0  0  0  0  0  0
  -24.5415  -11.6640   20.7104 C   0  0  0  0  0  0  0  0  0  0  0  0
  -28.2054  -20.1844   21.9323 C   0  0  0  0  0  0  0  0  0  0  0  0
  -25.2420  -13.7226   20.3842 C   0  0  0  0  0  0  0  0  0  0  0  0
  -22.8649  -13.5662   21.1414 C   0  0  0  0  0  0  0  0  0  0  0  0
  -26.1967  -28.6201   24.0712 C   0  0  0  0  0  0  0  0  0  0  0  0
  -25.6623  -27.9986   27.2097 C   0  0  0  0  0  0  0  0  0  0  0  0
  -25.4447  -25.6847   29.7088 C   0  0  0  0  0  0  0  0  0  0  0  0
  -30.7376  -14.6692   20.6020 C   0  0  0  0  0  0  0  0  0  0  0  0
  -25.8384  -33.5099   22.6501 C   0  0  0  0  0  0  0  0  0  0  0  0
  -24.4512  -26.8061   23.9348 C   0  0  0  0  0  0  0  0  0  0  0  0
  -26.6112  -26.1106   25.8310 C   0  0  0  0  0  0  0  0  0  0  0  0
  -26.2847  -32.7683   23.9075 C   0  0  0  0  0  0  0  0  0  0  0  0
  -29.5978  -12.1773   18.3287 C   0  0  0  0  0  0  0  0  0  0  0  0
  -27.2591  -31.6503   23.5504 C   0  0  0  0  0  0  0  0  0  0  0  0
  -28.1498  -11.9285   18.7545 C   0  0  0  0  0  0  0  0  0  0  0  0
  -30.5008  -12.4486   19.5300 C   0  0  0  0  0  0  0  0  0  0  0  0
  -28.5907  -13.2809   20.8463 C   0  0  0  0  0  0  0  0  0  0  0  0
  -26.5971  -30.6127   22.6358 C   0  0  1  0  0  0  0  0  0  0  0  0
  -25.1270  -27.8616   24.8046 C   0  0  1  0  0  0  0  0  0  0  0  0
  -27.6311  -13.0579   19.6648 C   0  0  2  0  0  0  0  0  0  0  0  0
  -25.0321  -25.4827   32.1759 C   0  0  0  0  0  0  0  0  0  0  0  0
  -26.3760  -13.8687   26.7113 C   0  0  0  0  0  0  0  0  0  0  0  0
  -25.3976  -16.0688   26.0433 C   0  0  0  0  0  0  0  0  0  0  0  0
  -25.7801  -14.3052   24.3148 C   0  0  0  0  0  0  0  0  0  0  0  0
  -28.4863  -29.0129   27.7627 C   0  0  0  0  0  0  0  0  0  0  0  0
  -28.3622  -27.9229   30.0131 C   0  0  0  0  0  0  0  0  0  0  0  0
  -26.7690  -29.7500   29.4246 C   0  0  0  0  0  0  0  0  0  0  0  0
  -23.0423  -24.0085   29.2873 C   0  0  0  0  0  0  0  0  0  0  0  0
  -30.8190  -16.8817   21.7232 C   0  0  0  0  0  0  0  0  0  0  0  0
  -29.0563  -17.2202   24.0623 C   0  0  0  0  0  0  0  0  0  0  0  0
  -27.2931  -21.3753   21.9596 C   0  0  0  0  0  0  0  0  0  1  0  0
  -27.7385  -15.5460   25.3658 C   0  0  0  0  0  0  0  0  0  0  0  0
  -26.4976  -27.4760   28.3534 C   0  0  1  0  0  0  0  0  0  0  0  0
  -24.4032  -25.4662   30.7913 C   0  0  2  0  0  0  0  0  0  0  0  0
  -26.3416  -14.9338   25.6018 C   0  0  0  0  0  0  0  0  0  0  0  0
  -27.5248  -28.5252   28.8648 C   0  0  0  0  0  0  0  0  0  0  0  0
  -29.0014  -20.0568   20.8471 N   0  0  0  0  0  0  0  0  0  0  0  0
  -25.8107  -11.5272   20.3172 N   0  0  0  0  0  0  0  0  0  0  0  0
  -26.2094  -12.7964   20.1264 N   0  0  0  0  0  0  0  0  0  0  0  0
  -25.7508  -27.2931   26.0012 N   0  0  0  0  0  0  0  0  0  0  0  0
  -29.9535  -13.5311   20.3513 N   0  0  0  0  0  0  0  0  0  0  0  0
  -25.4742  -15.0450   20.2435 N   0  0  0  0  0  0  0  0  0  0  0  0
  -21.8342  -12.6914   21.5112 N   0  0  0  0  0  0  0  0  0  0  0  0
  -25.7360  -29.7387   23.4033 N   0  0  0  0  0  0  0  0  0  0  0  0
  -25.5568  -27.0164   29.3694 N   0  0  0  0  0  0  0  0  0  0  0  0
  -30.1409  -15.6506   21.3840 N   0  0  0  0  0  0  0  0  0  0  0  0
  -23.7240  -24.1536   30.5993 N   0  3  0  0  0  0  0  0  0  0  0  0
  -27.7378  -16.5665   24.2851 N   0  3  0  0  0  0  0  0  0  0  0  0
  -22.6470  -14.8014   21.1294 O   0  0  0  0  0  0  0  0  0  0  0  0
  -27.3547  -28.2209   24.1095 O   0  0  0  0  0  0  0  0  0  0  0  0
  -24.9517  -28.9917   27.3842 O   0  0  0  0  0  0  0  0  0  0  0  0
  -26.0965  -24.7664   29.2165 O   0  0  0  0  0  0  0  0  0  0  0  0
  -31.8827  -14.8033   20.1571 O   0  0  0  0  0  0  0  0  0  0  0  0
  -21.4728   -7.1466   21.9117 O   0  0  0  0  0  0  0  0  0  0  0  0
  -27.5989  -22.1698   23.1048 O   0  0  0  0  0  0  0  0  0  1  0  0
  -23.7967   -3.2222   25.0105 F   0  0  0  0  0  0  0  0  0  0  0  0
  -23.7652   -5.8489   21.0729 F   0  0  0  0  0  0  0  0  0  0  0  0
  1  2  1  0  0  0  0
  1  5  2  0  0  0  0
  2  6  2  0  0  0  0
  3  8  2  0  0  0  0
  3 17  1  0  0  0  0
  4  9  1  0  0  0  0
  4 17  2  0  0  0  0
  5 19  1  0  0  0  0
  6 21  1  0  0  0  0
  7 10  2  0  0  0  0
  7 20  1  0  0  0  0
  8 25  1  0  0  0  0
  9 25  2  0  0  0  0
 10 26  1  0  0  0  0
 11 12  2  0  0  0  0
 11 27  1  0  0  0  0
 12 28  1  0  0  0  0
 13 22  1  0  0  0  0
 13 26  2  0  0  0  0
 14 23  2  0  0  0  0
 14 31  1  0  0  0  0
 15 28  2  0  0  0  0
 15 29  1  0  0  0  0
 16 24  2  0  0  0  0
 16 66  1  0  0  0  0
 17 30  1  0  0  0  0
 18 30  1  0  0  0  0
 18 32  2  0  0  0  0
 18 33  1  0  0  0  0
 19 21  2  0  0  0  0
 19 38  1  0  0  0  0
 20 22  2  0  0  0  0
 20 39  1  0  0  0  0
 21 47  1  0  0  0  0
 22 40  1  0  0  0  0
 23 24  1  0  0  0  0
 23 59  1  0  0  0  0
 24 58  1  0  0  0  0
 25 83  1  0  0  0  0
 26 84  1  0  0  0  0
 27 29  2  0  0  0  0
 27 83  1  0  0  0  0
 28 85  1  0  0  0  0
 29 86  1  0  0  0  0
 30 67  2  0  0  0  0
 31 60  1  0  0  0  0
 31 66  2  0  0  0  0
 32 68  1  0  0  0  0
 32 71  1  0  0  0  0
 33 72  1  0  0  0  0
 33 78  2  0  0  0  0
 34 48  1  0  0  0  0
 34 73  1  0  0  0  0
 34 79  2  0  0  0  0
 35 62  1  0  0  0  0
 35 69  1  0  0  0  0
 35 80  2  0  0  0  0
 36 63  1  0  0  0  0
 36 74  1  0  0  0  0
 36 81  2  0  0  0  0
 37 70  1  0  0  0  0
 37 75  1  0  0  0  0
 37 82  2  0  0  0  0
 38 41  1  0  0  0  0
 39 48  1  0  0  0  0
 40 69  1  0  0  0  0
 41 43  1  0  0  0  0
 42 44  1  0  0  0  0
 42 45  1  0  0  0  0
 43 47  1  0  0  0  0
 44 49  1  0  0  0  0
 45 70  1  0  0  0  0
 46 49  1  0  0  0  0
 46 70  1  0  0  0  0
 47 73  1  0  0  0  0
 48 69  1  0  0  0  0
 49 68  1  0  0  0  0
 50 63  1  0  0  0  0
 51 64  1  0  0  0  0
 52 64  1  0  0  0  0
 53 64  1  0  0  0  0
 54 65  1  0  0  0  0
 55 65  1  0  0  0  0
 56 65  1  0  0  0  0
 57 76  1  0  0  0  0
 58 75  1  0  0  0  0
 59 77  1  0  0  0  0
 60 84  1  0  0  0  0
 61 64  1  0  0  0  0
 61 77  1  0  0  0  0
 62 65  1  0  0  0  0
 62 74  1  0  0  0  0
 63 76  1  0  0  0  0
 67 68  1  0  0  0  0
M  CHG  2  76   1  77   1
M  ISO  4  37 100  60 101  75 100  84 101
M  END
> <Batch ID>
0109

> <Smiles>
CNC(C)C(=O)NC(C(=O)N1Cc2cc([101O:1][101CH2:1]c3cc(CNCC(C)(C)C)c(C[100NH:0][100C:0](=O)N4CCCC(n5nc(-c6ccc(Oc7ccc(F)cc7F)cc6)c(C(N)=O)c5N)C4)cn3)ccc2CC1C(=O)NC1CCCc2ccccc21)C(C)(C)C

> <Shape>
0.248

> <Color>
0.197

> <Negative vol penalty>
0.000

$$$$

  -OEChem-04052319563D

 85 93  0     1  0  0  0  0  0999 V2000
  -31.2308  -26.6077   13.3814 C   0  0  0  0  0  0  0  0  0  0  0  0
  -30.7135  -25.6318   14.2273 C   0  0  0  0  0  0  0  0  0  0  0  0
  -22.8328  -18.1992   16.4918 C   0  0  0  0  0  0  0  0  0  0  0  0
  -23.2342  -16.0650   15.4329 C   0  0  0  0  0  0  0  0  0  0  0  0
  -31.4542  -27.8975   13.8614 C   0  0  0  0  0  0  0  0  0  0  0  0
  -30.4203  -25.9450   15.5541 C   0  0  0  0  0  0  0  0  0  0  0  0
  -25.8318  -23.7079   18.9373 C   0  0  0  0  0  0  0  0  0  0  0  0
  -22.0073  -18.5705   15.4306 C   0  0  0  0  0  0  0  0  0  0  0  0
  -22.4086  -16.4363   14.3717 C   0  0  0  0  0  0  0  0  0  0  0  0
  -25.7772  -22.6893   19.8877 C   0  0  0  0  0  0  0  0  0  0  0  0
  -20.1193  -16.6812   11.5578 C   0  0  0  0  0  0  0  0  0  0  0  0
  -19.1923  -15.7458   11.0983 C   0  0  0  0  0  0  0  0  0  0  0  0
  -26.0343  -24.3226   21.6442 C   0  0  0  0  0  0  0  0  0  0  0  0
  -27.7385  -15.3852   23.5030 C   0  0  0  0  0  0  0  0  0  0  0  0
  -18.1642  -15.6909   13.2840 C   0  0  0  0  0  0  0  0  0  0  0  0
  -30.4159  -15.3155   22.9809 C   0  0  0  0  0  0  0  0  0  0  0  0
  -23.4464  -16.9464   16.4929 C   0  0  0  0  0  0  0  0  0  0  0  0
  -29.7042  -14.1283   22.9195 C   0  0  0  0  0  0  0  0  0  0  0  0
  -23.9184  -15.9032   18.7725 C   0  0  0  0  0  0  0  0  0  0  0  0
  -31.1546  -28.2292   15.1921 C   0  0  0  0  0  0  0  0  0  0  0  0
  -25.9992  -25.0427   19.3333 C   0  0  0  0  0  0  0  0  0  0  0  0
  -30.6412  -27.2401   16.0527 C   0  0  0  0  0  0  0  0  0  0  0  0
  -26.0881  -25.3566   20.6970 C   0  0  0  0  0  0  0  0  0  0  0  0
  -28.3405  -14.1724   23.1868 C   0  0  0  0  0  0  0  0  0  0  0  0
  -21.7951  -17.6890   14.3705 C   0  0  0  0  0  0  0  0  0  0  0  0
  -25.8814  -22.9963   21.2412 C   0  0  0  0  0  0  0  0  0  0  0  0
  -20.0688  -17.1215   12.8805 C   0  0  0  0  0  0  0  0  0  0  0  0
  -18.2148  -15.2506   11.9614 C   0  0  0  0  0  0  0  0  0  0  0  0
  -19.0913  -16.6264   13.7435 C   0  0  0  0  0  0  0  0  0  0  0  0
  -24.2997  -16.5625   17.5885 C   0  0  0  0  0  0  0  0  0  0  0  0
  -28.5382  -16.5162   23.5386 C   0  0  0  0  0  0  0  0  0  0  0  0
  -25.0865  -15.7696   19.4825 C   0  0  0  0  0  0  0  0  0  0  0  0
  -30.3865  -12.8887   22.5825 C   0  0  0  0  0  0  0  0  0  0  0  0
  -22.6241  -15.4518   19.1927 C   0  0  0  0  0  0  0  0  0  0  0  0
  -28.2141  -27.2682   18.8386 C   0  0  0  0  0  0  0  0  0  0  0  0
  -26.0939  -29.1691   20.3922 C   0  0  0  0  0  0  0  0  0  0  0  0
  -23.4847  -29.4164   22.5780 C   0  0  0  0  0  0  0  0  0  0  0  0
  -30.5187  -14.5132   19.7238 C   0  0  0  0  0  0  0  0  0  0  0  0
  -31.4574  -29.6243   15.6784 C   0  0  0  0  0  0  0  0  0  0  0  0
  -26.0293  -26.1326   18.2972 C   0  0  0  0  0  0  0  0  0  0  0  0
  -26.2485  -26.7757   21.1753 C   0  0  0  0  0  0  0  0  0  0  0  0
  -30.7691  -29.9732   16.9954 C   0  0  0  0  0  0  0  0  0  0  0  0
  -29.6491  -17.8199   18.7309 C   0  0  0  0  0  0  0  0  0  0  0  0
  -30.9369  -28.8395   18.0021 C   0  0  0  0  0  0  0  0  0  0  0  0
  -28.1505  -17.7315   18.4371 C   0  0  0  0  0  0  0  0  0  0  0  0
  -30.3819  -16.5463   18.3152 C   0  0  0  0  0  0  0  0  0  0  0  0
  -28.3269  -15.2122   18.5819 C   0  0  0  0  0  0  0  0  0  0  0  0
  -30.2873  -27.5476   17.4915 C   0  0  1  0  0  0  0  0  0  0  0  0
  -26.7185  -27.4028   18.7861 C   0  0  1  0  0  0  0  0  0  0  0  0
  -27.5364  -16.4515   19.0353 C   0  0  2  0  0  0  0  0  0  0  0  0
  -27.5043  -12.9360   23.1419 C   0  0  0  0  0  0  0  0  0  0  0  0
  -21.9905  -31.1054   23.6790 C   0  0  0  0  0  0  0  0  0  0  0  0
  -28.3594  -29.9345   22.2873 C   0  0  0  0  0  0  0  0  0  0  0  0
  -26.6389  -30.8275   23.8717 C   0  0  0  0  0  0  0  0  0  0  0  0
  -26.8848  -31.8349   21.6030 C   0  0  0  0  0  0  0  0  0  0  0  0
  -21.0607  -28.2451   21.3487 C   0  0  0  0  0  0  0  0  0  0  0  0
  -27.9192  -17.8491   23.8764 C   0  0  0  0  0  0  0  0  0  0  0  0
  -30.4944  -12.4585   21.1155 C   0  0  0  0  0  0  0  0  0  0  0  0
  -27.4057  -18.6205   22.6556 C   0  0  0  0  0  0  0  0  0  0  0  0
  -26.8519  -20.0014   23.0095 C   0  0  0  0  0  0  0  0  0  0  0  0
  -26.3156  -20.7208   21.7793 C   0  0  0  0  0  0  0  0  0  1  0  0
  -25.8482  -29.5406   21.8346 C   0  0  1  0  0  0  0  0  0  0  0  0
  -22.1685  -30.1682   22.4946 C   0  0  2  0  0  0  0  0  0  0  0  0
  -26.9318  -30.5074   22.3904 C   0  0  0  0  0  0  0  0  0  0  0  0
  -29.8661  -16.5126   23.2847 N   0  0  0  0  0  0  0  0  0  0  0  0
  -25.6078  -16.8294   17.5453 N   0  0  0  0  0  0  0  0  0  0  0  0
  -26.0585  -16.3353   18.7110 N   0  0  0  0  0  0  0  0  0  0  0  0
  -26.2788  -27.8055   20.1235 N   0  0  0  0  0  0  0  0  0  0  0  0
  -29.7508  -15.3694   18.9174 N   0  0  0  0  0  0  0  0  0  0  0  0
  -25.3667  -15.2247   20.6854 N   0  0  0  0  0  0  0  0  0  0  0  0
  -21.5318  -15.6694   18.3419 N   0  0  0  0  0  0  0  0  0  0  0  0
  -28.8509  -27.6038   17.6590 N   0  0  0  0  0  0  0  0  0  0  0  0
  -24.4894  -30.0682   21.8946 N   0  0  0  0  0  0  0  0  0  0  0  0
  -29.8417  -13.4249   20.2607 N   0  0  0  0  0  0  0  0  0  0  0  0
  -21.0259  -29.2117   22.4763 N   0  3  0  0  0  0  0  0  0  0  0  0
  -30.9136  -12.1941   23.4729 O   0  0  0  0  0  0  0  0  0  0  0  0
  -22.4388  -14.8873   20.2975 O   0  0  0  0  0  0  0  0  0  0  0  0
  -28.7507  -26.8895   19.8731 O   0  0  0  0  0  0  0  0  0  0  0  0
  -26.1136  -30.0554   19.5344 O   0  0  0  0  0  0  0  0  0  0  0  0
  -23.6100  -28.3588   23.1915 O   0  0  0  0  0  0  0  0  0  0  0  0
  -31.7173  -14.7073   19.9530 O   0  0  0  0  0  0  0  0  0  0  0  0
  -20.9893  -18.0509   13.3350 O   0  0  0  0  0  0  0  0  0  0  0  0
  -25.8291  -22.0039   22.1709 O   0  0  0  0  0  0  0  0  0  1  0  0
  -17.3237  -14.3534   11.5196 F   0  0  0  0  0  0  0  0  0  0  0  0
  -19.0370  -17.0465   15.0149 F   0  0  0  0  0  0  0  0  0  0  0  0
  1  2  1  0  0  0  0
  1  5  2  0  0  0  0
  2  6  2  0  0  0  0
  3  8  2  0  0  0  0
  3 17  1  0  0  0  0
  4  9  1  0  0  0  0
  4 17  2  0  0  0  0
  5 20  1  0  0  0  0
  6 22  1  0  0  0  0
  7 10  2  0  0  0  0
  7 21  1  0  0  0  0
  8 25  1  0  0  0  0
  9 25  2  0  0  0  0
 10 26  1  0  0  0  0
 11 12  2  0  0  0  0
 11 27  1  0  0  0  0
 12 28  1  0  0  0  0
 13 23  1  0  0  0  0
 13 26  2  0  0  0  0
 14 24  2  0  0  0  0
 14 31  1  0  0  0  0
 15 28  2  0  0  0  0
 15 29  1  0  0  0  0
 16 18  2  0  0  0  0
 16 65  1  0  0  0  0
 17 30  1  0  0  0  0
 18 24  1  0  0  0  0
 18 33  1  0  0  0  0
 19 30  1  0  0  0  0
 19 32  2  0  0  0  0
 19 34  1  0  0  0  0
 20 22  2  0  0  0  0
 20 39  1  0  0  0  0
 21 23  2  0  0  0  0
 21 40  1  0  0  0  0
 22 48  1  0  0  0  0
 23 41  1  0  0  0  0
 24 51  1  0  0  0  0
 25 82  1  0  0  0  0
 26 83  1  0  0  0  0
 27 29  2  0  0  0  0
 27 82  1  0  0  0  0
 28 84  1  0  0  0  0
 29 85  1  0  0  0  0
 30 66  2  0  0  0  0
 31 57  1  0  0  0  0
 31 65  2  0  0  0  0
 32 67  1  0  0  0  0
 32 70  1  0  0  0  0
 33 58  1  0  0  0  0
 33 76  2  0  0  0  0
 34 71  1  0  0  0  0
 34 77  2  0  0  0  0
 35 49  1  0  0  0  0
 35 72  1  0  0  0  0
 35 78  2  0  0  0  0
 36 62  1  0  0  0  0
 36 68  1  0  0  0  0
 36 79  2  0  0  0  0
 37 63  1  0  0  0  0
 37 73  1  0  0  0  0
 37 80  2  0  0  0  0
 38 69  1  0  0  0  0
 38 74  1  0  0  0  0
 38 81  2  0  0  0  0
 39 42  1  0  0  0  0
 40 49  1  0  0  0  0
 41 68  1  0  0  0  0
 42 44  1  0  0  0  0
 43 45  1  0  0  0  0
 43 46  1  0  0  0  0
 44 48  1  0  0  0  0
 45 50  1  0  0  0  0
 46 69  1  0  0  0  0
 47 50  1  0  0  0  0
 47 69  1  0  0  0  0
 48 72  1  0  0  0  0
 49 68  1  0  0  0  0
 50 67  1  0  0  0  0
 52 63  1  0  0  0  0
 53 64  1  0  0  0  0
 54 64  1  0  0  0  0
 55 64  1  0  0  0  0
 56 75  1  0  0  0  0
 57 59  1  0  0  0  0
 58 74  1  0  0  0  0
 59 60  1  0  0  0  0
 60 61  1  0  0  0  0
 61 83  1  0  0  0  0
 62 64  1  0  0  0  0
 62 73  1  0  0  0  0
 63 75  1  0  0  0  0
 66 67  1  0  0  0  0
M  CHG  1  75   1
M  ISO  4  38 100  61 101  74 100  83 101
M  END
> <Batch ID>
0109

> <Smiles>
CNC(C)C(=O)NC(C(=O)N1Cc2cc([101O:1][101CH2:1]CCCc3cc(C)c(C(=O)C[100NH:0][100C:0](=O)N4CCCC(n5nc(-c6ccc(Oc7ccc(F)cc7F)cc6)c(C(N)=O)c5N)C4)cn3)ccc2CC1C(=O)NC1CCCc2ccccc21)C(C)(C)C

> <Shape>
0.151

> <Color>
0.122

> <Negative vol penalty>
0.000

$$$$

  -OEChem-04052319563D

 83 91  0     1  0  0  0  0  0999 V2000
  -19.7882  -32.4749   15.3844 C   0  0  0  0  0  0  0  0  0  0  0  0
  -20.7606  -31.4916   15.5365 C   0  0  0  0  0  0  0  0  0  0  0  0
  -23.5711  -10.2172   22.1214 C   0  0  0  0  0  0  0  0  0  0  0  0
  -24.6408   -8.6868   20.5882 C   0  0  0  0  0  0  0  0  0  0  0  0
  -19.8960  -33.6747   16.0863 C   0  0  0  0  0  0  0  0  0  0  0  0
  -21.8420  -31.7081   16.3897 C   0  0  0  0  0  0  0  0  0  0  0  0
  -24.7105  -27.5320   19.8303 C   0  0  0  0  0  0  0  0  0  0  0  0
  -22.4611   -9.3752   22.1874 C   0  0  0  0  0  0  0  0  0  0  0  0
  -23.5307   -7.8448   20.6541 C   0  0  0  0  0  0  0  0  0  0  0  0
  -25.8889  -26.8110   19.6424 C   0  0  0  0  0  0  0  0  0  0  0  0
  -22.2784   -5.5392   22.7840 C   0  0  0  0  0  0  0  0  0  0  0  0
  -22.5118   -4.1723   22.9350 C   0  0  0  0  0  0  0  0  0  0  0  0
  -27.0901  -28.4458   20.9477 C   0  0  0  0  0  0  0  0  0  0  0  0
  -21.3645   -3.7463   20.8519 C   0  0  0  0  0  0  0  0  0  0  0  0
  -24.6610   -9.8730   21.3218 C   0  0  0  0  0  0  0  0  0  0  0  0
  -26.9481  -10.7129   22.0777 C   0  0  0  0  0  0  0  0  0  0  0  0
  -20.9743  -33.9022   16.9560 C   0  0  0  0  0  0  0  0  0  0  0  0
  -24.7151  -28.7230   20.5704 C   0  0  0  0  0  0  0  0  0  0  0  0
  -21.9651  -32.9127   17.1029 C   0  0  0  0  0  0  0  0  0  0  0  0
  -25.9099  -29.1786   21.1457 C   0  0  0  0  0  0  0  0  0  0  0  0
  -22.4409   -8.1890   21.4538 C   0  0  0  0  0  0  0  0  0  0  0  0
  -27.0795  -27.2694   20.1986 C   0  0  0  0  0  0  0  0  0  0  0  0
  -21.5881   -6.0097   21.6669 C   0  0  0  0  0  0  0  0  0  0  0  0
  -22.0549   -3.2759   21.9690 C   0  0  0  0  0  0  0  0  0  0  0  0
  -21.1312   -5.1132   20.7009 C   0  0  0  0  0  0  0  0  0  0  0  0
  -25.8078  -10.7427   21.2528 C   0  0  0  0  0  0  0  0  0  0  0  0
  -27.7381  -11.7338   21.6086 C   0  0  0  0  0  0  0  0  0  0  0  0
  -27.2650   -9.8403   23.1704 C   0  0  0  0  0  0  0  0  0  0  0  0
  -24.0482  -31.7643   19.9303 C   0  0  0  0  0  0  0  0  0  0  0  0
  -24.4874  -32.1269   23.1238 C   0  0  0  0  0  0  0  0  0  0  0  0
  -25.9083  -30.9695   26.0027 C   0  0  0  0  0  0  0  0  0  0  0  0
  -28.5328  -16.7543   19.8814 C   0  0  0  0  0  0  0  0  0  0  0  0
  -21.0729  -35.2338   17.6572 C   0  0  0  0  0  0  0  0  0  0  0  0
  -23.4304  -29.4749   20.7865 C   0  0  0  0  0  0  0  0  0  0  0  0
  -25.9644  -30.4407   21.9658 C   0  0  0  0  0  0  0  0  0  0  0  0
  -22.0527  -35.2347   18.8278 C   0  0  0  0  0  0  0  0  0  0  0  0
  -27.3783  -14.5312   17.4180 C   0  0  0  0  0  0  0  0  0  0  0  0
  -23.3641  -34.5667   18.4268 C   0  0  0  0  0  0  0  0  0  0  0  0
  -26.9528  -13.3332   18.2662 C   0  0  0  0  0  0  0  0  0  0  0  0
  -26.9987  -15.8608   18.0722 C   0  0  0  0  0  0  0  0  0  0  0  0
  -27.6008  -18.7075   18.5620 C   0  0  0  0  0  0  0  0  0  0  0  0
  -29.9360  -18.7259   19.3586 C   0  0  0  0  0  0  0  0  0  0  0  0
  -27.0613  -14.8086   20.3101 C   0  0  0  0  0  0  0  0  0  0  0  0
  -27.3289  -20.0145   19.2998 C   0  0  0  0  0  0  0  0  0  0  0  0
  -29.6940  -20.0151   20.1265 C   0  0  0  0  0  0  0  0  0  0  0  0
  -23.1400  -33.1003   18.0380 C   0  0  1  0  0  0  0  0  0  0  0  0
  -23.6489  -30.9461   21.1257 C   0  0  1  0  0  0  0  0  0  0  0  0
  -27.4819  -13.4600   19.7058 C   0  0  1  0  0  0  0  0  0  0  0  0
  -26.1190  -31.4988   28.4467 C   0  0  0  0  0  0  0  0  0  0  0  0
  -26.4936  -34.3311   22.4710 C   0  0  0  0  0  0  0  0  0  0  0  0
  -27.3457  -34.1547   24.8186 C   0  0  0  0  0  0  0  0  0  0  0  0
  -24.9823  -34.8337   24.3991 C   0  0  0  0  0  0  0  0  0  0  0  0
  -24.6107  -28.4269   26.7839 C   0  0  0  0  0  0  0  0  0  0  0  0
  -30.5711  -23.8505   22.4583 C   0  0  0  0  0  0  0  0  0  0  0  0
  -28.3804  -22.1364   20.0851 C   0  0  0  0  0  0  0  0  0  0  0  0
  -28.1134  -25.1540   19.8639 C   0  0  0  0  0  0  0  0  0  1  0  0
  -25.6689  -32.4314   24.0127 C   0  0  1  0  0  0  0  0  0  0  0  0
  -25.3329  -30.7403   27.3886 C   0  0  2  0  0  0  0  0  0  0  0  0
  -29.3947  -24.4746   20.3452 C   0  0  2  0  0  0  0  0  0  0  0  0
  -29.5626  -23.0538   19.7780 C   0  0  2  0  0  0  0  0  0  0  0  0
  -26.1223  -33.9149   23.9083 C   0  0  0  0  0  0  0  0  0  0  0  0
  -25.8643  -11.7063   20.3296 N   0  0  0  0  0  0  0  0  0  0  0  0
  -27.0496  -12.2915   20.5717 N   0  0  0  0  0  0  0  0  0  0  0  0
  -24.6831  -31.1440   22.1433 N   0  0  0  0  0  0  0  0  0  0  0  0
  -27.4890  -15.9189   19.4563 N   0  0  0  0  0  0  0  0  0  0  0  0
  -28.6985  -17.9663   19.1947 N   0  0  0  0  0  0  0  0  0  0  0  0
  -28.9475  -12.1999   21.9860 N   0  0  0  0  0  0  0  0  0  0  0  0
  -26.3418   -8.8455   23.5204 N   0  0  0  0  0  0  0  0  0  0  0  0
  -22.9813  -32.2823   19.2213 N   0  0  0  0  0  0  0  0  0  0  0  0
  -25.2853  -32.0170   25.3579 N   0  0  0  0  0  0  0  0  0  0  0  0
  -28.6097  -20.8034   19.4294 N   0  3  0  0  0  0  0  0  0  0  0  0
  -25.3648  -29.2898   27.7293 N   0  3  0  0  0  0  0  0  0  0  0  0
  -29.3567  -24.4363   21.8389 N   0  3  0  0  0  0  0  0  0  0  0  0
  -28.3277   -9.9504   23.8277 O   0  0  0  0  0  0  0  0  0  0  0  0
  -25.2364  -31.9156   19.6714 O   0  0  0  0  0  0  0  0  0  0  0  0
  -23.4275  -32.7335   23.2978 O   0  0  0  0  0  0  0  0  0  0  0  0
  -26.8219  -30.2900   25.5400 O   0  0  0  0  0  0  0  0  0  0  0  0
  -29.2733  -16.4361   20.8205 O   0  0  0  0  0  0  0  0  0  0  0  0
  -29.7800  -23.1026   18.3675 O   0  0  0  0  0  0  0  0  0  0  0  0
  -21.3579   -7.3670   21.5181 O   0  0  0  0  0  0  0  0  0  0  0  0
  -28.2390  -26.5634   20.0150 O   0  0  0  0  0  0  0  0  0  1  0  0
  -22.2803   -1.9635   22.1133 F   0  0  0  0  0  0  0  0  0  0  0  0
  -20.4684   -5.5594   19.6250 F   0  0  0  0  0  0  0  0  0  0  0  0
  1  2  1  0  0  0  0
  1  5  2  0  0  0  0
  2  6  2  0  0  0  0
  3  8  2  0  0  0  0
  3 15  1  0  0  0  0
  4  9  1  0  0  0  0
  4 15  2  0  0  0  0
  5 17  1  0  0  0  0
  6 19  1  0  0  0  0
  7 10  2  0  0  0  0
  7 18  1  0  0  0  0
  8 21  1  0  0  0  0
  9 21  2  0  0  0  0
 10 22  1  0  0  0  0
 11 12  2  0  0  0  0
 11 23  1  0  0  0  0
 12 24  1  0  0  0  0
 13 20  1  0  0  0  0
 13 22  2  0  0  0  0
 14 24  2  0  0  0  0
 14 25  1  0  0  0  0
 15 26  1  0  0  0  0
 16 26  1  0  0  0  0
 16 27  2  0  0  0  0
 16 28  1  0  0  0  0
 17 19  2  0  0  0  0
 17 33  1  0  0  0  0
 18 20  2  0  0  0  0
 18 34  1  0  0  0  0
 19 46  1  0  0  0  0
 20 35  1  0  0  0  0
 21 80  1  0  0  0  0
 22 81  1  0  0  0  0
 23 25  2  0  0  0  0
 23 80  1  0  0  0  0
 24 82  1  0  0  0  0
 25 83  1  0  0  0  0
 26 62  2  0  0  0  0
 27 63  1  0  0  0  0
 27 67  1  0  0  0  0
 28 68  1  0  0  0  0
 28 74  2  0  0  0  0
 29 47  1  0  0  0  0
 29 69  1  0  0  0  0
 29 75  2  0  0  0  0
 30 57  1  0  0  0  0
 30 64  1  0  0  0  0
 30 76  2  0  0  0  0
 31 58  1  0  0  0  0
 31 70  1  0  0  0  0
 31 77  2  0  0  0  0
 32 65  1  0  0  0  0
 32 66  1  0  0  0  0
 32 78  2  0  0  0  0
 33 36  1  0  0  0  0
 34 47  1  0  0  0  0
 35 64  1  0  0  0  0
 36 38  1  0  0  0  0
 37 39  1  0  0  0  0
 37 40  1  0  0  0  0
 38 46  1  0  0  0  0
 39 48  1  0  0  0  0
 40 65  1  0  0  0  0
 41 44  1  0  0  0  0
 41 66  1  0  0  0  0
 42 45  1  0  0  0  0
 42 66  1  0  0  0  0
 43 48  1  0  0  0  0
 43 65  1  0  0  0  0
 44 71  1  0  0  0  0
 45 71  1  0  0  0  0
 46 69  1  0  0  0  0
 47 64  1  0  0  0  0
 48 63  1  0  0  0  0
 49 58  1  0  0  0  0
 50 61  1  0  0  0  0
 51 61  1  0  0  0  0
 52 61  1  0  0  0  0
 53 72  1  0  0  0  0
 54 73  1  0  0  0  0
 55 60  1  0  0  0  0
 55 71  1  0  0  0  0
 56 59  1  0  0  0  0
 56 81  1  0  0  0  0
 57 61  1  0  0  0  0
 57 70  1  0  0  0  0
 58 72  1  0  0  0  0
 59 60  1  0  0  0  0
 59 73  1  0  0  0  0
 60 79  1  0  0  0  0
 62 63  1  0  0  0  0
M  CHG  3  71   1  72   1  73   1
M  ISO  4  32 100  56 101  66 100  81 101
M  END
> <Batch ID>
0109

> <Smiles>
CNC(C)C(=O)NC(C(=O)N1Cc2cc([101O:1][101CH2:1]C(NC)C(O)CN3CC[100N:0]([100C:0](=O)N4CCCC(n5nc(-c6ccc(Oc7ccc(F)cc7F)cc6)c(C(N)=O)c5N)C4)CC3)ccc2CC1C(=O)NC1CCCc2ccccc21)C(C)(C)C

> <Shape>
0.308

> <Color>
0.118

> <Negative vol penalty>
0.000

$$$$

  -OEChem-04052319563D

 85 93  0     1  0  0  0  0  0999 V2000
  -23.2734  -27.8467   21.7210 C   0  0  0  0  0  0  0  0  0  0  0  0
  -23.6989  -26.7229   22.4219 C   0  0  0  0  0  0  0  0  0  0  0  0
  -23.2526   -9.7689   19.8972 C   0  0  0  0  0  0  0  0  0  0  0  0
  -23.6715   -9.8990   22.2730 C   0  0  0  0  0  0  0  0  0  0  0  0
  -23.1134  -27.7847   20.3373 C   0  0  0  0  0  0  0  0  0  0  0  0
  -23.9637  -25.5360   21.7397 C   0  0  0  0  0  0  0  0  0  0  0  0
  -28.2716  -23.3452   23.2524 C   0  0  0  0  0  0  0  0  0  0  0  0
  -22.5149   -8.6011   20.0912 C   0  0  0  0  0  0  0  0  0  0  0  0
  -22.9338   -8.7312   22.4670 C   0  0  0  0  0  0  0  0  0  0  0  0
  -28.2389  -22.6388   24.4539 C   0  0  0  0  0  0  0  0  0  0  0  0
  -20.8584   -5.9824   23.6309 C   0  0  0  0  0  0  0  0  0  0  0  0
  -19.9420   -5.9604   24.6822 C   0  0  0  0  0  0  0  0  0  0  0  0
  -30.9040  -13.1568   26.3558 C   0  0  0  0  0  0  0  0  0  0  0  0
  -28.0515  -20.5709   23.2261 C   0  0  0  0  0  0  0  0  0  0  0  0
  -18.7596   -7.8192   23.6904 C   0  0  0  0  0  0  0  0  0  0  0  0
  -30.2054  -14.0602   27.1258 C   0  0  0  0  0  0  0  0  0  0  0  0
  -23.8309  -10.4179   20.9881 C   0  0  0  0  0  0  0  0  0  0  0  0
  -24.1113  -12.9465   20.8010 C   0  0  0  0  0  0  0  0  0  0  0  0
  -23.3857  -26.5992   19.6366 C   0  0  0  0  0  0  0  0  0  0  0  0
  -28.1833  -22.6695   22.0268 C   0  0  0  0  0  0  0  0  0  0  0  0
  -23.8060  -25.4576   20.3455 C   0  0  0  0  0  0  0  0  0  0  0  0
  -28.0859  -21.2708   22.0103 C   0  0  0  0  0  0  0  0  0  0  0  0
  -30.9532  -13.6734   25.0375 C   0  0  0  0  0  0  0  0  0  0  0  0
  -22.3555   -8.0822   21.3761 C   0  0  0  0  0  0  0  0  0  0  0  0
  -28.1259  -21.2517   24.4410 C   0  0  0  0  0  0  0  0  0  0  0  0
  -20.7255   -6.9228   22.6093 C   0  0  0  0  0  0  0  0  0  0  0  0
  -18.8926   -6.8788   24.7120 C   0  0  0  0  0  0  0  0  0  0  0  0
  -19.6760   -7.8412   22.6390 C   0  0  0  0  0  0  0  0  0  0  0  0
  -24.5935  -11.6240   20.7882 C   0  0  0  0  0  0  0  0  0  0  0  0
  -30.2832  -14.8769   25.0422 C   0  0  0  0  0  0  0  0  0  0  0  0
  -25.2218  -13.7192   20.5638 C   0  0  0  0  0  0  0  0  0  0  0  0
  -22.7788  -13.4332   21.0089 C   0  0  0  0  0  0  0  0  0  0  0  0
  -26.1300  -22.6833   19.6005 C   0  0  0  0  0  0  0  0  0  0  0  0
  -28.3361  -20.7390   18.2311 C   0  0  0  0  0  0  0  0  0  0  0  0
  -30.9082  -18.5341   18.6424 C   0  0  0  0  0  0  0  0  0  0  0  0
  -31.0747  -12.8310   21.4617 C   0  0  0  0  0  0  0  0  0  0  0  0
  -23.1528  -26.5667   18.1468 C   0  0  0  0  0  0  0  0  0  0  0  0
  -28.2469  -23.4439   20.7389 C   0  0  0  0  0  0  0  0  0  0  0  0
  -28.0084  -20.4964   20.7209 C   0  0  0  0  0  0  0  0  0  0  0  0
  -23.8144  -25.3790   17.4527 C   0  0  0  0  0  0  0  0  0  0  0  0
  -29.4737  -13.5917   18.3738 C   0  0  0  0  0  0  0  0  0  0  0  0
  -23.5411  -24.0907   18.2225 C   0  0  0  0  0  0  0  0  0  0  0  0
  -27.9980  -13.2930   18.6436 C   0  0  0  0  0  0  0  0  0  0  0  0
  -30.3900  -12.6034   19.0919 C   0  0  0  0  0  0  0  0  0  0  0  0
  -28.6764  -12.1810   20.8120 C   0  0  0  0  0  0  0  0  0  0  0  0
  -24.1271  -24.1590   19.6379 C   0  0  1  0  0  0  0  0  0  0  0  0
  -27.6319  -22.6951   19.5605 C   0  0  1  0  0  0  0  0  0  0  0  0
  -27.7147  -13.1852   20.1540 C   0  0  2  0  0  0  0  0  0  0  0  0
  -32.4857  -17.0820   17.3384 C   0  0  0  0  0  0  0  0  0  0  0  0
  -28.0791  -18.9398   28.0499 C   0  0  0  0  0  0  0  0  0  0  0  0
  -26.0852  -18.7383   17.7408 C   0  0  0  0  0  0  0  0  0  0  0  0
  -27.8260  -16.9858   17.3322 C   0  0  0  0  0  0  0  0  0  0  0  0
  -27.6954  -18.9827   15.8429 C   0  0  0  0  0  0  0  0  0  0  0  0
  -33.2762  -19.9723   19.6830 C   0  0  0  0  0  0  0  0  0  0  0  0
  -31.6047  -13.0332   23.8777 C   0  0  0  0  0  0  0  0  0  0  0  0
  -30.0325  -15.8329   23.9427 C   0  0  0  0  0  0  0  0  0  0  0  0
  -29.0456  -16.3073   26.7794 C   0  0  0  0  0  0  0  0  0  0  0  0
  -28.6228  -19.2348   25.5991 C   0  0  0  0  0  0  0  0  0  1  0  0
  -28.5744  -19.2487   18.1985 C   0  0  1  0  0  0  0  0  0  0  0  0
  -32.2722  -18.4431   17.9824 C   0  0  2  0  0  0  0  0  0  0  0  0
  -29.1823  -18.8875   26.9841 C   0  0  2  0  0  0  0  0  0  0  0  0
  -29.9418  -17.5400   26.9758 C   0  0  1  0  0  0  0  0  0  0  0  0
  -27.5448  -18.5033   17.3031 C   0  0  0  0  0  0  0  0  0  0  0  0
  -25.9079  -11.5565   20.5606 N   0  0  0  0  0  0  0  0  0  0  0  0
  -29.8332  -15.1020   26.3169 N   0  0  0  0  0  0  0  0  0  0  0  0
  -26.2611  -12.8464   20.4282 N   0  0  0  0  0  0  0  0  0  0  0  0
  -28.0681  -21.2991   19.4882 N   0  0  0  0  0  0  0  0  0  0  0  0
  -30.0706  -12.5498   20.5205 N   0  0  0  0  0  0  0  0  0  0  0  0
  -25.4009  -15.0532   20.4599 N   0  0  0  0  0  0  0  0  0  0  0  0
  -21.7561  -12.5029   21.2395 N   0  0  0  0  0  0  0  0  0  0  0  0
  -25.5573  -23.9409   19.6039 N   0  0  0  0  0  0  0  0  0  0  0  0
  -29.9633  -19.0662   17.7909 N   0  0  0  0  0  0  0  0  0  0  0  0
  -30.6861  -12.7640   22.7941 N   0  0  0  0  0  0  0  0  0  0  0  0
  -28.7640  -15.5756   23.1961 N   0  3  0  0  0  0  0  0  0  0  0  0
  -33.3500  -18.6612   18.9883 N   0  3  0  0  0  0  0  0  0  0  0  0
  -22.5002  -14.6558   20.9745 O   0  0  0  0  0  0  0  0  0  0  0  0
  -25.5346  -21.6125   19.6248 O   0  0  0  0  0  0  0  0  0  0  0  0
  -28.3929  -21.3836   17.1809 O   0  0  0  0  0  0  0  0  0  0  0  0
  -30.7008  -18.1662   19.7966 O   0  0  0  0  0  0  0  0  0  0  0  0
  -32.2304  -13.1254   21.1384 O   0  0  0  0  0  0  0  0  0  0  0  0
  -30.6279  -17.3909   28.2231 O   0  0  0  0  0  0  0  0  0  0  0  0
  -21.6356   -6.9428   21.5658 O   0  0  0  0  0  0  0  0  0  0  0  0
  -28.0932  -20.5598   25.6123 O   0  0  0  0  0  0  0  0  0  1  0  0
  -18.0118   -6.8566   25.7208 F   0  0  0  0  0  0  0  0  0  0  0  0
  -19.5424   -8.7463   21.6599 F   0  0  0  0  0  0  0  0  0  0  0  0
  1  2  1  0  0  0  0
  1  5  2  0  0  0  0
  2  6  2  0  0  0  0
  3  8  2  0  0  0  0
  3 17  1  0  0  0  0
  4  9  1  0  0  0  0
  4 17  2  0  0  0  0
  5 19  1  0  0  0  0
  6 21  1  0  0  0  0
  7 10  2  0  0  0  0
  7 20  1  0  0  0  0
  8 24  1  0  0  0  0
  9 24  2  0  0  0  0
 10 25  1  0  0  0  0
 11 12  2  0  0  0  0
 11 26  1  0  0  0  0
 12 27  1  0  0  0  0
 13 16  2  0  0  0  0
 13 23  1  0  0  0  0
 14 22  1  0  0  0  0
 14 25  2  0  0  0  0
 15 27  2  0  0  0  0
 15 28  1  0  0  0  0
 16 65  1  0  0  0  0
 17 29  1  0  0  0  0
 18 29  1  0  0  0  0
 18 31  2  0  0  0  0
 18 32  1  0  0  0  0
 19 21  2  0  0  0  0
 19 37  1  0  0  0  0
 20 22  2  0  0  0  0
 20 38  1  0  0  0  0
 21 46  1  0  0  0  0
 22 39  1  0  0  0  0
 23 30  2  0  0  0  0
 23 55  1  0  0  0  0
 24 82  1  0  0  0  0
 25 83  1  0  0  0  0
 26 28  2  0  0  0  0
 26 82  1  0  0  0  0
 27 84  1  0  0  0  0
 28 85  1  0  0  0  0
 29 64  2  0  0  0  0
 30 56  1  0  0  0  0
 30 65  1  0  0  0  0
 31 66  1  0  0  0  0
 31 69  1  0  0  0  0
 32 70  1  0  0  0  0
 32 76  2  0  0  0  0
 33 47  1  0  0  0  0
 33 71  1  0  0  0  0
 33 77  2  0  0  0  0
 34 59  1  0  0  0  0
 34 67  1  0  0  0  0
 34 78  2  0  0  0  0
 35 60  1  0  0  0  0
 35 72  1  0  0  0  0
 35 79  2  0  0  0  0
 36 68  1  0  0  0  0
 36 73  1  0  0  0  0
 36 80  2  0  0  0  0
 37 40  1  0  0  0  0
 38 47  1  0  0  0  0
 39 67  1  0  0  0  0
 40 42  1  0  0  0  0
 41 43  1  0  0  0  0
 41 44  1  0  0  0  0
 42 46  1  0  0  0  0
 43 48  1  0  0  0  0
 44 68  1  0  0  0  0
 45 48  1  0  0  0  0
 45 68  1  0  0  0  0
 46 71  1  0  0  0  0
 47 67  1  0  0  0  0
 48 66  1  0  0  0  0
 49 60  1  0  0  0  0
 50 61  1  0  0  0  0
 51 63  1  0  0  0  0
 52 63  1  0  0  0  0
 53 63  1  0  0  0  0
 54 75  1  0  0  0  0
 55 73  1  0  0  0  0
 56 74  1  0  0  0  0
 57 62  1  0  0  0  0
 57 65  1  0  0  0  0
 58 61  1  0  0  0  0
 58 83  1  0  0  0  0
 59 63  1  0  0  0  0
 59 72  1  0  0  0  0
 60 75  1  0  0  0  0
 61 62  1  0  0  0  0
 62 81  1  0  0  0  0
 64 66  1  0  0  0  0
M  CHG  2  74   1  75   1
M  ISO  4  36 100  58 101  73 100  83 101
M  END
> <Batch ID>
0109

> <Smiles>
CNC(C)C(=O)NC(C(=O)N1Cc2cc([101O:1][101CH2:1]C(C)C(O)Cn3ccc(C[100NH:0][100C:0](=O)N4CCCC(n5nc(-c6ccc(Oc7ccc(F)cc7F)cc6)c(C(N)=O)c5N)C4)c3CN)ccc2CC1C(=O)NC1CCCc2ccccc21)C(C)(C)C

> <Shape>
0.189

> <Color>
0.179

> <Negative vol penalty>
0.000

$$$$

  -OEChem-04052319563D

 85 93  0     1  0  0  0  0  0999 V2000
  -25.8119  -35.4954   22.1559 C   0  0  0  0  0  0  0  0  0  0  0  0
  -26.3909  -34.2317   22.0980 C   0  0  0  0  0  0  0  0  0  0  0  0
  -24.8648  -13.9184   21.3063 C   0  0  0  0  0  0  0  0  0  0  0  0
  -25.6484  -13.8911   19.0211 C   0  0  0  0  0  0  0  0  0  0  0  0
  -24.5122  -35.6440   22.6380 C   0  0  0  0  0  0  0  0  0  0  0  0
  -25.6707  -33.1159   22.5232 C   0  0  0  0  0  0  0  0  0  0  0  0
  -26.0742  -29.2093   19.3263 C   0  0  0  0  0  0  0  0  0  0  0  0
  -24.1171  -12.7661   21.0637 C   0  0  0  0  0  0  0  0  0  0  0  0
  -24.9007  -12.7388   18.7784 C   0  0  0  0  0  0  0  0  0  0  0  0
  -27.2498  -28.4618   19.3796 C   0  0  0  0  0  0  0  0  0  0  0  0
  -24.6746   -9.4400   20.8208 C   0  0  0  0  0  0  0  0  0  0  0  0
  -24.7262   -8.4214   21.7724 C   0  0  0  0  0  0  0  0  0  0  0  0
  -26.1188  -26.7882   20.6983 C   0  0  0  0  0  0  0  0  0  0  0  0
  -22.3394   -8.6052   22.0985 C   0  0  0  0  0  0  0  0  0  0  0  0
  -28.2254  -23.8393   16.1380 C   0  0  0  0  0  0  0  0  0  0  0  0
  -30.1406  -22.7163   15.8455 C   0  0  0  0  0  0  0  0  0  0  0  0
  -25.6304  -14.4809   20.2850 C   0  0  0  0  0  0  0  0  0  0  0  0
  -27.7329  -15.7420   20.9900 C   0  0  0  0  0  0  0  0  0  0  0  0
  -23.7722  -34.5283   23.0603 C   0  0  0  0  0  0  0  0  0  0  0  0
  -24.9130  -28.7564   19.9689 C   0  0  0  0  0  0  0  0  0  0  0  0
  -24.3603  -33.2499   23.0127 C   0  0  0  0  0  0  0  0  0  0  0  0
  -24.9290  -27.5306   20.6496 C   0  0  0  0  0  0  0  0  0  0  0  0
  -27.8999  -22.5156   15.9405 C   0  0  0  0  0  0  0  0  0  0  0  0
  -29.1116  -21.8051   15.7553 C   0  0  0  0  0  0  0  0  0  0  0  0
  -24.1350  -12.1764   19.7998 C   0  0  0  0  0  0  0  0  0  0  0  0
  -27.2730  -27.2524   20.0681 C   0  0  0  0  0  0  0  0  0  0  0  0
  -23.4554  -10.0413   20.5082 C   0  0  0  0  0  0  0  0  0  0  0  0
  -23.5586   -8.0040   22.4112 C   0  0  0  0  0  0  0  0  0  0  0  0
  -22.2878   -9.6238   21.1470 C   0  0  0  0  0  0  0  0  0  0  0  0
  -26.4026  -15.6715   20.5349 C   0  0  0  0  0  0  0  0  0  0  0  0
  -27.9994  -17.0873   21.0645 C   0  0  0  0  0  0  0  0  0  0  0  0
  -28.6460  -14.6859   21.3162 C   0  0  0  0  0  0  0  0  0  0  0  0
  -23.0748  -29.8562   22.3174 C   0  0  0  0  0  0  0  0  0  0  0  0
  -21.2096  -27.3259   21.5169 C   0  0  0  0  0  0  0  0  0  0  0  0
  -20.9791  -24.2300   20.0995 C   0  0  0  0  0  0  0  0  0  0  0  0
  -25.7081  -21.8590   18.2659 C   0  0  0  0  0  0  0  0  0  0  0  0
  -22.3877  -34.7443   23.6181 C   0  0  0  0  0  0  0  0  0  0  0  0
  -23.6456  -29.5615   19.8795 C   0  0  0  0  0  0  0  0  0  0  0  0
  -23.7038  -26.9903   21.3390 C   0  0  0  0  0  0  0  0  0  0  0  0
  -21.5571  -33.4661   23.6984 C   0  0  0  0  0  0  0  0  0  0  0  0
  -25.8427  -21.2979   21.7792 C   0  0  0  0  0  0  0  0  0  0  0  0
  -22.3778  -32.3335   24.3072 C   0  0  0  0  0  0  0  0  0  0  0  0
  -26.1215  -19.7986   21.8998 C   0  0  0  0  0  0  0  0  0  0  0  0
  -24.9215  -21.6077   20.6014 C   0  0  0  0  0  0  0  0  0  0  0  0
  -25.6497  -19.5680   19.4253 C   0  0  0  0  0  0  0  0  0  0  0  0
  -23.6021  -32.0124   23.4415 C   0  0  1  0  0  0  0  0  0  0  0  0
  -22.6618  -29.2541   21.0042 C   0  0  1  0  0  0  0  0  0  0  0  0
  -26.6193  -19.2118   20.5652 C   0  0  2  0  0  0  0  0  0  0  0  0
  -30.0453  -19.6316   16.6257 C   0  0  0  0  0  0  0  0  0  0  0  0
  -29.9030  -20.0376   14.1417 C   0  0  0  0  0  0  0  0  0  0  0  0
  -19.3311  -22.3974   19.6274 C   0  0  0  0  0  0  0  0  0  0  0  0
  -30.9451  -25.0496   20.0937 C   0  0  0  0  0  0  0  0  0  0  0  0
  -21.3067  -26.4866   24.4488 C   0  0  0  0  0  0  0  0  0  0  0  0
  -20.4868  -24.2247   23.7562 C   0  0  0  0  0  0  0  0  0  0  0  0
  -19.0661  -26.2376   23.3661 C   0  0  0  0  0  0  0  0  0  0  0  0
  -21.3888  -24.4561   17.1772 C   0  0  0  0  0  0  0  0  0  0  0  0
  -26.5353  -21.9521   15.9279 C   0  0  0  0  0  0  0  0  0  0  0  0
  -31.0597  -25.3674   17.6092 C   0  0  0  0  0  0  0  0  0  0  0  0
  -30.3673  -25.2313   16.2460 C   0  0  0  0  0  0  0  0  0  0  0  0
  -29.3117  -26.6293   19.0138 C   0  0  0  0  0  0  0  0  0  1  0  0
  -29.2574  -20.3567   15.5101 C   0  0  0  0  0  0  0  0  0  0  0  0
  -21.1268  -25.8808   21.9455 C   0  0  1  0  0  0  0  0  0  0  0  0
  -20.0005  -23.6537   19.0922 C   0  0  2  0  0  0  0  0  0  0  0  0
  -30.1186  -25.3364   18.8336 C   0  0  2  0  0  0  0  0  0  0  0  0
  -20.5204  -25.7183   23.3679 C   0  0  0  0  0  0  0  0  0  0  0  0
  -25.8616  -16.8761   20.3345 N   0  0  0  0  0  0  0  0  0  0  0  0
  -29.5901  -23.9496   16.0785 N   0  0  0  0  0  0  0  0  0  0  0  0
  -26.8569  -17.7163   20.6653 N   0  0  0  0  0  0  0  0  0  0  0  0
  -22.4907  -27.8172   21.2284 N   0  0  0  0  0  0  0  0  0  0  0  0
  -25.4512  -21.0247   19.3663 N   0  0  0  0  0  0  0  0  0  0  0  0
  -29.0972  -17.7818   21.4319 N   0  0  0  0  0  0  0  0  0  0  0  0
  -28.2098  -13.3606   21.1832 N   0  0  0  0  0  0  0  0  0  0  0  0
  -23.2139  -31.2307   22.2871 N   0  0  0  0  0  0  0  0  0  0  0  0
  -20.3870  -25.1860   20.8975 N   0  0  0  0  0  0  0  0  0  0  0  0
  -26.2150  -21.2268   17.1371 N   0  0  0  0  0  0  0  0  0  0  0  0
  -20.7049  -23.3076   17.8253 N   0  3  0  0  0  0  0  0  0  0  0  0
  -29.8088  -14.9109   21.7295 O   0  0  0  0  0  0  0  0  0  0  0  0
  -23.2527  -29.1279   23.2868 O   0  0  0  0  0  0  0  0  0  0  0  0
  -20.1748  -27.9923   21.4341 O   0  0  0  0  0  0  0  0  0  0  0  0
  -22.1506  -23.8658   20.1737 O   0  0  0  0  0  0  0  0  0  0  0  0
  -25.5061  -23.0779   18.2895 O   0  0  0  0  0  0  0  0  0  0  0  0
  -23.4057  -11.0519   19.5627 O   0  0  0  0  0  0  0  0  0  0  0  0
  -28.4194  -26.5211   20.1222 O   0  0  0  0  0  0  0  0  0  1  0  0
  -23.6081   -7.0248   23.3238 F   0  0  0  0  0  0  0  0  0  0  0  0
  -21.1134  -10.1969   20.8499 F   0  0  0  0  0  0  0  0  0  0  0  0
  1  2  1  0  0  0  0
  1  5  2  0  0  0  0
  2  6  2  0  0  0  0
  3  8  2  0  0  0  0
  3 17  1  0  0  0  0
  4  9  1  0  0  0  0
  4 17  2  0  0  0  0
  5 19  1  0  0  0  0
  6 21  1  0  0  0  0
  7 10  2  0  0  0  0
  7 20  1  0  0  0  0
  8 25  1  0  0  0  0
  9 25  2  0  0  0  0
 10 26  1  0  0  0  0
 11 12  2  0  0  0  0
 11 27  1  0  0  0  0
 12 28  1  0  0  0  0
 13 22  1  0  0  0  0
 13 26  2  0  0  0  0
 14 28  2  0  0  0  0
 14 29  1  0  0  0  0
 15 23  2  0  0  0  0
 15 67  1  0  0  0  0
 16 24  2  0  0  0  0
 16 67  1  0  0  0  0
 17 30  1  0  0  0  0
 18 30  1  0  0  0  0
 18 31  2  0  0  0  0
 18 32  1  0  0  0  0
 19 21  2  0  0  0  0
 19 37  1  0  0  0  0
 20 22  2  0  0  0  0
 20 38  1  0  0  0  0
 21 46  1  0  0  0  0
 22 39  1  0  0  0  0
 23 24  1  0  0  0  0
 23 57  1  0  0  0  0
 24 61  1  0  0  0  0
 25 82  1  0  0  0  0
 26 83  1  0  0  0  0
 27 29  2  0  0  0  0
 27 82  1  0  0  0  0
 28 84  1  0  0  0  0
 29 85  1  0  0  0  0
 30 66  2  0  0  0  0
 31 68  1  0  0  0  0
 31 71  1  0  0  0  0
 32 72  1  0  0  0  0
 32 77  2  0  0  0  0
 33 47  1  0  0  0  0
 33 73  1  0  0  0  0
 33 78  2  0  0  0  0
 34 62  1  0  0  0  0
 34 69  1  0  0  0  0
 34 79  2  0  0  0  0
 35 63  1  0  0  0  0
 35 74  1  0  0  0  0
 35 80  2  0  0  0  0
 36 70  1  0  0  0  0
 36 75  1  0  0  0  0
 36 81  2  0  0  0  0
 37 40  1  0  0  0  0
 38 47  1  0  0  0  0
 39 69  1  0  0  0  0
 40 42  1  0  0  0  0
 41 43  1  0  0  0  0
 41 44  1  0  0  0  0
 42 46  1  0  0  0  0
 43 48  1  0  0  0  0
 44 70  1  0  0  0  0
 45 48  1  0  0  0  0
 45 70  1  0  0  0  0
 46 73  1  0  0  0  0
 47 69  1  0  0  0  0
 48 68  1  0  0  0  0
 49 61  1  0  0  0  0
 50 61  1  0  0  0  0
 51 63  1  0  0  0  0
 52 64  1  0  0  0  0
 53 65  1  0  0  0  0
 54 65  1  0  0  0  0
 55 65  1  0  0  0  0
 56 76  1  0  0  0  0
 57 75  1  0  0  0  0
 58 59  1  0  0  0  0
 58 64  1  0  0  0  0
 59 67  1  0  0  0  0
 60 64  1  0  0  0  0
 60 83  1  0  0  0  0
 62 65  1  0  0  0  0
 62 74  1  0  0  0  0
 63 76  1  0  0  0  0
 66 68  1  0  0  0  0
M  CHG  1  76   1
M  ISO  4  36 100  60 101  75 100  83 101
M  END
> <Batch ID>
0109

> <Smiles>
CNC(C)C(=O)NC(C(=O)N1Cc2cc([101O:1][101CH2:1]C(C)CCn3cc(C[100NH:0][100C:0](=O)N4CCCC(n5nc(-c6ccc(Oc7ccc(F)cc7F)cc6)c(C(N)=O)c5N)C4)c(C(C)C)c3)ccc2CC1C(=O)NC1CCCc2ccccc21)C(C)(C)C

> <Shape>
0.249

> <Color>
0.077

> <Negative vol penalty>
0.000

$$$$

  -OEChem-04052319563D

 81 88  0     1  0  0  0  0  0999 V2000
  -17.3227  -25.8479   24.7426 C   0  0  0  0  0  0  0  0  0  0  0  0
  -18.6990  -25.8095   24.9417 C   0  0  0  0  0  0  0  0  0  0  0  0
  -26.5636  -12.5386   21.7393 C   0  0  0  0  0  0  0  0  0  0  0  0
  -25.9945  -13.8416   19.7861 C   0  0  0  0  0  0  0  0  0  0  0  0
  -16.8083  -25.9111   23.4483 C   0  0  0  0  0  0  0  0  0  0  0  0
  -19.5618  -25.8332   23.8465 C   0  0  0  0  0  0  0  0  0  0  0  0
  -26.0273  -28.2118   21.8830 C   0  0  0  0  0  0  0  0  0  0  0  0
  -25.2914  -11.9667   21.7286 C   0  0  0  0  0  0  0  0  0  0  0  0
  -24.7223  -13.2697   19.7752 C   0  0  0  0  0  0  0  0  0  0  0  0
  -27.2123  -27.7579   21.3055 C   0  0  0  0  0  0  0  0  0  0  0  0
  -23.6665   -9.5379   20.0276 C   0  0  0  0  0  0  0  0  0  0  0  0
  -23.5742   -8.1585   20.2126 C   0  0  0  0  0  0  0  0  0  0  0  0
  -26.2121  -27.9477   19.1185 C   0  0  0  0  0  0  0  0  0  0  0  0
  -22.2239   -8.5132   22.1844 C   0  0  0  0  0  0  0  0  0  0  0  0
  -26.9151  -13.4761   20.7681 C   0  0  0  0  0  0  0  0  0  0  0  0
  -29.3811  -13.5912   20.1253 C   0  0  0  0  0  0  0  0  0  0  0  0
  -17.6653  -25.9453   22.3370 C   0  0  0  0  0  0  0  0  0  0  0  0
  -24.9203  -28.5273   21.0820 C   0  0  0  0  0  0  0  0  0  0  0  0
  -19.0583  -25.8955   22.5360 C   0  0  0  0  0  0  0  0  0  0  0  0
  -25.0151  -28.4079   19.6881 C   0  0  0  0  0  0  0  0  0  0  0  0
  -24.3708  -12.3323   20.7465 C   0  0  0  0  0  0  0  0  0  0  0  0
  -27.3039  -27.6230   19.9233 C   0  0  0  0  0  0  0  0  0  0  0  0
  -23.0375  -10.4050   20.9211 C   0  0  0  0  0  0  0  0  0  0  0  0
  -22.8529   -7.6461   21.2910 C   0  0  0  0  0  0  0  0  0  0  0  0
  -22.3162   -9.8927   21.9994 C   0  0  0  0  0  0  0  0  0  0  0  0
  -28.2289  -14.0676   20.7790 C   0  0  0  0  0  0  0  0  0  0  0  0
  -30.3588  -14.5010   20.4463 C   0  0  0  0  0  0  0  0  0  0  0  0
  -29.5523  -12.4303   19.3016 C   0  0  0  0  0  0  0  0  0  0  0  0
  -21.9539  -27.4167   20.8172 C   0  0  0  0  0  0  0  0  0  0  0  0
  -21.6197  -29.9091   18.7681 C   0  0  0  0  0  0  0  0  0  0  0  0
  -23.1017  -32.1372   16.6501 C   0  0  0  0  0  0  0  0  0  0  0  0
  -30.1947  -20.2669   22.0520 C   0  0  0  0  0  0  0  0  0  0  0  0
  -17.0616  -25.9659   20.9551 C   0  0  0  0  0  0  0  0  0  0  0  0
  -23.6581  -29.0412   21.7185 C   0  0  0  0  0  0  0  0  0  0  0  0
  -23.8621  -28.7528   18.7825 C   0  0  0  0  0  0  0  0  0  0  0  0
  -18.0515  -26.3655   19.8639 C   0  0  0  0  0  0  0  0  0  0  0  0
  -31.6307  -17.5739   23.8858 C   0  0  0  0  0  0  0  0  0  0  0  0
  -19.3656  -25.6093   20.0321 C   0  0  0  0  0  0  0  0  0  0  0  0
  -31.0257  -16.3269   23.2385 C   0  0  0  0  0  0  0  0  0  0  0  0
  -30.6277  -18.7241   23.9411 C   0  0  0  0  0  0  0  0  0  0  0  0
  -29.4054  -17.8234   22.0000 C   0  0  0  0  0  0  0  0  0  0  0  0
  -20.0270  -25.9445   21.3744 C   0  0  1  0  0  0  0  0  0  0  0  0
  -22.4243  -28.8435   20.8433 C   0  0  1  0  0  0  0  0  0  0  0  0
  -30.3967  -16.6542   21.8708 C   0  0  2  0  0  0  0  0  0  0  0  0
  -22.5653  -34.0277   15.0895 C   0  0  0  0  0  0  0  0  0  0  0  0
  -20.6032  -27.9098   16.6993 C   0  0  0  0  0  0  0  0  0  0  0  0
  -20.9904  -29.6440   14.9355 C   0  0  0  0  0  0  0  0  0  0  0  0
  -19.3489  -30.0723   16.7644 C   0  0  0  0  0  0  0  0  0  0  0  0
  -29.3574  -24.7258   16.6257 C   0  0  0  0  0  0  0  0  0  0  0  0
  -30.8452  -26.2623   17.9171 C   0  0  0  0  0  0  0  0  0  0  0  0
  -28.6275  -23.3526   21.6843 C   0  0  0  0  0  0  0  0  0  0  0  0
  -27.1951  -21.8005   20.3187 C   0  0  0  0  0  0  0  0  0  0  0  0
  -24.7302  -34.0471   18.2182 C   0  0  0  0  0  0  0  0  0  0  0  0
  -29.6982  -21.6858   20.0773 C   0  0  0  0  0  0  0  0  0  0  0  0
  -29.6290  -24.4706   19.1417 C   0  0  0  0  0  0  0  0  0  0  0  0
  -28.3459  -26.4534   18.1338 C   0  0  0  0  0  0  0  0  0  1  0  0
  -21.8225  -30.1088   17.2855 C   0  0  1  0  0  0  0  0  0  0  0  0
  -22.9560  -33.6415   16.5076 C   0  0  2  0  0  0  0  0  0  0  0  0
  -20.7125  -29.4253   16.4381 C   0  0  0  0  0  0  0  0  0  0  0  0
  -29.5230  -25.4674   17.9650 C   0  0  0  0  0  0  0  0  0  0  0  0
  -28.4982  -22.6034   20.3556 C   0  0  0  0  0  0  0  0  0  0  0  0
  -28.4524  -15.1924   21.4637 N   0  0  0  0  0  0  0  0  0  0  0  0
  -29.7564  -15.4305   21.2420 N   0  0  0  0  0  0  0  0  0  0  0  0
  -22.6473  -29.2451   19.4529 N   0  0  0  0  0  0  0  0  0  0  0  0
  -30.0695  -18.9848   22.6121 N   0  0  0  0  0  0  0  0  0  0  0  0
  -31.6665  -14.5884   20.1227 N   0  0  0  0  0  0  0  0  0  0  0  0
  -28.4439  -11.6033   19.0738 N   0  0  0  0  0  0  0  0  0  0  0  0
  -20.6754  -27.2367   21.3097 N   0  0  0  0  0  0  0  0  0  0  0  0
  -21.9306  -31.5489   17.0787 N   0  0  0  0  0  0  0  0  0  0  0  0
  -29.6436  -20.4269   20.7866 N   0  0  0  0  0  0  0  0  0  0  0  0
  -24.2396  -34.3203   16.8428 N   0  3  0  0  0  0  0  0  0  0  0  0
  -28.4210  -23.6197   19.2708 N   0  3  0  0  0  0  0  0  0  0  0  0
  -30.6594  -12.1261   18.7962 O   0  0  0  0  0  0  0  0  0  0  0  0
  -22.6953  -26.5439   20.3810 O   0  0  0  0  0  0  0  0  0  0  0  0
  -20.5908  -30.3330   19.3002 O   0  0  0  0  0  0  0  0  0  0  0  0
  -24.1486  -31.5429   16.4021 O   0  0  0  0  0  0  0  0  0  0  0  0
  -30.7609  -21.1983   22.6341 O   0  0  0  0  0  0  0  0  0  0  0  0
  -23.1294  -11.7743   20.7356 O   0  0  0  0  0  0  0  0  0  0  0  0
  -28.4591  -27.1795   19.3571 O   0  0  0  0  0  0  0  0  0  1  0  0
  -22.7632   -6.3214   21.4676 F   0  0  0  0  0  0  0  0  0  0  0  0
  -21.7088  -10.7207   22.8604 F   0  0  0  0  0  0  0  0  0  0  0  0
  1  2  1  0  0  0  0
  1  5  2  0  0  0  0
  2  6  2  0  0  0  0
  3  8  2  0  0  0  0
  3 15  1  0  0  0  0
  4  9  1  0  0  0  0
  4 15  2  0  0  0  0
  5 17  1  0  0  0  0
  6 19  1  0  0  0  0
  7 10  2  0  0  0  0
  7 18  1  0  0  0  0
  8 21  1  0  0  0  0
  9 21  2  0  0  0  0
 10 22  1  0  0  0  0
 11 12  2  0  0  0  0
 11 23  1  0  0  0  0
 12 24  1  0  0  0  0
 13 20  1  0  0  0  0
 13 22  2  0  0  0  0
 14 24  2  0  0  0  0
 14 25  1  0  0  0  0
 15 26  1  0  0  0  0
 16 26  1  0  0  0  0
 16 27  2  0  0  0  0
 16 28  1  0  0  0  0
 17 19  2  0  0  0  0
 17 33  1  0  0  0  0
 18 20  2  0  0  0  0
 18 34  1  0  0  0  0
 19 42  1  0  0  0  0
 20 35  1  0  0  0  0
 21 78  1  0  0  0  0
 22 79  1  0  0  0  0
 23 25  2  0  0  0  0
 23 78  1  0  0  0  0
 24 80  1  0  0  0  0
 25 81  1  0  0  0  0
 26 62  2  0  0  0  0
 27 63  1  0  0  0  0
 27 66  1  0  0  0  0
 28 67  1  0  0  0  0
 28 73  2  0  0  0  0
 29 43  1  0  0  0  0
 29 68  1  0  0  0  0
 29 74  2  0  0  0  0
 30 57  1  0  0  0  0
 30 64  1  0  0  0  0
 30 75  2  0  0  0  0
 31 58  1  0  0  0  0
 31 69  1  0  0  0  0
 31 76  2  0  0  0  0
 32 65  1  0  0  0  0
 32 70  1  0  0  0  0
 32 77  2  0  0  0  0
 33 36  1  0  0  0  0
 34 43  1  0  0  0  0
 35 64  1  0  0  0  0
 36 38  1  0  0  0  0
 37 39  1  0  0  0  0
 37 40  1  0  0  0  0
 38 42  1  0  0  0  0
 39 44  1  0  0  0  0
 40 65  1  0  0  0  0
 41 44  1  0  0  0  0
 41 65  1  0  0  0  0
 42 68  1  0  0  0  0
 43 64  1  0  0  0  0
 44 63  1  0  0  0  0
 45 58  1  0  0  0  0
 46 59  1  0  0  0  0
 47 59  1  0  0  0  0
 48 59  1  0  0  0  0
 49 60  1  0  0  0  0
 50 60  1  0  0  0  0
 51 61  1  0  0  0  0
 52 61  1  0  0  0  0
 53 71  1  0  0  0  0
 54 61  1  0  0  0  0
 54 70  1  0  0  0  0
 55 60  1  0  0  0  0
 55 72  1  0  0  0  0
 56 60  1  0  0  0  0
 56 79  1  0  0  0  0
 57 59  1  0  0  0  0
 57 69  1  0  0  0  0
 58 71  1  0  0  0  0
 61 72  1  0  0  0  0
 62 63  1  0  0  0  0
M  CHG  2  71   1  72   1
M  ISO  4  32 100  56 101  70 100  79 101
M  END
> <Batch ID>
0109

> <Smiles>
CNC(C)C(=O)NC(C(=O)N1Cc2cc([101O:1][101CH2:1]C(C)(C)CNC(C)(C)C[100NH:0][100C:0](=O)N3CCCC(n4nc(-c5ccc(Oc6ccc(F)cc6F)cc5)c(C(N)=O)c4N)C3)ccc2CC1C(=O)NC1CCCc2ccccc21)C(C)(C)C

> <Shape>
0.282

> <Color>
0.078

> <Negative vol penalty>
0.000

$$$$

  -OEChem-04052319563D

 86 94  0     1  0  0  0  0  0999 V2000
  -27.8088  -37.6383   21.7741 C   0  0  0  0  0  0  0  0  0  0  0  0
  -28.2853  -36.4091   21.3297 C   0  0  0  0  0  0  0  0  0  0  0  0
  -29.6057  -12.1693   18.0695 C   0  0  0  0  0  0  0  0  0  0  0  0
  -29.6341  -11.3672   20.3483 C   0  0  0  0  0  0  0  0  0  0  0  0
  -26.8599  -37.6893   22.7943 C   0  0  0  0  0  0  0  0  0  0  0  0
  -27.8139  -35.2301   21.9062 C   0  0  0  0  0  0  0  0  0  0  0  0
  -26.9166  -29.8619   19.0984 C   0  0  0  0  0  0  0  0  0  0  0  0
  -30.4717  -11.1413   17.6969 C   0  0  0  0  0  0  0  0  0  0  0  0
  -30.5001  -10.3392   19.9757 C   0  0  0  0  0  0  0  0  0  0  0  0
  -27.6881  -28.7032   19.0214 C   0  0  0  0  0  0  0  0  0  0  0  0
  -30.2661   -7.8367   17.0113 C   0  0  0  0  0  0  0  0  0  0  0  0
  -29.9726   -7.1333   15.8431 C   0  0  0  0  0  0  0  0  0  0  0  0
  -26.4307  -27.7519   20.8471 C   0  0  0  0  0  0  0  0  0  0  0  0
  -32.0940   -7.8078   14.9041 C   0  0  0  0  0  0  0  0  0  0  0  0
  -29.1869  -12.2823   19.3953 C   0  0  0  0  0  0  0  0  0  0  0  0
  -26.8854  -13.3107   19.7868 C   0  0  0  0  0  0  0  0  0  0  0  0
  -26.3694  -36.5100   23.3769 C   0  0  0  0  0  0  0  0  0  0  0  0
  -25.9018  -29.9788   20.0592 C   0  0  0  0  0  0  0  0  0  0  0  0
  -26.8585  -35.2654   22.9360 C   0  0  0  0  0  0  0  0  0  0  0  0
  -25.6461  -28.9121   20.9326 C   0  0  0  0  0  0  0  0  0  0  0  0
  -30.9189  -10.2263   18.6500 C   0  0  0  0  0  0  0  0  0  0  0  0
  -27.4471  -27.6491   19.8976 C   0  0  0  0  0  0  0  0  0  0  0  0
  -31.4735   -8.5257   17.1259 C   0  0  0  0  0  0  0  0  0  0  0  0
  -30.8866   -7.1188   14.7895 C   0  0  0  0  0  0  0  0  0  0  0  0
  -32.3875   -8.5112   16.0723 C   0  0  0  0  0  0  0  0  0  0  0  0
  -28.2928  -13.3443   19.7809 C   0  0  0  0  0  0  0  0  0  0  0  0
  -26.5140  -14.5563   20.2307 C   0  0  0  0  0  0  0  0  0  0  0  0
  -25.9936  -12.2484   19.4235 C   0  0  0  0  0  0  0  0  0  0  0  0
  -25.3536  -31.9167   22.5184 C   0  0  0  0  0  0  0  0  0  0  0  0
  -22.5296  -30.3253   22.6411 C   0  0  0  0  0  0  0  0  0  0  0  0
  -28.1986  -24.1253   19.4646 C   0  0  0  0  0  0  0  0  0  0  0  0
  -20.7625  -27.4992   21.9083 C   0  0  0  0  0  0  0  0  0  0  0  0
  -29.7648  -19.7529   20.1066 C   0  0  0  0  0  0  0  0  0  0  0  0
  -25.3790  -36.6171   24.5092 C   0  0  0  0  0  0  0  0  0  0  0  0
  -25.0609  -31.2248   20.1119 C   0  0  0  0  0  0  0  0  0  0  0  0
  -24.5551  -28.9796   21.9688 C   0  0  0  0  0  0  0  0  0  0  0  0
  -24.6535  -35.3081   24.8098 C   0  0  0  0  0  0  0  0  0  0  0  0
  -28.0149  -18.1734   22.9656 C   0  0  0  0  0  0  0  0  0  0  0  0
  -25.6441  -34.1495   24.8663 C   0  0  0  0  0  0  0  0  0  0  0  0
  -27.8423  -16.7314   22.4916 C   0  0  0  0  0  0  0  0  0  0  0  0
  -29.2367  -18.8342   22.3353 C   0  0  0  0  0  0  0  0  0  0  0  0
  -30.7572  -20.2171   17.8870 C   0  0  0  0  0  0  0  0  0  0  0  0
  -29.0735  -17.3391   20.3704 C   0  0  0  0  0  0  0  0  0  0  0  0
  -28.5446  -19.1333   17.9715 C   0  0  0  0  0  0  0  0  0  0  0  0
  -30.2041  -21.3759   17.0735 C   0  0  0  0  0  0  0  0  0  0  0  0
  -26.3531  -33.9637   23.5193 C   0  0  1  0  0  0  0  0  0  0  0  0
  -24.3930  -31.4381   21.4668 C   0  0  1  0  0  0  0  0  0  0  0  0
  -27.8263  -16.6586   20.9550 C   0  0  1  0  0  0  0  0  0  0  0  0
  -27.9142  -20.2676   17.1495 C   0  0  1  0  0  0  0  0  0  0  0  0
  -18.4852  -26.4772   22.1673 C   0  0  0  0  0  0  0  0  0  0  0  0
  -25.7925  -20.8285   18.3780 C   0  0  0  0  0  0  0  0  0  0  0  0
  -27.2734  -21.4079   14.6208 C   0  0  0  0  0  0  0  0  0  0  0  0
  -29.6162  -22.3181   14.3825 C   0  0  0  0  0  0  0  0  0  0  0  0
  -23.1241  -29.7509   25.5782 C   0  0  0  0  0  0  0  0  0  0  0  0
  -21.3544  -27.9810   25.5182 C   0  0  0  0  0  0  0  0  0  0  0  0
  -20.7480  -30.3635   25.0952 C   0  0  0  0  0  0  0  0  0  0  0  0
  -20.3873  -27.3088   18.9788 C   0  0  0  0  0  0  0  0  0  0  0  0
  -27.5885  -25.2953   20.2065 C   0  0  0  0  0  0  0  0  0  1  0  0
  -28.0190  -21.6514   19.2818 C   0  0  0  0  0  0  0  0  0  0  0  0
  -22.0333  -29.0805   23.3362 C   0  0  1  0  0  0  0  0  0  0  0  0
  -19.3984  -27.3006   21.2724 C   0  0  2  0  0  0  0  0  0  0  0  0
  -27.2064  -21.2973   18.0300 C   0  0  1  0  0  0  0  0  0  0  0  0
  -28.4944  -21.9552   15.3422 C   0  0  0  0  0  0  0  0  0  0  0  0
  -21.8369  -29.2931   24.8638 C   0  0  0  0  0  0  0  0  0  0  0  0
  -28.7822  -14.5184   20.1886 N   0  0  0  0  0  0  0  0  0  0  0  0
  -27.6762  -15.2340   20.4547 N   0  0  0  0  0  0  0  0  0  0  0  0
  -23.7643  -30.2213   21.9848 N   0  0  0  0  0  0  0  0  0  0  0  0
  -29.2221  -18.7118   20.8775 N   0  0  0  0  0  0  0  0  0  0  0  0
  -29.7232  -19.5991   18.7128 N   0  0  0  0  0  0  0  0  0  0  0  0
  -25.3100  -15.1270   20.4473 N   0  0  0  0  0  0  0  0  0  0  0  0
  -26.5426  -11.0344   18.9886 N   0  0  0  0  0  0  0  0  0  0  0  0
  -25.4828  -33.2912   22.5786 N   0  0  0  0  0  0  0  0  0  0  0  0
  -27.6090  -22.9544   19.8522 N   0  0  0  0  0  0  0  0  0  0  0  0
  -20.8239  -28.6730   22.6292 N   0  0  0  0  0  0  0  0  0  0  0  0
  -28.9999  -20.9023   16.2906 N   0  3  1  0  0  0  0  0  0  0  0  0
  -19.5336  -26.5980   19.9651 N   0  3  0  0  0  0  0  0  0  0  0  0
  -24.7466  -12.3776   19.4672 O   0  0  0  0  0  0  0  0  0  0  0  0
  -25.9334  -31.0996   23.2240 O   0  0  0  0  0  0  0  0  0  0  0  0
  -21.8437  -31.3501   22.6730 O   0  0  0  0  0  0  0  0  0  0  0  0
  -29.0976  -24.2582   18.6387 O   0  0  0  0  0  0  0  0  0  0  0  0
  -21.6804  -26.6918   21.7814 O   0  0  0  0  0  0  0  0  0  0  0  0
  -30.2503  -20.7619   20.6333 O   0  0  0  0  0  0  0  0  0  0  0  0
  -31.7638   -9.2229   18.2867 O   0  0  0  0  0  0  0  0  0  0  0  0
  -28.2069  -26.5055   19.8242 O   0  0  0  0  0  0  0  0  0  1  0  0
  -30.6052   -6.4420   13.6684 F   0  0  0  0  0  0  0  0  0  0  0  0
  -33.5496   -9.1702   16.1770 F   0  0  0  0  0  0  0  0  0  0  0  0
  1  2  1  0  0  0  0
  1  5  2  0  0  0  0
  2  6  2  0  0  0  0
  3  8  2  0  0  0  0
  3 15  1  0  0  0  0
  4  9  1  0  0  0  0
  4 15  2  0  0  0  0
  5 17  1  0  0  0  0
  6 19  1  0  0  0  0
  7 10  2  0  0  0  0
  7 18  1  0  0  0  0
  8 21  1  0  0  0  0
  9 21  2  0  0  0  0
 10 22  1  0  0  0  0
 11 12  2  0  0  0  0
 11 23  1  0  0  0  0
 12 24  1  0  0  0  0
 13 20  1  0  0  0  0
 13 22  2  0  0  0  0
 14 24  2  0  0  0  0
 14 25  1  0  0  0  0
 15 26  1  0  0  0  0
 16 26  1  0  0  0  0
 16 27  2  0  0  0  0
 16 28  1  0  0  0  0
 17 19  2  0  0  0  0
 17 34  1  0  0  0  0
 18 20  2  0  0  0  0
 18 35  1  0  0  0  0
 19 46  1  0  0  0  0
 20 36  1  0  0  0  0
 21 83  1  0  0  0  0
 22 84  1  0  0  0  0
 23 25  2  0  0  0  0
 23 83  1  0  0  0  0
 24 85  1  0  0  0  0
 25 86  1  0  0  0  0
 26 65  2  0  0  0  0
 27 66  1  0  0  0  0
 27 70  1  0  0  0  0
 28 71  1  0  0  0  0
 28 77  2  0  0  0  0
 29 47  1  0  0  0  0
 29 72  1  0  0  0  0
 29 78  2  0  0  0  0
 30 60  1  0  0  0  0
 30 67  1  0  0  0  0
 30 79  2  0  0  0  0
 31 58  1  0  0  0  0
 31 73  1  0  0  0  0
 31 80  2  0  0  0  0
 32 61  1  0  0  0  0
 32 74  1  0  0  0  0
 32 81  2  0  0  0  0
 33 68  1  0  0  0  0
 33 69  1  0  0  0  0
 33 82  2  0  0  0  0
 34 37  1  0  0  0  0
 35 47  1  0  0  0  0
 36 67  1  0  0  0  0
 37 39  1  0  0  0  0
 38 40  1  0  0  0  0
 38 41  1  0  0  0  0
 39 46  1  0  0  0  0
 40 48  1  0  0  0  0
 41 68  1  0  0  0  0
 42 45  1  0  0  0  0
 42 69  1  0  0  0  0
 43 48  1  0  0  0  0
 43 68  1  0  0  0  0
 44 49  1  0  0  0  0
 44 69  1  0  0  0  0
 45 75  1  0  0  0  0
 46 72  1  0  0  0  0
 47 67  1  0  0  0  0
 48 66  1  0  0  0  0
 49 62  1  0  0  0  0
 49 75  1  0  0  0  0
 50 61  1  0  0  0  0
 51 62  1  0  0  0  0
 52 63  1  0  0  0  0
 53 63  1  0  0  0  0
 54 64  1  0  0  0  0
 55 64  1  0  0  0  0
 56 64  1  0  0  0  0
 57 76  1  0  0  0  0
 58 84  1  0  0  0  0
 59 62  1  0  0  0  0
 59 73  1  0  0  0  0
 60 64  1  0  0  0  0
 60 74  1  0  0  0  0
 61 76  1  0  0  0  0
 63 75  1  0  0  0  0
 65 66  1  0  0  0  0
M  CHG  2  75   1  76   1
M  ISO  4  33 100  58 101  69 100  84 101
M  END
> <Batch ID>
0109

> <Smiles>
CNC(C)C(=O)NC(C(=O)N1Cc2cc([101O:1][101CH2:1]C(=O)NCC(C)C3C[100N:0]([100C:0](=O)N4CCCC(n5nc(-c6ccc(Oc7ccc(F)cc7F)cc6)c(C(N)=O)c5N)C4)CCN3C(C)C)ccc2CC1C(=O)NC1CCCc2ccccc21)C(C)(C)C

> <Shape>
0.290

> <Color>
0.099

> <Negative vol penalty>
0.000

$$$$

  -OEChem-04052319563D

 84 92  0     1  0  0  0  0  0999 V2000
  -31.0007  -26.2906   27.9956 C   0  0  0  0  0  0  0  0  0  0  0  0
  -30.8335  -25.9286   26.6627 C   0  0  0  0  0  0  0  0  0  0  0  0
  -24.3867   -9.6993   21.4081 C   0  0  0  0  0  0  0  0  0  0  0  0
  -24.8427  -10.7548   23.5330 C   0  0  0  0  0  0  0  0  0  0  0  0
  -29.8852  -26.5335   28.7960 C   0  0  0  0  0  0  0  0  0  0  0  0
  -29.5505  -25.8084   26.1298 C   0  0  0  0  0  0  0  0  0  0  0  0
  -29.1275  -27.9806   21.5749 C   0  0  0  0  0  0  0  0  0  0  0  0
  -24.0444   -8.5190   22.0679 C   0  0  0  0  0  0  0  0  0  0  0  0
  -24.5004   -9.5745   24.1928 C   0  0  0  0  0  0  0  0  0  0  0  0
  -29.6386  -27.2780   20.4845 C   0  0  0  0  0  0  0  0  0  0  0  0
  -21.3857   -7.2910   23.7579 C   0  0  0  0  0  0  0  0  0  0  0  0
  -20.2302   -6.6286   23.3437 C   0  0  0  0  0  0  0  0  0  0  0  0
  -27.4121  -26.5352   19.9273 C   0  0  0  0  0  0  0  0  0  0  0  0
  -21.5450   -4.6765   22.7979 C   0  0  0  0  0  0  0  0  0  0  0  0
  -27.7943  -19.9772   21.0397 C   0  0  0  0  0  0  0  0  0  0  0  0
  -24.7859  -10.8173   22.1407 C   0  0  0  0  0  0  0  0  0  0  0  0
  -24.2822  -13.0987   21.1165 C   0  0  0  0  0  0  0  0  0  0  0  0
  -28.5881  -26.4255   28.2700 C   0  0  0  0  0  0  0  0  0  0  0  0
  -27.7540  -27.9568   21.8565 C   0  0  0  0  0  0  0  0  0  0  0  0
  -28.4166  -26.0487   26.9243 C   0  0  0  0  0  0  0  0  0  0  0  0
  -26.8858  -27.2404   21.0204 C   0  0  0  0  0  0  0  0  0  0  0  0
  -24.1012   -8.4566   23.4602 C   0  0  0  0  0  0  0  0  0  0  0  0
  -28.7812  -26.5528   19.6622 C   0  0  0  0  0  0  0  0  0  0  0  0
  -22.6209   -6.6463   23.6920 C   0  0  0  0  0  0  0  0  0  0  0  0
  -20.3098   -5.3213   22.8637 C   0  0  0  0  0  0  0  0  0  0  0  0
  -22.7005   -5.3391   23.2120 C   0  0  0  0  0  0  0  0  0  0  0  0
  -25.1401  -12.0366   21.4597 C   0  0  0  0  0  0  0  0  0  0  0  0
  -28.2130  -21.2612   20.7894 C   0  0  0  0  0  0  0  0  0  0  0  0
  -28.8462  -19.1667   20.5723 C   0  0  0  0  0  0  0  0  0  0  0  0
  -25.0972  -14.0096   20.4900 C   0  0  0  0  0  0  0  0  0  0  0  0
  -22.8745  -13.2485   21.3437 C   0  0  0  0  0  0  0  0  0  0  0  0
  -25.9815  -26.9502   24.2955 C   0  0  0  0  0  0  0  0  0  0  0  0
  -23.5741  -28.3152   22.6033 C   0  0  0  0  0  0  0  0  0  0  0  0
  -22.3829  -29.3463   19.5760 C   0  0  0  0  0  0  0  0  0  0  0  0
  -29.8526  -16.8899   20.1853 C   0  0  0  0  0  0  0  0  0  0  0  0
  -27.4119  -26.6518   29.1865 C   0  0  0  0  0  0  0  0  0  0  0  0
  -27.2151  -28.7417   23.0210 C   0  0  0  0  0  0  0  0  0  0  0  0
  -25.4007  -27.1993   21.2678 C   0  0  0  0  0  0  0  0  0  0  0  0
  -26.0950  -26.8677   28.4454 C   0  0  0  0  0  0  0  0  0  0  0  0
  -29.8708  -13.5850   18.8608 C   0  0  0  0  0  0  0  0  0  0  0  0
  -25.9233  -25.8237   27.3467 C   0  0  0  0  0  0  0  0  0  0  0  0
  -28.5711  -12.9749   19.3906 C   0  0  0  0  0  0  0  0  0  0  0  0
  -30.5194  -14.5151   19.8845 C   0  0  0  0  0  0  0  0  0  0  0  0
  -28.3397  -14.9538   20.9455 C   0  0  0  0  0  0  0  0  0  0  0  0
  -27.0416  -25.9320   26.3031 C   0  0  1  0  0  0  0  0  0  0  0  0
  -25.8658  -28.2285   23.5143 C   0  0  1  0  0  0  0  0  0  0  0  0
  -27.6160  -14.0602   19.9250 C   0  0  2  0  0  0  0  0  0  0  0  0
  -27.3154  -22.8256   22.5503 C   0  0  0  0  0  0  0  0  0  0  0  0
  -26.2338  -22.7351   20.2750 C   0  0  0  0  0  0  0  0  0  0  0  0
  -20.3682  -30.3893   18.5032 C   0  0  0  0  0  0  0  0  0  0  0  0
  -30.4738  -24.3147   16.4292 C   0  0  0  0  0  0  0  0  0  0  0  0
  -22.0943  -25.6541   22.8009 C   0  0  0  0  0  0  0  0  0  0  0  0
  -20.5882  -26.4345   20.9594 C   0  0  0  0  0  0  0  0  0  0  0  0
  -20.6556  -27.6743   23.1230 C   0  0  0  0  0  0  0  0  0  0  0  0
  -23.9416  -31.6872   18.6542 C   0  0  0  0  0  0  0  0  0  0  0  0
  -29.8813  -22.9157   18.4239 C   0  0  0  0  0  0  0  0  0  0  0  0
  -30.3322  -22.2702   19.7415 C   0  0  0  0  0  0  0  0  0  0  0  0
  -30.6097  -25.3669   18.7103 C   0  0  0  0  0  0  0  0  0  1  0  0
  -27.5631  -22.5594   21.0466 C   0  0  0  0  0  0  0  0  0  0  0  0
  -22.6164  -27.8435   21.5359 C   0  0  1  0  0  0  0  0  0  0  0  0
  -21.7252  -30.6435   19.1411 C   0  0  2  0  0  0  0  0  0  0  0  0
  -30.7758  -24.0665   17.9126 C   0  0  2  0  0  0  0  0  0  0  0  0
  -21.5168  -26.9006   22.1010 C   0  0  0  0  0  0  0  0  0  0  0  0
  -26.4033  -12.2515   21.0824 N   0  0  0  0  0  0  0  0  0  0  0  0
  -29.8570  -19.8763   20.0635 N   0  0  0  0  0  0  0  0  0  0  0  0
  -29.4421  -21.1462   20.2096 N   0  0  0  0  0  0  0  0  0  0  0  0
  -26.3450  -13.4591   20.4955 N   0  0  0  0  0  0  0  0  0  0  0  0
  -24.9229  -27.9778   22.4224 N   0  0  0  0  0  0  0  0  0  0  0  0
  -29.5568  -15.5193   20.3426 N   0  0  0  0  0  0  0  0  0  0  0  0
  -24.8610  -15.2198   19.9403 N   0  0  0  0  0  0  0  0  0  0  0  0
  -22.1906  -12.2173   22.0019 N   0  0  0  0  0  0  0  0  0  0  0  0
  -28.8488  -17.7509   20.6278 N   0  0  0  0  0  0  0  0  0  0  0  0
  -26.7933  -27.0433   25.4098 N   0  0  0  0  0  0  0  0  0  0  0  0
  -22.0991  -29.0457   20.8914 N   0  0  0  0  0  0  0  0  0  0  0  0
  -22.5841  -31.3534   18.1514 N   0  3  0  0  0  0  0  0  0  0  0  0
  -22.2388  -14.2593   20.9594 O   0  0  0  0  0  0  0  0  0  0  0  0
  -25.3776  -25.9536   23.9162 O   0  0  0  0  0  0  0  0  0  0  0  0
  -23.1424  -28.9654   23.5586 O   0  0  0  0  0  0  0  0  0  0  0  0
  -23.0758  -28.6657   18.8229 O   0  0  0  0  0  0  0  0  0  0  0  0
  -30.9063  -17.2714   19.6693 O   0  0  0  0  0  0  0  0  0  0  0  0
  -23.7670   -7.3051   24.1043 O   0  0  0  0  0  0  0  0  0  0  0  0
  -29.2775  -25.8657   18.5976 O   0  0  0  0  0  0  0  0  0  1  0  0
  -19.1999   -4.6847   22.4675 F   0  0  0  0  0  0  0  0  0  0  0  0
  -23.8842   -4.7141   23.1475 F   0  0  0  0  0  0  0  0  0  0  0  0
  1  2  1  0  0  0  0
  1  5  2  0  0  0  0
  2  6  2  0  0  0  0
  3  8  2  0  0  0  0
  3 16  1  0  0  0  0
  4  9  1  0  0  0  0
  4 16  2  0  0  0  0
  5 18  1  0  0  0  0
  6 20  1  0  0  0  0
  7 10  2  0  0  0  0
  7 19  1  0  0  0  0
  8 22  1  0  0  0  0
  9 22  2  0  0  0  0
 10 23  1  0  0  0  0
 11 12  2  0  0  0  0
 11 24  1  0  0  0  0
 12 25  1  0  0  0  0
 13 21  1  0  0  0  0
 13 23  2  0  0  0  0
 14 25  2  0  0  0  0
 14 26  1  0  0  0  0
 15 28  2  0  0  0  0
 15 29  1  0  0  0  0
 16 27  1  0  0  0  0
 17 27  1  0  0  0  0
 17 30  2  0  0  0  0
 17 31  1  0  0  0  0
 18 20  2  0  0  0  0
 18 36  1  0  0  0  0
 19 21  2  0  0  0  0
 19 37  1  0  0  0  0
 20 45  1  0  0  0  0
 21 38  1  0  0  0  0
 22 81  1  0  0  0  0
 23 82  1  0  0  0  0
 24 26  2  0  0  0  0
 24 81  1  0  0  0  0
 25 83  1  0  0  0  0
 26 84  1  0  0  0  0
 27 64  2  0  0  0  0
 28 59  1  0  0  0  0
 28 66  1  0  0  0  0
 29 65  2  0  0  0  0
 29 72  1  0  0  0  0
 30 67  1  0  0  0  0
 30 70  1  0  0  0  0
 31 71  1  0  0  0  0
 31 76  2  0  0  0  0
 32 46  1  0  0  0  0
 32 73  1  0  0  0  0
 32 77  2  0  0  0  0
 33 60  1  0  0  0  0
 33 68  1  0  0  0  0
 33 78  2  0  0  0  0
 34 61  1  0  0  0  0
 34 74  1  0  0  0  0
 34 79  2  0  0  0  0
 35 69  1  0  0  0  0
 35 72  1  0  0  0  0
 35 80  2  0  0  0  0
 36 39  1  0  0  0  0
 37 46  1  0  0  0  0
 38 68  1  0  0  0  0
 39 41  1  0  0  0  0
 40 42  1  0  0  0  0
 40 43  1  0  0  0  0
 41 45  1  0  0  0  0
 42 47  1  0  0  0  0
 43 69  1  0  0  0  0
 44 47  1  0  0  0  0
 44 69  1  0  0  0  0
 45 73  1  0  0  0  0
 46 68  1  0  0  0  0
 47 67  1  0  0  0  0
 48 59  1  0  0  0  0
 49 59  1  0  0  0  0
 50 61  1  0  0  0  0
 51 62  1  0  0  0  0
 52 63  1  0  0  0  0
 53 63  1  0  0  0  0
 54 63  1  0  0  0  0
 55 75  1  0  0  0  0
 56 57  1  0  0  0  0
 56 62  1  0  0  0  0
 57 66  1  0  0  0  0
 58 62  1  0  0  0  0
 58 82  1  0  0  0  0
 60 63  1  0  0  0  0
 60 74  1  0  0  0  0
 61 75  1  0  0  0  0
 64 67  1  0  0  0  0
 65 66  1  0  0  0  0
M  CHG  1  75   1
M  ISO  4  35 100  58 101  72 100  82 101
M  END
> <Batch ID>
0109

> <Smiles>
CNC(C)C(=O)NC(C(=O)N1Cc2cc([101O:1][101CH2:1]C(C)CCn3nc([100NH:0][100C:0](=O)N4CCCC(n5nc(-c6ccc(Oc7ccc(F)cc7F)cc6)c(C(N)=O)c5N)C4)cc3C(C)C)ccc2CC1C(=O)NC1CCCc2ccccc21)C(C)(C)C

> <Shape>
0.292

> <Color>
0.132

> <Negative vol penalty>
0.000

$$$$

  -OEChem-04052319563D

 87 95  0     1  0  0  0  0  0999 V2000
  -24.4452  -32.0895   28.7611 C   0  0  0  0  0  0  0  0  0  0  0  0
  -25.2965  -31.3194   27.9752 C   0  0  0  0  0  0  0  0  0  0  0  0
  -23.9744   -9.8458   20.7622 C   0  0  0  0  0  0  0  0  0  0  0  0
  -24.6155  -10.5321   22.9882 C   0  0  0  0  0  0  0  0  0  0  0  0
  -23.0756  -32.0987   28.5006 C   0  0  0  0  0  0  0  0  0  0  0  0
  -24.7783  -30.5571   26.9288 C   0  0  0  0  0  0  0  0  0  0  0  0
  -27.4627  -29.3789   21.5519 C   0  0  0  0  0  0  0  0  0  0  0  0
  -23.5551   -8.6133   21.2629 C   0  0  0  0  0  0  0  0  0  0  0  0
  -24.1962   -9.2996   23.4889 C   0  0  0  0  0  0  0  0  0  0  0  0
  -28.1797  -28.2792   21.0825 C   0  0  0  0  0  0  0  0  0  0  0  0
  -20.8712   -7.3742   22.9042 C   0  0  0  0  0  0  0  0  0  0  0  0
  -19.6436   -6.8794   22.4642 C   0  0  0  0  0  0  0  0  0  0  0  0
  -26.1721  -27.4127   20.0637 C   0  0  0  0  0  0  0  0  0  0  0  0
  -29.9843  -23.6743   20.1327 C   0  0  0  0  0  0  0  0  0  0  0  0
  -20.7510   -4.9273   21.5697 C   0  0  0  0  0  0  0  0  0  0  0  0
  -31.0103  -25.0079   18.4519 C   0  0  0  0  0  0  0  0  0  0  0  0
  -24.5047  -10.8052   21.6248 C   0  0  0  0  0  0  0  0  0  0  0  0
  -24.1666  -13.2475   20.9701 C   0  0  0  0  0  0  0  0  0  0  0  0
  -22.5416  -31.3437   27.4444 C   0  0  0  0  0  0  0  0  0  0  0  0
  -26.0904  -29.4985   21.2895 C   0  0  0  0  0  0  0  0  0  0  0  0
  -23.4001  -30.5552   26.6547 C   0  0  0  0  0  0  0  0  0  0  0  0
  -25.4405  -28.5161   20.5287 C   0  0  0  0  0  0  0  0  0  0  0  0
  -30.2147  -24.9307   19.5836 C   0  0  0  0  0  0  0  0  0  0  0  0
  -23.6660   -8.3402   22.6263 C   0  0  0  0  0  0  0  0  0  0  0  0
  -27.5338  -27.2944   20.3407 C   0  0  0  0  0  0  0  0  0  0  0  0
  -22.0388   -6.6455   22.6770 C   0  0  0  0  0  0  0  0  0  0  0  0
  -30.5487  -22.5493   19.5418 C   0  0  0  0  0  0  0  0  0  0  0  0
  -19.5834   -5.6559   21.7969 C   0  0  0  0  0  0  0  0  0  0  0  0
  -21.9786   -5.4221   22.0098 C   0  0  0  0  0  0  0  0  0  0  0  0
  -24.9385  -12.0783   21.1081 C   0  0  0  0  0  0  0  0  0  0  0  0
  -31.3292  -22.7331   18.4118 C   0  0  0  0  0  0  0  0  0  0  0  0
  -25.0331  -14.1702   20.4370 C   0  0  0  0  0  0  0  0  0  0  0  0
  -22.7894  -13.4788   21.2950 C   0  0  0  0  0  0  0  0  0  0  0  0
  -23.4669  -29.6227   23.0800 C   0  0  0  0  0  0  0  0  0  0  0  0
  -22.0234  -30.2089   20.2348 C   0  0  0  0  0  0  0  0  0  0  0  0
  -22.0948  -29.9170   16.8353 C   0  0  0  0  0  0  0  0  0  0  0  0
  -30.1073  -16.6029   20.4203 C   0  0  0  0  0  0  0  0  0  0  0  0
  -21.0486  -31.3485   27.2310 C   0  0  0  0  0  0  0  0  0  0  0  0
  -25.3369  -30.7042   21.7802 C   0  0  0  0  0  0  0  0  0  0  0  0
  -23.9730  -28.6078   20.2024 C   0  0  0  0  0  0  0  0  0  0  0  0
  -20.6264  -30.8057   25.8681 C   0  0  0  0  0  0  0  0  0  0  0  0
  -29.6507  -13.6154   18.4791 C   0  0  0  0  0  0  0  0  0  0  0  0
  -21.3639  -29.5067   25.5591 C   0  0  0  0  0  0  0  0  0  0  0  0
  -28.3414  -13.0279   19.0009 C   0  0  0  0  0  0  0  0  0  0  0  0
  -30.4389  -14.2905   19.5960 C   0  0  0  0  0  0  0  0  0  0  0  0
  -28.3577  -14.7739   20.8443 C   0  0  0  0  0  0  0  0  0  0  0  0
  -22.8790  -29.7343   25.4951 C   0  0  1  0  0  0  0  0  0  0  0  0
  -23.8343  -30.4653   21.8914 C   0  0  1  0  0  0  0  0  0  0  0  0
  -27.5200  -14.0939   19.7449 C   0  0  2  0  0  0  0  0  0  0  0  0
  -20.7562  -30.4591   14.7831 C   0  0  0  0  0  0  0  0  0  0  0  0
  -30.8640  -20.5423   17.2516 C   0  0  0  0  0  0  0  0  0  0  0  0
  -32.7762  -21.8895   16.4401 C   0  0  0  0  0  0  0  0  0  0  0  0
  -20.1348  -27.8949   20.8584 C   0  0  0  0  0  0  0  0  0  0  0  0
  -19.4786  -27.8709   18.4424 C   0  0  0  0  0  0  0  0  0  0  0  0
  -19.0338  -29.8930   19.8337 C   0  0  0  0  0  0  0  0  0  0  0  0
  -24.2424  -31.6387   15.7479 C   0  0  0  0  0  0  0  0  0  0  0  0
  -29.6218  -26.1648   20.1974 C   0  0  0  0  0  0  0  0  0  1  0  0
  -28.6765  -19.6575   20.6100 C   0  0  0  0  0  0  0  0  0  0  0  0
  -32.9120  -20.7394   18.6807 C   0  0  0  0  0  0  0  0  0  0  0  0
  -29.0931  -21.1083   20.7503 C   0  0  0  0  0  0  0  0  0  0  0  0
  -21.4083  -29.3553   19.1521 C   0  0  1  0  0  0  0  0  0  0  0  0
  -21.8474  -30.9299   15.7319 C   0  0  2  0  0  0  0  0  0  0  0  0
  -31.9565  -21.5576   17.7372 C   0  0  0  0  0  0  0  0  0  0  0  0
  -20.0411  -28.7505   19.5793 C   0  0  0  0  0  0  0  0  0  0  0  0
  -31.5756  -23.9377   17.8497 N   0  0  0  0  0  0  0  0  0  0  0  0
  -26.1985  -12.2407   20.6956 N   0  0  0  0  0  0  0  0  0  0  0  0
  -26.2249  -13.5227   20.2932 N   0  0  0  0  0  0  0  0  0  0  0  0
  -23.2784  -29.8026   20.7099 N   0  0  0  0  0  0  0  0  0  0  0  0
  -29.6246  -15.2872   20.2972 N   0  0  0  0  0  0  0  0  0  0  0  0
  -24.8843  -15.4640   20.0817 N   0  0  0  0  0  0  0  0  0  0  0  0
  -22.0436  -12.4221   21.8348 N   0  0  0  0  0  0  0  0  0  0  0  0
  -23.2454  -30.3466   24.2360 N   0  0  0  0  0  0  0  0  0  0  0  0
  -21.3448  -30.1925   17.9591 N   0  0  0  0  0  0  0  0  0  0  0  0
  -29.2734  -17.4833   21.0939 N   0  0  0  0  0  0  0  0  0  0  0  0
  -34.0332  -21.5832   19.1694 N   0  3  0  0  0  0  0  0  0  0  0  0
  -23.0925  -31.1513   14.9434 N   0  3  0  0  0  0  0  0  0  0  0  0
  -29.7025  -18.7910   21.2373 N   0  3  0  0  0  0  0  0  0  0  0  0
  -22.2321  -14.5850   21.0968 O   0  0  0  0  0  0  0  0  0  0  0  0
  -23.3887  -28.4059   22.9569 O   0  0  0  0  0  0  0  0  0  0  0  0
  -21.4160  -31.2036   20.6389 O   0  0  0  0  0  0  0  0  0  0  0  0
  -22.8726  -28.9735   16.7113 O   0  0  0  0  0  0  0  0  0  0  0  0
  -31.1975  -16.9588   19.9590 O   0  0  0  0  0  0  0  0  0  0  0  0
  -23.2567   -7.1377   23.1153 O   0  0  0  0  0  0  0  0  0  0  0  0
  -28.2312  -26.2196   19.8819 O   0  0  0  0  0  0  0  0  0  1  0  0
  -30.3318  -21.3181   20.0706 O   0  0  0  0  0  0  0  0  0  0  0  0
  -18.4043   -5.1802   21.3757 F   0  0  0  0  0  0  0  0  0  0  0  0
  -23.0968   -4.7170   21.7897 F   0  0  0  0  0  0  0  0  0  0  0  0
  1  2  1  0  0  0  0
  1  5  2  0  0  0  0
  2  6  2  0  0  0  0
  3  8  2  0  0  0  0
  3 17  1  0  0  0  0
  4  9  1  0  0  0  0
  4 17  2  0  0  0  0
  5 19  1  0  0  0  0
  6 21  1  0  0  0  0
  7 10  2  0  0  0  0
  7 20  1  0  0  0  0
  8 24  1  0  0  0  0
  9 24  2  0  0  0  0
 10 25  1  0  0  0  0
 11 12  2  0  0  0  0
 11 26  1  0  0  0  0
 12 28  1  0  0  0  0
 13 22  1  0  0  0  0
 13 25  2  0  0  0  0
 14 23  2  0  0  0  0
 14 27  1  0  0  0  0
 15 28  2  0  0  0  0
 15 29  1  0  0  0  0
 16 23  1  0  0  0  0
 16 65  2  0  0  0  0
 17 30  1  0  0  0  0
 18 30  1  0  0  0  0
 18 32  2  0  0  0  0
 18 33  1  0  0  0  0
 19 21  2  0  0  0  0
 19 38  1  0  0  0  0
 20 22  2  0  0  0  0
 20 39  1  0  0  0  0
 21 47  1  0  0  0  0
 22 40  1  0  0  0  0
 23 57  1  0  0  0  0
 24 83  1  0  0  0  0
 25 84  1  0  0  0  0
 26 29  2  0  0  0  0
 26 83  1  0  0  0  0
 27 31  2  0  0  0  0
 27 85  1  0  0  0  0
 28 86  1  0  0  0  0
 29 87  1  0  0  0  0
 30 66  2  0  0  0  0
 31 63  1  0  0  0  0
 31 65  1  0  0  0  0
 32 67  1  0  0  0  0
 32 70  1  0  0  0  0
 33 71  1  0  0  0  0
 33 78  2  0  0  0  0
 34 48  1  0  0  0  0
 34 72  1  0  0  0  0
 34 79  2  0  0  0  0
 35 61  1  0  0  0  0
 35 68  1  0  0  0  0
 35 80  2  0  0  0  0
 36 62  1  0  0  0  0
 36 73  1  0  0  0  0
 36 81  2  0  0  0  0
 37 69  1  0  0  0  0
 37 74  1  0  0  0  0
 37 82  2  0  0  0  0
 38 41  1  0  0  0  0
 39 48  1  0  0  0  0
 40 68  1  0  0  0  0
 41 43  1  0  0  0  0
 42 44  1  0  0  0  0
 42 45  1  0  0  0  0
 43 47  1  0  0  0  0
 44 49  1  0  0  0  0
 45 69  1  0  0  0  0
 46 49  1  0  0  0  0
 46 69  1  0  0  0  0
 47 72  1  0  0  0  0
 48 68  1  0  0  0  0
 49 67  1  0  0  0  0
 50 62  1  0  0  0  0
 51 63  1  0  0  0  0
 52 63  1  0  0  0  0
 53 64  1  0  0  0  0
 54 64  1  0  0  0  0
 55 64  1  0  0  0  0
 56 76  1  0  0  0  0
 57 84  1  0  0  0  0
 58 60  1  0  0  0  0
 58 77  1  0  0  0  0
 59 63  1  0  0  0  0
 59 75  1  0  0  0  0
 60 85  1  0  0  0  0
 61 64  1  0  0  0  0
 61 73  1  0  0  0  0
 62 76  1  0  0  0  0
 66 67  1  0  0  0  0
 74 77  1  0  0  0  0
M  CHG  3  75   1  76   1  77   1
M  ISO  4  37 100  57 101  74 100  84 101
M  END
> <Batch ID>
0109

> <Smiles>
CNC(C)C(=O)NC(C(=O)N1Cc2cc([101O:1][101CH2:1]c3cnc(C(C)(C)CN)c(OCCN[100NH:0][100C:0](=O)N4CCCC(n5nc(-c6ccc(Oc7ccc(F)cc7F)cc6)c(C(N)=O)c5N)C4)c3)ccc2CC1C(=O)NC1CCCc2ccccc21)C(C)(C)C

> <Shape>
0.311

> <Color>
0.148

> <Negative vol penalty>
0.000

$$$$

  -OEChem-04052319563D

 84 92  0     1  0  0  0  0  0999 V2000
  -24.3615  -38.0798   21.2401 C   0  0  0  0  0  0  0  0  0  0  0  0
  -25.0404  -37.1691   20.4368 C   0  0  0  0  0  0  0  0  0  0  0  0
  -24.0136   -9.8772   21.6423 C   0  0  0  0  0  0  0  0  0  0  0  0
  -24.6086  -11.0700   23.6574 C   0  0  0  0  0  0  0  0  0  0  0  0
  -24.0121  -37.7320   22.5443 C   0  0  0  0  0  0  0  0  0  0  0  0
  -25.3712  -35.9105   20.9377 C   0  0  0  0  0  0  0  0  0  0  0  0
  -26.1692  -29.1044   18.8503 C   0  0  0  0  0  0  0  0  0  0  0  0
  -23.5662   -8.8025   22.4106 C   0  0  0  0  0  0  0  0  0  0  0  0
  -24.1611   -9.9952   24.4257 C   0  0  0  0  0  0  0  0  0  0  0  0
  -27.0942  -28.0627   18.9042 C   0  0  0  0  0  0  0  0  0  0  0  0
  -20.8269   -8.0083   24.2267 C   0  0  0  0  0  0  0  0  0  0  0  0
  -19.6041   -7.4311   23.8841 C   0  0  0  0  0  0  0  0  0  0  0  0
  -26.3696  -27.5432   21.1456 C   0  0  0  0  0  0  0  0  0  0  0  0
  -20.7079   -5.3147   23.5105 C   0  0  0  0  0  0  0  0  0  0  0  0
  -31.6073  -23.8802   19.7045 C   0  0  0  0  0  0  0  0  0  0  0  0
  -24.5349  -11.0110   22.2657 C   0  0  0  0  0  0  0  0  0  0  0  0
  -24.2446  -13.2291   21.0395 C   0  0  0  0  0  0  0  0  0  0  0  0
  -24.3302  -36.4650   23.0582 C   0  0  0  0  0  0  0  0  0  0  0  0
  -25.3435  -29.3807   19.9496 C   0  0  0  0  0  0  0  0  0  0  0  0
  -25.0268  -35.5459   22.2504 C   0  0  0  0  0  0  0  0  0  0  0  0
  -25.4331  -28.5873   21.1022 C   0  0  0  0  0  0  0  0  0  0  0  0
  -30.6311  -22.8766   19.5569 C   0  0  0  0  0  0  0  0  0  0  0  0
  -23.6399   -8.8615   23.8023 C   0  0  0  0  0  0  0  0  0  0  0  0
  -27.1966  -27.2838   20.0530 C   0  0  0  0  0  0  0  0  0  0  0  0
  -21.9901   -7.2387   24.2111 C   0  0  0  0  0  0  0  0  0  0  0  0
  -19.5446   -6.0843   23.5260 C   0  0  0  0  0  0  0  0  0  0  0  0
  -21.9306   -5.8919   23.8531 C   0  0  0  0  0  0  0  0  0  0  0  0
  -24.9977  -12.1213   21.4726 C   0  0  0  0  0  0  0  0  0  0  0  0
  -29.4793  -23.5602   19.2527 C   0  0  0  0  0  0  0  0  0  0  0  0
  -25.1359  -13.9922   20.3256 C   0  0  0  0  0  0  0  0  0  0  0  0
  -22.8630  -13.5404   21.2626 C   0  0  0  0  0  0  0  0  0  0  0  0
  -24.9443  -31.8699   21.8856 C   0  0  0  0  0  0  0  0  0  0  0  0
  -22.4943  -30.0841   23.0390 C   0  0  0  0  0  0  0  0  0  0  0  0
  -21.1150  -26.9925   23.4704 C   0  0  0  0  0  0  0  0  0  0  0  0
  -30.1725  -16.3246   19.7437 C   0  0  0  0  0  0  0  0  0  0  0  0
  -23.9734  -36.1517   24.4897 C   0  0  0  0  0  0  0  0  0  0  0  0
  -24.3322  -30.4909   19.8657 C   0  0  0  0  0  0  0  0  0  0  0  0
  -24.5556  -28.8299   22.3021 C   0  0  0  0  0  0  0  0  0  0  0  0
  -24.0301  -34.6623   24.8196 C   0  0  0  0  0  0  0  0  0  0  0  0
  -29.8092  -12.9397   18.7009 C   0  0  0  0  0  0  0  0  0  0  0  0
  -25.3146  -34.0439   24.2770 C   0  0  0  0  0  0  0  0  0  0  0  0
  -28.4666  -12.5150   19.2984 C   0  0  0  0  0  0  0  0  0  0  0  0
  -30.5687  -13.8818   19.6324 C   0  0  0  0  0  0  0  0  0  0  0  0
  -28.4650  -14.6426   20.6667 C   0  0  0  0  0  0  0  0  0  0  0  0
  -25.3813  -34.1620   22.7495 C   0  0  1  0  0  0  0  0  0  0  0  0
  -23.8993  -31.0094   21.2337 C   0  0  1  0  0  0  0  0  0  0  0  0
  -27.6375  -13.7364   19.7392 C   0  0  2  0  0  0  0  0  0  0  0  0
  -28.1088  -23.0865   18.9812 C   0  0  0  0  0  0  0  0  0  0  0  0
  -19.1255  -25.8470   24.4838 C   0  0  0  0  0  0  0  0  0  0  0  0
  -23.7060  -30.4420   25.8164 C   0  0  0  0  0  0  0  0  0  0  0  0
  -22.2732  -28.5481   26.6092 C   0  0  0  0  0  0  0  0  0  0  0  0
  -21.2136  -30.6297   25.7336 C   0  0  0  0  0  0  0  0  0  0  0  0
  -31.8811  -19.0523   21.0677 C   0  0  0  0  0  0  0  0  0  0  0  0
  -29.7606  -18.9766   22.4179 C   0  0  0  0  0  0  0  0  0  0  0  0
  -20.2437  -25.9325   20.8481 C   0  0  0  0  0  0  0  0  0  0  0  0
  -30.8106  -21.4221   19.6980 C   0  0  0  0  0  0  0  0  0  0  0  0
  -29.6270  -18.7396   19.9153 C   0  0  0  0  0  0  0  0  0  0  0  0
  -28.9146  -26.0476   18.9539 C   0  0  0  0  0  0  0  0  0  1  0  0
  -22.3474  -29.0442   24.1234 C   0  0  1  0  0  0  0  0  0  0  0  0
  -19.7092  -26.4738   23.2272 C   0  0  2  0  0  0  0  0  0  0  0  0
  -22.4031  -29.6624   25.5489 C   0  0  0  0  0  0  0  0  0  0  0  0
  -30.3874  -19.3867   21.0825 C   0  0  0  0  0  0  0  0  0  0  0  0
  -31.1183  -25.1078   19.5099 N   0  0  0  0  0  0  0  0  0  0  0  0
  -26.2695  -12.1723   21.0675 N   0  0  0  0  0  0  0  0  0  0  0  0
  -29.8222  -24.8801   19.2368 N   0  0  0  0  0  0  0  0  0  0  0  0
  -26.3224  -13.3212   20.3724 N   0  0  0  0  0  0  0  0  0  0  0  0
  -23.5869  -29.9311   22.1738 N   0  0  0  0  0  0  0  0  0  0  0  0
  -29.7274  -15.0195   20.0116 N   0  0  0  0  0  0  0  0  0  0  0  0
  -25.0127  -15.1651   19.6686 N   0  0  0  0  0  0  0  0  0  0  0  0
  -22.0905  -12.6478   22.0182 N   0  0  0  0  0  0  0  0  0  0  0  0
  -24.5339  -33.1669   22.1282 N   0  0  0  0  0  0  0  0  0  0  0  0
  -21.1130  -28.3229   23.8327 N   0  0  0  0  0  0  0  0  0  0  0  0
  -29.3117  -17.3448   20.1296 N   0  0  0  0  0  0  0  0  0  0  0  0
  -19.7158  -25.4455   22.1486 N   0  3  0  0  0  0  0  0  0  0  0  0
  -30.2558  -20.8595   20.9692 N   0  3  0  0  0  0  0  0  0  0  0  0
  -22.3252  -14.5712   20.7917 O   0  0  0  0  0  0  0  0  0  0  0  0
  -26.0413  -31.3922   22.1503 O   0  0  0  0  0  0  0  0  0  0  0  0
  -21.6660  -30.9946   22.9581 O   0  0  0  0  0  0  0  0  0  0  0  0
  -22.1146  -26.2869   23.3545 O   0  0  0  0  0  0  0  0  0  0  0  0
  -31.2543  -16.5627   19.1960 O   0  0  0  0  0  0  0  0  0  0  0  0
  -23.2032   -7.8130   24.5523 O   0  0  0  0  0  0  0  0  0  0  0  0
  -28.0991  -26.2668   20.1084 O   0  0  0  0  0  0  0  0  0  1  0  0
  -18.3701   -5.5298   23.1985 F   0  0  0  0  0  0  0  0  0  0  0  0
  -23.0446   -5.1472   23.8374 F   0  0  0  0  0  0  0  0  0  0  0  0
  1  2  1  0  0  0  0
  1  5  2  0  0  0  0
  2  6  2  0  0  0  0
  3  8  2  0  0  0  0
  3 16  1  0  0  0  0
  4  9  1  0  0  0  0
  4 16  2  0  0  0  0
  5 18  1  0  0  0  0
  6 20  1  0  0  0  0
  7 10  2  0  0  0  0
  7 19  1  0  0  0  0
  8 23  1  0  0  0  0
  9 23  2  0  0  0  0
 10 24  1  0  0  0  0
 11 12  2  0  0  0  0
 11 25  1  0  0  0  0
 12 26  1  0  0  0  0
 13 21  1  0  0  0  0
 13 24  2  0  0  0  0
 14 26  2  0  0  0  0
 14 27  1  0  0  0  0
 15 22  1  0  0  0  0
 15 63  2  0  0  0  0
 16 28  1  0  0  0  0
 17 28  1  0  0  0  0
 17 30  2  0  0  0  0
 17 31  1  0  0  0  0
 18 20  2  0  0  0  0
 18 36  1  0  0  0  0
 19 21  2  0  0  0  0
 19 37  1  0  0  0  0
 20 45  1  0  0  0  0
 21 38  1  0  0  0  0
 22 29  2  0  0  0  0
 22 56  1  0  0  0  0
 23 81  1  0  0  0  0
 24 82  1  0  0  0  0
 25 27  2  0  0  0  0
 25 81  1  0  0  0  0
 26 83  1  0  0  0  0
 27 84  1  0  0  0  0
 28 64  2  0  0  0  0
 29 48  1  0  0  0  0
 29 65  1  0  0  0  0
 30 66  1  0  0  0  0
 30 69  1  0  0  0  0
 31 70  1  0  0  0  0
 31 76  2  0  0  0  0
 32 46  1  0  0  0  0
 32 71  1  0  0  0  0
 32 77  2  0  0  0  0
 33 59  1  0  0  0  0
 33 67  1  0  0  0  0
 33 78  2  0  0  0  0
 34 60  1  0  0  0  0
 34 72  1  0  0  0  0
 34 79  2  0  0  0  0
 35 68  1  0  0  0  0
 35 73  1  0  0  0  0
 35 80  2  0  0  0  0
 36 39  1  0  0  0  0
 37 46  1  0  0  0  0
 38 67  1  0  0  0  0
 39 41  1  0  0  0  0
 40 42  1  0  0  0  0
 40 43  1  0  0  0  0
 41 45  1  0  0  0  0
 42 47  1  0  0  0  0
 43 68  1  0  0  0  0
 44 47  1  0  0  0  0
 44 68  1  0  0  0  0
 45 71  1  0  0  0  0
 46 67  1  0  0  0  0
 47 66  1  0  0  0  0
 49 60  1  0  0  0  0
 50 61  1  0  0  0  0
 51 61  1  0  0  0  0
 52 61  1  0  0  0  0
 53 62  1  0  0  0  0
 54 62  1  0  0  0  0
 55 74  1  0  0  0  0
 56 75  1  0  0  0  0
 57 62  1  0  0  0  0
 57 73  1  0  0  0  0
 58 65  1  0  0  0  0
 58 82  1  0  0  0  0
 59 61  1  0  0  0  0
 59 72  1  0  0  0  0
 60 74  1  0  0  0  0
 62 75  1  0  0  0  0
 63 65  1  0  0  0  0
 64 66  1  0  0  0  0
M  CHG  2  74   1  75   1
M  ISO  4  35 100  58 101  73 100  82 101
M  END
> <Batch ID>
0109

> <Smiles>
CNC(C)C(=O)NC(C(=O)N1Cc2cc([101O:1][101CH2:1]n3ncc(CNC(C)(C)C[100NH:0][100C:0](=O)N4CCCC(n5nc(-c6ccc(Oc7ccc(F)cc7F)cc6)c(C(N)=O)c5N)C4)c3C)ccc2CC1C(=O)NC1CCCc2ccccc21)C(C)(C)C

> <Shape>
0.354

> <Color>
0.164

> <Negative vol penalty>
0.000

$$$$
