
  -OEChem-04052319583D

 82 90  0     1  0  0  0  0  0999 V2000
  -27.2921  -17.7205   18.8310 C   0  0  0  0  0  0  0  0  0  0  0  0
  -26.3257  -18.7161   18.9327 C   0  0  0  0  0  0  0  0  0  0  0  0
  -24.3637  -13.7033   20.0265 C   0  0  0  0  0  0  0  0  0  0  0  0
  -24.7762  -14.2003   22.3545 C   0  0  0  0  0  0  0  0  0  0  0  0
  -28.5404  -17.8989   19.4257 C   0  0  0  0  0  0  0  0  0  0  0  0
  -26.6069  -19.8904   19.6302 C   0  0  0  0  0  0  0  0  0  0  0  0
  -24.5959  -25.5238   18.3165 C   0  0  0  0  0  0  0  0  0  0  0  0
  -25.4486  -12.8267   20.0213 C   0  0  0  0  0  0  0  0  0  0  0  0
  -25.8611  -13.3236   22.3494 C   0  0  0  0  0  0  0  0  0  0  0  0
  -23.5471  -26.2880   18.8262 C   0  0  0  0  0  0  0  0  0  0  0  0
  -28.3305  -10.7299   19.2992 C   0  0  0  0  0  0  0  0  0  0  0  0
  -29.2144  -10.7957   18.2221 C   0  0  0  0  0  0  0  0  0  0  0  0
  -25.0836  -27.3838   20.3287 C   0  0  0  0  0  0  0  0  0  0  0  0
  -29.7035  -13.0987   18.7643 C   0  0  0  0  0  0  0  0  0  0  0  0
  -24.0275  -14.3901   21.1931 C   0  0  0  0  0  0  0  0  0  0  0  0
  -21.5671  -14.9893   21.5020 C   0  0  0  0  0  0  0  0  0  0  0  0
  -28.8403  -19.0800   20.1226 C   0  0  0  0  0  0  0  0  0  0  0  0
  -25.8967  -25.6764   18.8175 C   0  0  0  0  0  0  0  0  0  0  0  0
  -27.8599  -20.0842   20.2359 C   0  0  0  0  0  0  0  0  0  0  0  0
  -26.1477  -26.6222   19.8219 C   0  0  0  0  0  0  0  0  0  0  0  0
  -20.6403  -27.2976   22.2430 C   0  0  0  0  0  0  0  0  0  0  0  0
  -26.1973  -12.6368   21.1828 C   0  0  0  0  0  0  0  0  0  0  0  0
  -23.7903  -27.2161   19.8345 C   0  0  0  0  0  0  0  0  0  0  0  0
  -28.1331  -11.8485   20.1088 C   0  0  0  0  0  0  0  0  0  0  0  0
  -29.9009  -11.9801   17.9547 C   0  0  0  0  0  0  0  0  0  0  0  0
  -28.8197  -13.0329   19.8414 C   0  0  0  0  0  0  0  0  0  0  0  0
  -22.9072  -15.2962   21.1989 C   0  0  0  0  0  0  0  0  0  0  0  0
  -19.4367  -27.0626   21.5518 C   0  0  0  0  0  0  0  0  0  0  0  0
  -20.9071  -26.1110   22.8813 C   0  0  0  0  0  0  0  0  0  0  0  0
  -20.9021  -16.1833   21.3658 C   0  0  0  0  0  0  0  0  0  0  0  0
  -20.9763  -13.7369   21.8736 C   0  0  0  0  0  0  0  0  0  0  0  0
  -27.9630  -23.7770   20.3097 C   0  0  0  0  0  0  0  0  0  0  0  0
  -29.9576  -26.3087   19.9434 C   0  0  0  0  0  0  0  0  0  0  0  0
  -30.3171  -29.6733   19.4997 C   0  0  0  0  0  0  0  0  0  0  0  0
  -20.6414  -21.5742   22.5130 C   0  0  0  0  0  0  0  0  0  0  0  0
  -30.1873  -19.2075   20.7891 C   0  0  0  0  0  0  0  0  0  0  0  0
  -27.0220  -24.8635   18.2384 C   0  0  0  0  0  0  0  0  0  0  0  0
  -27.5298  -26.8387   20.3798 C   0  0  0  0  0  0  0  0  0  0  0  0
  -30.5348  -20.6385   21.1913 C   0  0  0  0  0  0  0  0  0  0  0  0
  -22.3731  -20.5823   19.3982 C   0  0  0  0  0  0  0  0  0  0  0  0
  -29.3519  -21.2980   21.8932 C   0  0  0  0  0  0  0  0  0  0  0  0
  -22.6061  -19.0967   19.6541 C   0  0  0  0  0  0  0  0  0  0  0  0
  -22.4336  -21.4037   20.6853 C   0  0  0  0  0  0  0  0  0  0  0  0
  -21.7453  -19.4185   22.0046 C   0  0  0  0  0  0  0  0  0  0  0  0
  -28.1357  -21.3824   20.9631 C   0  0  1  0  0  0  0  0  0  0  0  0
  -28.2145  -24.7369   19.1814 C   0  0  1  0  0  0  0  0  0  0  0  0
  -21.6375  -18.5745   20.7257 C   0  0  2  0  0  0  0  0  0  0  0  0
  -18.6874  -28.0003   20.6971 C   0  0  0  0  0  0  0  0  0  0  0  0
  -22.0184  -25.7081   23.7637 C   0  0  0  0  0  0  0  0  0  0  0  0
  -21.5408  -29.1418   23.6989 C   0  0  0  0  0  0  0  0  0  0  0  0
  -32.0706  -31.4544   19.2750 C   0  0  0  0  0  0  0  0  0  0  0  0
  -30.4690  -26.1809   22.9487 C   0  0  0  0  0  0  0  0  0  0  0  0
  -31.4275  -28.4898   22.8133 C   0  0  0  0  0  0  0  0  0  0  0  0
  -32.5035  -26.6193   21.5620 C   0  0  0  0  0  0  0  0  0  0  0  0
  -29.3867  -30.4102   16.7886 C   0  0  0  0  0  0  0  0  0  0  0  0
  -22.8686  -28.3712   21.6979 C   0  0  0  0  0  0  0  0  0  1  0  0
  -19.7080  -23.8437   22.9900 C   0  0  0  0  0  0  0  0  0  0  0  0
  -21.4626  -28.5762   22.2781 C   0  0  1  0  0  0  0  0  0  0  0  0
  -30.2885  -27.5357   20.7583 C   0  0  1  0  0  0  0  0  0  0  0  0
  -31.1710  -30.4766   18.5352 C   0  0  2  0  0  0  0  0  0  0  0  0
  -31.1456  -27.2012   22.0116 C   0  0  0  0  0  0  0  0  0  0  0  0
  -23.0847  -16.5842   20.8930 N   0  0  0  0  0  0  0  0  0  0  0  0
  -18.9710  -25.8240   21.7336 N   0  0  0  0  0  0  0  0  0  0  0  0
  -19.8869  -25.2700   22.5463 N   0  0  0  0  0  0  0  0  0  0  0  0
  -21.8474  -17.0972   21.0031 N   0  0  0  0  0  0  0  0  0  0  0  0
  -28.5957  -26.0152   19.7854 N   0  0  0  0  0  0  0  0  0  0  0  0
  -21.5564  -20.8479   21.7279 N   0  0  0  0  0  0  0  0  0  0  0  0
  -19.6069  -16.5302   21.5220 N   0  0  0  0  0  0  0  0  0  0  0  0
  -21.8036  -12.6094   21.9669 N   0  0  0  0  0  0  0  0  0  0  0  0
  -28.2956  -22.4676   20.0191 N   0  0  0  0  0  0  0  0  0  0  0  0
  -30.9164  -28.4789   19.8393 N   0  0  0  0  0  0  0  0  0  0  0  0
  -20.5890  -22.9414   22.2653 N   0  0  0  0  0  0  0  0  0  0  0  0
  -30.3069  -31.2493   17.5986 N   0  3  0  0  0  0  0  0  0  0  0  0
  -19.7482  -13.6176   22.0997 O   0  0  0  0  0  0  0  0  0  0  0  0
  -27.5026  -24.1936   21.3661 O   0  0  0  0  0  0  0  0  0  0  0  0
  -30.8735  -25.6395   19.4587 O   0  0  0  0  0  0  0  0  0  0  0  0
  -29.2292  -30.0678   19.9135 O   0  0  0  0  0  0  0  0  0  0  0  0
  -19.9326  -21.0429   23.3745 O   0  0  0  0  0  0  0  0  0  0  0  0
  -27.2559  -11.7813   21.1782 O   0  0  0  0  0  0  0  0  0  0  0  0
  -22.7683  -27.9628   20.3342 O   0  0  0  0  0  0  0  0  0  1  0  0
  -30.7508  -12.0427   16.9213 F   0  0  0  0  0  0  0  0  0  0  0  0
  -28.6350  -14.1104   20.6164 F   0  0  0  0  0  0  0  0  0  0  0  0
  1  2  1  0  0  0  0
  1  5  2  0  0  0  0
  2  6  2  0  0  0  0
  3  8  2  0  0  0  0
  3 15  1  0  0  0  0
  4  9  1  0  0  0  0
  4 15  2  0  0  0  0
  5 17  1  0  0  0  0
  6 19  1  0  0  0  0
  7 10  2  0  0  0  0
  7 18  1  0  0  0  0
  8 22  1  0  0  0  0
  9 22  2  0  0  0  0
 10 23  1  0  0  0  0
 11 12  2  0  0  0  0
 11 24  1  0  0  0  0
 12 25  1  0  0  0  0
 13 20  1  0  0  0  0
 13 23  2  0  0  0  0
 14 25  2  0  0  0  0
 14 26  1  0  0  0  0
 15 27  1  0  0  0  0
 16 27  1  0  0  0  0
 16 30  2  0  0  0  0
 16 31  1  0  0  0  0
 17 19  2  0  0  0  0
 17 36  1  0  0  0  0
 18 20  2  0  0  0  0
 18 37  1  0  0  0  0
 19 45  1  0  0  0  0
 20 38  1  0  0  0  0
 21 28  1  0  0  0  0
 21 29  2  0  0  0  0
 21 58  1  0  0  0  0
 22 79  1  0  0  0  0
 23 80  1  0  0  0  0
 24 26  2  0  0  0  0
 24 79  1  0  0  0  0
 25 81  1  0  0  0  0
 26 82  1  0  0  0  0
 27 62  2  0  0  0  0
 28 48  1  0  0  0  0
 28 63  2  0  0  0  0
 29 49  1  0  0  0  0
 29 64  1  0  0  0  0
 30 65  1  0  0  0  0
 30 68  1  0  0  0  0
 31 69  1  0  0  0  0
 31 74  2  0  0  0  0
 32 46  1  0  0  0  0
 32 70  1  0  0  0  0
 32 75  2  0  0  0  0
 33 59  1  0  0  0  0
 33 66  1  0  0  0  0
 33 76  2  0  0  0  0
 34 60  1  0  0  0  0
 34 71  1  0  0  0  0
 34 77  2  0  0  0  0
 35 67  1  0  0  0  0
 35 72  1  0  0  0  0
 35 78  2  0  0  0  0
 36 39  1  0  0  0  0
 37 46  1  0  0  0  0
 38 66  1  0  0  0  0
 39 41  1  0  0  0  0
 40 42  1  0  0  0  0
 40 43  1  0  0  0  0
 41 45  1  0  0  0  0
 42 47  1  0  0  0  0
 43 67  1  0  0  0  0
 44 47  1  0  0  0  0
 44 67  1  0  0  0  0
 45 70  1  0  0  0  0
 46 66  1  0  0  0  0
 47 65  1  0  0  0  0
 50 58  1  0  0  0  0
 51 60  1  0  0  0  0
 52 61  1  0  0  0  0
 53 61  1  0  0  0  0
 54 61  1  0  0  0  0
 55 73  1  0  0  0  0
 56 58  1  0  0  0  0
 56 80  1  0  0  0  0
 57 64  1  0  0  0  0
 57 72  1  0  0  0  0
 59 61  1  0  0  0  0
 59 71  1  0  0  0  0
 60 73  1  0  0  0  0
 62 65  1  0  0  0  0
 63 64  1  0  0  0  0
M  CHG  1  73   1
M  ISO  4  35 100  56 101  72 100  80 101
M  END
> <Batch ID>
0110

> <Smiles>
CNC(C)C(=O)NC(C(=O)N1Cc2cc([101O:1][101CH2:1]C(C)c3c(C)nn(C[100NH:0][100C:0](=O)N4CCCC(n5nc(-c6ccc(Oc7ccc(F)cc7F)cc6)c(C(N)=O)c5N)C4)c3C)ccc2CC1C(=O)NC1CCCc2ccccc21)C(C)(C)C

> <Shape>
0.244

> <Color>
0.051

> <Negative vol penalty>
0.000

$$$$

  -OEChem-04052319583D

 84 92  0     1  0  0  0  0  0999 V2000
  -19.5580  -33.8454   25.1670 C   0  0  0  0  0  0  0  0  0  0  0  0
  -20.6078  -32.9900   25.4856 C   0  0  0  0  0  0  0  0  0  0  0  0
  -26.3441  -11.8047   25.1866 C   0  0  0  0  0  0  0  0  0  0  0  0
  -27.1422  -11.6379   22.9124 C   0  0  0  0  0  0  0  0  0  0  0  0
  -18.5489  -33.4178   24.3052 C   0  0  0  0  0  0  0  0  0  0  0  0
  -20.6485  -31.7059   24.9434 C   0  0  0  0  0  0  0  0  0  0  0  0
  -26.2409  -29.5416   20.9519 C   0  0  0  0  0  0  0  0  0  0  0  0
  -25.5061  -10.7103   24.9728 C   0  0  0  0  0  0  0  0  0  0  0  0
  -26.3042  -10.5435   22.6986 C   0  0  0  0  0  0  0  0  0  0  0  0
  -27.3708  -28.9824   20.3545 C   0  0  0  0  0  0  0  0  0  0  0  0
  -23.0281  -10.0008   22.0636 C   0  0  0  0  0  0  0  0  0  0  0  0
  -22.2902   -9.9711   20.8803 C   0  0  0  0  0  0  0  0  0  0  0  0
  -26.1793  -26.9046   20.0209 C   0  0  0  0  0  0  0  0  0  0  0  0
  -23.3709   -7.9017   20.2584 C   0  0  0  0  0  0  0  0  0  0  0  0
  -27.1621  -12.2685   24.1564 C   0  0  0  0  0  0  0  0  0  0  0  0
  -29.0605  -13.5069   25.3269 C   0  0  0  0  0  0  0  0  0  0  0  0
  -18.5823  -32.1313   23.7445 C   0  0  0  0  0  0  0  0  0  0  0  0
  -25.0697  -28.7885   21.0723 C   0  0  0  0  0  0  0  0  0  0  0  0
  -19.6382  -31.2603   24.0743 C   0  0  0  0  0  0  0  0  0  0  0  0
  -25.0405  -27.4635   20.6072 C   0  0  0  0  0  0  0  0  0  0  0  0
  -25.4862  -10.0797   23.7288 C   0  0  0  0  0  0  0  0  0  0  0  0
  -27.3400  -27.6671   19.8904 C   0  0  0  0  0  0  0  0  0  0  0  0
  -23.9375   -8.9811   22.3443 C   0  0  0  0  0  0  0  0  0  0  0  0
  -22.4616   -8.9215   19.9777 C   0  0  0  0  0  0  0  0  0  0  0  0
  -24.1088   -7.9315   21.4417 C   0  0  0  0  0  0  0  0  0  0  0  0
  -28.0276  -13.3993   24.3765 C   0  0  0  0  0  0  0  0  0  0  0  0
  -29.5754  -14.7654   25.1332 C   0  0  0  0  0  0  0  0  0  0  0  0
  -29.5140  -12.5545   26.2979 C   0  0  0  0  0  0  0  0  0  0  0  0
  -21.4996  -28.6631   22.2188 C   0  0  0  0  0  0  0  0  0  0  0  0
  -21.6235  -27.1947   19.5283 C   0  0  0  0  0  0  0  0  0  0  0  0
  -22.1067  -26.0306   16.3583 C   0  0  0  0  0  0  0  0  0  0  0  0
  -29.8610  -18.3027   20.5492 C   0  0  0  0  0  0  0  0  0  0  0  0
  -17.4441  -31.6972   22.8553 C   0  0  0  0  0  0  0  0  0  0  0  0
  -23.8482  -29.3296   21.7644 C   0  0  0  0  0  0  0  0  0  0  0  0
  -23.7695  -26.6796   20.7892 C   0  0  0  0  0  0  0  0  0  0  0  0
  -17.7578  -30.4533   22.0279 C   0  0  0  0  0  0  0  0  0  0  0  0
  -28.3526  -19.1318   23.6329 C   0  0  0  0  0  0  0  0  0  0  0  0
  -18.4006  -29.3798   22.9004 C   0  0  0  0  0  0  0  0  0  0  0  0
  -28.6118  -22.9384   21.4058 C   0  0  0  0  0  0  0  0  0  0  0  0
  -28.0691  -22.5504   18.9681 C   0  0  0  0  0  0  0  0  0  0  0  0
  -28.1887  -17.7527   24.2701 C   0  0  0  0  0  0  0  0  0  0  0  0
  -29.5901  -21.7637   21.3773 C   0  0  0  0  0  0  0  0  0  0  0  0
  -29.0458  -21.3745   18.9355 C   0  0  0  0  0  0  0  0  0  0  0  0
  -28.0506  -19.1116   22.1334 C   0  0  0  0  0  0  0  0  0  0  0  0
  -28.6562  -16.7152   22.0191 C   0  0  0  0  0  0  0  0  0  0  0  0
  -19.7305  -29.8687   23.4867 C   0  0  1  0  0  0  0  0  0  0  0  0
  -22.5315  -28.8307   21.1425 C   0  0  1  0  0  0  0  0  0  0  0  0
  -28.4227  -23.5988   20.0326 C   0  0  0  0  0  0  0  0  0  0  0  0
  -29.0120  -16.6958   23.5137 C   0  0  2  0  0  0  0  0  0  0  0  0
  -29.1967  -20.7336   20.3163 C   0  0  0  0  0  0  0  0  0  0  0  0
  -20.8824  -24.9709   14.4411 C   0  0  0  0  0  0  0  0  0  0  0  0
  -28.0711  -26.8128   16.9543 C   0  0  0  0  0  0  0  0  0  0  0  0
  -21.6221  -24.5275   21.0083 C   0  0  0  0  0  0  0  0  0  0  0  0
  -21.3082  -23.3848   18.8029 C   0  0  0  0  0  0  0  0  0  0  0  0
  -19.5718  -24.9655   19.6448 C   0  0  0  0  0  0  0  0  0  0  0  0
  -31.4359  -19.9606   19.6276 C   0  0  0  0  0  0  0  0  0  0  0  0
  -22.7188  -28.3010   14.5612 C   0  0  0  0  0  0  0  0  0  0  0  0
  -31.1136  -26.2549   20.4873 C   0  0  0  0  0  0  0  0  0  0  0  0
  -29.4178  -25.1599   18.3004 C   0  0  0  0  0  0  0  0  0  0  0  0
  -21.7784  -25.8767   18.8125 C   0  0  1  0  0  0  0  0  0  0  0  0
  -21.3461  -26.2767   15.0678 C   0  0  2  0  0  0  0  0  0  0  0  0
  -29.6473  -24.4244   19.6285 C   0  0  1  0  0  0  0  0  0  0  0  0
  -28.2295  -26.1305   18.3076 C   0  0  1  0  0  0  0  0  0  1  0  0
  -21.0923  -24.7059   19.5714 C   0  0  0  0  0  0  0  0  0  0  0  0
  -27.8928  -14.5015   23.6343 N   0  0  0  0  0  0  0  0  0  0  0  0
  -28.8477  -15.3138   24.1184 N   0  0  0  0  0  0  0  0  0  0  0  0
  -22.6082  -27.5239   20.4677 N   0  0  0  0  0  0  0  0  0  0  0  0
  -28.8210  -18.0584   21.4581 N   0  0  0  0  0  0  0  0  0  0  0  0
  -30.5751  -15.4454   25.7338 N   0  0  0  0  0  0  0  0  0  0  0  0
  -28.8741  -11.3092   26.3618 N   0  0  0  0  0  0  0  0  0  0  0  0
  -20.7757  -29.8091   22.4875 N   0  0  0  0  0  0  0  0  0  0  0  0
  -21.2773  -26.0862   17.4585 N   0  0  0  0  0  0  0  0  0  0  0  0
  -30.1685  -19.6428   20.2702 N   0  0  0  0  0  0  0  0  0  0  0  0
  -22.2107  -26.9888   14.0848 N   0  3  0  0  0  0  0  0  0  0  0  0
  -29.9121  -25.4105   20.7132 N   0  3  0  0  0  0  0  0  0  0  0  0
  -30.4480  -12.8065   27.0965 O   0  0  0  0  0  0  0  0  0  0  0  0
  -21.3676  -27.5741   22.7651 O   0  0  0  0  0  0  0  0  0  0  0  0
  -20.6537  -27.9122   19.2678 O   0  0  0  0  0  0  0  0  0  0  0  0
  -23.3149  -25.8074   16.3872 O   0  0  0  0  0  0  0  0  0  0  0  0
  -30.4769  -17.3747   20.0092 O   0  0  0  0  0  0  0  0  0  0  0  0
  -24.6687   -9.0116   23.5199 O   0  0  0  0  0  0  0  0  0  0  0  0
  -28.4452  -27.1289   19.3041 O   0  0  0  0  0  0  0  0  0  1  0  0
  -21.7518   -8.8922   18.8421 F   0  0  0  0  0  0  0  0  0  0  0  0
  -24.9801   -6.9483   21.7065 F   0  0  0  0  0  0  0  0  0  0  0  0
  1  2  1  0  0  0  0
  1  5  2  0  0  0  0
  2  6  2  0  0  0  0
  3  8  2  0  0  0  0
  3 15  1  0  0  0  0
  4  9  1  0  0  0  0
  4 15  2  0  0  0  0
  5 17  1  0  0  0  0
  6 19  1  0  0  0  0
  7 10  2  0  0  0  0
  7 18  1  0  0  0  0
  8 21  1  0  0  0  0
  9 21  2  0  0  0  0
 10 22  1  0  0  0  0
 11 12  2  0  0  0  0
 11 23  1  0  0  0  0
 12 24  1  0  0  0  0
 13 20  1  0  0  0  0
 13 22  2  0  0  0  0
 14 24  2  0  0  0  0
 14 25  1  0  0  0  0
 15 26  1  0  0  0  0
 16 26  1  0  0  0  0
 16 27  2  0  0  0  0
 16 28  1  0  0  0  0
 17 19  2  0  0  0  0
 17 33  1  0  0  0  0
 18 20  2  0  0  0  0
 18 34  1  0  0  0  0
 19 46  1  0  0  0  0
 20 35  1  0  0  0  0
 21 81  1  0  0  0  0
 22 82  1  0  0  0  0
 23 25  2  0  0  0  0
 23 81  1  0  0  0  0
 24 83  1  0  0  0  0
 25 84  1  0  0  0  0
 26 65  2  0  0  0  0
 27 66  1  0  0  0  0
 27 69  1  0  0  0  0
 28 70  1  0  0  0  0
 28 76  2  0  0  0  0
 29 47  1  0  0  0  0
 29 71  1  0  0  0  0
 29 77  2  0  0  0  0
 30 60  1  0  0  0  0
 30 67  1  0  0  0  0
 30 78  2  0  0  0  0
 31 61  1  0  0  0  0
 31 72  1  0  0  0  0
 31 79  2  0  0  0  0
 32 68  1  0  0  0  0
 32 73  1  0  0  0  0
 32 80  2  0  0  0  0
 33 36  1  0  0  0  0
 34 47  1  0  0  0  0
 35 67  1  0  0  0  0
 36 38  1  0  0  0  0
 37 41  1  0  0  0  0
 37 44  1  0  0  0  0
 38 46  1  0  0  0  0
 39 42  1  0  0  0  0
 39 48  1  0  0  0  0
 40 43  1  0  0  0  0
 40 48  1  0  0  0  0
 41 49  1  0  0  0  0
 42 50  1  0  0  0  0
 43 50  1  0  0  0  0
 44 68  1  0  0  0  0
 45 49  1  0  0  0  0
 45 68  1  0  0  0  0
 46 71  1  0  0  0  0
 47 67  1  0  0  0  0
 48 62  1  0  0  0  0
 49 66  1  0  0  0  0
 50 73  1  0  0  0  0
 51 61  1  0  0  0  0
 52 63  1  0  0  0  0
 53 64  1  0  0  0  0
 54 64  1  0  0  0  0
 55 64  1  0  0  0  0
 56 73  1  0  0  0  0
 57 74  1  0  0  0  0
 58 75  1  0  0  0  0
 59 62  1  0  0  0  0
 59 63  1  0  0  0  0
 60 64  1  0  0  0  0
 60 72  1  0  0  0  0
 61 74  1  0  0  0  0
 62 75  1  0  0  0  0
 63 82  1  0  0  0  0
 65 66  1  0  0  0  0
M  CHG  2  74   1  75   1
M  ISO  4  32 100  63 101  73 100  82 101
M  END
> <Batch ID>
0110

> <Smiles>
CNC(C)C(=O)NC(C(=O)N1Cc2cc([101O:1][101CH:1](C)CC(NC)C3CCC([100N:0](C)[100C:0](=O)N4CCCC(n5nc(-c6ccc(Oc7ccc(F)cc7F)cc6)c(C(N)=O)c5N)C4)CC3)ccc2CC1C(=O)NC1CCCc2ccccc21)C(C)(C)C

> <Shape>
0.201

> <Color>
0.074

> <Negative vol penalty>
0.000

$$$$

  -OEChem-04052319583D

 82 90  0     1  0  0  0  0  0999 V2000
  -35.8427  -30.6509   25.9632 C   0  0  0  0  0  0  0  0  0  0  0  0
  -35.3464  -30.0575   24.8069 C   0  0  0  0  0  0  0  0  0  0  0  0
  -23.0713   -9.8448   19.9685 C   0  0  0  0  0  0  0  0  0  0  0  0
  -23.8219   -9.8928   22.2644 C   0  0  0  0  0  0  0  0  0  0  0  0
  -35.5786  -30.0793   27.2072 C   0  0  0  0  0  0  0  0  0  0  0  0
  -34.5868  -28.8914   24.8938 C   0  0  0  0  0  0  0  0  0  0  0  0
  -29.8778  -27.2904   21.3206 C   0  0  0  0  0  0  0  0  0  0  0  0
  -22.3243   -8.6977   20.2366 C   0  0  0  0  0  0  0  0  0  0  0  0
  -23.0749   -8.7457   22.5326 C   0  0  0  0  0  0  0  0  0  0  0  0
  -29.7841  -26.4473   20.2141 C   0  0  0  0  0  0  0  0  0  0  0  0
  -19.8429   -7.9648   23.1366 C   0  0  0  0  0  0  0  0  0  0  0  0
  -19.0812   -7.9478   24.3049 C   0  0  0  0  0  0  0  0  0  0  0  0
  -29.0684  -24.6483   21.6530 C   0  0  0  0  0  0  0  0  0  0  0  0
  -20.3160   -6.0221   25.0820 C   0  0  0  0  0  0  0  0  0  0  0  0
  -23.8202  -10.4423   20.9823 C   0  0  0  0  0  0  0  0  0  0  0  0
  -24.1671  -12.9642   20.8171 C   0  0  0  0  0  0  0  0  0  0  0  0
  -34.8072  -28.9110   27.3102 C   0  0  0  0  0  0  0  0  0  0  0  0
  -29.5774  -26.8149   22.6052 C   0  0  0  0  0  0  0  0  0  0  0  0
  -34.3133  -28.3029   26.1403 C   0  0  0  0  0  0  0  0  0  0  0  0
  -29.1566  -25.4880   22.7738 C   0  0  0  0  0  0  0  0  0  0  0  0
  -22.3261   -8.1482   21.5187 C   0  0  0  0  0  0  0  0  0  0  0  0
  -29.3822  -25.1253   20.3806 C   0  0  0  0  0  0  0  0  0  0  0  0
  -20.8412   -7.0104   22.9409 C   0  0  0  0  0  0  0  0  0  0  0  0
  -19.3177   -6.9765   25.2777 C   0  0  0  0  0  0  0  0  0  0  0  0
  -21.0778   -6.0391   23.9136 C   0  0  0  0  0  0  0  0  0  0  0  0
  -24.5925  -11.6268   20.7058 C   0  0  0  0  0  0  0  0  0  0  0  0
  -25.2621  -13.7049   20.4445 C   0  0  0  0  0  0  0  0  0  0  0  0
  -22.8959  -13.4898   21.2213 C   0  0  0  0  0  0  0  0  0  0  0  0
  -31.2122  -26.4737   25.3098 C   0  0  0  0  0  0  0  0  0  0  0  0
  -28.3124  -25.6404   26.5011 C   0  0  0  0  0  0  0  0  0  0  0  0
  -25.1767  -24.4296   25.9105 C   0  0  0  0  0  0  0  0  0  0  0  0
  -30.7468  -14.7177   20.6364 C   0  0  0  0  0  0  0  0  0  0  0  0
  -34.5881  -28.3037   28.6731 C   0  0  0  0  0  0  0  0  0  0  0  0
  -29.6577  -27.7443   23.7850 C   0  0  0  0  0  0  0  0  0  0  0  0
  -28.8032  -24.9343   24.1292 C   0  0  0  0  0  0  0  0  0  0  0  0
  -33.4600  -27.2758   28.7077 C   0  0  0  0  0  0  0  0  0  0  0  0
  -29.6146  -12.2915   18.2894 C   0  0  0  0  0  0  0  0  0  0  0  0
  -33.5813  -26.3103   27.5329 C   0  0  0  0  0  0  0  0  0  0  0  0
  -29.1959  -19.3747   19.2906 C   0  0  0  0  0  0  0  0  0  0  0  0
  -30.0175  -20.6765   21.2978 C   0  0  0  0  0  0  0  0  0  0  0  0
  -28.1749  -12.0083   18.7219 C   0  0  0  0  0  0  0  0  0  0  0  0
  -29.8546  -18.1066   19.8373 C   0  0  0  0  0  0  0  0  0  0  0  0
  -30.6787  -19.4130   21.8523 C   0  0  0  0  0  0  0  0  0  0  0  0
  -30.5272  -12.5328   19.4898 C   0  0  0  0  0  0  0  0  0  0  0  0
  -28.6212  -13.2927   20.8549 C   0  0  0  0  0  0  0  0  0  0  0  0
  -33.4644  -27.0513   26.1955 C   0  0  1  0  0  0  0  0  0  0  0  0
  -29.8231  -27.0115   25.1128 C   0  0  1  0  0  0  0  0  0  0  0  0
  -29.9175  -20.6409   19.7678 C   0  0  0  0  0  0  0  0  0  0  0  0
  -27.6515  -13.0981   19.6767 C   0  0  2  0  0  0  0  0  0  0  0  0
  -30.0179  -18.1134   21.3656 C   0  0  0  0  0  0  0  0  0  0  0  0
  -23.0447  -23.8244   27.0876 C   0  0  0  0  0  0  0  0  0  0  0  0
  -31.0560  -23.1877   18.1172 C   0  0  0  0  0  0  0  0  0  0  0  0
  -29.6111  -23.0788   27.5314 C   0  0  0  0  0  0  0  0  0  0  0  0
  -27.3181  -22.1199   27.8324 C   0  0  0  0  0  0  0  0  0  0  0  0
  -28.0006  -24.1441   29.1207 C   0  0  0  0  0  0  0  0  0  0  0  0
  -23.6259  -26.4295   24.3761 C   0  0  0  0  0  0  0  0  0  0  0  0
  -29.2131  -21.8916   19.2447 C   0  0  0  0  0  0  0  0  0  0  0  0
  -30.8116  -16.8906   21.8337 C   0  0  0  0  0  0  0  0  0  0  0  0
  -27.5458  -24.3475   26.6420 C   0  0  1  0  0  0  0  0  0  0  0  0
  -23.8090  -24.9159   26.3546 C   0  0  2  0  0  0  0  0  0  0  0  0
  -30.1086  -23.1308   19.3080 C   0  0  2  0  0  0  0  0  0  1  0  0
  -28.1274  -23.4322   27.7562 C   0  0  0  0  0  0  0  0  0  0  0  0
  -25.8588  -11.5211   20.2945 N   0  0  0  0  0  0  0  0  0  0  0  0
  -26.2386  -12.8014   20.1441 N   0  0  0  0  0  0  0  0  0  0  0  0
  -28.9035  -25.8806   25.2526 N   0  0  0  0  0  0  0  0  0  0  0  0
  -29.9750  -13.5785   20.3544 N   0  0  0  0  0  0  0  0  0  0  0  0
  -25.4752  -15.0344   20.3478 N   0  0  0  0  0  0  0  0  0  0  0  0
  -21.8809  -12.5888   21.5711 N   0  0  0  0  0  0  0  0  0  0  0  0
  -32.0806  -27.3649   25.9107 N   0  0  0  0  0  0  0  0  0  0  0  0
  -26.1498  -24.7204   26.8431 N   0  0  0  0  0  0  0  0  0  0  0  0
  -30.1460  -15.6629   21.4587 N   0  0  0  0  0  0  0  0  0  0  0  0
  -28.6567  -18.0089   21.9904 N   0  3  0  0  0  0  0  0  0  0  0  0
  -23.0034  -25.3433   25.1759 N   0  3  0  0  0  0  0  0  0  0  0  0
  -22.6616  -14.7217   21.2549 O   0  0  0  0  0  0  0  0  0  0  0  0
  -31.4761  -25.3340   24.9450 O   0  0  0  0  0  0  0  0  0  0  0  0
  -28.3780  -26.4122   27.4611 O   0  0  0  0  0  0  0  0  0  0  0  0
  -25.3627  -23.8465   24.8447 O   0  0  0  0  0  0  0  0  0  0  0  0
  -31.8849  -14.8827   20.1843 O   0  0  0  0  0  0  0  0  0  0  0  0
  -21.5971   -7.0291   21.7808 O   0  0  0  0  0  0  0  0  0  0  0  0
  -29.2906  -24.3001   19.3024 O   0  0  0  0  0  0  0  0  0  1  0  0
  -18.5872   -6.9613   26.4003 F   0  0  0  0  0  0  0  0  0  0  0  0
  -22.0362   -5.1204   23.7318 F   0  0  0  0  0  0  0  0  0  0  0  0
  1  2  1  0  0  0  0
  1  5  2  0  0  0  0
  2  6  2  0  0  0  0
  3  8  2  0  0  0  0
  3 15  1  0  0  0  0
  4  9  1  0  0  0  0
  4 15  2  0  0  0  0
  5 17  1  0  0  0  0
  6 19  1  0  0  0  0
  7 10  2  0  0  0  0
  7 18  1  0  0  0  0
  8 21  1  0  0  0  0
  9 21  2  0  0  0  0
 10 22  1  0  0  0  0
 11 12  2  0  0  0  0
 11 23  1  0  0  0  0
 12 24  1  0  0  0  0
 13 20  1  0  0  0  0
 13 22  2  0  0  0  0
 14 24  2  0  0  0  0
 14 25  1  0  0  0  0
 15 26  1  0  0  0  0
 16 26  1  0  0  0  0
 16 27  2  0  0  0  0
 16 28  1  0  0  0  0
 17 19  2  0  0  0  0
 17 33  1  0  0  0  0
 18 20  2  0  0  0  0
 18 34  1  0  0  0  0
 19 46  1  0  0  0  0
 20 35  1  0  0  0  0
 21 79  1  0  0  0  0
 22 80  1  0  0  0  0
 23 25  2  0  0  0  0
 23 79  1  0  0  0  0
 24 81  1  0  0  0  0
 25 82  1  0  0  0  0
 26 63  2  0  0  0  0
 27 64  1  0  0  0  0
 27 67  1  0  0  0  0
 28 68  1  0  0  0  0
 28 74  2  0  0  0  0
 29 47  1  0  0  0  0
 29 69  1  0  0  0  0
 29 75  2  0  0  0  0
 30 59  1  0  0  0  0
 30 65  1  0  0  0  0
 30 76  2  0  0  0  0
 31 60  1  0  0  0  0
 31 70  1  0  0  0  0
 31 77  2  0  0  0  0
 32 66  1  0  0  0  0
 32 71  1  0  0  0  0
 32 78  2  0  0  0  0
 33 36  1  0  0  0  0
 34 47  1  0  0  0  0
 35 65  1  0  0  0  0
 36 38  1  0  0  0  0
 37 41  1  0  0  0  0
 37 44  1  0  0  0  0
 38 46  1  0  0  0  0
 39 42  1  0  0  0  0
 39 48  1  0  0  0  0
 40 43  1  0  0  0  0
 40 48  1  0  0  0  0
 41 49  1  0  0  0  0
 42 50  1  0  0  0  0
 43 50  1  0  0  0  0
 44 66  1  0  0  0  0
 45 49  1  0  0  0  0
 45 66  1  0  0  0  0
 46 69  1  0  0  0  0
 47 65  1  0  0  0  0
 48 57  1  0  0  0  0
 49 64  1  0  0  0  0
 50 58  1  0  0  0  0
 50 72  1  0  0  0  0
 51 60  1  0  0  0  0
 52 61  1  0  0  0  0
 53 62  1  0  0  0  0
 54 62  1  0  0  0  0
 55 62  1  0  0  0  0
 56 73  1  0  0  0  0
 57 61  1  0  0  0  0
 58 71  1  0  0  0  0
 59 62  1  0  0  0  0
 59 70  1  0  0  0  0
 60 73  1  0  0  0  0
 61 80  1  0  0  0  0
 63 64  1  0  0  0  0
M  CHG  2  72   1  73   1
M  ISO  4  32 100  61 101  71 100  80 101
M  END
> <Batch ID>
0110

> <Smiles>
CNC(C)C(=O)NC(C(=O)N1Cc2cc([101O:1][101CH:1](C)CC3CCC(N)(C[100NH:0][100C:0](=O)N4CCCC(n5nc(-c6ccc(Oc7ccc(F)cc7F)cc6)c(C(N)=O)c5N)C4)CC3)ccc2CC1C(=O)NC1CCCc2ccccc21)C(C)(C)C

> <Shape>
0.245

> <Color>
0.195

> <Negative vol penalty>
0.000

$$$$

  -OEChem-04052319583D

 85 93  0     1  0  0  0  0  0999 V2000
  -29.4643  -27.0374   20.2576 C   0  0  0  0  0  0  0  0  0  0  0  0
  -28.2810  -26.3338   20.0567 C   0  0  0  0  0  0  0  0  0  0  0  0
  -25.8749  -29.2532   25.1188 C   0  0  0  0  0  0  0  0  0  0  0  0
  -26.3945  -29.6673   22.7960 C   0  0  0  0  0  0  0  0  0  0  0  0
  -30.6834  -26.4673   19.8933 C   0  0  0  0  0  0  0  0  0  0  0  0
  -28.3162  -25.0600   19.4904 C   0  0  0  0  0  0  0  0  0  0  0  0
  -25.3339  -21.7691   21.9236 C   0  0  0  0  0  0  0  0  0  0  0  0
  -27.2210  -28.9906   25.3731 C   0  0  0  0  0  0  0  0  0  0  0  0
  -27.7406  -29.4047   23.0503 C   0  0  0  0  0  0  0  0  0  0  0  0
  -23.9656  -21.8383   21.6653 C   0  0  0  0  0  0  0  0  0  0  0  0
  -30.3826  -31.0277   24.3942 C   0  0  0  0  0  0  0  0  0  0  0  0
  -31.3254  -31.9014   23.8525 C   0  0  0  0  0  0  0  0  0  0  0  0
  -24.1633  -19.9718   20.1500 C   0  0  0  0  0  0  0  0  0  0  0  0
  -20.8729  -21.0274   17.4469 C   0  0  0  0  0  0  0  0  0  0  0  0
  -32.3120  -30.0727   22.6198 C   0  0  0  0  0  0  0  0  0  0  0  0
  -25.4616  -29.5915   23.8302 C   0  0  0  0  0  0  0  0  0  0  0  0
  -23.4184  -31.1074   23.6426 C   0  0  0  0  0  0  0  0  0  0  0  0
  -30.7343  -25.1820   19.3311 C   0  0  0  0  0  0  0  0  0  0  0  0
  -26.1304  -20.8061   21.2877 C   0  0  0  0  0  0  0  0  0  0  0  0
  -29.5370  -24.4728   19.1170 C   0  0  0  0  0  0  0  0  0  0  0  0
  -25.5410  -19.8908   20.4039 C   0  0  0  0  0  0  0  0  0  0  0  0
  -21.3741  -21.3812   16.1699 C   0  0  0  0  0  0  0  0  0  0  0  0
  -28.1538  -29.0664   24.3389 C   0  0  0  0  0  0  0  0  0  0  0  0
  -23.3806  -20.9415   20.7762 C   0  0  0  0  0  0  0  0  0  0  0  0
  -30.4046  -29.6764   24.0487 C   0  0  0  0  0  0  0  0  0  0  0  0
  -32.2900  -31.4240   22.9653 C   0  0  0  0  0  0  0  0  0  0  0  0
  -31.3692  -29.1990   23.1615 C   0  0  0  0  0  0  0  0  0  0  0  0
  -24.0712  -29.8624   23.5668 C   0  0  0  0  0  0  0  0  0  0  0  0
  -20.7694  -22.1865   18.1838 C   0  0  0  0  0  0  0  0  0  0  0  0
  -21.5619  -22.7458   16.1655 C   0  0  0  0  0  0  0  0  0  0  0  0
  -22.1164  -30.8337   23.3016 C   0  0  0  0  0  0  0  0  0  0  0  0
  -23.9422  -32.3960   23.9899 C   0  0  0  0  0  0  0  0  0  0  0  0
  -28.6012  -20.9025   19.2902 C   0  0  0  0  0  0  0  0  0  0  0  0
  -28.6025  -17.6921   19.7548 C   0  0  0  0  0  0  0  0  0  0  0  0
  -26.8589  -14.8894   20.6218 C   0  0  0  0  0  0  0  0  0  0  0  0
  -19.5804  -26.5016   20.0377 C   0  0  0  0  0  0  0  0  0  0  0  0
  -32.0716  -24.6265   18.9097 C   0  0  0  0  0  0  0  0  0  0  0  0
  -27.6002  -20.7274   21.5975 C   0  0  0  0  0  0  0  0  0  0  0  0
  -26.3487  -18.8250   19.7108 C   0  0  0  0  0  0  0  0  0  0  0  0
  -32.0546  -23.1205   18.6609 C   0  0  0  0  0  0  0  0  0  0  0  0
  -18.8716  -27.3200   23.4296 C   0  0  0  0  0  0  0  0  0  0  0  0
  -30.8476  -22.7332   17.8124 C   0  0  0  0  0  0  0  0  0  0  0  0
  -20.0649  -28.1767   23.8562 C   0  0  0  0  0  0  0  0  0  0  0  0
  -19.2915  -26.2005   22.4795 C   0  0  0  0  0  0  0  0  0  0  0  0
  -21.2421  -27.5021   21.7213 C   0  0  0  0  0  0  0  0  0  0  0  0
  -29.5363  -23.0787   18.5283 C   0  0  1  0  0  0  0  0  0  0  0  0
  -28.4056  -20.0357   20.5019 C   0  0  1  0  0  0  0  0  0  0  0  0
  -20.8598  -28.6785   22.6357 C   0  0  2  0  0  0  0  0  0  0  0  0
  -21.6425  -20.4521   15.0542 C   0  0  0  0  0  0  0  0  0  0  0  0
  -22.0628  -23.6350   15.0956 C   0  0  0  0  0  0  0  0  0  0  0  0
  -27.1192  -12.4060   20.8715 C   0  0  0  0  0  0  0  0  0  0  0  0
  -28.5032  -17.3790   16.7213 C   0  0  0  0  0  0  0  0  0  0  0  0
  -27.8145  -14.9959   17.0596 C   0  0  0  0  0  0  0  0  0  0  0  0
  -30.0338  -15.7802   17.8855 C   0  0  0  0  0  0  0  0  0  0  0  0
  -18.6065  -27.5036   17.3847 C   0  0  0  0  0  0  0  0  0  0  0  0
  -21.0247  -27.6745   16.7798 C   0  0  0  0  0  0  0  0  0  0  0  0
  -26.2049  -14.9942   23.5062 C   0  0  0  0  0  0  0  0  0  0  0  0
  -20.2937  -22.3918   19.6015 C   0  0  0  0  0  0  0  0  0  0  0  0
  -20.0577  -25.4067   17.2179 C   0  0  0  0  0  0  0  0  0  0  0  0
  -21.2379  -24.6142   17.7991 C   0  0  0  0  0  0  0  0  0  0  0  0
  -21.4290  -22.2909   20.6144 C   0  0  0  0  0  0  0  0  0  1  0  0
  -27.9340  -16.5149   19.0867 C   0  0  1  0  0  0  0  0  0  0  0  0
  -27.1868  -13.7533   21.5737 C   0  0  2  0  0  0  0  0  0  0  0  0
  -28.5562  -16.1887   17.6997 C   0  0  0  0  0  0  0  0  0  0  0  0
  -19.9966  -26.9011   17.6240 C   0  0  0  0  0  0  0  0  0  0  0  0
  -23.2514  -28.8715   23.2063 N   0  0  0  0  0  0  0  0  0  0  0  0
  -21.1913  -23.2247   17.3949 N   0  0  0  0  0  0  0  0  0  0  0  0
  -22.0701  -29.4935   23.0525 N   0  0  0  0  0  0  0  0  0  0  0  0
  -27.7829  -18.7928   20.0418 N   0  0  0  0  0  0  0  0  0  0  0  0
  -20.0396  -26.7434   21.3430 N   0  0  0  0  0  0  0  0  0  0  0  0
  -21.0179  -31.6110   23.1938 N   0  0  0  0  0  0  0  0  0  0  0  0
  -25.3020  -32.4995   24.3133 N   0  0  0  0  0  0  0  0  0  0  0  0
  -29.2450  -22.0970   19.5510 N   0  0  0  0  0  0  0  0  0  0  0  0
  -27.9947  -15.4145   20.0426 N   0  0  0  0  0  0  0  0  0  0  0  0
  -20.3444  -27.0572   19.0188 N   0  0  0  0  0  0  0  0  0  0  0  0
  -26.2261  -13.7383   22.7128 N   0  3  0  0  0  0  0  0  0  0  0  0
  -23.2221  -33.4224   24.0288 O   0  0  0  0  0  0  0  0  0  0  0  0
  -28.1991  -20.5154   18.1992 O   0  0  0  0  0  0  0  0  0  0  0  0
  -29.8061  -17.6342   20.0189 O   0  0  0  0  0  0  0  0  0  0  0  0
  -25.7097  -15.2704   20.4101 O   0  0  0  0  0  0  0  0  0  0  0  0
  -18.5620  -25.8440   19.7984 O   0  0  0  0  0  0  0  0  0  0  0  0
  -29.4675  -28.8104   24.5867 O   0  0  0  0  0  0  0  0  0  0  0  0
  -22.0454  -21.0072   20.5217 O   0  0  0  0  0  0  0  0  0  1  0  0
  -33.1943  -32.2634   22.4441 F   0  0  0  0  0  0  0  0  0  0  0  0
  -31.3946  -27.9021   22.8249 F   0  0  0  0  0  0  0  0  0  0  0  0
  1  2  1  0  0  0  0
  1  5  2  0  0  0  0
  2  6  2  0  0  0  0
  3  8  2  0  0  0  0
  3 16  1  0  0  0  0
  4  9  1  0  0  0  0
  4 16  2  0  0  0  0
  5 18  1  0  0  0  0
  6 20  1  0  0  0  0
  7 10  2  0  0  0  0
  7 19  1  0  0  0  0
  8 23  1  0  0  0  0
  9 23  2  0  0  0  0
 10 24  1  0  0  0  0
 11 12  2  0  0  0  0
 11 25  1  0  0  0  0
 12 26  1  0  0  0  0
 13 21  1  0  0  0  0
 13 24  2  0  0  0  0
 14 22  1  0  0  0  0
 14 29  2  0  0  0  0
 15 26  2  0  0  0  0
 15 27  1  0  0  0  0
 16 28  1  0  0  0  0
 17 28  1  0  0  0  0
 17 31  2  0  0  0  0
 17 32  1  0  0  0  0
 18 20  2  0  0  0  0
 18 37  1  0  0  0  0
 19 21  2  0  0  0  0
 19 38  1  0  0  0  0
 20 46  1  0  0  0  0
 21 39  1  0  0  0  0
 22 30  2  0  0  0  0
 22 49  1  0  0  0  0
 23 82  1  0  0  0  0
 24 83  1  0  0  0  0
 25 27  2  0  0  0  0
 25 82  1  0  0  0  0
 26 84  1  0  0  0  0
 27 85  1  0  0  0  0
 28 66  2  0  0  0  0
 29 58  1  0  0  0  0
 29 67  1  0  0  0  0
 30 50  1  0  0  0  0
 30 67  1  0  0  0  0
 31 68  1  0  0  0  0
 31 71  1  0  0  0  0
 32 72  1  0  0  0  0
 32 77  2  0  0  0  0
 33 47  1  0  0  0  0
 33 73  1  0  0  0  0
 33 78  2  0  0  0  0
 34 62  1  0  0  0  0
 34 69  1  0  0  0  0
 34 79  2  0  0  0  0
 35 63  1  0  0  0  0
 35 74  1  0  0  0  0
 35 80  2  0  0  0  0
 36 70  1  0  0  0  0
 36 75  1  0  0  0  0
 36 81  2  0  0  0  0
 37 40  1  0  0  0  0
 38 47  1  0  0  0  0
 39 69  1  0  0  0  0
 40 42  1  0  0  0  0
 41 43  1  0  0  0  0
 41 44  1  0  0  0  0
 42 46  1  0  0  0  0
 43 48  1  0  0  0  0
 44 70  1  0  0  0  0
 45 48  1  0  0  0  0
 45 70  1  0  0  0  0
 46 73  1  0  0  0  0
 47 69  1  0  0  0  0
 48 68  1  0  0  0  0
 51 63  1  0  0  0  0
 52 64  1  0  0  0  0
 53 64  1  0  0  0  0
 54 64  1  0  0  0  0
 55 65  1  0  0  0  0
 56 65  1  0  0  0  0
 57 76  1  0  0  0  0
 58 61  1  0  0  0  0
 59 60  1  0  0  0  0
 59 65  1  0  0  0  0
 60 67  1  0  0  0  0
 61 83  1  0  0  0  0
 62 64  1  0  0  0  0
 62 74  1  0  0  0  0
 63 76  1  0  0  0  0
 65 75  1  0  0  0  0
 66 68  1  0  0  0  0
M  CHG  1  76   1
M  ISO  4  36 100  61 101  75 100  83 101
M  END
> <Batch ID>
0110

> <Smiles>
CNC(C)C(=O)NC(C(=O)N1Cc2cc([101O:1][101CH2:1]Cc3cc(C)c(C)n3CCC(C)(C)[100NH:0][100C:0](=O)N3CCCC(n4nc(-c5ccc(Oc6ccc(F)cc6F)cc5)c(C(N)=O)c4N)C3)ccc2CC1C(=O)NC1CCCc2ccccc21)C(C)(C)C

> <Shape>
0.210

> <Color>
0.068

> <Negative vol penalty>
0.000

$$$$

  -OEChem-04052319583D

 87 95  0     1  0  0  0  0  0999 V2000
  -25.5572  -26.5252   29.6355 C   0  0  0  0  0  0  0  0  0  0  0  0
  -25.4588  -25.1375   29.6433 C   0  0  0  0  0  0  0  0  0  0  0  0
  -23.1902   -9.8200   19.9318 C   0  0  0  0  0  0  0  0  0  0  0  0
  -23.5679  -10.0006   22.3112 C   0  0  0  0  0  0  0  0  0  0  0  0
  -25.3048  -27.2342   28.4617 C   0  0  0  0  0  0  0  0  0  0  0  0
  -25.1068  -24.4580   28.4776 C   0  0  0  0  0  0  0  0  0  0  0  0
  -28.0051  -20.3884   27.6509 C   0  0  0  0  0  0  0  0  0  0  0  0
  -22.4236   -8.6735   20.1405 C   0  0  0  0  0  0  0  0  0  0  0  0
  -22.8012   -8.8542   22.5200 C   0  0  0  0  0  0  0  0  0  0  0  0
  -27.7225  -19.2437   28.3949 C   0  0  0  0  0  0  0  0  0  0  0  0
  -23.2015   -5.5074   22.2565 C   0  0  0  0  0  0  0  0  0  0  0  0
  -23.6994   -4.5460   23.1360 C   0  0  0  0  0  0  0  0  0  0  0  0
  -26.5322  -18.3203   26.5108 C   0  0  0  0  0  0  0  0  0  0  0  0
  -21.7425   -4.8067   24.5287 C   0  0  0  0  0  0  0  0  0  0  0  0
  -30.5327  -14.0984   26.0740 C   0  0  0  0  0  0  0  0  0  0  0  0
  -29.9421  -12.2062   27.0371 C   0  0  0  0  0  0  0  0  0  0  0  0
  -23.7624  -10.4835   21.0172 C   0  0  0  0  0  0  0  0  0  0  0  0
  -24.1019  -13.0000   20.7732 C   0  0  0  0  0  0  0  0  0  0  0  0
  -24.9590  -26.5623   27.2786 C   0  0  0  0  0  0  0  0  0  0  0  0
  -27.5433  -20.5125   26.3327 C   0  0  0  0  0  0  0  0  0  0  0  0
  -24.8483  -25.1587   27.2873 C   0  0  0  0  0  0  0  0  0  0  0  0
  -26.8125  -19.4665   25.7514 C   0  0  0  0  0  0  0  0  0  0  0  0
  -22.2291   -8.1906   21.4345 C   0  0  0  0  0  0  0  0  0  0  0  0
  -26.9835  -18.2107   27.8259 C   0  0  0  0  0  0  0  0  0  0  0  0
  -21.9742   -6.1185   22.5131 C   0  0  0  0  0  0  0  0  0  0  0  0
  -22.9699   -4.1957   24.2721 C   0  0  0  0  0  0  0  0  0  0  0  0
  -21.2447   -5.7681   23.6492 C   0  0  0  0  0  0  0  0  0  0  0  0
  -24.5550  -11.6675   20.8022 C   0  0  0  0  0  0  0  0  0  0  0  0
  -30.8704  -13.0133   25.3000 C   0  0  0  0  0  0  0  0  0  0  0  0
  -25.2333  -13.7423   20.5381 C   0  0  0  0  0  0  0  0  0  0  0  0
  -22.7767  -13.5203   20.9435 C   0  0  0  0  0  0  0  0  0  0  0  0
  -25.5865  -22.5092   24.8200 C   0  0  0  0  0  0  0  0  0  0  0  0
  -26.5651  -20.8655   22.2003 C   0  0  0  0  0  0  0  0  0  0  0  0
  -27.8538  -17.9844   20.9019 C   0  0  0  0  0  0  0  0  0  0  0  0
  -31.0476  -12.7511   21.5691 C   0  0  0  0  0  0  0  0  0  0  0  0
  -24.6493  -27.3749   26.0464 C   0  0  0  0  0  0  0  0  0  0  0  0
  -27.8794  -21.7423   25.5345 C   0  0  0  0  0  0  0  0  0  0  0  0
  -26.3110  -19.5420   24.3331 C   0  0  0  0  0  0  0  0  0  0  0  0
  -24.6477  -26.5535   24.7597 C   0  0  0  0  0  0  0  0  0  0  0  0
  -29.5212  -13.4684   18.4334 C   0  0  0  0  0  0  0  0  0  0  0  0
  -23.8587  -25.2623   24.9516 C   0  0  0  0  0  0  0  0  0  0  0  0
  -28.0345  -13.2084   18.6823 C   0  0  0  0  0  0  0  0  0  0  0  0
  -30.4021  -12.4789   19.1930 C   0  0  0  0  0  0  0  0  0  0  0  0
  -28.6480  -12.1368   20.8900 C   0  0  0  0  0  0  0  0  0  0  0  0
  -24.4933  -24.3841   26.0367 C   0  0  1  0  0  0  0  0  0  0  0  0
  -26.9202  -21.9812   24.3725 C   0  0  1  0  0  0  0  0  0  0  0  0
  -27.7210  -13.1447   20.1893 C   0  0  2  0  0  0  0  0  0  0  0  0
  -28.5058  -16.9248   18.7226 C   0  0  0  0  0  0  0  0  0  0  0  0
  -25.7050  -11.8712   26.8922 C   0  0  0  0  0  0  0  0  0  0  0  0
  -24.5985  -13.8586   25.8271 C   0  0  0  0  0  0  0  0  0  0  0  0
  -30.5289  -15.0673   29.0882 C   0  0  0  0  0  0  0  0  0  0  0  0
  -27.4272  -15.7492   30.3806 C   0  0  0  0  0  0  0  0  0  0  0  0
  -23.6215  -20.3881   21.5545 C   0  0  0  0  0  0  0  0  0  0  0  0
  -24.3332  -18.5820   19.9735 C   0  0  0  0  0  0  0  0  0  0  0  0
  -25.0478  -20.9386   19.5753 C   0  0  0  0  0  0  0  0  0  0  0  0
  -30.6751  -17.7021   21.7502 C   0  0  0  0  0  0  0  0  0  0  0  0
  -31.5371  -13.0025   23.9890 C   0  0  0  0  0  0  0  0  0  0  0  0
  -27.1110  -13.8906   26.2376 C   0  0  0  0  0  0  0  0  0  0  0  0
  -26.0887  -19.6315   21.4727 C   0  0  1  0  0  0  0  0  0  0  0  0
  -28.9811  -17.7402   19.9150 C   0  0  2  0  0  0  0  0  0  0  0  0
  -25.8830  -13.0326   25.9130 C   0  0  0  0  0  0  0  0  0  0  0  0
  -29.3804  -14.3434   28.3707 C   0  0  1  0  0  0  0  0  0  0  0  0
  -28.2369  -15.3082   27.9586 C   0  0  2  0  0  0  0  0  0  0  0  0
  -27.8170  -16.3364   29.0294 C   0  0  1  0  0  0  0  0  0  1  0  0
  -24.7804  -19.8842   20.6714 C   0  0  0  0  0  0  0  0  0  0  0  0
  -30.4998  -11.8384   25.9050 N   0  0  0  0  0  0  0  0  0  0  0  0
  -25.8715  -11.5660   20.6014 N   0  0  0  0  0  0  0  0  0  0  0  0
  -29.9386  -13.5656   27.1832 N   0  0  0  0  0  0  0  0  0  0  0  0
  -26.2554  -12.8443   20.4439 N   0  0  0  0  0  0  0  0  0  0  0  0
  -26.6601  -20.7675   23.5957 N   0  0  0  0  0  0  0  0  0  0  0  0
  -30.0551  -12.4680   20.6162 N   0  0  0  0  0  0  0  0  0  0  0  0
  -25.4436  -15.0691   20.4047 N   0  0  0  0  0  0  0  0  0  0  0  0
  -21.7298  -12.6183   21.1774 N   0  0  0  0  0  0  0  0  0  0  0  0
  -25.6580  -23.7004   25.5166 N   0  0  0  0  0  0  0  0  0  0  0  0
  -27.2109  -19.1795   20.6575 N   0  0  0  0  0  0  0  0  0  0  0  0
  -30.6329  -12.7260   22.8950 N   0  0  0  0  0  0  0  0  0  0  0  0
  -30.0960  -17.0030   20.5742 N   0  3  0  0  0  0  0  0  0  0  0  0
  -27.0326  -14.4900   27.5895 N   0  3  0  0  0  0  0  0  0  0  0  0
  -22.5259  -14.7474   20.8736 O   0  0  0  0  0  0  0  0  0  0  0  0
  -24.5679  -21.8830   24.5517 O   0  0  0  0  0  0  0  0  0  0  0  0
  -26.8497  -21.8767   21.5537 O   0  0  0  0  0  0  0  0  0  0  0  0
  -27.5694  -17.1924   21.7976 O   0  0  0  0  0  0  0  0  0  0  0  0
  -32.2153  -13.0123   21.2607 O   0  0  0  0  0  0  0  0  0  0  0  0
  -21.4809   -7.0721   21.6386 O   0  0  0  0  0  0  0  0  0  0  0  0
  -26.7057  -17.0925   28.5501 O   0  0  0  0  0  0  0  0  0  1  0  0
  -23.4475   -3.2714   25.1158 F   0  0  0  0  0  0  0  0  0  0  0  0
  -20.0644   -6.3509   23.9004 F   0  0  0  0  0  0  0  0  0  0  0  0
  1  2  1  0  0  0  0
  1  5  2  0  0  0  0
  2  6  2  0  0  0  0
  3  8  2  0  0  0  0
  3 17  1  0  0  0  0
  4  9  1  0  0  0  0
  4 17  2  0  0  0  0
  5 19  1  0  0  0  0
  6 21  1  0  0  0  0
  7 10  2  0  0  0  0
  7 20  1  0  0  0  0
  8 23  1  0  0  0  0
  9 23  2  0  0  0  0
 10 24  1  0  0  0  0
 11 12  2  0  0  0  0
 11 25  1  0  0  0  0
 12 26  1  0  0  0  0
 13 22  1  0  0  0  0
 13 24  2  0  0  0  0
 14 26  2  0  0  0  0
 14 27  1  0  0  0  0
 15 29  2  0  0  0  0
 15 68  1  0  0  0  0
 16 66  2  0  0  0  0
 16 68  1  0  0  0  0
 17 28  1  0  0  0  0
 18 28  1  0  0  0  0
 18 30  2  0  0  0  0
 18 31  1  0  0  0  0
 19 21  2  0  0  0  0
 19 36  1  0  0  0  0
 20 22  2  0  0  0  0
 20 37  1  0  0  0  0
 21 45  1  0  0  0  0
 22 38  1  0  0  0  0
 23 84  1  0  0  0  0
 24 85  1  0  0  0  0
 25 27  2  0  0  0  0
 25 84  1  0  0  0  0
 26 86  1  0  0  0  0
 27 87  1  0  0  0  0
 28 67  2  0  0  0  0
 29 57  1  0  0  0  0
 29 66  1  0  0  0  0
 30 69  1  0  0  0  0
 30 72  1  0  0  0  0
 31 73  1  0  0  0  0
 31 79  2  0  0  0  0
 32 46  1  0  0  0  0
 32 74  1  0  0  0  0
 32 80  2  0  0  0  0
 33 59  1  0  0  0  0
 33 70  1  0  0  0  0
 33 81  2  0  0  0  0
 34 60  1  0  0  0  0
 34 75  1  0  0  0  0
 34 82  2  0  0  0  0
 35 71  1  0  0  0  0
 35 76  1  0  0  0  0
 35 83  2  0  0  0  0
 36 39  1  0  0  0  0
 37 46  1  0  0  0  0
 38 70  1  0  0  0  0
 39 41  1  0  0  0  0
 40 42  1  0  0  0  0
 40 43  1  0  0  0  0
 41 45  1  0  0  0  0
 42 47  1  0  0  0  0
 43 71  1  0  0  0  0
 44 47  1  0  0  0  0
 44 71  1  0  0  0  0
 45 74  1  0  0  0  0
 46 70  1  0  0  0  0
 47 69  1  0  0  0  0
 48 60  1  0  0  0  0
 49 61  1  0  0  0  0
 50 61  1  0  0  0  0
 51 62  1  0  0  0  0
 52 64  1  0  0  0  0
 53 65  1  0  0  0  0
 54 65  1  0  0  0  0
 55 65  1  0  0  0  0
 56 77  1  0  0  0  0
 57 76  1  0  0  0  0
 58 61  1  0  0  0  0
 58 78  1  0  0  0  0
 59 65  1  0  0  0  0
 59 75  1  0  0  0  0
 60 77  1  0  0  0  0
 62 63  1  0  0  0  0
 62 68  1  0  0  0  0
 63 64  1  0  0  0  0
 63 78  1  0  0  0  0
 64 85  1  0  0  0  0
 67 69  1  0  0  0  0
M  CHG  2  77   1  78   1
M  ISO  4  35 100  64 101  76 100  85 101
M  END
> <Batch ID>
0110

> <Smiles>
CNC(C)C(=O)NC(C(=O)N1Cc2cc([101O:1][101CH:1](C)C(NCC(C)C)C(C)n3cnc(C[100NH:0][100C:0](=O)N4CCCC(n5nc(-c6ccc(Oc7ccc(F)cc7F)cc6)c(C(N)=O)c5N)C4)c3)ccc2CC1C(=O)NC1CCCc2ccccc21)C(C)(C)C

> <Shape>
0.174

> <Color>
0.171

> <Negative vol penalty>
0.000

$$$$

  -OEChem-04052319583D

 85 93  0     1  0  0  0  0  0999 V2000
  -18.5736  -24.0998   21.6494 C   0  0  0  0  0  0  0  0  0  0  0  0
  -19.8381  -24.3030   21.1061 C   0  0  0  0  0  0  0  0  0  0  0  0
  -25.6034  -14.0918   20.7986 C   0  0  0  0  0  0  0  0  0  0  0  0
  -25.9419  -14.0788   18.4065 C   0  0  0  0  0  0  0  0  0  0  0  0
  -17.9927  -25.0843   22.4477 C   0  0  0  0  0  0  0  0  0  0  0  0
  -20.5221  -25.4913   21.3600 C   0  0  0  0  0  0  0  0  0  0  0  0
  -26.5688  -26.1859   22.0389 C   0  0  0  0  0  0  0  0  0  0  0  0
  -24.6342  -13.0974   20.6669 C   0  0  0  0  0  0  0  0  0  0  0  0
  -24.9727  -13.0844   18.2747 C   0  0  0  0  0  0  0  0  0  0  0  0
  -27.5692  -26.6035   21.1623 C   0  0  0  0  0  0  0  0  0  0  0  0
  -24.5477   -9.7469   20.2203 C   0  0  0  0  0  0  0  0  0  0  0  0
  -24.5922   -8.6760   21.1129 C   0  0  0  0  0  0  0  0  0  0  0  0
  -27.3967  -28.8431   22.0419 C   0  0  0  0  0  0  0  0  0  0  0  0
  -26.5640  -27.5128   17.7530 C   0  0  0  0  0  0  0  0  0  0  0  0
  -22.3738   -9.2327   21.8915 C   0  0  0  0  0  0  0  0  0  0  0  0
  -26.2573  -14.5825   19.6684 C   0  0  0  0  0  0  0  0  0  0  0  0
  -28.6404  -15.4299   20.0002 C   0  0  0  0  0  0  0  0  0  0  0  0
  -18.6739  -26.2812   22.7194 C   0  0  0  0  0  0  0  0  0  0  0  0
  -25.9661  -27.0976   22.9175 C   0  0  0  0  0  0  0  0  0  0  0  0
  -19.9492  -26.4933   22.1617 C   0  0  0  0  0  0  0  0  0  0  0  0
  -26.3906  -28.4340   22.9304 C   0  0  0  0  0  0  0  0  0  0  0  0
  -27.9759  -27.6009   17.6772 C   0  0  0  0  0  0  0  0  0  0  0  0
  -24.3189  -12.5936   19.4050 C   0  0  0  0  0  0  0  0  0  0  0  0
  -27.9813  -27.9329   21.1617 C   0  0  0  0  0  0  0  0  0  0  0  0
  -23.4163  -10.5608   20.1633 C   0  0  0  0  0  0  0  0  0  0  0  0
  -23.5053   -8.4189   21.9485 C   0  0  0  0  0  0  0  0  0  0  0  0
  -22.3294  -10.3037   20.9989 C   0  0  0  0  0  0  0  0  0  0  0  0
  -27.2581  -15.6102   19.8038 C   0  0  0  0  0  0  0  0  0  0  0  0
  -26.2151  -26.2182   17.4377 C   0  0  0  0  0  0  0  0  0  0  0  0
  -28.4469  -26.3574   17.3176 C   0  0  0  0  0  0  0  0  0  0  0  0
  -29.1473  -16.7049   20.0642 C   0  0  0  0  0  0  0  0  0  0  0  0
  -29.3985  -14.2183   20.1145 C   0  0  0  0  0  0  0  0  0  0  0  0
  -23.0124  -28.1971   23.3307 C   0  0  0  0  0  0  0  0  0  0  0  0
  -24.3307  -29.6443   25.9172 C   0  0  0  0  0  0  0  0  0  0  0  0
  -27.1316  -30.8550   27.4457 C   0  0  0  0  0  0  0  0  0  0  0  0
  -27.2386  -21.8155   17.8089 C   0  0  0  0  0  0  0  0  0  0  0  0
  -17.9857  -27.3359   23.5493 C   0  0  0  0  0  0  0  0  0  0  0  0
  -24.9070  -26.6255   23.8755 C   0  0  0  0  0  0  0  0  0  0  0  0
  -25.7897  -29.4479   23.8682 C   0  0  0  0  0  0  0  0  0  0  0  0
  -18.9333  -28.4100   24.0771 C   0  0  0  0  0  0  0  0  0  0  0  0
  -27.9225  -21.1648   21.2997 C   0  0  0  0  0  0  0  0  0  0  0  0
  -19.8571  -28.8995   22.9663 C   0  0  0  0  0  0  0  0  0  0  0  0
  -27.9612  -19.6355   21.3228 C   0  0  0  0  0  0  0  0  0  0  0  0
  -26.8506  -21.6752   20.3416 C   0  0  0  0  0  0  0  0  0  0  0  0
  -27.0149  -19.6357   18.9676 C   0  0  0  0  0  0  0  0  0  0  0  0
  -20.7331  -27.7587   22.4345 C   0  0  1  0  0  0  0  0  0  0  0  0
  -24.0029  -27.7510   24.3688 C   0  0  1  0  0  0  0  0  0  0  0  0
  -28.0928  -19.0561   19.9016 C   0  0  2  0  0  0  0  0  0  0  0  0
  -29.8324  -25.8905   17.0979 C   0  0  0  0  0  0  0  0  0  0  0  0
  -29.1391  -31.7574   18.7025 C   0  0  0  0  0  0  0  0  0  0  0  0
  -23.9699  -26.2248   16.2920 C   0  0  0  0  0  0  0  0  0  0  0  0
  -24.1419  -25.5856   18.7245 C   0  0  0  0  0  0  0  0  0  0  0  0
  -27.8884  -32.0152   29.5382 C   0  0  0  0  0  0  0  0  0  0  0  0
  -23.2048  -32.2765   24.8620 C   0  0  0  0  0  0  0  0  0  0  0  0
  -24.7536  -33.4818   26.4166 C   0  0  0  0  0  0  0  0  0  0  0  0
  -22.9955  -31.9691   27.3351 C   0  0  0  0  0  0  0  0  0  0  0  0
  -28.8912  -28.5979   28.1994 C   0  0  0  0  0  0  0  0  0  0  0  0
  -28.8047  -28.8352   17.9438 C   0  0  0  0  0  0  0  0  0  0  0  0
  -29.4944  -30.5963   19.6218 C   0  0  0  0  0  0  0  0  0  0  0  0
  -27.4366  -24.0750   16.7885 C   0  0  0  0  0  0  0  0  0  0  0  0
  -24.8807  -25.5881   17.3666 C   0  0  0  0  0  0  0  0  0  0  0  0
  -25.0058  -30.9703   26.1720 C   0  0  1  0  0  0  0  0  0  0  0  0
  -27.6681  -30.6749   28.8543 C   0  0  2  0  0  0  0  0  0  0  0  0
  -28.6139  -29.3655   19.3719 C   0  0  2  0  0  0  0  0  0  1  0  0
  -24.0001  -32.1560   26.1773 C   0  0  0  0  0  0  0  0  0  0  0  0
  -26.9091  -16.8982   19.7469 N   0  0  0  0  0  0  0  0  0  0  0  0
  -27.3677  -25.5250   17.1745 N   0  0  0  0  0  0  0  0  0  0  0  0
  -28.0793  -17.5388   19.9086 N   0  0  0  0  0  0  0  0  0  0  0  0
  -24.7531  -28.9389   24.7814 N   0  0  0  0  0  0  0  0  0  0  0  0
  -27.0459  -21.1012   19.0030 N   0  0  0  0  0  0  0  0  0  0  0  0
  -30.3978  -17.1827   20.2379 N   0  0  0  0  0  0  0  0  0  0  0  0
  -28.7204  -12.9950   20.0260 N   0  0  0  0  0  0  0  0  0  0  0  0
  -21.8242  -27.4918   23.3470 N   0  0  0  0  0  0  0  0  0  0  0  0
  -25.7536  -30.8155   27.4150 N   0  0  0  0  0  0  0  0  0  0  0  0
  -27.2446  -23.2000   17.9330 N   0  0  0  0  0  0  0  0  0  0  0  0
  -28.9662  -29.9435   28.8246 N   0  3  0  0  0  0  0  0  0  0  0  0
  -30.6382  -14.2206   20.3065 O   0  0  0  0  0  0  0  0  0  0  0  0
  -23.3040  -29.1143   22.5721 O   0  0  0  0  0  0  0  0  0  0  0  0
  -23.4658  -29.2456   26.7011 O   0  0  0  0  0  0  0  0  0  0  0  0
  -27.8617  -31.0184   26.4706 O   0  0  0  0  0  0  0  0  0  0  0  0
  -27.3968  -21.2618   16.7158 O   0  0  0  0  0  0  0  0  0  0  0  0
  -23.3733  -11.6231   19.2761 O   0  0  0  0  0  0  0  0  0  0  0  0
  -28.9571  -28.3433   20.3066 O   0  0  0  0  0  0  0  0  0  1  0  0
  -23.5475   -7.3895   22.8045 F   0  0  0  0  0  0  0  0  0  0  0  0
  -21.2392  -11.0814   20.9478 F   0  0  0  0  0  0  0  0  0  0  0  0
  1  2  1  0  0  0  0
  1  5  2  0  0  0  0
  2  6  2  0  0  0  0
  3  8  2  0  0  0  0
  3 16  1  0  0  0  0
  4  9  1  0  0  0  0
  4 16  2  0  0  0  0
  5 18  1  0  0  0  0
  6 20  1  0  0  0  0
  7 10  2  0  0  0  0
  7 19  1  0  0  0  0
  8 23  1  0  0  0  0
  9 23  2  0  0  0  0
 10 24  1  0  0  0  0
 11 12  2  0  0  0  0
 11 25  1  0  0  0  0
 12 26  1  0  0  0  0
 13 21  1  0  0  0  0
 13 24  2  0  0  0  0
 14 22  1  0  0  0  0
 14 29  2  0  0  0  0
 15 26  2  0  0  0  0
 15 27  1  0  0  0  0
 16 28  1  0  0  0  0
 17 28  1  0  0  0  0
 17 31  2  0  0  0  0
 17 32  1  0  0  0  0
 18 20  2  0  0  0  0
 18 37  1  0  0  0  0
 19 21  2  0  0  0  0
 19 38  1  0  0  0  0
 20 46  1  0  0  0  0
 21 39  1  0  0  0  0
 22 30  2  0  0  0  0
 22 58  1  0  0  0  0
 23 82  1  0  0  0  0
 24 83  1  0  0  0  0
 25 27  2  0  0  0  0
 25 82  1  0  0  0  0
 26 84  1  0  0  0  0
 27 85  1  0  0  0  0
 28 66  2  0  0  0  0
 29 61  1  0  0  0  0
 29 67  1  0  0  0  0
 30 49  1  0  0  0  0
 30 67  1  0  0  0  0
 31 68  1  0  0  0  0
 31 71  1  0  0  0  0
 32 72  1  0  0  0  0
 32 77  2  0  0  0  0
 33 47  1  0  0  0  0
 33 73  1  0  0  0  0
 33 78  2  0  0  0  0
 34 62  1  0  0  0  0
 34 69  1  0  0  0  0
 34 79  2  0  0  0  0
 35 63  1  0  0  0  0
 35 74  1  0  0  0  0
 35 80  2  0  0  0  0
 36 70  1  0  0  0  0
 36 75  1  0  0  0  0
 36 81  2  0  0  0  0
 37 40  1  0  0  0  0
 38 47  1  0  0  0  0
 39 69  1  0  0  0  0
 40 42  1  0  0  0  0
 41 43  1  0  0  0  0
 41 44  1  0  0  0  0
 42 46  1  0  0  0  0
 43 48  1  0  0  0  0
 44 70  1  0  0  0  0
 45 48  1  0  0  0  0
 45 70  1  0  0  0  0
 46 73  1  0  0  0  0
 47 69  1  0  0  0  0
 48 68  1  0  0  0  0
 50 59  1  0  0  0  0
 51 61  1  0  0  0  0
 52 61  1  0  0  0  0
 53 63  1  0  0  0  0
 54 65  1  0  0  0  0
 55 65  1  0  0  0  0
 56 65  1  0  0  0  0
 57 76  1  0  0  0  0
 58 64  1  0  0  0  0
 59 64  1  0  0  0  0
 60 67  1  0  0  0  0
 60 75  1  0  0  0  0
 62 65  1  0  0  0  0
 62 74  1  0  0  0  0
 63 76  1  0  0  0  0
 64 83  1  0  0  0  0
 66 68  1  0  0  0  0
M  CHG  1  76   1
M  ISO  4  36 100  64 101  75 100  83 101
M  END
> <Batch ID>
0110

> <Smiles>
CC[101CH:1](Cc1cc(C(C)C)n(C[100NH:0][100C:0](=O)N2CCCC(n3nc(-c4ccc(Oc5ccc(F)cc5F)cc4)c(C(N)=O)c3N)C2)c1C)[101O:1]c1ccc2c(c1)CN(C(=O)C(NC(=O)C(C)NC)C(C)(C)C)C(C(=O)NC1CCCc3ccccc31)C2

> <Shape>
0.245

> <Color>
0.063

> <Negative vol penalty>
0.000

$$$$

  -OEChem-04052319583D

 83 91  0     1  0  0  0  0  0999 V2000
  -37.1325  -29.3718   23.7880 C   0  0  0  0  0  0  0  0  0  0  0  0
  -36.4174  -28.3726   24.4405 C   0  0  0  0  0  0  0  0  0  0  0  0
  -23.2303   -9.8178   20.0219 C   0  0  0  0  0  0  0  0  0  0  0  0
  -23.9328  -10.0148   22.3251 C   0  0  0  0  0  0  0  0  0  0  0  0
  -36.6194  -29.9504   22.6279 C   0  0  0  0  0  0  0  0  0  0  0  0
  -35.1882  -27.9522   23.9338 C   0  0  0  0  0  0  0  0  0  0  0  0
  -34.7199  -22.9099   23.9070 C   0  0  0  0  0  0  0  0  0  0  0  0
  -22.5660   -8.6297   20.3261 C   0  0  0  0  0  0  0  0  0  0  0  0
  -23.2684   -8.8267   22.6293 C   0  0  0  0  0  0  0  0  0  0  0  0
  -34.4229  -22.2915   25.1208 C   0  0  0  0  0  0  0  0  0  0  0  0
  -23.8118   -5.5082   22.2784 C   0  0  0  0  0  0  0  0  0  0  0  0
  -24.4824   -4.5747   23.0686 C   0  0  0  0  0  0  0  0  0  0  0  0
  -32.1051  -22.1402   24.4695 C   0  0  0  0  0  0  0  0  0  0  0  0
  -22.7327   -4.7222   24.7280 C   0  0  0  0  0  0  0  0  0  0  0  0
  -23.9138  -10.5103   21.0214 C   0  0  0  0  0  0  0  0  0  0  0  0
  -24.0751  -13.0424   20.7565 C   0  0  0  0  0  0  0  0  0  0  0  0
  -35.3879  -29.5301   22.1013 C   0  0  0  0  0  0  0  0  0  0  0  0
  -33.7082  -23.1583   22.9684 C   0  0  0  0  0  0  0  0  0  0  0  0
  -34.6576  -28.5266   22.7662 C   0  0  0  0  0  0  0  0  0  0  0  0
  -32.3924  -22.7595   23.2435 C   0  0  0  0  0  0  0  0  0  0  0  0
  -22.5850   -8.1341   21.6298 C   0  0  0  0  0  0  0  0  0  0  0  0
  -33.1148  -21.9092   25.4034 C   0  0  0  0  0  0  0  0  0  0  0  0
  -22.6016   -6.0488   22.7131 C   0  0  0  0  0  0  0  0  0  0  0  0
  -23.9429   -4.1817   24.2933 C   0  0  0  0  0  0  0  0  0  0  0  0
  -22.0620   -5.6558   23.9378 C   0  0  0  0  0  0  0  0  0  0  0  0
  -24.6008  -11.7374   20.7076 C   0  0  0  0  0  0  0  0  0  0  0  0
  -25.1186  -13.8477   20.3703 C   0  0  0  0  0  0  0  0  0  0  0  0
  -22.7610  -13.4871   21.1188 C   0  0  0  0  0  0  0  0  0  0  0  0
  -32.4718  -25.7683   21.6407 C   0  0  0  0  0  0  0  0  0  0  0  0
  -30.8320  -23.6114   19.8571 C   0  0  0  0  0  0  0  0  0  0  0  0
  -29.5800  -20.4504   19.5616 C   0  0  0  0  0  0  0  0  0  0  0  0
  -30.8736  -14.2460   20.8558 C   0  0  0  0  0  0  0  0  0  0  0  0
  -34.8516  -30.2182   20.8710 C   0  0  0  0  0  0  0  0  0  0  0  0
  -34.0497  -23.8020   21.6526 C   0  0  0  0  0  0  0  0  0  0  0  0
  -31.2734  -22.9852   22.2609 C   0  0  0  0  0  0  0  0  0  0  0  0
  -33.7187  -29.4540   20.1907 C   0  0  0  0  0  0  0  0  0  0  0  0
  -29.3138  -13.1454   17.8504 C   0  0  0  0  0  0  0  0  0  0  0  0
  -32.6960  -28.9864   21.2214 C   0  0  0  0  0  0  0  0  0  0  0  0
  -27.8906  -12.7914   18.2854 C   0  0  0  0  0  0  0  0  0  0  0  0
  -30.3779  -16.6795   23.5977 C   0  0  0  0  0  0  0  0  0  0  0  0
  -32.1665  -14.8967   23.7956 C   0  0  0  0  0  0  0  0  0  0  0  0
  -31.2178  -17.6172   24.4661 C   0  0  0  0  0  0  0  0  0  0  0  0
  -33.0057  -15.8360   24.6629 C   0  0  0  0  0  0  0  0  0  0  0  0
  -30.3377  -12.7886   18.9257 C   0  0  0  0  0  0  0  0  0  0  0  0
  -28.6342  -12.9988   20.6943 C   0  0  0  0  0  0  0  0  0  0  0  0
  -33.3323  -28.0263   22.2337 C   0  0  1  0  0  0  0  0  0  0  0  0
  -32.8514  -24.4704   20.9856 C   0  0  1  0  0  0  0  0  0  0  0  0
  -27.5604  -13.3915   19.6653 C   0  0  2  0  0  0  0  0  0  0  0  0
  -31.2570  -15.6785   22.8426 C   0  0  0  0  0  0  0  0  0  0  0  0
  -32.1160  -16.8246   25.4124 C   0  0  0  0  0  0  0  0  0  0  0  0
  -28.2530  -18.9945   18.0069 C   0  0  0  0  0  0  0  0  0  0  0  0
  -28.2744  -25.0452   20.7012 C   0  0  0  0  0  0  0  0  0  0  0  0
  -26.9816  -23.0434   19.9336 C   0  0  0  0  0  0  0  0  0  0  0  0
  -28.3375  -24.3521   18.2992 C   0  0  0  0  0  0  0  0  0  0  0  0
  -34.3973  -18.5937   28.6970 C   0  0  0  0  0  0  0  0  0  0  0  0
  -32.4254  -20.0414   29.2051 C   0  0  0  0  0  0  0  0  0  0  0  0
  -31.8153  -18.5340   19.2618 C   0  0  0  0  0  0  0  0  0  0  0  0
  -32.2917  -18.4777   27.2749 C   0  0  0  0  0  0  0  0  0  0  0  0
  -33.8494  -20.5172   27.1862 C   0  0  0  0  0  0  0  0  0  1  0  0
  -29.5122  -22.8919   19.9962 C   0  0  1  0  0  0  0  0  0  0  0  0
  -29.6439  -19.4436   18.4273 C   0  0  2  0  0  0  0  0  0  0  0  0
  -28.2969  -23.8305   19.7521 C   0  0  0  0  0  0  0  0  0  0  0  0
  -33.2467  -19.4000   28.0666 C   0  0  0  0  0  0  0  0  0  0  0  0
  -25.8789  -11.7106   20.3206 N   0  0  0  0  0  0  0  0  0  0  0  0
  -26.1650  -13.0087   20.1228 N   0  0  0  0  0  0  0  0  0  0  0  0
  -31.6566  -23.6239   20.9910 N   0  0  0  0  0  0  0  0  0  0  0  0
  -29.9671  -13.3897   20.2092 N   0  0  0  0  0  0  0  0  0  0  0  0
  -25.2339  -15.1844   20.2215 N   0  0  0  0  0  0  0  0  0  0  0  0
  -21.8097  -12.5272   21.4902 N   0  0  0  0  0  0  0  0  0  0  0  0
  -33.4841  -26.7088   21.6544 N   0  0  0  0  0  0  0  0  0  0  0  0
  -29.5741  -21.7474   19.0936 N   0  0  0  0  0  0  0  0  0  0  0  0
  -30.4410  -14.7780   22.0643 N   0  0  0  0  0  0  0  0  0  0  0  0
  -32.9787  -17.7738   26.1647 N   0  3  0  0  0  0  0  0  0  0  0  0
  -30.4197  -18.2416   18.8446 N   0  3  0  0  0  0  0  0  0  0  0  0
  -22.4352  -14.6982   21.0974 O   0  0  0  0  0  0  0  0  0  0  0  0
  -31.3435  -25.9067   22.0984 O   0  0  0  0  0  0  0  0  0  0  0  0
  -31.1238  -24.1366   18.7797 O   0  0  0  0  0  0  0  0  0  0  0  0
  -29.5357  -20.1193   20.7444 O   0  0  0  0  0  0  0  0  0  0  0  0
  -31.9838  -14.5206   20.3879 O   0  0  0  0  0  0  0  0  0  0  0  0
  -21.9366   -6.9749   21.9271 O   0  0  0  0  0  0  0  0  0  0  0  0
  -32.8220  -21.3061   26.5876 O   0  0  0  0  0  0  0  0  0  1  0  0
  -24.5863   -3.2840   25.0513 F   0  0  0  0  0  0  0  0  0  0  0  0
  -20.8992   -6.1708   24.3601 F   0  0  0  0  0  0  0  0  0  0  0  0
  1  2  1  0  0  0  0
  1  5  2  0  0  0  0
  2  6  2  0  0  0  0
  3  8  2  0  0  0  0
  3 15  1  0  0  0  0
  4  9  1  0  0  0  0
  4 15  2  0  0  0  0
  5 17  1  0  0  0  0
  6 19  1  0  0  0  0
  7 10  2  0  0  0  0
  7 18  1  0  0  0  0
  8 21  1  0  0  0  0
  9 21  2  0  0  0  0
 10 22  1  0  0  0  0
 11 12  2  0  0  0  0
 11 23  1  0  0  0  0
 12 24  1  0  0  0  0
 13 20  1  0  0  0  0
 13 22  2  0  0  0  0
 14 24  2  0  0  0  0
 14 25  1  0  0  0  0
 15 26  1  0  0  0  0
 16 26  1  0  0  0  0
 16 27  2  0  0  0  0
 16 28  1  0  0  0  0
 17 19  2  0  0  0  0
 17 33  1  0  0  0  0
 18 20  2  0  0  0  0
 18 34  1  0  0  0  0
 19 46  1  0  0  0  0
 20 35  1  0  0  0  0
 21 80  1  0  0  0  0
 22 81  1  0  0  0  0
 23 25  2  0  0  0  0
 23 80  1  0  0  0  0
 24 82  1  0  0  0  0
 25 83  1  0  0  0  0
 26 64  2  0  0  0  0
 27 65  1  0  0  0  0
 27 68  1  0  0  0  0
 28 69  1  0  0  0  0
 28 75  2  0  0  0  0
 29 47  1  0  0  0  0
 29 70  1  0  0  0  0
 29 76  2  0  0  0  0
 30 60  1  0  0  0  0
 30 66  1  0  0  0  0
 30 77  2  0  0  0  0
 31 61  1  0  0  0  0
 31 71  1  0  0  0  0
 31 78  2  0  0  0  0
 32 67  1  0  0  0  0
 32 72  1  0  0  0  0
 32 79  2  0  0  0  0
 33 36  1  0  0  0  0
 34 47  1  0  0  0  0
 35 66  1  0  0  0  0
 36 38  1  0  0  0  0
 37 39  1  0  0  0  0
 37 44  1  0  0  0  0
 38 46  1  0  0  0  0
 39 48  1  0  0  0  0
 40 42  1  0  0  0  0
 40 49  1  0  0  0  0
 41 43  1  0  0  0  0
 41 49  1  0  0  0  0
 42 50  1  0  0  0  0
 43 50  1  0  0  0  0
 44 67  1  0  0  0  0
 45 48  1  0  0  0  0
 45 67  1  0  0  0  0
 46 70  1  0  0  0  0
 47 66  1  0  0  0  0
 48 65  1  0  0  0  0
 49 72  1  0  0  0  0
 50 73  1  0  0  0  0
 51 61  1  0  0  0  0
 52 62  1  0  0  0  0
 53 62  1  0  0  0  0
 54 62  1  0  0  0  0
 55 63  1  0  0  0  0
 56 63  1  0  0  0  0
 57 74  1  0  0  0  0
 58 63  1  0  0  0  0
 58 73  1  0  0  0  0
 59 63  1  0  0  0  0
 59 81  1  0  0  0  0
 60 62  1  0  0  0  0
 60 71  1  0  0  0  0
 61 74  1  0  0  0  0
 64 65  1  0  0  0  0
M  CHG  2  73   1  74   1
M  ISO  4  32 100  59 101  72 100  81 101
M  END
> <Batch ID>
0110

> <Smiles>
CNC(C)C(=O)NC(C(=O)N1Cc2cc([101O:1][101CH2:1]C(C)(C)CNC3CCC([100NH:0][100C:0](=O)N4CCCC(n5nc(-c6ccc(Oc7ccc(F)cc7F)cc6)c(C(N)=O)c5N)C4)CC3)ccc2CC1C(=O)NC1CCCc2ccccc21)C(C)(C)C

> <Shape>
0.222

> <Color>
0.194

> <Negative vol penalty>
0.000

$$$$

  -OEChem-04052319583D

 81 89  0     1  0  0  0  0  0999 V2000
  -25.4612  -34.0624   14.7884 C   0  0  0  0  0  0  0  0  0  0  0  0
  -26.1097  -32.9911   15.3945 C   0  0  0  0  0  0  0  0  0  0  0  0
  -26.5633  -13.5543   21.2993 C   0  0  0  0  0  0  0  0  0  0  0  0
  -26.6036  -14.5059   19.0790 C   0  0  0  0  0  0  0  0  0  0  0  0
  -25.0100  -35.1308   15.5622 C   0  0  0  0  0  0  0  0  0  0  0  0
  -26.3082  -32.9881   16.7747 C   0  0  0  0  0  0  0  0  0  0  0  0
  -25.2094  -28.5182   18.8859 C   0  0  0  0  0  0  0  0  0  0  0  0
  -25.2111  -13.2491   21.1439 C   0  0  0  0  0  0  0  0  0  0  0  0
  -25.2515  -14.2006   18.9236 C   0  0  0  0  0  0  0  0  0  0  0  0
  -26.1554  -27.5025   18.7549 C   0  0  0  0  0  0  0  0  0  0  0  0
  -21.8382  -11.8940   21.1942 C   0  0  0  0  0  0  0  0  0  0  0  0
  -21.4086  -10.6292   21.5956 C   0  0  0  0  0  0  0  0  0  0  0  0
  -26.9369  -27.9499   20.9928 C   0  0  0  0  0  0  0  0  0  0  0  0
  -30.3654  -24.8212   18.4161 C   0  0  0  0  0  0  0  0  0  0  0  0
  -22.9223   -9.6120   20.0109 C   0  0  0  0  0  0  0  0  0  0  0  0
  -29.5601  -22.2329   18.7287 C   0  0  0  0  0  0  0  0  0  0  0  0
  -27.2595  -14.1827   20.2668 C   0  0  0  0  0  0  0  0  0  0  0  0
  -29.7555  -13.6835   20.0973 C   0  0  0  0  0  0  0  0  0  0  0  0
  -25.1946  -35.1364   16.9538 C   0  0  0  0  0  0  0  0  0  0  0  0
  -25.1272  -29.2660   20.0694 C   0  0  0  0  0  0  0  0  0  0  0  0
  -25.8602  -34.0583   17.5677 C   0  0  0  0  0  0  0  0  0  0  0  0
  -25.9873  -28.9729   21.1373 C   0  0  0  0  0  0  0  0  0  0  0  0
  -31.3206  -23.8130   18.4832 C   0  0  0  0  0  0  0  0  0  0  0  0
  -30.9185  -22.4915   18.6424 C   0  0  0  0  0  0  0  0  0  0  0  0
  -24.5552  -13.5722   19.9561 C   0  0  0  0  0  0  0  0  0  0  0  0
  -27.0212  -27.2201   19.8074 C   0  0  0  0  0  0  0  0  0  0  0  0
  -22.8098  -12.0179   20.2010 C   0  0  0  0  0  0  0  0  0  0  0  0
  -21.9506   -9.4882   21.0040 C   0  0  0  0  0  0  0  0  0  0  0  0
  -23.3518  -10.8769   19.6094 C   0  0  0  0  0  0  0  0  0  0  0  0
  -28.6562  -14.4988   20.4269 C   0  0  0  0  0  0  0  0  0  0  0  0
  -29.0317  -24.4582   18.5123 C   0  0  0  0  0  0  0  0  0  0  0  0
  -30.8540  -14.4342   20.4381 C   0  0  0  0  0  0  0  0  0  0  0  0
  -29.7812  -12.3655   19.5334 C   0  0  0  0  0  0  0  0  0  0  0  0
  -25.5025  -32.3329   20.8155 C   0  0  0  0  0  0  0  0  0  0  0  0
  -24.4826  -31.3457   23.7323 C   0  0  0  0  0  0  0  0  0  0  0  0
  -24.1264  -28.7889   25.9644 C   0  0  0  0  0  0  0  0  0  0  0  0
  -31.7595  -20.3291   20.9678 C   0  0  0  0  0  0  0  0  0  0  0  0
  -24.7314  -36.3356   17.7427 C   0  0  0  0  0  0  0  0  0  0  0  0
  -24.0835  -30.3406   20.2047 C   0  0  0  0  0  0  0  0  0  0  0  0
  -25.9264  -29.7329   22.4362 C   0  0  0  0  0  0  0  0  0  0  0  0
  -24.6486  -36.0810   19.2456 C   0  0  0  0  0  0  0  0  0  0  0  0
  -32.2569  -17.8527   23.4772 C   0  0  0  0  0  0  0  0  0  0  0  0
  -25.9082  -35.3753   19.7377 C   0  0  0  0  0  0  0  0  0  0  0  0
  -31.4897  -16.6388   22.9502 C   0  0  0  0  0  0  0  0  0  0  0  0
  -31.5435  -19.1605   23.1414 C   0  0  0  0  0  0  0  0  0  0  0  0
  -30.4548  -18.1277   21.1865 C   0  0  0  0  0  0  0  0  0  0  0  0
  -26.0724  -34.0070   19.0652 C   0  0  1  0  0  0  0  0  0  0  0  0
  -24.4308  -31.3807   21.2654 C   0  0  1  0  0  0  0  0  0  0  0  0
  -31.1637  -16.7885   21.4521 C   0  0  2  0  0  0  0  0  0  0  0  0
  -32.7664  -24.1710   18.3823 C   0  0  0  0  0  0  0  0  0  0  0  0
  -32.2414  -20.7798   17.3456 C   0  0  0  0  0  0  0  0  0  0  0  0
  -23.2921  -28.2967   28.2793 C   0  0  0  0  0  0  0  0  0  0  0  0
  -26.9840  -32.6399   24.9063 C   0  0  0  0  0  0  0  0  0  0  0  0
  -26.5945  -31.3275   27.0025 C   0  0  0  0  0  0  0  0  0  0  0  0
  -24.9006  -32.9940   26.2436 C   0  0  0  0  0  0  0  0  0  0  0  0
  -22.1028  -26.8799   24.9545 C   0  0  0  0  0  0  0  0  0  0  0  0
  -27.9735  -25.5197   18.4443 C   0  0  0  0  0  0  0  0  0  1  0  0
  -31.8992  -21.3734   18.7208 C   0  0  2  0  0  0  0  0  0  0  0  0
  -25.1540  -30.8200   24.9780 C   0  0  1  0  0  0  0  0  0  0  0  0
  -22.9417  -28.3390   26.8001 C   0  0  2  0  0  0  0  0  0  0  0  0
  -25.9109  -31.9321   25.7575 C   0  0  0  0  0  0  0  0  0  0  0  0
  -28.6029  -23.1856   18.6676 N   0  0  0  0  0  0  0  0  0  0  0  0
  -29.0229  -15.6770   20.9380 N   0  0  0  0  0  0  0  0  0  0  0  0
  -30.3650  -15.6076   20.9322 N   0  0  0  0  0  0  0  0  0  0  0  0
  -24.8930  -30.7784   22.5175 N   0  0  0  0  0  0  0  0  0  0  0  0
  -31.2648  -19.2409   21.7055 N   0  0  0  0  0  0  0  0  0  0  0  0
  -32.1810  -14.1983   20.3603 N   0  0  0  0  0  0  0  0  0  0  0  0
  -28.5616  -11.7389   19.2434 N   0  0  0  0  0  0  0  0  0  0  0  0
  -25.1847  -33.0369   19.6697 N   0  0  0  0  0  0  0  0  0  0  0  0
  -24.1133  -30.1511   25.7512 N   0  0  0  0  0  0  0  0  0  0  0  0
  -31.4553  -20.3249   19.6121 N   0  0  0  0  0  0  0  0  0  0  0  0
  -22.5002  -26.9782   26.3826 N   0  3  0  0  0  0  0  0  0  0  0  0
  -30.8538  -11.7550   19.3089 O   0  0  0  0  0  0  0  0  0  0  0  0
  -26.5402  -32.4234   21.4610 O   0  0  0  0  0  0  0  0  0  0  0  0
  -23.6206  -32.2222   23.8338 O   0  0  0  0  0  0  0  0  0  0  0  0
  -24.9803  -28.0102   25.5459 O   0  0  0  0  0  0  0  0  0  0  0  0
  -32.4277  -21.2344   21.4786 O   0  0  0  0  0  0  0  0  0  0  0  0
  -23.2359  -13.2743   19.8040 O   0  0  0  0  0  0  0  0  0  0  0  0
  -27.9459  -26.2296   19.6819 O   0  0  0  0  0  0  0  0  0  1  0  0
  -21.5391   -8.2736   21.3908 F   0  0  0  0  0  0  0  0  0  0  0  0
  -24.2864  -10.9896   18.6556 F   0  0  0  0  0  0  0  0  0  0  0  0
  1  2  1  0  0  0  0
  1  5  2  0  0  0  0
  2  6  2  0  0  0  0
  3  8  2  0  0  0  0
  3 17  1  0  0  0  0
  4  9  1  0  0  0  0
  4 17  2  0  0  0  0
  5 19  1  0  0  0  0
  6 21  1  0  0  0  0
  7 10  2  0  0  0  0
  7 20  1  0  0  0  0
  8 25  1  0  0  0  0
  9 25  2  0  0  0  0
 10 26  1  0  0  0  0
 11 12  2  0  0  0  0
 11 27  1  0  0  0  0
 12 28  1  0  0  0  0
 13 22  1  0  0  0  0
 13 26  2  0  0  0  0
 14 23  2  0  0  0  0
 14 31  1  0  0  0  0
 15 28  2  0  0  0  0
 15 29  1  0  0  0  0
 16 24  2  0  0  0  0
 16 62  1  0  0  0  0
 17 30  1  0  0  0  0
 18 30  1  0  0  0  0
 18 32  2  0  0  0  0
 18 33  1  0  0  0  0
 19 21  2  0  0  0  0
 19 38  1  0  0  0  0
 20 22  2  0  0  0  0
 20 39  1  0  0  0  0
 21 47  1  0  0  0  0
 22 40  1  0  0  0  0
 23 24  1  0  0  0  0
 23 50  1  0  0  0  0
 24 58  1  0  0  0  0
 25 78  1  0  0  0  0
 26 79  1  0  0  0  0
 27 29  2  0  0  0  0
 27 78  1  0  0  0  0
 28 80  1  0  0  0  0
 29 81  1  0  0  0  0
 30 63  2  0  0  0  0
 31 57  1  0  0  0  0
 31 62  2  0  0  0  0
 32 64  1  0  0  0  0
 32 67  1  0  0  0  0
 33 68  1  0  0  0  0
 33 73  2  0  0  0  0
 34 48  1  0  0  0  0
 34 69  1  0  0  0  0
 34 74  2  0  0  0  0
 35 59  1  0  0  0  0
 35 65  1  0  0  0  0
 35 75  2  0  0  0  0
 36 60  1  0  0  0  0
 36 70  1  0  0  0  0
 36 76  2  0  0  0  0
 37 66  1  0  0  0  0
 37 71  1  0  0  0  0
 37 77  2  0  0  0  0
 38 41  1  0  0  0  0
 39 48  1  0  0  0  0
 40 65  1  0  0  0  0
 41 43  1  0  0  0  0
 42 44  1  0  0  0  0
 42 45  1  0  0  0  0
 43 47  1  0  0  0  0
 44 49  1  0  0  0  0
 45 66  1  0  0  0  0
 46 49  1  0  0  0  0
 46 66  1  0  0  0  0
 47 69  1  0  0  0  0
 48 65  1  0  0  0  0
 49 64  1  0  0  0  0
 51 58  1  0  0  0  0
 52 60  1  0  0  0  0
 53 61  1  0  0  0  0
 54 61  1  0  0  0  0
 55 61  1  0  0  0  0
 56 72  1  0  0  0  0
 57 79  1  0  0  0  0
 58 71  1  0  0  0  0
 59 61  1  0  0  0  0
 59 70  1  0  0  0  0
 60 72  1  0  0  0  0
 63 64  1  0  0  0  0
M  CHG  1  72   1
M  ISO  4  37 100  57 101  71 100  79 101
M  END
> <Batch ID>
0110

> <Smiles>
CNC(C)C(=O)NC(C(=O)N1Cc2cc([101O:1][101CH2:1]c3cc(C)c(C(C)[100NH:0][100C:0](=O)N4CCCC(n5nc(-c6ccc(Oc7ccc(F)cc7F)cc6)c(C(N)=O)c5N)C4)cn3)ccc2CC1C(=O)NC1CCCc2ccccc21)C(C)(C)C

> <Shape>
0.276

> <Color>
0.105

> <Negative vol penalty>
0.000

$$$$

  -OEChem-04052319583D

 81 89  0     1  0  0  0  0  0999 V2000
  -22.5240  -23.5531   18.6335 C   0  0  0  0  0  0  0  0  0  0  0  0
  -23.8059  -23.0172   18.5622 C   0  0  0  0  0  0  0  0  0  0  0  0
  -26.1666  -27.8351   19.0355 C   0  0  0  0  0  0  0  0  0  0  0  0
  -26.1146  -27.4440   21.4191 C   0  0  0  0  0  0  0  0  0  0  0  0
  -21.5867  -23.0018   19.5060 C   0  0  0  0  0  0  0  0  0  0  0  0
  -24.1515  -21.9302   19.3642 C   0  0  0  0  0  0  0  0  0  0  0  0
  -27.9400  -17.3421   17.9141 C   0  0  0  0  0  0  0  0  0  0  0  0
  -25.0741  -28.6943   19.1526 C   0  0  0  0  0  0  0  0  0  0  0  0
  -25.0220  -28.3032   21.5362 C   0  0  0  0  0  0  0  0  0  0  0  0
  -29.2819  -17.1050   18.2089 C   0  0  0  0  0  0  0  0  0  0  0  0
  -21.6876  -28.1821   20.9903 C   0  0  0  0  0  0  0  0  0  0  0  0
  -20.6178  -27.7659   21.7827 C   0  0  0  0  0  0  0  0  0  0  0  0
  -28.6221  -15.7281   20.0765 C   0  0  0  0  0  0  0  0  0  0  0  0
  -20.9215  -29.6945   23.2058 C   0  0  0  0  0  0  0  0  0  0  0  0
  -32.1284  -18.3107   22.2283 C   0  0  0  0  0  0  0  0  0  0  0  0
  -32.4696  -16.6958   23.6886 C   0  0  0  0  0  0  0  0  0  0  0  0
  -26.6868  -27.2099   20.1687 C   0  0  0  0  0  0  0  0  0  0  0  0
  -29.0970  -26.6374   19.5596 C   0  0  0  0  0  0  0  0  0  0  0  0
  -21.9181  -21.9013   20.3121 C   0  0  0  0  0  0  0  0  0  0  0  0
  -26.9275  -16.7819   18.7062 C   0  0  0  0  0  0  0  0  0  0  0  0
  -23.2181  -21.3644   20.2494 C   0  0  0  0  0  0  0  0  0  0  0  0
  -27.2681  -15.9576   19.7881 C   0  0  0  0  0  0  0  0  0  0  0  0
  -24.5018  -28.9284   20.4029 C   0  0  0  0  0  0  0  0  0  0  0  0
  -29.6231  -16.3002   19.2919 C   0  0  0  0  0  0  0  0  0  0  0  0
  -22.3744  -29.3546   21.3057 C   0  0  0  0  0  0  0  0  0  0  0  0
  -20.2347  -28.5221   22.8904 C   0  0  0  0  0  0  0  0  0  0  0  0
  -21.9913  -30.1108   22.4134 C   0  0  0  0  0  0  0  0  0  0  0  0
  -27.8151  -26.3218   20.0483 C   0  0  0  0  0  0  0  0  0  0  0  0
  -32.6932  -17.2067   21.6344 C   0  0  0  0  0  0  0  0  0  0  0  0
  -29.7987  -25.4602   19.6509 C   0  0  0  0  0  0  0  0  0  0  0  0
  -29.6079  -27.8833   19.0673 C   0  0  0  0  0  0  0  0  0  0  0  0
  -24.6030  -17.9505   20.5324 C   0  0  0  0  0  0  0  0  0  0  0  0
  -23.7450  -14.8305   20.7608 C   0  0  0  0  0  0  0  0  0  0  0  0
  -24.6709  -11.5506   20.5828 C   0  0  0  0  0  0  0  0  0  0  0  0
  -29.1768  -20.7746   23.1884 C   0  0  0  0  0  0  0  0  0  0  0  0
  -20.8857  -21.3693   21.2744 C   0  0  0  0  0  0  0  0  0  0  0  0
  -25.4844  -17.0257   18.3590 C   0  0  0  0  0  0  0  0  0  0  0  0
  -26.2187  -15.3160   20.6574 C   0  0  0  0  0  0  0  0  0  0  0  0
  -21.2171  -19.9817   21.8175 C   0  0  0  0  0  0  0  0  0  0  0  0
  -29.1784  -20.7150   19.5699 C   0  0  0  0  0  0  0  0  0  0  0  0
  -22.6745  -19.9171   22.2632 C   0  0  0  0  0  0  0  0  0  0  0  0
  -28.9488  -22.1913   19.2413 C   0  0  0  0  0  0  0  0  0  0  0  0
  -28.3770  -20.2907   20.7970 C   0  0  0  0  0  0  0  0  0  0  0  0
  -28.4026  -22.5885   21.6875 C   0  0  0  0  0  0  0  0  0  0  0  0
  -23.6234  -20.1698   21.0853 C   0  0  1  0  0  0  0  0  0  0  0  0
  -24.5427  -16.8223   19.5418 C   0  0  1  0  0  0  0  0  0  0  0  0
  -29.2030  -23.0849   20.4697 C   0  0  2  0  0  0  0  0  0  0  0  0
  -23.7590   -9.2287   20.8557 C   0  0  0  0  0  0  0  0  0  0  0  0
  -23.8072  -15.1650   23.7930 C   0  0  0  0  0  0  0  0  0  0  0  0
  -23.8355  -12.6700   23.9979 C   0  0  0  0  0  0  0  0  0  0  0  0
  -21.8895  -13.8101   22.9321 C   0  0  0  0  0  0  0  0  0  0  0  0
  -25.2825  -10.8552   17.7719 C   0  0  0  0  0  0  0  0  0  0  0  0
  -31.4470  -18.7988   24.5906 C   0  0  0  0  0  0  0  0  0  0  0  0
  -29.9217  -18.8562   24.5747 C   0  0  0  0  0  0  0  0  0  0  0  0
  -31.8645  -17.0939   19.2448 C   0  0  0  0  0  0  0  0  0  1  0  0
  -33.0704  -17.0154   20.1837 C   0  0  2  0  0  0  0  0  0  0  0  0
  -24.0891  -13.6925   21.6911 C   0  0  1  0  0  0  0  0  0  0  0  0
  -24.0388  -10.3622   19.8811 C   0  0  2  0  0  0  0  0  0  0  0  0
  -23.4254  -13.8479   23.0885 C   0  0  0  0  0  0  0  0  0  0  0  0
  -32.9028  -16.2048   22.5487 N   0  0  0  0  0  0  0  0  0  0  0  0
  -27.7059  -25.0442   20.4221 N   0  0  0  0  0  0  0  0  0  0  0  0
  -31.9908  -17.9683   23.5440 N   0  0  0  0  0  0  0  0  0  0  0  0
  -28.9282  -24.5465   20.1682 N   0  0  0  0  0  0  0  0  0  0  0  0
  -24.8218  -15.5895   20.2811 N   0  0  0  0  0  0  0  0  0  0  0  0
  -28.6789  -21.1696   21.9356 N   0  0  0  0  0  0  0  0  0  0  0  0
  -31.0691  -25.1278   19.3382 N   0  0  0  0  0  0  0  0  0  0  0  0
  -30.2056  -28.7664   19.9767 N   0  0  0  0  0  0  0  0  0  0  0  0
  -23.7300  -18.9862   20.2593 N   0  0  0  0  0  0  0  0  0  0  0  0
  -23.7240  -12.4668   20.9892 N   0  0  0  0  0  0  0  0  0  0  0  0
  -29.4050  -19.4129   23.3442 N   0  0  0  0  0  0  0  0  0  0  0  0
  -33.7638  -15.7087   19.9454 N   0  3  0  0  0  0  0  0  0  0  0  0
  -24.9427   -9.8507   18.8123 N   0  3  0  0  0  0  0  0  0  0  0  0
  -29.5217  -28.2110   17.8595 O   0  0  0  0  0  0  0  0  0  0  0  0
  -25.3827  -17.8853   21.4755 O   0  0  0  0  0  0  0  0  0  0  0  0
  -22.5649  -15.0340   20.4649 O   0  0  0  0  0  0  0  0  0  0  0  0
  -25.8832  -11.6540   20.7566 O   0  0  0  0  0  0  0  0  0  0  0  0
  -29.4063  -21.5772   24.0996 O   0  0  0  0  0  0  0  0  0  0  0  0
  -23.4358  -29.7669   20.5176 O   0  0  0  0  0  0  0  0  0  0  0  0
  -30.9322  -16.0676   19.5822 O   0  0  0  0  0  0  0  0  0  1  0  0
  -19.2064  -28.1230   23.6503 F   0  0  0  0  0  0  0  0  0  0  0  0
  -22.6465  -31.2386   22.7207 F   0  0  0  0  0  0  0  0  0  0  0  0
  1  2  1  0  0  0  0
  1  5  2  0  0  0  0
  2  6  2  0  0  0  0
  3  8  2  0  0  0  0
  3 17  1  0  0  0  0
  4  9  1  0  0  0  0
  4 17  2  0  0  0  0
  5 19  1  0  0  0  0
  6 21  1  0  0  0  0
  7 10  2  0  0  0  0
  7 20  1  0  0  0  0
  8 23  1  0  0  0  0
  9 23  2  0  0  0  0
 10 24  1  0  0  0  0
 11 12  2  0  0  0  0
 11 25  1  0  0  0  0
 12 26  1  0  0  0  0
 13 22  1  0  0  0  0
 13 24  2  0  0  0  0
 14 26  2  0  0  0  0
 14 27  1  0  0  0  0
 15 29  2  0  0  0  0
 15 62  1  0  0  0  0
 16 60  2  0  0  0  0
 16 62  1  0  0  0  0
 17 28  1  0  0  0  0
 18 28  1  0  0  0  0
 18 30  2  0  0  0  0
 18 31  1  0  0  0  0
 19 21  2  0  0  0  0
 19 36  1  0  0  0  0
 20 22  2  0  0  0  0
 20 37  1  0  0  0  0
 21 45  1  0  0  0  0
 22 38  1  0  0  0  0
 23 78  1  0  0  0  0
 24 79  1  0  0  0  0
 25 27  2  0  0  0  0
 25 78  1  0  0  0  0
 26 80  1  0  0  0  0
 27 81  1  0  0  0  0
 28 61  2  0  0  0  0
 29 56  1  0  0  0  0
 29 60  1  0  0  0  0
 30 63  1  0  0  0  0
 30 66  1  0  0  0  0
 31 67  1  0  0  0  0
 31 73  2  0  0  0  0
 32 46  1  0  0  0  0
 32 68  1  0  0  0  0
 32 74  2  0  0  0  0
 33 57  1  0  0  0  0
 33 64  1  0  0  0  0
 33 75  2  0  0  0  0
 34 58  1  0  0  0  0
 34 69  1  0  0  0  0
 34 76  2  0  0  0  0
 35 65  1  0  0  0  0
 35 70  1  0  0  0  0
 35 77  2  0  0  0  0
 36 39  1  0  0  0  0
 37 46  1  0  0  0  0
 38 64  1  0  0  0  0
 39 41  1  0  0  0  0
 40 42  1  0  0  0  0
 40 43  1  0  0  0  0
 41 45  1  0  0  0  0
 42 47  1  0  0  0  0
 43 65  1  0  0  0  0
 44 47  1  0  0  0  0
 44 65  1  0  0  0  0
 45 68  1  0  0  0  0
 46 64  1  0  0  0  0
 47 63  1  0  0  0  0
 48 58  1  0  0  0  0
 49 59  1  0  0  0  0
 50 59  1  0  0  0  0
 51 59  1  0  0  0  0
 52 72  1  0  0  0  0
 53 54  1  0  0  0  0
 53 62  1  0  0  0  0
 54 70  1  0  0  0  0
 55 56  1  0  0  0  0
 55 79  1  0  0  0  0
 56 71  1  0  0  0  0
 57 59  1  0  0  0  0
 57 69  1  0  0  0  0
 58 72  1  0  0  0  0
 61 63  1  0  0  0  0
M  CHG  2  71   1  72   1
M  ISO  4  35 100  55 101  70 100  79 101
M  END
> <Batch ID>
0110

> <Smiles>
CNC(C)C(=O)NC(C(=O)N1Cc2cc([101O:1][101CH2:1]C(N)c3cn(CC[100NH:0][100C:0](=O)N4CCCC(n5nc(-c6ccc(Oc7ccc(F)cc7F)cc6)c(C(N)=O)c5N)C4)cn3)ccc2CC1C(=O)NC1CCCc2ccccc21)C(C)(C)C

> <Shape>
0.218

> <Color>
0.065

> <Negative vol penalty>
0.000

$$$$

  -OEChem-04052319583D

 90 98  0     1  0  0  0  0  0999 V2000
  -16.6503  -29.6372   23.2971 C   0  0  0  0  0  0  0  0  0  0  0  0
  -17.5163  -29.6075   22.2087 C   0  0  0  0  0  0  0  0  0  0  0  0
  -25.9747  -13.8556   21.2068 C   0  0  0  0  0  0  0  0  0  0  0  0
  -25.9041  -14.1385   18.8084 C   0  0  0  0  0  0  0  0  0  0  0  0
  -17.1306  -29.3600   24.5763 C   0  0  0  0  0  0  0  0  0  0  0  0
  -18.8633  -29.3016   22.3990 C   0  0  0  0  0  0  0  0  0  0  0  0
  -24.3736  -26.0892   19.1381 C   0  0  0  0  0  0  0  0  0  0  0  0
  -24.8722  -13.0039   21.1388 C   0  0  0  0  0  0  0  0  0  0  0  0
  -24.8016  -13.2867   18.7404 C   0  0  0  0  0  0  0  0  0  0  0  0
  -25.6991  -26.3272   18.7774 C   0  0  0  0  0  0  0  0  0  0  0  0
  -24.2621   -9.7792   20.3250 C   0  0  0  0  0  0  0  0  0  0  0  0
  -24.3105   -8.5961   21.0623 C   0  0  0  0  0  0  0  0  0  0  0  0
  -26.4004  -25.7878   21.0215 C   0  0  0  0  0  0  0  0  0  0  0  0
  -32.8195  -27.1378   18.8419 C   0  0  0  0  0  0  0  0  0  0  0  0
  -30.5765  -27.8479   19.3411 C   0  0  0  0  0  0  0  0  0  0  0  0
  -22.3487   -9.2833   22.2937 C   0  0  0  0  0  0  0  0  0  0  0  0
  -26.4907  -14.4229   20.0416 C   0  0  0  0  0  0  0  0  0  0  0  0
  -28.9878  -14.9441   20.0287 C   0  0  0  0  0  0  0  0  0  0  0  0
  -18.4823  -29.0411   24.7811 C   0  0  0  0  0  0  0  0  0  0  0  0
  -24.0499  -25.7086   20.4483 C   0  0  0  0  0  0  0  0  0  0  0  0
  -19.3624  -29.0211   23.6824 C   0  0  0  0  0  0  0  0  0  0  0  0
  -25.0703  -25.5430   21.3957 C   0  0  0  0  0  0  0  0  0  0  0  0
  -31.8416  -28.1262   18.8357 C   0  0  0  0  0  0  0  0  0  0  0  0
  -24.2857  -12.7194   19.9056 C   0  0  0  0  0  0  0  0  0  0  0  0
  -26.7125  -26.1793   19.7199 C   0  0  0  0  0  0  0  0  0  0  0  0
  -23.2571  -10.7144   20.5722 C   0  0  0  0  0  0  0  0  0  0  0  0
  -23.3538   -8.3481   22.0466 C   0  0  0  0  0  0  0  0  0  0  0  0
  -22.3004  -10.4664   21.5565 C   0  0  0  0  0  0  0  0  0  0  0  0
  -27.6292  -15.3033   20.1113 C   0  0  0  0  0  0  0  0  0  0  0  0
  -32.4845  -25.8973   19.3604 C   0  0  0  0  0  0  0  0  0  0  0  0
  -30.3418  -26.5755   19.8370 C   0  0  0  0  0  0  0  0  0  0  0  0
  -29.6652  -16.1330   20.1482 C   0  0  0  0  0  0  0  0  0  0  0  0
  -29.5843  -13.6513   19.8592 C   0  0  0  0  0  0  0  0  0  0  0  0
  -22.3026  -26.9714   22.7841 C   0  0  0  0  0  0  0  0  0  0  0  0
  -22.9505  -24.1573   24.2618 C   0  0  0  0  0  0  0  0  0  0  0  0
  -25.0031  -21.4473   24.5609 C   0  0  0  0  0  0  0  0  0  0  0  0
  -28.1642  -21.8142   18.9987 C   0  0  0  0  0  0  0  0  0  0  0  0
  -18.9648  -28.7951   26.1887 C   0  0  0  0  0  0  0  0  0  0  0  0
  -22.6179  -25.4296   20.8145 C   0  0  0  0  0  0  0  0  0  0  0  0
  -24.7775  -25.1166   22.8102 C   0  0  0  0  0  0  0  0  0  0  0  0
  -20.3288  -28.1127   26.2544 C   0  0  0  0  0  0  0  0  0  0  0  0
  -29.2801  -20.4815   22.1060 C   0  0  0  0  0  0  0  0  0  0  0  0
  -21.3079  -28.7832   25.2961 C   0  0  0  0  0  0  0  0  0  0  0  0
  -29.1061  -18.9709   21.9396 C   0  0  0  0  0  0  0  0  0  0  0  0
  -28.1628  -21.2580   21.4126 C   0  0  0  0  0  0  0  0  0  0  0  0
  -27.7912  -19.4108   19.8240 C   0  0  0  0  0  0  0  0  0  0  0  0
  -20.8252  -28.6692   23.8451 C   0  0  1  0  0  0  0  0  0  0  0  0
  -22.3506  -25.5457   22.3120 C   0  0  1  0  0  0  0  0  0  0  0  0
  -28.9246  -18.5870   20.4588 C   0  0  2  0  0  0  0  0  0  0  0  0
  -32.1487  -29.4796   18.2903 C   0  0  0  0  0  0  0  0  0  0  0  0
  -25.8016  -19.2087   25.3661 C   0  0  0  0  0  0  0  0  0  0  0  0
  -27.0954  -24.3130   15.4474 C   0  0  0  0  0  0  0  0  0  0  0  0
  -25.6187  -22.7478   16.7077 C   0  0  0  0  0  0  0  0  0  0  0  0
  -23.9806  -25.7818   26.6303 C   0  0  0  0  0  0  0  0  0  0  0  0
  -25.1031  -23.7092   27.4743 C   0  0  0  0  0  0  0  0  0  0  0  0
  -22.6194  -23.7783   27.2526 C   0  0  0  0  0  0  0  0  0  0  0  0
  -27.9695  -21.3438   15.2862 C   0  0  0  0  0  0  0  0  0  0  0  0
  -23.5313  -20.0241   22.4238 C   0  0  0  0  0  0  0  0  0  0  0  0
  -33.5155  -24.8062   19.3849 C   0  0  0  0  0  0  0  0  0  0  0  0
  -28.9948  -26.2415   20.3854 C   0  0  0  0  0  0  0  0  0  1  0  0
  -30.7328  -21.7685   16.6505 C   0  0  0  0  0  0  0  0  0  0  0  0
  -29.5969  -22.7969   16.5515 C   0  0  0  0  0  0  0  0  0  0  0  0
  -33.5259  -23.9393   18.1299 C   0  0  0  0  0  0  0  0  0  0  0  0
  -32.1144  -22.4081   16.7508 C   0  0  0  0  0  0  0  0  0  0  0  0
  -24.0467  -23.6540   25.1695 C   0  0  1  0  0  0  0  0  0  0  0  0
  -24.7050  -19.9604   24.6277 C   0  0  2  0  0  0  0  0  0  0  0  0
  -27.0422  -23.3185   16.6193 C   0  0  0  0  0  0  0  0  0  0  0  0
  -23.9431  -24.2408   26.6056 C   0  0  0  0  0  0  0  0  0  0  0  0
  -28.1520  -22.2116   16.5490 C   0  0  1  0  0  0  0  0  0  0  0  0
  -27.4521  -16.6175   20.2710 N   0  0  0  0  0  0  0  0  0  0  0  0
  -31.2665  -25.5896   19.8599 N   0  0  0  0  0  0  0  0  0  0  0  0
  -28.7083  -17.0945   20.2899 N   0  0  0  0  0  0  0  0  0  0  0  0
  -23.3613  -24.8617   23.1212 N   0  0  0  0  0  0  0  0  0  0  0  0
  -28.0440  -20.8481   20.0112 N   0  0  0  0  0  0  0  0  0  0  0  0
  -30.9799  -16.4392   20.1449 N   0  0  0  0  0  0  0  0  0  0  0  0
  -28.7425  -12.5358   19.7531 N   0  0  0  0  0  0  0  0  0  0  0  0
  -21.0879  -27.3434   23.3277 N   0  0  0  0  0  0  0  0  0  0  0  0
  -23.9866  -22.1974   25.1134 N   0  0  0  0  0  0  0  0  0  0  0  0
  -28.0452  -21.3403   17.6979 N   0  0  0  0  0  0  0  0  0  0  0  0
  -24.5890  -19.3931   23.2545 N   0  3  0  0  0  0  0  0  0  0  0  0
  -32.2256  -23.2295   17.9790 N   0  3  0  0  0  0  0  0  0  0  0  0
  -30.8274  -13.4883   19.8198 O   0  0  0  0  0  0  0  0  0  0  0  0
  -23.2947  -27.6809   22.6654 O   0  0  0  0  0  0  0  0  0  0  0  0
  -21.7734  -23.9275   24.5503 O   0  0  0  0  0  0  0  0  0  0  0  0
  -26.0363  -21.8982   24.0712 O   0  0  0  0  0  0  0  0  0  0  0  0
  -28.3681  -23.0096   19.2361 O   0  0  0  0  0  0  0  0  0  0  0  0
  -23.2100  -11.8881   19.8388 O   0  0  0  0  0  0  0  0  0  0  0  0
  -28.0161  -26.4133   19.3682 O   0  0  0  0  0  0  0  0  0  1  0  0
  -23.3994   -7.2113   22.7534 F   0  0  0  0  0  0  0  0  0  0  0  0
  -21.3318  -11.3606   21.7976 F   0  0  0  0  0  0  0  0  0  0  0  0
  1  2  1  0  0  0  0
  1  5  2  0  0  0  0
  2  6  2  0  0  0  0
  3  8  2  0  0  0  0
  3 17  1  0  0  0  0
  4  9  1  0  0  0  0
  4 17  2  0  0  0  0
  5 19  1  0  0  0  0
  6 21  1  0  0  0  0
  7 10  2  0  0  0  0
  7 20  1  0  0  0  0
  8 24  1  0  0  0  0
  9 24  2  0  0  0  0
 10 25  1  0  0  0  0
 11 12  2  0  0  0  0
 11 26  1  0  0  0  0
 12 27  1  0  0  0  0
 13 22  1  0  0  0  0
 13 25  2  0  0  0  0
 14 23  1  0  0  0  0
 14 30  2  0  0  0  0
 15 23  2  0  0  0  0
 15 31  1  0  0  0  0
 16 27  2  0  0  0  0
 16 28  1  0  0  0  0
 17 29  1  0  0  0  0
 18 29  1  0  0  0  0
 18 32  2  0  0  0  0
 18 33  1  0  0  0  0
 19 21  2  0  0  0  0
 19 38  1  0  0  0  0
 20 22  2  0  0  0  0
 20 39  1  0  0  0  0
 21 47  1  0  0  0  0
 22 40  1  0  0  0  0
 23 50  1  0  0  0  0
 24 87  1  0  0  0  0
 25 88  1  0  0  0  0
 26 28  2  0  0  0  0
 26 87  1  0  0  0  0
 27 89  1  0  0  0  0
 28 90  1  0  0  0  0
 29 70  2  0  0  0  0
 30 59  1  0  0  0  0
 30 71  1  0  0  0  0
 31 60  1  0  0  0  0
 31 71  2  0  0  0  0
 32 72  1  0  0  0  0
 32 75  1  0  0  0  0
 33 76  1  0  0  0  0
 33 82  2  0  0  0  0
 34 48  1  0  0  0  0
 34 77  1  0  0  0  0
 34 83  2  0  0  0  0
 35 65  1  0  0  0  0
 35 73  1  0  0  0  0
 35 84  2  0  0  0  0
 36 66  1  0  0  0  0
 36 78  1  0  0  0  0
 36 85  2  0  0  0  0
 37 74  1  0  0  0  0
 37 79  1  0  0  0  0
 37 86  2  0  0  0  0
 38 41  1  0  0  0  0
 39 48  1  0  0  0  0
 40 73  1  0  0  0  0
 41 43  1  0  0  0  0
 42 44  1  0  0  0  0
 42 45  1  0  0  0  0
 43 47  1  0  0  0  0
 44 49  1  0  0  0  0
 45 74  1  0  0  0  0
 46 49  1  0  0  0  0
 46 74  1  0  0  0  0
 47 77  1  0  0  0  0
 48 73  1  0  0  0  0
 49 72  1  0  0  0  0
 51 66  1  0  0  0  0
 52 67  1  0  0  0  0
 53 67  1  0  0  0  0
 54 68  1  0  0  0  0
 55 68  1  0  0  0  0
 56 68  1  0  0  0  0
 57 69  1  0  0  0  0
 58 80  1  0  0  0  0
 59 63  1  0  0  0  0
 60 88  1  0  0  0  0
 61 62  1  0  0  0  0
 61 64  1  0  0  0  0
 62 69  1  0  0  0  0
 63 81  1  0  0  0  0
 64 81  1  0  0  0  0
 65 68  1  0  0  0  0
 65 78  1  0  0  0  0
 66 80  1  0  0  0  0
 67 69  1  0  0  0  0
 69 79  1  0  0  0  0
 70 72  1  0  0  0  0
M  CHG  2  80   1  81   1
M  ISO  4  37 100  60 101  79 100  88 101
M  END
> <Batch ID>
0110

> <Smiles>
CNC(C)C(=O)NC(C(=O)N1Cc2cc([101O:1][101CH2:1]c3cc(C)cc(CCNCCCC(C)([100NH:0][100C:0](=O)N4CCCC(n5nc(-c6ccc(Oc7ccc(F)cc7F)cc6)c(C(N)=O)c5N)C4)C(C)C)n3)ccc2CC1C(=O)NC1CCCc2ccccc21)C(C)(C)C

> <Shape>
0.233

> <Color>
0.080

> <Negative vol penalty>
0.000

$$$$

  -OEChem-04052319583D

 84 92  0     1  0  0  0  0  0999 V2000
  -32.6824  -31.1811   22.4487 C   0  0  0  0  0  0  0  0  0  0  0  0
  -31.8138  -30.1724   22.0443 C   0  0  0  0  0  0  0  0  0  0  0  0
  -22.9056  -10.2418   21.7046 C   0  0  0  0  0  0  0  0  0  0  0  0
  -24.7220   -8.6719   21.4344 C   0  0  0  0  0  0  0  0  0  0  0  0
  -32.3017  -32.0641   23.4583 C   0  0  0  0  0  0  0  0  0  0  0  0
  -30.5642  -30.0455   22.6500 C   0  0  0  0  0  0  0  0  0  0  0  0
  -26.8479  -29.2811   19.2960 C   0  0  0  0  0  0  0  0  0  0  0  0
  -21.9880   -9.1946   21.6205 C   0  0  0  0  0  0  0  0  0  0  0  0
  -23.8045   -7.6247   21.3504 C   0  0  0  0  0  0  0  0  0  0  0  0
  -26.7169  -27.9955   18.7729 C   0  0  0  0  0  0  0  0  0  0  0  0
  -21.9569   -4.4943   21.4259 C   0  0  0  0  0  0  0  0  0  0  0  0
  -22.2259   -3.3354   22.1541 C   0  0  0  0  0  0  0  0  0  0  0  0
  -24.9135  -27.5587   20.3143 C   0  0  0  0  0  0  0  0  0  0  0  0
  -22.2010   -4.6166   24.2023 C   0  0  0  0  0  0  0  0  0  0  0  0
  -24.2726   -9.9804   21.6115 C   0  0  0  0  0  0  0  0  0  0  0  0
  -25.8309  -11.5669   22.8616 C   0  0  0  0  0  0  0  0  0  0  0  0
  -31.0430  -31.9539   24.0700 C   0  0  0  0  0  0  0  0  0  0  0  0
  -26.0186  -29.7122   20.3413 C   0  0  0  0  0  0  0  0  0  0  0  0
  -30.1668  -30.9271   23.6697 C   0  0  0  0  0  0  0  0  0  0  0  0
  -25.0343  -28.8512   20.8472 C   0  0  0  0  0  0  0  0  0  0  0  0
  -22.4374   -7.8861   21.4434 C   0  0  0  0  0  0  0  0  0  0  0  0
  -25.7515  -27.1330   19.2840 C   0  0  0  0  0  0  0  0  0  0  0  0
  -21.8101   -5.7144   22.0859 C   0  0  0  0  0  0  0  0  0  0  0  0
  -22.3479   -3.3966   23.5423 C   0  0  0  0  0  0  0  0  0  0  0  0
  -21.9321   -5.7756   23.4741 C   0  0  0  0  0  0  0  0  0  0  0  0
  -25.2210  -11.0618   21.6977 C   0  0  0  0  0  0  0  0  0  0  0  0
  -26.6413  -12.5806   22.4123 C   0  0  0  0  0  0  0  0  0  0  0  0
  -25.6785  -11.1563   24.2268 C   0  0  0  0  0  0  0  0  0  0  0  0
  -26.4961  -30.6686   23.3348 C   0  0  0  0  0  0  0  0  0  0  0  0
  -23.3171  -31.3043   23.2266 C   0  0  0  0  0  0  0  0  0  0  0  0
  -20.2803  -30.6601   21.8089 C   0  0  0  0  0  0  0  0  0  0  0  0
  -27.4520  -17.0504   19.1717 C   0  0  0  0  0  0  0  0  0  0  0  0
  -30.6946  -32.9024   25.1897 C   0  0  0  0  0  0  0  0  0  0  0  0
  -26.1549  -31.1113   20.8765 C   0  0  0  0  0  0  0  0  0  0  0  0
  -24.1055  -29.2726   21.9555 C   0  0  0  0  0  0  0  0  0  0  0  0
  -29.2048  -32.9324   25.5212 C   0  0  0  0  0  0  0  0  0  0  0  0
  -28.0528  -13.8684   17.7490 C   0  0  0  0  0  0  0  0  0  0  0  0
  -28.6513  -31.5144   25.6200 C   0  0  0  0  0  0  0  0  0  0  0  0
  -27.3921  -12.8923   18.7182 C   0  0  0  0  0  0  0  0  0  0  0  0
  -24.8878  -19.2740   20.5734 C   0  0  0  0  0  0  0  0  0  0  0  0
  -27.2291  -15.1425   17.6194 C   0  0  0  0  0  0  0  0  0  0  0  0
  -25.2610  -17.8327   20.2508 C   0  0  0  0  0  0  0  0  0  0  0  0
  -27.2640  -19.1312   20.5015 C   0  0  0  0  0  0  0  0  0  0  0  0
  -26.3587  -14.8826   19.9273 C   0  0  0  0  0  0  0  0  0  0  0  0
  -28.7932  -30.7725   24.2855 C   0  0  1  0  0  0  0  0  0  0  0  0
  -25.5993  -31.2676   22.2887 C   0  0  1  0  0  0  0  0  0  0  0  0
  -26.1359  -19.7867   21.2928 C   0  0  1  0  0  0  0  0  0  0  0  0
  -27.1446  -13.5639   20.0779 C   0  0  1  0  0  0  0  0  0  0  0  0
  -17.8603  -31.3078   21.9563 C   0  0  0  0  0  0  0  0  0  0  0  0
  -23.4043  -22.0575   24.0007 C   0  0  0  0  0  0  0  0  0  0  0  0
  -25.8588  -21.7069   24.3382 C   0  0  0  0  0  0  0  0  0  0  0  0
  -23.0198  -29.6107   25.7472 C   0  0  0  0  0  0  0  0  0  0  0  0
  -20.5582  -29.5059   25.3024 C   0  0  0  0  0  0  0  0  0  0  0  0
  -21.6539  -31.7056   25.7308 C   0  0  0  0  0  0  0  0  0  0  0  0
  -20.2618  -31.6715   19.0276 C   0  0  0  0  0  0  0  0  0  0  0  0
  -26.6831  -23.7516   18.4196 C   0  0  0  0  0  0  0  0  0  0  0  0
  -24.9745  -21.8961   21.9939 C   0  0  0  0  0  0  0  0  0  0  0  0
  -26.5071  -23.3050   19.8632 C   0  0  0  0  0  0  0  0  0  0  0  0
  -26.7985  -25.2620   18.2549 C   0  0  0  0  0  0  0  0  0  1  0  0
  -22.0602  -30.5259   23.5319 C   0  0  1  0  0  0  0  0  0  0  0  0
  -19.1966  -31.5852   21.2852 C   0  0  2  0  0  0  0  0  0  0  0  0
  -26.2265  -21.3016   21.3283 C   0  0  2  0  0  0  0  0  0  0  0  0
  -24.6649  -21.4118   23.4252 C   0  0  0  0  0  0  0  0  0  0  0  0
  -21.8416  -30.3281   25.0585 C   0  0  0  0  0  0  0  0  0  0  0  0
  -25.6105  -11.7020   20.5921 N   0  0  0  0  0  0  0  0  0  0  0  0
  -26.4738  -12.6199   21.0593 N   0  0  0  0  0  0  0  0  0  0  0  0
  -24.2823  -30.6481   22.4497 N   0  0  0  0  0  0  0  0  0  0  0  0
  -26.9719  -15.7600   18.9218 N   0  0  0  0  0  0  0  0  0  0  0  0
  -26.7058  -17.8723   20.0154 N   0  0  0  0  0  0  0  0  0  0  0  0
  -27.4737  -13.4335   23.0465 N   0  0  0  0  0  0  0  0  0  0  0  0
  -24.8054  -10.0979   24.5128 N   0  0  0  0  0  0  0  0  0  0  0  0
  -27.7702  -31.2030   23.3567 N   0  0  0  0  0  0  0  0  0  0  0  0
  -20.9723  -31.2268   22.8584 N   0  0  0  0  0  0  0  0  0  0  0  0
  -19.0299  -31.4075   19.8150 N   0  3  0  0  0  0  0  0  0  0  0  0
  -26.3535  -21.8298   19.9392 N   0  3  0  0  0  0  0  0  0  0  0  0
  -26.2859  -11.7222   25.1672 O   0  0  0  0  0  0  0  0  0  0  0  0
  -26.0637  -29.7877   24.0689 O   0  0  0  0  0  0  0  0  0  0  0  0
  -23.4350  -32.4549   23.6555 O   0  0  0  0  0  0  0  0  0  0  0  0
  -20.4894  -29.5448   21.3369 O   0  0  0  0  0  0  0  0  0  0  0  0
  -28.4843  -17.4683   18.6299 O   0  0  0  0  0  0  0  0  0  0  0  0
  -21.5424   -6.8639   21.3616 O   0  0  0  0  0  0  0  0  0  0  0  0
  -25.6209  -25.8686   18.7721 O   0  0  0  0  0  0  0  0  0  1  0  0
  -22.6046   -2.2833   24.2415 F   0  0  0  0  0  0  0  0  0  0  0  0
  -21.7909   -6.9446   24.1138 F   0  0  0  0  0  0  0  0  0  0  0  0
  1  2  1  0  0  0  0
  1  5  2  0  0  0  0
  2  6  2  0  0  0  0
  3  8  2  0  0  0  0
  3 15  1  0  0  0  0
  4  9  1  0  0  0  0
  4 15  2  0  0  0  0
  5 17  1  0  0  0  0
  6 19  1  0  0  0  0
  7 10  2  0  0  0  0
  7 18  1  0  0  0  0
  8 21  1  0  0  0  0
  9 21  2  0  0  0  0
 10 22  1  0  0  0  0
 11 12  2  0  0  0  0
 11 23  1  0  0  0  0
 12 24  1  0  0  0  0
 13 20  1  0  0  0  0
 13 22  2  0  0  0  0
 14 24  2  0  0  0  0
 14 25  1  0  0  0  0
 15 26  1  0  0  0  0
 16 26  1  0  0  0  0
 16 27  2  0  0  0  0
 16 28  1  0  0  0  0
 17 19  2  0  0  0  0
 17 33  1  0  0  0  0
 18 20  2  0  0  0  0
 18 34  1  0  0  0  0
 19 45  1  0  0  0  0
 20 35  1  0  0  0  0
 21 81  1  0  0  0  0
 22 82  1  0  0  0  0
 23 25  2  0  0  0  0
 23 81  1  0  0  0  0
 24 83  1  0  0  0  0
 25 84  1  0  0  0  0
 26 65  2  0  0  0  0
 27 66  1  0  0  0  0
 27 70  1  0  0  0  0
 28 71  1  0  0  0  0
 28 76  2  0  0  0  0
 29 46  1  0  0  0  0
 29 72  1  0  0  0  0
 29 77  2  0  0  0  0
 30 60  1  0  0  0  0
 30 67  1  0  0  0  0
 30 78  2  0  0  0  0
 31 61  1  0  0  0  0
 31 73  1  0  0  0  0
 31 79  2  0  0  0  0
 32 68  1  0  0  0  0
 32 69  1  0  0  0  0
 32 80  2  0  0  0  0
 33 36  1  0  0  0  0
 34 46  1  0  0  0  0
 35 67  1  0  0  0  0
 36 38  1  0  0  0  0
 37 39  1  0  0  0  0
 37 41  1  0  0  0  0
 38 45  1  0  0  0  0
 39 48  1  0  0  0  0
 40 42  1  0  0  0  0
 40 47  1  0  0  0  0
 41 68  1  0  0  0  0
 42 69  1  0  0  0  0
 43 47  1  0  0  0  0
 43 69  1  0  0  0  0
 44 48  1  0  0  0  0
 44 68  1  0  0  0  0
 45 72  1  0  0  0  0
 46 67  1  0  0  0  0
 47 62  1  0  0  0  0
 48 66  1  0  0  0  0
 49 61  1  0  0  0  0
 50 63  1  0  0  0  0
 51 63  1  0  0  0  0
 52 64  1  0  0  0  0
 53 64  1  0  0  0  0
 54 64  1  0  0  0  0
 55 74  1  0  0  0  0
 56 58  1  0  0  0  0
 56 59  1  0  0  0  0
 57 62  1  0  0  0  0
 57 63  1  0  0  0  0
 58 75  1  0  0  0  0
 59 82  1  0  0  0  0
 60 64  1  0  0  0  0
 60 73  1  0  0  0  0
 61 74  1  0  0  0  0
 62 75  1  0  0  0  0
 65 66  1  0  0  0  0
M  CHG  2  74   1  75   1
M  ISO  4  32 100  59 101  69 100  82 101
M  END
> <Batch ID>
0110

> <Smiles>
CNC(C)C(=O)NC(C(=O)N1Cc2cc([101O:1][101CH2:1]CCNC(CC(C)C)C3CC[100N:0]([100C:0](=O)N4CCCC(n5nc(-c6ccc(Oc7ccc(F)cc7F)cc6)c(C(N)=O)c5N)C4)C3)ccc2CC1C(=O)NC1CCCc2ccccc21)C(C)(C)C

> <Shape>
0.230

> <Color>
0.109

> <Negative vol penalty>
0.000

$$$$

  -OEChem-04052319583D

 84 92  0     1  0  0  0  0  0999 V2000
  -23.2499  -24.1620   21.3485 C   0  0  0  0  0  0  0  0  0  0  0  0
  -24.1259  -23.2310   20.8019 C   0  0  0  0  0  0  0  0  0  0  0  0
  -24.3086  -29.9891   20.4340 C   0  0  0  0  0  0  0  0  0  0  0  0
  -24.4156  -28.4982   22.3321 C   0  0  0  0  0  0  0  0  0  0  0  0
  -22.2817  -23.7500   22.2618 C   0  0  0  0  0  0  0  0  0  0  0  0
  -24.0264  -21.8859   21.1593 C   0  0  0  0  0  0  0  0  0  0  0  0
  -26.8742  -18.7067   18.7127 C   0  0  0  0  0  0  0  0  0  0  0  0
  -22.9546  -30.2114   20.6850 C   0  0  0  0  0  0  0  0  0  0  0  0
  -23.0616  -28.7205   22.5831 C   0  0  0  0  0  0  0  0  0  0  0  0
  -28.2539  -18.6330   18.8989 C   0  0  0  0  0  0  0  0  0  0  0  0
  -20.0939  -27.6664   21.3533 C   0  0  0  0  0  0  0  0  0  0  0  0
  -19.2968  -26.5576   21.6374 C   0  0  0  0  0  0  0  0  0  0  0  0
  -27.9629  -16.6352   20.2193 C   0  0  0  0  0  0  0  0  0  0  0  0
  -18.7496  -27.5031   23.7923 C   0  0  0  0  0  0  0  0  0  0  0  0
  -30.1449  -20.5116   22.6158 C   0  0  0  0  0  0  0  0  0  0  0  0
  -30.5631  -21.0134   20.4739 C   0  0  0  0  0  0  0  0  0  0  0  0
  -25.0390  -29.1324   21.2575 C   0  0  0  0  0  0  0  0  0  0  0  0
  -27.5282  -29.6305   21.5096 C   0  0  0  0  0  0  0  0  0  0  0  0
  -22.1790  -22.4010   22.6395 C   0  0  0  0  0  0  0  0  0  0  0  0
  -26.0261  -17.7498   19.2885 C   0  0  0  0  0  0  0  0  0  0  0  0
  -23.0404  -21.4465   22.0613 C   0  0  0  0  0  0  0  0  0  0  0  0
  -26.5730  -16.6976   20.0368 C   0  0  0  0  0  0  0  0  0  0  0  0
  -29.5448  -21.7231   22.3525 C   0  0  0  0  0  0  0  0  0  0  0  0
  -29.8094  -22.0406   20.9974 C   0  0  0  0  0  0  0  0  0  0  0  0
  -22.3311  -29.5772   21.7595 C   0  0  0  0  0  0  0  0  0  0  0  0
  -28.7983  -17.5988   19.6547 C   0  0  0  0  0  0  0  0  0  0  0  0
  -20.2189  -28.6936   22.2887 C   0  0  0  0  0  0  0  0  0  0  0  0
  -18.6246  -26.4759   22.8569 C   0  0  0  0  0  0  0  0  0  0  0  0
  -19.5468  -28.6119   23.5082 C   0  0  0  0  0  0  0  0  0  0  0  0
  -26.4375  -28.9018   20.9985 C   0  0  0  0  0  0  0  0  0  0  0  0
  -28.6330  -29.0197   20.9686 C   0  0  0  0  0  0  0  0  0  0  0  0
  -27.5415  -30.7586   22.3944 C   0  0  0  0  0  0  0  0  0  0  0  0
  -23.6713  -17.8332   21.4219 C   0  0  0  0  0  0  0  0  0  0  0  0
  -23.3623  -14.7041   20.6247 C   0  0  0  0  0  0  0  0  0  0  0  0
  -25.5662  -11.9250   19.9639 C   0  0  0  0  0  0  0  0  0  0  0  0
  -29.6607  -23.4925   18.9440 C   0  0  0  0  0  0  0  0  0  0  0  0
  -21.1076  -22.0088   23.6261 C   0  0  0  0  0  0  0  0  0  0  0  0
  -24.5422  -17.8282   19.0560 C   0  0  0  0  0  0  0  0  0  0  0  0
  -25.7075  -15.6336   20.6592 C   0  0  0  0  0  0  0  0  0  0  0  0
  -21.3650  -20.6529   24.2755 C   0  0  0  0  0  0  0  0  0  0  0  0
  -30.0287  -26.5299   17.1231 C   0  0  0  0  0  0  0  0  0  0  0  0
  -21.6832  -19.6172   23.2076 C   0  0  0  0  0  0  0  0  0  0  0  0
  -29.2539  -27.5504   17.9599 C   0  0  0  0  0  0  0  0  0  0  0  0
  -29.3512  -25.1607   17.1284 C   0  0  0  0  0  0  0  0  0  0  0  0
  -28.2861  -25.6374   19.2981 C   0  0  0  0  0  0  0  0  0  0  0  0
  -22.9708  -19.9830   22.4584 C   0  0  1  0  0  0  0  0  0  0  0  0
  -23.7313  -17.0906   20.1170 C   0  0  1  0  0  0  0  0  0  0  0  0
  -28.9647  -27.0148   19.3759 C   0  0  2  0  0  0  0  0  0  0  0  0
  -32.6098  -16.0924   20.6179 C   0  0  0  0  0  0  0  0  0  0  0  0
  -27.5534  -21.7997   23.9086 C   0  0  0  0  0  0  0  0  0  0  0  0
  -25.2308   -9.8761   18.5543 C   0  0  0  0  0  0  0  0  0  0  0  0
  -22.4669  -13.4069   23.2373 C   0  0  0  0  0  0  0  0  0  0  0  0
  -23.6325  -11.3120   22.5156 C   0  0  0  0  0  0  0  0  0  0  0  0
  -21.7313  -12.2061   21.1706 C   0  0  0  0  0  0  0  0  0  0  0  0
  -30.7042  -23.9152   24.0859 C   0  0  0  0  0  0  0  0  0  0  0  0
  -28.0062  -12.4728   18.3811 C   0  0  0  0  0  0  0  0  0  0  0  0
  -31.3893  -16.2926   21.5068 C   0  0  0  0  0  0  0  0  0  0  0  0
  -31.5386  -18.8030   21.3174 C   0  0  0  0  0  0  0  0  0  0  0  0
  -28.7718  -22.5323   23.3161 C   0  0  1  0  0  0  0  0  0  0  0  0
  -23.9544  -13.4094   21.1270 C   0  0  1  0  0  0  0  0  0  0  0  0
  -25.8284  -11.2731   18.6182 C   0  0  2  0  0  0  0  0  0  0  0  0
  -30.6206  -17.5800   21.1827 C   0  0  1  0  0  0  0  0  0  1  0  0
  -22.9605  -12.6082   22.0145 C   0  0  0  0  0  0  0  0  0  0  0  0
  -26.8152  -27.9044   20.1944 N   0  0  0  0  0  0  0  0  0  0  0  0
  -30.7607  -20.0895   21.4665 N   0  0  0  0  0  0  0  0  0  0  0  0
  -28.1556  -28.0021   20.1961 N   0  0  0  0  0  0  0  0  0  0  0  0
  -24.2621  -15.7574   20.4085 N   0  0  0  0  0  0  0  0  0  0  0  0
  -29.1125  -24.7155   18.5031 N   0  0  0  0  0  0  0  0  0  0  0  0
  -29.9567  -29.2592   21.0829 N   0  0  0  0  0  0  0  0  0  0  0  0
  -26.3168  -31.2599   22.8562 N   0  0  0  0  0  0  0  0  0  0  0  0
  -29.3945  -23.1892   20.2789 N   0  0  0  0  0  0  0  0  0  0  0  0
  -23.1247  -19.0986   21.3244 N   0  0  0  0  0  0  0  0  0  0  0  0
  -24.4174  -12.6874   19.9469 N   0  0  0  0  0  0  0  0  0  0  0  0
  -29.5852  -23.0352   24.4835 N   0  3  0  0  0  0  0  0  0  0  0  0
  -27.2941  -11.1691   18.3698 N   0  3  0  0  0  0  0  0  0  0  0  0
  -28.6069  -31.3161   22.7514 O   0  0  0  0  0  0  0  0  0  0  0  0
  -24.0885  -17.2973   22.4418 O   0  0  0  0  0  0  0  0  0  0  0  0
  -22.1472  -14.7759   20.4246 O   0  0  0  0  0  0  0  0  0  0  0  0
  -26.3045  -11.7702   20.9341 O   0  0  0  0  0  0  0  0  0  0  0  0
  -30.3408  -22.7806   18.2006 O   0  0  0  0  0  0  0  0  0  0  0  0
  -21.0101  -29.7941   22.0049 O   0  0  0  0  0  0  0  0  0  0  0  0
  -30.1446  -17.5249   19.8385 O   0  0  0  0  0  0  0  0  0  1  0  0
  -17.8580  -25.4118   23.1289 F   0  0  0  0  0  0  0  0  0  0  0  0
  -19.6620  -29.5962   24.4103 F   0  0  0  0  0  0  0  0  0  0  0  0
  1  2  1  0  0  0  0
  1  5  2  0  0  0  0
  2  6  2  0  0  0  0
  3  8  2  0  0  0  0
  3 17  1  0  0  0  0
  4  9  1  0  0  0  0
  4 17  2  0  0  0  0
  5 19  1  0  0  0  0
  6 21  1  0  0  0  0
  7 10  2  0  0  0  0
  7 20  1  0  0  0  0
  8 25  1  0  0  0  0
  9 25  2  0  0  0  0
 10 26  1  0  0  0  0
 11 12  2  0  0  0  0
 11 27  1  0  0  0  0
 12 28  1  0  0  0  0
 13 22  1  0  0  0  0
 13 26  2  0  0  0  0
 14 28  2  0  0  0  0
 14 29  1  0  0  0  0
 15 23  2  0  0  0  0
 15 65  1  0  0  0  0
 16 24  2  0  0  0  0
 16 65  1  0  0  0  0
 17 30  1  0  0  0  0
 18 30  1  0  0  0  0
 18 31  2  0  0  0  0
 18 32  1  0  0  0  0
 19 21  2  0  0  0  0
 19 37  1  0  0  0  0
 20 22  2  0  0  0  0
 20 38  1  0  0  0  0
 21 46  1  0  0  0  0
 22 39  1  0  0  0  0
 23 24  1  0  0  0  0
 23 59  1  0  0  0  0
 24 71  1  0  0  0  0
 25 81  1  0  0  0  0
 26 82  1  0  0  0  0
 27 29  2  0  0  0  0
 27 81  1  0  0  0  0
 28 83  1  0  0  0  0
 29 84  1  0  0  0  0
 30 64  2  0  0  0  0
 31 66  1  0  0  0  0
 31 69  1  0  0  0  0
 32 70  1  0  0  0  0
 32 76  2  0  0  0  0
 33 47  1  0  0  0  0
 33 72  1  0  0  0  0
 33 77  2  0  0  0  0
 34 60  1  0  0  0  0
 34 67  1  0  0  0  0
 34 78  2  0  0  0  0
 35 61  1  0  0  0  0
 35 73  1  0  0  0  0
 35 79  2  0  0  0  0
 36 68  1  0  0  0  0
 36 71  1  0  0  0  0
 36 80  2  0  0  0  0
 37 40  1  0  0  0  0
 38 47  1  0  0  0  0
 39 67  1  0  0  0  0
 40 42  1  0  0  0  0
 41 43  1  0  0  0  0
 41 44  1  0  0  0  0
 42 46  1  0  0  0  0
 43 48  1  0  0  0  0
 44 68  1  0  0  0  0
 45 48  1  0  0  0  0
 45 68  1  0  0  0  0
 46 72  1  0  0  0  0
 47 67  1  0  0  0  0
 48 66  1  0  0  0  0
 49 57  1  0  0  0  0
 50 59  1  0  0  0  0
 51 61  1  0  0  0  0
 52 63  1  0  0  0  0
 53 63  1  0  0  0  0
 54 63  1  0  0  0  0
 55 74  1  0  0  0  0
 56 75  1  0  0  0  0
 57 62  1  0  0  0  0
 58 62  1  0  0  0  0
 58 65  1  0  0  0  0
 59 74  1  0  0  0  0
 60 63  1  0  0  0  0
 60 73  1  0  0  0  0
 61 75  1  0  0  0  0
 62 82  1  0  0  0  0
 64 66  1  0  0  0  0
M  CHG  2  74   1  75   1
M  ISO  4  36 100  62 101  71 100  82 101
M  END
> <Batch ID>
0110

> <Smiles>
CC[101CH:1](Cn1cc([100NH:0][100C:0](=O)N2CCCC(n3nc(-c4ccc(Oc5ccc(F)cc5F)cc4)c(C(N)=O)c3N)C2)c(C(C)NC)c1)[101O:1]c1ccc2c(c1)CN(C(=O)C(NC(=O)C(C)NC)C(C)(C)C)C(C(=O)NC1CCCc3ccccc31)C2

> <Shape>
0.287

> <Color>
0.072

> <Negative vol penalty>
0.000

$$$$

  -OEChem-04052319583D

 83 91  0     1  0  0  0  0  0999 V2000
  -18.0150  -30.8895   19.2810 C   0  0  0  0  0  0  0  0  0  0  0  0
  -19.3271  -30.5817   18.9356 C   0  0  0  0  0  0  0  0  0  0  0  0
  -27.3218  -11.3990   20.5860 C   0  0  0  0  0  0  0  0  0  0  0  0
  -26.5532  -12.9026   18.8582 C   0  0  0  0  0  0  0  0  0  0  0  0
  -17.6526  -30.9832   20.6240 C   0  0  0  0  0  0  0  0  0  0  0  0
  -20.2778  -30.3687   19.9332 C   0  0  0  0  0  0  0  0  0  0  0  0
  -24.9658  -26.4314   19.7704 C   0  0  0  0  0  0  0  0  0  0  0  0
  -26.2271  -10.5675   20.3494 C   0  0  0  0  0  0  0  0  0  0  0  0
  -25.4585  -12.0711   18.6215 C   0  0  0  0  0  0  0  0  0  0  0  0
  -26.3187  -26.5954   19.4763 C   0  0  0  0  0  0  0  0  0  0  0  0
  -22.9386  -10.4978   21.1272 C   0  0  0  0  0  0  0  0  0  0  0  0
  -22.2432  -10.0122   22.2345 C   0  0  0  0  0  0  0  0  0  0  0  0
  -26.8008  -26.7904   21.8319 C   0  0  0  0  0  0  0  0  0  0  0  0
  -22.7441   -7.7481   21.5562 C   0  0  0  0  0  0  0  0  0  0  0  0
  -27.4848  -12.5666   19.8404 C   0  0  0  0  0  0  0  0  0  0  0  0
  -29.8791  -13.3643   19.4683 C   0  0  0  0  0  0  0  0  0  0  0  0
  -18.5972  -30.7617   21.6386 C   0  0  0  0  0  0  0  0  0  0  0  0
  -24.5180  -26.4565   21.0990 C   0  0  0  0  0  0  0  0  0  0  0  0
  -19.9280  -30.4609   21.2910 C   0  0  0  0  0  0  0  0  0  0  0  0
  -25.4420  -26.6238   22.1403 C   0  0  0  0  0  0  0  0  0  0  0  0
  -25.2955  -10.9036   19.3671 C   0  0  0  0  0  0  0  0  0  0  0  0
  -27.2361  -26.7779   20.5070 C   0  0  0  0  0  0  0  0  0  0  0  0
  -23.5367   -9.6086   20.2343 C   0  0  0  0  0  0  0  0  0  0  0  0
  -22.1460   -8.6374   22.4490 C   0  0  0  0  0  0  0  0  0  0  0  0
  -23.4395   -8.2338   20.4488 C   0  0  0  0  0  0  0  0  0  0  0  0
  -28.6150  -13.4262   20.0848 C   0  0  0  0  0  0  0  0  0  0  0  0
  -30.5915  -14.3889   20.0420 C   0  0  0  0  0  0  0  0  0  0  0  0
  -30.4985  -25.9728   19.2557 C   0  0  0  0  0  0  0  0  0  0  0  0
  -30.3659  -12.4613   18.4666 C   0  0  0  0  0  0  0  0  0  0  0  0
  -31.0705  -24.7538   19.1973 C   0  0  0  0  0  0  0  0  0  0  0  0
  -22.5434  -28.3074   22.7660 C   0  0  0  0  0  0  0  0  0  0  0  0
  -23.0611  -26.1020   25.0877 C   0  0  0  0  0  0  0  0  0  0  0  0
  -25.0912  -23.6869   26.3887 C   0  0  0  0  0  0  0  0  0  0  0  0
  -28.9625  -19.5264   22.6505 C   0  0  0  0  0  0  0  0  0  0  0  0
  -18.1693  -30.9206   23.0761 C   0  0  0  0  0  0  0  0  0  0  0  0
  -23.0589  -26.2514   21.4011 C   0  0  0  0  0  0  0  0  0  0  0  0
  -25.0152  -26.6382   23.5846 C   0  0  0  0  0  0  0  0  0  0  0  0
  -19.1504  -30.3118   24.0746 C   0  0  0  0  0  0  0  0  0  0  0  0
  -30.9123  -16.9184   24.0905 C   0  0  0  0  0  0  0  0  0  0  0  0
  -20.5808  -30.7155   23.7313 C   0  0  0  0  0  0  0  0  0  0  0  0
  -30.6587  -15.7221   23.1715 C   0  0  0  0  0  0  0  0  0  0  0  0
  -29.6602  -17.7762   24.2588 C   0  0  0  0  0  0  0  0  0  0  0  0
  -30.7423  -22.7312   17.8045 C   0  0  0  0  0  0  0  0  0  0  0  0
  -28.7891  -17.0287   22.0779 C   0  0  0  0  0  0  0  0  0  0  0  0
  -29.2609  -23.1492   19.7405 C   0  0  0  0  0  0  0  0  0  0  0  0
  -30.9650  -21.2994   18.2674 C   0  0  0  0  0  0  0  0  0  0  0  0
  -20.9822  -30.1985   22.3445 C   0  0  1  0  0  0  0  0  0  0  0  0
  -22.6459  -26.8084   22.7600 C   0  0  1  0  0  0  0  0  0  0  0  0
  -30.0382  -16.1649   21.8328 C   0  0  2  0  0  0  0  0  0  0  0  0
  -29.4691  -21.7142   20.2289 C   0  0  1  0  0  0  0  0  0  0  0  0
  -25.2657  -22.0873   28.3144 C   0  0  0  0  0  0  0  0  0  0  0  0
  -23.8452  -28.4063   26.9276 C   0  0  0  0  0  0  0  0  0  0  0  0
  -24.8925  -26.7305   28.4649 C   0  0  0  0  0  0  0  0  0  0  0  0
  -22.4420  -26.6401   28.0075 C   0  0  0  0  0  0  0  0  0  0  0  0
  -25.1006  -21.3384   24.5877 C   0  0  0  0  0  0  0  0  0  0  0  0
  -29.0520  -26.2958   19.0489 C   0  0  0  0  0  0  0  0  0  1  0  0
  -32.5548  -24.6214   19.4399 C   0  0  0  0  0  0  0  0  0  0  0  0
  -28.2375  -21.1613   20.9299 C   0  0  0  0  0  0  0  0  0  0  0  0
  -24.0665  -25.9384   26.2018 C   0  0  1  0  0  0  0  0  0  0  0  0
  -24.7970  -22.2812   26.8807 C   0  0  2  0  0  0  0  0  0  0  0  0
  -23.8196  -26.9306   27.3732 C   0  0  0  0  0  0  0  0  0  0  0  0
  -28.5264  -14.4121   20.9815 N   0  0  0  0  0  0  0  0  0  0  0  0
  -29.7439  -14.9791   20.9328 N   0  0  0  0  0  0  0  0  0  0  0  0
  -30.4161  -23.5823   18.9501 N   0  0  3  0  0  0  0  0  0  0  0  0
  -23.5769  -26.4398   23.8285 N   0  0  0  0  0  0  0  0  0  0  0  0
  -29.1224  -18.1639   22.9525 N   0  0  0  0  0  0  0  0  0  0  0  0
  -31.8539  -14.8336   19.8664 N   0  0  0  0  0  0  0  0  0  0  0  0
  -29.5023  -11.4672   17.9867 N   0  0  0  0  0  0  0  0  0  0  0  0
  -21.2994  -28.7877   22.4034 N   0  0  0  0  0  0  0  0  0  0  0  0
  -24.0210  -24.5328   26.5897 N   0  0  0  0  0  0  0  0  0  0  0  0
  -28.4527  -19.8071   21.3888 N   0  0  0  0  0  0  0  0  0  0  0  0
  -29.7666  -20.8455   19.0386 N   0  3  0  0  0  0  0  0  0  0  0  0
  -25.4854  -21.2770   26.0213 N   0  3  0  0  0  0  0  0  0  0  0  0
  -31.5374  -12.5235   18.0225 O   0  0  0  0  0  0  0  0  0  0  0  0
  -23.5200  -28.9786   23.0780 O   0  0  0  0  0  0  0  0  0  0  0  0
  -21.8628  -25.9291   25.3243 O   0  0  0  0  0  0  0  0  0  0  0  0
  -26.1645  -24.0038   25.8806 O   0  0  0  0  0  0  0  0  0  0  0  0
  -29.2577  -20.4262   23.4444 O   0  0  0  0  0  0  0  0  0  0  0  0
  -32.7761  -23.7795   20.5650 O   0  0  0  0  0  0  0  0  0  0  0  0
  -24.2274  -10.0923   19.1358 O   0  0  0  0  0  0  0  0  0  0  0  0
  -28.5571  -26.9389   20.2227 O   0  0  0  0  0  0  0  0  0  1  0  0
  -21.4795   -8.1712   23.5133 F   0  0  0  0  0  0  0  0  0  0  0  0
  -24.0130   -7.3747   19.5951 F   0  0  0  0  0  0  0  0  0  0  0  0
  1  2  1  0  0  0  0
  1  5  2  0  0  0  0
  2  6  2  0  0  0  0
  3  8  2  0  0  0  0
  3 15  1  0  0  0  0
  4  9  1  0  0  0  0
  4 15  2  0  0  0  0
  5 17  1  0  0  0  0
  6 19  1  0  0  0  0
  7 10  2  0  0  0  0
  7 18  1  0  0  0  0
  8 21  1  0  0  0  0
  9 21  2  0  0  0  0
 10 22  1  0  0  0  0
 11 12  2  0  0  0  0
 11 23  1  0  0  0  0
 12 24  1  0  0  0  0
 13 20  1  0  0  0  0
 13 22  2  0  0  0  0
 14 24  2  0  0  0  0
 14 25  1  0  0  0  0
 15 26  1  0  0  0  0
 16 26  1  0  0  0  0
 16 27  2  0  0  0  0
 16 29  1  0  0  0  0
 17 19  2  0  0  0  0
 17 35  1  0  0  0  0
 18 20  2  0  0  0  0
 18 36  1  0  0  0  0
 19 47  1  0  0  0  0
 20 37  1  0  0  0  0
 21 80  1  0  0  0  0
 22 81  1  0  0  0  0
 23 25  2  0  0  0  0
 23 80  1  0  0  0  0
 24 82  1  0  0  0  0
 25 83  1  0  0  0  0
 26 62  2  0  0  0  0
 27 63  1  0  0  0  0
 27 67  1  0  0  0  0
 28 30  2  0  0  0  0
 28 56  1  0  0  0  0
 29 68  1  0  0  0  0
 29 74  2  0  0  0  0
 30 57  1  0  0  0  0
 30 64  1  0  0  0  0
 31 48  1  0  0  0  0
 31 69  1  0  0  0  0
 31 75  2  0  0  0  0
 32 59  1  0  0  0  0
 32 65  1  0  0  0  0
 32 76  2  0  0  0  0
 33 60  1  0  0  0  0
 33 70  1  0  0  0  0
 33 77  2  0  0  0  0
 34 66  1  0  0  0  0
 34 71  1  0  0  0  0
 34 78  2  0  0  0  0
 35 38  1  0  0  0  0
 36 48  1  0  0  0  0
 37 65  1  0  0  0  0
 38 40  1  0  0  0  0
 39 41  1  0  0  0  0
 39 42  1  0  0  0  0
 40 47  1  0  0  0  0
 41 49  1  0  0  0  0
 42 66  1  0  0  0  0
 43 46  1  0  0  0  0
 43 64  1  0  0  0  0
 44 49  1  0  0  0  0
 44 66  1  0  0  0  0
 45 50  1  0  0  0  0
 45 64  1  0  0  0  0
 46 72  1  0  0  0  0
 47 69  1  0  0  0  0
 48 65  1  0  0  0  0
 49 63  1  0  0  0  0
 50 58  1  0  0  0  0
 50 72  1  0  0  0  0
 51 60  1  0  0  0  0
 52 61  1  0  0  0  0
 53 61  1  0  0  0  0
 54 61  1  0  0  0  0
 55 73  1  0  0  0  0
 56 81  1  0  0  0  0
 57 79  1  0  0  0  0
 58 71  1  0  0  0  0
 59 61  1  0  0  0  0
 59 70  1  0  0  0  0
 60 73  1  0  0  0  0
 62 63  1  0  0  0  0
M  CHG  2  72   1  73   1
M  ISO  4  34 100  56 101  71 100  81 101
M  END
> <Batch ID>
0110

> <Smiles>
CNC(C)C(=O)NC(C(=O)N1Cc2cc([101O:1][101CH2:1]C=C(CO)N3CCNC(C[100NH:0][100C:0](=O)N4CCCC(n5nc(-c6ccc(Oc7ccc(F)cc7F)cc6)c(C(N)=O)c5N)C4)C3)ccc2CC1C(=O)NC1CCCc2ccccc21)C(C)(C)C

> <Shape>
0.236

> <Color>
0.083

> <Negative vol penalty>
0.000

$$$$

  -OEChem-04052319582D

  0  0  0     0  0  0  0  0  0999 V2000
M  END
$$$$

  -OEChem-04052319583D

 80 88  0     1  0  0  0  0  0999 V2000
  -16.8425  -28.9629   24.1250 C   0  0  0  0  0  0  0  0  0  0  0  0
  -17.4619  -28.0772   23.2491 C   0  0  0  0  0  0  0  0  0  0  0  0
  -24.7070  -10.8873   23.8283 C   0  0  0  0  0  0  0  0  0  0  0  0
  -23.6862  -12.6217   25.1651 C   0  0  0  0  0  0  0  0  0  0  0  0
  -17.3376  -30.2581   24.2708 C   0  0  0  0  0  0  0  0  0  0  0  0
  -18.5763  -28.4865   22.5176 C   0  0  0  0  0  0  0  0  0  0  0  0
  -22.2764  -25.0291   22.5163 C   0  0  0  0  0  0  0  0  0  0  0  0
  -24.2092   -9.9208   24.7021 C   0  0  0  0  0  0  0  0  0  0  0  0
  -23.1883  -11.6551   26.0389 C   0  0  0  0  0  0  0  0  0  0  0  0
  -22.1267  -23.9366   21.6632 C   0  0  0  0  0  0  0  0  0  0  0  0
  -21.2629   -8.3656   25.2796 C   0  0  0  0  0  0  0  0  0  0  0  0
  -20.6711   -7.2318   24.7230 C   0  0  0  0  0  0  0  0  0  0  0  0
  -23.6083  -24.9831   20.0729 C   0  0  0  0  0  0  0  0  0  0  0  0
  -22.3088   -5.8371   25.8228 C   0  0  0  0  0  0  0  0  0  0  0  0
  -24.4456  -12.2378   24.0598 C   0  0  0  0  0  0  0  0  0  0  0  0
  -24.3289  -13.7509   22.0093 C   0  0  0  0  0  0  0  0  0  0  0  0
  -18.4645  -30.6805   23.5480 C   0  0  0  0  0  0  0  0  0  0  0  0
  -23.0859  -26.1135   22.1488 C   0  0  0  0  0  0  0  0  0  0  0  0
  -19.0862  -29.7890   22.6529 C   0  0  0  0  0  0  0  0  0  0  0  0
  -23.7687  -26.0870   20.9243 C   0  0  0  0  0  0  0  0  0  0  0  0
  -23.4499  -10.3047   25.8074 C   0  0  0  0  0  0  0  0  0  0  0  0
  -22.7904  -23.9148   20.4400 C   0  0  0  0  0  0  0  0  0  0  0  0
  -22.3778   -8.2352   26.1077 C   0  0  0  0  0  0  0  0  0  0  0  0
  -21.1940   -5.9675   24.9946 C   0  0  0  0  0  0  0  0  0  0  0  0
  -22.9007   -6.9709   26.3793 C   0  0  0  0  0  0  0  0  0  0  0  0
  -24.9600  -13.2368   23.1578 C   0  0  0  0  0  0  0  0  0  0  0  0
  -25.2222  -14.6652   21.5068 C   0  0  0  0  0  0  0  0  0  0  0  0
  -23.0495  -13.4307   21.4469 C   0  0  0  0  0  0  0  0  0  0  0  0
  -22.5870  -29.2084   21.6233 C   0  0  0  0  0  0  0  0  0  0  0  0
  -25.8192  -29.2861   21.3600 C   0  0  0  0  0  0  0  0  0  0  0  0
  -28.7136  -27.6021   20.7019 C   0  0  0  0  0  0  0  0  0  0  0  0
  -28.8303  -18.7445   22.0654 C   0  0  0  0  0  0  0  0  0  0  0  0
  -18.9347  -32.1050   23.7036 C   0  0  0  0  0  0  0  0  0  0  0  0
  -23.2582  -27.2724   23.0920 C   0  0  0  0  0  0  0  0  0  0  0  0
  -24.6656  -27.2170   20.4919 C   0  0  0  0  0  0  0  0  0  0  0  0
  -20.3458  -32.3422   23.1718 C   0  0  0  0  0  0  0  0  0  0  0  0
  -30.0471  -15.5707   22.6982 C   0  0  0  0  0  0  0  0  0  0  0  0
  -20.5111  -31.7071   21.7948 C   0  0  0  0  0  0  0  0  0  0  0  0
  -28.7873  -14.7090   22.7811 C   0  0  0  0  0  0  0  0  0  0  0  0
  -26.3946  -19.9473   19.5459 C   0  0  0  0  0  0  0  0  0  0  0  0
  -25.2040  -19.6178   21.7420 C   0  0  0  0  0  0  0  0  0  0  0  0
  -29.8377  -16.9119   23.3920 C   0  0  0  0  0  0  0  0  0  0  0  0
  -27.7162  -20.0612   20.3008 C   0  0  0  0  0  0  0  0  0  0  0  0
  -26.5461  -19.7433   22.4553 C   0  0  0  0  0  0  0  0  0  0  0  0
  -27.4070  -16.8391   22.9426 C   0  0  0  0  0  0  0  0  0  0  0  0
  -20.3121  -30.1880   21.8605 C   0  0  1  0  0  0  0  0  0  0  0  0
  -23.7002  -28.5531   22.3907 C   0  0  1  0  0  0  0  0  0  0  0  0
  -25.2065  -20.3844   20.4125 C   0  0  0  0  0  0  0  0  0  0  0  0
  -27.5607  -15.4709   22.2484 C   0  0  2  0  0  0  0  0  0  0  0  0
  -31.1939  -27.9415   20.5268 C   0  0  0  0  0  0  0  0  0  0  0  0
  -25.4409  -30.6335   18.6487 C   0  0  0  0  0  0  0  0  0  0  0  0
  -27.8266  -30.0862   18.1220 C   0  0  0  0  0  0  0  0  0  0  0  0
  -27.2873  -31.5880   20.0394 C   0  0  0  0  0  0  0  0  0  0  0  0
  -29.2481  -25.6788   22.8869 C   0  0  0  0  0  0  0  0  0  0  0  0
  -23.8882  -20.1859   19.6684 C   0  0  0  0  0  0  0  0  0  0  0  0
  -23.7479  -22.5365   18.7550 C   0  0  0  0  0  0  0  0  0  1  0  0
  -26.8041  -29.1136   20.2291 C   0  0  1  0  0  0  0  0  0  0  0  0
  -30.0402  -27.5531   21.4383 C   0  0  2  0  0  0  0  0  0  0  0  0
  -23.7623  -21.0485   18.4116 C   0  0  2  0  0  0  0  0  0  0  0  0
  -26.8214  -30.3347   19.2668 C   0  0  0  0  0  0  0  0  0  0  0  0
  -26.1615  -13.7793   23.3724 N   0  0  0  0  0  0  0  0  0  0  0  0
  -26.2926  -14.6437   22.3518 N   0  0  0  0  0  0  0  0  0  0  0  0
  -24.7967  -28.3305   21.4460 N   0  0  0  0  0  0  0  0  0  0  0  0
  -28.6618  -17.6016   22.8616 N   0  0  0  0  0  0  0  0  0  0  0  0
  -27.6630  -19.3586   21.5821 N   0  0  0  0  0  0  0  0  0  0  0  0
  -25.1888  -15.4773   20.4289 N   0  0  0  0  0  0  0  0  0  0  0  0
  -22.2588  -12.4686   22.0900 N   0  0  0  0  0  0  0  0  0  0  0  0
  -21.4931  -29.5463   22.3971 N   0  0  0  0  0  0  0  0  0  0  0  0
  -28.0921  -28.8240   20.8501 N   0  0  0  0  0  0  0  0  0  0  0  0
  -22.4857  -20.7259   17.7082 N   0  3  0  0  0  0  0  0  0  0  0  0
  -30.2937  -26.1795   21.9580 N   0  3  0  0  0  0  0  0  0  0  0  0
  -22.6271  -13.9695   20.3958 O   0  0  0  0  0  0  0  0  0  0  0  0
  -22.7119  -29.3951   20.4186 O   0  0  0  0  0  0  0  0  0  0  0  0
  -25.9562  -30.2296   22.1427 O   0  0  0  0  0  0  0  0  0  0  0  0
  -28.2746  -26.6528   20.0565 O   0  0  0  0  0  0  0  0  0  0  0  0
  -29.9536  -19.1887   21.7972 O   0  0  0  0  0  0  0  0  0  0  0  0
  -22.9637   -9.3618   26.6601 O   0  0  0  0  0  0  0  0  0  0  0  0
  -22.6446  -22.8429   19.5995 O   0  0  0  0  0  0  0  0  0  1  0  0
  -20.6246   -4.8787   24.4613 F   0  0  0  0  0  0  0  0  0  0  0  0
  -23.9708   -6.8392   27.1751 F   0  0  0  0  0  0  0  0  0  0  0  0
  1  2  1  0  0  0  0
  1  5  2  0  0  0  0
  2  6  2  0  0  0  0
  3  8  2  0  0  0  0
  3 15  1  0  0  0  0
  4  9  1  0  0  0  0
  4 15  2  0  0  0  0
  5 17  1  0  0  0  0
  6 19  1  0  0  0  0
  7 10  2  0  0  0  0
  7 18  1  0  0  0  0
  8 21  1  0  0  0  0
  9 21  2  0  0  0  0
 10 22  1  0  0  0  0
 11 12  2  0  0  0  0
 11 23  1  0  0  0  0
 12 24  1  0  0  0  0
 13 20  1  0  0  0  0
 13 22  2  0  0  0  0
 14 24  2  0  0  0  0
 14 25  1  0  0  0  0
 15 26  1  0  0  0  0
 16 26  1  0  0  0  0
 16 27  2  0  0  0  0
 16 28  1  0  0  0  0
 17 19  2  0  0  0  0
 17 33  1  0  0  0  0
 18 20  2  0  0  0  0
 18 34  1  0  0  0  0
 19 46  1  0  0  0  0
 20 35  1  0  0  0  0
 21 77  1  0  0  0  0
 22 78  1  0  0  0  0
 23 25  2  0  0  0  0
 23 77  1  0  0  0  0
 24 79  1  0  0  0  0
 25 80  1  0  0  0  0
 26 61  2  0  0  0  0
 27 62  1  0  0  0  0
 27 66  1  0  0  0  0
 28 67  1  0  0  0  0
 28 72  2  0  0  0  0
 29 47  1  0  0  0  0
 29 68  1  0  0  0  0
 29 73  2  0  0  0  0
 30 57  1  0  0  0  0
 30 63  1  0  0  0  0
 30 74  2  0  0  0  0
 31 58  1  0  0  0  0
 31 69  1  0  0  0  0
 31 75  2  0  0  0  0
 32 64  1  0  0  0  0
 32 65  1  0  0  0  0
 32 76  2  0  0  0  0
 33 36  1  0  0  0  0
 34 47  1  0  0  0  0
 35 63  1  0  0  0  0
 36 38  1  0  0  0  0
 37 39  1  0  0  0  0
 37 42  1  0  0  0  0
 38 46  1  0  0  0  0
 39 49  1  0  0  0  0
 40 43  1  0  0  0  0
 40 48  1  0  0  0  0
 41 44  1  0  0  0  0
 41 48  1  0  0  0  0
 42 64  1  0  0  0  0
 43 65  1  0  0  0  0
 44 65  1  0  0  0  0
 45 49  1  0  0  0  0
 45 64  1  0  0  0  0
 46 68  1  0  0  0  0
 47 63  1  0  0  0  0
 48 55  1  0  0  0  0
 49 62  1  0  0  0  0
 50 58  1  0  0  0  0
 51 60  1  0  0  0  0
 52 60  1  0  0  0  0
 53 60  1  0  0  0  0
 54 71  1  0  0  0  0
 55 59  1  0  0  0  0
 56 59  1  0  0  0  0
 56 78  1  0  0  0  0
 57 60  1  0  0  0  0
 57 69  1  0  0  0  0
 58 71  1  0  0  0  0
 59 70  1  0  0  0  0
 61 62  1  0  0  0  0
M  CHG  2  70   1  71   1
M  ISO  4  32 100  56 101  65 100  78 101
M  END
> <Batch ID>
0110

> <Smiles>
CNC(C)C(=O)NC(C(=O)N1Cc2cc([101O:1][101CH2:1]C(N)CC3CC[100N:0]([100C:0](=O)N4CCCC(n5nc(-c6ccc(Oc7ccc(F)cc7F)cc6)c(C(N)=O)c5N)C4)CC3)ccc2CC1C(=O)NC1CCCc2ccccc21)C(C)(C)C

> <Shape>
0.195

> <Color>
0.126

> <Negative vol penalty>
0.000

$$$$

  -OEChem-04052319583D

 81 89  0     1  0  0  0  0  0999 V2000
  -23.5817  -19.2184   37.6880 C   0  0  0  0  0  0  0  0  0  0  0  0
  -24.4343  -19.8335   36.7769 C   0  0  0  0  0  0  0  0  0  0  0  0
  -23.1533   -9.8655   19.9608 C   0  0  0  0  0  0  0  0  0  0  0  0
  -23.8204   -9.9649   22.2807 C   0  0  0  0  0  0  0  0  0  0  0  0
  -23.3842  -17.8393   37.6348 C   0  0  0  0  0  0  0  0  0  0  0  0
  -25.0908  -19.0696   35.8127 C   0  0  0  0  0  0  0  0  0  0  0  0
  -27.4877  -19.4465   29.0725 C   0  0  0  0  0  0  0  0  0  0  0  0
  -22.4392   -8.6949   20.2162 C   0  0  0  0  0  0  0  0  0  0  0  0
  -23.1063   -8.7942   22.5362 C   0  0  0  0  0  0  0  0  0  0  0  0
  -28.6462  -19.2302   28.3277 C   0  0  0  0  0  0  0  0  0  0  0  0
  -21.7557   -5.6358   23.7238 C   0  0  0  0  0  0  0  0  0  0  0  0
  -22.3745   -4.6549   24.4987 C   0  0  0  0  0  0  0  0  0  0  0  0
  -28.1673  -16.8663   28.2805 C   0  0  0  0  0  0  0  0  0  0  0  0
  -24.1501   -4.4876   22.8689 C   0  0  0  0  0  0  0  0  0  0  0  0
  -23.8439  -10.5005   20.9931 C   0  0  0  0  0  0  0  0  0  0  0  0
  -24.1051  -13.0316   20.8105 C   0  0  0  0  0  0  0  0  0  0  0  0
  -24.0312  -17.0593   36.6633 C   0  0  0  0  0  0  0  0  0  0  0  0
  -26.6646  -18.3712   29.4369 C   0  0  0  0  0  0  0  0  0  0  0  0
  -24.9029  -17.6785   35.7473 C   0  0  0  0  0  0  0  0  0  0  0  0
  -26.9975  -17.0720   29.0278 C   0  0  0  0  0  0  0  0  0  0  0  0
  -22.4157   -8.1592   21.5039 C   0  0  0  0  0  0  0  0  0  0  0  0
  -28.9877  -17.9396   27.9341 C   0  0  0  0  0  0  0  0  0  0  0  0
  -22.3340   -6.0425   22.5214 C   0  0  0  0  0  0  0  0  0  0  0  0
  -23.5717   -4.0808   24.0713 C   0  0  0  0  0  0  0  0  0  0  0  0
  -23.5312   -5.4684   22.0940 C   0  0  0  0  0  0  0  0  0  0  0  0
  -24.5822  -11.7095   20.7297 C   0  0  0  0  0  0  0  0  0  0  0  0
  -25.1851  -13.8078   20.4676 C   0  0  0  0  0  0  0  0  0  0  0  0
  -22.8023  -13.5147   21.1640 C   0  0  0  0  0  0  0  0  0  0  0  0
  -25.7319  -17.0941   32.1942 C   0  0  0  0  0  0  0  0  0  0  0  0
  -23.8582  -15.2748   30.2702 C   0  0  0  0  0  0  0  0  0  0  0  0
  -23.3188  -13.9344   27.1785 C   0  0  0  0  0  0  0  0  0  0  0  0
  -30.9411  -13.9712   21.0639 C   0  0  0  0  0  0  0  0  0  0  0  0
  -23.8231  -15.5656   36.6750 C   0  0  0  0  0  0  0  0  0  0  0  0
  -25.4042  -18.6245   30.2177 C   0  0  0  0  0  0  0  0  0  0  0  0
  -26.1368  -15.8860   29.3759 C   0  0  0  0  0  0  0  0  0  0  0  0
  -24.2657  -14.8788   35.3855 C   0  0  0  0  0  0  0  0  0  0  0  0
  -29.3963  -13.0236   17.9992 C   0  0  0  0  0  0  0  0  0  0  0  0
  -25.6411  -15.3811   34.9582 C   0  0  0  0  0  0  0  0  0  0  0  0
  -33.2854  -17.1945   26.7144 C   0  0  0  0  0  0  0  0  0  0  0  0
  -27.9530  -12.7110   18.3984 C   0  0  0  0  0  0  0  0  0  0  0  0
  -32.4182  -17.6413   27.8967 C   0  0  0  0  0  0  0  0  0  0  0  0
  -31.4044  -15.7178   26.8280 C   0  0  0  0  0  0  0  0  0  0  0  0
  -30.3862  -12.5951   19.0801 C   0  0  0  0  0  0  0  0  0  0  0  0
  -28.6598  -12.8158   20.8250 C   0  0  0  0  0  0  0  0  0  0  0  0
  -25.6138  -16.8872   34.6709 C   0  0  1  0  0  0  0  0  0  0  0  0
  -24.9110  -17.3935   30.9719 C   0  0  1  0  0  0  0  0  0  0  0  0
  -32.3742  -16.3459   25.8282 C   0  0  2  0  0  0  0  0  0  0  0  0
  -27.6204  -13.2807   19.7906 C   0  0  2  0  0  0  0  0  0  0  0  0
  -31.1036  -16.8701   27.7786 C   0  0  2  0  0  0  0  0  0  1  0  0
  -21.7239  -12.4599   25.9216 C   0  0  0  0  0  0  0  0  0  0  0  0
  -33.9210  -14.3756   25.9331 C   0  0  0  0  0  0  0  0  0  0  0  0
  -34.1445  -16.0479   24.0901 C   0  0  0  0  0  0  0  0  0  0  0  0
  -25.0533  -12.8219   31.6360 C   0  0  0  0  0  0  0  0  0  0  0  0
  -24.1759  -11.4300   29.7490 C   0  0  0  0  0  0  0  0  0  0  0  0
  -22.5924  -12.6847   31.2122 C   0  0  0  0  0  0  0  0  0  0  0  0
  -22.6358  -16.0971   25.2772 C   0  0  0  0  0  0  0  0  0  0  0  0
  -32.1744  -14.5011   24.0824 C   0  0  0  0  0  0  0  0  0  0  0  0
  -31.3434  -15.3280   23.1025 C   0  0  0  0  0  0  0  0  0  0  0  0
  -24.0216  -13.9540   29.5575 C   0  0  1  0  0  0  0  0  0  0  0  0
  -22.0797  -13.8885   26.3027 C   0  0  2  0  0  0  0  0  0  0  0  0
  -33.1294  -15.3188   25.0021 C   0  0  0  0  0  0  0  0  0  0  0  0
  -23.9782  -12.7446   30.5336 C   0  0  0  0  0  0  0  0  0  0  0  0
  -25.8652  -11.6458   20.3640 N   0  0  0  0  0  0  0  0  0  0  0  0
  -26.2036  -12.9375   20.2119 N   0  0  0  0  0  0  0  0  0  0  0  0
  -24.9181  -16.1843   30.1461 N   0  0  0  0  0  0  0  0  0  0  0  0
  -30.0151  -13.1703   20.3753 N   0  0  0  0  0  0  0  0  0  0  0  0
  -25.3533  -15.1432   20.3628 N   0  0  0  0  0  0  0  0  0  0  0  0
  -21.8089  -12.5809   21.4888 N   0  0  0  0  0  0  0  0  0  0  0  0
  -25.0189  -17.1441   33.3769 N   0  0  0  0  0  0  0  0  0  0  0  0
  -22.9973  -13.9210   28.5192 N   0  0  0  0  0  0  0  0  0  0  0  0
  -30.5068  -14.4820   22.2809 N   0  0  0  0  0  0  0  0  0  0  0  0
  -22.3006  -14.6676   25.0515 N   0  3  0  0  0  0  0  0  0  0  0  0
  -22.5227  -14.7375   21.1750 O   0  0  0  0  0  0  0  0  0  0  0  0
  -26.9236  -16.8354   32.0732 O   0  0  0  0  0  0  0  0  0  0  0  0
  -22.8251  -15.4943   30.9075 O   0  0  0  0  0  0  0  0  0  0  0  0
  -24.4581  -13.9740   26.7191 O   0  0  0  0  0  0  0  0  0  0  0  0
  -32.0693  -14.2174   20.6239 O   0  0  0  0  0  0  0  0  0  0  0  0
  -21.7188   -7.0170   21.7535 O   0  0  0  0  0  0  0  0  0  0  0  0
  -30.1183  -17.7256   27.2075 O   0  0  0  0  0  0  0  0  0  1  0  0
  -24.1667   -3.1400   24.8164 F   0  0  0  0  0  0  0  0  0  0  0  0
  -24.0922   -5.8559   20.9403 F   0  0  0  0  0  0  0  0  0  0  0  0
  1  2  1  0  0  0  0
  1  5  2  0  0  0  0
  2  6  2  0  0  0  0
  3  8  2  0  0  0  0
  3 15  1  0  0  0  0
  4  9  1  0  0  0  0
  4 15  2  0  0  0  0
  5 17  1  0  0  0  0
  6 19  1  0  0  0  0
  7 10  2  0  0  0  0
  7 18  1  0  0  0  0
  8 21  1  0  0  0  0
  9 21  2  0  0  0  0
 10 22  1  0  0  0  0
 11 12  2  0  0  0  0
 11 23  1  0  0  0  0
 12 24  1  0  0  0  0
 13 20  1  0  0  0  0
 13 22  2  0  0  0  0
 14 24  2  0  0  0  0
 14 25  1  0  0  0  0
 15 26  1  0  0  0  0
 16 26  1  0  0  0  0
 16 27  2  0  0  0  0
 16 28  1  0  0  0  0
 17 19  2  0  0  0  0
 17 33  1  0  0  0  0
 18 20  2  0  0  0  0
 18 34  1  0  0  0  0
 19 45  1  0  0  0  0
 20 35  1  0  0  0  0
 21 78  1  0  0  0  0
 22 79  1  0  0  0  0
 23 25  2  0  0  0  0
 23 78  1  0  0  0  0
 24 80  1  0  0  0  0
 25 81  1  0  0  0  0
 26 63  2  0  0  0  0
 27 64  1  0  0  0  0
 27 67  1  0  0  0  0
 28 68  1  0  0  0  0
 28 73  2  0  0  0  0
 29 46  1  0  0  0  0
 29 69  1  0  0  0  0
 29 74  2  0  0  0  0
 30 59  1  0  0  0  0
 30 65  1  0  0  0  0
 30 75  2  0  0  0  0
 31 60  1  0  0  0  0
 31 70  1  0  0  0  0
 31 76  2  0  0  0  0
 32 66  1  0  0  0  0
 32 71  1  0  0  0  0
 32 77  2  0  0  0  0
 33 36  1  0  0  0  0
 34 46  1  0  0  0  0
 35 65  1  0  0  0  0
 36 38  1  0  0  0  0
 37 40  1  0  0  0  0
 37 43  1  0  0  0  0
 38 45  1  0  0  0  0
 39 41  1  0  0  0  0
 39 47  1  0  0  0  0
 40 48  1  0  0  0  0
 41 49  1  0  0  0  0
 42 47  1  0  0  0  0
 42 49  1  0  0  0  0
 43 66  1  0  0  0  0
 44 48  1  0  0  0  0
 44 66  1  0  0  0  0
 45 69  1  0  0  0  0
 46 65  1  0  0  0  0
 47 61  1  0  0  0  0
 48 64  1  0  0  0  0
 49 79  1  0  0  0  0
 50 60  1  0  0  0  0
 51 61  1  0  0  0  0
 52 61  1  0  0  0  0
 53 62  1  0  0  0  0
 54 62  1  0  0  0  0
 55 62  1  0  0  0  0
 56 72  1  0  0  0  0
 57 58  1  0  0  0  0
 57 61  1  0  0  0  0
 58 71  1  0  0  0  0
 59 62  1  0  0  0  0
 59 70  1  0  0  0  0
 60 72  1  0  0  0  0
 63 64  1  0  0  0  0
M  CHG  1  72   1
M  ISO  4  32 100  49 101  71 100  79 101
M  END
> <Batch ID>
0110

> <Smiles>
CNC(C)C(=O)NC(C(=O)N1Cc2cc([101O:1][101CH:1]3CCC(C(C)(C)CC[100NH:0][100C:0](=O)N4CCCC(n5nc(-c6ccc(Oc7ccc(F)cc7F)cc6)c(C(N)=O)c5N)C4)C3)ccc2CC1C(=O)NC1CCCc2ccccc21)C(C)(C)C

> <Shape>
0.150

> <Color>
0.191

> <Negative vol penalty>
0.000

$$$$

  -OEChem-04052319583D

 87 96  0     1  0  0  0  0  0999 V2000
  -23.2445  -10.4725   19.0539 C   0  0  0  0  0  0  0  0  0  0  0  0
  -22.7495  -11.6721   18.5525 C   0  0  0  0  0  0  0  0  0  0  0  0
  -20.8570  -26.8765   22.0775 C   0  0  0  0  0  0  0  0  0  0  0  0
  -19.7656  -28.8221   23.0050 C   0  0  0  0  0  0  0  0  0  0  0  0
  -24.1670  -10.4829   20.0992 C   0  0  0  0  0  0  0  0  0  0  0  0
  -23.1761  -12.8829   19.0970 C   0  0  0  0  0  0  0  0  0  0  0  0
  -24.5056  -19.6751   17.2490 C   0  0  0  0  0  0  0  0  0  0  0  0
  -19.6685  -26.1554   22.1914 C   0  0  0  0  0  0  0  0  0  0  0  0
  -18.5770  -28.1011   23.1189 C   0  0  0  0  0  0  0  0  0  0  0  0
  -24.1812  -20.9773   17.6268 C   0  0  0  0  0  0  0  0  0  0  0  0
  -17.9369  -24.5772   24.6276 C   0  0  0  0  0  0  0  0  0  0  0  0
  -18.0107  -23.2858   25.1496 C   0  0  0  0  0  0  0  0  0  0  0  0
  -25.8380  -20.8759   19.3771 C   0  0  0  0  0  0  0  0  0  0  0  0
  -17.0916  -22.4036   23.0968 C   0  0  0  0  0  0  0  0  0  0  0  0
  -20.9056  -28.2098   22.4844 C   0  0  0  0  0  0  0  0  0  0  0  0
  -22.5615  -29.7205   21.2663 C   0  0  0  0  0  0  0  0  0  0  0  0
  -24.6124  -11.6948   20.6503 C   0  0  0  0  0  0  0  0  0  0  0  0
  -25.4927  -18.9584   17.9406 C   0  0  0  0  0  0  0  0  0  0  0  0
  -24.1044  -12.9095   20.1516 C   0  0  0  0  0  0  0  0  0  0  0  0
  -26.1749  -19.5656   19.0045 C   0  0  0  0  0  0  0  0  0  0  0  0
  -18.5285  -26.7677   22.7121 C   0  0  0  0  0  0  0  0  0  0  0  0
  -24.8454  -21.5769   18.6928 C   0  0  0  0  0  0  0  0  0  0  0  0
  -17.4404  -24.7818   23.3403 C   0  0  0  0  0  0  0  0  0  0  0  0
  -17.5881  -22.1990   24.3842 C   0  0  0  0  0  0  0  0  0  0  0  0
  -17.0177  -23.6950   22.5748 C   0  0  0  0  0  0  0  0  0  0  0  0
  -22.1333  -28.9551   22.3675 C   0  0  0  0  0  0  0  0  0  0  0  0
  -23.7809  -30.2224   21.6505 C   0  0  0  0  0  0  0  0  0  0  0  0
  -21.9149  -29.9567   20.0086 C   0  0  0  0  0  0  0  0  0  0  0  0
  -25.5362  -16.2787   19.6497 C   0  0  0  0  0  0  0  0  0  0  0  0
  -28.7369  -16.8053   19.6720 C   0  0  0  0  0  0  0  0  0  0  0  0
  -31.3083  -19.0335   19.4082 C   0  0  0  0  0  0  0  0  0  0  0  0
  -28.7108  -29.7437   23.9707 C   0  0  0  0  0  0  0  0  0  0  0  0
  -25.5748  -11.6542   21.8109 C   0  0  0  0  0  0  0  0  0  0  0  0
  -25.8497  -17.5640   17.5036 C   0  0  0  0  0  0  0  0  0  0  0  0
  -27.2567  -18.8463   19.7666 C   0  0  0  0  0  0  0  0  0  0  0  0
  -26.2592  -12.9916   22.0815 C   0  0  0  0  0  0  0  0  0  0  0  0
  -26.0743  -30.2635   26.1512 C   0  0  0  0  0  0  0  0  0  0  0  0
  -25.2390  -14.1255   22.0699 C   0  0  0  0  0  0  0  0  0  0  0  0
  -24.8365  -30.0350   25.2839 C   0  0  0  0  0  0  0  0  0  0  0  0
  -32.3837  -27.6407   18.7538 C   0  0  0  0  0  0  0  0  0  0  0  0
  -31.5460  -26.3943   18.7984 C   0  0  0  0  0  0  0  0  0  0  0  0
  -27.1595  -29.2405   25.8343 C   0  0  0  0  0  0  0  0  0  0  0  0
  -30.5529  -29.6915   22.3480 C   0  0  0  0  0  0  0  0  0  0  0  0
  -26.3369  -28.9898   23.5175 C   0  0  0  0  0  0  0  0  0  0  0  0
  -28.9690  -27.7890   22.4025 C   0  0  0  0  0  0  0  0  0  0  0  0
  -30.7840  -29.4806   20.8615 C   0  0  0  0  0  0  0  0  0  0  0  0
  -24.5616  -14.2441   20.6993 C   0  0  1  0  0  0  0  0  0  0  0  0
  -26.5121  -16.7436   18.6061 C   0  0  1  0  0  0  0  0  0  0  0  0
  -25.2083  -30.0035   23.7911 C   0  0  1  0  0  0  0  0  0  0  0  0
  -30.9217  -27.7298   19.0861 C   0  0  0  0  0  0  0  0  0  0  0  0
  -29.1654  -27.5329   20.9045 C   0  0  1  0  0  0  0  0  0  0  0  0
  -33.8119  -19.1732   19.5080 C   0  0  0  0  0  0  0  0  0  0  0  0
  -26.0783  -28.0059   17.7311 C   0  0  0  0  0  0  0  0  0  0  0  0
  -28.6256  -16.5848   22.7132 C   0  0  0  0  0  0  0  0  0  0  0  0
  -30.8885  -17.6522   22.8037 C   0  0  0  0  0  0  0  0  0  0  0  0
  -30.5919  -15.4570   21.6567 C   0  0  0  0  0  0  0  0  0  0  0  0
  -31.4810  -20.0064   16.6185 C   0  0  0  0  0  0  0  0  0  0  0  0
  -28.0666  -28.1528   20.0447 C   0  0  0  0  0  0  0  0  0  0  0  0
  -26.7947  -27.3035   20.0758 C   0  0  0  0  0  0  0  0  0  0  0  0
  -23.2503  -24.8823   18.9063 C   0  0  0  0  0  0  0  0  0  0  0  0
  -24.3620  -27.0744   19.3508 C   0  0  0  0  0  0  0  0  0  0  0  0
  -23.5102  -23.5091   18.3190 C   0  0  0  0  0  0  0  0  0  1  0  0
  -29.6908  -17.5547   20.5706 C   0  0  1  0  0  0  0  0  0  0  0  0
  -32.5984  -18.9929   18.6092 C   0  0  2  0  0  0  0  0  0  0  0  0
  -25.6624  -27.8793   19.2002 C   0  0  2  0  0  0  0  0  0  0  0  0
  -29.9275  -16.8253   21.9231 C   0  0  0  0  0  0  0  0  0  0  0  0
  -23.0095  -28.9667   23.3755 N   0  0  0  0  0  0  0  0  0  0  0  0
  -24.0005  -29.7454   22.9092 N   0  0  0  0  0  0  0  0  0  0  0  0
  -27.5652  -17.4826   19.3054 N   0  0  0  0  0  0  0  0  0  0  0  0
  -27.4794  -29.2340   24.4067 N   0  0  0  0  0  0  0  0  0  0  0  0
  -29.2654  -29.1718   22.8069 N   0  0  0  0  0  0  0  0  0  0  0  0
  -24.6760  -31.0208   21.0310 N   0  0  0  0  0  0  0  0  0  0  0  0
  -20.6655  -29.3648   19.7782 N   0  0  0  0  0  0  0  0  0  0  0  0
  -25.4396  -14.9044   19.7571 N   0  0  0  0  0  0  0  0  0  0  0  0
  -30.9031  -17.7716   19.7885 N   0  0  0  0  0  0  0  0  0  0  0  0
  -30.5434  -28.0351   20.5181 N   0  3  2  0  0  0  0  0  0  0  0  0
  -32.6075  -20.0751   17.5847 N   0  3  0  0  0  0  0  0  0  0  0  0
  -24.4969  -25.6930   18.8308 N   0  3  0  0  0  0  0  0  0  0  0  0
  -22.4372  -30.6581   19.1093 O   0  0  0  0  0  0  0  0  0  0  0  0
  -24.9177  -17.1055   20.3096 O   0  0  0  0  0  0  0  0  0  0  0  0
  -29.0242  -15.6639   19.3029 O   0  0  0  0  0  0  0  0  0  0  0  0
  -30.7209  -20.0804   19.6721 O   0  0  0  0  0  0  0  0  0  0  0  0
  -29.2879  -30.6509   24.5837 O   0  0  0  0  0  0  0  0  0  0  0  0
  -17.3684  -26.0644   22.8232 O   0  0  0  0  0  0  0  0  0  0  0  0
  -24.5280  -22.8567   19.0667 O   0  0  0  0  0  0  0  0  0  1  0  0
  -17.6604  -20.9588   24.8850 F   0  0  0  0  0  0  0  0  0  0  0  0
  -16.5410  -23.8852   21.3370 F   0  0  0  0  0  0  0  0  0  0  0  0
  1  2  1  0  0  0  0
  1  5  2  0  0  0  0
  2  6  2  0  0  0  0
  3  8  2  0  0  0  0
  3 15  1  0  0  0  0
  4  9  1  0  0  0  0
  4 15  2  0  0  0  0
  5 17  1  0  0  0  0
  6 19  1  0  0  0  0
  7 10  2  0  0  0  0
  7 18  1  0  0  0  0
  8 21  1  0  0  0  0
  9 21  2  0  0  0  0
 10 22  1  0  0  0  0
 11 12  2  0  0  0  0
 11 23  1  0  0  0  0
 12 24  1  0  0  0  0
 13 20  1  0  0  0  0
 13 22  2  0  0  0  0
 14 24  2  0  0  0  0
 14 25  1  0  0  0  0
 15 26  1  0  0  0  0
 16 26  1  0  0  0  0
 16 27  2  0  0  0  0
 16 28  1  0  0  0  0
 17 19  2  0  0  0  0
 17 33  1  0  0  0  0
 18 20  2  0  0  0  0
 18 34  1  0  0  0  0
 19 47  1  0  0  0  0
 20 35  1  0  0  0  0
 21 84  1  0  0  0  0
 22 85  1  0  0  0  0
 23 25  2  0  0  0  0
 23 84  1  0  0  0  0
 24 86  1  0  0  0  0
 25 87  1  0  0  0  0
 26 67  2  0  0  0  0
 27 68  1  0  0  0  0
 27 72  1  0  0  0  0
 28 73  1  0  0  0  0
 28 79  2  0  0  0  0
 29 48  1  0  0  0  0
 29 74  1  0  0  0  0
 29 80  2  0  0  0  0
 30 63  1  0  0  0  0
 30 69  1  0  0  0  0
 30 81  2  0  0  0  0
 31 64  1  0  0  0  0
 31 75  1  0  0  0  0
 31 82  2  0  0  0  0
 32 70  1  0  0  0  0
 32 71  1  0  0  0  0
 32 83  2  0  0  0  0
 33 36  1  0  0  0  0
 34 48  1  0  0  0  0
 35 69  1  0  0  0  0
 36 38  1  0  0  0  0
 37 39  1  0  0  0  0
 37 42  1  0  0  0  0
 38 47  1  0  0  0  0
 39 49  1  0  0  0  0
 40 41  1  0  0  0  0
 40 50  1  0  0  0  0
 41 50  1  0  0  0  0
 42 70  1  0  0  0  0
 43 46  1  0  0  0  0
 43 71  1  0  0  0  0
 44 49  1  0  0  0  0
 44 70  1  0  0  0  0
 45 51  1  0  0  0  0
 45 71  1  0  0  0  0
 46 76  1  0  0  0  0
 47 74  1  0  0  0  0
 48 69  1  0  0  0  0
 49 68  1  0  0  0  0
 50 76  1  0  0  0  0
 51 58  1  0  0  0  0
 51 76  1  0  0  0  0
 52 64  1  0  0  0  0
 53 65  1  0  0  0  0
 54 66  1  0  0  0  0
 55 66  1  0  0  0  0
 56 66  1  0  0  0  0
 57 77  1  0  0  0  0
 58 59  1  0  0  0  0
 59 65  1  0  0  0  0
 60 62  1  0  0  0  0
 60 78  1  0  0  0  0
 61 65  1  0  0  0  0
 61 78  1  0  0  0  0
 62 85  1  0  0  0  0
 63 66  1  0  0  0  0
 63 75  1  0  0  0  0
 64 77  1  0  0  0  0
 67 68  1  0  0  0  0
M  CHG  3  76   1  77   1  78   1
M  ISO  4  32 100  62 101  71 100  85 101
M  END
> <Batch ID>
0110

> <Smiles>
CNC(C)C(=O)NC(C(=O)N1Cc2cc([101O:1][101CH2:1]CNCC(C)CCC3C[100N:0]([100C:0](=O)N4CCCC(n5nc(-c6ccc(Oc7ccc(F)cc7F)cc6)c(C(N)=O)c5N)C4)CCN3C3CC3)ccc2CC1C(=O)NC1CCCc2ccccc21)C(C)(C)C

> <Shape>
0.254

> <Color>
0.056

> <Negative vol penalty>
0.000

$$$$

  -OEChem-04052319583D

 83 90  0     1  0  0  0  0  0999 V2000
  -17.2829  -30.1467   24.0255 C   0  0  0  0  0  0  0  0  0  0  0  0
  -18.2052  -29.7378   24.9834 C   0  0  0  0  0  0  0  0  0  0  0  0
  -24.3022  -13.6678   21.1363 C   0  0  0  0  0  0  0  0  0  0  0  0
  -26.5859  -13.3415   20.4185 C   0  0  0  0  0  0  0  0  0  0  0  0
  -17.3458  -29.6282   22.7328 C   0  0  0  0  0  0  0  0  0  0  0  0
  -19.1903  -28.8092   24.6494 C   0  0  0  0  0  0  0  0  0  0  0  0
  -25.9744  -27.0782   26.1650 C   0  0  0  0  0  0  0  0  0  0  0  0
  -23.9757  -12.3916   20.6779 C   0  0  0  0  0  0  0  0  0  0  0  0
  -26.2595  -12.0652   19.9601 C   0  0  0  0  0  0  0  0  0  0  0  0
  -26.7451  -25.9844   26.5567 C   0  0  0  0  0  0  0  0  0  0  0  0
  -24.3263   -9.1994   21.7362 C   0  0  0  0  0  0  0  0  0  0  0  0
  -23.5495   -8.3914   22.5664 C   0  0  0  0  0  0  0  0  0  0  0  0
  -26.8060  -25.2162   24.2708 C   0  0  0  0  0  0  0  0  0  0  0  0
  -21.8471   -8.2707   20.8563 C   0  0  0  0  0  0  0  0  0  0  0  0
  -25.6073  -14.1428   21.0065 C   0  0  0  0  0  0  0  0  0  0  0  0
  -26.3995  -15.8130   22.7645 C   0  0  0  0  0  0  0  0  0  0  0  0
  -18.3382  -28.7001   22.3801 C   0  0  0  0  0  0  0  0  0  0  0  0
  -25.6039  -27.2436   24.8226 C   0  0  0  0  0  0  0  0  0  0  0  0
  -19.2658  -28.2768   23.3511 C   0  0  0  0  0  0  0  0  0  0  0  0
  -26.0328  -26.3143   23.8642 C   0  0  0  0  0  0  0  0  0  0  0  0
  -24.9544  -11.5902   20.0898 C   0  0  0  0  0  0  0  0  0  0  0  0
  -27.1586  -25.0517   25.6101 C   0  0  0  0  0  0  0  0  0  0  0  0
  -23.8635   -9.5431   20.4660 C   0  0  0  0  0  0  0  0  0  0  0  0
  -22.3099   -7.9270   22.1265 C   0  0  0  0  0  0  0  0  0  0  0  0
  -22.6239   -9.0787   20.0260 C   0  0  0  0  0  0  0  0  0  0  0  0
  -25.9451  -15.4613   21.4794 C   0  0  0  0  0  0  0  0  0  0  0  0
  -26.5763  -17.1738   22.7057 C   0  0  0  0  0  0  0  0  0  0  0  0
  -26.6403  -14.9838   23.9091 C   0  0  0  0  0  0  0  0  0  0  0  0
  -22.8409  -27.3481   23.2547 C   0  0  0  0  0  0  0  0  0  0  0  0
  -24.7440  -28.1023   20.7384 C   0  0  0  0  0  0  0  0  0  0  0  0
  -27.8373  -27.9686   19.3029 C   0  0  0  0  0  0  0  0  0  0  0  0
  -28.4141  -21.7329   20.0632 C   0  0  0  0  0  0  0  0  0  0  0  0
  -18.3372  -28.1318   20.9831 C   0  0  0  0  0  0  0  0  0  0  0  0
  -24.7948  -28.4432   24.4119 C   0  0  0  0  0  0  0  0  0  0  0  0
  -25.6789  -26.4572   22.4072 C   0  0  0  0  0  0  0  0  0  0  0  0
  -19.6424  -27.4345   20.6082 C   0  0  0  0  0  0  0  0  0  0  0  0
  -25.1823  -20.5257   19.1831 C   0  0  0  0  0  0  0  0  0  0  0  0
  -20.0930  -26.5056   21.7311 C   0  0  0  0  0  0  0  0  0  0  0  0
  -25.1328  -19.1279   19.8025 C   0  0  0  0  0  0  0  0  0  0  0  0
  -26.5750  -20.8589   18.6526 C   0  0  0  0  0  0  0  0  0  0  0  0
  -27.6164  -19.2988   20.2511 C   0  0  0  0  0  0  0  0  0  0  0  0
  -20.3645  -27.2900   23.0205 C   0  0  1  0  0  0  0  0  0  0  0  0
  -24.0430  -28.2363   23.1006 C   0  0  1  0  0  0  0  0  0  0  0  0
  -26.2461  -18.9392   20.8505 C   0  0  2  0  0  0  0  0  0  0  0  0
  -24.7161  -21.0720   25.5396 C   0  0  0  0  0  0  0  0  0  0  0  0
  -29.0757  -28.6391   17.2259 C   0  0  0  0  0  0  0  0  0  0  0  0
  -27.3164  -22.1214   28.2402 C   0  0  0  0  0  0  0  0  0  0  0  0
  -23.4278  -25.8088   19.2162 C   0  0  0  0  0  0  0  0  0  0  0  0
  -25.3102  -25.9142   17.5689 C   0  0  0  0  0  0  0  0  0  0  0  0
  -23.8021  -27.8791   17.8642 C   0  0  0  0  0  0  0  0  0  0  0  0
  -32.1169  -23.1201   23.0953 C   0  0  0  0  0  0  0  0  0  0  0  0
  -32.1004  -20.8290   22.1121 C   0  0  0  0  0  0  0  0  0  0  0  0
  -29.7023  -29.6861   20.8297 C   0  0  0  0  0  0  0  0  0  0  0  0
  -25.6691  -20.9879   26.7229 C   0  0  0  0  0  0  0  0  0  0  0  0
  -30.2580  -22.4649   21.5543 C   0  0  0  0  0  0  0  0  0  0  0  0
  -28.5296  -21.7380   25.4593 C   0  0  0  0  0  0  0  0  0  0  0  0
  -30.4410  -21.3883   23.8898 C   0  0  0  0  0  0  0  0  0  0  0  0
  -25.4731  -27.3159   19.6759 C   0  0  1  0  0  0  0  0  0  0  0  0
  -28.6877  -29.0379   18.6412 C   0  0  2  0  0  0  0  0  0  0  0  0
  -26.4934  -22.2701   26.9522 C   0  0  2  0  0  0  0  0  0  0  0  0
  -27.3674  -22.6864   25.7435 C   0  0  1  0  0  0  0  0  0  1  0  0
  -24.5085  -26.7255   18.6090 C   0  0  0  0  0  0  0  0  0  0  0  0
  -31.2020  -21.9538   22.6687 C   0  0  0  0  0  0  0  0  0  0  0  0
  -25.8396  -16.5138   20.6638 N   0  0  0  0  0  0  0  0  0  0  0  0
  -26.2302  -17.5402   21.4383 N   0  0  0  0  0  0  0  0  0  0  0  0
  -24.8808  -27.6435   22.0562 N   0  0  0  0  0  0  0  0  0  0  0  0
  -27.5842  -20.6609   19.6957 N   0  0  0  0  0  0  0  0  0  0  0  0
  -26.9925  -18.0808   23.6149 N   0  0  0  0  0  0  0  0  0  0  0  0
  -26.4075  -13.6063   23.7971 N   0  0  0  0  0  0  0  0  0  0  0  0
  -21.6433  -27.9630   22.9429 N   0  0  0  0  0  0  0  0  0  0  0  0
  -26.4903  -28.2094   19.1326 N   0  0  0  0  0  0  0  0  0  0  0  0
  -29.3391  -21.4619   21.0641 N   0  0  0  0  0  0  0  0  0  0  0  0
  -29.9353  -29.2654   19.4241 N   0  3  0  0  0  0  0  0  0  0  0  0
  -29.2542  -22.2088   24.2479 N   0  3  0  0  0  0  0  0  0  0  0  0
  -27.0341  -15.4528   25.0038 O   0  0  0  0  0  0  0  0  0  0  0  0
  -22.9890  -26.1901   23.6274 O   0  0  0  0  0  0  0  0  0  0  0  0
  -24.0834  -29.0916   20.4120 O   0  0  0  0  0  0  0  0  0  0  0  0
  -28.3196  -27.0131   19.9071 O   0  0  0  0  0  0  0  0  0  0  0  0
  -28.3330  -22.8504   19.5420 O   0  0  0  0  0  0  0  0  0  0  0  0
  -24.6362  -10.3447   19.6426 O   0  0  0  0  0  0  0  0  0  0  0  0
  -27.9104  -23.9828   25.9899 O   0  0  0  0  0  0  0  0  0  1  0  0
  -21.5648   -7.1499   22.9233 F   0  0  0  0  0  0  0  0  0  0  0  0
  -22.1746   -9.4046   18.8063 F   0  0  0  0  0  0  0  0  0  0  0  0
  1  2  1  0  0  0  0
  1  5  2  0  0  0  0
  2  6  2  0  0  0  0
  3  8  2  0  0  0  0
  3 15  1  0  0  0  0
  4  9  1  0  0  0  0
  4 15  2  0  0  0  0
  5 17  1  0  0  0  0
  6 19  1  0  0  0  0
  7 10  2  0  0  0  0
  7 18  1  0  0  0  0
  8 21  1  0  0  0  0
  9 21  2  0  0  0  0
 10 22  1  0  0  0  0
 11 12  2  0  0  0  0
 11 23  1  0  0  0  0
 12 24  1  0  0  0  0
 13 20  1  0  0  0  0
 13 22  2  0  0  0  0
 14 24  2  0  0  0  0
 14 25  1  0  0  0  0
 15 26  1  0  0  0  0
 16 26  1  0  0  0  0
 16 27  2  0  0  0  0
 16 28  1  0  0  0  0
 17 19  2  0  0  0  0
 17 33  1  0  0  0  0
 18 20  2  0  0  0  0
 18 34  1  0  0  0  0
 19 42  1  0  0  0  0
 20 35  1  0  0  0  0
 21 80  1  0  0  0  0
 22 81  1  0  0  0  0
 23 25  2  0  0  0  0
 23 80  1  0  0  0  0
 24 82  1  0  0  0  0
 25 83  1  0  0  0  0
 26 64  2  0  0  0  0
 27 65  1  0  0  0  0
 27 68  1  0  0  0  0
 28 69  1  0  0  0  0
 28 75  2  0  0  0  0
 29 43  1  0  0  0  0
 29 70  1  0  0  0  0
 29 76  2  0  0  0  0
 30 58  1  0  0  0  0
 30 66  1  0  0  0  0
 30 77  2  0  0  0  0
 31 59  1  0  0  0  0
 31 71  1  0  0  0  0
 31 78  2  0  0  0  0
 32 67  1  0  0  0  0
 32 72  1  0  0  0  0
 32 79  2  0  0  0  0
 33 36  1  0  0  0  0
 34 43  1  0  0  0  0
 35 66  1  0  0  0  0
 36 38  1  0  0  0  0
 37 39  1  0  0  0  0
 37 40  1  0  0  0  0
 38 42  1  0  0  0  0
 39 44  1  0  0  0  0
 40 67  1  0  0  0  0
 41 44  1  0  0  0  0
 41 67  1  0  0  0  0
 42 70  1  0  0  0  0
 43 66  1  0  0  0  0
 44 65  1  0  0  0  0
 45 54  1  0  0  0  0
 46 59  1  0  0  0  0
 47 60  1  0  0  0  0
 48 62  1  0  0  0  0
 49 62  1  0  0  0  0
 50 62  1  0  0  0  0
 51 63  1  0  0  0  0
 52 63  1  0  0  0  0
 53 73  1  0  0  0  0
 54 60  1  0  0  0  0
 55 63  1  0  0  0  0
 55 72  1  0  0  0  0
 56 61  1  0  0  0  0
 56 74  1  0  0  0  0
 57 63  1  0  0  0  0
 57 74  1  0  0  0  0
 58 62  1  0  0  0  0
 58 71  1  0  0  0  0
 59 73  1  0  0  0  0
 60 61  1  0  0  0  0
 61 81  1  0  0  0  0
 64 65  1  0  0  0  0
M  CHG  2  73   1  74   1
M  ISO  4  32 100  61 101  72 100  81 101
M  END
> <Batch ID>
0110

> <Smiles>
CCC(C)[101CH:1](CNCC(C)(C)C[100NH:0][100C:0](=O)N1CCCC(n2nc(-c3ccc(Oc4ccc(F)cc4F)cc3)c(C(N)=O)c2N)C1)[101O:1]c1ccc2c(c1)CN(C(=O)C(NC(=O)C(C)NC)C(C)(C)C)C(C(=O)NC1CCCc3ccccc31)C2

> <Shape>
0.215

> <Color>
0.089

> <Negative vol penalty>
0.000

$$$$

  -OEChem-04052319583D

 83 91  0     1  0  0  0  0  0999 V2000
  -20.1935   -9.0401   19.1472 C   0  0  0  0  0  0  0  0  0  0  0  0
  -20.5770  -10.3609   18.9443 C   0  0  0  0  0  0  0  0  0  0  0  0
  -24.7688  -31.0625   24.4020 C   0  0  0  0  0  0  0  0  0  0  0  0
  -25.6792  -32.8541   23.0610 C   0  0  0  0  0  0  0  0  0  0  0  0
  -20.9874   -8.1993   19.9243 C   0  0  0  0  0  0  0  0  0  0  0  0
  -21.7606  -10.8381   19.5085 C   0  0  0  0  0  0  0  0  0  0  0  0
  -23.1778  -15.3720   18.2281 C   0  0  0  0  0  0  0  0  0  0  0  0
  -24.9737  -31.8209   25.5545 C   0  0  0  0  0  0  0  0  0  0  0  0
  -25.8842  -33.6126   24.2136 C   0  0  0  0  0  0  0  0  0  0  0  0
  -22.5255  -16.5201   18.6756 C   0  0  0  0  0  0  0  0  0  0  0  0
  -24.0316  -35.5165   26.3026 C   0  0  0  0  0  0  0  0  0  0  0  0
  -23.6558  -36.8593   26.2682 C   0  0  0  0  0  0  0  0  0  0  0  0
  -24.3100  -16.9126   20.2507 C   0  0  0  0  0  0  0  0  0  0  0  0
  -25.9361  -37.5093   26.7320 C   0  0  0  0  0  0  0  0  0  0  0  0
  -25.1216  -31.5791   23.1552 C   0  0  0  0  0  0  0  0  0  0  0  0
  -23.7598  -30.7743   21.1538 C   0  0  0  0  0  0  0  0  0  0  0  0
  -22.1747   -8.6707   20.5083 C   0  0  0  0  0  0  0  0  0  0  0  0
  -24.3977  -14.9789   18.7971 C   0  0  0  0  0  0  0  0  0  0  0  0
  -22.5877   -9.9984   20.2762 C   0  0  0  0  0  0  0  0  0  0  0  0
  -24.9770  -15.7605   19.8069 C   0  0  0  0  0  0  0  0  0  0  0  0
  -25.5314  -33.0960   25.4603 C   0  0  0  0  0  0  0  0  0  0  0  0
  -23.0902  -17.2890   19.6890 C   0  0  0  0  0  0  0  0  0  0  0  0
  -25.3596  -35.1700   26.5517 C   0  0  0  0  0  0  0  0  0  0  0  0
  -24.6080  -37.8557   26.4829 C   0  0  0  0  0  0  0  0  0  0  0  0
  -26.3119  -36.1664   26.7664 C   0  0  0  0  0  0  0  0  0  0  0  0
  -24.9107  -30.7959   21.9643 C   0  0  0  0  0  0  0  0  0  0  0  0
  -24.0586  -29.8777   20.1571 C   0  0  0  0  0  0  0  0  0  0  0  0
  -22.5307  -31.5000   21.2896 C   0  0  0  0  0  0  0  0  0  0  0  0
  -25.4028  -12.4316   20.4109 C   0  0  0  0  0  0  0  0  0  0  0  0
  -28.2917  -13.8808   20.1345 C   0  0  0  0  0  0  0  0  0  0  0  0
  -30.0529  -16.7695   19.6875 C   0  0  0  0  0  0  0  0  0  0  0  0
  -25.9825  -25.1501   18.4193 C   0  0  0  0  0  0  0  0  0  0  0  0
  -23.0001   -7.7154   21.3338 C   0  0  0  0  0  0  0  0  0  0  0  0
  -25.1018  -13.7525   18.2848 C   0  0  0  0  0  0  0  0  0  0  0  0
  -26.2949  -15.3930   20.4366 C   0  0  0  0  0  0  0  0  0  0  0  0
  -23.9935   -8.4251   22.2481 C   0  0  0  0  0  0  0  0  0  0  0  0
  -28.4217  -27.6905   18.8757 C   0  0  0  0  0  0  0  0  0  0  0  0
  -24.7824   -9.4575   21.4567 C   0  0  0  0  0  0  0  0  0  0  0  0
  -27.6338  -28.7243   19.6775 C   0  0  0  0  0  0  0  0  0  0  0  0
  -28.0894  -26.2574   19.2959 C   0  0  0  0  0  0  0  0  0  0  0  0
  -26.3659  -23.4379   16.6838 C   0  0  0  0  0  0  0  0  0  0  0  0
  -25.2578  -22.3665   16.7343 C   0  0  0  0  0  0  0  0  0  0  0  0
  -25.8535  -26.9850   20.0741 C   0  0  0  0  0  0  0  0  0  0  0  0
  -27.5220  -23.1779   18.8862 C   0  0  0  0  0  0  0  0  0  0  0  0
  -25.8734  -21.1824   18.8160 C   0  0  0  0  0  0  0  0  0  0  0  0
  -23.8553  -10.5480   20.9052 C   0  0  1  0  0  0  0  0  0  0  0  0
  -26.0860  -13.1643   19.2912 C   0  0  1  0  0  0  0  0  0  0  0  0
  -26.1259  -28.4268   19.6210 C   0  0  1  0  0  0  0  0  0  0  0  0
  -27.3220  -21.6716   18.6792 C   0  0  2  0  0  0  0  0  0  0  0  0
  -32.4011  -17.6430   19.5448 C   0  0  0  0  0  0  0  0  0  0  0  0
  -20.9685  -20.7954   20.9298 C   0  0  0  0  0  0  0  0  0  0  0  0
  -28.5639  -13.6368   23.1638 C   0  0  0  0  0  0  0  0  0  0  0  0
  -30.4097  -15.3254   23.0640 C   0  0  0  0  0  0  0  0  0  0  0  0
  -30.6552  -13.1407   21.8851 C   0  0  0  0  0  0  0  0  0  0  0  0
  -29.6438  -17.7504   16.9253 C   0  0  0  0  0  0  0  0  0  0  0  0
  -22.9325  -21.3258   19.4633 C   0  0  0  0  0  0  0  0  0  0  0  0
  -23.5818  -21.2606   18.0798 C   0  0  0  0  0  0  0  0  0  0  0  0
  -21.6493  -19.1131   19.1864 C   0  0  0  0  0  0  0  0  0  1  0  0
  -29.0704  -14.8785   20.9575 C   0  0  1  0  0  0  0  0  0  0  0  0
  -31.2085  -17.1121   18.7646 C   0  0  2  0  0  0  0  0  0  0  0  0
  -21.5693  -20.6059   19.5320 C   0  0  1  0  0  0  0  0  0  0  0  0
  -29.6490  -14.2515   22.2573 C   0  0  0  0  0  0  0  0  0  0  0  0
  -25.8689  -29.9778   21.5210 N   0  0  0  0  0  0  0  0  0  0  0  0
  -25.3209  -29.4338   20.4212 N   0  0  0  0  0  0  0  0  0  0  0  0
  -26.9415  -14.1815   19.9058 N   0  0  0  0  0  0  0  0  0  0  0  0
  -26.6395  -26.0273   19.2927 N   0  0  0  0  0  0  0  0  0  0  0  0
  -26.6888  -24.0090   17.9950 N   0  0  0  0  0  0  0  0  0  0  0  0
  -24.8624  -21.9680   18.0900 N   0  0  2  0  0  0  0  0  0  0  0  0
  -23.3620  -29.4336   19.0894 N   0  0  0  0  0  0  0  0  0  0  0  0
  -22.3904  -32.3799   22.3714 N   0  0  0  0  0  0  0  0  0  0  0  0
  -24.6022  -11.3857   19.9930 N   0  0  0  0  0  0  0  0  0  0  0  0
  -30.0780  -15.4442   20.0670 N   0  0  0  0  0  0  0  0  0  0  0  0
  -28.1525  -20.9527   19.6935 N   0  3  0  0  0  0  0  0  0  0  0  0
  -30.7935  -18.1488   17.7777 N   0  3  0  0  0  0  0  0  0  0  0  0
  -21.5787  -31.3595   20.4850 O   0  0  0  0  0  0  0  0  0  0  0  0
  -25.5894  -12.7877   21.5685 O   0  0  0  0  0  0  0  0  0  0  0  0
  -28.8623  -12.8753   19.7043 O   0  0  0  0  0  0  0  0  0  0  0  0
  -29.2141  -17.5959   20.0397 O   0  0  0  0  0  0  0  0  0  0  0  0
  -24.8172  -25.3576   18.0564 O   0  0  0  0  0  0  0  0  0  0  0  0
  -25.7313  -33.8364   26.5848 O   0  0  0  0  0  0  0  0  0  0  0  0
  -22.4506  -18.4181   20.1314 O   0  0  0  0  0  0  0  0  0  1  0  0
  -24.2473  -39.1452   26.4483 F   0  0  0  0  0  0  0  0  0  0  0  0
  -27.5894  -35.8398   27.0050 F   0  0  0  0  0  0  0  0  0  0  0  0
  1  2  1  0  0  0  0
  1  5  2  0  0  0  0
  2  6  2  0  0  0  0
  3  8  2  0  0  0  0
  3 15  1  0  0  0  0
  4  9  1  0  0  0  0
  4 15  2  0  0  0  0
  5 17  1  0  0  0  0
  6 19  1  0  0  0  0
  7 10  2  0  0  0  0
  7 18  1  0  0  0  0
  8 21  1  0  0  0  0
  9 21  2  0  0  0  0
 10 22  1  0  0  0  0
 11 12  2  0  0  0  0
 11 23  1  0  0  0  0
 12 24  1  0  0  0  0
 13 20  1  0  0  0  0
 13 22  2  0  0  0  0
 14 24  2  0  0  0  0
 14 25  1  0  0  0  0
 15 26  1  0  0  0  0
 16 26  1  0  0  0  0
 16 27  2  0  0  0  0
 16 28  1  0  0  0  0
 17 19  2  0  0  0  0
 17 33  1  0  0  0  0
 18 20  2  0  0  0  0
 18 34  1  0  0  0  0
 19 46  1  0  0  0  0
 20 35  1  0  0  0  0
 21 80  1  0  0  0  0
 22 81  1  0  0  0  0
 23 25  2  0  0  0  0
 23 80  1  0  0  0  0
 24 82  1  0  0  0  0
 25 83  1  0  0  0  0
 26 63  2  0  0  0  0
 27 64  1  0  0  0  0
 27 69  1  0  0  0  0
 28 70  1  0  0  0  0
 28 75  2  0  0  0  0
 29 47  1  0  0  0  0
 29 71  1  0  0  0  0
 29 76  2  0  0  0  0
 30 59  1  0  0  0  0
 30 65  1  0  0  0  0
 30 77  2  0  0  0  0
 31 60  1  0  0  0  0
 31 72  1  0  0  0  0
 31 78  2  0  0  0  0
 32 66  1  0  0  0  0
 32 67  1  0  0  0  0
 32 79  2  0  0  0  0
 33 36  1  0  0  0  0
 34 47  1  0  0  0  0
 35 65  1  0  0  0  0
 36 38  1  0  0  0  0
 37 39  1  0  0  0  0
 37 40  1  0  0  0  0
 38 46  1  0  0  0  0
 39 48  1  0  0  0  0
 40 66  1  0  0  0  0
 41 42  1  0  0  0  0
 41 67  1  0  0  0  0
 42 68  1  0  0  0  0
 43 48  1  0  0  0  0
 43 66  1  0  0  0  0
 44 49  1  0  0  0  0
 44 67  1  0  0  0  0
 45 49  1  0  0  0  0
 45 68  1  0  0  0  0
 46 71  1  0  0  0  0
 47 65  1  0  0  0  0
 48 64  1  0  0  0  0
 49 73  1  0  0  0  0
 50 60  1  0  0  0  0
 51 61  1  0  0  0  0
 52 62  1  0  0  0  0
 53 62  1  0  0  0  0
 54 62  1  0  0  0  0
 55 74  1  0  0  0  0
 56 57  1  0  0  0  0
 56 61  1  0  0  0  0
 57 68  1  0  0  0  0
 58 61  1  0  0  0  0
 58 81  1  0  0  0  0
 59 62  1  0  0  0  0
 59 72  1  0  0  0  0
 60 74  1  0  0  0  0
 63 64  1  0  0  0  0
M  CHG  2  73   1  74   1
M  ISO  4  32 100  58 101  67 100  81 101
M  END
> <Batch ID>
0110

> <Smiles>
CNC(C)C(=O)NC(C(=O)N1Cc2cc([101O:1][101CH2:1]C(C)CCN3CC[100N:0]([100C:0](=O)N4CCCC(n5nc(-c6ccc(Oc7ccc(F)cc7F)cc6)c(C(N)=O)c5N)C4)CC(N)C3)ccc2CC1C(=O)NC1CCCc2ccccc21)C(C)(C)C

> <Shape>
0.259

> <Color>
0.044

> <Negative vol penalty>
0.000

$$$$

  -OEChem-04052319583D

 84 92  0     1  0  0  0  0  0999 V2000
  -21.7976  -24.9642   28.1547 C   0  0  0  0  0  0  0  0  0  0  0  0
  -22.6119  -24.7124   27.0552 C   0  0  0  0  0  0  0  0  0  0  0  0
  -27.0080  -13.0920   21.0458 C   0  0  0  0  0  0  0  0  0  0  0  0
  -26.7791  -13.4847   18.6730 C   0  0  0  0  0  0  0  0  0  0  0  0
  -20.8687  -26.0029   28.1094 C   0  0  0  0  0  0  0  0  0  0  0  0
  -22.4969  -25.4985   25.9092 C   0  0  0  0  0  0  0  0  0  0  0  0
  -27.0109  -27.1689   22.1225 C   0  0  0  0  0  0  0  0  0  0  0  0
  -26.3116  -11.8906   20.9142 C   0  0  0  0  0  0  0  0  0  0  0  0
  -26.0827  -12.2833   18.5413 C   0  0  0  0  0  0  0  0  0  0  0  0
  -27.4422  -26.6637   20.8967 C   0  0  0  0  0  0  0  0  0  0  0  0
  -23.0958  -10.8970   20.6054 C   0  0  0  0  0  0  0  0  0  0  0  0
  -22.1023  -10.6185   21.5439 C   0  0  0  0  0  0  0  0  0  0  0  0
  -26.1150  -28.3221   19.7532 C   0  0  0  0  0  0  0  0  0  0  0  0
  -23.2848   -8.6169   22.2016 C   0  0  0  0  0  0  0  0  0  0  0  0
  -30.0212  -24.0054   18.1051 C   0  0  0  0  0  0  0  0  0  0  0  0
  -27.2417  -13.8891   19.9252 C   0  0  0  0  0  0  0  0  0  0  0  0
  -29.3512  -15.3231   19.9582 C   0  0  0  0  0  0  0  0  0  0  0  0
  -20.7490  -26.8083   26.9659 C   0  0  0  0  0  0  0  0  0  0  0  0
  -26.1185  -28.2494   22.1728 C   0  0  0  0  0  0  0  0  0  0  0  0
  -21.5646  -26.5481   25.8481 C   0  0  0  0  0  0  0  0  0  0  0  0
  -25.6760  -28.8408   20.9809 C   0  0  0  0  0  0  0  0  0  0  0  0
  -31.3000  -22.3765   17.2211 C   0  0  0  0  0  0  0  0  0  0  0  0
  -30.1309  -22.6383   17.9772 C   0  0  0  0  0  0  0  0  0  0  0  0
  -25.8490  -11.4862   19.6620 C   0  0  0  0  0  0  0  0  0  0  0  0
  -26.9919  -27.2384   19.7118 C   0  0  0  0  0  0  0  0  0  0  0  0
  -24.1838  -10.0355   20.4648 C   0  0  0  0  0  0  0  0  0  0  0  0
  -22.1967   -9.4785   22.3421 C   0  0  0  0  0  0  0  0  0  0  0  0
  -24.2783   -8.8955   21.2630 C   0  0  0  0  0  0  0  0  0  0  0  0
  -27.9604  -15.1305   20.0607 C   0  0  0  0  0  0  0  0  0  0  0  0
  -31.8693  -23.5916   16.9101 C   0  0  0  0  0  0  0  0  0  0  0  0
  -29.5273  -16.6698   20.1632 C   0  0  0  0  0  0  0  0  0  0  0  0
  -30.3909  -14.3700   19.7006 C   0  0  0  0  0  0  0  0  0  0  0  0
  -23.1745  -28.6767   23.2926 C   0  0  0  0  0  0  0  0  0  0  0  0
  -23.7402  -31.7702   22.4974 C   0  0  0  0  0  0  0  0  0  0  0  0
  -25.4799  -33.9986   20.5856 C   0  0  0  0  0  0  0  0  0  0  0  0
  -28.5837  -27.3391   18.0061 C   0  0  0  0  0  0  0  0  0  1  0  0
  -28.0684  -21.9665   19.2583 C   0  0  0  0  0  0  0  0  0  0  0  0
  -19.6976  -27.8895   26.9463 C   0  0  0  0  0  0  0  0  0  0  0  0
  -25.6837  -28.7997   23.5034 C   0  0  0  0  0  0  0  0  0  0  0  0
  -24.7333  -30.0154   20.9808 C   0  0  0  0  0  0  0  0  0  0  0  0
  -19.8983  -28.9141   25.8327 C   0  0  0  0  0  0  0  0  0  0  0  0
  -26.2908  -20.2049   21.7910 C   0  0  0  0  0  0  0  0  0  0  0  0
  -20.1935  -28.2141   24.5100 C   0  0  0  0  0  0  0  0  0  0  0  0
  -26.6812  -18.7435   21.5581 C   0  0  0  0  0  0  0  0  0  0  0  0
  -26.1456  -20.9695   20.4764 C   0  0  0  0  0  0  0  0  0  0  0  0
  -27.6940  -19.4233   19.3447 C   0  0  0  0  0  0  0  0  0  0  0  0
  -21.4868  -27.3947   24.5961 C   0  0  1  0  0  0  0  0  0  0  0  0
  -24.3715  -29.5744   23.4297 C   0  0  1  0  0  0  0  0  0  0  0  0
  -27.9156  -18.6290   20.6423 C   0  0  2  0  0  0  0  0  0  0  0  0
  -31.8161  -21.0467   16.8339 C   0  0  0  0  0  0  0  0  0  0  0  0
  -33.0936  -23.9027   16.1422 C   0  0  0  0  0  0  0  0  0  0  0  0
  -25.6965  -36.4572   20.1321 C   0  0  0  0  0  0  0  0  0  0  0  0
  -30.6805  -26.2003   14.9442 C   0  0  0  0  0  0  0  0  0  0  0  0
  -21.1515  -31.6982   20.8840 C   0  0  0  0  0  0  0  0  0  0  0  0
  -21.8987  -33.7868   19.7231 C   0  0  0  0  0  0  0  0  0  0  0  0
  -21.5103  -33.8023   22.1871 C   0  0  0  0  0  0  0  0  0  0  0  0
  -28.3124  -34.0251   21.4430 C   0  0  0  0  0  0  0  0  0  0  0  0
  -28.9422  -26.7078   16.6765 C   0  0  0  0  0  0  0  0  0  0  0  0
  -31.3330  -26.0590   17.3584 C   0  0  0  0  0  0  0  0  0  0  0  0
  -23.5376  -32.6101   21.2594 C   0  0  1  0  0  0  0  0  0  0  0  0
  -26.2106  -35.2796   20.9456 C   0  0  2  0  0  0  0  0  0  0  0  0
  -30.4424  -26.8013   16.3355 C   0  0  1  0  0  0  0  0  0  0  0  0
  -22.0408  -32.9510   21.0130 C   0  0  0  0  0  0  0  0  0  0  0  0
  -27.3000  -16.2640   20.3115 N   0  0  0  0  0  0  0  0  0  0  0  0
  -31.0836  -24.5746   17.4528 N   0  0  0  0  0  0  0  0  0  0  0  0
  -28.2800  -17.1819   20.3684 N   0  0  0  0  0  0  0  0  0  0  0  0
  -24.3319  -30.5134   22.3069 N   0  0  0  0  0  0  0  0  0  0  0  0
  -27.3541  -20.8190   19.6630 N   0  0  0  0  0  0  0  0  0  0  0  0
  -30.6260  -17.4539   20.1862 N   0  0  0  0  0  0  0  0  0  0  0  0
  -30.0350  -13.0274   19.5134 N   0  0  0  0  0  0  0  0  0  0  0  0
  -29.2183  -21.6980   18.5166 N   0  0  0  0  0  0  0  0  0  0  0  0
  -22.6417  -28.2613   24.4981 N   0  0  0  0  0  0  0  0  0  0  0  0
  -24.3989  -33.7775   21.4127 N   0  0  0  0  0  0  0  0  0  0  0  0
  -27.6711  -35.1326   20.6885 N   0  3  0  0  0  0  0  0  0  0  0  0
  -31.6011  -14.6966   19.6544 O   0  0  0  0  0  0  0  0  0  0  0  0
  -22.7636  -28.3838   22.1759 O   0  0  0  0  0  0  0  0  0  0  0  0
  -23.3931  -32.2159   23.5940 O   0  0  0  0  0  0  0  0  0  0  0  0
  -25.8305  -33.2691   19.6608 O   0  0  0  0  0  0  0  0  0  0  0  0
  -29.1991  -28.2516   18.5408 O   0  0  0  0  0  0  0  0  0  0  0  0
  -27.7028  -23.1024   19.5714 O   0  0  0  0  0  0  0  0  0  0  0  0
  -25.1697  -10.3138   19.5331 O   0  0  0  0  0  0  0  0  0  0  0  0
  -27.4107  -26.7469   18.5139 O   0  0  0  0  0  0  0  0  0  1  0  0
  -21.2434   -9.2119   23.2444 F   0  0  0  0  0  0  0  0  0  0  0  0
  -25.3217   -8.0647   21.1334 F   0  0  0  0  0  0  0  0  0  0  0  0
  1  2  1  0  0  0  0
  1  5  2  0  0  0  0
  2  6  2  0  0  0  0
  3  8  2  0  0  0  0
  3 16  1  0  0  0  0
  4  9  1  0  0  0  0
  4 16  2  0  0  0  0
  5 18  1  0  0  0  0
  6 20  1  0  0  0  0
  7 10  2  0  0  0  0
  7 19  1  0  0  0  0
  8 24  1  0  0  0  0
  9 24  2  0  0  0  0
 10 25  1  0  0  0  0
 11 12  2  0  0  0  0
 11 26  1  0  0  0  0
 12 27  1  0  0  0  0
 13 21  1  0  0  0  0
 13 25  2  0  0  0  0
 14 27  2  0  0  0  0
 14 28  1  0  0  0  0
 15 23  2  0  0  0  0
 15 65  1  0  0  0  0
 16 29  1  0  0  0  0
 17 29  1  0  0  0  0
 17 31  2  0  0  0  0
 17 32  1  0  0  0  0
 18 20  2  0  0  0  0
 18 38  1  0  0  0  0
 19 21  2  0  0  0  0
 19 39  1  0  0  0  0
 20 47  1  0  0  0  0
 21 40  1  0  0  0  0
 22 23  1  0  0  0  0
 22 30  2  0  0  0  0
 22 50  1  0  0  0  0
 23 71  1  0  0  0  0
 24 81  1  0  0  0  0
 25 82  1  0  0  0  0
 26 28  2  0  0  0  0
 26 81  1  0  0  0  0
 27 83  1  0  0  0  0
 28 84  1  0  0  0  0
 29 64  2  0  0  0  0
 30 51  1  0  0  0  0
 30 65  1  0  0  0  0
 31 66  1  0  0  0  0
 31 69  1  0  0  0  0
 32 70  1  0  0  0  0
 32 75  2  0  0  0  0
 33 48  1  0  0  0  0
 33 72  1  0  0  0  0
 33 76  2  0  0  0  0
 34 60  1  0  0  0  0
 34 67  1  0  0  0  0
 34 77  2  0  0  0  0
 35 61  1  0  0  0  0
 35 73  1  0  0  0  0
 35 78  2  0  0  0  0
 36 58  1  0  0  0  0
 36 79  2  0  0  0  0
 36 82  1  0  0  0  0
 37 68  1  0  0  0  0
 37 71  1  0  0  0  0
 37 80  2  0  0  0  0
 38 41  1  0  0  0  0
 39 48  1  0  0  0  0
 40 67  1  0  0  0  0
 41 43  1  0  0  0  0
 42 44  1  0  0  0  0
 42 45  1  0  0  0  0
 43 47  1  0  0  0  0
 44 49  1  0  0  0  0
 45 68  1  0  0  0  0
 46 49  1  0  0  0  0
 46 68  1  0  0  0  0
 47 72  1  0  0  0  0
 48 67  1  0  0  0  0
 49 66  1  0  0  0  0
 52 61  1  0  0  0  0
 53 62  1  0  0  0  0
 54 63  1  0  0  0  0
 55 63  1  0  0  0  0
 56 63  1  0  0  0  0
 57 74  1  0  0  0  0
 58 62  1  0  0  0  0
 59 62  1  0  0  0  0
 59 65  1  0  0  0  0
 60 63  1  0  0  0  0
 60 73  1  0  0  0  0
 61 74  1  0  0  0  0
 64 66  1  0  0  0  0
M  CHG  1  74   1
M  ISO  4  36 101  37 100  71 100  82 101
M  END
> <Batch ID>
0110

> <Smiles>
CNC(C)C(=O)NC(C(=O)N1Cc2cc([101O:1][101C:1](=O)CC(C)Cn3cc([100NH:0][100C:0](=O)N4CCCC(n5nc(-c6ccc(Oc7ccc(F)cc7F)cc6)c(C(N)=O)c5N)C4)c(C)c3C)ccc2CC1C(=O)NC1CCCc2ccccc21)C(C)(C)C

> <Shape>
0.226

> <Color>
0.081

> <Negative vol penalty>
0.000

$$$$

  -OEChem-04052319583D

 85 93  0     1  0  0  0  0  0999 V2000
  -21.9015  -12.2575   19.3286 C   0  0  0  0  0  0  0  0  0  0  0  0
  -21.8140  -13.5467   19.8443 C   0  0  0  0  0  0  0  0  0  0  0  0
  -29.5478  -27.9433   20.8906 C   0  0  0  0  0  0  0  0  0  0  0  0
  -28.2235  -27.5623   22.8750 C   0  0  0  0  0  0  0  0  0  0  0  0
  -23.1017  -11.5534   19.4151 C   0  0  0  0  0  0  0  0  0  0  0  0
  -22.9265  -14.1320   20.4477 C   0  0  0  0  0  0  0  0  0  0  0  0
  -23.6392  -18.9243   18.9741 C   0  0  0  0  0  0  0  0  0  0  0  0
  -30.7132  -27.8621   21.6527 C   0  0  0  0  0  0  0  0  0  0  0  0
  -29.3889  -27.4811   23.6372 C   0  0  0  0  0  0  0  0  0  0  0  0
  -22.8235  -19.8961   19.5519 C   0  0  0  0  0  0  0  0  0  0  0  0
  -32.0291  -26.8143   26.0461 C   0  0  0  0  0  0  0  0  0  0  0  0
  -32.1261  -25.7790   26.9758 C   0  0  0  0  0  0  0  0  0  0  0  0
  -24.6075  -20.4853   21.0649 C   0  0  0  0  0  0  0  0  0  0  0  0
  -18.6578  -26.9871   23.5050 C   0  0  0  0  0  0  0  0  0  0  0  0
  -31.8971  -24.1601   25.1970 C   0  0  0  0  0  0  0  0  0  0  0  0
  -28.3029  -27.7934   21.5018 C   0  0  0  0  0  0  0  0  0  0  0  0
  -26.4309  -26.8214   20.0670 C   0  0  0  0  0  0  0  0  0  0  0  0
  -24.2323  -12.1341   20.0112 C   0  0  0  0  0  0  0  0  0  0  0  0
  -24.9437  -18.7179   19.4454 C   0  0  0  0  0  0  0  0  0  0  0  0
  -24.1426  -13.4345   20.5434 C   0  0  0  0  0  0  0  0  0  0  0  0
  -25.4387  -19.5120   20.4897 C   0  0  0  0  0  0  0  0  0  0  0  0
  -17.7233  -28.0167   23.5089 C   0  0  0  0  0  0  0  0  0  0  0  0
  -17.9976  -29.1996   22.8316 C   0  0  0  0  0  0  0  0  0  0  0  0
  -30.6338  -27.6310   23.0260 C   0  0  0  0  0  0  0  0  0  0  0  0
  -23.3066  -20.6749   20.5994 C   0  0  0  0  0  0  0  0  0  0  0  0
  -31.8661  -26.5225   24.6918 C   0  0  0  0  0  0  0  0  0  0  0  0
  -32.0601  -24.4519   26.5513 C   0  0  0  0  0  0  0  0  0  0  0  0
  -31.8001  -25.1954   24.2673 C   0  0  0  0  0  0  0  0  0  0  0  0
  -27.0987  -27.8778   20.7151 C   0  0  0  0  0  0  0  0  0  0  0  0
  -19.2111  -29.3022   22.1708 C   0  0  0  0  0  0  0  0  0  0  0  0
  -19.8417  -27.1887   22.8139 C   0  0  0  0  0  0  0  0  0  0  0  0
  -25.3514  -27.4174   19.4620 C   0  0  0  0  0  0  0  0  0  0  0  0
  -26.7572  -25.4262   20.0164 C   0  0  0  0  0  0  0  0  0  0  0  0
  -26.4877  -16.2802   20.7787 C   0  0  0  0  0  0  0  0  0  0  0  0
  -29.0489  -18.2493   20.4872 C   0  0  0  0  0  0  0  0  0  0  0  0
  -30.2359  -21.4367   20.2076 C   0  0  0  0  0  0  0  0  0  0  0  0
  -21.5062  -31.6531   20.3493 C   0  0  0  0  0  0  0  0  0  0  0  0
  -25.4944  -11.3162   20.1237 C   0  0  0  0  0  0  0  0  0  0  0  0
  -25.8201  -17.6837   18.7936 C   0  0  0  0  0  0  0  0  0  0  0  0
  -26.8387  -19.3438   21.0188 C   0  0  0  0  0  0  0  0  0  0  0  0
  -26.7333  -12.1488   20.4434 C   0  0  0  0  0  0  0  0  0  0  0  0
  -24.2345  -32.0351   18.0938 C   0  0  0  0  0  0  0  0  0  0  0  0
  -26.4411  -13.1270   21.5768 C   0  0  0  0  0  0  0  0  0  0  0  0
  -25.1891  -30.9038   18.4796 C   0  0  0  0  0  0  0  0  0  0  0  0
  -23.5367  -32.6264   19.3167 C   0  0  0  0  0  0  0  0  0  0  0  0
  -23.7978  -30.5119   20.5555 C   0  0  0  0  0  0  0  0  0  0  0  0
  -25.3345  -14.1129   21.1831 C   0  0  1  0  0  0  0  0  0  0  0  0
  -26.9561  -17.2094   19.6948 C   0  0  1  0  0  0  0  0  0  0  0  0
  -24.4831  -29.8466   19.3497 C   0  0  2  0  0  0  0  0  0  0  0  0
  -16.4377  -27.8288   24.2445 C   0  0  0  0  0  0  0  0  0  0  0  0
  -17.0137  -30.3209   22.8198 C   0  0  0  0  0  0  0  0  0  0  0  0
  -32.3773  -22.7325   20.0257 C   0  0  0  0  0  0  0  0  0  0  0  0
  -29.5550  -17.8267   23.4664 C   0  0  0  0  0  0  0  0  0  0  0  0
  -31.0609  -19.8264   23.4232 C   0  0  0  0  0  0  0  0  0  0  0  0
  -31.6143  -17.8206   22.0472 C   0  0  0  0  0  0  0  0  0  0  0  0
  -29.4816  -22.5361   17.5654 C   0  0  0  0  0  0  0  0  0  0  0  0
  -19.5622  -30.5487   21.4264 C   0  0  0  0  0  0  0  0  0  0  0  0
  -22.2294  -23.9755   21.6343 C   0  0  0  0  0  0  0  0  0  0  0  0
  -22.8896  -25.2333   22.1883 C   0  0  0  0  0  0  0  0  0  0  0  0
  -23.1602  -22.7725   21.7105 C   0  0  0  0  0  0  0  0  0  1  0  0
  -21.9757  -26.4451   22.0732 C   0  0  0  0  0  0  0  0  0  0  0  0
  -29.6892  -19.3060   21.3546 C   0  0  1  0  0  0  0  0  0  0  0  0
  -31.2502  -22.0546   19.2621 C   0  0  2  0  0  0  0  0  0  0  0  0
  -30.4528  -18.6970   22.5644 C   0  0  0  0  0  0  0  0  0  0  0  0
  -26.4941  -29.0556   20.5384 N   0  0  0  0  0  0  0  0  0  0  0  0
  -20.1436  -28.3237   22.1445 N   0  0  0  0  0  0  0  0  0  0  0  0
  -25.4351  -28.7429   19.7722 N   0  0  0  0  0  0  0  0  0  0  0  0
  -27.6549  -18.3152   20.3528 N   0  0  0  0  0  0  0  0  0  0  0  0
  -22.8858  -31.5720   20.0980 N   0  0  0  0  0  0  0  0  0  0  0  0
  -24.3483  -26.9317   18.7003 N   0  0  0  0  0  0  0  0  0  0  0  0
  -27.9012  -24.9826   20.6937 N   0  0  0  0  0  0  0  0  0  0  0  0
  -25.8605  -15.1412   20.3111 N   0  0  0  0  0  0  0  0  0  0  0  0
  -30.5207  -20.1130   20.4682 N   0  0  0  0  0  0  0  0  0  0  0  0
  -20.9676  -30.6095   21.0918 N   0  0  0  0  0  0  0  0  0  0  0  0
  -30.5947  -23.0709   18.3913 N   0  3  0  0  0  0  0  0  0  0  0  0
  -26.0642  -24.6001   19.3754 O   0  0  0  0  0  0  0  0  0  0  0  0
  -26.6823  -16.5742   21.9523 O   0  0  0  0  0  0  0  0  0  0  0  0
  -29.7602  -17.4011   19.9431 O   0  0  0  0  0  0  0  0  0  0  0  0
  -29.2881  -22.0665   20.6718 O   0  0  0  0  0  0  0  0  0  0  0  0
  -20.8053  -32.5838   19.9375 O   0  0  0  0  0  0  0  0  0  0  0  0
  -31.7708  -27.5514   23.7699 O   0  0  0  0  0  0  0  0  0  0  0  0
  -22.5123  -21.6237   21.1656 O   0  0  0  0  0  0  0  0  0  1  0  0
  -20.7792  -26.1889   22.7955 O   0  0  0  0  0  0  0  0  0  0  0  0
  -32.1548  -23.4579   27.4440 F   0  0  0  0  0  0  0  0  0  0  0  0
  -31.6448  -24.9089   22.9674 F   0  0  0  0  0  0  0  0  0  0  0  0
  1  2  1  0  0  0  0
  1  5  2  0  0  0  0
  2  6  2  0  0  0  0
  3  8  2  0  0  0  0
  3 16  1  0  0  0  0
  4  9  1  0  0  0  0
  4 16  2  0  0  0  0
  5 18  1  0  0  0  0
  6 20  1  0  0  0  0
  7 10  2  0  0  0  0
  7 19  1  0  0  0  0
  8 24  1  0  0  0  0
  9 24  2  0  0  0  0
 10 25  1  0  0  0  0
 11 12  2  0  0  0  0
 11 26  1  0  0  0  0
 12 27  1  0  0  0  0
 13 21  1  0  0  0  0
 13 25  2  0  0  0  0
 14 22  2  0  0  0  0
 14 31  1  0  0  0  0
 15 27  2  0  0  0  0
 15 28  1  0  0  0  0
 16 29  1  0  0  0  0
 17 29  1  0  0  0  0
 17 32  2  0  0  0  0
 17 33  1  0  0  0  0
 18 20  2  0  0  0  0
 18 38  1  0  0  0  0
 19 21  2  0  0  0  0
 19 39  1  0  0  0  0
 20 47  1  0  0  0  0
 21 40  1  0  0  0  0
 22 23  1  0  0  0  0
 22 50  1  0  0  0  0
 23 30  2  0  0  0  0
 23 51  1  0  0  0  0
 24 81  1  0  0  0  0
 25 82  1  0  0  0  0
 26 28  2  0  0  0  0
 26 81  1  0  0  0  0
 27 84  1  0  0  0  0
 28 85  1  0  0  0  0
 29 65  2  0  0  0  0
 30 57  1  0  0  0  0
 30 66  1  0  0  0  0
 31 66  2  0  0  0  0
 31 83  1  0  0  0  0
 32 67  1  0  0  0  0
 32 70  1  0  0  0  0
 33 71  1  0  0  0  0
 33 76  2  0  0  0  0
 34 48  1  0  0  0  0
 34 72  1  0  0  0  0
 34 77  2  0  0  0  0
 35 62  1  0  0  0  0
 35 68  1  0  0  0  0
 35 78  2  0  0  0  0
 36 63  1  0  0  0  0
 36 73  1  0  0  0  0
 36 79  2  0  0  0  0
 37 69  1  0  0  0  0
 37 74  1  0  0  0  0
 37 80  2  0  0  0  0
 38 41  1  0  0  0  0
 39 48  1  0  0  0  0
 40 68  1  0  0  0  0
 41 43  1  0  0  0  0
 42 44  1  0  0  0  0
 42 45  1  0  0  0  0
 43 47  1  0  0  0  0
 44 49  1  0  0  0  0
 45 69  1  0  0  0  0
 46 49  1  0  0  0  0
 46 69  1  0  0  0  0
 47 72  1  0  0  0  0
 48 68  1  0  0  0  0
 49 67  1  0  0  0  0
 52 63  1  0  0  0  0
 53 64  1  0  0  0  0
 54 64  1  0  0  0  0
 55 64  1  0  0  0  0
 56 75  1  0  0  0  0
 57 74  1  0  0  0  0
 58 59  1  0  0  0  0
 58 60  1  0  0  0  0
 59 61  1  0  0  0  0
 60 82  1  0  0  0  0
 61 83  1  0  0  0  0
 62 64  1  0  0  0  0
 62 73  1  0  0  0  0
 63 75  1  0  0  0  0
 65 67  1  0  0  0  0
M  CHG  1  75   1
M  ISO  4  37 100  60 101  74 100  82 101
M  END
> <Batch ID>
0110

> <Smiles>
CNC(C)C(=O)NC(C(=O)N1Cc2cc([101O:1][101CH2:1]CCCOc3cc(C)c(C)c(C[100NH:0][100C:0](=O)N4CCCC(n5nc(-c6ccc(Oc7ccc(F)cc7F)cc6)c(C(N)=O)c5N)C4)n3)ccc2CC1C(=O)NC1CCCc2ccccc21)C(C)(C)C

> <Shape>
0.228

> <Color>
0.079

> <Negative vol penalty>
0.000

$$$$

  -OEChem-04052319583D

 83 91  0     1  0  0  0  0  0999 V2000
  -26.4124  -17.8378   29.6838 C   0  0  0  0  0  0  0  0  0  0  0  0
  -27.3851  -18.0850   28.7204 C   0  0  0  0  0  0  0  0  0  0  0  0
  -23.0004   -9.8937   19.9810 C   0  0  0  0  0  0  0  0  0  0  0  0
  -23.7248   -9.9452   22.2853 C   0  0  0  0  0  0  0  0  0  0  0  0
  -25.4747  -18.8217   29.9946 C   0  0  0  0  0  0  0  0  0  0  0  0
  -27.4200  -19.3161   28.0664 C   0  0  0  0  0  0  0  0  0  0  0  0
  -32.1074  -21.2020   27.7242 C   0  0  0  0  0  0  0  0  0  0  0  0
  -22.2337   -8.7593   20.2474 C   0  0  0  0  0  0  0  0  0  0  0  0
  -22.9581   -8.8109   22.5517 C   0  0  0  0  0  0  0  0  0  0  0  0
  -32.9396  -20.6652   26.7428 C   0  0  0  0  0  0  0  0  0  0  0  0
  -23.2023   -5.4718   22.0809 C   0  0  0  0  0  0  0  0  0  0  0  0
  -23.7895   -4.4548   22.8335 C   0  0  0  0  0  0  0  0  0  0  0  0
  -32.4727  -22.5569   25.3207 C   0  0  0  0  0  0  0  0  0  0  0  0
  -22.0650   -4.6983   24.5080 C   0  0  0  0  0  0  0  0  0  0  0  0
  -30.8326  -18.9064   22.8793 C   0  0  0  0  0  0  0  0  0  0  0  0
  -31.8534  -17.3616   21.6197 C   0  0  0  0  0  0  0  0  0  0  0  0
  -23.7461  -10.4866   21.0000 C   0  0  0  0  0  0  0  0  0  0  0  0
  -24.1316  -13.0021   20.8234 C   0  0  0  0  0  0  0  0  0  0  0  0
  -25.5040  -20.0689   29.3510 C   0  0  0  0  0  0  0  0  0  0  0  0
  -31.4419  -22.4169   27.5065 C   0  0  0  0  0  0  0  0  0  0  0  0
  -26.4810  -20.3171   28.3679 C   0  0  0  0  0  0  0  0  0  0  0  0
  -31.6346  -23.1083   26.3019 C   0  0  0  0  0  0  0  0  0  0  0  0
  -29.9488  -17.8634   22.7109 C   0  0  0  0  0  0  0  0  0  0  0  0
  -30.5945  -16.8862   21.9139 C   0  0  0  0  0  0  0  0  0  0  0  0
  -22.2125   -8.2179   21.5328 C   0  0  0  0  0  0  0  0  0  0  0  0
  -33.1200  -21.3412   25.5397 C   0  0  0  0  0  0  0  0  0  0  0  0
  -22.0465   -6.1022   22.5418 C   0  0  0  0  0  0  0  0  0  0  0  0
  -23.2208   -4.0680   24.0470 C   0  0  0  0  0  0  0  0  0  0  0  0
  -21.4778   -5.7154   23.7554 C   0  0  0  0  0  0  0  0  0  0  0  0
  -24.5387  -11.6581   20.7253 C   0  0  0  0  0  0  0  0  0  0  0  0
  -25.2416  -13.7245   20.4591 C   0  0  0  0  0  0  0  0  0  0  0  0
  -22.8636  -13.5487   21.2093 C   0  0  0  0  0  0  0  0  0  0  0  0
  -28.3950  -23.3084   27.3474 C   0  0  0  0  0  0  0  0  0  0  0  0
  -29.6796  -26.2812   27.1613 C   0  0  0  0  0  0  0  0  0  0  0  0
  -32.3633  -28.2330   26.3642 C   0  0  0  0  0  0  0  0  0  0  0  0
  -30.7210  -14.6853   20.6947 C   0  0  0  0  0  0  0  0  0  0  0  0
  -24.4404  -21.0841   29.6866 C   0  0  0  0  0  0  0  0  0  0  0  0
  -30.5686  -22.9958   28.5857 C   0  0  0  0  0  0  0  0  0  0  0  0
  -30.9590  -24.4260   26.0270 C   0  0  0  0  0  0  0  0  0  0  0  0
  -24.7768  -22.4969   29.2160 C   0  0  0  0  0  0  0  0  0  0  0  0
  -29.6034  -12.2317   18.3692 C   0  0  0  0  0  0  0  0  0  0  0  0
  -25.2801  -22.4743   27.7762 C   0  0  0  0  0  0  0  0  0  0  0  0
  -28.1527  -11.9743   18.7830 C   0  0  0  0  0  0  0  0  0  0  0  0
  -30.5035  -12.4755   19.5792 C   0  0  0  0  0  0  0  0  0  0  0  0
  -28.5877  -13.2649   20.9118 C   0  0  0  0  0  0  0  0  0  0  0  0
  -26.5667  -21.6489   27.6544 C   0  0  1  0  0  0  0  0  0  0  0  0
  -29.5364  -23.9847   28.0528 C   0  0  1  0  0  0  0  0  0  0  0  0
  -27.6305  -13.0782   19.7233 C   0  0  2  0  0  0  0  0  0  0  0  0
  -27.6539  -18.9060   22.7271 C   0  0  0  0  0  0  0  0  0  0  0  0
  -28.5538  -17.8067   24.8096 C   0  0  0  0  0  0  0  0  0  0  0  0
  -33.1003  -30.6304   26.2818 C   0  0  0  0  0  0  0  0  0  0  0  0
  -28.0354  -26.6969   24.6248 C   0  0  0  0  0  0  0  0  0  0  0  0
  -29.4935  -28.6592   24.0847 C   0  0  0  0  0  0  0  0  0  0  0  0
  -28.1058  -28.6717   26.1576 C   0  0  0  0  0  0  0  0  0  0  0  0
  -34.5389  -27.7522   28.3122 C   0  0  0  0  0  0  0  0  0  0  0  0
  -33.2181  -19.4629   22.1399 C   0  0  0  0  0  0  0  0  0  0  0  0
  -34.0382  -19.3973   24.5227 C   0  0  0  0  0  0  0  0  0  1  0  0
  -28.5814  -17.7915   23.2639 C   0  0  0  0  0  0  0  0  0  0  0  0
  -30.1419  -27.1777   26.0381 C   0  0  1  0  0  0  0  0  0  0  0  0
  -33.0478  -29.3601   27.1163 C   0  0  2  0  0  0  0  0  0  0  0  0
  -34.3260  -18.9815   23.0826 C   0  0  2  0  0  0  0  0  0  0  0  0
  -28.9555  -27.7756   25.2304 C   0  0  0  0  0  0  0  0  0  0  0  0
  -25.8081  -11.5313   20.3296 N   0  0  0  0  0  0  0  0  0  0  0  0
  -31.9872  -18.5903   22.2120 N   0  0  0  0  0  0  0  0  0  0  0  0
  -26.2083  -12.8050   20.1757 N   0  0  0  0  0  0  0  0  0  0  0  0
  -30.1100  -24.9478   27.1107 N   0  0  0  0  0  0  0  0  0  0  0  0
  -29.9482  -13.5368   20.4220 N   0  0  0  0  0  0  0  0  0  0  0  0
  -25.4752  -15.0502   20.3568 N   0  0  0  0  0  0  0  0  0  0  0  0
  -21.8316  -12.6648   21.5527 N   0  0  0  0  0  0  0  0  0  0  0  0
  -30.0765  -15.6409   21.4796 N   0  0  0  0  0  0  0  0  0  0  0  0
  -27.7016  -22.4083   28.1338 N   0  0  0  0  0  0  0  0  0  0  0  0
  -31.0146  -28.1764   26.6458 N   0  0  0  0  0  0  0  0  0  0  0  0
  -34.4425  -28.9734   27.4718 N   0  3  0  0  0  0  0  0  0  0  0  0
  -22.6470  -14.7841   21.2326 O   0  0  0  0  0  0  0  0  0  0  0  0
  -28.1598  -23.5841   26.1767 O   0  0  0  0  0  0  0  0  0  0  0  0
  -28.9687  -26.7487   28.0545 O   0  0  0  0  0  0  0  0  0  0  0  0
  -32.9640  -27.4806   25.6004 O   0  0  0  0  0  0  0  0  0  0  0  0
  -31.8598  -14.8240   20.2410 O   0  0  0  0  0  0  0  0  0  0  0  0
  -35.5589  -19.5809   22.6782 O   0  0  0  0  0  0  0  0  0  0  0  0
  -21.4643   -7.1112   21.7931 O   0  0  0  0  0  0  0  0  0  0  0  0
  -33.9313  -20.8192   24.5799 O   0  0  0  0  0  0  0  0  0  1  0  0
  -23.7839   -3.0902   24.7689 F   0  0  0  0  0  0  0  0  0  0  0  0
  -20.3668   -6.3165   24.2029 F   0  0  0  0  0  0  0  0  0  0  0  0
  1  2  1  0  0  0  0
  1  5  2  0  0  0  0
  2  6  2  0  0  0  0
  3  8  2  0  0  0  0
  3 17  1  0  0  0  0
  4  9  1  0  0  0  0
  4 17  2  0  0  0  0
  5 19  1  0  0  0  0
  6 21  1  0  0  0  0
  7 10  2  0  0  0  0
  7 20  1  0  0  0  0
  8 25  1  0  0  0  0
  9 25  2  0  0  0  0
 10 26  1  0  0  0  0
 11 12  2  0  0  0  0
 11 27  1  0  0  0  0
 12 28  1  0  0  0  0
 13 22  1  0  0  0  0
 13 26  2  0  0  0  0
 14 28  2  0  0  0  0
 14 29  1  0  0  0  0
 15 23  2  0  0  0  0
 15 64  1  0  0  0  0
 16 24  2  0  0  0  0
 16 64  1  0  0  0  0
 17 30  1  0  0  0  0
 18 30  1  0  0  0  0
 18 31  2  0  0  0  0
 18 32  1  0  0  0  0
 19 21  2  0  0  0  0
 19 37  1  0  0  0  0
 20 22  2  0  0  0  0
 20 38  1  0  0  0  0
 21 46  1  0  0  0  0
 22 39  1  0  0  0  0
 23 24  1  0  0  0  0
 23 58  1  0  0  0  0
 24 70  1  0  0  0  0
 25 80  1  0  0  0  0
 26 81  1  0  0  0  0
 27 29  2  0  0  0  0
 27 80  1  0  0  0  0
 28 82  1  0  0  0  0
 29 83  1  0  0  0  0
 30 63  2  0  0  0  0
 31 65  1  0  0  0  0
 31 68  1  0  0  0  0
 32 69  1  0  0  0  0
 32 74  2  0  0  0  0
 33 47  1  0  0  0  0
 33 71  1  0  0  0  0
 33 75  2  0  0  0  0
 34 59  1  0  0  0  0
 34 66  1  0  0  0  0
 34 76  2  0  0  0  0
 35 60  1  0  0  0  0
 35 72  1  0  0  0  0
 35 77  2  0  0  0  0
 36 67  1  0  0  0  0
 36 70  1  0  0  0  0
 36 78  2  0  0  0  0
 37 40  1  0  0  0  0
 38 47  1  0  0  0  0
 39 66  1  0  0  0  0
 40 42  1  0  0  0  0
 41 43  1  0  0  0  0
 41 44  1  0  0  0  0
 42 46  1  0  0  0  0
 43 48  1  0  0  0  0
 44 67  1  0  0  0  0
 45 48  1  0  0  0  0
 45 67  1  0  0  0  0
 46 71  1  0  0  0  0
 47 66  1  0  0  0  0
 48 65  1  0  0  0  0
 49 58  1  0  0  0  0
 50 58  1  0  0  0  0
 51 60  1  0  0  0  0
 52 62  1  0  0  0  0
 53 62  1  0  0  0  0
 54 62  1  0  0  0  0
 55 73  1  0  0  0  0
 56 61  1  0  0  0  0
 56 64  1  0  0  0  0
 57 61  1  0  0  0  0
 57 81  1  0  0  0  0
 59 62  1  0  0  0  0
 59 72  1  0  0  0  0
 60 73  1  0  0  0  0
 61 79  1  0  0  0  0
 63 65  1  0  0  0  0
M  CHG  1  73   1
M  ISO  4  36 100  57 101  70 100  81 101
M  END
> <Batch ID>
0110

> <Smiles>
CNC(C)C(=O)NC(C(=O)N1Cc2cc([101O:1][101CH2:1]C(O)Cn3cc([100NH:0][100C:0](=O)N4CCCC(n5nc(-c6ccc(Oc7ccc(F)cc7F)cc6)c(C(N)=O)c5N)C4)c(C(C)C)c3)ccc2CC1C(=O)NC1CCCc2ccccc21)C(C)(C)C

> <Shape>
0.179

> <Color>
0.193

> <Negative vol penalty>
0.000

$$$$

  -OEChem-04052319583D

 87 95  0     1  0  0  0  0  0999 V2000
  -22.9012  -10.4761   18.6133 C   0  0  0  0  0  0  0  0  0  0  0  0
  -22.2114  -11.5394   19.1869 C   0  0  0  0  0  0  0  0  0  0  0  0
  -21.8086  -30.2947   23.5695 C   0  0  0  0  0  0  0  0  0  0  0  0
  -21.7396  -30.0760   21.1644 C   0  0  0  0  0  0  0  0  0  0  0  0
  -24.2676  -10.3263   18.8464 C   0  0  0  0  0  0  0  0  0  0  0  0
  -22.8875  -12.4529   19.9949 C   0  0  0  0  0  0  0  0  0  0  0  0
  -22.9991  -19.4695   18.3684 C   0  0  0  0  0  0  0  0  0  0  0  0
  -22.8362  -31.2309   23.4549 C   0  0  0  0  0  0  0  0  0  0  0  0
  -22.7672  -31.0123   21.0498 C   0  0  0  0  0  0  0  0  0  0  0  0
  -22.8902  -20.8544   18.2403 C   0  0  0  0  0  0  0  0  0  0  0  0
  -26.1723  -31.2131   22.9122 C   0  0  0  0  0  0  0  0  0  0  0  0
  -27.2649  -31.0832   23.7695 C   0  0  0  0  0  0  0  0  0  0  0  0
  -24.3373  -21.1560   20.1541 C   0  0  0  0  0  0  0  0  0  0  0  0
  -28.4178  -25.3229   18.4476 C   0  0  0  0  0  0  0  0  0  0  0  0
  -26.8186  -33.2799   24.6709 C   0  0  0  0  0  0  0  0  0  0  0  0
  -28.4064  -26.4644   20.3883 C   0  0  0  0  0  0  0  0  0  0  0  0
  -21.2603  -29.7172   22.4242 C   0  0  0  0  0  0  0  0  0  0  0  0
  -18.8147  -29.0041   22.5584 C   0  0  0  0  0  0  0  0  0  0  0  0
  -24.9627  -11.2439   19.6498 C   0  0  0  0  0  0  0  0  0  0  0  0
  -23.7909  -18.9221   19.3817 C   0  0  0  0  0  0  0  0  0  0  0  0
  -24.2642  -12.3144   20.2401 C   0  0  0  0  0  0  0  0  0  0  0  0
  -24.4602  -19.7697   20.2797 C   0  0  0  0  0  0  0  0  0  0  0  0
  -29.1199  -26.2764   19.2253 C   0  0  0  0  0  0  0  0  0  0  0  0
  -23.3155  -31.5897   22.1951 C   0  0  0  0  0  0  0  0  0  0  0  0
  -23.5574  -21.6955   19.1311 C   0  0  0  0  0  0  0  0  0  0  0  0
  -25.4029  -32.3764   22.9341 C   0  0  0  0  0  0  0  0  0  0  0  0
  -27.5880  -32.1166   24.6489 C   0  0  0  0  0  0  0  0  0  0  0  0
  -25.7260  -33.4098   23.8135 C   0  0  0  0  0  0  0  0  0  0  0  0
  -20.1992  -28.7496   22.5420 C   0  0  0  0  0  0  0  0  0  0  0  0
  -27.2963  -24.9573   19.1590 C   0  0  0  0  0  0  0  0  0  0  0  0
  -18.2391  -27.7637   22.6869 C   0  0  0  0  0  0  0  0  0  0  0  0
  -18.1118  -30.2503   22.4657 C   0  0  0  0  0  0  0  0  0  0  0  0
  -25.1240  -15.8220   21.0213 C   0  0  0  0  0  0  0  0  0  0  0  0
  -27.4238  -17.8508   20.9485 C   0  0  0  0  0  0  0  0  0  0  0  0
  -29.8006  -20.2090   20.2950 C   0  0  0  0  0  0  0  0  0  0  0  0
  -22.7930  -24.5901   23.5182 C   0  0  0  0  0  0  0  0  0  0  0  0
  -26.4302  -11.0137   19.9114 C   0  0  0  0  0  0  0  0  0  0  0  0
  -23.8878  -17.4359   19.5951 C   0  0  0  0  0  0  0  0  0  0  0  0
  -25.2729  -19.1361   21.3756 C   0  0  0  0  0  0  0  0  0  0  0  0
  -27.1476  -12.2375   20.4753 C   0  0  0  0  0  0  0  0  0  0  0  0
  -20.2618  -24.5940   20.7224 C   0  0  0  0  0  0  0  0  0  0  0  0
  -26.3339  -12.8595   21.6058 C   0  0  0  0  0  0  0  0  0  0  0  0
  -18.9682  -24.6732   21.5206 C   0  0  0  0  0  0  0  0  0  0  0  0
  -21.3718  -23.9038   21.5077 C   0  0  0  0  0  0  0  0  0  0  0  0
  -20.3311  -24.6776   23.6412 C   0  0  0  0  0  0  0  0  0  0  0  0
  -24.9675  -13.3401   21.1023 C   0  0  1  0  0  0  0  0  0  0  0  0
  -25.2753  -16.9860   20.0866 C   0  0  1  0  0  0  0  0  0  0  0  0
  -19.1827  -25.3614   22.8775 C   0  0  1  0  0  0  0  0  0  0  0  0
  -30.2590  -27.8155   17.5860 C   0  0  0  0  0  0  0  0  0  0  0  0
  -31.5619  -25.9590   18.6865 C   0  0  0  0  0  0  0  0  0  0  0  0
  -32.2425  -20.6873   20.6199 C   0  0  0  0  0  0  0  0  0  0  0  0
  -22.7244  -24.2927   17.0752 C   0  0  0  0  0  0  0  0  0  0  0  0
  -26.8995  -18.5180   23.8783 C   0  0  0  0  0  0  0  0  0  0  0  0
  -29.0242  -19.8423   23.8834 C   0  0  0  0  0  0  0  0  0  0  0  0
  -29.0873  -17.3882   23.4406 C   0  0  0  0  0  0  0  0  0  0  0  0
  -30.2829  -20.3350   17.3778 C   0  0  0  0  0  0  0  0  0  0  0  0
  -26.2248  -24.0004   18.8137 C   0  0  0  0  0  0  0  0  0  0  0  0
  -25.0272  -24.6146   18.0486 C   0  0  0  0  0  0  0  0  0  0  0  0
  -26.3376  -24.3106   22.3008 C   0  0  0  0  0  0  0  0  0  0  0  0
  -26.2567  -25.5675   21.4206 C   0  0  0  0  0  0  0  0  0  0  0  0
  -30.3828  -26.9451   18.8585 C   0  0  0  0  0  0  0  0  0  0  0  0
  -28.1698  -18.9437   21.6712 C   0  0  1  0  0  0  0  0  0  0  0  0
  -31.1899  -20.0994   19.6931 C   0  0  2  0  0  0  0  0  0  0  0  0
  -23.9001  -23.6136   17.7661 C   0  0  1  0  0  0  0  0  0  1  0  0
  -25.2465  -24.1741   23.3712 C   0  0  1  0  0  0  0  0  0  0  0  0
  -28.2745  -18.6790   23.1998 C   0  0  0  0  0  0  0  0  0  0  0  0
  -20.4859  -27.4497   22.6515 N   0  0  0  0  0  0  0  0  0  0  0  0
  -27.2996  -25.6577   20.3370 N   0  0  0  0  0  0  0  0  0  0  0  0
  -19.2736  -26.8762   22.7380 N   0  0  0  0  0  0  0  0  0  0  0  0
  -26.0354  -17.9970   20.8411 N   0  0  0  0  0  0  0  0  0  0  0  0
  -21.5542  -24.4648   22.8540 N   0  0  0  0  0  0  0  0  0  0  0  0
  -16.9542  -27.3564   22.7601 N   0  0  0  0  0  0  0  0  0  0  0  0
  -18.8575  -31.4301   22.3378 N   0  0  0  0  0  0  0  0  0  0  0  0
  -25.1033  -14.5928   20.3904 N   0  0  0  0  0  0  0  0  0  0  0  0
  -29.4574  -19.0734   20.9977 N   0  0  0  0  0  0  0  0  0  0  0  0
  -23.9037  -24.1271   22.8211 N   0  0  0  0  0  0  0  0  0  0  0  0
  -31.2499  -20.8257   18.3931 N   0  3  0  0  0  0  0  0  0  0  0  0
  -16.8600  -30.3172   22.5120 O   0  0  0  0  0  0  0  0  0  0  0  0
  -25.0341  -16.0229   22.2268 O   0  0  0  0  0  0  0  0  0  0  0  0
  -28.0517  -16.8897   20.4954 O   0  0  0  0  0  0  0  0  0  0  0  0
  -29.0923  -21.2041   20.1589 O   0  0  0  0  0  0  0  0  0  0  0  0
  -22.8957  -25.0696   24.6527 O   0  0  0  0  0  0  0  0  0  0  0  0
  -25.4595  -23.0011   24.1428 O   0  0  0  0  0  0  0  0  0  0  0  0
  -24.3181  -32.5034   22.0829 O   0  0  0  0  0  0  0  0  0  0  0  0
  -23.4497  -23.0549   18.9967 O   0  0  0  0  0  0  0  0  0  1  0  0
  -28.6363  -31.9912   25.4732 F   0  0  0  0  0  0  0  0  0  0  0  0
  -24.9899  -34.5292   23.8400 F   0  0  0  0  0  0  0  0  0  0  0  0
  1  2  1  0  0  0  0
  1  5  2  0  0  0  0
  2  6  2  0  0  0  0
  3  8  2  0  0  0  0
  3 17  1  0  0  0  0
  4  9  1  0  0  0  0
  4 17  2  0  0  0  0
  5 19  1  0  0  0  0
  6 21  1  0  0  0  0
  7 10  2  0  0  0  0
  7 20  1  0  0  0  0
  8 24  1  0  0  0  0
  9 24  2  0  0  0  0
 10 25  1  0  0  0  0
 11 12  2  0  0  0  0
 11 26  1  0  0  0  0
 12 27  1  0  0  0  0
 13 22  1  0  0  0  0
 13 25  2  0  0  0  0
 14 23  1  0  0  0  0
 14 30  2  0  0  0  0
 15 27  2  0  0  0  0
 15 28  1  0  0  0  0
 16 23  2  0  0  0  0
 16 68  1  0  0  0  0
 17 29  1  0  0  0  0
 18 29  1  0  0  0  0
 18 31  2  0  0  0  0
 18 32  1  0  0  0  0
 19 21  2  0  0  0  0
 19 37  1  0  0  0  0
 20 22  2  0  0  0  0
 20 38  1  0  0  0  0
 21 46  1  0  0  0  0
 22 39  1  0  0  0  0
 23 61  1  0  0  0  0
 24 84  1  0  0  0  0
 25 85  1  0  0  0  0
 26 28  2  0  0  0  0
 26 84  1  0  0  0  0
 27 86  1  0  0  0  0
 28 87  1  0  0  0  0
 29 67  2  0  0  0  0
 30 57  1  0  0  0  0
 30 68  1  0  0  0  0
 31 69  1  0  0  0  0
 31 72  1  0  0  0  0
 32 73  1  0  0  0  0
 32 78  2  0  0  0  0
 33 47  1  0  0  0  0
 33 74  1  0  0  0  0
 33 79  2  0  0  0  0
 34 62  1  0  0  0  0
 34 70  1  0  0  0  0
 34 80  2  0  0  0  0
 35 63  1  0  0  0  0
 35 75  1  0  0  0  0
 35 81  2  0  0  0  0
 36 71  1  0  0  0  0
 36 76  1  0  0  0  0
 36 82  2  0  0  0  0
 37 40  1  0  0  0  0
 38 47  1  0  0  0  0
 39 70  1  0  0  0  0
 40 42  1  0  0  0  0
 41 43  1  0  0  0  0
 41 44  1  0  0  0  0
 42 46  1  0  0  0  0
 43 48  1  0  0  0  0
 44 71  1  0  0  0  0
 45 48  1  0  0  0  0
 45 71  1  0  0  0  0
 46 74  1  0  0  0  0
 47 70  1  0  0  0  0
 48 69  1  0  0  0  0
 49 61  1  0  0  0  0
 50 61  1  0  0  0  0
 51 63  1  0  0  0  0
 52 64  1  0  0  0  0
 53 66  1  0  0  0  0
 54 66  1  0  0  0  0
 55 66  1  0  0  0  0
 56 77  1  0  0  0  0
 57 58  1  0  0  0  0
 58 64  1  0  0  0  0
 59 60  1  0  0  0  0
 59 65  1  0  0  0  0
 60 68  1  0  0  0  0
 62 66  1  0  0  0  0
 62 75  1  0  0  0  0
 63 77  1  0  0  0  0
 64 85  1  0  0  0  0
 65 76  1  0  0  0  0
 65 83  1  0  0  0  0
 67 69  1  0  0  0  0
M  CHG  1  77   1
M  ISO  4  36 100  64 101  76 100  85 101
M  END
> <Batch ID>
0110

> <Smiles>
CNC(C)C(=O)NC(C(=O)N1Cc2cc([101O:1][101CH:1](C)CCc3cc(C(C)C)cn3CCC(O)[100NH:0][100C:0](=O)N3CCCC(n4nc(-c5ccc(Oc6ccc(F)cc6F)cc5)c(C(N)=O)c4N)C3)ccc2CC1C(=O)NC1CCCc2ccccc21)C(C)(C)C

> <Shape>
0.239

> <Color>
0.050

> <Negative vol penalty>
0.000

$$$$

  -OEChem-04052319583D

 81 89  0     1  0  0  0  0  0999 V2000
  -21.7331  -24.0283   19.0812 C   0  0  0  0  0  0  0  0  0  0  0  0
  -23.0548  -23.5942   19.0914 C   0  0  0  0  0  0  0  0  0  0  0  0
  -22.2905  -28.1859   20.6623 C   0  0  0  0  0  0  0  0  0  0  0  0
  -23.4643  -26.7697   22.2288 C   0  0  0  0  0  0  0  0  0  0  0  0
  -20.7706  -23.3453   19.8235 C   0  0  0  0  0  0  0  0  0  0  0  0
  -23.4149  -22.4774   19.8448 C   0  0  0  0  0  0  0  0  0  0  0  0
  -27.6670  -18.3013   18.4359 C   0  0  0  0  0  0  0  0  0  0  0  0
  -31.0935  -21.5686   20.3391 C   0  0  0  0  0  0  0  0  0  0  0  0
  -21.0863  -27.8989   21.3051 C   0  0  0  0  0  0  0  0  0  0  0  0
  -22.2601  -26.4827   22.8716 C   0  0  0  0  0  0  0  0  0  0  0  0
  -28.9930  -18.1408   18.8359 C   0  0  0  0  0  0  0  0  0  0  0  0
  -19.4602  -28.8808   24.1023 C   0  0  0  0  0  0  0  0  0  0  0  0
  -18.5966  -29.9439   24.3660 C   0  0  0  0  0  0  0  0  0  0  0  0
  -30.1231  -22.4744   19.9253 C   0  0  0  0  0  0  0  0  0  0  0  0
  -28.2854  -16.5816   20.5351 C   0  0  0  0  0  0  0  0  0  0  0  0
  -16.8888  -28.8905   23.0203 C   0  0  0  0  0  0  0  0  0  0  0  0
  -31.7521  -21.3162   18.0677 C   0  0  0  0  0  0  0  0  0  0  0  0
  -23.4795  -27.6213   21.1241 C   0  0  0  0  0  0  0  0  0  0  0  0
  -25.6113  -28.9708   20.7481 C   0  0  0  0  0  0  0  0  0  0  0  0
  -21.1172  -22.2139   20.5787 C   0  0  0  0  0  0  0  0  0  0  0  0
  -26.6375  -17.6102   19.0908 C   0  0  0  0  0  0  0  0  0  0  0  0
  -22.4564  -21.7795   20.5989 C   0  0  0  0  0  0  0  0  0  0  0  0
  -26.9475  -16.7330   20.1398 C   0  0  0  0  0  0  0  0  0  0  0  0
  -31.9276  -20.9741   19.3988 C   0  0  0  0  0  0  0  0  0  0  0  0
  -21.0711  -27.0473   22.4098 C   0  0  0  0  0  0  0  0  0  0  0  0
  -29.3020  -17.2831   19.8875 C   0  0  0  0  0  0  0  0  0  0  0  0
  -19.0381  -27.8224   23.2976 C   0  0  0  0  0  0  0  0  0  0  0  0
  -17.3109  -29.9488   23.8250 C   0  0  0  0  0  0  0  0  0  0  0  0
  -17.7524  -27.8273   22.7566 C   0  0  0  0  0  0  0  0  0  0  0  0
  -24.7236  -27.9169   20.4601 C   0  0  0  0  0  0  0  0  0  0  0  0
  -30.0284  -22.7495   18.5706 C   0  0  0  0  0  0  0  0  0  0  0  0
  -26.6332  -28.8158   19.8435 C   0  0  0  0  0  0  0  0  0  0  0  0
  -25.5204  -29.9981   21.7442 C   0  0  0  0  0  0  0  0  0  0  0  0
  -24.0782  -18.4640   20.7716 C   0  0  0  0  0  0  0  0  0  0  0  0
  -23.4542  -15.2815   20.7037 C   0  0  0  0  0  0  0  0  0  0  0  0
  -24.6495  -12.1009   20.3853 C   0  0  0  0  0  0  0  0  0  0  0  0
  -28.7628  -24.0972   16.8594 C   0  0  0  0  0  0  0  0  0  0  0  0
  -20.0510  -21.5365   21.4027 C   0  0  0  0  0  0  0  0  0  0  0  0
  -25.2151  -17.7738   18.6298 C   0  0  0  0  0  0  0  0  0  0  0  0
  -25.8811  -15.9525   20.8623 C   0  0  0  0  0  0  0  0  0  0  0  0
  -20.4433  -20.1396   21.8768 C   0  0  0  0  0  0  0  0  0  0  0  0
  -27.5231  -27.1240   15.4526 C   0  0  0  0  0  0  0  0  0  0  0  0
  -21.8572  -20.1476   22.4492 C   0  0  0  0  0  0  0  0  0  0  0  0
  -26.7504  -27.7696   16.6051 C   0  0  0  0  0  0  0  0  0  0  0  0
  -27.3751  -25.6035   15.4521 C   0  0  0  0  0  0  0  0  0  0  0  0
  -26.9336  -25.5927   17.8757 C   0  0  0  0  0  0  0  0  0  0  0  0
  -22.8813  -20.5576   21.3840 C   0  0  1  0  0  0  0  0  0  0  0  0
  -24.1936  -17.4130   19.7040 C   0  0  1  0  0  0  0  0  0  0  0  0
  -27.1053  -27.1184   17.9562 C   0  0  2  0  0  0  0  0  0  0  0  0
  -23.9047   -9.7046   20.4119 C   0  0  0  0  0  0  0  0  0  0  0  0
  -31.6965  -18.0872   22.1834 C   0  0  0  0  0  0  0  0  0  0  0  0
  -23.2269  -15.3883   23.7446 C   0  0  0  0  0  0  0  0  0  0  0  0
  -23.4354  -12.8936   23.7782 C   0  0  0  0  0  0  0  0  0  0  0  0
  -21.5047  -13.9666   22.6191 C   0  0  0  0  0  0  0  0  0  0  0  0
  -25.5553  -11.6674   17.6013 C   0  0  0  0  0  0  0  0  0  0  0  0
  -32.9898  -19.9888   19.8166 C   0  0  0  0  0  0  0  0  0  0  0  0
  -32.5080  -18.5309   19.8385 C   0  0  0  0  0  0  0  0  0  0  0  0
  -23.8058  -14.1042   21.5808 C   0  0  1  0  0  0  0  0  0  0  0  0
  -24.1768  -10.9262   19.5479 C   0  0  2  0  0  0  0  0  0  0  0  0
  -31.2841  -18.2908   20.7311 C   0  0  1  0  0  0  0  0  0  1  0  0
  -23.0133  -14.1042   22.9185 C   0  0  0  0  0  0  0  0  0  0  0  0
  -30.8207  -22.1918   17.6278 N   0  0  0  0  0  0  0  0  0  0  0  0
  -25.1445  -27.1492   19.4514 N   0  0  0  0  0  0  0  0  0  0  0  0
  -26.3079  -27.7213   19.0976 N   0  0  0  0  0  0  0  0  0  0  0  0
  -24.5048  -16.1513   20.3788 N   0  0  0  0  0  0  0  0  0  0  0  0
  -27.7324  -25.0562   16.7627 N   0  0  0  0  0  0  0  0  0  0  0  0
  -27.7693  -29.5104   19.6213 N   0  0  0  0  0  0  0  0  0  0  0  0
  -24.4038  -30.0106   22.5911 N   0  0  0  0  0  0  0  0  0  0  0  0
  -29.0362  -23.6738   18.1596 N   0  0  0  0  0  0  0  0  0  0  0  0
  -23.1527  -19.4511   20.4915 N   0  0  0  0  0  0  0  0  0  0  0  0
  -23.6012  -12.9120   20.7651 N   0  0  0  0  0  0  0  0  0  0  0  0
  -25.2076  -10.5647   18.5342 N   0  3  0  0  0  0  0  0  0  0  0  0
  -26.3952  -30.8885   21.8685 O   0  0  0  0  0  0  0  0  0  0  0  0
  -24.7761  -18.3844   21.7757 O   0  0  0  0  0  0  0  0  0  0  0  0
  -22.2917  -15.4203   20.3151 O   0  0  0  0  0  0  0  0  0  0  0  0
  -25.8302  -12.2788   20.6768 O   0  0  0  0  0  0  0  0  0  0  0  0
  -29.3772  -23.7024   15.8652 O   0  0  0  0  0  0  0  0  0  0  0  0
  -19.8963  -26.7673   23.0374 O   0  0  0  0  0  0  0  0  0  0  0  0
  -30.5953  -17.1252   20.2803 O   0  0  0  0  0  0  0  0  0  1  0  0
  -16.4813  -30.9691   24.0795 F   0  0  0  0  0  0  0  0  0  0  0  0
  -17.3408  -26.8128   21.9838 F   0  0  0  0  0  0  0  0  0  0  0  0
  1  2  1  0  0  0  0
  1  5  2  0  0  0  0
  2  6  2  0  0  0  0
  3  9  2  0  0  0  0
  3 18  1  0  0  0  0
  4 10  1  0  0  0  0
  4 18  2  0  0  0  0
  5 20  1  0  0  0  0
  6 22  1  0  0  0  0
  7 11  2  0  0  0  0
  7 21  1  0  0  0  0
  8 14  2  0  0  0  0
  8 24  1  0  0  0  0
  9 25  1  0  0  0  0
 10 25  2  0  0  0  0
 11 26  1  0  0  0  0
 12 13  2  0  0  0  0
 12 27  1  0  0  0  0
 13 28  1  0  0  0  0
 14 31  1  0  0  0  0
 15 23  1  0  0  0  0
 15 26  2  0  0  0  0
 16 28  2  0  0  0  0
 16 29  1  0  0  0  0
 17 24  2  0  0  0  0
 17 62  1  0  0  0  0
 18 30  1  0  0  0  0
 19 30  1  0  0  0  0
 19 32  2  0  0  0  0
 19 33  1  0  0  0  0
 20 22  2  0  0  0  0
 20 38  1  0  0  0  0
 21 23  2  0  0  0  0
 21 39  1  0  0  0  0
 22 47  1  0  0  0  0
 23 40  1  0  0  0  0
 24 56  1  0  0  0  0
 25 78  1  0  0  0  0
 26 79  1  0  0  0  0
 27 29  2  0  0  0  0
 27 78  1  0  0  0  0
 28 80  1  0  0  0  0
 29 81  1  0  0  0  0
 30 63  2  0  0  0  0
 31 62  2  0  0  0  0
 31 69  1  0  0  0  0
 32 64  1  0  0  0  0
 32 67  1  0  0  0  0
 33 68  1  0  0  0  0
 33 73  2  0  0  0  0
 34 48  1  0  0  0  0
 34 70  1  0  0  0  0
 34 74  2  0  0  0  0
 35 58  1  0  0  0  0
 35 65  1  0  0  0  0
 35 75  2  0  0  0  0
 36 59  1  0  0  0  0
 36 71  1  0  0  0  0
 36 76  2  0  0  0  0
 37 66  1  0  0  0  0
 37 69  1  0  0  0  0
 37 77  2  0  0  0  0
 38 41  1  0  0  0  0
 39 48  1  0  0  0  0
 40 65  1  0  0  0  0
 41 43  1  0  0  0  0
 42 44  1  0  0  0  0
 42 45  1  0  0  0  0
 43 47  1  0  0  0  0
 44 49  1  0  0  0  0
 45 66  1  0  0  0  0
 46 49  1  0  0  0  0
 46 66  1  0  0  0  0
 47 70  1  0  0  0  0
 48 65  1  0  0  0  0
 49 64  1  0  0  0  0
 50 59  1  0  0  0  0
 51 60  1  0  0  0  0
 52 61  1  0  0  0  0
 53 61  1  0  0  0  0
 54 61  1  0  0  0  0
 55 72  1  0  0  0  0
 56 57  1  0  0  0  0
 57 60  1  0  0  0  0
 58 61  1  0  0  0  0
 58 71  1  0  0  0  0
 59 72  1  0  0  0  0
 60 79  1  0  0  0  0
 63 64  1  0  0  0  0
M  CHG  1  72   1
M  ISO  4  37 100  60 101  69 100  79 101
M  END
> <Batch ID>
0110

> <Smiles>
CNC(C)C(=O)NC(C(=O)N1Cc2cc([101O:1][101CH:1](C)CCc3ccc([100NH:0][100C:0](=O)N4CCCC(n5nc(-c6ccc(Oc7ccc(F)cc7F)cc6)c(C(N)=O)c5N)C4)nc3)ccc2CC1C(=O)NC1CCCc2ccccc21)C(C)(C)C

> <Shape>
0.227

> <Color>
0.063

> <Negative vol penalty>
0.000

$$$$

  -OEChem-04052319583D

 86 94  0     1  0  0  0  0  0999 V2000
  -22.8925   -8.0658   20.6066 C   0  0  0  0  0  0  0  0  0  0  0  0
  -21.8348   -8.9680   20.5560 C   0  0  0  0  0  0  0  0  0  0  0  0
  -27.8513  -26.4671   18.3361 C   0  0  0  0  0  0  0  0  0  0  0  0
  -29.0691  -28.1557   19.5620 C   0  0  0  0  0  0  0  0  0  0  0  0
  -24.1527   -8.4933   21.0225 C   0  0  0  0  0  0  0  0  0  0  0  0
  -22.0365  -10.2983   20.9223 C   0  0  0  0  0  0  0  0  0  0  0  0
  -19.8043  -16.9215   19.3516 C   0  0  0  0  0  0  0  0  0  0  0  0
  -28.9164  -25.5812   18.4982 C   0  0  0  0  0  0  0  0  0  0  0  0
  -30.1343  -27.2698   19.7240 C   0  0  0  0  0  0  0  0  0  0  0  0
  -19.2989  -18.0632   19.9719 C   0  0  0  0  0  0  0  0  0  0  0  0
  -30.1399  -23.5749   20.9293 C   0  0  0  0  0  0  0  0  0  0  0  0
  -29.8426  -22.2662   21.3093 C   0  0  0  0  0  0  0  0  0  0  0  0
  -21.5378  -18.7065   20.5985 C   0  0  0  0  0  0  0  0  0  0  0  0
  -30.8698  -21.4445   19.2828 C   0  0  0  0  0  0  0  0  0  0  0  0
  -27.9276  -27.7544   18.8680 C   0  0  0  0  0  0  0  0  0  0  0  0
  -26.2885  -29.1380   17.4872 C   0  0  0  0  0  0  0  0  0  0  0  0
  -24.3722   -9.8316   21.3849 C   0  0  0  0  0  0  0  0  0  0  0  0
  -21.1815  -16.6577   19.3595 C   0  0  0  0  0  0  0  0  0  0  0  0
  -23.3005  -10.7439   21.3447 C   0  0  0  0  0  0  0  0  0  0  0  0
  -22.0584  -17.5621   19.9754 C   0  0  0  0  0  0  0  0  0  0  0  0
  -30.0579  -25.9825   19.1921 C   0  0  0  0  0  0  0  0  0  0  0  0
  -20.1653  -18.9544   20.5980 C   0  0  0  0  0  0  0  0  0  0  0  0
  -30.8022  -23.8185   19.7261 C   0  0  0  0  0  0  0  0  0  0  0  0
  -30.2075  -21.2010   20.4861 C   0  0  0  0  0  0  0  0  0  0  0  0
  -31.1671  -22.7532   18.9028 C   0  0  0  0  0  0  0  0  0  0  0  0
  -26.8279  -28.6701   18.7005 C   0  0  0  0  0  0  0  0  0  0  0  0
  -25.2695  -29.9775   17.8656 C   0  0  0  0  0  0  0  0  0  0  0  0
  -26.6741  -28.8402   16.1388 C   0  0  0  0  0  0  0  0  0  0  0  0
  -23.0138  -14.3344   20.5210 C   0  0  0  0  0  0  0  0  0  0  0  0
  -25.3592  -15.9275   18.9451 C   0  0  0  0  0  0  0  0  0  0  0  0
  -26.3186  -19.3672   18.4299 C   0  0  0  0  0  0  0  0  0  0  0  0
  -21.8762  -30.3110   22.7876 C   0  0  0  0  0  0  0  0  0  0  0  0
  -25.7406  -10.2364   21.8731 C   0  0  0  0  0  0  0  0  0  0  0  0
  -21.7135  -15.4354   18.6628 C   0  0  0  0  0  0  0  0  0  0  0  0
  -23.5472  -17.3352   19.9943 C   0  0  0  0  0  0  0  0  0  0  0  0
  -25.9604  -11.7470   21.8863 C   0  0  0  0  0  0  0  0  0  0  0  0
  -23.9355  -32.8781   21.4290 C   0  0  0  0  0  0  0  0  0  0  0  0
  -24.7652  -12.4549   22.5165 C   0  0  0  0  0  0  0  0  0  0  0  0
  -24.8616  -32.1330   20.4662 C   0  0  0  0  0  0  0  0  0  0  0  0
  -19.0962  -28.8730   21.8114 C   0  0  0  0  0  0  0  0  0  0  0  0
  -20.3099  -26.9623   22.9230 C   0  0  0  0  0  0  0  0  0  0  0  0
  -23.6358  -32.0512   22.6773 C   0  0  0  0  0  0  0  0  0  0  0  0
  -24.0392  -29.9525   21.4499 C   0  0  0  0  0  0  0  0  0  0  0  0
  -17.7642  -28.2397   22.1916 C   0  0  0  0  0  0  0  0  0  0  0  0
  -18.9717  -26.3380   23.2963 C   0  0  0  0  0  0  0  0  0  0  0  0
  -23.4856  -12.2006   21.7105 C   0  0  1  0  0  0  0  0  0  0  0  0
  -23.0830  -15.0029   19.1771 C   0  0  1  0  0  0  0  0  0  0  0  0
  -24.3254  -30.7238   20.1501 C   0  0  2  0  0  0  0  0  0  0  0  0
  -20.2038  -28.4815   22.7901 C   0  0  0  0  0  0  0  0  0  0  0  0
  -14.8917  -25.6073   24.3845 C   0  0  0  0  0  0  0  0  0  0  0  0
  -27.5768  -20.4453   16.5452 C   0  0  0  0  0  0  0  0  0  0  0  0
  -15.9645  -24.9279   19.7251 C   0  0  0  0  0  0  0  0  0  0  0  0
  -27.8084  -15.4810   20.7092 C   0  0  0  0  0  0  0  0  0  0  0  0
  -28.6747  -17.7036   19.9490 C   0  0  0  0  0  0  0  0  0  0  0  0
  -28.3205  -15.8722   18.2928 C   0  0  0  0  0  0  0  0  0  0  0  0
  -24.1514  -21.3245   17.9487 C   0  0  0  0  0  0  0  0  0  0  0  0
  -16.2524  -26.1909   24.0266 C   0  0  0  0  0  0  0  0  0  0  0  0
  -18.4407  -22.1354   20.9292 C   0  0  0  0  0  0  0  0  0  0  0  0
  -17.1656  -22.7808   20.3707 C   0  0  0  0  0  0  0  0  0  0  0  0
  -16.7194  -24.5740   22.1373 C   0  0  0  0  0  0  0  0  0  0  0  0
  -18.4822  -20.6332   20.6658 C   0  0  0  0  0  0  0  0  0  1  0  0
  -26.3156  -17.0420   19.2947 C   0  0  1  0  0  0  0  0  0  0  0  0
  -26.2065  -20.1584   17.1392 C   0  0  2  0  0  0  0  0  0  0  0  0
  -17.0103  -24.2947   20.6459 C   0  0  2  0  0  0  0  0  0  0  0  0
  -16.6132  -26.0559   22.5396 C   0  0  2  0  0  0  0  0  0  0  0  0
  -27.7543  -16.5226   19.5738 C   0  0  0  0  0  0  0  0  0  0  0  0
  -26.2033  -29.1710   19.7696 N   0  0  0  0  0  0  0  0  0  0  0  0
  -25.2610  -29.9624   19.2294 N   0  0  0  0  0  0  0  0  0  0  0  0
  -24.0182  -16.1225   19.3049 N   0  0  0  0  0  0  0  0  0  0  0  0
  -23.1293  -30.7271   22.3083 N   0  0  0  0  0  0  0  0  0  0  0  0
  -24.3889  -30.7199   17.1615 N   0  0  0  0  0  0  0  0  0  0  0  0
  -27.6406  -29.6494   15.5261 N   0  0  0  0  0  0  0  0  0  0  0  0
  -23.4634  -13.0278   20.5232 N   0  0  0  0  0  0  0  0  0  0  0  0
  -26.2303  -18.0095   18.2060 N   0  0  0  0  0  0  0  0  0  0  0  0
  -21.4683  -29.0451   22.3852 N   0  0  0  0  0  0  0  0  0  0  0  0
  -17.9272  -26.7416   22.2837 N   0  3  0  0  0  0  0  0  0  0  0  0
  -25.5198  -21.4578   17.3860 N   0  3  0  0  0  0  0  0  0  0  0  0
  -26.1643  -27.8950   15.4906 O   0  0  0  0  0  0  0  0  0  0  0  0
  -22.5856  -14.9584   21.4849 O   0  0  0  0  0  0  0  0  0  0  0  0
  -25.7849  -14.9241   18.3676 O   0  0  0  0  0  0  0  0  0  0  0  0
  -26.4729  -19.9002   19.5266 O   0  0  0  0  0  0  0  0  0  0  0  0
  -21.1706  -31.0176   23.5155 O   0  0  0  0  0  0  0  0  0  0  0  0
  -31.0974  -25.1183   19.3506 O   0  0  0  0  0  0  0  0  0  0  0  0
  -19.6709  -20.0777   21.2094 O   0  0  0  0  0  0  0  0  0  1  0  0
  -29.9232  -19.9441   20.8518 F   0  0  0  0  0  0  0  0  0  0  0  0
  -31.8046  -22.9809   17.7463 F   0  0  0  0  0  0  0  0  0  0  0  0
  1  2  1  0  0  0  0
  1  5  2  0  0  0  0
  2  6  2  0  0  0  0
  3  8  2  0  0  0  0
  3 15  1  0  0  0  0
  4  9  1  0  0  0  0
  4 15  2  0  0  0  0
  5 17  1  0  0  0  0
  6 19  1  0  0  0  0
  7 10  2  0  0  0  0
  7 18  1  0  0  0  0
  8 21  1  0  0  0  0
  9 21  2  0  0  0  0
 10 22  1  0  0  0  0
 11 12  2  0  0  0  0
 11 23  1  0  0  0  0
 12 24  1  0  0  0  0
 13 20  1  0  0  0  0
 13 22  2  0  0  0  0
 14 24  2  0  0  0  0
 14 25  1  0  0  0  0
 15 26  1  0  0  0  0
 16 26  1  0  0  0  0
 16 27  2  0  0  0  0
 16 28  1  0  0  0  0
 17 19  2  0  0  0  0
 17 33  1  0  0  0  0
 18 20  2  0  0  0  0
 18 34  1  0  0  0  0
 19 46  1  0  0  0  0
 20 35  1  0  0  0  0
 21 83  1  0  0  0  0
 22 84  1  0  0  0  0
 23 25  2  0  0  0  0
 23 83  1  0  0  0  0
 24 85  1  0  0  0  0
 25 86  1  0  0  0  0
 26 67  2  0  0  0  0
 27 68  1  0  0  0  0
 27 71  1  0  0  0  0
 28 72  1  0  0  0  0
 28 78  2  0  0  0  0
 29 47  1  0  0  0  0
 29 73  1  0  0  0  0
 29 79  2  0  0  0  0
 30 62  1  0  0  0  0
 30 69  1  0  0  0  0
 30 80  2  0  0  0  0
 31 63  1  0  0  0  0
 31 74  1  0  0  0  0
 31 81  2  0  0  0  0
 32 70  1  0  0  0  0
 32 75  1  0  0  0  0
 32 82  2  0  0  0  0
 33 36  1  0  0  0  0
 34 47  1  0  0  0  0
 35 69  1  0  0  0  0
 36 38  1  0  0  0  0
 37 39  1  0  0  0  0
 37 42  1  0  0  0  0
 38 46  1  0  0  0  0
 39 48  1  0  0  0  0
 40 44  1  0  0  0  0
 40 49  1  0  0  0  0
 41 45  1  0  0  0  0
 41 49  1  0  0  0  0
 42 70  1  0  0  0  0
 43 48  1  0  0  0  0
 43 70  1  0  0  0  0
 44 76  1  0  0  0  0
 45 76  1  0  0  0  0
 46 73  1  0  0  0  0
 47 69  1  0  0  0  0
 48 68  1  0  0  0  0
 49 75  1  0  0  0  0
 50 57  1  0  0  0  0
 51 63  1  0  0  0  0
 52 64  1  0  0  0  0
 53 66  1  0  0  0  0
 54 66  1  0  0  0  0
 55 66  1  0  0  0  0
 56 77  1  0  0  0  0
 57 65  1  0  0  0  0
 58 59  1  0  0  0  0
 58 61  1  0  0  0  0
 59 64  1  0  0  0  0
 60 64  1  0  0  0  0
 60 65  1  0  0  0  0
 61 84  1  0  0  0  0
 62 66  1  0  0  0  0
 62 74  1  0  0  0  0
 63 77  1  0  0  0  0
 65 76  1  0  0  0  0
 67 68  1  0  0  0  0
M  CHG  2  76   1  77   1
M  ISO  4  32 100  61 101  75 100  84 101
M  END
> <Batch ID>
0110

> <Smiles>
CCC(CC(C)CC[101CH2:1][101O:1]c1ccc2c(c1)CN(C(=O)C(NC(=O)C(C)NC)C(C)(C)C)C(C(=O)NC1CCCc3ccccc31)C2)N1CCC([100NH:0][100C:0](=O)N2CCCC(n3nc(-c4ccc(Oc5ccc(F)cc5F)cc4)c(C(N)=O)c3N)C2)CC1

> <Shape>
0.225

> <Color>
0.076

> <Negative vol penalty>
0.000

$$$$

  -OEChem-04052319583D

 87 95  0     1  0  0  0  0  0999 V2000
  -17.1406  -28.4509   24.6483 C   0  0  0  0  0  0  0  0  0  0  0  0
  -17.8996  -27.4221   24.0998 C   0  0  0  0  0  0  0  0  0  0  0  0
  -22.6706  -15.7422   21.5766 C   0  0  0  0  0  0  0  0  0  0  0  0
  -22.7567  -15.6175   19.1653 C   0  0  0  0  0  0  0  0  0  0  0  0
  -17.3140  -29.7594   24.1993 C   0  0  0  0  0  0  0  0  0  0  0  0
  -18.8318  -27.7011   23.1010 C   0  0  0  0  0  0  0  0  0  0  0  0
  -23.2540  -25.3532   23.8603 C   0  0  0  0  0  0  0  0  0  0  0  0
  -21.3016  -16.0024   21.5142 C   0  0  0  0  0  0  0  0  0  0  0  0
  -21.3878  -15.8776   19.1030 C   0  0  0  0  0  0  0  0  0  0  0  0
  -23.3204  -23.9994   23.5340 C   0  0  0  0  0  0  0  0  0  0  0  0
  -17.7158  -16.3418   22.0060 C   0  0  0  0  0  0  0  0  0  0  0  0
  -16.8838  -15.6522   22.8880 C   0  0  0  0  0  0  0  0  0  0  0  0
  -24.3982  -24.5607   21.4501 C   0  0  0  0  0  0  0  0  0  0  0  0
  -30.8935  -23.9796   19.4038 C   0  0  0  0  0  0  0  0  0  0  0  0
  -17.6168  -13.5546   21.9395 C   0  0  0  0  0  0  0  0  0  0  0  0
  -23.3982  -15.5498   20.4021 C   0  0  0  0  0  0  0  0  0  0  0  0
  -25.4357  -14.0223   20.5531 C   0  0  0  0  0  0  0  0  0  0  0  0
  -18.2557  -30.0560   23.2013 C   0  0  0  0  0  0  0  0  0  0  0  0
  -23.7502  -26.3233   22.9776 C   0  0  0  0  0  0  0  0  0  0  0  0
  -19.0171  -29.0147   22.6373 C   0  0  0  0  0  0  0  0  0  0  0  0
  -24.3392  -25.9261   21.7687 C   0  0  0  0  0  0  0  0  0  0  0  0
  -32.2933  -24.0548   19.1994 C   0  0  0  0  0  0  0  0  0  0  0  0
  -20.6602  -16.0701   20.2774 C   0  0  0  0  0  0  0  0  0  0  0  0
  -23.8899  -23.6031   22.3274 C   0  0  0  0  0  0  0  0  0  0  0  0
  -18.4983  -15.6377   21.0907 C   0  0  0  0  0  0  0  0  0  0  0  0
  -16.8343  -14.2587   22.8548 C   0  0  0  0  0  0  0  0  0  0  0  0
  -18.4488  -14.2441   21.0575 C   0  0  0  0  0  0  0  0  0  0  0  0
  -24.8124  -15.2816   20.4659 C   0  0  0  0  0  0  0  0  0  0  0  0
  -30.4113  -22.9818   18.5857 C   0  0  0  0  0  0  0  0  0  0  0  0
  -32.6240  -23.1007   18.2625 C   0  0  0  0  0  0  0  0  0  0  0  0
  -26.7793  -14.3058   20.5856 C   0  0  0  0  0  0  0  0  0  0  0  0
  -24.8525  -12.7134   20.6004 C   0  0  0  0  0  0  0  0  0  0  0  0
  -22.4808  -28.7581   21.3764 C   0  0  0  0  0  0  0  0  0  0  0  0
  -25.5734  -29.3516   20.5978 C   0  0  0  0  0  0  0  0  0  0  0  0
  -28.7424  -28.1496   20.1986 C   0  0  0  0  0  0  0  0  0  0  0  0
  -29.8852  -18.8803   18.5162 C   0  0  0  0  0  0  0  0  0  0  0  0
  -18.3742  -31.4787   22.7149 C   0  0  0  0  0  0  0  0  0  0  0  0
  -23.6952  -27.7779   23.3564 C   0  0  0  0  0  0  0  0  0  0  0  0
  -24.9047  -26.9269   20.7956 C   0  0  0  0  0  0  0  0  0  0  0  0
  -19.6482  -31.7457   21.9175 C   0  0  0  0  0  0  0  0  0  0  0  0
  -29.8561  -17.7120   21.9414 C   0  0  0  0  0  0  0  0  0  0  0  0
  -19.8747  -30.6429   20.8882 C   0  0  0  0  0  0  0  0  0  0  0  0
  -28.6061  -16.8302   21.9513 C   0  0  0  0  0  0  0  0  0  0  0  0
  -29.6527  -18.9496   21.0723 C   0  0  0  0  0  0  0  0  0  0  0  0
  -27.9945  -17.7758   19.6772 C   0  0  0  0  0  0  0  0  0  0  0  0
  -20.0559  -29.2811   21.5696 C   0  0  1  0  0  0  0  0  0  0  0  0
  -23.7667  -28.7120   22.1523 C   0  0  1  0  0  0  0  0  0  0  0  0
  -28.1444  -16.4965   20.5204 C   0  0  2  0  0  0  0  0  0  0  0  0
  -33.2204  -24.9868   19.8716 C   0  0  0  0  0  0  0  0  0  0  0  0
  -33.9385  -22.7488   17.6842 C   0  0  0  0  0  0  0  0  0  0  0  0
  -31.0491  -28.8648   19.5168 C   0  0  0  0  0  0  0  0  0  0  0  0
  -24.7062  -29.3510   17.6724 C   0  0  0  0  0  0  0  0  0  0  0  0
  -27.1147  -29.1140   17.0309 C   0  0  0  0  0  0  0  0  0  0  0  0
  -26.3499  -31.1377   18.2729 C   0  0  0  0  0  0  0  0  0  0  0  0
  -23.7460  -22.6174   19.6387 C   0  0  0  0  0  0  0  0  0  0  0  0
  -24.4964  -20.4243   20.5977 C   0  0  0  0  0  0  0  0  0  0  0  0
  -29.8671  -27.4508   22.8454 C   0  0  0  0  0  0  0  0  0  0  0  0
  -29.0084  -22.4821   18.4037 C   0  0  0  0  0  0  0  0  0  0  0  0
  -26.0214  -22.4133   20.7769 C   0  0  0  0  0  0  0  0  0  0  0  0
  -31.3879  -21.3801   16.9298 C   0  0  0  0  0  0  0  0  0  0  0  0
  -31.8308  -20.0332   17.4951 C   0  0  0  0  0  0  0  0  0  0  0  0
  -26.7657  -22.1891   19.4634 C   0  0  0  0  0  0  0  0  0  0  0  0
  -26.4964  -28.9226   19.4829 C   0  0  1  0  0  0  0  0  0  0  0  0
  -30.0853  -28.6713   20.6771 C   0  0  2  0  0  0  0  0  0  0  0  0
  -26.1545  -29.6124   18.1320 C   0  0  0  0  0  0  0  0  0  0  0  0
  -24.5519  -21.9474   20.7539 C   0  0  0  0  0  0  0  0  0  1  0  0
  -25.6880  -16.2900   20.4445 N   0  0  0  0  0  0  0  0  0  0  0  0
  -31.4721  -22.4548   17.8964 N   0  0  0  0  0  0  0  0  0  0  0  0
  -26.8752  -15.6647   20.5188 N   0  0  0  0  0  0  0  0  0  0  0  0
  -24.8217  -28.3376   21.2083 N   0  0  0  0  0  0  0  0  0  0  0  0
  -29.2321  -18.5619   19.7185 N   0  0  0  0  0  0  0  0  0  0  0  0
  -27.8761  -13.5228   20.6646 N   0  0  0  0  0  0  0  0  0  0  0  0
  -23.4560  -12.6023   20.5570 N   0  0  0  0  0  0  0  0  0  0  0  0
  -21.3893  -29.1647   22.1199 N   0  0  0  0  0  0  0  0  0  0  0  0
  -27.8531  -29.1751   19.9562 N   0  0  0  0  0  0  0  0  0  0  0  0
  -31.0462  -19.6332   18.6421 N   0  0  0  0  0  0  0  0  0  0  0  0
  -30.6980  -27.7157   21.6427 N   0  3  0  0  0  0  0  0  0  0  0  0
  -28.1767  -22.6201   19.6297 N   0  3  0  0  0  0  0  0  0  0  0  0
  -25.5484  -11.6741   20.6954 O   0  0  0  0  0  0  0  0  0  0  0  0
  -22.4793  -28.4492   20.1905 O   0  0  0  0  0  0  0  0  0  0  0  0
  -25.5265  -30.5414   20.9200 O   0  0  0  0  0  0  0  0  0  0  0  0
  -28.5072  -26.9524   20.0508 O   0  0  0  0  0  0  0  0  0  0  0  0
  -29.4674  -18.5158   17.4118 O   0  0  0  0  0  0  0  0  0  0  0  0
  -19.3244  -16.3237   20.2162 O   0  0  0  0  0  0  0  0  0  0  0  0
  -23.9554  -22.2824   22.0062 O   0  0  0  0  0  0  0  0  0  1  0  0
  -16.0365  -13.5966   23.7029 F   0  0  0  0  0  0  0  0  0  0  0  0
  -19.1991  -13.5622   20.1812 F   0  0  0  0  0  0  0  0  0  0  0  0
  1  2  1  0  0  0  0
  1  5  2  0  0  0  0
  2  6  2  0  0  0  0
  3  8  2  0  0  0  0
  3 16  1  0  0  0  0
  4  9  1  0  0  0  0
  4 16  2  0  0  0  0
  5 18  1  0  0  0  0
  6 20  1  0  0  0  0
  7 10  2  0  0  0  0
  7 19  1  0  0  0  0
  8 23  1  0  0  0  0
  9 23  2  0  0  0  0
 10 24  1  0  0  0  0
 11 12  2  0  0  0  0
 11 25  1  0  0  0  0
 12 26  1  0  0  0  0
 13 21  1  0  0  0  0
 13 24  2  0  0  0  0
 14 22  1  0  0  0  0
 14 29  2  0  0  0  0
 15 26  2  0  0  0  0
 15 27  1  0  0  0  0
 16 28  1  0  0  0  0
 17 28  1  0  0  0  0
 17 31  2  0  0  0  0
 17 32  1  0  0  0  0
 18 20  2  0  0  0  0
 18 37  1  0  0  0  0
 19 21  2  0  0  0  0
 19 38  1  0  0  0  0
 20 46  1  0  0  0  0
 21 39  1  0  0  0  0
 22 30  2  0  0  0  0
 22 49  1  0  0  0  0
 23 84  1  0  0  0  0
 24 85  1  0  0  0  0
 25 27  2  0  0  0  0
 25 84  1  0  0  0  0
 26 86  1  0  0  0  0
 27 87  1  0  0  0  0
 28 67  2  0  0  0  0
 29 58  1  0  0  0  0
 29 68  1  0  0  0  0
 30 50  1  0  0  0  0
 30 68  1  0  0  0  0
 31 69  1  0  0  0  0
 31 72  1  0  0  0  0
 32 73  1  0  0  0  0
 32 79  2  0  0  0  0
 33 47  1  0  0  0  0
 33 74  1  0  0  0  0
 33 80  2  0  0  0  0
 34 63  1  0  0  0  0
 34 70  1  0  0  0  0
 34 81  2  0  0  0  0
 35 64  1  0  0  0  0
 35 75  1  0  0  0  0
 35 82  2  0  0  0  0
 36 71  1  0  0  0  0
 36 76  1  0  0  0  0
 36 83  2  0  0  0  0
 37 40  1  0  0  0  0
 38 47  1  0  0  0  0
 39 70  1  0  0  0  0
 40 42  1  0  0  0  0
 41 43  1  0  0  0  0
 41 44  1  0  0  0  0
 42 46  1  0  0  0  0
 43 48  1  0  0  0  0
 44 71  1  0  0  0  0
 45 48  1  0  0  0  0
 45 71  1  0  0  0  0
 46 74  1  0  0  0  0
 47 70  1  0  0  0  0
 48 69  1  0  0  0  0
 51 64  1  0  0  0  0
 52 65  1  0  0  0  0
 53 65  1  0  0  0  0
 54 65  1  0  0  0  0
 55 66  1  0  0  0  0
 56 66  1  0  0  0  0
 57 77  1  0  0  0  0
 58 78  1  0  0  0  0
 59 62  1  0  0  0  0
 59 66  1  0  0  0  0
 60 61  1  0  0  0  0
 60 68  1  0  0  0  0
 61 76  1  0  0  0  0
 62 78  1  0  0  0  0
 63 65  1  0  0  0  0
 63 75  1  0  0  0  0
 64 77  1  0  0  0  0
 66 85  1  0  0  0  0
 67 69  1  0  0  0  0
M  CHG  2  77   1  78   1
M  ISO  4  36 100  66 101  76 100  85 101
M  END
> <Batch ID>
0110

> <Smiles>
CNC(C)C(=O)NC(C(=O)N1Cc2cc([101O:1][101C:1](C)(C)CCNCc3cc(C)c(C)n3CC[100NH:0][100C:0](=O)N3CCCC(n4nc(-c5ccc(Oc6ccc(F)cc6F)cc5)c(C(N)=O)c4N)C3)ccc2CC1C(=O)NC1CCCc2ccccc21)C(C)(C)C

> <Shape>
0.215

> <Color>
0.068

> <Negative vol penalty>
0.000

$$$$

  -OEChem-04052319583D

 80 88  0     1  0  0  0  0  0999 V2000
  -24.8226  -30.9925   20.2157 C   0  0  0  0  0  0  0  0  0  0  0  0
  -25.9773  -30.2200   20.2880 C   0  0  0  0  0  0  0  0  0  0  0  0
  -23.1881  -10.2579   22.1365 C   0  0  0  0  0  0  0  0  0  0  0  0
  -23.8306   -9.5308   19.9239 C   0  0  0  0  0  0  0  0  0  0  0  0
  -23.6572  -30.5632   20.8492 C   0  0  0  0  0  0  0  0  0  0  0  0
  -25.9675  -29.0181   20.9949 C   0  0  0  0  0  0  0  0  0  0  0  0
  -28.8833  -22.4752   20.9231 C   0  0  0  0  0  0  0  0  0  0  0  0
  -22.4660   -9.0779   22.3146 C   0  0  0  0  0  0  0  0  0  0  0  0
  -23.1085   -8.3508   20.1020 C   0  0  0  0  0  0  0  0  0  0  0  0
  -29.5681  -21.5920   21.7566 C   0  0  0  0  0  0  0  0  0  0  0  0
  -20.1576   -6.4155   23.2126 C   0  0  0  0  0  0  0  0  0  0  0  0
  -18.8798   -6.5122   23.7635 C   0  0  0  0  0  0  0  0  0  0  0  0
  -27.4754  -20.9115   22.7449 C   0  0  0  0  0  0  0  0  0  0  0  0
  -18.1927   -7.9184   21.9229 C   0  0  0  0  0  0  0  0  0  0  0  0
  -23.8704  -10.4844   20.9411 C   0  0  0  0  0  0  0  0  0  0  0  0
  -24.1165  -13.0190   20.7909 C   0  0  0  0  0  0  0  0  0  0  0  0
  -23.6304  -29.3507   21.5561 C   0  0  0  0  0  0  0  0  0  0  0  0
  -27.4881  -22.5913   21.0019 C   0  0  0  0  0  0  0  0  0  0  0  0
  -24.8010  -28.5727   21.6396 C   0  0  0  0  0  0  0  0  0  0  0  0
  -26.7750  -21.7951   21.9095 C   0  0  0  0  0  0  0  0  0  0  0  0
  -22.4262   -8.1243   21.2973 C   0  0  0  0  0  0  0  0  0  0  0  0
  -28.8645  -20.8121   22.6697 C   0  0  0  0  0  0  0  0  0  0  0  0
  -20.4530   -7.0703   22.0169 C   0  0  0  0  0  0  0  0  0  0  0  0
  -17.8973   -7.2636   23.1186 C   0  0  0  0  0  0  0  0  0  0  0  0
  -19.4706   -7.8217   21.3720 C   0  0  0  0  0  0  0  0  0  0  0  0
  -24.6161  -11.7034   20.7563 C   0  0  0  0  0  0  0  0  0  0  0  0
  -25.2156  -13.8099   20.5608 C   0  0  0  0  0  0  0  0  0  0  0  0
  -22.7785  -13.4847   21.0115 C   0  0  0  0  0  0  0  0  0  0  0  0
  -25.4697  -24.9396   21.7196 C   0  0  0  0  0  0  0  0  0  0  0  0
  -31.0879  -12.8671   21.4204 C   0  0  0  0  0  0  0  0  0  0  0  0
  -23.2335  -22.7620   20.8365 C   0  0  0  0  0  0  0  0  0  0  0  0
  -22.3926  -19.4818   20.4124 C   0  0  0  0  0  0  0  0  0  0  0  0
  -22.3602  -28.9512   22.2643 C   0  0  0  0  0  0  0  0  0  0  0  0
  -26.7617  -23.5293   20.0772 C   0  0  0  0  0  0  0  0  0  0  0  0
  -25.2746  -21.8674   22.0193 C   0  0  0  0  0  0  0  0  0  0  0  0
  -22.3299  -27.4822   22.6783 C   0  0  0  0  0  0  0  0  0  0  0  0
  -29.4583  -13.7912   18.3659 C   0  0  0  0  0  0  0  0  0  0  0  0
  -23.6447  -27.0877   23.3436 C   0  0  0  0  0  0  0  0  0  0  0  0
  -27.9907  -13.4535   18.6256 C   0  0  0  0  0  0  0  0  0  0  0  0
  -29.7779  -17.0799   23.2642 C   0  0  0  0  0  0  0  0  0  0  0  0
  -32.2752  -17.3960   23.1476 C   0  0  0  0  0  0  0  0  0  0  0  0
  -30.3898  -12.7951   19.0494 C   0  0  0  0  0  0  0  0  0  0  0  0
  -28.6884  -12.3158   20.7805 C   0  0  0  0  0  0  0  0  0  0  0  0
  -29.9876  -15.6777   23.8187 C   0  0  0  0  0  0  0  0  0  0  0  0
  -32.4724  -15.9924   23.7031 C   0  0  0  0  0  0  0  0  0  0  0  0
  -24.8232  -27.2509   22.3761 C   0  0  1  0  0  0  0  0  0  0  0  0
  -25.3889  -23.9402   20.6005 C   0  0  1  0  0  0  0  0  0  0  0  0
  -30.9476  -18.0093   23.6069 C   0  0  0  0  0  0  0  0  0  0  0  0
  -27.7137  -13.3154   20.1331 C   0  0  2  0  0  0  0  0  0  0  0  0
  -30.7964  -11.2744   23.3023 C   0  0  0  0  0  0  0  0  0  0  0  0
  -20.4820  -18.0124   19.7142 C   0  0  0  0  0  0  0  0  0  0  0  0
  -21.8836  -23.2413   23.5305 C   0  0  0  0  0  0  0  0  0  0  0  0
  -20.5902  -21.1264   23.1801 C   0  0  0  0  0  0  0  0  0  0  0  0
  -20.3104  -23.0343   21.5975 C   0  0  0  0  0  0  0  0  0  0  0  0
  -23.9317  -18.3595   18.1473 C   0  0  0  0  0  0  0  0  0  0  0  0
  -30.7437  -19.3891   22.9849 C   0  0  0  0  0  0  0  0  0  1  0  0
  -31.4991  -13.6977   23.7341 C   0  0  0  0  0  0  0  0  0  0  0  0
  -30.6915  -12.7316   22.8690 C   0  0  1  0  0  0  0  0  0  0  0  0
  -22.4489  -21.6865   21.5483 C   0  0  1  0  0  0  0  0  0  0  0  0
  -21.7292  -18.7531   19.2577 C   0  0  2  0  0  0  0  0  0  0  0  0
  -21.3367  -22.2720   22.4636 C   0  0  0  0  0  0  0  0  0  0  0  0
  -25.9303  -11.6568   20.5225 N   0  0  0  0  0  0  0  0  0  0  0  0
  -26.2658  -12.9531   20.4080 N   0  0  0  0  0  0  0  0  0  0  0  0
  -24.6104  -22.8042   21.0980 N   0  0  0  0  0  0  0  0  0  0  0  0
  -30.0800  -12.6758   20.4752 N   0  0  0  0  0  0  0  0  0  0  0  0
  -25.3766  -15.1475   20.4762 N   0  0  0  0  0  0  0  0  0  0  0  0
  -21.9376  -13.6510   19.9026 N   0  0  0  0  0  0  0  0  0  0  0  0
  -24.8636  -26.1492   21.4384 N   0  0  0  0  0  0  0  0  0  0  0  0
  -21.9567  -20.7862   20.5112 N   0  0  0  0  0  0  0  0  0  0  0  0
  -31.2987  -15.1276   23.3130 N   0  3  0  0  0  0  0  0  0  0  0  0
  -22.6705  -17.7645   18.6597 N   0  3  0  0  0  0  0  0  0  0  0  0
  -22.3467  -13.7612   22.1563 O   0  0  0  0  0  0  0  0  0  0  0  0
  -26.0384  -24.6353   22.7615 O   0  0  0  0  0  0  0  0  0  0  0  0
  -32.2584  -13.1378   21.1394 O   0  0  0  0  0  0  0  0  0  0  0  0
  -22.6477  -23.5316   20.0709 O   0  0  0  0  0  0  0  0  0  0  0  0
  -23.2126  -18.9462   21.1550 O   0  0  0  0  0  0  0  0  0  0  0  0
  -21.7218   -6.9726   21.4708 O   0  0  0  0  0  0  0  0  0  0  0  0
  -29.5305  -19.9497   23.4849 O   0  0  0  0  0  0  0  0  0  1  0  0
  -16.6699   -7.3551   23.6470 F   0  0  0  0  0  0  0  0  0  0  0  0
  -19.7481   -8.4520   20.2225 F   0  0  0  0  0  0  0  0  0  0  0  0
  1  2  1  0  0  0  0
  1  5  2  0  0  0  0
  2  6  2  0  0  0  0
  3  8  2  0  0  0  0
  3 15  1  0  0  0  0
  4  9  1  0  0  0  0
  4 15  2  0  0  0  0
  5 17  1  0  0  0  0
  6 19  1  0  0  0  0
  7 10  2  0  0  0  0
  7 18  1  0  0  0  0
  8 21  1  0  0  0  0
  9 21  2  0  0  0  0
 10 22  1  0  0  0  0
 11 12  2  0  0  0  0
 11 23  1  0  0  0  0
 12 24  1  0  0  0  0
 13 20  1  0  0  0  0
 13 22  2  0  0  0  0
 14 24  2  0  0  0  0
 14 25  1  0  0  0  0
 15 26  1  0  0  0  0
 16 26  1  0  0  0  0
 16 27  2  0  0  0  0
 16 28  1  0  0  0  0
 17 19  2  0  0  0  0
 17 33  1  0  0  0  0
 18 20  2  0  0  0  0
 18 34  1  0  0  0  0
 19 46  1  0  0  0  0
 20 35  1  0  0  0  0
 21 77  1  0  0  0  0
 22 78  1  0  0  0  0
 23 25  2  0  0  0  0
 23 77  1  0  0  0  0
 24 79  1  0  0  0  0
 25 80  1  0  0  0  0
 26 62  2  0  0  0  0
 27 63  1  0  0  0  0
 27 66  1  0  0  0  0
 28 67  1  0  0  0  0
 28 72  2  0  0  0  0
 29 47  1  0  0  0  0
 29 68  1  0  0  0  0
 29 73  2  0  0  0  0
 30 58  1  0  0  0  0
 30 65  1  0  0  0  0
 30 74  2  0  0  0  0
 31 59  1  0  0  0  0
 31 64  1  0  0  0  0
 31 75  2  0  0  0  0
 32 60  1  0  0  0  0
 32 69  1  0  0  0  0
 32 76  2  0  0  0  0
 33 36  1  0  0  0  0
 34 47  1  0  0  0  0
 35 64  1  0  0  0  0
 36 38  1  0  0  0  0
 37 39  1  0  0  0  0
 37 42  1  0  0  0  0
 38 46  1  0  0  0  0
 39 49  1  0  0  0  0
 40 44  1  0  0  0  0
 40 48  1  0  0  0  0
 41 45  1  0  0  0  0
 41 48  1  0  0  0  0
 42 65  1  0  0  0  0
 43 49  1  0  0  0  0
 43 65  1  0  0  0  0
 44 70  1  0  0  0  0
 45 70  1  0  0  0  0
 46 68  1  0  0  0  0
 47 64  1  0  0  0  0
 48 56  1  0  0  0  0
 49 63  1  0  0  0  0
 50 58  1  0  0  0  0
 51 60  1  0  0  0  0
 52 61  1  0  0  0  0
 53 61  1  0  0  0  0
 54 61  1  0  0  0  0
 55 71  1  0  0  0  0
 56 78  1  0  0  0  0
 57 58  1  0  0  0  0
 57 70  1  0  0  0  0
 59 61  1  0  0  0  0
 59 69  1  0  0  0  0
 60 71  1  0  0  0  0
 62 63  1  0  0  0  0
M  CHG  2  70   1  71   1
M  ISO  4  30 100  56 101  58 100  78 101
M  END
> <Batch ID>
0110

> <Smiles>
CNC(C)C(=O)NC(C(=O)N1Cc2cc([101O:1][101CH2:1]C3CCN(C[100CH:0](C)[100C:0](=O)N4CCCC(n5nc(-c6ccc(Oc7ccc(F)cc7F)cc6)c(C(N)=O)c5N)C4)CC3)ccc2CC1C(=O)NC1CCCc2ccccc21)C(C)(C)C

> <Shape>
0.197

> <Color>
0.163

> <Negative vol penalty>
0.000

$$$$

  -OEChem-04052319583D

 81 89  0     1  0  0  0  0  0999 V2000
  -33.3520  -20.1001   21.9047 C   0  0  0  0  0  0  0  0  0  0  0  0
  -32.2769  -20.7340   22.5193 C   0  0  0  0  0  0  0  0  0  0  0  0
  -27.4804  -28.4166   19.1368 C   0  0  0  0  0  0  0  0  0  0  0  0
  -27.7200  -27.9191   21.4888 C   0  0  0  0  0  0  0  0  0  0  0  0
  -33.1546  -19.3789   20.7279 C   0  0  0  0  0  0  0  0  0  0  0  0
  -31.0039  -20.6480   21.9568 C   0  0  0  0  0  0  0  0  0  0  0  0
  -24.0878  -20.4014   23.8071 C   0  0  0  0  0  0  0  0  0  0  0  0
  -28.6521  -27.7093   18.8678 C   0  0  0  0  0  0  0  0  0  0  0  0
  -28.8917  -27.2117   21.2199 C   0  0  0  0  0  0  0  0  0  0  0  0
  -22.8758  -21.0326   23.5308 C   0  0  0  0  0  0  0  0  0  0  0  0
  -29.5932  -24.4773   18.5486 C   0  0  0  0  0  0  0  0  0  0  0  0
  -29.5847  -23.5959   17.4676 C   0  0  0  0  0  0  0  0  0  0  0  0
  -22.6394  -19.6931   21.5385 C   0  0  0  0  0  0  0  0  0  0  0  0
  -31.3765  -24.8450   16.4351 C   0  0  0  0  0  0  0  0  0  0  0  0
  -27.0143  -28.5215   20.4473 C   0  0  0  0  0  0  0  0  0  0  0  0
  -25.5533  -30.6126   20.4633 C   0  0  0  0  0  0  0  0  0  0  0  0
  -31.8768  -19.2759   20.1559 C   0  0  0  0  0  0  0  0  0  0  0  0
  -24.5909  -19.4174   22.9440 C   0  0  0  0  0  0  0  0  0  0  0  0
  -30.7894  -19.9258   20.7705 C   0  0  0  0  0  0  0  0  0  0  0  0
  -23.8568  -19.0491   21.8075 C   0  0  0  0  0  0  0  0  0  0  0  0
  -29.3578  -27.1068   19.9093 C   0  0  0  0  0  0  0  0  0  0  0  0
  -22.1528  -20.6805   22.3948 C   0  0  0  0  0  0  0  0  0  0  0  0
  -30.4933  -25.5426   18.5729 C   0  0  0  0  0  0  0  0  0  0  0  0
  -30.4764  -23.7798   16.4108 C   0  0  0  0  0  0  0  0  0  0  0  0
  -31.3850  -25.7265   17.5161 C   0  0  0  0  0  0  0  0  0  0  0  0
  -25.8043  -29.2525   20.7258 C   0  0  0  0  0  0  0  0  0  0  0  0
  -24.2705  -30.8174   20.9096 C   0  0  0  0  0  0  0  0  0  0  0  0
  -26.4036  -31.6024   19.8692 C   0  0  0  0  0  0  0  0  0  0  0  0
  -27.2034  -19.1237   21.1572 C   0  0  0  0  0  0  0  0  0  0  0  0
  -26.0473  -16.1358   20.6487 C   0  0  0  0  0  0  0  0  0  0  0  0
  -23.3506  -14.0454   20.5809 C   0  0  0  0  0  0  0  0  0  0  0  0
  -19.5840  -27.1676   21.6625 C   0  0  0  0  0  0  0  0  0  0  0  0
  -31.7211  -18.5247   18.8574 C   0  0  0  0  0  0  0  0  0  0  0  0
  -25.8868  -18.7270   23.2703 C   0  0  0  0  0  0  0  0  0  0  0  0
  -24.3433  -17.9844   20.8598 C   0  0  0  0  0  0  0  0  0  0  0  0
  -30.2732  -18.1699   18.5289 C   0  0  0  0  0  0  0  0  0  0  0  0
  -18.7900  -20.8995   19.0719 C   0  0  0  0  0  0  0  0  0  0  0  0
  -21.1276  -29.2085   24.1382 C   0  0  0  0  0  0  0  0  0  0  0  0
  -29.3662  -19.3779   18.7407 C   0  0  0  0  0  0  0  0  0  0  0  0
  -22.4785  -29.5739   23.5207 C   0  0  0  0  0  0  0  0  0  0  0  0
  -18.6751  -22.3849   18.7307 C   0  0  0  0  0  0  0  0  0  0  0  0
  -19.2909  -20.6879   20.4976 C   0  0  0  0  0  0  0  0  0  0  0  0
  -20.4894  -22.9106   20.4150 C   0  0  0  0  0  0  0  0  0  0  0  0
  -20.7107  -27.7835   23.7809 C   0  0  0  0  0  0  0  0  0  0  0  0
  -22.0601  -27.8477   21.7197 C   0  0  0  0  0  0  0  0  0  0  0  0
  -29.3890  -19.8349   20.2043 C   0  0  1  0  0  0  0  0  0  0  0  0
  -26.5554  -18.1029   22.0493 C   0  0  1  0  0  0  0  0  0  0  0  0
  -22.4965  -29.2947   22.0058 C   0  0  2  0  0  0  0  0  0  0  0  0
  -19.9968  -23.1071   18.9844 C   0  0  2  0  0  0  0  0  0  0  0  0
  -20.6068  -21.4239   20.7520 C   0  0  1  0  0  0  0  0  0  1  0  0
  -22.7128  -11.6680   20.0925 C   0  0  0  0  0  0  0  0  0  0  0  0
  -26.2777  -16.6911   17.6573 C   0  0  0  0  0  0  0  0  0  0  0  0
  -24.7792  -14.7277   17.2481 C   0  0  0  0  0  0  0  0  0  0  0  0
  -26.9923  -14.3970   18.3505 C   0  0  0  0  0  0  0  0  0  0  0  0
  -22.3700  -13.6194   23.3406 C   0  0  0  0  0  0  0  0  0  0  0  0
  -19.9312  -24.9178   17.2761 C   0  0  0  0  0  0  0  0  0  0  0  0
  -18.5926  -26.5914   19.4616 C   0  0  0  0  0  0  0  0  0  0  0  0
  -18.5179  -25.0826   19.3196 C   0  0  0  0  0  0  0  0  0  0  0  0
  -25.1200  -15.5061   19.6375 C   0  0  1  0  0  0  0  0  0  0  0  0
  -23.1345  -12.6608   21.1645 C   0  0  2  0  0  0  0  0  0  0  0  0
  -25.7838  -15.3519   18.2400 C   0  0  0  0  0  0  0  0  0  0  0  0
  -24.7646  -28.6368   21.2949 N   0  0  0  0  0  0  0  0  0  0  0  0
  -23.8478  -29.6144   21.3937 N   0  0  0  0  0  0  0  0  0  0  0  0
  -25.6189  -17.3430   21.2188 N   0  0  0  0  0  0  0  0  0  0  0  0
  -20.7474  -27.5848   22.3300 N   0  0  0  0  0  0  0  0  0  0  0  0
  -23.4743  -31.9073   20.9312 N   0  0  0  0  0  0  0  0  0  0  0  0
  -27.2346  -32.3590   20.7066 N   0  0  0  0  0  0  0  0  0  0  0  0
  -28.5689  -18.9638   21.0186 N   0  0  0  0  0  0  0  0  0  0  0  0
  -24.6670  -14.2501   20.2256 N   0  0  0  0  0  0  0  0  0  0  0  0
  -19.7036  -27.0095   20.2872 N   0  0  0  0  0  0  0  0  0  0  0  0
  -22.0750  -12.6997   22.2119 N   0  3  0  0  0  0  0  0  0  0  0  0
  -19.8064  -24.5606   18.7358 N   0  3  1  0  0  0  0  0  0  0  0  0
  -26.4137  -31.8212   18.6340 O   0  0  0  0  0  0  0  0  0  0  0  0
  -26.5152  -19.9911   20.6323 O   0  0  0  0  0  0  0  0  0  0  0  0
  -27.1092  -15.5736   20.9279 O   0  0  0  0  0  0  0  0  0  0  0  0
  -22.4416  -14.8622   20.4496 O   0  0  0  0  0  0  0  0  0  0  0  0
  -18.5164  -26.9571   22.2480 O   0  0  0  0  0  0  0  0  0  0  0  0
  -30.5011  -26.4164   19.6472 O   0  0  0  0  0  0  0  0  0  0  0  0
  -20.9698  -21.2954   22.1224 O   0  0  0  0  0  0  0  0  0  1  0  0
  -30.4691  -22.9324   15.3735 F   0  0  0  0  0  0  0  0  0  0  0  0
  -32.2529  -26.7474   17.5344 F   0  0  0  0  0  0  0  0  0  0  0  0
  1  2  1  0  0  0  0
  1  5  2  0  0  0  0
  2  6  2  0  0  0  0
  3  8  2  0  0  0  0
  3 15  1  0  0  0  0
  4  9  1  0  0  0  0
  4 15  2  0  0  0  0
  5 17  1  0  0  0  0
  6 19  1  0  0  0  0
  7 10  2  0  0  0  0
  7 18  1  0  0  0  0
  8 21  1  0  0  0  0
  9 21  2  0  0  0  0
 10 22  1  0  0  0  0
 11 12  2  0  0  0  0
 11 23  1  0  0  0  0
 12 24  1  0  0  0  0
 13 20  1  0  0  0  0
 13 22  2  0  0  0  0
 14 24  2  0  0  0  0
 14 25  1  0  0  0  0
 15 26  1  0  0  0  0
 16 26  1  0  0  0  0
 16 27  2  0  0  0  0
 16 28  1  0  0  0  0
 17 19  2  0  0  0  0
 17 33  1  0  0  0  0
 18 20  2  0  0  0  0
 18 34  1  0  0  0  0
 19 46  1  0  0  0  0
 20 35  1  0  0  0  0
 21 78  1  0  0  0  0
 22 79  1  0  0  0  0
 23 25  2  0  0  0  0
 23 78  1  0  0  0  0
 24 80  1  0  0  0  0
 25 81  1  0  0  0  0
 26 62  2  0  0  0  0
 27 63  1  0  0  0  0
 27 66  1  0  0  0  0
 28 67  1  0  0  0  0
 28 73  2  0  0  0  0
 29 47  1  0  0  0  0
 29 68  1  0  0  0  0
 29 74  2  0  0  0  0
 30 59  1  0  0  0  0
 30 64  1  0  0  0  0
 30 75  2  0  0  0  0
 31 60  1  0  0  0  0
 31 69  1  0  0  0  0
 31 76  2  0  0  0  0
 32 65  1  0  0  0  0
 32 70  1  0  0  0  0
 32 77  2  0  0  0  0
 33 36  1  0  0  0  0
 34 47  1  0  0  0  0
 35 64  1  0  0  0  0
 36 39  1  0  0  0  0
 37 41  1  0  0  0  0
 37 42  1  0  0  0  0
 38 40  1  0  0  0  0
 38 44  1  0  0  0  0
 39 46  1  0  0  0  0
 40 48  1  0  0  0  0
 41 49  1  0  0  0  0
 42 50  1  0  0  0  0
 43 49  1  0  0  0  0
 43 50  1  0  0  0  0
 44 65  1  0  0  0  0
 45 48  1  0  0  0  0
 45 65  1  0  0  0  0
 46 68  1  0  0  0  0
 47 64  1  0  0  0  0
 48 63  1  0  0  0  0
 49 72  1  0  0  0  0
 50 79  1  0  0  0  0
 51 60  1  0  0  0  0
 52 61  1  0  0  0  0
 53 61  1  0  0  0  0
 54 61  1  0  0  0  0
 55 71  1  0  0  0  0
 56 72  1  0  0  0  0
 57 58  1  0  0  0  0
 57 70  1  0  0  0  0
 58 72  1  0  0  0  0
 59 61  1  0  0  0  0
 59 69  1  0  0  0  0
 60 71  1  0  0  0  0
 62 63  1  0  0  0  0
M  CHG  2  71   1  72   1
M  ISO  4  32 100  50 101  70 100  79 101
M  END
> <Batch ID>
0110

> <Smiles>
CNC(C)C(=O)NC(C(=O)N1Cc2cc([101O:1][101CH:1]3CCCC(N(C)CC[100NH:0][100C:0](=O)N4CCCC(n5nc(-c6ccc(Oc7ccc(F)cc7F)cc6)c(C(N)=O)c5N)C4)C3)ccc2CC1C(=O)NC1CCCc2ccccc21)C(C)(C)C

> <Shape>
0.226

> <Color>
0.062

> <Negative vol penalty>
0.000

$$$$

  -OEChem-04052319583D

 86 94  0     1  0  0  0  0  0999 V2000
  -18.3134  -26.2399   25.8785 C   0  0  0  0  0  0  0  0  0  0  0  0
  -18.7688  -25.0857   25.2495 C   0  0  0  0  0  0  0  0  0  0  0  0
  -25.5046  -15.9664   21.6802 C   0  0  0  0  0  0  0  0  0  0  0  0
  -25.2828  -16.4850   19.3310 C   0  0  0  0  0  0  0  0  0  0  0  0
  -18.4916  -27.4812   25.2690 C   0  0  0  0  0  0  0  0  0  0  0  0
  -19.4018  -25.1719   24.0100 C   0  0  0  0  0  0  0  0  0  0  0  0
  -24.5322  -22.0190   20.1299 C   0  0  0  0  0  0  0  0  0  0  0  0
  -24.2873  -15.2864   21.6451 C   0  0  0  0  0  0  0  0  0  0  0  0
  -24.0655  -15.8049   19.2958 C   0  0  0  0  0  0  0  0  0  0  0  0
  -24.7390  -21.4587   18.8701 C   0  0  0  0  0  0  0  0  0  0  0  0
  -21.4130  -13.1055   22.0894 C   0  0  0  0  0  0  0  0  0  0  0  0
  -21.3455  -11.8636   22.7208 C   0  0  0  0  0  0  0  0  0  0  0  0
  -25.0623  -23.6645   17.9488 C   0  0  0  0  0  0  0  0  0  0  0  0
  -27.7866  -22.2373   14.0166 C   0  0  0  0  0  0  0  0  0  0  0  0
  -23.0791  -11.0269   21.2607 C   0  0  0  0  0  0  0  0  0  0  0  0
  -28.7645  -21.3700   15.8500 C   0  0  0  0  0  0  0  0  0  0  0  0
  -26.0024  -16.5658   20.5232 C   0  0  0  0  0  0  0  0  0  0  0  0
  -28.5397  -16.7342   20.3199 C   0  0  0  0  0  0  0  0  0  0  0  0
  -19.1357  -27.5836   24.0259 C   0  0  0  0  0  0  0  0  0  0  0  0
  -24.5782  -23.4093   20.3068 C   0  0  0  0  0  0  0  0  0  0  0  0
  -19.5876  -26.4156   23.3827 C   0  0  0  0  0  0  0  0  0  0  0  0
  -24.8583  -24.2398   19.2123 C   0  0  0  0  0  0  0  0  0  0  0  0
  -27.6659  -21.2521   15.0275 C   0  0  0  0  0  0  0  0  0  0  0  0
  -23.5677  -15.2056   20.4529 C   0  0  0  0  0  0  0  0  0  0  0  0
  -25.0012  -22.2816   17.7788 C   0  0  0  0  0  0  0  0  0  0  0  0
  -22.3135  -13.3081   21.0435 C   0  0  0  0  0  0  0  0  0  0  0  0
  -22.1785  -10.8243   22.3065 C   0  0  0  0  0  0  0  0  0  0  0  0
  -23.1465  -12.2688   20.6292 C   0  0  0  0  0  0  0  0  0  0  0  0
  -27.2595  -17.2689   20.5590 C   0  0  0  0  0  0  0  0  0  0  0  0
  -28.9554  -22.9271   14.2520 C   0  0  0  0  0  0  0  0  0  0  0  0
  -29.3914  -17.8007   20.4740 C   0  0  0  0  0  0  0  0  0  0  0  0
  -28.9245  -15.3935   19.9881 C   0  0  0  0  0  0  0  0  0  0  0  0
  -22.4989  -25.6205   21.2507 C   0  0  0  0  0  0  0  0  0  0  0  0
  -25.0873  -27.5683   21.0824 C   0  0  0  0  0  0  0  0  0  0  0  0
  -28.1034  -27.7833   20.2063 C   0  0  0  0  0  0  0  0  0  0  0  0
  -29.6459  -23.4977   19.4773 C   0  0  0  0  0  0  0  0  0  0  0  0
  -19.2632  -28.9425   23.3842 C   0  0  0  0  0  0  0  0  0  0  0  0
  -24.3794  -23.9964   21.6773 C   0  0  0  0  0  0  0  0  0  0  0  0
  -24.9385  -25.7372   19.3531 C   0  0  0  0  0  0  0  0  0  0  0  0
  -20.2778  -28.9852   22.2445 C   0  0  0  0  0  0  0  0  0  0  0  0
  -29.1110  -22.1842   22.7430 C   0  0  0  0  0  0  0  0  0  0  0  0
  -20.0810  -27.7959   21.3098 C   0  0  0  0  0  0  0  0  0  0  0  0
  -28.6980  -20.7331   22.4905 C   0  0  0  0  0  0  0  0  0  0  0  0
  -28.5596  -23.1224   21.6717 C   0  0  0  0  0  0  0  0  0  0  0  0
  -28.4672  -21.2844   20.0326 C   0  0  0  0  0  0  0  0  0  0  0  0
  -20.3011  -26.4707   22.0492 C   0  0  1  0  0  0  0  0  0  0  0  0
  -23.9399  -25.4569   21.6437 C   0  0  1  0  0  0  0  0  0  0  0  0
  -29.0462  -20.2925   21.0560 C   0  0  2  0  0  0  0  0  0  0  0  0
  -29.5601  -24.0502   13.5061 C   0  0  0  0  0  0  0  0  0  0  0  0
  -27.0469  -18.8132   15.0423 C   0  0  0  0  0  0  0  0  0  0  0  0
  -30.4840  -28.3513   19.6519 C   0  0  0  0  0  0  0  0  0  0  0  0
  -32.9543  -22.8683   18.2195 C   0  0  0  0  0  0  0  0  0  0  0  0
  -32.9520  -24.9603   16.8729 C   0  0  0  0  0  0  0  0  0  0  0  0
  -23.4365  -29.3991   19.2845 C   0  0  0  0  0  0  0  0  0  0  0  0
  -25.5649  -30.5187   18.5881 C   0  0  0  0  0  0  0  0  0  0  0  0
  -24.8435  -30.5894   20.9751 C   0  0  0  0  0  0  0  0  0  0  0  0
  -29.8808  -24.9870   16.9251 C   0  0  0  0  0  0  0  0  0  0  0  0
  -28.9985  -27.2456   22.9756 C   0  0  0  0  0  0  0  0  0  0  0  0
  -30.7876  -22.8240   15.9626 C   0  0  0  0  0  0  0  0  0  0  0  0
  -25.7764  -20.4316   16.5012 C   0  0  0  0  0  0  0  0  0  1  0  0
  -26.5329  -20.2492   15.1782 C   0  0  1  0  0  0  0  0  0  0  0  0
  -25.7146  -28.4223   20.0072 C   0  0  1  0  0  0  0  0  0  0  0  0
  -29.4300  -28.2861   20.7463 C   0  0  2  0  0  0  0  0  0  0  0  0
  -32.1106  -24.0920   17.8226 C   0  0  0  0  0  0  0  0  0  0  0  0
  -24.8865  -29.7043   19.7104 C   0  0  0  0  0  0  0  0  0  0  0  0
  -30.7004  -23.7181   17.2415 C   0  0  1  0  0  0  0  0  0  0  0  0
  -27.2905  -18.5735   20.8435 N   0  0  0  0  0  0  0  0  0  0  0  0
  -29.5416  -22.3911   15.3688 N   0  0  0  0  0  0  0  0  0  0  0  0
  -28.6005  -18.8676   20.7843 N   0  0  0  0  0  0  0  0  0  0  0  0
  -24.7307  -26.2638   20.7122 N   0  0  0  0  0  0  0  0  0  0  0  0
  -28.9263  -22.6492   20.3347 N   0  0  0  0  0  0  0  0  0  0  0  0
  -30.7323  -17.9204   20.3731 N   0  0  0  0  0  0  0  0  0  0  0  0
  -27.9224  -14.4209   19.8688 N   0  0  0  0  0  0  0  0  0  0  0  0
  -21.7154  -26.2163   22.2206 N   0  0  0  0  0  0  0  0  0  0  0  0
  -27.0837  -28.6819   20.4389 N   0  0  0  0  0  0  0  0  0  0  0  0
  -29.9585  -22.9689   18.2309 N   0  0  0  0  0  0  0  0  0  0  0  0
  -29.9263  -27.3839   21.8236 N   0  3  0  0  0  0  0  0  0  0  0  0
  -30.1230  -15.0641   19.8190 O   0  0  0  0  0  0  0  0  0  0  0  0
  -22.1258  -25.2360   20.1486 O   0  0  0  0  0  0  0  0  0  0  0  0
  -24.9265  -28.0388   22.2113 O   0  0  0  0  0  0  0  0  0  0  0  0
  -27.9843  -26.7032   19.6321 O   0  0  0  0  0  0  0  0  0  0  0  0
  -29.9894  -24.6398   19.8006 O   0  0  0  0  0  0  0  0  0  0  0  0
  -22.3799  -14.5419   20.4182 O   0  0  0  0  0  0  0  0  0  0  0  0
  -25.2028  -21.7374   16.5479 O   0  0  0  0  0  0  0  0  0  1  0  0
  -22.1146   -9.6322   22.9140 F   0  0  0  0  0  0  0  0  0  0  0  0
  -24.0145  -12.4579   19.6258 F   0  0  0  0  0  0  0  0  0  0  0  0
  1  2  1  0  0  0  0
  1  5  2  0  0  0  0
  2  6  2  0  0  0  0
  3  8  2  0  0  0  0
  3 17  1  0  0  0  0
  4  9  1  0  0  0  0
  4 17  2  0  0  0  0
  5 19  1  0  0  0  0
  6 21  1  0  0  0  0
  7 10  2  0  0  0  0
  7 20  1  0  0  0  0
  8 24  1  0  0  0  0
  9 24  2  0  0  0  0
 10 25  1  0  0  0  0
 11 12  2  0  0  0  0
 11 26  1  0  0  0  0
 12 27  1  0  0  0  0
 13 22  1  0  0  0  0
 13 25  2  0  0  0  0
 14 23  1  0  0  0  0
 14 30  2  0  0  0  0
 15 27  2  0  0  0  0
 15 28  1  0  0  0  0
 16 23  2  0  0  0  0
 16 68  1  0  0  0  0
 17 29  1  0  0  0  0
 18 29  1  0  0  0  0
 18 31  2  0  0  0  0
 18 32  1  0  0  0  0
 19 21  2  0  0  0  0
 19 37  1  0  0  0  0
 20 22  2  0  0  0  0
 20 38  1  0  0  0  0
 21 46  1  0  0  0  0
 22 39  1  0  0  0  0
 23 61  1  0  0  0  0
 24 83  1  0  0  0  0
 25 84  1  0  0  0  0
 26 28  2  0  0  0  0
 26 83  1  0  0  0  0
 27 85  1  0  0  0  0
 28 86  1  0  0  0  0
 29 67  2  0  0  0  0
 30 49  1  0  0  0  0
 30 68  1  0  0  0  0
 31 69  1  0  0  0  0
 31 72  1  0  0  0  0
 32 73  1  0  0  0  0
 32 78  2  0  0  0  0
 33 47  1  0  0  0  0
 33 74  1  0  0  0  0
 33 79  2  0  0  0  0
 34 62  1  0  0  0  0
 34 70  1  0  0  0  0
 34 80  2  0  0  0  0
 35 63  1  0  0  0  0
 35 75  1  0  0  0  0
 35 81  2  0  0  0  0
 36 71  1  0  0  0  0
 36 76  1  0  0  0  0
 36 82  2  0  0  0  0
 37 40  1  0  0  0  0
 38 47  1  0  0  0  0
 39 70  1  0  0  0  0
 40 42  1  0  0  0  0
 41 43  1  0  0  0  0
 41 44  1  0  0  0  0
 42 46  1  0  0  0  0
 43 48  1  0  0  0  0
 44 71  1  0  0  0  0
 45 48  1  0  0  0  0
 45 71  1  0  0  0  0
 46 74  1  0  0  0  0
 47 70  1  0  0  0  0
 48 69  1  0  0  0  0
 50 61  1  0  0  0  0
 51 63  1  0  0  0  0
 52 64  1  0  0  0  0
 53 64  1  0  0  0  0
 54 65  1  0  0  0  0
 55 65  1  0  0  0  0
 56 65  1  0  0  0  0
 57 66  1  0  0  0  0
 58 77  1  0  0  0  0
 59 66  1  0  0  0  0
 59 68  1  0  0  0  0
 60 61  1  0  0  0  0
 60 84  1  0  0  0  0
 62 65  1  0  0  0  0
 62 75  1  0  0  0  0
 63 77  1  0  0  0  0
 64 66  1  0  0  0  0
 66 76  1  0  0  0  0
 67 69  1  0  0  0  0
M  CHG  1  77   1
M  ISO  4  36 100  60 101  76 100  84 101
M  END
> <Batch ID>
0110

> <Smiles>
CNC(C)C(=O)NC(C(=O)N1Cc2cc([101O:1][101CH2:1]C(C)c3cc(C)n(CC(C)([100NH:0][100C:0](=O)N4CCCC(n5nc(-c6ccc(Oc7ccc(F)cc7F)cc6)c(C(N)=O)c5N)C4)C(C)C)c3)ccc2CC1C(=O)NC1CCCc2ccccc21)C(C)(C)C

> <Shape>
0.245

> <Color>
0.068

> <Negative vol penalty>
0.000

$$$$

  -OEChem-04052319583D

 86 94  0     1  0  0  0  0  0999 V2000
  -25.6772  -38.4021   21.9856 C   0  0  0  0  0  0  0  0  0  0  0  0
  -26.3856  -37.4893   21.2109 C   0  0  0  0  0  0  0  0  0  0  0  0
  -22.2659  -11.5083   21.7541 C   0  0  0  0  0  0  0  0  0  0  0  0
  -24.2861  -12.3634   20.7420 C   0  0  0  0  0  0  0  0  0  0  0  0
  -25.0459  -37.9804   23.1551 C   0  0  0  0  0  0  0  0  0  0  0  0
  -26.4640  -36.1542   21.6057 C   0  0  0  0  0  0  0  0  0  0  0  0
  -26.8418  -29.5396   18.8816 C   0  0  0  0  0  0  0  0  0  0  0  0
  -22.6869  -10.2044   21.4930 C   0  0  0  0  0  0  0  0  0  0  0  0
  -24.7072  -11.0595   20.4809 C   0  0  0  0  0  0  0  0  0  0  0  0
  -27.6104  -28.3800   18.9717 C   0  0  0  0  0  0  0  0  0  0  0  0
  -24.8400   -7.9670   22.8313 C   0  0  0  0  0  0  0  0  0  0  0  0
  -24.7072   -7.0262   23.8524 C   0  0  0  0  0  0  0  0  0  0  0  0
  -26.4139  -27.7492   20.9691 C   0  0  0  0  0  0  0  0  0  0  0  0
  -23.2652   -5.6976   22.4408 C   0  0  0  0  0  0  0  0  0  0  0  0
  -23.0655  -12.5878   21.3785 C   0  0  0  0  0  0  0  0  0  0  0  0
  -22.3497  -14.5026   22.9047 C   0  0  0  0  0  0  0  0  0  0  0  0
  -25.1086  -36.6375   23.5594 C   0  0  0  0  0  0  0  0  0  0  0  0
  -25.8591  -29.8186   19.8423 C   0  0  0  0  0  0  0  0  0  0  0  0
  -25.8341  -35.7144   22.7824 C   0  0  0  0  0  0  0  0  0  0  0  0
  -25.6323  -28.9118   20.8875 C   0  0  0  0  0  0  0  0  0  0  0  0
  -23.9076   -9.9800   20.8564 C   0  0  0  0  0  0  0  0  0  0  0  0
  -27.3985  -27.4860   20.0171 C   0  0  0  0  0  0  0  0  0  0  0  0
  -24.1854   -7.7732   21.6149 C   0  0  0  0  0  0  0  0  0  0  0  0
  -23.9198   -5.8915   23.6572 C   0  0  0  0  0  0  0  0  0  0  0  0
  -23.3980   -6.6385   21.4197 C   0  0  0  0  0  0  0  0  0  0  0  0
  -22.6308  -13.9350   21.6474 C   0  0  0  0  0  0  0  0  0  0  0  0
  -21.9792  -15.7948   22.6229 C   0  0  0  0  0  0  0  0  0  0  0  0
  -22.4176  -13.9144   24.2104 C   0  0  0  0  0  0  0  0  0  0  0  0
  -25.3917  -32.1383   21.9647 C   0  0  0  0  0  0  0  0  0  0  0  0
  -22.5735  -30.6038   22.4397 C   0  0  0  0  0  0  0  0  0  0  0  0
  -20.7836  -27.7050   22.2407 C   0  0  0  0  0  0  0  0  0  0  0  0
  -23.1833  -19.4789   18.0591 C   0  0  0  0  0  0  0  0  0  0  0  0
  -24.4499  -36.2383   24.8561 C   0  0  0  0  0  0  0  0  0  0  0  0
  -25.0202  -31.0607   19.7160 C   0  0  0  0  0  0  0  0  0  0  0  0
  -24.5760  -29.1550   21.9332 C   0  0  0  0  0  0  0  0  0  0  0  0
  -24.2669  -34.7304   25.0073 C   0  0  0  0  0  0  0  0  0  0  0  0
  -32.4399  -23.9748   21.9219 C   0  0  0  0  0  0  0  0  0  0  0  0
  -32.3478  -25.4962   22.0507 C   0  0  0  0  0  0  0  0  0  0  0  0
  -19.9674  -18.4489   19.1879 C   0  0  0  0  0  0  0  0  0  0  0  0
  -25.5499  -33.9965   24.6301 C   0  0  0  0  0  0  0  0  0  0  0  0
  -31.5488  -23.5942   20.7435 C   0  0  0  0  0  0  0  0  0  0  0  0
  -31.4204  -25.9594   20.9320 C   0  0  0  0  0  0  0  0  0  0  0  0
  -20.2600  -17.2265   20.0597 C   0  0  0  0  0  0  0  0  0  0  0  0
  -20.9012  -18.5183   17.9816 C   0  0  0  0  0  0  0  0  0  0  0  0
  -22.6311  -17.2342   19.1784 C   0  0  0  0  0  0  0  0  0  0  0  0
  -25.9214  -34.2527   23.1645 C   0  0  1  0  0  0  0  0  0  0  0  0
  -24.3972  -31.4979   21.0381 C   0  0  1  0  0  0  0  0  0  0  0  0
  -30.5471  -24.7410   20.6501 C   0  0  0  0  0  0  0  0  0  0  0  0
  -21.7516  -17.1514   20.4377 C   0  0  2  0  0  0  0  0  0  0  0  0
  -18.5162  -26.7517   22.7384 C   0  0  0  0  0  0  0  0  0  0  0  0
  -26.3923  -20.9415   20.5364 C   0  0  0  0  0  0  0  0  0  0  0  0
  -23.2643  -30.5182   25.4105 C   0  0  0  0  0  0  0  0  0  0  0  0
  -21.4937  -28.7721   25.7005 C   0  0  0  0  0  0  0  0  0  0  0  0
  -20.8735  -31.0554   24.9104 C   0  0  0  0  0  0  0  0  0  0  0  0
  -25.3166  -23.3321   17.9156 C   0  0  0  0  0  0  0  0  0  0  0  0
  -20.3124  -27.0363   19.3964 C   0  0  0  0  0  0  0  0  0  0  0  0
  -27.4228  -22.1772   17.9647 C   0  0  0  0  0  0  0  0  0  0  0  0
  -25.5123  -20.3179   18.2351 C   0  0  0  0  0  0  0  0  0  0  0  0
  -28.4198  -23.3184   17.8936 C   0  0  0  0  0  0  0  0  0  0  0  0
  -29.1337  -26.1446   19.0974 C   0  0  0  0  0  0  0  0  0  1  0  0
  -22.1004  -29.4933   23.3462 C   0  0  1  0  0  0  0  0  0  0  0  0
  -19.3994  -27.4116   21.6908 C   0  0  2  0  0  0  0  0  0  0  0  0
  -29.8386  -24.8094   19.3087 C   0  0  2  0  0  0  0  0  0  0  0  0
  -25.5946  -21.3997   19.3159 C   0  0  2  0  0  0  0  0  0  0  0  0
  -21.9543  -29.9558   24.8234 C   0  0  0  0  0  0  0  0  0  0  0  0
  -22.4538  -14.7960   20.6418 N   0  0  0  0  0  0  0  0  0  0  0  0
  -22.0574  -15.9178   21.2669 N   0  0  0  0  0  0  0  0  0  0  0  0
  -23.7860  -30.3865   21.7699 N   0  0  0  0  0  0  0  0  0  0  0  0
  -22.3005  -18.4438   18.4087 N   0  0  0  0  0  0  0  0  0  0  0  0
  -21.5972  -16.8265   23.4053 N   0  0  0  0  0  0  0  0  0  0  0  0
  -22.8173  -12.5755   24.3202 N   0  0  0  0  0  0  0  0  0  0  0  0
  -25.0977  -33.4495   22.2865 N   0  0  0  0  0  0  0  0  0  0  0  0
  -20.8686  -28.9812   22.7558 N   0  0  0  0  0  0  0  0  0  0  0  0
  -24.4897  -19.3330   18.5092 N   0  0  0  0  0  0  0  0  0  0  0  0
  -26.2384  -22.5798   18.7555 N   0  0  2  0  0  0  0  0  0  0  0  0
  -19.4917  -26.5023   20.5136 N   0  3  0  0  0  0  0  0  0  0  0  0
  -28.8175  -23.7230   19.2660 N   0  3  0  0  0  0  0  0  0  0  0  0
  -22.1165  -14.5521   25.2478 O   0  0  0  0  0  0  0  0  0  0  0  0
  -26.3538  -31.4901   22.3597 O   0  0  0  0  0  0  0  0  0  0  0  0
  -21.8889  -31.6234   22.3244 O   0  0  0  0  0  0  0  0  0  0  0  0
  -21.6970  -26.8829   22.2190 O   0  0  0  0  0  0  0  0  0  0  0  0
  -22.8318  -20.4630   17.3995 O   0  0  0  0  0  0  0  0  0  0  0  0
  -24.3188   -8.7078   20.6017 O   0  0  0  0  0  0  0  0  0  0  0  0
  -28.1479  -26.3537   20.1078 O   0  0  0  0  0  0  0  0  0  1  0  0
  -23.7936   -4.9874   24.6374 F   0  0  0  0  0  0  0  0  0  0  0  0
  -22.7676   -6.4462   20.2528 F   0  0  0  0  0  0  0  0  0  0  0  0
  1  2  1  0  0  0  0
  1  5  2  0  0  0  0
  2  6  2  0  0  0  0
  3  8  2  0  0  0  0
  3 15  1  0  0  0  0
  4  9  1  0  0  0  0
  4 15  2  0  0  0  0
  5 17  1  0  0  0  0
  6 19  1  0  0  0  0
  7 10  2  0  0  0  0
  7 18  1  0  0  0  0
  8 21  1  0  0  0  0
  9 21  2  0  0  0  0
 10 22  1  0  0  0  0
 11 12  2  0  0  0  0
 11 23  1  0  0  0  0
 12 24  1  0  0  0  0
 13 20  1  0  0  0  0
 13 22  2  0  0  0  0
 14 24  2  0  0  0  0
 14 25  1  0  0  0  0
 15 26  1  0  0  0  0
 16 26  1  0  0  0  0
 16 27  2  0  0  0  0
 16 28  1  0  0  0  0
 17 19  2  0  0  0  0
 17 33  1  0  0  0  0
 18 20  2  0  0  0  0
 18 34  1  0  0  0  0
 19 46  1  0  0  0  0
 20 35  1  0  0  0  0
 21 83  1  0  0  0  0
 22 84  1  0  0  0  0
 23 25  2  0  0  0  0
 23 83  1  0  0  0  0
 24 85  1  0  0  0  0
 25 86  1  0  0  0  0
 26 66  2  0  0  0  0
 27 67  1  0  0  0  0
 27 70  1  0  0  0  0
 28 71  1  0  0  0  0
 28 78  2  0  0  0  0
 29 47  1  0  0  0  0
 29 72  1  0  0  0  0
 29 79  2  0  0  0  0
 30 61  1  0  0  0  0
 30 68  1  0  0  0  0
 30 80  2  0  0  0  0
 31 62  1  0  0  0  0
 31 73  1  0  0  0  0
 31 81  2  0  0  0  0
 32 69  1  0  0  0  0
 32 74  1  0  0  0  0
 32 82  2  0  0  0  0
 33 36  1  0  0  0  0
 34 47  1  0  0  0  0
 35 68  1  0  0  0  0
 36 40  1  0  0  0  0
 37 38  1  0  0  0  0
 37 41  1  0  0  0  0
 38 42  1  0  0  0  0
 39 43  1  0  0  0  0
 39 44  1  0  0  0  0
 40 46  1  0  0  0  0
 41 48  1  0  0  0  0
 42 48  1  0  0  0  0
 43 49  1  0  0  0  0
 44 69  1  0  0  0  0
 45 49  1  0  0  0  0
 45 69  1  0  0  0  0
 46 72  1  0  0  0  0
 47 68  1  0  0  0  0
 48 63  1  0  0  0  0
 49 67  1  0  0  0  0
 50 62  1  0  0  0  0
 51 64  1  0  0  0  0
 52 65  1  0  0  0  0
 53 65  1  0  0  0  0
 54 65  1  0  0  0  0
 55 75  1  0  0  0  0
 56 76  1  0  0  0  0
 57 59  1  0  0  0  0
 57 75  1  0  0  0  0
 58 64  1  0  0  0  0
 58 74  1  0  0  0  0
 59 77  1  0  0  0  0
 60 63  1  0  0  0  0
 60 84  1  0  0  0  0
 61 65  1  0  0  0  0
 61 73  1  0  0  0  0
 62 76  1  0  0  0  0
 63 77  1  0  0  0  0
 64 75  1  0  0  0  0
 66 67  1  0  0  0  0
M  CHG  2  76   1  77   1
M  ISO  4  32 100  60 101  74 100  84 101
M  END
> <Batch ID>
0110

> <Smiles>
CNC(C)C(=O)NC(C(=O)N1Cc2cc([101O:1][101CH2:1]C(NCCN(C)C(C)C[100NH:0][100C:0](=O)N3CCCC(n4nc(-c5ccc(Oc6ccc(F)cc6F)cc5)c(C(N)=O)c4N)C3)C3CCCC3)ccc2CC1C(=O)NC1CCCc2ccccc21)C(C)(C)C

> <Shape>
0.254

> <Color>
0.073

> <Negative vol penalty>
0.000

$$$$

  -OEChem-04052319583D

 83 91  0     1  0  0  0  0  0999 V2000
  -34.9785  -26.1741   33.1278 C   0  0  0  0  0  0  0  0  0  0  0  0
  -33.7743  -26.1129   32.4338 C   0  0  0  0  0  0  0  0  0  0  0  0
  -23.0437   -9.8601   20.0213 C   0  0  0  0  0  0  0  0  0  0  0  0
  -23.9459   -9.9035   22.2621 C   0  0  0  0  0  0  0  0  0  0  0  0
  -36.1557  -25.7421   32.5183 C   0  0  0  0  0  0  0  0  0  0  0  0
  -33.7468  -25.6208   31.1294 C   0  0  0  0  0  0  0  0  0  0  0  0
  -29.5374  -21.9699   26.6274 C   0  0  0  0  0  0  0  0  0  0  0  0
  -22.3321   -8.7009   20.3303 C   0  0  0  0  0  0  0  0  0  0  0  0
  -23.2343   -8.7443   22.5711 C   0  0  0  0  0  0  0  0  0  0  0  0
  -28.9989  -22.0594   25.3445 C   0  0  0  0  0  0  0  0  0  0  0  0
  -21.3731   -5.9990   24.0601 C   0  0  0  0  0  0  0  0  0  0  0  0
  -20.6925   -5.9599   25.2770 C   0  0  0  0  0  0  0  0  0  0  0  0
  -31.0821  -21.2675   24.4212 C   0  0  0  0  0  0  0  0  0  0  0  0
  -19.3792   -7.8729   24.6039 C   0  0  0  0  0  0  0  0  0  0  0  0
  -23.8506  -10.4614   20.9872 C   0  0  0  0  0  0  0  0  0  0  0  0
  -24.1513  -12.9890   20.8181 C   0  0  0  0  0  0  0  0  0  0  0  0
  -36.1411  -25.2355   31.2092 C   0  0  0  0  0  0  0  0  0  0  0  0
  -30.8582  -21.5381   26.8163 C   0  0  0  0  0  0  0  0  0  0  0  0
  -34.9252  -25.1829   30.5013 C   0  0  0  0  0  0  0  0  0  0  0  0
  -31.6342  -21.1709   25.7077 C   0  0  0  0  0  0  0  0  0  0  0  0
  -22.4274   -8.1430   21.6052 C   0  0  0  0  0  0  0  0  0  0  0  0
  -29.7721  -21.7109   24.2410 C   0  0  0  0  0  0  0  0  0  0  0  0
  -21.0568   -6.9750   23.1151 C   0  0  0  0  0  0  0  0  0  0  0  0
  -19.6955   -6.8968   25.5489 C   0  0  0  0  0  0  0  0  0  0  0  0
  -20.0599   -7.9120   23.3870 C   0  0  0  0  0  0  0  0  0  0  0  0
  -24.5864  -11.6585   20.6685 C   0  0  0  0  0  0  0  0  0  0  0  0
  -25.2086  -13.7475   20.3786 C   0  0  0  0  0  0  0  0  0  0  0  0
  -22.9030  -13.4940   21.3104 C   0  0  0  0  0  0  0  0  0  0  0  0
  -33.4919  -22.8402   28.0294 C   0  0  0  0  0  0  0  0  0  0  0  0
  -34.7009  -19.8635   27.5823 C   0  0  0  0  0  0  0  0  0  0  0  0
  -34.5447  -16.8945   25.9067 C   0  0  0  0  0  0  0  0  0  0  0  0
  -30.8325  -14.5367   20.6347 C   0  0  0  0  0  0  0  0  0  0  0  0
  -37.4465  -24.8245   30.5753 C   0  0  0  0  0  0  0  0  0  0  0  0
  -31.4156  -21.4216   28.2085 C   0  0  0  0  0  0  0  0  0  0  0  0
  -33.0508  -20.6820   25.8582 C   0  0  0  0  0  0  0  0  0  0  0  0
  -37.2728  -23.9672   29.3242 C   0  0  0  0  0  0  0  0  0  0  0  0
  -29.4250  -12.4429   17.9261 C   0  0  0  0  0  0  0  0  0  0  0  0
  -36.2189  -24.5740   28.4034 C   0  0  0  0  0  0  0  0  0  0  0  0
  -28.0308  -12.1086   18.4538 C   0  0  0  0  0  0  0  0  0  0  0  0
  -30.4180  -12.6825   19.0593 C   0  0  0  0  0  0  0  0  0  0  0  0
  -28.5847  -13.3811   20.5644 C   0  0  0  0  0  0  0  0  0  0  0  0
  -29.5392  -20.2764   19.9386 C   0  0  0  0  0  0  0  0  0  0  0  0
  -28.1232  -18.5595   21.0464 C   0  0  0  0  0  0  0  0  0  0  0  0
  -30.7365  -19.3910   20.2372 C   0  0  0  0  0  0  0  0  0  0  0  0
  -34.8508  -24.6323   29.0937 C   0  0  1  0  0  0  0  0  0  0  0  0
  -32.9402  -21.4597   28.2468 C   0  0  1  0  0  0  0  0  0  0  0  0
  -27.5491  -13.1796   19.4479 C   0  0  2  0  0  0  0  0  0  0  0  0
  -29.3969  -17.7569   21.2961 C   0  0  1  0  0  0  0  0  0  0  0  0
  -35.6894  -14.6682   25.7328 C   0  0  0  0  0  0  0  0  0  0  0  0
  -26.2678  -23.2017   21.1959 C   0  0  0  0  0  0  0  0  0  0  0  0
  -36.9773  -21.1590   26.0172 C   0  0  0  0  0  0  0  0  0  0  0  0
  -37.5314  -18.9007   25.0890 C   0  0  0  0  0  0  0  0  0  0  0  0
  -37.6825  -19.3091   27.5453 C   0  0  0  0  0  0  0  0  0  0  0  0
  -31.1390  -15.9317   22.6446 C   0  0  0  0  0  0  0  0  0  0  0  0
  -32.0950  -15.4418   26.7114 C   0  0  0  0  0  0  0  0  0  0  0  0
  -29.1032  -16.2632   21.2914 C   0  0  0  0  0  0  0  0  0  0  0  0
  -27.2827  -20.9015   20.8098 C   0  0  0  0  0  0  0  0  0  0  0  0
  -27.9015  -22.2541   22.8765 C   0  0  0  0  0  0  0  0  0  1  0  0
  -35.4080  -19.1555   26.4520 C   0  0  1  0  0  0  0  0  0  0  0  0
  -34.5728  -15.4583   26.3975 C   0  0  2  0  0  0  0  0  0  0  0  0
  -27.4914  -22.3011   21.3993 C   0  0  2  0  0  0  0  0  0  0  0  0
  -36.8738  -19.6421   26.2725 C   0  0  0  0  0  0  0  0  0  0  0  0
  -25.8237  -11.5734   20.1725 N   0  0  0  0  0  0  0  0  0  0  0  0
  -26.1750  -12.8599   20.0066 N   0  0  0  0  0  0  0  0  0  0  0  0
  -33.5528  -20.5915   27.2393 N   0  0  0  0  0  0  0  0  0  0  0  0
  -29.9162  -13.6729   20.0125 N   0  0  0  0  0  0  0  0  0  0  0  0
  -25.3966  -15.0805   20.2778 N   0  0  0  0  0  0  0  0  0  0  0  0
  -21.9262  -12.5765   21.7207 N   0  0  0  0  0  0  0  0  0  0  0  0
  -34.2283  -23.3258   29.0931 N   0  0  0  0  0  0  0  0  0  0  0  0
  -35.2814  -17.7274   26.7221 N   0  0  0  0  0  0  0  0  0  0  0  0
  -30.3129  -15.4802   21.5339 N   0  0  0  0  0  0  0  0  0  0  0  0
  -28.4727  -20.0366   20.9911 N   0  3  2  0  0  0  0  0  0  0  0  0
  -33.2779  -14.7836   26.0995 N   0  3  0  0  0  0  0  0  0  0  0  0
  -22.6547  -14.7222   21.3689 O   0  0  0  0  0  0  0  0  0  0  0  0
  -33.2675  -23.4213   26.9741 O   0  0  0  0  0  0  0  0  0  0  0  0
  -35.1467  -19.7682   28.7285 O   0  0  0  0  0  0  0  0  0  0  0  0
  -33.9335  -17.2422   24.8987 O   0  0  0  0  0  0  0  0  0  0  0  0
  -32.0448  -14.4748   20.3926 O   0  0  0  0  0  0  0  0  0  0  0  0
  -30.3504  -18.0163   20.2593 O   0  0  0  0  0  0  0  0  0  0  0  0
  -21.7329   -7.0120   21.9071 O   0  0  0  0  0  0  0  0  0  0  0  0
  -29.2491  -21.7980   22.9877 O   0  0  0  0  0  0  0  0  0  1  0  0
  -19.0409   -6.8583   26.7169 F   0  0  0  0  0  0  0  0  0  0  0  0
  -19.7509   -8.8513   22.4826 F   0  0  0  0  0  0  0  0  0  0  0  0
  1  2  1  0  0  0  0
  1  5  2  0  0  0  0
  2  6  2  0  0  0  0
  3  8  2  0  0  0  0
  3 15  1  0  0  0  0
  4  9  1  0  0  0  0
  4 15  2  0  0  0  0
  5 17  1  0  0  0  0
  6 19  1  0  0  0  0
  7 10  2  0  0  0  0
  7 18  1  0  0  0  0
  8 21  1  0  0  0  0
  9 21  2  0  0  0  0
 10 22  1  0  0  0  0
 11 12  2  0  0  0  0
 11 23  1  0  0  0  0
 12 24  1  0  0  0  0
 13 20  1  0  0  0  0
 13 22  2  0  0  0  0
 14 24  2  0  0  0  0
 14 25  1  0  0  0  0
 15 26  1  0  0  0  0
 16 26  1  0  0  0  0
 16 27  2  0  0  0  0
 16 28  1  0  0  0  0
 17 19  2  0  0  0  0
 17 33  1  0  0  0  0
 18 20  2  0  0  0  0
 18 34  1  0  0  0  0
 19 45  1  0  0  0  0
 20 35  1  0  0  0  0
 21 80  1  0  0  0  0
 22 81  1  0  0  0  0
 23 25  2  0  0  0  0
 23 80  1  0  0  0  0
 24 82  1  0  0  0  0
 25 83  1  0  0  0  0
 26 63  2  0  0  0  0
 27 64  1  0  0  0  0
 27 67  1  0  0  0  0
 28 68  1  0  0  0  0
 28 74  2  0  0  0  0
 29 46  1  0  0  0  0
 29 69  1  0  0  0  0
 29 75  2  0  0  0  0
 30 59  1  0  0  0  0
 30 65  1  0  0  0  0
 30 76  2  0  0  0  0
 31 60  1  0  0  0  0
 31 70  1  0  0  0  0
 31 77  2  0  0  0  0
 32 66  1  0  0  0  0
 32 71  1  0  0  0  0
 32 78  2  0  0  0  0
 33 36  1  0  0  0  0
 34 46  1  0  0  0  0
 35 65  1  0  0  0  0
 36 38  1  0  0  0  0
 37 39  1  0  0  0  0
 37 40  1  0  0  0  0
 38 45  1  0  0  0  0
 39 47  1  0  0  0  0
 40 66  1  0  0  0  0
 41 47  1  0  0  0  0
 41 66  1  0  0  0  0
 42 44  1  0  0  0  0
 42 72  1  0  0  0  0
 43 48  1  0  0  0  0
 43 72  1  0  0  0  0
 44 79  1  0  0  0  0
 45 69  1  0  0  0  0
 46 65  1  0  0  0  0
 47 64  1  0  0  0  0
 48 56  1  0  0  0  0
 48 79  1  0  0  0  0
 49 60  1  0  0  0  0
 50 61  1  0  0  0  0
 51 62  1  0  0  0  0
 52 62  1  0  0  0  0
 53 62  1  0  0  0  0
 54 71  1  0  0  0  0
 55 73  1  0  0  0  0
 56 71  1  0  0  0  0
 57 61  1  0  0  0  0
 57 72  1  0  0  0  0
 58 61  1  0  0  0  0
 58 81  1  0  0  0  0
 59 62  1  0  0  0  0
 59 70  1  0  0  0  0
 60 73  1  0  0  0  0
 63 64  1  0  0  0  0
M  CHG  2  72   1  73   1
M  ISO  4  32 100  58 101  71 100  81 101
M  END
> <Batch ID>
0110

> <Smiles>
CNC(C)C(=O)NC(C(=O)N1Cc2cc([101O:1][101CH2:1]C(C)CN3CCOC(C[100N:0](C)[100C:0](=O)N4CCCC(n5nc(-c6ccc(Oc7ccc(F)cc7F)cc6)c(C(N)=O)c5N)C4)C3)ccc2CC1C(=O)NC1CCCc2ccccc21)C(C)(C)C

> <Shape>
0.201

> <Color>
0.197

> <Negative vol penalty>
0.000

$$$$

  -OEChem-04052319583D

 81 89  0     1  0  0  0  0  0999 V2000
  -26.1915  -33.4562   22.4395 C   0  0  0  0  0  0  0  0  0  0  0  0
  -26.5951  -32.1456   22.6740 C   0  0  0  0  0  0  0  0  0  0  0  0
  -23.4007  -10.0597   22.2336 C   0  0  0  0  0  0  0  0  0  0  0  0
  -23.5629   -9.5925   19.8687 C   0  0  0  0  0  0  0  0  0  0  0  0
  -25.2368  -33.7256   21.4598 C   0  0  0  0  0  0  0  0  0  0  0  0
  -26.0433  -31.1036   21.9296 C   0  0  0  0  0  0  0  0  0  0  0  0
  -28.8684  -25.9860   20.1032 C   0  0  0  0  0  0  0  0  0  0  0  0
  -22.6721   -8.8843   22.4158 C   0  0  0  0  0  0  0  0  0  0  0  0
  -22.8344   -8.4171   20.0510 C   0  0  0  0  0  0  0  0  0  0  0  0
  -28.8864  -24.6901   20.6171 C   0  0  0  0  0  0  0  0  0  0  0  0
  -19.4961   -7.8256   21.9509 C   0  0  0  0  0  0  0  0  0  0  0  0
  -18.3561   -7.8883   22.7521 C   0  0  0  0  0  0  0  0  0  0  0  0
  -27.1417  -24.0607   19.0747 C   0  0  0  0  0  0  0  0  0  0  0  0
  -19.3174   -6.2527   24.2480 C   0  0  0  0  0  0  0  0  0  0  0  0
  -23.8461  -10.4139   20.9600 C   0  0  0  0  0  0  0  0  0  0  0  0
  -24.1781  -12.9414   21.0554 C   0  0  0  0  0  0  0  0  0  0  0  0
  -24.6802  -32.6874   20.6964 C   0  0  0  0  0  0  0  0  0  0  0  0
  -27.9778  -26.3325   19.0770 C   0  0  0  0  0  0  0  0  0  0  0  0
  -25.0793  -31.3593   20.9397 C   0  0  0  0  0  0  0  0  0  0  0  0
  -27.1162  -25.3610   18.5478 C   0  0  0  0  0  0  0  0  0  0  0  0
  -22.3890   -8.0630   21.3246 C   0  0  0  0  0  0  0  0  0  0  0  0
  -28.0210  -23.7280   20.1048 C   0  0  0  0  0  0  0  0  0  0  0  0
  -20.5468   -6.9764   22.2982 C   0  0  0  0  0  0  0  0  0  0  0  0
  -18.2667   -7.1019   23.9007 C   0  0  0  0  0  0  0  0  0  0  0  0
  -20.4575   -6.1900   23.4467 C   0  0  0  0  0  0  0  0  0  0  0  0
  -24.5983  -11.6282   20.7710 C   0  0  0  0  0  0  0  0  0  0  0  0
  -25.2474  -13.7279   20.7025 C   0  0  0  0  0  0  0  0  0  0  0  0
  -28.7206  -19.6329   20.5279 C   0  0  0  0  0  0  0  0  0  0  0  0
  -22.9327  -13.4084   21.5907 C   0  0  0  0  0  0  0  0  0  0  0  0
  -25.5734  -28.3921   18.7938 C   0  0  0  0  0  0  0  0  0  0  0  0
  -25.6274  -27.4302   15.6964 C   0  0  0  0  0  0  0  0  0  0  0  0
  -26.4568  -25.0224   13.4244 C   0  0  0  0  0  0  0  0  0  0  0  0
  -30.7320  -14.7592   20.6772 C   0  0  0  0  0  0  0  0  0  0  0  0
  -23.6167  -33.0227   19.6809 C   0  0  0  0  0  0  0  0  0  0  0  0
  -27.9893  -27.7277   18.5153 C   0  0  0  0  0  0  0  0  0  0  0  0
  -26.1551  -25.6767   17.4319 C   0  0  0  0  0  0  0  0  0  0  0  0
  -23.3561  -31.9010   18.6788 C   0  0  0  0  0  0  0  0  0  0  0  0
  -29.4642  -12.5984   18.1473 C   0  0  0  0  0  0  0  0  0  0  0  0
  -23.2264  -30.5621   19.3980 C   0  0  0  0  0  0  0  0  0  0  0  0
  -28.0537  -12.2570   18.6310 C   0  0  0  0  0  0  0  0  0  0  0  0
  -26.9880  -20.2747   22.2096 C   0  0  0  0  0  0  0  0  0  0  0  0
  -30.4472  -12.7130   19.3103 C   0  0  0  0  0  0  0  0  0  0  0  0
  -28.6259  -13.3010   20.8629 C   0  0  0  0  0  0  0  0  0  0  0  0
  -27.2236  -18.9553   22.9297 C   0  0  0  0  0  0  0  0  0  0  0  0
  -24.5221  -30.2044   20.1359 C   0  0  1  0  0  0  0  0  0  0  0  0
  -27.3052  -20.1745   20.7142 C   0  0  1  0  0  0  0  0  0  0  0  0
  -29.0485  -18.3673   21.3056 C   0  0  1  0  0  0  0  0  0  0  0  0
  -26.6831  -28.1038   17.8227 C   0  0  1  0  0  0  0  0  0  0  0  0
  -27.5871  -13.2300   19.7305 C   0  0  2  0  0  0  0  0  0  0  0  0
  -26.3425  -24.5055   10.9715 C   0  0  0  0  0  0  0  0  0  0  0  0
  -22.6536  -26.8043   15.9693 C   0  0  0  0  0  0  0  0  0  0  0  0
  -22.8190  -25.4434   13.8744 C   0  0  0  0  0  0  0  0  0  0  0  0
  -23.2971  -27.8908   13.8107 C   0  0  0  0  0  0  0  0  0  0  0  0
  -29.4034  -24.8550   13.2041 C   0  0  0  0  0  0  0  0  0  0  0  0
  -27.1225  -21.5272   20.0333 C   0  0  0  0  0  0  0  0  0  1  0  0
  -30.5284  -18.0187   21.2698 C   0  0  0  0  0  0  0  0  0  0  0  0
  -30.8653  -16.7866   22.1023 C   0  0  0  0  0  0  0  0  0  0  0  0
  -24.9585  -26.3315   14.9063 C   0  0  1  0  0  0  0  0  0  0  0  0
  -27.1804  -25.1010   12.0922 C   0  0  2  0  0  0  0  0  0  0  0  0
  -23.4487  -26.6117   14.6625 C   0  0  0  0  0  0  0  0  0  0  0  0
  -25.8377  -11.5792   20.2755 N   0  0  0  0  0  0  0  0  0  0  0  0
  -26.2055  -12.8715   20.2457 N   0  0  0  0  0  0  0  0  0  0  0  0
  -26.1997  -27.0566   16.9206 N   0  0  0  0  0  0  0  0  0  0  0  0
  -29.9464  -13.6518   20.3171 N   0  0  0  0  0  0  0  0  0  0  0  0
  -25.4520  -15.0617   20.7414 N   0  0  0  0  0  0  0  0  0  0  0  0
  -21.9002  -13.7285   20.6987 N   0  0  0  0  0  0  0  0  0  0  0  0
  -25.5139  -29.7100   19.2051 N   0  0  0  0  0  0  0  0  0  0  0  0
  -25.7413  -26.1718   13.6856 N   0  0  0  0  0  0  0  0  0  0  0  0
  -30.1803  -15.6025   21.6338 N   0  0  0  0  0  0  0  0  0  0  0  0
  -28.6470  -18.5449   22.7402 N   0  3  0  0  0  0  0  0  0  0  0  0
  -28.4711  -24.3590   12.1593 N   0  3  0  0  0  0  0  0  0  0  0  0
  -29.5134  -20.1310   19.7296 O   0  0  0  0  0  0  0  0  0  0  0  0
  -22.7468  -13.5536   22.8227 O   0  0  0  0  0  0  0  0  0  0  0  0
  -24.8255  -27.4863   19.1429 O   0  0  0  0  0  0  0  0  0  0  0  0
  -25.6479  -28.5763   15.2406 O   0  0  0  0  0  0  0  0  0  0  0  0
  -26.5172  -24.0383   14.1582 O   0  0  0  0  0  0  0  0  0  0  0  0
  -31.8404  -14.9828   20.1789 O   0  0  0  0  0  0  0  0  0  0  0  0
  -21.6783   -6.9159   21.5021 O   0  0  0  0  0  0  0  0  0  0  0  0
  -28.0361  -22.4625   20.6050 O   0  0  0  0  0  0  0  0  0  1  0  0
  -17.1725   -7.1634   24.6709 F   0  0  0  0  0  0  0  0  0  0  0  0
  -21.4641   -5.3731   23.7861 F   0  0  0  0  0  0  0  0  0  0  0  0
  1  2  1  0  0  0  0
  1  5  2  0  0  0  0
  2  6  2  0  0  0  0
  3  8  2  0  0  0  0
  3 15  1  0  0  0  0
  4  9  1  0  0  0  0
  4 15  2  0  0  0  0
  5 17  1  0  0  0  0
  6 19  1  0  0  0  0
  7 10  2  0  0  0  0
  7 18  1  0  0  0  0
  8 21  1  0  0  0  0
  9 21  2  0  0  0  0
 10 22  1  0  0  0  0
 11 12  2  0  0  0  0
 11 23  1  0  0  0  0
 12 24  1  0  0  0  0
 13 20  1  0  0  0  0
 13 22  2  0  0  0  0
 14 24  2  0  0  0  0
 14 25  1  0  0  0  0
 15 26  1  0  0  0  0
 16 26  1  0  0  0  0
 16 27  2  0  0  0  0
 16 29  1  0  0  0  0
 17 19  2  0  0  0  0
 17 34  1  0  0  0  0
 18 20  2  0  0  0  0
 18 35  1  0  0  0  0
 19 45  1  0  0  0  0
 20 36  1  0  0  0  0
 21 78  1  0  0  0  0
 22 79  1  0  0  0  0
 23 25  2  0  0  0  0
 23 78  1  0  0  0  0
 24 80  1  0  0  0  0
 25 81  1  0  0  0  0
 26 61  2  0  0  0  0
 27 62  1  0  0  0  0
 27 65  1  0  0  0  0
 28 46  1  0  0  0  0
 28 47  1  0  0  0  0
 28 72  2  0  0  0  0
 29 66  1  0  0  0  0
 29 73  2  0  0  0  0
 30 48  1  0  0  0  0
 30 67  1  0  0  0  0
 30 74  2  0  0  0  0
 31 58  1  0  0  0  0
 31 63  1  0  0  0  0
 31 75  2  0  0  0  0
 32 59  1  0  0  0  0
 32 68  1  0  0  0  0
 32 76  2  0  0  0  0
 33 64  1  0  0  0  0
 33 69  1  0  0  0  0
 33 77  2  0  0  0  0
 34 37  1  0  0  0  0
 35 48  1  0  0  0  0
 36 63  1  0  0  0  0
 37 39  1  0  0  0  0
 38 40  1  0  0  0  0
 38 42  1  0  0  0  0
 39 45  1  0  0  0  0
 40 49  1  0  0  0  0
 41 44  1  0  0  0  0
 41 46  1  0  0  0  0
 42 64  1  0  0  0  0
 43 49  1  0  0  0  0
 43 64  1  0  0  0  0
 44 70  1  0  0  0  0
 45 67  1  0  0  0  0
 46 55  1  0  0  0  0
 47 56  1  0  0  0  0
 47 70  1  0  0  0  0
 48 63  1  0  0  0  0
 49 62  1  0  0  0  0
 50 59  1  0  0  0  0
 51 60  1  0  0  0  0
 52 60  1  0  0  0  0
 53 60  1  0  0  0  0
 54 71  1  0  0  0  0
 55 79  1  0  0  0  0
 56 57  1  0  0  0  0
 57 69  1  0  0  0  0
 58 60  1  0  0  0  0
 58 68  1  0  0  0  0
 59 71  1  0  0  0  0
 61 62  1  0  0  0  0
M  CHG  2  70   1  71   1
M  ISO  4  33 100  55 101  69 100  79 101
M  END
> <Batch ID>
0110

> <Smiles>
CNC(C)C(=O)NC(C(=O)N1Cc2cc([101O:1][101CH2:1]C3CCNC(CC[100NH:0][100C:0](=O)N4CCCC(n5nc(-c6ccc(Oc7ccc(F)cc7F)cc6)c(C(N)=O)c5N)C4)C3=O)ccc2CC1C(=O)NC1CCCc2ccccc21)C(C)(C)C

> <Shape>
0.273

> <Color>
0.174

> <Negative vol penalty>
0.000

$$$$

  -OEChem-04052319583D

 82 90  0     1  0  0  0  0  0999 V2000
  -33.5555  -31.2396   14.4060 C   0  0  0  0  0  0  0  0  0  0  0  0
  -32.7837  -30.2401   13.8223 C   0  0  0  0  0  0  0  0  0  0  0  0
  -27.0974  -19.1461   21.2035 C   0  0  0  0  0  0  0  0  0  0  0  0
  -23.0724   -9.8515   19.9612 C   0  0  0  0  0  0  0  0  0  0  0  0
  -23.8284   -9.8865   22.2556 C   0  0  0  0  0  0  0  0  0  0  0  0
  -34.3034  -30.9627   15.5496 C   0  0  0  0  0  0  0  0  0  0  0  0
  -32.7601  -28.9629   14.3812 C   0  0  0  0  0  0  0  0  0  0  0  0
  -28.3957  -23.3613   15.3247 C   0  0  0  0  0  0  0  0  0  0  0  0
  -22.3279   -8.7016   20.2240 C   0  0  0  0  0  0  0  0  0  0  0  0
  -23.0838   -8.7366   22.5185 C   0  0  0  0  0  0  0  0  0  0  0  0
  -28.3510  -21.9835   15.1159 C   0  0  0  0  0  0  0  0  0  0  0  0
  -19.8544   -7.9469   23.1252 C   0  0  0  0  0  0  0  0  0  0  0  0
  -19.0955   -7.9214   24.2952 C   0  0  0  0  0  0  0  0  0  0  0  0
  -27.0384  -18.4428   19.9751 C   0  0  0  0  0  0  0  0  0  0  0  0
  -29.6209  -21.6419   17.1383 C   0  0  0  0  0  0  0  0  0  0  0  0
  -20.3352   -5.9929   25.0575 C   0  0  0  0  0  0  0  0  0  0  0  0
  -28.3943  -19.0672   21.6607 C   0  0  0  0  0  0  0  0  0  0  0  0
  -23.8227  -10.4439   20.9770 C   0  0  0  0  0  0  0  0  0  0  0  0
  -24.1653  -12.9673   20.8266 C   0  0  0  0  0  0  0  0  0  0  0  0
  -34.2815  -29.6840   16.1285 C   0  0  0  0  0  0  0  0  0  0  0  0
  -29.0638  -23.8912   16.4380 C   0  0  0  0  0  0  0  0  0  0  0  0
  -33.5095  -28.6683   15.5329 C   0  0  0  0  0  0  0  0  0  0  0  0
  -29.6704  -23.0266   17.3603 C   0  0  0  0  0  0  0  0  0  0  0  0
  -22.3335   -8.1442   21.5027 C   0  0  0  0  0  0  0  0  0  0  0  0
  -28.9662  -21.1238   16.0212 C   0  0  0  0  0  0  0  0  0  0  0  0
  -20.8538   -6.9953   22.9213 C   0  0  0  0  0  0  0  0  0  0  0  0
  -19.3359   -6.9445   25.2614 C   0  0  0  0  0  0  0  0  0  0  0  0
  -21.0942   -6.0184   23.8875 C   0  0  0  0  0  0  0  0  0  0  0  0
  -24.5925  -11.6314   20.7060 C   0  0  0  0  0  0  0  0  0  0  0  0
  -28.3010  -17.9554   19.7191 C   0  0  0  0  0  0  0  0  0  0  0  0
  -25.2582  -13.7121   20.4560 C   0  0  0  0  0  0  0  0  0  0  0  0
  -22.8942  -13.4885   21.2370 C   0  0  0  0  0  0  0  0  0  0  0  0
  -31.5547  -25.8225   16.8493 C   0  0  0  0  0  0  0  0  0  0  0  0
  -30.6952  -25.6270   19.9711 C   0  0  0  0  0  0  0  0  0  0  0  0
  -29.1122  -23.8764   22.4361 C   0  0  0  0  0  0  0  0  0  0  0  0
  -30.7418  -14.7324   20.6412 C   0  0  0  0  0  0  0  0  0  0  0  0
  -35.1436  -29.4196   17.3375 C   0  0  0  0  0  0  0  0  0  0  0  0
  -29.0800  -25.3782   16.6632 C   0  0  0  0  0  0  0  0  0  0  0  0
  -30.3831  -23.5440   18.5821 C   0  0  0  0  0  0  0  0  0  0  0  0
  -34.7702  -28.1415   18.0840 C   0  0  0  0  0  0  0  0  0  0  0  0
  -29.6078  -12.3189   18.2820 C   0  0  0  0  0  0  0  0  0  0  0  0
  -34.5813  -26.9872   17.1048 C   0  0  0  0  0  0  0  0  0  0  0  0
  -28.1695  -12.0308   18.7160 C   0  0  0  0  0  0  0  0  0  0  0  0
  -30.5229  -12.5543   19.4816 C   0  0  0  0  0  0  0  0  0  0  0  0
  -28.6189  -13.3027   20.8559 C   0  0  0  0  0  0  0  0  0  0  0  0
  -33.4386  -27.2771   16.1241 C   0  0  1  0  0  0  0  0  0  0  0  0
  -30.2291  -25.8347   17.5567 C   0  0  1  0  0  0  0  0  0  0  0  0
  -27.6468  -13.1138   19.6788 C   0  0  2  0  0  0  0  0  0  0  0  0
  -28.6108  -23.9504   24.8938 C   0  0  0  0  0  0  0  0  0  0  0  0
  -27.1040  -18.2710   16.2346 C   0  0  0  0  0  0  0  0  0  0  0  0
  -33.5657  -24.7900   20.5794 C   0  0  0  0  0  0  0  0  0  0  0  0
  -32.7812  -23.9761   22.8133 C   0  0  0  0  0  0  0  0  0  0  0  0
  -32.5750  -26.3915   22.2251 C   0  0  0  0  0  0  0  0  0  0  0  0
  -26.1922  -23.9298   21.9568 C   0  0  0  0  0  0  0  0  0  0  0  0
  -28.8051  -17.1396   18.5555 C   0  0  0  0  0  0  0  0  0  0  0  0
  -29.3282  -17.9863   17.3860 C   0  0  0  0  0  0  0  0  0  0  0  0
  -30.5256  -18.0377   20.8758 C   0  0  0  0  0  0  0  0  0  0  0  0
  -30.8060  -16.8979   21.8517 C   0  0  0  0  0  0  0  0  0  0  0  0
  -31.0423  -24.7115   21.1202 C   0  0  1  0  0  0  0  0  0  0  0  0
  -28.1193  -24.3087   23.5000 C   0  0  2  0  0  0  0  0  0  0  0  0
  -28.3066  -18.9884   16.8343 C   0  0  1  0  0  0  0  0  0  1  0  0
  -32.4793  -24.9573   21.6605 C   0  0  0  0  0  0  0  0  0  0  0  0
  -25.8580  -11.5302   20.2911 N   0  0  0  0  0  0  0  0  0  0  0  0
  -29.1169  -18.3408   20.7505 N   0  0  0  0  0  0  0  0  0  0  0  0
  -26.2354  -12.8120   20.1477 N   0  0  0  0  0  0  0  0  0  0  0  0
  -30.3769  -25.0061   18.7550 N   0  0  0  0  0  0  0  0  0  0  0  0
  -29.9711  -13.5937   20.3540 N   0  0  0  0  0  0  0  0  0  0  0  0
  -25.4690  -15.0425   20.3670 N   0  0  0  0  0  0  0  0  0  0  0  0
  -21.8815  -12.5837   21.5836 N   0  0  0  0  0  0  0  0  0  0  0  0
  -32.1578  -27.0627   16.7629 N   0  0  0  0  0  0  0  0  0  0  0  0
  -29.9910  -24.8896   22.1159 N   0  0  0  0  0  0  0  0  0  0  0  0
  -30.1414  -15.6716   21.4708 N   0  0  0  0  0  0  0  0  0  0  0  0
  -26.8032  -23.6448   23.2806 N   0  3  0  0  0  0  0  0  0  0  0  0
  -22.6581  -14.7197   21.2788 O   0  0  0  0  0  0  0  0  0  0  0  0
  -31.9982  -24.7657   16.4154 O   0  0  0  0  0  0  0  0  0  0  0  0
  -30.6992  -26.8478   20.1480 O   0  0  0  0  0  0  0  0  0  0  0  0
  -29.1108  -22.7513   21.9415 O   0  0  0  0  0  0  0  0  0  0  0  0
  -31.8786  -14.9020   20.1874 O   0  0  0  0  0  0  0  0  0  0  0  0
  -21.6069   -7.0223   21.7596 O   0  0  0  0  0  0  0  0  0  0  0  0
  -28.9246  -19.7786   15.8194 O   0  0  0  0  0  0  0  0  0  1  0  0
  -18.6080   -6.9212   26.3856 F   0  0  0  0  0  0  0  0  0  0  0  0
  -22.0537   -5.1023   23.6977 F   0  0  0  0  0  0  0  0  0  0  0  0
  1  2  1  0  0  0  0
  1  6  2  0  0  0  0
  2  7  2  0  0  0  0
  3 14  1  0  0  0  0
  3 17  2  0  0  0  0
  4  9  2  0  0  0  0
  4 18  1  0  0  0  0
  5 10  1  0  0  0  0
  5 18  2  0  0  0  0
  6 20  1  0  0  0  0
  7 22  1  0  0  0  0
  8 11  2  0  0  0  0
  8 21  1  0  0  0  0
  9 24  1  0  0  0  0
 10 24  2  0  0  0  0
 11 25  1  0  0  0  0
 12 13  2  0  0  0  0
 12 26  1  0  0  0  0
 13 27  1  0  0  0  0
 14 30  2  0  0  0  0
 15 23  1  0  0  0  0
 15 25  2  0  0  0  0
 16 27  2  0  0  0  0
 16 28  1  0  0  0  0
 17 64  1  0  0  0  0
 18 29  1  0  0  0  0
 19 29  1  0  0  0  0
 19 31  2  0  0  0  0
 19 32  1  0  0  0  0
 20 22  2  0  0  0  0
 20 37  1  0  0  0  0
 21 23  2  0  0  0  0
 21 38  1  0  0  0  0
 22 46  1  0  0  0  0
 23 39  1  0  0  0  0
 24 79  1  0  0  0  0
 25 80  1  0  0  0  0
 26 28  2  0  0  0  0
 26 79  1  0  0  0  0
 27 81  1  0  0  0  0
 28 82  1  0  0  0  0
 29 63  2  0  0  0  0
 30 55  1  0  0  0  0
 30 64  1  0  0  0  0
 31 65  1  0  0  0  0
 31 68  1  0  0  0  0
 32 69  1  0  0  0  0
 32 74  2  0  0  0  0
 33 47  1  0  0  0  0
 33 70  1  0  0  0  0
 33 75  2  0  0  0  0
 34 59  1  0  0  0  0
 34 66  1  0  0  0  0
 34 76  2  0  0  0  0
 35 60  1  0  0  0  0
 35 71  1  0  0  0  0
 35 77  2  0  0  0  0
 36 67  1  0  0  0  0
 36 72  1  0  0  0  0
 36 78  2  0  0  0  0
 37 40  1  0  0  0  0
 38 47  1  0  0  0  0
 39 66  1  0  0  0  0
 40 42  1  0  0  0  0
 41 43  1  0  0  0  0
 41 44  1  0  0  0  0
 42 46  1  0  0  0  0
 43 48  1  0  0  0  0
 44 67  1  0  0  0  0
 45 48  1  0  0  0  0
 45 67  1  0  0  0  0
 46 70  1  0  0  0  0
 47 66  1  0  0  0  0
 48 65  1  0  0  0  0
 49 60  1  0  0  0  0
 50 61  1  0  0  0  0
 51 62  1  0  0  0  0
 52 62  1  0  0  0  0
 53 62  1  0  0  0  0
 54 73  1  0  0  0  0
 55 56  1  0  0  0  0
 56 61  1  0  0  0  0
 57 58  1  0  0  0  0
 57 64  1  0  0  0  0
 58 72  1  0  0  0  0
 59 62  1  0  0  0  0
 59 71  1  0  0  0  0
 60 73  1  0  0  0  0
 61 80  1  0  0  0  0
 63 65  1  0  0  0  0
M  CHG  1  73   1
M  ISO  4  36 100  61 101  72 100  80 101
M  END
> <Batch ID>
0110

> <Smiles>
CNC(C)C(=O)NC(C(=O)N1Cc2cc([101O:1][101CH:1](C)CCc3cccn3CC[100NH:0][100C:0](=O)N3CCCC(n4nc(-c5ccc(Oc6ccc(F)cc6F)cc5)c(C(N)=O)c4N)C3)ccc2CC1C(=O)NC1CCCc2ccccc21)C(C)(C)C

> <Shape>
0.262

> <Color>
0.201

> <Negative vol penalty>
0.000

$$$$

  -OEChem-04052319583D

 79 86  0     1  0  0  0  0  0999 V2000
  -29.1889  -25.0311   24.2454 C   0  0  0  0  0  0  0  0  0  0  0  0
  -27.9125  -25.0091   23.6924 C   0  0  0  0  0  0  0  0  0  0  0  0
  -26.0299  -27.8650   21.4523 C   0  0  0  0  0  0  0  0  0  0  0  0
  -24.5687  -28.7502   19.7440 C   0  0  0  0  0  0  0  0  0  0  0  0
  -30.1343  -24.0849   23.8516 C   0  0  0  0  0  0  0  0  0  0  0  0
  -27.5811  -24.0416   22.7445 C   0  0  0  0  0  0  0  0  0  0  0  0
  -22.1398  -21.3328   21.9959 C   0  0  0  0  0  0  0  0  0  0  0  0
  -27.0581  -27.7556   20.5162 C   0  0  0  0  0  0  0  0  0  0  0  0
  -25.5970  -28.6409   18.8079 C   0  0  0  0  0  0  0  0  0  0  0  0
  -21.0880  -21.5692   21.1118 C   0  0  0  0  0  0  0  0  0  0  0  0
  -29.9586  -26.9068   18.4937 C   0  0  0  0  0  0  0  0  0  0  0  0
  -30.7033  -25.7275   18.4809 C   0  0  0  0  0  0  0  0  0  0  0  0
  -21.9406  -19.8517   19.6480 C   0  0  0  0  0  0  0  0  0  0  0  0
  -28.6962  -24.4652   18.0165 C   0  0  0  0  0  0  0  0  0  0  0  0
  -24.7851  -28.3623   21.0662 C   0  0  0  0  0  0  0  0  0  0  0  0
  -23.4334  -29.5818   22.8532 C   0  0  0  0  0  0  0  0  0  0  0  0
  -29.8113  -23.0994   22.9056 C   0  0  0  0  0  0  0  0  0  0  0  0
  -23.1075  -20.3600   21.7070 C   0  0  0  0  0  0  0  0  0  0  0  0
  -28.5235  -23.0823   22.3367 C   0  0  0  0  0  0  0  0  0  0  0  0
  -23.0021  -19.6031   20.5314 C   0  0  0  0  0  0  0  0  0  0  0  0
  -26.8417  -28.1436   19.1940 C   0  0  0  0  0  0  0  0  0  0  0  0
  -20.9899  -20.8306   19.9362 C   0  0  0  0  0  0  0  0  0  0  0  0
  -28.5827  -26.8654   18.2680 C   0  0  0  0  0  0  0  0  0  0  0  0
  -30.0721  -24.5067   18.2422 C   0  0  0  0  0  0  0  0  0  0  0  0
  -27.9515  -25.6446   18.0293 C   0  0  0  0  0  0  0  0  0  0  0  0
  -23.7224  -28.4750   22.0327 C   0  0  0  0  0  0  0  0  0  0  0  0
  -22.3391  -29.1901   23.5850 C   0  0  0  0  0  0  0  0  0  0  0  0
  -24.0948  -30.8505   22.9455 C   0  0  0  0  0  0  0  0  0  0  0  0
  -26.2475  -20.3966   21.2142 C   0  0  0  0  0  0  0  0  0  0  0  0
  -25.8855  -17.1733   21.1723 C   0  0  0  0  0  0  0  0  0  0  0  0
  -23.8293  -14.4950   20.6765 C   0  0  0  0  0  0  0  0  0  0  0  0
  -17.9992  -25.1833   22.6041 C   0  0  0  0  0  0  0  0  0  0  0  0
  -30.8812  -22.1269   22.4763 C   0  0  0  0  0  0  0  0  0  0  0  0
  -24.2210  -20.0986   22.6840 C   0  0  0  0  0  0  0  0  0  0  0  0
  -24.0039  -18.5332   20.1846 C   0  0  0  0  0  0  0  0  0  0  0  0
  -30.3345  -20.9045   21.7434 C   0  0  0  0  0  0  0  0  0  0  0  0
  -20.2338  -25.2840   25.3742 C   0  0  0  0  0  0  0  0  0  0  0  0
  -29.3198  -21.3259   20.6854 C   0  0  0  0  0  0  0  0  0  0  0  0
  -21.3552  -26.2131   24.9059 C   0  0  0  0  0  0  0  0  0  0  0  0
  -19.7030  -24.4201   24.2323 C   0  0  0  0  0  0  0  0  0  0  0  0
  -20.3989  -26.0981   22.5669 C   0  0  0  0  0  0  0  0  0  0  0  0
  -28.1184  -22.0332   21.3240 C   0  0  1  0  0  0  0  0  0  0  0  0
  -25.4372  -19.4390   22.0413 C   0  0  1  0  0  0  0  0  0  0  0  0
  -20.9283  -27.0292   23.6710 C   0  0  2  0  0  0  0  0  0  0  0  0
  -23.8283  -11.9856   20.6771 C   0  0  0  0  0  0  0  0  0  0  0  0
  -15.6677  -23.0747   17.6758 C   0  0  0  0  0  0  0  0  0  0  0  0
  -27.3034  -17.1746   18.4705 C   0  0  0  0  0  0  0  0  0  0  0  0
  -26.4412  -14.8542   18.0953 C   0  0  0  0  0  0  0  0  0  0  0  0
  -27.9802  -15.3178   20.0030 C   0  0  0  0  0  0  0  0  0  0  0  0
  -21.8257  -14.3807   22.8517 C   0  0  0  0  0  0  0  0  0  0  0  0
  -16.4018  -26.0556   20.9169 C   0  0  0  0  0  0  0  0  0  0  0  0
  -15.9798  -24.7070   20.3644 C   0  0  0  0  0  0  0  0  0  0  0  0
  -19.0252  -22.0718   19.4309 C   0  0  0  0  0  0  0  0  0  1  0  0
  -25.5931  -16.1441   20.1073 C   0  0  1  0  0  0  0  0  0  0  0  0
  -23.5907  -13.2422   21.5000 C   0  0  2  0  0  0  0  0  0  0  0  0
  -16.6815  -22.8910   18.7997 C   0  0  1  0  0  0  0  0  0  0  0  0
  -17.9789  -22.2194   18.3264 C   0  0  1  0  0  0  0  0  0  0  0  0
  -26.8115  -15.8941   19.1744 C   0  0  0  0  0  0  0  0  0  0  0  0
  -22.8798  -27.4566   22.2249 N   0  0  0  0  0  0  0  0  0  0  0  0
  -22.0506  -27.9218   23.1747 N   0  0  0  0  0  0  0  0  0  0  0  0
  -25.0778  -18.3194   21.1686 N   0  0  0  0  0  0  0  0  0  0  0  0
  -19.3141  -25.2547   23.0930 N   0  0  0  0  0  0  0  0  0  0  0  0
  -21.6051  -29.8103   24.5332 N   0  0  0  0  0  0  0  0  0  0  0  0
  -25.2033  -31.0875   22.1213 N   0  0  0  0  0  0  0  0  0  0  0  0
  -27.2242  -21.0672   21.9254 N   0  0  0  0  0  0  0  0  0  0  0  0
  -25.1229  -14.9540   20.8079 N   0  0  0  0  0  0  0  0  0  0  0  0
  -17.7124  -26.0121   21.5263 N   0  0  0  0  0  0  0  0  0  0  0  0
  -22.1895  -13.2144   22.0065 N   0  3  0  0  0  0  0  0  0  0  0  0
  -16.9768  -24.2376   19.3688 N   0  3  0  0  0  0  0  0  0  0  0  0
  -23.7242  -31.7412   23.7472 O   0  0  0  0  0  0  0  0  0  0  0  0
  -26.0056  -20.5170   20.0189 O   0  0  0  0  0  0  0  0  0  0  0  0
  -26.7922  -16.9647   21.9822 O   0  0  0  0  0  0  0  0  0  0  0  0
  -22.9565  -15.0125   19.9830 O   0  0  0  0  0  0  0  0  0  0  0  0
  -17.1428  -24.4402   23.0952 O   0  0  0  0  0  0  0  0  0  0  0  0
  -18.5441  -22.9713   17.2509 O   0  0  0  0  0  0  0  0  0  0  0  0
  -27.8449  -28.0372   18.2803 O   0  0  0  0  0  0  0  0  0  0  0  0
  -19.9647  -21.0598   19.0711 O   0  0  0  0  0  0  0  0  0  1  0  0
  -30.7876  -23.3744   18.2284 F   0  0  0  0  0  0  0  0  0  0  0  0
  -26.6302  -25.5987   17.8107 F   0  0  0  0  0  0  0  0  0  0  0  0
  1  2  1  0  0  0  0
  1  5  2  0  0  0  0
  2  6  2  0  0  0  0
  3  8  2  0  0  0  0
  3 15  1  0  0  0  0
  4  9  1  0  0  0  0
  4 15  2  0  0  0  0
  5 17  1  0  0  0  0
  6 19  1  0  0  0  0
  7 10  2  0  0  0  0
  7 18  1  0  0  0  0
  8 21  1  0  0  0  0
  9 21  2  0  0  0  0
 10 22  1  0  0  0  0
 11 12  2  0  0  0  0
 11 23  1  0  0  0  0
 12 24  1  0  0  0  0
 13 20  1  0  0  0  0
 13 22  2  0  0  0  0
 14 24  2  0  0  0  0
 14 25  1  0  0  0  0
 15 26  1  0  0  0  0
 16 26  1  0  0  0  0
 16 27  2  0  0  0  0
 16 28  1  0  0  0  0
 17 19  2  0  0  0  0
 17 33  1  0  0  0  0
 18 20  2  0  0  0  0
 18 34  1  0  0  0  0
 19 42  1  0  0  0  0
 20 35  1  0  0  0  0
 21 76  1  0  0  0  0
 22 77  1  0  0  0  0
 23 25  2  0  0  0  0
 23 76  1  0  0  0  0
 24 78  1  0  0  0  0
 25 79  1  0  0  0  0
 26 59  2  0  0  0  0
 27 60  1  0  0  0  0
 27 63  1  0  0  0  0
 28 64  1  0  0  0  0
 28 70  2  0  0  0  0
 29 43  1  0  0  0  0
 29 65  1  0  0  0  0
 29 71  2  0  0  0  0
 30 54  1  0  0  0  0
 30 61  1  0  0  0  0
 30 72  2  0  0  0  0
 31 55  1  0  0  0  0
 31 66  1  0  0  0  0
 31 73  2  0  0  0  0
 32 62  1  0  0  0  0
 32 67  1  0  0  0  0
 32 74  2  0  0  0  0
 33 36  1  0  0  0  0
 34 43  1  0  0  0  0
 35 61  1  0  0  0  0
 36 38  1  0  0  0  0
 37 39  1  0  0  0  0
 37 40  1  0  0  0  0
 38 42  1  0  0  0  0
 39 44  1  0  0  0  0
 40 62  1  0  0  0  0
 41 44  1  0  0  0  0
 41 62  1  0  0  0  0
 42 65  1  0  0  0  0
 43 61  1  0  0  0  0
 44 60  1  0  0  0  0
 45 55  1  0  0  0  0
 46 56  1  0  0  0  0
 47 58  1  0  0  0  0
 48 58  1  0  0  0  0
 49 58  1  0  0  0  0
 50 68  1  0  0  0  0
 51 52  1  0  0  0  0
 51 67  1  0  0  0  0
 52 69  1  0  0  0  0
 53 57  1  0  0  0  0
 53 77  1  0  0  0  0
 54 58  1  0  0  0  0
 54 66  1  0  0  0  0
 55 68  1  0  0  0  0
 56 57  1  0  0  0  0
 56 69  1  0  0  0  0
 57 75  1  0  0  0  0
 59 60  1  0  0  0  0
M  CHG  2  68   1  69   1
M  ISO  4  32 100  53 101  67 100  77 101
M  END
> <Batch ID>
0110

> <Smiles>
CNC(C)C(=O)NC(C(=O)N1Cc2cc([101O:1][101CH2:1]C(O)C(C)NCC[100NH:0][100C:0](=O)N3CCCC(n4nc(-c5ccc(Oc6ccc(F)cc6F)cc5)c(C(N)=O)c4N)C3)ccc2CC1C(=O)NC1CCCc2ccccc21)C(C)(C)C

> <Shape>
0.184

> <Color>
0.071

> <Negative vol penalty>
0.000

$$$$

  -OEChem-04052319583D

 85 93  0     1  0  0  0  0  0999 V2000
  -25.3826  -32.8360   23.2951 C   0  0  0  0  0  0  0  0  0  0  0  0
  -25.1337  -31.4729   23.4197 C   0  0  0  0  0  0  0  0  0  0  0  0
  -22.9773   -9.9300   19.9699 C   0  0  0  0  0  0  0  0  0  0  0  0
  -23.7328   -9.9260   22.2647 C   0  0  0  0  0  0  0  0  0  0  0  0
  -25.9287  -33.3386   22.1148 C   0  0  0  0  0  0  0  0  0  0  0  0
  -25.4298  -30.6118   22.3636 C   0  0  0  0  0  0  0  0  0  0  0  0
  -27.4365  -24.8401   22.7713 C   0  0  0  0  0  0  0  0  0  0  0  0
  -22.2039   -8.7971   20.2224 C   0  0  0  0  0  0  0  0  0  0  0  0
  -22.9593   -8.7930   22.5173 C   0  0  0  0  0  0  0  0  0  0  0  0
  -26.7834  -23.6115   22.6828 C   0  0  0  0  0  0  0  0  0  0  0  0
  -23.1666   -5.4627   21.9724 C   0  0  0  0  0  0  0  0  0  0  0  0
  -23.7545   -4.4247   22.6952 C   0  0  0  0  0  0  0  0  0  0  0  0
  -27.3879  -23.4649   20.3521 C   0  0  0  0  0  0  0  0  0  0  0  0
  -22.0548   -4.6477   24.3977 C   0  0  0  0  0  0  0  0  0  0  0  0
  -28.3951  -18.7069   21.8760 C   0  0  0  0  0  0  0  0  0  0  0  0
  -23.7418  -10.4945   20.9910 C   0  0  0  0  0  0  0  0  0  0  0  0
  -24.1480  -13.0097   20.8627 C   0  0  0  0  0  0  0  0  0  0  0  0
  -26.2407  -32.4820   21.0474 C   0  0  0  0  0  0  0  0  0  0  0  0
  -28.0619  -25.3964   21.6462 C   0  0  0  0  0  0  0  0  0  0  0  0
  -25.9794  -31.1037   21.1675 C   0  0  0  0  0  0  0  0  0  0  0  0
  -28.0504  -24.6994   20.4295 C   0  0  0  0  0  0  0  0  0  0  0  0
  -29.2061  -18.3122   20.8349 C   0  0  0  0  0  0  0  0  0  0  0  0
  -28.4265  -18.3527   19.6526 C   0  0  0  0  0  0  0  0  0  0  0  0
  -22.1948   -8.2286   21.4961 C   0  0  0  0  0  0  0  0  0  0  0  0
  -26.7565  -22.9251   21.4724 C   0  0  0  0  0  0  0  0  0  0  0  0
  -22.0229   -6.0933   22.4622 C   0  0  0  0  0  0  0  0  0  0  0  0
  -23.1986   -4.0171   23.9078 C   0  0  0  0  0  0  0  0  0  0  0  0
  -21.4670   -5.6858   23.6749 C   0  0  0  0  0  0  0  0  0  0  0  0
  -24.5414  -11.6645   20.7305 C   0  0  0  0  0  0  0  0  0  0  0  0
  -27.1630  -18.7712   20.0072 C   0  0  0  0  0  0  0  0  0  0  0  0
  -25.2596  -13.7298   20.4989 C   0  0  0  0  0  0  0  0  0  0  0  0
  -22.8903  -13.5591   21.2772 C   0  0  0  0  0  0  0  0  0  0  0  0
  -27.6699  -28.0535   19.9463 C   0  0  0  0  0  0  0  0  0  0  0  0
  -30.3481  -27.0186   18.4369 C   0  0  0  0  0  0  0  0  0  0  0  0
  -32.3707  -24.4024   17.5932 C   0  0  0  0  0  0  0  0  0  0  0  0
  -30.7671  -14.6097   20.6946 C   0  0  0  0  0  0  0  0  0  0  0  0
  -26.7857  -33.0780   19.7737 C   0  0  0  0  0  0  0  0  0  0  0  0
  -28.7851  -26.7099   21.7648 C   0  0  0  0  0  0  0  0  0  0  0  0
  -28.7241  -25.2438   19.1974 C   0  0  0  0  0  0  0  0  0  0  0  0
  -27.4190  -32.0483   18.8416 C   0  0  0  0  0  0  0  0  0  0  0  0
  -29.5737  -12.2463   18.3140 C   0  0  0  0  0  0  0  0  0  0  0  0
  -26.5148  -30.8279   18.7011 C   0  0  0  0  0  0  0  0  0  0  0  0
  -28.1285  -11.9908   18.7451 C   0  0  0  0  0  0  0  0  0  0  0  0
  -30.4939  -12.4481   19.5159 C   0  0  0  0  0  0  0  0  0  0  0  0
  -28.6087  -13.2323   20.8961 C   0  0  0  0  0  0  0  0  0  0  0  0
  -26.3100  -30.1344   20.0534 C   0  0  1  0  0  0  0  0  0  0  0  0
  -28.9473  -27.4256   20.4273 C   0  0  1  0  0  0  0  0  0  0  0  0
  -27.6327  -13.0783   19.7172 C   0  0  2  0  0  0  0  0  0  0  0  0
  -25.9611  -18.9879   19.1743 C   0  0  0  0  0  0  0  0  0  0  0  0
  -29.6707  -20.3634   17.6500 C   0  0  0  0  0  0  0  0  0  0  0  0
  -28.1227  -16.7884   17.7158 C   0  0  0  0  0  0  0  0  0  0  0  0
  -34.4660  -23.8625   16.3221 C   0  0  0  0  0  0  0  0  0  0  0  0
  -28.8208  -27.2889   15.8093 C   0  0  0  0  0  0  0  0  0  0  0  0
  -30.5765  -25.8721   14.7237 C   0  0  0  0  0  0  0  0  0  0  0  0
  -31.1940  -28.0732   15.7220 C   0  0  0  0  0  0  0  0  0  0  0  0
  -33.7198  -23.3825   20.0220 C   0  0  0  0  0  0  0  0  0  0  0  0
  -30.6256  -17.9204   20.9436 C   0  0  0  0  0  0  0  0  0  0  0  0
  -28.7923  -19.1799   17.2629 C   0  0  0  0  0  0  0  0  0  0  0  0
  -25.9747  -19.4500   22.1773 C   0  0  0  0  0  0  0  0  0  0  0  0
  -30.8853  -16.7623   21.9239 C   0  0  0  0  0  0  0  0  0  0  0  0
  -26.0801  -20.9219   22.5613 C   0  0  0  0  0  0  0  0  0  1  0  0
  -28.8822  -18.0099   18.2896 C   0  0  1  0  0  0  0  0  0  0  0  0
  -30.6303  -26.1357   17.2453 C   0  0  1  0  0  0  0  0  0  0  0  0
  -33.8762  -24.2256   17.6760 C   0  0  2  0  0  0  0  0  0  0  0  0
  -30.2909  -26.8329   15.8976 C   0  0  0  0  0  0  0  0  0  0  0  0
  -25.8042  -11.5350   20.3151 N   0  0  0  0  0  0  0  0  0  0  0  0
  -27.1556  -18.9837   21.3611 N   0  0  0  0  0  0  0  0  0  0  0  0
  -26.2139  -12.8081   20.1830 N   0  0  0  0  0  0  0  0  0  0  0  0
  -29.4126  -26.5347   19.3624 N   0  0  0  0  0  0  0  0  0  0  0  0
  -29.9680  -13.4934   20.3972 N   0  0  0  0  0  0  0  0  0  0  0  0
  -25.5039  -15.0552   20.4216 N   0  0  0  0  0  0  0  0  0  0  0  0
  -21.8549  -12.6772   21.6157 N   0  0  0  0  0  0  0  0  0  0  0  0
  -27.4729  -29.3446   20.3975 N   0  0  0  0  0  0  0  0  0  0  0  0
  -32.0226  -25.7174   17.3677 N   0  0  0  0  0  0  0  0  0  0  0  0
  -30.1902  -15.5565   21.5321 N   0  0  0  0  0  0  0  0  0  0  0  0
  -34.2183  -23.1444   18.6429 N   0  3  0  0  0  0  0  0  0  0  0  0
  -22.6853  -14.7955   21.3297 O   0  0  0  0  0  0  0  0  0  0  0  0
  -26.9192  -27.4145   19.2183 O   0  0  0  0  0  0  0  0  0  0  0  0
  -30.9414  -28.0945   18.5463 O   0  0  0  0  0  0  0  0  0  0  0  0
  -31.5826  -23.4669   17.7127 O   0  0  0  0  0  0  0  0  0  0  0  0
  -31.9080  -14.7546   20.2426 O   0  0  0  0  0  0  0  0  0  0  0  0
  -21.4400   -7.1232   21.7430 O   0  0  0  0  0  0  0  0  0  0  0  0
  -26.1192  -21.7260   21.3831 O   0  0  0  0  0  0  0  0  0  1  0  0
  -23.7623   -3.0192   24.6011 F   0  0  0  0  0  0  0  0  0  0  0  0
  -20.3676   -6.2870   24.1500 F   0  0  0  0  0  0  0  0  0  0  0  0
  1  2  1  0  0  0  0
  1  5  2  0  0  0  0
  2  6  2  0  0  0  0
  3  8  2  0  0  0  0
  3 16  1  0  0  0  0
  4  9  1  0  0  0  0
  4 16  2  0  0  0  0
  5 18  1  0  0  0  0
  6 20  1  0  0  0  0
  7 10  2  0  0  0  0
  7 19  1  0  0  0  0
  8 24  1  0  0  0  0
  9 24  2  0  0  0  0
 10 25  1  0  0  0  0
 11 12  2  0  0  0  0
 11 26  1  0  0  0  0
 12 27  1  0  0  0  0
 13 21  1  0  0  0  0
 13 25  2  0  0  0  0
 14 27  2  0  0  0  0
 14 28  1  0  0  0  0
 15 22  2  0  0  0  0
 15 67  1  0  0  0  0
 16 29  1  0  0  0  0
 17 29  1  0  0  0  0
 17 31  2  0  0  0  0
 17 32  1  0  0  0  0
 18 20  2  0  0  0  0
 18 37  1  0  0  0  0
 19 21  2  0  0  0  0
 19 38  1  0  0  0  0
 20 46  1  0  0  0  0
 21 39  1  0  0  0  0
 22 23  1  0  0  0  0
 22 57  1  0  0  0  0
 23 30  2  0  0  0  0
 23 62  1  0  0  0  0
 24 82  1  0  0  0  0
 25 83  1  0  0  0  0
 26 28  2  0  0  0  0
 26 82  1  0  0  0  0
 27 84  1  0  0  0  0
 28 85  1  0  0  0  0
 29 66  2  0  0  0  0
 30 49  1  0  0  0  0
 30 67  1  0  0  0  0
 31 68  1  0  0  0  0
 31 71  1  0  0  0  0
 32 72  1  0  0  0  0
 32 77  2  0  0  0  0
 33 47  1  0  0  0  0
 33 73  1  0  0  0  0
 33 78  2  0  0  0  0
 34 63  1  0  0  0  0
 34 69  1  0  0  0  0
 34 79  2  0  0  0  0
 35 64  1  0  0  0  0
 35 74  1  0  0  0  0
 35 80  2  0  0  0  0
 36 70  1  0  0  0  0
 36 75  1  0  0  0  0
 36 81  2  0  0  0  0
 37 40  1  0  0  0  0
 38 47  1  0  0  0  0
 39 69  1  0  0  0  0
 40 42  1  0  0  0  0
 41 43  1  0  0  0  0
 41 44  1  0  0  0  0
 42 46  1  0  0  0  0
 43 48  1  0  0  0  0
 44 70  1  0  0  0  0
 45 48  1  0  0  0  0
 45 70  1  0  0  0  0
 46 73  1  0  0  0  0
 47 69  1  0  0  0  0
 48 68  1  0  0  0  0
 50 58  1  0  0  0  0
 51 62  1  0  0  0  0
 52 64  1  0  0  0  0
 53 65  1  0  0  0  0
 54 65  1  0  0  0  0
 55 65  1  0  0  0  0
 56 76  1  0  0  0  0
 57 60  1  0  0  0  0
 58 62  1  0  0  0  0
 59 61  1  0  0  0  0
 59 67  1  0  0  0  0
 60 75  1  0  0  0  0
 61 83  1  0  0  0  0
 63 65  1  0  0  0  0
 63 74  1  0  0  0  0
 64 76  1  0  0  0  0
 66 68  1  0  0  0  0
M  CHG  1  76   1
M  ISO  4  36 100  61 101  75 100  83 101
M  END
> <Batch ID>
0110

> <Smiles>
CCC(C)c1c(CC[100NH:0][100C:0](=O)N2CCCC(n3nc(-c4ccc(Oc5ccc(F)cc5F)cc4)c(C(N)=O)c3N)C2)cn(C[101CH2:1][101O:1]c2ccc3c(c2)CN(C(=O)C(NC(=O)C(C)NC)C(C)(C)C)C(C(=O)NC2CCCc4ccccc42)C3)c1C

> <Shape>
0.329

> <Color>
0.198

> <Negative vol penalty>
0.000

$$$$

  -OEChem-04052319583D

 94104  0     1  0  0  0  0  0999 V2000
  -16.3510  -28.1268   20.6310 C   0  0  0  0  0  0  0  0  0  0  0  0
  -17.3559  -28.7062   19.8628 C   0  0  0  0  0  0  0  0  0  0  0  0
  -23.2664  -13.6108   21.0867 C   0  0  0  0  0  0  0  0  0  0  0  0
  -25.1366  -14.7839   22.0681 C   0  0  0  0  0  0  0  0  0  0  0  0
  -16.3952  -28.2223   22.0212 C   0  0  0  0  0  0  0  0  0  0  0  0
  -18.4050  -29.3824   20.4845 C   0  0  0  0  0  0  0  0  0  0  0  0
  -25.2407  -27.3398   19.4882 C   0  0  0  0  0  0  0  0  0  0  0  0
  -24.1218  -12.5864   20.6811 C   0  0  0  0  0  0  0  0  0  0  0  0
  -25.9920  -13.7595   21.6626 C   0  0  0  0  0  0  0  0  0  0  0  0
  -26.5871  -27.1420   19.1812 C   0  0  0  0  0  0  0  0  0  0  0  0
  -27.5260  -12.7757   18.8148 C   0  0  0  0  0  0  0  0  0  0  0  0
  -28.7360  -13.1380   18.2230 C   0  0  0  0  0  0  0  0  0  0  0  0
  -27.2106  -28.8705   20.7533 C   0  0  0  0  0  0  0  0  0  0  0  0
  -29.9375  -11.9903   19.9769 C   0  0  0  0  0  0  0  0  0  0  0  0
  -30.3065  -24.1263   22.2920 C   0  0  0  0  0  0  0  0  0  0  0  0
  -23.7738  -14.7096   21.7802 C   0  0  0  0  0  0  0  0  0  0  0  0
  -21.7823  -15.6602   23.0599 C   0  0  0  0  0  0  0  0  0  0  0  0
  -17.4505  -28.8917   22.6607 C   0  0  0  0  0  0  0  0  0  0  0  0
  -24.8747  -28.2942   20.4414 C   0  0  0  0  0  0  0  0  0  0  0  0
  -18.4626  -29.4881   21.8846 C   0  0  0  0  0  0  0  0  0  0  0  0
  -25.8643  -29.0644   21.0741 C   0  0  0  0  0  0  0  0  0  0  0  0
  -25.4846  -12.6607   20.9690 C   0  0  0  0  0  0  0  0  0  0  0  0
  -27.5695  -27.9056   19.8120 C   0  0  0  0  0  0  0  0  0  0  0  0
  -27.5217  -12.0208   19.9877 C   0  0  0  0  0  0  0  0  0  0  0  0
  -29.9417  -12.7453   18.8040 C   0  0  0  0  0  0  0  0  0  0  0  0
  -28.7274  -11.6281   20.5688 C   0  0  0  0  0  0  0  0  0  0  0  0
  -22.8908  -15.7684   22.1989 C   0  0  0  0  0  0  0  0  0  0  0  0
  -29.1661  -23.6120   22.8576 C   0  0  0  0  0  0  0  0  0  0  0  0
  -29.9211  -25.3885   21.8167 C   0  0  0  0  0  0  0  0  0  0  0  0
  -21.2828  -16.9372   23.1387 C   0  0  0  0  0  0  0  0  0  0  0  0
  -28.8352  -22.3966   23.5166 C   0  0  0  0  0  0  0  0  0  0  0  0
  -27.5809  -22.2021   23.9643 C   0  0  0  0  0  0  0  0  0  0  0  0
  -26.8593  -24.3605   23.1684 C   0  0  0  0  0  0  0  0  0  0  0  0
  -26.5404  -23.2112   23.7923 C   0  0  0  0  0  0  0  0  0  0  0  0
  -21.2515  -14.5084   23.7287 C   0  0  0  0  0  0  0  0  0  0  0  0
  -22.0991  -29.9643   22.3342 C   0  0  0  0  0  0  0  0  0  0  0  0
  -24.3957  -29.5281   24.3206 C   0  0  0  0  0  0  0  0  0  0  0  0
  -26.9856  -28.4877   26.2821 C   0  0  0  0  0  0  0  0  0  0  0  0
  -23.7542  -22.3366   22.3702 C   0  0  0  0  0  0  0  0  0  0  0  0
  -17.4304  -29.0096   24.1642 C   0  0  0  0  0  0  0  0  0  0  0  0
  -23.4327  -28.5839   20.7586 C   0  0  0  0  0  0  0  0  0  0  0  0
  -25.4218  -30.1036   22.0676 C   0  0  0  0  0  0  0  0  0  0  0  0
  -18.7739  -29.4207   24.7609 C   0  0  0  0  0  0  0  0  0  0  0  0
  -33.1120  -26.8722   18.7913 C   0  0  0  0  0  0  0  0  0  0  0  0
  -20.9588  -20.9931   20.6216 C   0  0  0  0  0  0  0  0  0  0  0  0
  -33.4354  -26.0380   17.5521 C   0  0  0  0  0  0  0  0  0  0  0  0
  -19.3669  -30.5921   23.9844 C   0  0  0  0  0  0  0  0  0  0  0  0
  -21.0369  -19.4919   20.9052 C   0  0  0  0  0  0  0  0  0  0  0  0
  -31.6288  -27.2301   18.8868 C   0  0  0  0  0  0  0  0  0  0  0  0
  -22.3466  -21.6109   20.4653 C   0  0  0  0  0  0  0  0  0  0  0  0
  -23.3478  -19.8504   21.8696 C   0  0  0  0  0  0  0  0  0  0  0  0
  -32.9654  -24.5901   17.5751 C   0  0  0  0  0  0  0  0  0  0  0  0
  -31.1436  -24.7132   19.3068 C   0  0  0  0  0  0  0  0  0  0  0  0
  -19.6302  -30.2085   22.5232 C   0  0  1  0  0  0  0  0  0  0  0  0
  -23.2017  -28.9515   22.2353 C   0  0  1  0  0  0  0  0  0  0  0  0
  -21.9746  -19.1933   22.0905 C   0  0  2  0  0  0  0  0  0  0  0  0
  -30.7321  -26.1746   19.5782 C   0  0  1  0  0  0  0  0  0  0  0  0
  -27.7958  -28.5232   28.6569 C   0  0  0  0  0  0  0  0  0  0  0  0
  -29.0442  -24.1798   16.0716 C   0  0  0  0  0  0  0  0  0  0  0  0
  -28.8862  -21.7794   16.7939 C   0  0  0  0  0  0  0  0  0  0  0  0
  -25.2016  -32.4522   23.9981 C   0  0  0  0  0  0  0  0  0  0  0  0
  -26.7845  -32.1536   25.9147 C   0  0  0  0  0  0  0  0  0  0  0  0
  -24.3331  -31.8530   26.2656 C   0  0  0  0  0  0  0  0  0  0  0  0
  -26.9596  -25.5335   26.4572 C   0  0  0  0  0  0  0  0  0  0  0  0
  -30.7774  -26.3913   21.1067 C   0  0  0  0  0  0  0  0  0  0  0  0
  -25.1763  -22.9066   24.3225 C   0  0  0  0  0  0  0  0  0  0  0  0
  -29.2759  -26.4009   19.1177 C   0  0  0  0  0  0  0  0  0  1  0  0
  -30.9591  -23.1346   17.3845 C   0  0  0  0  0  0  0  0  0  0  0  0
  -25.6250  -30.1016   24.9788 C   0  0  1  0  0  0  0  0  0  0  0  0
  -27.0117  -27.7496   27.6083 C   0  0  2  0  0  0  0  0  0  0  0  0
  -29.4463  -23.1603   17.1386 C   0  0  0  0  0  0  0  0  0  0  0  0
  -25.4879  -31.6235   25.2663 C   0  0  0  0  0  0  0  0  0  0  0  0
  -23.0845  -17.0156   21.7619 N   0  0  0  0  0  0  0  0  0  0  0  0
  -28.6388  -25.6687   22.0531 N   0  0  0  0  0  0  0  0  0  0  0  0
  -28.1612  -24.5705   22.6996 N   0  0  0  0  0  0  0  0  0  0  0  0
  -22.0909  -17.7028   22.3506 N   0  0  0  0  0  0  0  0  0  0  0  0
  -24.3541  -29.5599   22.9214 N   0  0  0  0  0  0  0  0  0  0  0  0
  -23.1854  -21.2918   21.6231 N   0  0  0  0  0  0  0  0  0  0  0  0
  -20.2356  -17.4687   23.8046 N   0  0  0  0  0  0  0  0  0  0  0  0
  -20.2751  -13.7460   23.0733 N   0  0  0  0  0  0  0  0  0  0  0  0
  -20.8348  -29.4132   22.4186 N   0  0  0  0  0  0  0  0  0  0  0  0
  -25.8695  -29.2890   26.1655 N   0  0  0  0  0  0  0  0  0  0  0  0
  -24.5302  -21.9471   23.4550 N   0  0  0  0  0  0  0  0  0  0  0  0
  -31.4835  -24.4709   17.8507 N   0  3  2  0  0  0  0  0  0  0  0  0
  -27.6431  -26.4098   27.4430 N   0  3  0  0  0  0  0  0  0  0  0  0
  -21.6201  -14.1747   24.8804 O   0  0  0  0  0  0  0  0  0  0  0  0
  -22.3740  -31.1585   22.3355 O   0  0  0  0  0  0  0  0  0  0  0  0
  -23.4927  -29.0688   25.0257 O   0  0  0  0  0  0  0  0  0  0  0  0
  -27.8689  -28.3686   25.4359 O   0  0  0  0  0  0  0  0  0  0  0  0
  -23.5787  -23.5282   22.0942 O   0  0  0  0  0  0  0  0  0  0  0  0
  -26.3196  -11.6612   20.5736 O   0  0  0  0  0  0  0  0  0  0  0  0
  -28.8967  -27.7020   19.5076 O   0  0  0  0  0  0  0  0  0  1  0  0
  -31.1036  -13.0920   18.2348 F   0  0  0  0  0  0  0  0  0  0  0  0
  -28.7297  -10.9017   21.6949 F   0  0  0  0  0  0  0  0  0  0  0  0
  1  2  1  0  0  0  0
  1  5  2  0  0  0  0
  2  6  2  0  0  0  0
  3  8  2  0  0  0  0
  3 16  1  0  0  0  0
  4  9  1  0  0  0  0
  4 16  2  0  0  0  0
  5 18  1  0  0  0  0
  6 20  1  0  0  0  0
  7 10  2  0  0  0  0
  7 19  1  0  0  0  0
  8 22  1  0  0  0  0
  9 22  2  0  0  0  0
 10 23  1  0  0  0  0
 11 12  2  0  0  0  0
 11 24  1  0  0  0  0
 12 25  1  0  0  0  0
 13 21  1  0  0  0  0
 13 23  2  0  0  0  0
 14 25  2  0  0  0  0
 14 26  1  0  0  0  0
 15 28  2  0  0  0  0
 15 29  1  0  0  0  0
 16 27  1  0  0  0  0
 17 27  1  0  0  0  0
 17 30  2  0  0  0  0
 17 35  1  0  0  0  0
 18 20  2  0  0  0  0
 18 40  1  0  0  0  0
 19 21  2  0  0  0  0
 19 41  1  0  0  0  0
 20 54  1  0  0  0  0
 21 42  1  0  0  0  0
 22 91  1  0  0  0  0
 23 92  1  0  0  0  0
 24 26  2  0  0  0  0
 24 91  1  0  0  0  0
 25 93  1  0  0  0  0
 26 94  1  0  0  0  0
 27 73  2  0  0  0  0
 28 31  1  0  0  0  0
 28 75  1  0  0  0  0
 29 65  1  0  0  0  0
 29 74  2  0  0  0  0
 30 76  1  0  0  0  0
 30 79  1  0  0  0  0
 31 32  2  0  0  0  0
 32 34  1  0  0  0  0
 33 34  2  0  0  0  0
 33 75  1  0  0  0  0
 34 66  1  0  0  0  0
 35 80  1  0  0  0  0
 35 86  2  0  0  0  0
 36 55  1  0  0  0  0
 36 81  1  0  0  0  0
 36 87  2  0  0  0  0
 37 69  1  0  0  0  0
 37 77  1  0  0  0  0
 37 88  2  0  0  0  0
 38 70  1  0  0  0  0
 38 82  1  0  0  0  0
 38 89  2  0  0  0  0
 39 78  1  0  0  0  0
 39 83  1  0  0  0  0
 39 90  2  0  0  0  0
 40 43  1  0  0  0  0
 41 55  1  0  0  0  0
 42 77  1  0  0  0  0
 43 47  1  0  0  0  0
 44 46  1  0  0  0  0
 44 49  1  0  0  0  0
 45 48  1  0  0  0  0
 45 50  1  0  0  0  0
 46 52  1  0  0  0  0
 47 54  1  0  0  0  0
 48 56  1  0  0  0  0
 49 57  1  0  0  0  0
 50 78  1  0  0  0  0
 51 56  1  0  0  0  0
 51 78  1  0  0  0  0
 52 84  1  0  0  0  0
 53 57  1  0  0  0  0
 53 84  1  0  0  0  0
 54 81  1  0  0  0  0
 55 77  1  0  0  0  0
 56 76  1  0  0  0  0
 57 65  1  0  0  0  0
 57 67  1  0  0  0  0
 58 70  1  0  0  0  0
 59 71  1  0  0  0  0
 60 71  1  0  0  0  0
 61 72  1  0  0  0  0
 62 72  1  0  0  0  0
 63 72  1  0  0  0  0
 64 85  1  0  0  0  0
 66 83  1  0  0  0  0
 67 92  1  0  0  0  0
 68 71  1  0  0  0  0
 68 84  1  0  0  0  0
 69 72  1  0  0  0  0
 69 82  1  0  0  0  0
 70 85  1  0  0  0  0
 73 76  1  0  0  0  0
 74 75  1  0  0  0  0
M  CHG  2  84   1  85   1
M  ISO  4  39 100  67 101  83 100  92 101
M  END
> <Batch ID>
0110

> <Smiles>
CNC(C)C(=O)NC(C(=O)N1Cc2cc([101O:1][101CH2:1]C3(Cc4cc5ccc(C[100NH:0][100C:0](=O)N6CCCC(n7nc(-c8ccc(Oc9ccc(F)cc9F)cc8)c(C(N)=O)c7N)C6)cn5n4)CCCCN(CC(C)C)C3)ccc2CC1C(=O)NC1CCCc2ccccc21)C(C)(C)C

> <Shape>
0.260

> <Color>
0.086

> <Negative vol penalty>
0.000

$$$$

  -OEChem-04052319583D

 86 94  0     1  0  0  0  0  0999 V2000
  -33.2067  -36.7094   20.9132 C   0  0  0  0  0  0  0  0  0  0  0  0
  -33.1822  -35.3200   20.8466 C   0  0  0  0  0  0  0  0  0  0  0  0
  -23.2467   -9.6185   20.2237 C   0  0  0  0  0  0  0  0  0  0  0  0
  -23.8111  -10.0660   22.5298 C   0  0  0  0  0  0  0  0  0  0  0  0
  -32.4351  -37.3742   21.8654 C   0  0  0  0  0  0  0  0  0  0  0  0
  -32.3869  -34.5945   21.7329 C   0  0  0  0  0  0  0  0  0  0  0  0
  -29.4199  -29.3626   20.5798 C   0  0  0  0  0  0  0  0  0  0  0  0
  -22.5440   -8.4795   20.6166 C   0  0  0  0  0  0  0  0  0  0  0  0
  -23.1083   -8.9270   22.9228 C   0  0  0  0  0  0  0  0  0  0  0  0
  -29.7296  -28.0300   20.8477 C   0  0  0  0  0  0  0  0  0  0  0  0
  -19.8858   -8.0375   23.4171 C   0  0  0  0  0  0  0  0  0  0  0  0
  -19.0367   -8.1494   24.5180 C   0  0  0  0  0  0  0  0  0  0  0  0
  -28.3978  -28.1305   22.8565 C   0  0  0  0  0  0  0  0  0  0  0  0
  -31.3775  -23.5792   22.8322 C   0  0  0  0  0  0  0  0  0  0  0  0
  -20.3089   -6.4503   25.6720 C   0  0  0  0  0  0  0  0  0  0  0  0
  -29.9609  -22.9064   21.2165 C   0  0  0  0  0  0  0  0  0  0  0  0
  -23.8803  -10.4118   21.1803 C   0  0  0  0  0  0  0  0  0  0  0  0
  -24.1024  -12.8960   20.6448 C   0  0  0  0  0  0  0  0  0  0  0  0
  -31.6225  -36.6569   22.7575 C   0  0  0  0  0  0  0  0  0  0  0  0
  -28.6042  -30.0937   21.4554 C   0  0  0  0  0  0  0  0  0  0  0  0
  -31.6048  -35.2502   22.6988 C   0  0  0  0  0  0  0  0  0  0  0  0
  -28.0771  -29.4716   22.5961 C   0  0  0  0  0  0  0  0  0  0  0  0
  -30.5552  -24.0207   21.7664 C   0  0  0  0  0  0  0  0  0  0  0  0
  -22.4748   -8.1337   21.9662 C   0  0  0  0  0  0  0  0  0  0  0  0
  -29.2209  -27.4145   21.9876 C   0  0  0  0  0  0  0  0  0  0  0  0
  -20.9464   -7.1319   23.4435 C   0  0  0  0  0  0  0  0  0  0  0  0
  -19.2482   -7.3558   25.6455 C   0  0  0  0  0  0  0  0  0  0  0  0
  -21.1580   -6.3383   24.5710 C   0  0  0  0  0  0  0  0  0  0  0  0
  -24.6068  -11.5882   20.7749 C   0  0  0  0  0  0  0  0  0  0  0  0
  -31.2608  -22.2084   22.9010 C   0  0  0  0  0  0  0  0  0  0  0  0
  -25.1817  -13.6413   20.2369 C   0  0  0  0  0  0  0  0  0  0  0  0
  -22.7769  -13.3929   20.8723 C   0  0  0  0  0  0  0  0  0  0  0  0
  -28.9977  -32.6898   23.2467 C   0  0  0  0  0  0  0  0  0  0  0  0
  -25.8216  -32.3194   23.7922 C   0  0  0  0  0  0  0  0  0  0  0  0
  -23.1218  -30.2340   23.8851 C   0  0  0  0  0  0  0  0  0  0  0  0
  -30.5717  -15.0288   20.6460 C   0  0  0  0  0  0  0  0  0  0  0  0
  -30.8423  -37.4172   23.8005 C   0  0  0  0  0  0  0  0  0  0  0  0
  -28.2577  -31.5226   21.1382 C   0  0  0  0  0  0  0  0  0  0  0  0
  -27.1802  -30.2065   23.5573 C   0  0  0  0  0  0  0  0  0  0  0  0
  -29.7388  -36.5920   24.4574 C   0  0  0  0  0  0  0  0  0  0  0  0
  -29.7599  -12.2034   18.6373 C   0  0  0  0  0  0  0  0  0  0  0  0
  -30.2657  -35.2169   24.8555 C   0  0  0  0  0  0  0  0  0  0  0  0
  -28.3081  -11.8959   19.0083 C   0  0  0  0  0  0  0  0  0  0  0  0
  -30.5611  -12.6847   19.8450 C   0  0  0  0  0  0  0  0  0  0  0  0
  -28.5156  -13.5178   20.9384 C   0  0  0  0  0  0  0  0  0  0  0  0
  -30.7357  -34.4293   23.6266 C   0  0  1  0  0  0  0  0  0  0  0  0
  -27.8362  -32.3222   22.3672 C   0  0  1  0  0  0  0  0  0  0  0  0
  -27.6533  -13.0822   19.7413 C   0  0  2  0  0  0  0  0  0  0  0  0
  -31.5043  -21.4770   25.3009 C   0  0  0  0  0  0  0  0  0  0  0  0
  -33.4409  -21.2317   23.7057 C   0  0  0  0  0  0  0  0  0  0  0  0
  -20.6664  -30.2121   24.4030 C   0  0  0  0  0  0  0  0  0  0  0  0
  -26.4529  -32.3924   26.7765 C   0  0  0  0  0  0  0  0  0  0  0  0
  -24.1811  -31.4336   27.2096 C   0  0  0  0  0  0  0  0  0  0  0  0
  -24.4036  -33.6628   26.1124 C   0  0  0  0  0  0  0  0  0  0  0  0
  -30.3591  -20.4608   19.1072 C   0  0  0  0  0  0  0  0  0  0  0  0
  -32.2180  -19.7165   20.6034 C   0  0  0  0  0  0  0  0  0  0  0  0
  -22.4300  -29.4016   21.1305 C   0  0  0  0  0  0  0  0  0  0  0  0
  -30.3653  -25.4401   21.3184 C   0  0  0  0  0  0  0  0  0  1  0  0
  -30.1473  -18.2824   20.3030 C   0  0  0  0  0  0  0  0  0  0  0  0
  -29.9967  -20.4484   21.6370 C   0  0  0  0  0  0  0  0  0  0  0  0
  -30.4249  -17.3587   21.4881 C   0  0  0  0  0  0  0  0  0  0  0  0
  -31.8997  -21.2478   23.8242 C   0  0  0  0  0  0  0  0  0  0  0  0
  -24.9913  -31.5765   24.8108 C   0  0  1  0  0  0  0  0  0  0  0  0
  -21.7203  -30.3746   23.3188 C   0  0  2  0  0  0  0  0  0  0  0  0
  -25.0257  -32.2528   26.2104 C   0  0  0  0  0  0  0  0  0  0  0  0
  -30.6872  -19.7399   20.4330 C   0  0  0  0  0  0  0  0  0  0  0  0
  -25.9054  -11.5041   20.4740 N   0  0  0  0  0  0  0  0  0  0  0  0
  -30.3974  -21.8104   21.9140 N   0  0  0  0  0  0  0  0  0  0  0  0
  -26.2261  -12.7685   20.1506 N   0  0  0  0  0  0  0  0  0  0  0  0
  -26.8755  -31.6036   23.2068 N   0  0  0  0  0  0  0  0  0  0  0  0
  -29.8870  -13.8118   20.4940 N   0  0  0  0  0  0  0  0  0  0  0  0
  -25.3296  -14.9515   19.9472 N   0  0  0  0  0  0  0  0  0  0  0  0
  -21.7877  -12.4913   21.2885 N   0  0  0  0  0  0  0  0  0  0  0  0
  -29.6016  -33.8863   22.9101 N   0  0  0  0  0  0  0  0  0  0  0  0
  -23.6549  -31.4556   24.2383 N   0  0  0  0  0  0  0  0  0  0  0  0
  -29.8580  -16.0472   21.2658 N   0  0  0  0  0  0  0  0  0  0  0  0
  -21.4793  -29.3431   22.2706 N   0  3  0  0  0  0  0  0  0  0  0  0
  -22.4745  -14.5974   20.6954 O   0  0  0  0  0  0  0  0  0  0  0  0
  -29.3210  -31.9441   24.1637 O   0  0  0  0  0  0  0  0  0  0  0  0
  -25.5408  -33.4895   23.5205 O   0  0  0  0  0  0  0  0  0  0  0  0
  -23.6856  -29.1486   24.0058 O   0  0  0  0  0  0  0  0  0  0  0  0
  -31.7312  -15.1971   20.2534 O   0  0  0  0  0  0  0  0  0  0  0  0
  -21.7890   -7.0225   22.3500 O   0  0  0  0  0  0  0  0  0  0  0  0
  -29.5223  -26.1140   22.2519 O   0  0  0  0  0  0  0  0  0  1  0  0
  -18.4337   -7.4645   26.7032 F   0  0  0  0  0  0  0  0  0  0  0  0
  -22.1760   -5.4674   24.6027 F   0  0  0  0  0  0  0  0  0  0  0  0
  1  2  1  0  0  0  0
  1  5  2  0  0  0  0
  2  6  2  0  0  0  0
  3  8  2  0  0  0  0
  3 17  1  0  0  0  0
  4  9  1  0  0  0  0
  4 17  2  0  0  0  0
  5 19  1  0  0  0  0
  6 21  1  0  0  0  0
  7 10  2  0  0  0  0
  7 20  1  0  0  0  0
  8 24  1  0  0  0  0
  9 24  2  0  0  0  0
 10 25  1  0  0  0  0
 11 12  2  0  0  0  0
 11 26  1  0  0  0  0
 12 27  1  0  0  0  0
 13 22  1  0  0  0  0
 13 25  2  0  0  0  0
 14 23  1  0  0  0  0
 14 30  2  0  0  0  0
 15 27  2  0  0  0  0
 15 28  1  0  0  0  0
 16 23  2  0  0  0  0
 16 68  1  0  0  0  0
 17 29  1  0  0  0  0
 18 29  1  0  0  0  0
 18 31  2  0  0  0  0
 18 32  1  0  0  0  0
 19 21  2  0  0  0  0
 19 37  1  0  0  0  0
 20 22  2  0  0  0  0
 20 38  1  0  0  0  0
 21 46  1  0  0  0  0
 22 39  1  0  0  0  0
 23 58  1  0  0  0  0
 24 83  1  0  0  0  0
 25 84  1  0  0  0  0
 26 28  2  0  0  0  0
 26 83  1  0  0  0  0
 27 85  1  0  0  0  0
 28 86  1  0  0  0  0
 29 67  2  0  0  0  0
 30 62  1  0  0  0  0
 30 68  1  0  0  0  0
 31 69  1  0  0  0  0
 31 72  1  0  0  0  0
 32 73  1  0  0  0  0
 32 78  2  0  0  0  0
 33 47  1  0  0  0  0
 33 74  1  0  0  0  0
 33 79  2  0  0  0  0
 34 63  1  0  0  0  0
 34 70  1  0  0  0  0
 34 80  2  0  0  0  0
 35 64  1  0  0  0  0
 35 75  1  0  0  0  0
 35 81  2  0  0  0  0
 36 71  1  0  0  0  0
 36 76  1  0  0  0  0
 36 82  2  0  0  0  0
 37 40  1  0  0  0  0
 38 47  1  0  0  0  0
 39 70  1  0  0  0  0
 40 42  1  0  0  0  0
 41 43  1  0  0  0  0
 41 44  1  0  0  0  0
 42 46  1  0  0  0  0
 43 48  1  0  0  0  0
 44 71  1  0  0  0  0
 45 48  1  0  0  0  0
 45 71  1  0  0  0  0
 46 74  1  0  0  0  0
 47 70  1  0  0  0  0
 48 69  1  0  0  0  0
 49 62  1  0  0  0  0
 50 62  1  0  0  0  0
 51 64  1  0  0  0  0
 52 65  1  0  0  0  0
 53 65  1  0  0  0  0
 54 65  1  0  0  0  0
 55 66  1  0  0  0  0
 56 66  1  0  0  0  0
 57 77  1  0  0  0  0
 58 84  1  0  0  0  0
 59 61  1  0  0  0  0
 59 66  1  0  0  0  0
 60 66  1  0  0  0  0
 60 68  1  0  0  0  0
 61 76  1  0  0  0  0
 63 65  1  0  0  0  0
 63 75  1  0  0  0  0
 64 77  1  0  0  0  0
 67 69  1  0  0  0  0
M  CHG  1  77   1
M  ISO  4  36 100  58 101  76 100  84 101
M  END
> <Batch ID>
0110

> <Smiles>
CNC(C)C(=O)NC(C(=O)N1Cc2cc([101O:1][101CH2:1]c3cc(C(C)C)n(CC(C)(C)CC[100NH:0][100C:0](=O)N4CCCC(n5nc(-c6ccc(Oc7ccc(F)cc7F)cc6)c(C(N)=O)c5N)C4)c3)ccc2CC1C(=O)NC1CCCc2ccccc21)C(C)(C)C

> <Shape>
0.301

> <Color>
0.202

> <Negative vol penalty>
0.000

$$$$

  -OEChem-04052319583D

 83 90  0     1  0  0  0  0  0999 V2000
  -29.6941  -12.4768   20.2587 C   0  0  0  0  0  0  0  0  0  0  0  0
  -29.6653  -13.5756   21.1115 C   0  0  0  0  0  0  0  0  0  0  0  0
  -29.7885  -23.3018   20.5350 C   0  0  0  0  0  0  0  0  0  0  0  0
  -28.4538  -23.3899   18.5231 C   0  0  0  0  0  0  0  0  0  0  0  0
  -28.8577  -12.4390   19.1439 C   0  0  0  0  0  0  0  0  0  0  0  0
  -28.8007  -14.6377   20.8494 C   0  0  0  0  0  0  0  0  0  0  0  0
  -24.8590  -19.5874   24.2080 C   0  0  0  0  0  0  0  0  0  0  0  0
  -29.7967  -21.9085   20.4686 C   0  0  0  0  0  0  0  0  0  0  0  0
  -28.4620  -21.9966   18.4567 C   0  0  0  0  0  0  0  0  0  0  0  0
  -24.6450  -20.9650   24.2239 C   0  0  0  0  0  0  0  0  0  0  0  0
  -31.4326  -19.5066   18.7402 C   0  0  0  0  0  0  0  0  0  0  0  0
  -32.6472  -18.8546   18.9527 C   0  0  0  0  0  0  0  0  0  0  0  0
  -23.1887  -20.7546   22.3124 C   0  0  0  0  0  0  0  0  0  0  0  0
  -31.6902  -17.6870   20.8390 C   0  0  0  0  0  0  0  0  0  0  0  0
  -29.1171  -24.0425   19.5623 C   0  0  0  0  0  0  0  0  0  0  0  0
  -30.0378  -26.3662   19.0522 C   0  0  0  0  0  0  0  0  0  0  0  0
  -27.9754  -13.4968   18.8733 C   0  0  0  0  0  0  0  0  0  0  0  0
  -24.2471  -18.7832   23.2358 C   0  0  0  0  0  0  0  0  0  0  0  0
  -27.9526  -14.6146   19.7292 C   0  0  0  0  0  0  0  0  0  0  0  0
  -23.3945  -19.3668   22.2879 C   0  0  0  0  0  0  0  0  0  0  0  0
  -29.1334  -21.2560   19.4295 C   0  0  0  0  0  0  0  0  0  0  0  0
  -23.8120  -21.5492   23.2742 C   0  0  0  0  0  0  0  0  0  0  0  0
  -30.3468  -19.2489   19.5770 C   0  0  0  0  0  0  0  0  0  0  0  0
  -32.7760  -17.9448   20.0021 C   0  0  0  0  0  0  0  0  0  0  0  0
  -30.4756  -18.3391   20.6264 C   0  0  0  0  0  0  0  0  0  0  0  0
  -29.1078  -25.4817   19.6306 C   0  0  0  0  0  0  0  0  0  0  0  0
  -29.5882  -27.6154   19.4041 C   0  0  0  0  0  0  0  0  0  0  0  0
  -31.2036  -26.0839   18.2669 C   0  0  0  0  0  0  0  0  0  0  0  0
  -25.2943  -16.8981   20.9006 C   0  0  0  0  0  0  0  0  0  0  0  0
  -23.9835  -29.3347   20.7764 C   0  0  0  0  0  0  0  0  0  0  0  0
  -22.1482  -16.1628   20.6117 C   0  0  0  0  0  0  0  0  0  0  0  0
  -18.9002  -17.0808   21.1162 C   0  0  0  0  0  0  0  0  0  0  0  0
  -27.1242  -13.4322   17.6300 C   0  0  0  0  0  0  0  0  0  0  0  0
  -24.4670  -17.2952   23.2487 C   0  0  0  0  0  0  0  0  0  0  0  0
  -22.6977  -18.5449   21.2356 C   0  0  0  0  0  0  0  0  0  0  0  0
  -25.9688  -14.4299   17.6303 C   0  0  0  0  0  0  0  0  0  0  0  0
  -26.9654  -29.2731   23.1301 C   0  0  0  0  0  0  0  0  0  0  0  0
  -26.4549  -15.8094   18.0633 C   0  0  0  0  0  0  0  0  0  0  0  0
  -28.0872  -28.8777   22.1705 C   0  0  0  0  0  0  0  0  0  0  0  0
  -25.8005  -29.9482   22.4180 C   0  0  0  0  0  0  0  0  0  0  0  0
  -26.0962  -28.0509   20.8115 C   0  0  0  0  0  0  0  0  0  0  0  0
  -27.0107  -15.7751   19.4921 C   0  0  1  0  0  0  0  0  0  0  0  0
  -24.1999  -16.6400   21.8972 C   0  0  1  0  0  0  0  0  0  0  0  0
  -27.5741  -28.4676   20.7769 C   0  0  2  0  0  0  0  0  0  0  0  0
  -22.2844  -32.2570   23.7293 C   0  0  0  0  0  0  0  0  0  0  0  0
  -22.3241  -31.0984   20.2655 C   0  0  0  0  0  0  0  0  0  0  0  0
  -16.5485  -16.2895   20.7411 C   0  0  0  0  0  0  0  0  0  0  0  0
  -25.0663  -24.6286   22.4768 C   0  0  0  0  0  0  0  0  0  0  0  0
  -22.3794  -16.8845   17.6561 C   0  0  0  0  0  0  0  0  0  0  0  0
  -19.8802  -16.9983   17.5600 C   0  0  0  0  0  0  0  0  0  0  0  0
  -21.0081  -14.8471   18.1283 C   0  0  0  0  0  0  0  0  0  0  0  0
  -18.3173  -17.0707   24.0178 C   0  0  0  0  0  0  0  0  0  0  0  0
  -21.5053  -31.0536   23.2128 C   0  0  0  0  0  0  0  0  0  0  0  0
  -20.2669  -26.7971   22.9354 C   0  0  0  0  0  0  0  0  0  0  0  0
  -20.8622  -25.8457   21.9030 C   0  0  0  0  0  0  0  0  0  0  0  0
  -21.1721  -27.9375   23.3892 C   0  0  0  0  0  0  0  0  0  0  0  0
  -22.7346  -24.2429   21.4980 C   0  0  0  0  0  0  0  0  0  0  0  0
  -23.1736  -30.4650   21.3635 C   0  0  1  0  0  0  0  0  0  0  0  0
  -20.9876  -16.7217   19.8246 C   0  0  1  0  0  0  0  0  0  0  0  0
  -17.7214  -16.3295   21.7082 C   0  0  2  0  0  0  0  0  0  0  0  0
  -22.3973  -29.9653   22.5981 C   0  0  2  0  0  0  0  0  0  0  0  0
  -23.9811  -23.6214   22.1197 C   0  0  2  0  0  0  0  0  0  1  0  0
  -21.0783  -16.3789   18.3107 C   0  0  0  0  0  0  0  0  0  0  0  0
  -28.1406  -26.1152   20.2994 N   0  0  0  0  0  0  0  0  0  0  0  0
  -28.4605  -27.4112   20.1434 N   0  0  0  0  0  0  0  0  0  0  0  0
  -22.9496  -17.0952   21.2857 N   0  0  0  0  0  0  0  0  0  0  0  0
  -25.2492  -29.1300   21.3306 N   0  0  0  0  0  0  0  0  0  0  0  0
  -30.0516  -28.8577   19.1502 N   0  0  0  0  0  0  0  0  0  0  0  0
  -31.5206  -24.7452   17.9989 N   0  0  0  0  0  0  0  0  0  0  0  0
  -25.9300  -15.7551   20.4545 N   0  0  0  0  0  0  0  0  0  0  0  0
  -19.7782  -16.2314   20.4768 N   0  0  0  0  0  0  0  0  0  0  0  0
  -17.2695  -16.9846   22.9682 N   0  3  0  0  0  0  0  0  0  0  0  0
  -22.1170  -25.2318   22.4162 N   0  3  0  0  0  0  0  0  0  0  0  0
  -21.5567  -28.7893   22.2398 N   0  3  0  0  0  0  0  0  0  0  0  0
  -31.9516  -26.9912   17.8300 O   0  0  0  0  0  0  0  0  0  0  0  0
  -25.5427  -18.0489   20.5603 O   0  0  0  0  0  0  0  0  0  0  0  0
  -23.5080  -28.6557   19.8633 O   0  0  0  0  0  0  0  0  0  0  0  0
  -22.3326  -14.9433   20.6337 O   0  0  0  0  0  0  0  0  0  0  0  0
  -19.0273  -18.2997   21.2083 O   0  0  0  0  0  0  0  0  0  0  0  0
  -29.1414  -19.8965   19.3642 O   0  0  0  0  0  0  0  0  0  0  0  0
  -23.6019  -22.8936   23.2871 O   0  0  0  0  0  0  0  0  0  1  0  0
  -33.9420  -17.3176   20.2052 F   0  0  0  0  0  0  0  0  0  0  0  0
  -29.4357  -18.0865   21.4330 F   0  0  0  0  0  0  0  0  0  0  0  0
  1  2  1  0  0  0  0
  1  5  2  0  0  0  0
  2  6  2  0  0  0  0
  3  8  2  0  0  0  0
  3 15  1  0  0  0  0
  4  9  1  0  0  0  0
  4 15  2  0  0  0  0
  5 17  1  0  0  0  0
  6 19  1  0  0  0  0
  7 10  2  0  0  0  0
  7 18  1  0  0  0  0
  8 21  1  0  0  0  0
  9 21  2  0  0  0  0
 10 22  1  0  0  0  0
 11 12  2  0  0  0  0
 11 23  1  0  0  0  0
 12 24  1  0  0  0  0
 13 20  1  0  0  0  0
 13 22  2  0  0  0  0
 14 24  2  0  0  0  0
 14 25  1  0  0  0  0
 15 26  1  0  0  0  0
 16 26  1  0  0  0  0
 16 27  2  0  0  0  0
 16 28  1  0  0  0  0
 17 19  2  0  0  0  0
 17 33  1  0  0  0  0
 18 20  2  0  0  0  0
 18 34  1  0  0  0  0
 19 42  1  0  0  0  0
 20 35  1  0  0  0  0
 21 80  1  0  0  0  0
 22 81  1  0  0  0  0
 23 25  2  0  0  0  0
 23 80  1  0  0  0  0
 24 82  1  0  0  0  0
 25 83  1  0  0  0  0
 26 64  2  0  0  0  0
 27 65  1  0  0  0  0
 27 68  1  0  0  0  0
 28 69  1  0  0  0  0
 28 75  2  0  0  0  0
 29 43  1  0  0  0  0
 29 70  1  0  0  0  0
 29 76  2  0  0  0  0
 30 58  1  0  0  0  0
 30 67  1  0  0  0  0
 30 77  2  0  0  0  0
 31 59  1  0  0  0  0
 31 66  1  0  0  0  0
 31 78  2  0  0  0  0
 32 60  1  0  0  0  0
 32 71  1  0  0  0  0
 32 79  2  0  0  0  0
 33 36  1  0  0  0  0
 34 43  1  0  0  0  0
 35 66  1  0  0  0  0
 36 38  1  0  0  0  0
 37 39  1  0  0  0  0
 37 40  1  0  0  0  0
 38 42  1  0  0  0  0
 39 44  1  0  0  0  0
 40 67  1  0  0  0  0
 41 44  1  0  0  0  0
 41 67  1  0  0  0  0
 42 70  1  0  0  0  0
 43 66  1  0  0  0  0
 44 65  1  0  0  0  0
 45 53  1  0  0  0  0
 46 58  1  0  0  0  0
 47 60  1  0  0  0  0
 48 62  1  0  0  0  0
 49 63  1  0  0  0  0
 50 63  1  0  0  0  0
 51 63  1  0  0  0  0
 52 72  1  0  0  0  0
 53 61  1  0  0  0  0
 54 55  1  0  0  0  0
 54 56  1  0  0  0  0
 55 73  1  0  0  0  0
 56 74  1  0  0  0  0
 57 62  1  0  0  0  0
 57 73  1  0  0  0  0
 58 61  1  0  0  0  0
 59 63  1  0  0  0  0
 59 71  1  0  0  0  0
 60 72  1  0  0  0  0
 61 74  1  0  0  0  0
 62 81  1  0  0  0  0
 64 65  1  0  0  0  0
M  CHG  3  72   1  73   1  74   1
M  ISO  4  30 100  58 100  62 101  81 101
M  END
> <Batch ID>
0110

> <Smiles>
CCC(NCCCNC[101CH:1](C)[101O:1]c1ccc2c(c1)CN(C(=O)C(NC(=O)C(C)NC)C(C)(C)C)C(C(=O)NC1CCCc3ccccc31)C2)[100CH:0](C)[100C:0](=O)N1CCCC(n2nc(-c3ccc(Oc4ccc(F)cc4F)cc3)c(C(N)=O)c2N)C1

> <Shape>
0.227

> <Color>
0.068

> <Negative vol penalty>
0.000

$$$$

  -OEChem-04052319583D

 87 96  0     1  0  0  0  0  0999 V2000
  -28.1097  -10.6458   14.4207 C   0  0  0  0  0  0  0  0  0  0  0  0
  -28.5453  -10.3166   15.6993 C   0  0  0  0  0  0  0  0  0  0  0  0
  -21.8571  -28.0702   19.3237 C   0  0  0  0  0  0  0  0  0  0  0  0
  -23.0493  -29.9058   18.3008 C   0  0  0  0  0  0  0  0  0  0  0  0
  -27.8152  -11.9713   14.1086 C   0  0  0  0  0  0  0  0  0  0  0  0
  -28.6751  -11.3109   16.6696 C   0  0  0  0  0  0  0  0  0  0  0  0
  -28.9431  -15.8537   23.6476 C   0  0  0  0  0  0  0  0  0  0  0  0
  -20.7977  -28.2643   18.4374 C   0  0  0  0  0  0  0  0  0  0  0  0
  -21.9899  -30.0999   17.4144 C   0  0  0  0  0  0  0  0  0  0  0  0
  -28.5886  -17.1601   23.9816 C   0  0  0  0  0  0  0  0  0  0  0  0
  -18.9270  -31.5305   17.4680 C   0  0  0  0  0  0  0  0  0  0  0  0
  -18.4945  -32.8388   17.2517 C   0  0  0  0  0  0  0  0  0  0  0  0
  -28.2055  -20.8683   18.8570 C   0  0  0  0  0  0  0  0  0  0  0  0
  -30.1929  -22.7579   18.4074 C   0  0  0  0  0  0  0  0  0  0  0  0
  -26.6170  -16.9706   22.6047 C   0  0  0  0  0  0  0  0  0  0  0  0
  -19.0123  -32.6215   14.9018 C   0  0  0  0  0  0  0  0  0  0  0  0
  -22.9829  -28.8910   19.2554 C   0  0  0  0  0  0  0  0  0  0  0  0
  -24.0343  -28.7647   21.5763 C   0  0  0  0  0  0  0  0  0  0  0  0
  -27.9537  -12.9836   15.0726 C   0  0  0  0  0  0  0  0  0  0  0  0
  -28.1415  -15.0985   22.7795 C   0  0  0  0  0  0  0  0  0  0  0  0
  -28.3598  -12.6510   16.3809 C   0  0  0  0  0  0  0  0  0  0  0  0
  -29.3536  -20.4974   18.1360 C   0  0  0  0  0  0  0  0  0  0  0  0
  -30.3605  -21.4546   17.9081 C   0  0  0  0  0  0  0  0  0  0  0  0
  -26.9622  -15.6541   22.2633 C   0  0  0  0  0  0  0  0  0  0  0  0
  -28.0558  -22.1643   19.3490 C   0  0  0  0  0  0  0  0  0  0  0  0
  -29.0497  -23.1093   19.1241 C   0  0  0  0  0  0  0  0  0  0  0  0
  -20.8641  -29.2792   17.4827 C   0  0  0  0  0  0  0  0  0  0  0  0
  -27.4269  -17.7197   23.4578 C   0  0  0  0  0  0  0  0  0  0  0  0
  -19.4023  -30.7677   16.4013 C   0  0  0  0  0  0  0  0  0  0  0  0
  -18.5370  -33.3843   15.9686 C   0  0  0  0  0  0  0  0  0  0  0  0
  -19.4449  -31.3132   15.1182 C   0  0  0  0  0  0  0  0  0  0  0  0
  -24.0774  -28.6913   20.1711 C   0  0  0  0  0  0  0  0  0  0  0  0
  -25.3218  -28.4988   21.9736 C   0  0  0  0  0  0  0  0  0  0  0  0
  -22.9291  -29.0478   22.4447 C   0  0  0  0  0  0  0  0  0  0  0  0
  -28.5685  -13.7549   19.9307 C   0  0  0  0  0  0  0  0  0  0  0  0
  -25.6111  -12.5457   20.4909 C   0  0  0  0  0  0  0  0  0  0  0  0
  -22.4933  -13.7404   21.8583 C   0  0  0  0  0  0  0  0  0  0  0  0
  -29.8276  -25.4812   19.4641 C   0  0  0  0  0  0  0  0  0  0  0  0
  -27.6137  -14.4006   14.6830 C   0  0  0  0  0  0  0  0  0  0  0  0
  -28.5238  -13.6815   22.4503 C   0  0  0  0  0  0  0  0  0  0  0  0
  -29.4670  -19.0848   17.6148 C   0  0  0  0  0  0  0  0  0  0  0  0
  -31.6110  -21.1235   17.1295 C   0  0  0  0  0  0  0  0  0  0  0  0
  -26.0566  -14.8782   21.3432 C   0  0  0  0  0  0  0  0  0  0  0  0
  -28.2025  -15.4364   15.6351 C   0  0  0  0  0  0  0  0  0  0  0  0
  -29.8568  -28.8918   20.4857 C   0  0  0  0  0  0  0  0  0  0  0  0
  -27.8860  -15.0587   17.0745 C   0  0  0  0  0  0  0  0  0  0  0  0
  -28.3744  -29.2324   20.6547 C   0  0  0  0  0  0  0  0  0  0  0  0
  -30.0910  -27.9472   19.3082 C   0  0  0  0  0  0  0  0  0  0  0  0
  -27.7993  -27.0625   19.4937 C   0  0  0  0  0  0  0  0  0  0  0  0
  -30.6441  -18.3211   18.2066 C   0  0  0  0  0  0  0  0  0  0  0  0
  -32.4640  -20.0513   17.7943 C   0  0  0  0  0  0  0  0  0  0  0  0
  -28.5377  -13.7201   17.4438 C   0  0  1  0  0  0  0  0  0  0  0  0
  -27.9026  -13.1819   21.1496 C   0  0  1  0  0  0  0  0  0  0  0  0
  -27.5063  -27.9599   20.7072 C   0  0  2  0  0  0  0  0  0  0  0  0
  -20.6326  -12.5038   23.0010 C   0  0  0  0  0  0  0  0  0  0  0  0
  -24.3722  -12.4216   17.7053 C   0  0  0  0  0  0  0  0  0  0  0  0
  -22.1322  -12.7901   18.7611 C   0  0  0  0  0  0  0  0  0  0  0  0
  -23.4571  -10.7543   19.3292 C   0  0  0  0  0  0  0  0  0  0  0  0
  -22.6368  -15.4910   24.2404 C   0  0  0  0  0  0  0  0  0  0  0  0
  -26.8121  -22.5097   20.1158 C   0  0  0  0  0  0  0  0  0  0  0  0
  -27.0240  -22.6060   21.6233 C   0  0  0  0  0  0  0  0  0  0  0  0
  -27.7441  -21.3006   23.6273 C   0  0  0  0  0  0  0  0  0  0  0  0
  -28.1401  -19.9050   24.0675 C   0  0  0  0  0  0  0  0  0  1  0  0
  -24.1991  -13.0031   20.2149 C   0  0  1  0  0  0  0  0  0  0  0  0
  -21.8786  -13.3546   23.1916 C   0  0  2  0  0  0  0  0  0  0  0  0
  -23.5613  -12.2609   19.0067 C   0  0  0  0  0  0  0  0  0  0  0  0
  -25.2959  -28.4017   19.7070 N   0  0  0  0  0  0  0  0  0  0  0  0
  -26.0304  -28.2907   20.8270 N   0  0  0  0  0  0  0  0  0  0  0  0
  -26.4767  -13.4988   21.0460 N   0  0  0  0  0  0  0  0  0  0  0  0
  -29.2382  -26.7626   19.4276 N   0  0  0  0  0  0  0  0  0  0  0  0
  -25.9058  -28.4250   23.1885 N   0  0  0  0  0  0  0  0  0  0  0  0
  -21.6753  -29.2982   21.8707 N   0  0  0  0  0  0  0  0  0  0  0  0
  -28.9198  -24.4331   19.6126 N   0  0  0  0  0  0  0  0  0  0  0  0
  -28.0462  -13.2964   18.7363 N   0  0  0  0  0  0  0  0  0  0  0  0
  -23.4670  -12.8460   21.4669 N   0  0  0  0  0  0  0  0  0  0  0  0
  -31.9189  -18.6882   17.5211 N   0  3  0  0  0  0  0  0  0  0  0  0
  -21.5017  -14.5743   23.9606 N   0  3  0  0  0  0  0  0  0  0  0  0
  -27.4545  -21.2913   22.1712 N   0  3  0  0  0  0  0  0  0  0  0  0
  -23.0535  -29.0941   23.6921 O   0  0  0  0  0  0  0  0  0  0  0  0
  -29.4871  -14.5549   20.0639 O   0  0  0  0  0  0  0  0  0  0  0  0
  -25.9321  -11.3835   20.2306 O   0  0  0  0  0  0  0  0  0  0  0  0
  -22.1422  -14.7337   21.2255 O   0  0  0  0  0  0  0  0  0  0  0  0
  -31.0498  -25.3269   19.3980 O   0  0  0  0  0  0  0  0  0  0  0  0
  -19.8307  -29.4687   16.6175 O   0  0  0  0  0  0  0  0  0  0  0  0
  -27.0789  -18.9948   23.7817 O   0  0  0  0  0  0  0  0  0  1  0  0
  -18.1202  -34.6402   15.7607 F   0  0  0  0  0  0  0  0  0  0  0  0
  -19.8993  -30.5848   14.0892 F   0  0  0  0  0  0  0  0  0  0  0  0
  1  2  1  0  0  0  0
  1  5  2  0  0  0  0
  2  6  2  0  0  0  0
  3  8  2  0  0  0  0
  3 17  1  0  0  0  0
  4  9  1  0  0  0  0
  4 17  2  0  0  0  0
  5 19  1  0  0  0  0
  6 21  1  0  0  0  0
  7 10  2  0  0  0  0
  7 20  1  0  0  0  0
  8 27  1  0  0  0  0
  9 27  2  0  0  0  0
 10 28  1  0  0  0  0
 11 12  2  0  0  0  0
 11 29  1  0  0  0  0
 12 30  1  0  0  0  0
 13 22  2  0  0  0  0
 13 25  1  0  0  0  0
 14 23  2  0  0  0  0
 14 26  1  0  0  0  0
 15 24  1  0  0  0  0
 15 28  2  0  0  0  0
 16 30  2  0  0  0  0
 16 31  1  0  0  0  0
 17 32  1  0  0  0  0
 18 32  1  0  0  0  0
 18 33  2  0  0  0  0
 18 34  1  0  0  0  0
 19 21  2  0  0  0  0
 19 39  1  0  0  0  0
 20 24  2  0  0  0  0
 20 40  1  0  0  0  0
 21 52  1  0  0  0  0
 22 23  1  0  0  0  0
 22 41  1  0  0  0  0
 23 42  1  0  0  0  0
 24 43  1  0  0  0  0
 25 26  2  0  0  0  0
 25 60  1  0  0  0  0
 26 73  1  0  0  0  0
 27 84  1  0  0  0  0
 28 85  1  0  0  0  0
 29 31  2  0  0  0  0
 29 84  1  0  0  0  0
 30 86  1  0  0  0  0
 31 87  1  0  0  0  0
 32 67  2  0  0  0  0
 33 68  1  0  0  0  0
 33 71  1  0  0  0  0
 34 72  1  0  0  0  0
 34 79  2  0  0  0  0
 35 53  1  0  0  0  0
 35 74  1  0  0  0  0
 35 80  2  0  0  0  0
 36 64  1  0  0  0  0
 36 69  1  0  0  0  0
 36 81  2  0  0  0  0
 37 65  1  0  0  0  0
 37 75  1  0  0  0  0
 37 82  2  0  0  0  0
 38 70  1  0  0  0  0
 38 73  1  0  0  0  0
 38 83  2  0  0  0  0
 39 44  1  0  0  0  0
 40 53  1  0  0  0  0
 41 50  1  0  0  0  0
 42 51  1  0  0  0  0
 43 69  1  0  0  0  0
 44 46  1  0  0  0  0
 45 47  1  0  0  0  0
 45 48  1  0  0  0  0
 46 52  1  0  0  0  0
 47 54  1  0  0  0  0
 48 70  1  0  0  0  0
 49 54  1  0  0  0  0
 49 70  1  0  0  0  0
 50 76  1  0  0  0  0
 51 76  1  0  0  0  0
 52 74  1  0  0  0  0
 53 69  1  0  0  0  0
 54 68  1  0  0  0  0
 55 65  1  0  0  0  0
 56 66  1  0  0  0  0
 57 66  1  0  0  0  0
 58 66  1  0  0  0  0
 59 77  1  0  0  0  0
 60 61  1  0  0  0  0
 61 78  1  0  0  0  0
 62 63  1  0  0  0  0
 62 78  1  0  0  0  0
 63 85  1  0  0  0  0
 64 66  1  0  0  0  0
 64 75  1  0  0  0  0
 65 77  1  0  0  0  0
 67 68  1  0  0  0  0
M  CHG  3  76   1  77   1  78   1
M  ISO  4  38 100  63 101  73 100  85 101
M  END
> <Batch ID>
0110

> <Smiles>
CNC(C)C(=O)NC(C(=O)N1Cc2cc([101O:1][101CH2:1]CNCCc3cc4c(cc3[100NH:0][100C:0](=O)N3CCCC(n5nc(-c6ccc(Oc7ccc(F)cc7F)cc6)c(C(N)=O)c5N)C3)CCNCC4)ccc2CC1C(=O)NC1CCCc2ccccc21)C(C)(C)C

> <Shape>
0.206

> <Color>
0.076

> <Negative vol penalty>
0.000

$$$$

  -OEChem-04052319583D

 85 94  0     1  0  0  0  0  0999 V2000
  -28.0759  -37.7646   23.7851 C   0  0  0  0  0  0  0  0  0  0  0  0
  -28.5527  -36.6101   23.1725 C   0  0  0  0  0  0  0  0  0  0  0  0
  -30.5252  -20.3811   15.5369 C   0  0  0  0  0  0  0  0  0  0  0  0
  -26.1410  -12.2997   20.0640 C   0  0  0  0  0  0  0  0  0  0  0  0
  -24.2722  -13.1920   21.3084 C   0  0  0  0  0  0  0  0  0  0  0  0
  -27.0585  -37.6792   24.7346 C   0  0  0  0  0  0  0  0  0  0  0  0
  -28.0131  -35.3694   23.5100 C   0  0  0  0  0  0  0  0  0  0  0  0
  -27.1870  -30.5782   19.7861 C   0  0  0  0  0  0  0  0  0  0  0  0
  -25.4782  -11.0783   19.9444 C   0  0  0  0  0  0  0  0  0  0  0  0
  -23.6093  -11.9706   21.1887 C   0  0  0  0  0  0  0  0  0  0  0  0
  -27.9336  -29.4215   19.5660 C   0  0  0  0  0  0  0  0  0  0  0  0
  -23.7112   -8.9265   22.6564 C   0  0  0  0  0  0  0  0  0  0  0  0
  -23.0954   -8.4090   23.7959 C   0  0  0  0  0  0  0  0  0  0  0  0
  -30.6107  -21.7687   15.5198 C   0  0  0  0  0  0  0  0  0  0  0  0
  -29.2822  -19.7655   15.4395 C   0  0  0  0  0  0  0  0  0  0  0  0
  -26.5273  -28.2256   21.1188 C   0  0  0  0  0  0  0  0  0  0  0  0
  -20.9613   -8.4564   22.6641 C   0  0  0  0  0  0  0  0  0  0  0  0
  -25.5381  -13.3566   20.7461 C   0  0  0  0  0  0  0  0  0  0  0  0
  -27.4677  -14.8532   21.4839 C   0  0  0  0  0  0  0  0  0  0  0  0
  -26.4995  -36.4378   25.0768 C   0  0  0  0  0  0  0  0  0  0  0  0
  -26.1098  -30.5700   20.6839 C   0  0  0  0  0  0  0  0  0  0  0  0
  -26.9882  -35.2672   24.4660 C   0  0  0  0  0  0  0  0  0  0  0  0
  -25.7670  -29.3828   21.3466 C   0  0  0  0  0  0  0  0  0  0  0  0
  -24.2123  -10.9137   20.5067 C   0  0  0  0  0  0  0  0  0  0  0  0
  -27.6056  -28.2457   20.2346 C   0  0  0  0  0  0  0  0  0  0  0  0
  -22.9521   -9.2090   21.5207 C   0  0  0  0  0  0  0  0  0  0  0  0
  -21.7205   -8.1739   23.7998 C   0  0  0  0  0  0  0  0  0  0  0  0
  -21.5772   -8.9740   21.5246 C   0  0  0  0  0  0  0  0  0  0  0  0
  -26.2225  -14.6184   20.8705 C   0  0  0  0  0  0  0  0  0  0  0  0
  -29.4332  -22.4898   15.4046 C   0  0  0  0  0  0  0  0  0  0  0  0
  -28.1641  -20.5762   15.3280 C   0  0  0  0  0  0  0  0  0  0  0  0
  -27.6729  -16.2035   21.3385 C   0  0  0  0  0  0  0  0  0  0  0  0
  -28.3592  -13.9330   22.1275 C   0  0  0  0  0  0  0  0  0  0  0  0
  -25.4359  -32.0906   23.3926 C   0  0  0  0  0  0  0  0  0  0  0  0
  -22.5725  -30.6031   23.0596 C   0  0  0  0  0  0  0  0  0  0  0  0
  -21.4015  -27.3336   22.0815 C   0  0  0  0  0  0  0  0  0  0  0  0
  -25.6540  -20.2333   17.3970 C   0  0  0  0  0  0  0  0  0  0  0  0
  -25.4342  -36.3907   26.1434 C   0  0  0  0  0  0  0  0  0  0  0  0
  -25.2978  -31.8192   20.8900 C   0  0  0  0  0  0  0  0  0  0  0  0
  -24.6072  -29.3162   22.3052 C   0  0  0  0  0  0  0  0  0  0  0  0
  -24.6577  -35.0767   26.1710 C   0  0  0  0  0  0  0  0  0  0  0  0
  -25.2877  -20.3315   20.9371 C   0  0  0  0  0  0  0  0  0  0  0  0
  -25.6134  -33.8901   26.0967 C   0  0  0  0  0  0  0  0  0  0  0  0
  -29.9640  -26.0009   16.8259 C   0  0  0  0  0  0  0  0  0  0  0  0
  -27.9288  -24.5685   17.2753 C   0  0  0  0  0  0  0  0  0  0  0  0
  -25.5981  -18.8996   21.3769 C   0  0  0  0  0  0  0  0  0  0  0  0
  -29.8230  -26.6288   18.2092 C   0  0  0  0  0  0  0  0  0  0  0  0
  -27.7930  -25.2008   18.6572 C   0  0  0  0  0  0  0  0  0  0  0  0
  -24.5403  -20.3636   19.6059 C   0  0  0  0  0  0  0  0  0  0  0  0
  -25.5054  -18.1929   18.9498 C   0  0  0  0  0  0  0  0  0  0  0  0
  -26.4113  -33.9055   24.7873 C   0  0  1  0  0  0  0  0  0  0  0  0
  -24.5409  -31.8281   22.2146 C   0  0  1  0  0  0  0  0  0  0  0  0
  -29.3845  -24.5799   16.7885 C   0  0  0  0  0  0  0  0  0  0  0  0
  -26.3079  -18.1114   20.2596 C   0  0  2  0  0  0  0  0  0  0  0  0
  -28.3748  -26.6124   18.6912 C   0  0  0  0  0  0  0  0  0  1  0  0
  -19.2240  -26.6189   21.0592 C   0  0  0  0  0  0  0  0  0  0  0  0
  -21.7257  -30.0728   25.9427 C   0  0  0  0  0  0  0  0  0  0  0  0
  -20.5131  -28.0355   25.1384 C   0  0  0  0  0  0  0  0  0  0  0  0
  -19.8328  -30.2927   24.3231 C   0  0  0  0  0  0  0  0  0  0  0  0
  -22.7665  -26.0272   19.8035 C   0  0  0  0  0  0  0  0  0  0  0  0
  -29.4875  -23.9924   15.3822 C   0  0  0  0  0  0  0  0  0  0  0  0
  -26.8137  -19.9498   15.2212 C   0  0  0  0  0  0  0  0  0  0  0  0
  -21.9980  -29.2786   23.5011 C   0  0  1  0  0  0  0  0  0  0  0  0
  -20.6790  -26.9742   20.7957 C   0  0  2  0  0  0  0  0  0  0  0  0
  -21.0453  -29.4231   24.7213 C   0  0  0  0  0  0  0  0  0  0  0  0
  -25.6751  -15.7303   20.3727 N   0  0  0  0  0  0  0  0  0  0  0  0
  -28.2077  -21.9272   15.3079 N   0  0  0  0  0  0  0  0  0  0  0  0
  -26.5805  -16.6769   20.6731 N   0  0  0  0  0  0  0  0  0  0  0  0
  -23.8477  -30.5655   22.4779 N   0  0  0  0  0  0  0  0  0  0  0  0
  -25.2668  -19.5992   18.5891 N   0  0  0  0  0  0  0  0  0  0  0  0
  -28.6793  -17.0201   21.7162 N   0  0  0  0  0  0  0  0  0  0  0  0
  -27.9942  -12.5812   22.1887 N   0  0  0  0  0  0  0  0  0  0  0  0
  -25.5938  -33.4304   23.6917 N   0  0  0  0  0  0  0  0  0  0  0  0
  -21.3729  -28.6912   22.3211 N   0  0  0  0  0  0  0  0  0  0  0  0
  -26.3439  -19.4387   16.4896 N   0  0  0  0  0  0  0  0  0  0  0  0
  -21.3364  -25.8080   20.1407 N   0  3  0  0  0  0  0  0  0  0  0  0
  -29.4395  -14.3014   22.6478 O   0  0  0  0  0  0  0  0  0  0  0  0
  -25.9442  -31.1473   23.9873 O   0  0  0  0  0  0  0  0  0  0  0  0
  -21.9111  -31.6321   23.2183 O   0  0  0  0  0  0  0  0  0  0  0  0
  -21.9346  -26.4936   22.8032 O   0  0  0  0  0  0  0  0  0  0  0  0
  -25.4080  -21.4211   17.1612 O   0  0  0  0  0  0  0  0  0  0  0  0
  -23.5651   -9.7220   20.3899 O   0  0  0  0  0  0  0  0  0  0  0  0
  -28.3331  -27.1155   20.0221 O   0  0  0  0  0  0  0  0  0  1  0  0
  -21.1295   -7.6755   24.8936 F   0  0  0  0  0  0  0  0  0  0  0  0
  -20.8429   -9.2423   20.4362 F   0  0  0  0  0  0  0  0  0  0  0  0
  1  2  1  0  0  0  0
  1  6  2  0  0  0  0
  2  7  2  0  0  0  0
  3 14  2  0  0  0  0
  3 15  1  0  0  0  0
  4  9  2  0  0  0  0
  4 18  1  0  0  0  0
  5 10  1  0  0  0  0
  5 18  2  0  0  0  0
  6 20  1  0  0  0  0
  7 22  1  0  0  0  0
  8 11  2  0  0  0  0
  8 21  1  0  0  0  0
  9 24  1  0  0  0  0
 10 24  2  0  0  0  0
 11 25  1  0  0  0  0
 12 13  2  0  0  0  0
 12 26  1  0  0  0  0
 13 27  1  0  0  0  0
 14 30  1  0  0  0  0
 15 31  2  0  0  0  0
 16 23  1  0  0  0  0
 16 25  2  0  0  0  0
 17 27  2  0  0  0  0
 17 28  1  0  0  0  0
 18 29  1  0  0  0  0
 19 29  1  0  0  0  0
 19 32  2  0  0  0  0
 19 33  1  0  0  0  0
 20 22  2  0  0  0  0
 20 38  1  0  0  0  0
 21 23  2  0  0  0  0
 21 39  1  0  0  0  0
 22 51  1  0  0  0  0
 23 40  1  0  0  0  0
 24 82  1  0  0  0  0
 25 83  1  0  0  0  0
 26 28  2  0  0  0  0
 26 82  1  0  0  0  0
 27 84  1  0  0  0  0
 28 85  1  0  0  0  0
 29 66  2  0  0  0  0
 30 61  1  0  0  0  0
 30 67  2  0  0  0  0
 31 62  1  0  0  0  0
 31 67  1  0  0  0  0
 32 68  1  0  0  0  0
 32 71  1  0  0  0  0
 33 72  1  0  0  0  0
 33 77  2  0  0  0  0
 34 52  1  0  0  0  0
 34 73  1  0  0  0  0
 34 78  2  0  0  0  0
 35 63  1  0  0  0  0
 35 69  1  0  0  0  0
 35 79  2  0  0  0  0
 36 64  1  0  0  0  0
 36 74  1  0  0  0  0
 36 80  2  0  0  0  0
 37 70  1  0  0  0  0
 37 75  1  0  0  0  0
 37 81  2  0  0  0  0
 38 41  1  0  0  0  0
 39 52  1  0  0  0  0
 40 69  1  0  0  0  0
 41 43  1  0  0  0  0
 42 46  1  0  0  0  0
 42 49  1  0  0  0  0
 43 51  1  0  0  0  0
 44 47  1  0  0  0  0
 44 53  1  0  0  0  0
 45 48  1  0  0  0  0
 45 53  1  0  0  0  0
 46 54  1  0  0  0  0
 47 55  1  0  0  0  0
 48 55  1  0  0  0  0
 49 70  1  0  0  0  0
 50 54  1  0  0  0  0
 50 70  1  0  0  0  0
 51 73  1  0  0  0  0
 52 69  1  0  0  0  0
 53 61  1  0  0  0  0
 54 68  1  0  0  0  0
 55 83  1  0  0  0  0
 56 64  1  0  0  0  0
 57 65  1  0  0  0  0
 58 65  1  0  0  0  0
 59 65  1  0  0  0  0
 60 76  1  0  0  0  0
 62 75  1  0  0  0  0
 63 65  1  0  0  0  0
 63 74  1  0  0  0  0
 64 76  1  0  0  0  0
 66 68  1  0  0  0  0
M  CHG  1  76   1
M  ISO  4  37 100  55 101  75 100  83 101
M  END
> <Batch ID>
0110

> <Smiles>
CNC(C)C(=O)NC(C(=O)N1Cc2cc([101O:1][101CH:1]3CCC(Cc4cccc(C[100NH:0][100C:0](=O)N5CCCC(n6nc(-c7ccc(Oc8ccc(F)cc8F)cc7)c(C(N)=O)c6N)C5)n4)CC3)ccc2CC1C(=O)NC1CCCc2ccccc21)C(C)(C)C

> <Shape>
0.280

> <Color>
0.081

> <Negative vol penalty>
0.000

$$$$

  -OEChem-04052319583D

 85 93  0     1  0  0  0  0  0999 V2000
  -27.6426  -31.8988   20.8579 C   0  0  0  0  0  0  0  0  0  0  0  0
  -27.7356  -31.2262   22.0721 C   0  0  0  0  0  0  0  0  0  0  0  0
  -22.8152  -10.1231   20.5963 C   0  0  0  0  0  0  0  0  0  0  0  0
  -24.4580   -9.1293   22.0628 C   0  0  0  0  0  0  0  0  0  0  0  0
  -27.1601  -31.2359   19.7302 C   0  0  0  0  0  0  0  0  0  0  0  0
  -27.3450  -29.8904   22.1596 C   0  0  0  0  0  0  0  0  0  0  0  0
  -28.9509  -23.8183   25.6044 C   0  0  0  0  0  0  0  0  0  0  0  0
  -22.1369   -8.9061   20.5312 C   0  0  0  0  0  0  0  0  0  0  0  0
  -23.7797   -7.9122   21.9978 C   0  0  0  0  0  0  0  0  0  0  0  0
  -28.3438  -22.8144   26.3576 C   0  0  0  0  0  0  0  0  0  0  0  0
  -22.2810   -4.6392   22.5073 C   0  0  0  0  0  0  0  0  0  0  0  0
  -22.0808   -3.9431   23.6993 C   0  0  0  0  0  0  0  0  0  0  0  0
  -27.5999  -21.7482   24.3255 C   0  0  0  0  0  0  0  0  0  0  0  0
  -30.3256  -17.6202   24.3715 C   0  0  0  0  0  0  0  0  0  0  0  0
  -20.8353   -5.8151   24.5834 C   0  0  0  0  0  0  0  0  0  0  0  0
  -30.8108  -16.1374   25.9950 C   0  0  0  0  0  0  0  0  0  0  0  0
  -23.9758  -10.2348   21.3620 C   0  0  0  0  0  0  0  0  0  0  0  0
  -24.4753  -12.5293   22.3588 C   0  0  0  0  0  0  0  0  0  0  0  0
  -26.7724  -29.8886   19.8016 C   0  0  0  0  0  0  0  0  0  0  0  0
  -28.8777  -23.8006   24.2041 C   0  0  0  0  0  0  0  0  0  0  0  0
  -26.8555  -29.2093   21.0321 C   0  0  0  0  0  0  0  0  0  0  0  0
  -28.2091  -22.7517   23.5568 C   0  0  0  0  0  0  0  0  0  0  0  0
  -30.2365  -17.3676   25.7627 C   0  0  0  0  0  0  0  0  0  0  0  0
  -22.6191   -7.8006   21.2320 C   0  0  0  0  0  0  0  0  0  0  0  0
  -27.6657  -21.7807   25.7182 C   0  0  0  0  0  0  0  0  0  0  0  0
  -21.7584   -5.9234   22.3533 C   0  0  0  0  0  0  0  0  0  0  0  0
  -21.3579   -4.5310   24.7373 C   0  0  0  0  0  0  0  0  0  0  0  0
  -21.0355   -6.5112   23.3914 C   0  0  0  0  0  0  0  0  0  0  0  0
  -24.6772  -11.4916   21.4291 C   0  0  0  0  0  0  0  0  0  0  0  0
  -30.9515  -16.5364   23.7960 C   0  0  0  0  0  0  0  0  0  0  0  0
  -25.3828  -13.4950   21.9979 C   0  0  0  0  0  0  0  0  0  0  0  0
  -23.5501  -12.6127   23.4509 C   0  0  0  0  0  0  0  0  0  0  0  0
  -27.6526  -25.7328   21.9974 C   0  0  0  0  0  0  0  0  0  0  0  0
  -29.0925  -23.6692   19.9504 C   0  0  0  0  0  0  0  0  0  0  0  0
  -30.3259  -20.5380   19.3835 C   0  0  0  0  0  0  0  0  0  0  0  0
  -30.5165  -14.9974   20.4063 C   0  0  0  0  0  0  0  0  0  0  0  0
  -26.2125  -29.2278   18.5669 C   0  0  0  0  0  0  0  0  0  0  0  0
  -29.5607  -24.8766   23.4053 C   0  0  0  0  0  0  0  0  0  0  0  0
  -28.1189  -22.6758   22.0553 C   0  0  0  0  0  0  0  0  0  0  0  0
  -26.1717  -27.7045   18.6566 C   0  0  0  0  0  0  0  0  0  0  0  0
  -28.2670  -13.9225   17.8645 C   0  0  0  0  0  0  0  0  0  0  0  0
  -25.5938  -27.2640   19.9978 C   0  0  0  0  0  0  0  0  0  0  0  0
  -27.1196  -13.2747   18.6415 C   0  0  0  0  0  0  0  0  0  0  0  0
  -29.6173  -13.6577   18.5266 C   0  0  0  0  0  0  0  0  0  0  0  0
  -28.5449  -13.3834   20.7285 C   0  0  0  0  0  0  0  0  0  0  0  0
  -26.4649  -27.7529   21.1612 C   0  0  1  0  0  0  0  0  0  0  0  0
  -28.9839  -25.0361   22.0020 C   0  0  1  0  0  0  0  0  0  0  0  0
  -27.1570  -13.6698   20.1301 C   0  0  2  0  0  0  0  0  0  0  0  0
  -31.4058  -19.1388   17.6021 C   0  0  0  0  0  0  0  0  0  0  0  0
  -25.9600  -18.6752   28.1209 C   0  0  0  0  0  0  0  0  0  0  0  0
  -30.9949  -13.1957   25.0096 C   0  0  0  0  0  0  0  0  0  0  0  0
  -33.2413  -14.3096   25.3548 C   0  0  0  0  0  0  0  0  0  0  0  0
  -26.3944  -23.3627   18.5590 C   0  0  0  0  0  0  0  0  0  0  0  0
  -27.2813  -21.3034   17.4450 C   0  0  0  0  0  0  0  0  0  0  0  0
  -28.3543  -23.5135   17.0129 C   0  0  0  0  0  0  0  0  0  0  0  0
  -32.7615  -20.1328   21.0153 C   0  0  0  0  0  0  0  0  0  0  0  0
  -29.6262  -18.2773   26.7994 C   0  0  0  0  0  0  0  0  0  0  0  0
  -31.2959  -16.2814   22.3819 C   0  0  0  0  0  0  0  0  0  0  0  0
  -28.1289  -18.0365   27.0370 C   0  0  0  0  0  0  0  0  0  0  0  0
  -27.6661  -20.4774   27.7075 C   0  0  0  0  0  0  0  0  0  1  0  0
  -28.6837  -22.3930   19.2552 C   0  0  1  0  0  0  0  0  0  0  0  0
  -31.6386  -20.0655   18.7852 C   0  0  2  0  0  0  0  0  0  0  0  0
  -27.4584  -18.9950   28.0460 C   0  0  1  0  0  0  0  0  0  0  0  0
  -31.9008  -14.3653   24.6197 C   0  0  0  0  0  0  0  0  0  0  0  0
  -27.6783  -22.6453   18.0964 C   0  0  0  0  0  0  0  0  0  0  0  0
  -25.6375  -11.7719   20.5441 N   0  0  0  0  0  0  0  0  0  0  0  0
  -31.2416  -15.6412   24.7923 N   0  0  0  0  0  0  0  0  0  0  0  0
  -26.0471  -12.9966   20.9160 N   0  0  0  0  0  0  0  0  0  0  0  0
  -28.7976  -23.7547   21.3184 N   0  0  0  0  0  0  0  0  0  0  0  0
  -29.5864  -14.0557   19.9361 N   0  0  0  0  0  0  0  0  0  0  0  0
  -25.6694  -14.7134   22.5037 N   0  0  0  0  0  0  0  0  0  0  0  0
  -22.6891  -11.5311   23.6813 N   0  0  0  0  0  0  0  0  0  0  0  0
  -27.6426  -26.9225   21.2945 N   0  0  0  0  0  0  0  0  0  0  0  0
  -29.9206  -21.7393   18.8415 N   0  0  0  0  0  0  0  0  0  0  0  0
  -30.4139  -15.3236   21.7531 N   0  0  0  0  0  0  0  0  0  0  0  0
  -32.4391  -19.3322   19.8062 N   0  3  0  0  0  0  0  0  0  0  0  0
  -23.4775  -13.6234   24.1903 O   0  0  0  0  0  0  0  0  0  0  0  0
  -26.7043  -25.2277   22.5867 O   0  0  0  0  0  0  0  0  0  0  0  0
  -29.6594  -24.5545   19.3050 O   0  0  0  0  0  0  0  0  0  0  0  0
  -29.7188  -19.9029   20.2429 O   0  0  0  0  0  0  0  0  0  0  0  0
  -31.3714  -15.5136   19.6785 O   0  0  0  0  0  0  0  0  0  0  0  0
  -21.9574   -6.6129   21.1690 O   0  0  0  0  0  0  0  0  0  0  0  0
  -27.0716  -20.7998   26.4510 O   0  0  0  0  0  0  0  0  0  1  0  0
  -21.1644   -3.8617   25.8814 F   0  0  0  0  0  0  0  0  0  0  0  0
  -20.5300   -7.7441   23.2489 F   0  0  0  0  0  0  0  0  0  0  0  0
  1  2  1  0  0  0  0
  1  5  2  0  0  0  0
  2  6  2  0  0  0  0
  3  8  2  0  0  0  0
  3 17  1  0  0  0  0
  4  9  1  0  0  0  0
  4 17  2  0  0  0  0
  5 19  1  0  0  0  0
  6 21  1  0  0  0  0
  7 10  2  0  0  0  0
  7 20  1  0  0  0  0
  8 24  1  0  0  0  0
  9 24  2  0  0  0  0
 10 25  1  0  0  0  0
 11 12  2  0  0  0  0
 11 26  1  0  0  0  0
 12 27  1  0  0  0  0
 13 22  1  0  0  0  0
 13 25  2  0  0  0  0
 14 23  1  0  0  0  0
 14 30  2  0  0  0  0
 15 27  2  0  0  0  0
 15 28  1  0  0  0  0
 16 23  2  0  0  0  0
 16 67  1  0  0  0  0
 17 29  1  0  0  0  0
 18 29  1  0  0  0  0
 18 31  2  0  0  0  0
 18 32  1  0  0  0  0
 19 21  2  0  0  0  0
 19 37  1  0  0  0  0
 20 22  2  0  0  0  0
 20 38  1  0  0  0  0
 21 46  1  0  0  0  0
 22 39  1  0  0  0  0
 23 57  1  0  0  0  0
 24 82  1  0  0  0  0
 25 83  1  0  0  0  0
 26 28  2  0  0  0  0
 26 82  1  0  0  0  0
 27 84  1  0  0  0  0
 28 85  1  0  0  0  0
 29 66  2  0  0  0  0
 30 58  1  0  0  0  0
 30 67  1  0  0  0  0
 31 68  1  0  0  0  0
 31 71  1  0  0  0  0
 32 72  1  0  0  0  0
 32 77  2  0  0  0  0
 33 47  1  0  0  0  0
 33 73  1  0  0  0  0
 33 78  2  0  0  0  0
 34 61  1  0  0  0  0
 34 69  1  0  0  0  0
 34 79  2  0  0  0  0
 35 62  1  0  0  0  0
 35 74  1  0  0  0  0
 35 80  2  0  0  0  0
 36 70  1  0  0  0  0
 36 75  1  0  0  0  0
 36 81  2  0  0  0  0
 37 40  1  0  0  0  0
 38 47  1  0  0  0  0
 39 69  1  0  0  0  0
 40 42  1  0  0  0  0
 41 43  1  0  0  0  0
 41 44  1  0  0  0  0
 42 46  1  0  0  0  0
 43 48  1  0  0  0  0
 44 70  1  0  0  0  0
 45 48  1  0  0  0  0
 45 70  1  0  0  0  0
 46 73  1  0  0  0  0
 47 69  1  0  0  0  0
 48 68  1  0  0  0  0
 49 62  1  0  0  0  0
 50 63  1  0  0  0  0
 51 64  1  0  0  0  0
 52 64  1  0  0  0  0
 53 65  1  0  0  0  0
 54 65  1  0  0  0  0
 55 65  1  0  0  0  0
 56 76  1  0  0  0  0
 57 59  1  0  0  0  0
 58 75  1  0  0  0  0
 59 63  1  0  0  0  0
 60 63  1  0  0  0  0
 60 83  1  0  0  0  0
 61 65  1  0  0  0  0
 61 74  1  0  0  0  0
 62 76  1  0  0  0  0
 64 67  1  0  0  0  0
 66 68  1  0  0  0  0
M  CHG  1  76   1
M  ISO  4  36 100  60 101  75 100  83 101
M  END
> <Batch ID>
0110

> <Smiles>
CNC(C)C(=O)NC(C(=O)N1Cc2cc([101O:1][101CH2:1]C(C)CCc3cc(C[100NH:0][100C:0](=O)N4CCCC(n5nc(-c6ccc(Oc7ccc(F)cc7F)cc6)c(C(N)=O)c5N)C4)n(C(C)C)c3)ccc2CC1C(=O)NC1CCCc2ccccc21)C(C)(C)C

> <Shape>
0.236

> <Color>
0.129

> <Negative vol penalty>
0.000

$$$$

  -OEChem-04052319583D

 86 94  0     1  0  0  0  0  0999 V2000
  -33.8122  -24.7291   13.0120 C   0  0  0  0  0  0  0  0  0  0  0  0
  -33.2463  -23.8377   13.9179 C   0  0  0  0  0  0  0  0  0  0  0  0
  -23.0484   -9.7974   19.9675 C   0  0  0  0  0  0  0  0  0  0  0  0
  -23.7616   -9.8781   22.2745 C   0  0  0  0  0  0  0  0  0  0  0  0
  -34.0668  -26.0447   13.3968 C   0  0  0  0  0  0  0  0  0  0  0  0
  -32.9357  -24.2612   15.2096 C   0  0  0  0  0  0  0  0  0  0  0  0
  -28.2081  -22.4327   18.6465 C   0  0  0  0  0  0  0  0  0  0  0  0
  -22.3140   -8.6421   20.2350 C   0  0  0  0  0  0  0  0  0  0  0  0
  -23.0271   -8.7229   22.5420 C   0  0  0  0  0  0  0  0  0  0  0  0
  -28.1011  -21.4927   19.6706 C   0  0  0  0  0  0  0  0  0  0  0  0
  -23.3703   -5.3907   22.0842 C   0  0  0  0  0  0  0  0  0  0  0  0
  -23.9838   -4.3938   22.8428 C   0  0  0  0  0  0  0  0  0  0  0  0
  -28.3736  -23.2484   21.3023 C   0  0  0  0  0  0  0  0  0  0  0  0
  -31.2856  -19.4863   22.6816 C   0  0  0  0  0  0  0  0  0  0  0  0
  -29.5702  -17.8007   22.6583 C   0  0  0  0  0  0  0  0  0  0  0  0
  -22.2462   -4.5929   24.5096 C   0  0  0  0  0  0  0  0  0  0  0  0
  -23.7723  -10.4154   20.9873 C   0  0  0  0  0  0  0  0  0  0  0  0
  -24.0852  -12.9404   20.8030 C   0  0  0  0  0  0  0  0  0  0  0  0
  -33.7502  -26.4872   14.6909 C   0  0  0  0  0  0  0  0  0  0  0  0
  -28.4100  -23.7884   18.9429 C   0  0  0  0  0  0  0  0  0  0  0  0
  -33.1875  -25.5837   15.6126 C   0  0  0  0  0  0  0  0  0  0  0  0
  -28.4803  -24.2039   20.2802 C   0  0  0  0  0  0  0  0  0  0  0  0
  -30.0206  -19.0526   23.0623 C   0  0  0  0  0  0  0  0  0  0  0  0
  -22.3033   -8.1049   21.5222 C   0  0  0  0  0  0  0  0  0  0  0  0
  -28.1868  -21.9001   20.9987 C   0  0  0  0  0  0  0  0  0  0  0  0
  -22.1948   -5.9887   22.5383 C   0  0  0  0  0  0  0  0  0  0  0  0
  -23.4217   -3.9949   24.0555 C   0  0  0  0  0  0  0  0  0  0  0  0
  -21.6327   -5.5898   23.7510 C   0  0  0  0  0  0  0  0  0  0  0  0
  -24.5317  -11.6084   20.7115 C   0  0  0  0  0  0  0  0  0  0  0  0
  -32.0552  -18.6372   21.9028 C   0  0  0  0  0  0  0  0  0  0  0  0
  -30.4165  -17.0271   21.8804 C   0  0  0  0  0  0  0  0  0  0  0  0
  -25.1752  -13.6935   20.4406 C   0  0  0  0  0  0  0  0  0  0  0  0
  -22.8003  -13.4512   21.1819 C   0  0  0  0  0  0  0  0  0  0  0  0
  -30.7049  -25.9008   18.3308 C   0  0  0  0  0  0  0  0  0  0  0  0
  -28.6147  -27.9795   19.6844 C   0  0  0  0  0  0  0  0  0  0  0  0
  -25.9698  -28.4742   21.7835 C   0  0  0  0  0  0  0  0  0  0  0  0
  -30.6234  -14.8142   20.6945 C   0  0  0  0  0  0  0  0  0  0  0  0
  -34.0874  -27.9060   15.0758 C   0  0  0  0  0  0  0  0  0  0  0  0
  -28.4966  -24.7935   17.8273 C   0  0  0  0  0  0  0  0  0  0  0  0
  -28.6761  -25.6503   20.6520 C   0  0  0  0  0  0  0  0  0  0  0  0
  -33.3832  -28.3763   16.3459 C   0  0  0  0  0  0  0  0  0  0  0  0
  -29.5870  -12.3210   18.3734 C   0  0  0  0  0  0  0  0  0  0  0  0
  -33.4936  -27.3193   17.4401 C   0  0  0  0  0  0  0  0  0  0  0  0
  -28.1427  -12.0230   18.7823 C   0  0  0  0  0  0  0  0  0  0  0  0
  -30.4747  -12.5951   19.5861 C   0  0  0  0  0  0  0  0  0  0  0  0
  -28.5314  -13.3330   20.9082 C   0  0  0  0  0  0  0  0  0  0  0  0
  -32.8137  -26.0121   17.0150 C   0  0  1  0  0  0  0  0  0  0  0  0
  -29.2158  -26.0762   18.2333 C   0  0  1  0  0  0  0  0  0  0  0  0
  -27.5848  -13.1144   19.7166 C   0  0  2  0  0  0  0  0  0  0  0  0
  -29.7744  -20.2138   25.2810 C   0  0  0  0  0  0  0  0  0  0  0  0
  -24.5078  -30.2878   22.7167 C   0  0  0  0  0  0  0  0  0  0  0  0
  -33.2337  -19.3428   18.3811 C   0  0  0  0  0  0  0  0  0  0  0  0
  -32.7671  -21.7793   18.7027 C   0  0  0  0  0  0  0  0  0  0  0  0
  -30.8636  -28.8200   21.5676 C   0  0  0  0  0  0  0  0  0  0  0  0
  -29.1398  -29.8846   23.0385 C   0  0  0  0  0  0  0  0  0  0  0  0
  -29.4653  -30.7057   20.7055 C   0  0  0  0  0  0  0  0  0  0  0  0
  -23.5357  -27.2854   20.5914 C   0  0  0  0  0  0  0  0  0  0  0  0
  -33.4629  -20.4066   20.6910 C   0  0  0  0  0  0  0  0  0  0  0  0
  -28.7898  -21.2614   23.2087 C   0  0  0  0  0  0  0  0  0  1  0  0
  -29.1331  -19.9438   23.9170 C   0  0  1  0  0  0  0  0  0  0  0  0
  -33.4178  -19.0701   21.4748 C   0  0  1  0  0  0  0  0  0  0  0  0
  -28.3511  -28.4687   21.0880 C   0  0  1  0  0  0  0  0  0  0  0  0
  -24.6804  -29.2569   21.6121 C   0  0  2  0  0  0  0  0  0  0  0  0
  -32.6943  -20.3942   19.3520 C   0  0  0  0  0  0  0  0  0  0  0  0
  -29.4532  -29.4422   21.5932 C   0  0  0  0  0  0  0  0  0  0  0  0
  -25.8058  -11.5173   20.3213 N   0  0  0  0  0  0  0  0  0  0  0  0
  -31.6518  -17.4144   21.4909 N   0  0  0  0  0  0  0  0  0  0  0  0
  -26.1693  -12.8016   20.1644 N   0  0  0  0  0  0  0  0  0  0  0  0
  -28.7614  -26.5943   19.5254 N   0  0  0  0  0  0  0  0  0  0  0  0
  -29.8854  -13.6426   20.4228 N   0  0  0  0  0  0  0  0  0  0  0  0
  -25.3705  -15.0250   20.3344 N   0  0  0  0  0  0  0  0  0  0  0  0
  -21.7930  -12.5388   21.5245 N   0  0  0  0  0  0  0  0  0  0  0  0
  -29.9482  -15.7532   21.4735 N   0  0  0  0  0  0  0  0  0  0  0  0
  -31.3767  -26.1246   17.1442 N   0  0  0  0  0  0  0  0  0  0  0  0
  -27.0089  -29.0403   21.0757 N   0  0  0  0  0  0  0  0  0  0  0  0
  -34.3615  -19.2232   22.6420 N   0  3  0  0  0  0  0  0  0  0  0  0
  -23.5083  -28.3369   21.6405 N   0  3  0  0  0  0  0  0  0  0  0  0
  -22.5477  -14.6798   21.1999 O   0  0  0  0  0  0  0  0  0  0  0  0
  -31.2074  -25.5870   19.4036 O   0  0  0  0  0  0  0  0  0  0  0  0
  -28.6808  -28.7958   18.7619 O   0  0  0  0  0  0  0  0  0  0  0  0
  -26.0482  -27.4638   22.4790 O   0  0  0  0  0  0  0  0  0  0  0  0
  -31.7595  -14.9844   20.2449 O   0  0  0  0  0  0  0  0  0  0  0  0
  -21.5865   -6.9777   21.7836 O   0  0  0  0  0  0  0  0  0  0  0  0
  -28.0833  -20.9846   22.0002 O   0  0  0  0  0  0  0  0  0  1  0  0
  -24.0101   -3.0365   24.7832 F   0  0  0  0  0  0  0  0  0  0  0  0
  -20.5029   -6.1599   24.1919 F   0  0  0  0  0  0  0  0  0  0  0  0
  1  2  1  0  0  0  0
  1  5  2  0  0  0  0
  2  6  2  0  0  0  0
  3  8  2  0  0  0  0
  3 17  1  0  0  0  0
  4  9  1  0  0  0  0
  4 17  2  0  0  0  0
  5 19  1  0  0  0  0
  6 21  1  0  0  0  0
  7 10  2  0  0  0  0
  7 20  1  0  0  0  0
  8 24  1  0  0  0  0
  9 24  2  0  0  0  0
 10 25  1  0  0  0  0
 11 12  2  0  0  0  0
 11 26  1  0  0  0  0
 12 27  1  0  0  0  0
 13 22  1  0  0  0  0
 13 25  2  0  0  0  0
 14 23  2  0  0  0  0
 14 30  1  0  0  0  0
 15 23  1  0  0  0  0
 15 31  2  0  0  0  0
 16 27  2  0  0  0  0
 16 28  1  0  0  0  0
 17 29  1  0  0  0  0
 18 29  1  0  0  0  0
 18 32  2  0  0  0  0
 18 33  1  0  0  0  0
 19 21  2  0  0  0  0
 19 38  1  0  0  0  0
 20 22  2  0  0  0  0
 20 39  1  0  0  0  0
 21 47  1  0  0  0  0
 22 40  1  0  0  0  0
 23 60  1  0  0  0  0
 24 83  1  0  0  0  0
 25 84  1  0  0  0  0
 26 28  2  0  0  0  0
 26 83  1  0  0  0  0
 27 85  1  0  0  0  0
 28 86  1  0  0  0  0
 29 66  2  0  0  0  0
 30 61  1  0  0  0  0
 30 67  2  0  0  0  0
 31 67  1  0  0  0  0
 31 73  1  0  0  0  0
 32 68  1  0  0  0  0
 32 71  1  0  0  0  0
 33 72  1  0  0  0  0
 33 78  2  0  0  0  0
 34 48  1  0  0  0  0
 34 74  1  0  0  0  0
 34 79  2  0  0  0  0
 35 62  1  0  0  0  0
 35 69  1  0  0  0  0
 35 80  2  0  0  0  0
 36 63  1  0  0  0  0
 36 75  1  0  0  0  0
 36 81  2  0  0  0  0
 37 70  1  0  0  0  0
 37 73  1  0  0  0  0
 37 82  2  0  0  0  0
 38 41  1  0  0  0  0
 39 48  1  0  0  0  0
 40 69  1  0  0  0  0
 41 43  1  0  0  0  0
 42 44  1  0  0  0  0
 42 45  1  0  0  0  0
 43 47  1  0  0  0  0
 44 49  1  0  0  0  0
 45 70  1  0  0  0  0
 46 49  1  0  0  0  0
 46 70  1  0  0  0  0
 47 74  1  0  0  0  0
 48 69  1  0  0  0  0
 49 68  1  0  0  0  0
 50 60  1  0  0  0  0
 51 63  1  0  0  0  0
 52 64  1  0  0  0  0
 53 64  1  0  0  0  0
 54 65  1  0  0  0  0
 55 65  1  0  0  0  0
 56 65  1  0  0  0  0
 57 77  1  0  0  0  0
 58 61  1  0  0  0  0
 58 64  1  0  0  0  0
 59 60  1  0  0  0  0
 59 84  1  0  0  0  0
 61 76  1  0  0  0  0
 62 65  1  0  0  0  0
 62 75  1  0  0  0  0
 63 77  1  0  0  0  0
 66 68  1  0  0  0  0
M  CHG  2  76   1  77   1
M  ISO  4  37 100  59 101  73 100  84 101
M  END
> <Batch ID>
0110

> <Smiles>
CNC(C)C(=O)NC(C(=O)N1Cc2cc([101O:1][101CH2:1]C(C)c3cc([100NH:0][100C:0](=O)N4CCCC(n5nc(-c6ccc(Oc7ccc(F)cc7F)cc6)c(C(N)=O)c5N)C4)nc(C(N)CC(C)C)c3)ccc2CC1C(=O)NC1CCCc2ccccc21)C(C)(C)C

> <Shape>
0.294

> <Color>
0.202

> <Negative vol penalty>
0.000

$$$$

  -OEChem-04052319583D

 85 93  0     1  0  0  0  0  0999 V2000
  -33.3134  -25.8164   27.4090 C   0  0  0  0  0  0  0  0  0  0  0  0
  -33.7318  -24.6013   26.8762 C   0  0  0  0  0  0  0  0  0  0  0  0
  -28.0668  -26.0525   18.0515 C   0  0  0  0  0  0  0  0  0  0  0  0
  -27.1189  -25.5310   20.2117 C   0  0  0  0  0  0  0  0  0  0  0  0
  -32.1180  -25.8885   28.1230 C   0  0  0  0  0  0  0  0  0  0  0  0
  -32.9554  -23.4573   27.0579 C   0  0  0  0  0  0  0  0  0  0  0  0
  -32.2296  -18.8348   23.1068 C   0  0  0  0  0  0  0  0  0  0  0  0
  -27.1478  -27.0905   17.8987 C   0  0  0  0  0  0  0  0  0  0  0  0
  -26.1998  -26.5691   20.0590 C   0  0  0  0  0  0  0  0  0  0  0  0
  -32.8258  -17.5780   23.0138 C   0  0  0  0  0  0  0  0  0  0  0  0
  -26.1734  -29.9349   20.3613 C   0  0  0  0  0  0  0  0  0  0  0  0
  -25.9660  -30.7804   21.4511 C   0  0  0  0  0  0  0  0  0  0  0  0
  -29.8358  -11.9566   19.1299 C   0  0  0  0  0  0  0  0  0  0  0  0
  -28.4243  -12.0405   19.0422 C   0  0  0  0  0  0  0  0  0  0  0  0
  -30.9630  -16.6128   24.2044 C   0  0  0  0  0  0  0  0  0  0  0  0
  -23.6316  -30.1591   21.4890 C   0  0  0  0  0  0  0  0  0  0  0  0
  -28.0524  -25.2727   19.2080 C   0  0  0  0  0  0  0  0  0  0  0  0
  -30.2814  -24.2759   19.9465 C   0  0  0  0  0  0  0  0  0  0  0  0
  -31.3218  -24.7468   28.3052 C   0  0  0  0  0  0  0  0  0  0  0  0
  -30.9987  -18.9921   23.7599 C   0  0  0  0  0  0  0  0  0  0  0  0
  -31.7489  -23.5140   27.7761 C   0  0  0  0  0  0  0  0  0  0  0  0
  -30.3520  -17.8723   24.3021 C   0  0  0  0  0  0  0  0  0  0  0  0
  -26.2143  -27.3489   18.9025 C   0  0  0  0  0  0  0  0  0  0  0  0
  -32.1939  -16.4672   23.5652 C   0  0  0  0  0  0  0  0  0  0  0  0
  -25.1098  -29.2015   19.8353 C   0  0  0  0  0  0  0  0  0  0  0  0
  -24.6952  -30.8925   22.0150 C   0  0  0  0  0  0  0  0  0  0  0  0
  -23.8389  -29.3136   20.3992 C   0  0  0  0  0  0  0  0  0  0  0  0
  -29.0011  -24.1999   19.3661 C   0  0  0  0  0  0  0  0  0  0  0  0
  -30.2760  -13.0914   19.7748 C   0  0  0  0  0  0  0  0  0  0  0  0
  -28.0449  -13.2241   19.6359 C   0  0  0  0  0  0  0  0  0  0  0  0
  -30.7760  -22.9978   19.8560 C   0  0  0  0  0  0  0  0  0  0  0  0
  -30.9627  -25.4013   20.5166 C   0  0  0  0  0  0  0  0  0  0  0  0
  -30.0033  -20.6051   26.3116 C   0  0  0  0  0  0  0  0  0  0  0  0
  -27.0858  -19.5662   25.3467 C   0  0  0  0  0  0  0  0  0  0  0  0
  -25.2573  -17.2610   23.6177 C   0  0  0  0  0  0  0  0  0  0  0  0
  -28.9951  -17.6092   20.3008 C   0  0  0  0  0  0  0  0  0  0  0  0
  -30.0611  -24.8643   29.1247 C   0  0  0  0  0  0  0  0  0  0  0  0
  -30.3559  -20.3502   23.8283 C   0  0  0  0  0  0  0  0  0  0  0  0
  -29.0198  -17.9845   24.9958 C   0  0  0  0  0  0  0  0  0  0  0  0
  -29.1100  -23.6828   28.9520 C   0  0  0  0  0  0  0  0  0  0  0  0
  -29.7376  -19.0472   17.0670 C   0  0  0  0  0  0  0  0  0  0  0  0
  -29.8732  -22.3653   29.0442 C   0  0  0  0  0  0  0  0  0  0  0  0
  -29.7488  -20.5420   17.3935 C   0  0  0  0  0  0  0  0  0  0  0  0
  -28.6560  -18.3179   17.8580 C   0  0  0  0  0  0  0  0  0  0  0  0
  -28.7552  -19.9926   19.6636 C   0  0  0  0  0  0  0  0  0  0  0  0
  -30.9219  -22.2561   27.9307 C   0  0  1  0  0  0  0  0  0  0  0  0
  -29.3473  -20.4773   24.9659 C   0  0  1  0  0  0  0  0  0  0  0  0
  -29.8410  -20.7839   18.9120 C   0  0  2  0  0  0  0  0  0  0  0  0
  -25.7781  -12.9248   20.6968 C   0  0  0  0  0  0  0  0  0  0  0  0
  -25.9859  -14.1046   18.4787 C   0  0  0  0  0  0  0  0  0  0  0  0
  -23.2347  -16.1907   22.5878 C   0  0  0  0  0  0  0  0  0  0  0  0
  -34.0438  -12.6349   23.0989 C   0  0  0  0  0  0  0  0  0  0  0  0
  -26.6892  -18.4555   28.1607 C   0  0  0  0  0  0  0  0  0  0  0  0
  -24.7982  -17.0749   27.2740 C   0  0  0  0  0  0  0  0  0  0  0  0
  -24.6721  -19.5646   27.1831 C   0  0  0  0  0  0  0  0  0  0  0  0
  -25.5728  -18.8045   21.1124 C   0  0  0  0  0  0  0  0  0  0  0  0
  -31.6779  -13.5169   20.1330 C   0  0  0  0  0  0  0  0  0  0  0  0
  -32.1417  -13.0368   21.5153 C   0  0  0  0  0  0  0  0  0  0  0  0
  -33.5988  -14.9915   22.3386 C   0  0  0  0  0  0  0  0  0  1  0  0
  -29.2135  -15.1793   20.7847 C   0  0  0  0  0  0  0  0  0  0  0  0
  -26.6976  -13.8026   19.8173 C   0  0  0  0  0  0  0  0  0  0  0  0
  -26.2415  -18.3451   25.6204 C   0  0  1  0  0  0  0  0  0  0  0  0
  -24.1331  -17.4175   22.6097 C   0  0  2  0  0  0  0  0  0  0  0  0
  -33.5494  -13.5103   21.9402 C   0  0  1  0  0  0  0  0  0  0  0  0
  -25.6263  -18.3579   27.0482 C   0  0  0  0  0  0  0  0  0  0  0  0
  -28.7012  -22.9706   18.9384 N   0  0  0  0  0  0  0  0  0  0  0  0
  -29.1788  -13.8547   20.0774 N   0  0  0  0  0  0  0  0  0  0  0  0
  -29.8000  -22.2625   19.2501 N   0  0  0  0  0  0  0  0  0  0  0  0
  -28.4348  -19.3347   25.0425 N   0  0  0  0  0  0  0  0  0  0  0  0
  -28.8135  -18.5742   19.2964 N   0  0  0  0  0  0  0  0  0  0  0  0
  -31.9462  -22.4423   20.2362 N   0  0  0  0  0  0  0  0  0  0  0  0
  -30.3100  -26.6416   20.5287 N   0  0  0  0  0  0  0  0  0  0  0  0
  -30.2918  -21.9066   26.6756 N   0  0  0  0  0  0  0  0  0  0  0  0
  -25.2566  -18.2806   24.5460 N   0  0  0  0  0  0  0  0  0  0  0  0
  -29.0288  -16.2896   19.8651 N   0  0  0  0  0  0  0  0  0  0  0  0
  -24.6885  -17.6178   21.2414 N   0  3  0  0  0  0  0  0  0  0  0  0
  -32.1226  -25.3134   20.9861 O   0  0  0  0  0  0  0  0  0  0  0  0
  -30.2296  -19.5977   26.9716 O   0  0  0  0  0  0  0  0  0  0  0  0
  -26.5660  -20.6839   25.3938 O   0  0  0  0  0  0  0  0  0  0  0  0
  -26.0539  -16.3256   23.5872 O   0  0  0  0  0  0  0  0  0  0  0  0
  -29.1209  -17.9011   21.4948 O   0  0  0  0  0  0  0  0  0  0  0  0
  -25.3174  -28.3619   18.7538 O   0  0  0  0  0  0  0  0  0  0  0  0
  -32.7740  -15.2394   23.4764 O   0  0  0  0  0  0  0  0  0  1  0  0
  -24.4965  -31.7034   23.0625 F   0  0  0  0  0  0  0  0  0  0  0  0
  -22.8135  -28.6106   19.8990 F   0  0  0  0  0  0  0  0  0  0  0  0
  1  2  1  0  0  0  0
  1  5  2  0  0  0  0
  2  6  2  0  0  0  0
  3  8  2  0  0  0  0
  3 17  1  0  0  0  0
  4  9  1  0  0  0  0
  4 17  2  0  0  0  0
  5 19  1  0  0  0  0
  6 21  1  0  0  0  0
  7 10  2  0  0  0  0
  7 20  1  0  0  0  0
  8 23  1  0  0  0  0
  9 23  2  0  0  0  0
 10 24  1  0  0  0  0
 11 12  2  0  0  0  0
 11 25  1  0  0  0  0
 12 26  1  0  0  0  0
 13 14  1  0  0  0  0
 13 29  2  0  0  0  0
 14 30  2  0  0  0  0
 15 22  1  0  0  0  0
 15 24  2  0  0  0  0
 16 26  2  0  0  0  0
 16 27  1  0  0  0  0
 17 28  1  0  0  0  0
 18 28  1  0  0  0  0
 18 31  2  0  0  0  0
 18 32  1  0  0  0  0
 19 21  2  0  0  0  0
 19 37  1  0  0  0  0
 20 22  2  0  0  0  0
 20 38  1  0  0  0  0
 21 46  1  0  0  0  0
 22 39  1  0  0  0  0
 23 82  1  0  0  0  0
 24 83  1  0  0  0  0
 25 27  2  0  0  0  0
 25 82  1  0  0  0  0
 26 84  1  0  0  0  0
 27 85  1  0  0  0  0
 28 66  2  0  0  0  0
 29 57  1  0  0  0  0
 29 67  1  0  0  0  0
 30 61  1  0  0  0  0
 30 67  1  0  0  0  0
 31 68  1  0  0  0  0
 31 71  1  0  0  0  0
 32 72  1  0  0  0  0
 32 77  2  0  0  0  0
 33 47  1  0  0  0  0
 33 73  1  0  0  0  0
 33 78  2  0  0  0  0
 34 62  1  0  0  0  0
 34 69  1  0  0  0  0
 34 79  2  0  0  0  0
 35 63  1  0  0  0  0
 35 74  1  0  0  0  0
 35 80  2  0  0  0  0
 36 70  1  0  0  0  0
 36 75  1  0  0  0  0
 36 81  2  0  0  0  0
 37 40  1  0  0  0  0
 38 47  1  0  0  0  0
 39 69  1  0  0  0  0
 40 42  1  0  0  0  0
 41 43  1  0  0  0  0
 41 44  1  0  0  0  0
 42 46  1  0  0  0  0
 43 48  1  0  0  0  0
 44 70  1  0  0  0  0
 45 48  1  0  0  0  0
 45 70  1  0  0  0  0
 46 73  1  0  0  0  0
 47 69  1  0  0  0  0
 48 68  1  0  0  0  0
 49 61  1  0  0  0  0
 50 61  1  0  0  0  0
 51 63  1  0  0  0  0
 52 64  1  0  0  0  0
 53 65  1  0  0  0  0
 54 65  1  0  0  0  0
 55 65  1  0  0  0  0
 56 76  1  0  0  0  0
 57 58  1  0  0  0  0
 58 64  1  0  0  0  0
 59 64  1  0  0  0  0
 59 83  1  0  0  0  0
 60 67  1  0  0  0  0
 60 75  1  0  0  0  0
 62 65  1  0  0  0  0
 62 74  1  0  0  0  0
 63 76  1  0  0  0  0
 66 68  1  0  0  0  0
M  CHG  1  76   1
M  ISO  4  36 100  59 101  75 100  83 101
M  END
> <Batch ID>
0110

> <Smiles>
CNC(C)C(=O)NC(C(=O)N1Cc2cc([101O:1][101CH2:1]C(C)CCc3ccc(C(C)C)n3C[100NH:0][100C:0](=O)N3CCCC(n4nc(-c5ccc(Oc6ccc(F)cc6F)cc5)c(C(N)=O)c4N)C3)ccc2CC1C(=O)NC1CCCc2ccccc21)C(C)(C)C

> <Shape>
0.201

> <Color>
0.055

> <Negative vol penalty>
0.000

$$$$

  -OEChem-04052319583D

 89 97  0     1  0  0  0  0  0999 V2000
  -22.7348  -24.9935   15.7050 C   0  0  0  0  0  0  0  0  0  0  0  0
  -22.2105  -23.7246   15.9238 C   0  0  0  0  0  0  0  0  0  0  0  0
  -28.1165  -26.4362   19.0449 C   0  0  0  0  0  0  0  0  0  0  0  0
  -29.0772  -25.8180   21.1737 C   0  0  0  0  0  0  0  0  0  0  0  0
  -23.3831  -25.6636   16.7403 C   0  0  0  0  0  0  0  0  0  0  0  0
  -22.3238  -23.1303   17.1811 C   0  0  0  0  0  0  0  0  0  0  0  0
  -20.7078  -17.5766   19.0975 C   0  0  0  0  0  0  0  0  0  0  0  0
  -27.6592  -27.6320   19.5985 C   0  0  0  0  0  0  0  0  0  0  0  0
  -28.6200  -27.0138   21.7273 C   0  0  0  0  0  0  0  0  0  0  0  0
  -21.2941  -16.3171   19.2138 C   0  0  0  0  0  0  0  0  0  0  0  0
  -25.0998  -28.6518   21.5564 C   0  0  0  0  0  0  0  0  0  0  0  0
  -23.7912  -29.0396   21.2689 C   0  0  0  0  0  0  0  0  0  0  0  0
  -21.7979  -16.7719   21.5286 C   0  0  0  0  0  0  0  0  0  0  0  0
  -27.8185  -13.3109   19.0955 C   0  0  0  0  0  0  0  0  0  0  0  0
  -24.6159  -31.0729   20.2577 C   0  0  0  0  0  0  0  0  0  0  0  0
  -28.8254  -25.5291   19.8325 C   0  0  0  0  0  0  0  0  0  0  0  0
  -30.5377  -24.0652   18.6356 C   0  0  0  0  0  0  0  0  0  0  0  0
  -23.5150  -25.0713   18.0071 C   0  0  0  0  0  0  0  0  0  0  0  0
  -20.6717  -18.4490   20.1948 C   0  0  0  0  0  0  0  0  0  0  0  0
  -22.9536  -23.8004   18.2455 C   0  0  0  0  0  0  0  0  0  0  0  0
  -21.2082  -18.0410   21.4244 C   0  0  0  0  0  0  0  0  0  0  0  0
  -28.8596  -13.8835   19.8176 C   0  0  0  0  0  0  0  0  0  0  0  0
  -29.1910  -13.3769   21.0694 C   0  0  0  0  0  0  0  0  0  0  0  0
  -27.9110  -27.9209   20.9397 C   0  0  0  0  0  0  0  0  0  0  0  0
  -21.8419  -15.9157   20.4287 C   0  0  0  0  0  0  0  0  0  0  0  0
  -26.1665  -29.4746   21.1947 C   0  0  0  0  0  0  0  0  0  0  0  0
  -23.5492  -30.2501   20.6196 C   0  0  0  0  0  0  0  0  0  0  0  0
  -25.9245  -30.6851   20.5453 C   0  0  0  0  0  0  0  0  0  0  0  0
  -29.2975  -24.2934   19.2614 C   0  0  0  0  0  0  0  0  0  0  0  0
  -27.1452  -12.2421   19.6648 C   0  0  0  0  0  0  0  0  0  0  0  0
  -28.4562  -12.3052   21.5504 C   0  0  0  0  0  0  0  0  0  0  0  0
  -30.4993  -22.7419   18.2696 C   0  0  0  0  0  0  0  0  0  0  0  0
  -31.6271  -24.9685   18.4058 C   0  0  0  0  0  0  0  0  0  0  0  0
  -21.8648  -21.3303   20.8099 C   0  0  0  0  0  0  0  0  0  0  0  0
  -20.1216  -21.0431   23.5304 C   0  0  0  0  0  0  0  0  0  0  0  0
  -18.6175  -18.9905   25.8044 C   0  0  0  0  0  0  0  0  0  0  0  0
  -29.4561  -17.5045   19.4646 C   0  0  0  0  0  0  0  0  0  0  0  0
  -24.2194  -25.8445   19.0939 C   0  0  0  0  0  0  0  0  0  0  0  0
  -20.0118  -19.7939   20.0604 C   0  0  0  0  0  0  0  0  0  0  0  0
  -21.1769  -18.9323   22.6381 C   0  0  0  0  0  0  0  0  0  0  0  0
  -24.6779  -24.9616   20.2500 C   0  0  0  0  0  0  0  0  0  0  0  0
  -26.6626  -19.4450   18.2285 C   0  0  0  0  0  0  0  0  0  0  0  0
  -23.5314  -24.0757   20.7139 C   0  0  0  0  0  0  0  0  0  0  0  0
  -27.2097  -20.8694   18.3377 C   0  0  0  0  0  0  0  0  0  0  0  0
  -27.1270  -18.5832   19.3988 C   0  0  0  0  0  0  0  0  0  0  0  0
  -29.1544  -19.9544   19.6870 C   0  0  0  0  0  0  0  0  0  0  0  0
  -23.0918  -23.1215   19.5962 C   0  0  1  0  0  0  0  0  0  0  0  0
  -20.4895  -20.8007   21.1023 C   0  0  1  0  0  0  0  0  0  0  0  0
  -28.7389  -20.8698   18.5211 C   0  0  2  0  0  0  0  0  0  0  0  0
  -31.6767  -13.5369   21.3557 C   0  0  0  0  0  0  0  0  0  0  0  0
  -28.4165   -9.7493   24.4437 C   0  0  0  0  0  0  0  0  0  0  0  0
  -17.3023  -19.0460   27.9409 C   0  0  0  0  0  0  0  0  0  0  0  0
  -26.5430  -11.0389   17.5531 C   0  0  0  0  0  0  0  0  0  0  0  0
  -25.3598  -10.3706   19.6257 C   0  0  0  0  0  0  0  0  0  0  0  0
  -22.6744  -21.6620   25.0829 C   0  0  0  0  0  0  0  0  0  0  0  0
  -21.5530  -20.7820   27.1411 C   0  0  0  0  0  0  0  0  0  0  0  0
  -20.6183  -22.7760   25.9694 C   0  0  0  0  0  0  0  0  0  0  0  0
  -16.2909  -17.6663   24.5424 C   0  0  0  0  0  0  0  0  0  0  0  0
  -30.3046  -13.9693   21.8657 C   0  0  0  0  0  0  0  0  0  0  0  0
  -29.6012  -15.0385   19.2302 C   0  0  0  0  0  0  0  0  0  0  0  0
  -28.7662  -11.7166   22.8880 C   0  0  0  0  0  0  0  0  0  0  0  0
  -28.0729  -10.3626   23.0955 C   0  0  0  0  0  0  0  0  0  0  0  0
  -24.1613  -13.2214   19.7902 C   0  0  0  0  0  0  0  0  0  0  0  0
  -24.8606  -12.6122   18.5690 C   0  0  0  0  0  0  0  0  0  0  0  0
  -23.0174  -14.1380   19.3732 C   0  0  0  0  0  0  0  0  0  1  0  0
  -20.3792  -20.4920   24.9120 C   0  0  1  0  0  0  0  0  0  0  0  0
  -17.2310  -19.0160   26.4221 C   0  0  2  0  0  0  0  0  0  0  0  0
  -25.9877  -11.5815   18.8942 C   0  0  0  0  0  0  0  0  0  0  0  0
  -21.3087  -21.4117   25.7531 C   0  0  0  0  0  0  0  0  0  0  0  0
  -28.5273  -23.2026   19.2927 N   0  0  0  0  0  0  0  0  0  0  0  0
  -27.4383  -11.7226   20.8780 N   0  0  0  0  0  0  0  0  0  0  0  0
  -29.2855  -22.2762   18.6820 N   0  0  0  0  0  0  0  0  0  0  0  0
  -20.5264  -20.2402   22.4546 N   0  0  0  0  0  0  0  0  0  0  0  0
  -28.5925  -18.6116   19.5067 N   0  0  0  0  0  0  0  0  0  0  0  0
  -31.3856  -21.9429   17.6384 N   0  0  0  0  0  0  0  0  0  0  0  0
  -31.5011  -26.2930   18.8465 N   0  0  0  0  0  0  0  0  0  0  0  0
  -21.8762  -22.4498   19.9999 N   0  0  0  0  0  0  0  0  0  0  0  0
  -19.0688  -20.2596   25.5096 N   0  0  0  0  0  0  0  0  0  0  0  0
  -28.8437  -16.2683   19.2982 N   0  0  0  0  0  0  0  0  0  0  0  0
  -16.4588  -17.8094   26.0116 N   0  3  0  0  0  0  0  0  0  0  0  0
  -32.6745  -24.6160   17.8123 O   0  0  0  0  0  0  0  0  0  0  0  0
  -22.8433  -20.7660   21.2853 O   0  0  0  0  0  0  0  0  0  0  0  0
  -19.5747  -22.1422   23.4100 O   0  0  0  0  0  0  0  0  0  0  0  0
  -19.2396  -17.9491   25.6068 O   0  0  0  0  0  0  0  0  0  0  0  0
  -30.6834  -17.6101   19.5626 O   0  0  0  0  0  0  0  0  0  0  0  0
  -27.4652  -29.0878   21.4801 O   0  0  0  0  0  0  0  0  0  0  0  0
  -22.4154  -14.6871   20.5447 O   0  0  0  0  0  0  0  0  0  1  0  0
  -22.2926  -30.6217   20.3421 F   0  0  0  0  0  0  0  0  0  0  0  0
  -26.9453  -31.4792   20.1942 F   0  0  0  0  0  0  0  0  0  0  0  0
  1  2  1  0  0  0  0
  1  5  2  0  0  0  0
  2  6  2  0  0  0  0
  3  8  2  0  0  0  0
  3 16  1  0  0  0  0
  4  9  1  0  0  0  0
  4 16  2  0  0  0  0
  5 18  1  0  0  0  0
  6 20  1  0  0  0  0
  7 10  2  0  0  0  0
  7 19  1  0  0  0  0
  8 24  1  0  0  0  0
  9 24  2  0  0  0  0
 10 25  1  0  0  0  0
 11 12  2  0  0  0  0
 11 26  1  0  0  0  0
 12 27  1  0  0  0  0
 13 21  1  0  0  0  0
 13 25  2  0  0  0  0
 14 22  2  0  0  0  0
 14 30  1  0  0  0  0
 15 27  2  0  0  0  0
 15 28  1  0  0  0  0
 16 29  1  0  0  0  0
 17 29  1  0  0  0  0
 17 32  2  0  0  0  0
 17 33  1  0  0  0  0
 18 20  2  0  0  0  0
 18 38  1  0  0  0  0
 19 21  2  0  0  0  0
 19 39  1  0  0  0  0
 20 47  1  0  0  0  0
 21 40  1  0  0  0  0
 22 23  1  0  0  0  0
 22 60  1  0  0  0  0
 23 31  2  0  0  0  0
 23 59  1  0  0  0  0
 24 86  1  0  0  0  0
 25 87  1  0  0  0  0
 26 28  2  0  0  0  0
 26 86  1  0  0  0  0
 27 88  1  0  0  0  0
 28 89  1  0  0  0  0
 29 70  2  0  0  0  0
 30 68  1  0  0  0  0
 30 71  2  0  0  0  0
 31 61  1  0  0  0  0
 31 71  1  0  0  0  0
 32 72  1  0  0  0  0
 32 75  1  0  0  0  0
 33 76  1  0  0  0  0
 33 81  2  0  0  0  0
 34 48  1  0  0  0  0
 34 77  1  0  0  0  0
 34 82  2  0  0  0  0
 35 66  1  0  0  0  0
 35 73  1  0  0  0  0
 35 83  2  0  0  0  0
 36 67  1  0  0  0  0
 36 78  1  0  0  0  0
 36 84  2  0  0  0  0
 37 74  1  0  0  0  0
 37 79  1  0  0  0  0
 37 85  2  0  0  0  0
 38 41  1  0  0  0  0
 39 48  1  0  0  0  0
 40 73  1  0  0  0  0
 41 43  1  0  0  0  0
 42 44  1  0  0  0  0
 42 45  1  0  0  0  0
 43 47  1  0  0  0  0
 44 49  1  0  0  0  0
 45 74  1  0  0  0  0
 46 49  1  0  0  0  0
 46 74  1  0  0  0  0
 47 77  1  0  0  0  0
 48 73  1  0  0  0  0
 49 72  1  0  0  0  0
 50 59  1  0  0  0  0
 51 62  1  0  0  0  0
 52 67  1  0  0  0  0
 53 68  1  0  0  0  0
 54 68  1  0  0  0  0
 55 69  1  0  0  0  0
 56 69  1  0  0  0  0
 57 69  1  0  0  0  0
 58 80  1  0  0  0  0
 60 79  1  0  0  0  0
 61 62  1  0  0  0  0
 63 64  1  0  0  0  0
 63 65  1  0  0  0  0
 64 68  1  0  0  0  0
 65 87  1  0  0  0  0
 66 69  1  0  0  0  0
 66 78  1  0  0  0  0
 67 80  1  0  0  0  0
 70 72  1  0  0  0  0
M  CHG  1  80   1
M  ISO  4  37 100  65 101  79 100  87 101
M  END
> <Batch ID>
0110

> <Smiles>
CCCc1nc(C(C)(C)CC[101CH2:1][101O:1]c2ccc3c(c2)CN(C(=O)C(NC(=O)C(C)NC)C(C)(C)C)C(C(=O)NC2CCCc4ccccc42)C3)cc(C[100NH:0][100C:0](=O)N2CCCC(n3nc(-c4ccc(Oc5ccc(F)cc5F)cc4)c(C(N)=O)c3N)C2)c1CC

> <Shape>
0.197

> <Color>
0.067

> <Negative vol penalty>
0.000

$$$$

  -OEChem-04052319583D

 84 92  0     1  0  0  0  0  0999 V2000
  -26.0310  -38.5127   24.1119 C   0  0  0  0  0  0  0  0  0  0  0  0
  -26.7876  -37.7528   23.2256 C   0  0  0  0  0  0  0  0  0  0  0  0
  -23.8685  -12.0418   20.5397 C   0  0  0  0  0  0  0  0  0  0  0  0
  -25.8875  -12.2298   21.8533 C   0  0  0  0  0  0  0  0  0  0  0  0
  -25.3154  -37.8856   25.1310 C   0  0  0  0  0  0  0  0  0  0  0  0
  -26.8299  -36.3654   23.3585 C   0  0  0  0  0  0  0  0  0  0  0  0
  -27.3629  -30.3948   19.4363 C   0  0  0  0  0  0  0  0  0  0  0  0
  -31.1416  -25.3178   20.2438 C   0  0  0  0  0  0  0  0  0  0  0  0
  -30.0393  -24.7021   18.1840 C   0  0  0  0  0  0  0  0  0  0  0  0
  -31.7611  -24.0688   20.2857 C   0  0  0  0  0  0  0  0  0  0  0  0
  -30.6588  -23.4531   18.2258 C   0  0  0  0  0  0  0  0  0  0  0  0
  -23.9728  -10.6514   20.5782 C   0  0  0  0  0  0  0  0  0  0  0  0
  -25.9918  -10.8393   21.8919 C   0  0  0  0  0  0  0  0  0  0  0  0
  -28.1164  -29.2248   19.3526 C   0  0  0  0  0  0  0  0  0  0  0  0
  -23.3135   -8.1639   22.7715 C   0  0  0  0  0  0  0  0  0  0  0  0
  -22.1575   -7.4346   23.0492 C   0  0  0  0  0  0  0  0  0  0  0  0
  -26.7766  -28.2439   21.1024 C   0  0  0  0  0  0  0  0  0  0  0  0
  -22.3510   -6.3156   20.9167 C   0  0  0  0  0  0  0  0  0  0  0  0
  -24.8259  -12.8310   21.1772 C   0  0  0  0  0  0  0  0  0  0  0  0
  -24.0452  -15.0955   22.0548 C   0  0  0  0  0  0  0  0  0  0  0  0
  -25.3412  -36.4890   25.2706 C   0  0  0  0  0  0  0  0  0  0  0  0
  -26.3158  -30.5023   20.3628 C   0  0  0  0  0  0  0  0  0  0  0  0
  -26.1151  -35.7191   24.3813 C   0  0  0  0  0  0  0  0  0  0  0  0
  -26.0097  -29.4154   21.1941 C   0  0  0  0  0  0  0  0  0  0  0  0
  -30.2806  -25.6345   19.1930 C   0  0  0  0  0  0  0  0  0  0  0  0
  -31.5198  -23.1364   19.2767 C   0  0  0  0  0  0  0  0  0  0  0  0
  -25.0344  -10.0502   21.2543 C   0  0  0  0  0  0  0  0  0  0  0  0
  -27.8252  -28.1501   20.1877 C   0  0  0  0  0  0  0  0  0  0  0  0
  -23.9883   -7.9692   21.5663 C   0  0  0  0  0  0  0  0  0  0  0  0
  -21.6762   -6.5104   22.1219 C   0  0  0  0  0  0  0  0  0  0  0  0
  -23.5071   -7.0450   20.6390 C   0  0  0  0  0  0  0  0  0  0  0  0
  -24.7190  -14.2674   21.1372 C   0  0  0  0  0  0  0  0  0  0  0  0
  -24.2394  -16.3680   21.5757 C   0  0  0  0  0  0  0  0  0  0  0  0
  -23.3095  -14.7458   23.2347 C   0  0  0  0  0  0  0  0  0  0  0  0
  -25.7114  -32.3774   22.8573 C   0  0  0  0  0  0  0  0  0  0  0  0
  -22.8577  -30.8354   22.8302 C   0  0  0  0  0  0  0  0  0  0  0  0
  -21.0697  -28.0650   21.9500 C   0  0  0  0  0  0  0  0  0  0  0  0
  -28.4708  -18.8235   18.1236 C   0  0  0  0  0  0  0  0  0  0  0  0
  -24.5893  -35.8600   26.4167 C   0  0  0  0  0  0  0  0  0  0  0  0
  -25.4952  -31.7615   20.4221 C   0  0  0  0  0  0  0  0  0  0  0  0
  -24.8827  -29.4728   22.1917 C   0  0  0  0  0  0  0  0  0  0  0  0
  -24.3873  -34.3550   26.2598 C   0  0  0  0  0  0  0  0  0  0  0  0
  -24.9662  -18.7637   17.4986 C   0  0  0  0  0  0  0  0  0  0  0  0
  -25.6896  -33.6828   25.8368 C   0  0  0  0  0  0  0  0  0  0  0  0
  -24.4447  -17.6793   18.4430 C   0  0  0  0  0  0  0  0  0  0  0  0
  -26.3390  -18.4068   16.9328 C   0  0  0  0  0  0  0  0  0  0  0  0
  -26.8385  -16.9946   18.8898 C   0  0  0  0  0  0  0  0  0  0  0  0
  -26.1663  -34.2097   24.4779 C   0  0  1  0  0  0  0  0  0  0  0  0
  -24.7819  -31.9474   21.7578 C   0  0  1  0  0  0  0  0  0  0  0  0
  -25.4816  -17.3357   19.5293 C   0  0  2  0  0  0  0  0  0  0  0  0
  -33.7160  -21.8849   19.3313 C   0  0  0  0  0  0  0  0  0  0  0  0
  -18.7671  -27.0781   22.0958 C   0  0  0  0  0  0  0  0  0  0  0  0
  -29.9120  -19.9972   21.7399 C   0  0  0  0  0  0  0  0  0  0  0  0
  -23.3339  -30.1646   25.7684 C   0  0  0  0  0  0  0  0  0  0  0  0
  -21.5370  -28.4302   25.5917 C   0  0  0  0  0  0  0  0  0  0  0  0
  -20.9881  -30.8348   25.2183 C   0  0  0  0  0  0  0  0  0  0  0  0
  -20.7991  -27.9672   19.0044 C   0  0  0  0  0  0  0  0  0  0  0  0
  -29.6138  -26.9778   19.1472 C   0  0  0  0  0  0  0  0  0  1  0  0
  -30.5600  -19.1303   19.4276 C   0  0  0  0  0  0  0  0  0  0  0  0
  -32.1839  -21.8018   19.3213 C   0  0  1  0  0  0  0  0  0  0  0  0
  -22.3146  -29.5803   23.4694 C   0  0  1  0  0  0  0  0  0  0  0  0
  -19.7267  -27.9103   21.2595 C   0  0  2  0  0  0  0  0  0  0  0  0
  -30.4433  -20.3384   20.3545 C   0  0  2  0  0  0  0  0  0  0  0  0
  -22.0660  -29.7518   24.9946 C   0  0  0  0  0  0  0  0  0  0  0  0
  -25.2979  -14.9558   20.1499 N   0  0  0  0  0  0  0  0  0  0  0  0
  -24.9883  -16.2300   20.4442 N   0  0  0  0  0  0  0  0  0  0  0  0
  -24.1135  -30.7279   22.2162 N   0  0  0  0  0  0  0  0  0  0  0  0
  -27.2759  -18.0933   18.0144 N   0  0  0  0  0  0  0  0  0  0  0  0
  -23.8409  -17.5803   22.0161 N   0  0  0  0  0  0  0  0  0  0  0  0
  -23.2085  -13.3918   23.5823 N   0  0  0  0  0  0  0  0  0  0  0  0
  -25.4028  -33.6074   23.4061 N   0  0  0  0  0  0  0  0  0  0  0  0
  -21.1251  -29.2159   22.7074 N   0  0  0  0  0  0  0  0  0  0  0  0
  -29.2994  -18.4666   19.1805 N   0  0  0  0  0  0  0  0  0  0  0  0
  -19.8975  -27.2438   19.9376 N   0  3  0  0  0  0  0  0  0  0  0  0
  -31.7737  -20.9701   20.5043 N   0  3  0  0  0  0  0  0  0  0  0  0
  -22.7443  -15.6072   23.9503 O   0  0  0  0  0  0  0  0  0  0  0  0
  -26.6391  -31.6465   23.1845 O   0  0  0  0  0  0  0  0  0  0  0  0
  -22.1889  -31.8713   22.8679 O   0  0  0  0  0  0  0  0  0  0  0  0
  -21.9775  -27.2449   21.8324 O   0  0  0  0  0  0  0  0  0  0  0  0
  -28.7742  -19.7301   17.3407 O   0  0  0  0  0  0  0  0  0  0  0  0
  -25.1364   -8.6934   21.2924 O   0  0  0  0  0  0  0  0  0  0  0  0
  -28.5596  -27.0072   20.1085 O   0  0  0  0  0  0  0  0  0  1  0  0
  -20.5669   -5.8090   22.3894 F   0  0  0  0  0  0  0  0  0  0  0  0
  -24.1518   -6.8527   19.4800 F   0  0  0  0  0  0  0  0  0  0  0  0
  1  2  1  0  0  0  0
  1  5  2  0  0  0  0
  2  6  2  0  0  0  0
  3 12  2  0  0  0  0
  3 19  1  0  0  0  0
  4 13  1  0  0  0  0
  4 19  2  0  0  0  0
  5 21  1  0  0  0  0
  6 23  1  0  0  0  0
  7 14  2  0  0  0  0
  7 22  1  0  0  0  0
  8 10  2  0  0  0  0
  8 25  1  0  0  0  0
  9 11  1  0  0  0  0
  9 25  2  0  0  0  0
 10 26  1  0  0  0  0
 11 26  2  0  0  0  0
 12 27  1  0  0  0  0
 13 27  2  0  0  0  0
 14 28  1  0  0  0  0
 15 16  2  0  0  0  0
 15 29  1  0  0  0  0
 16 30  1  0  0  0  0
 17 24  1  0  0  0  0
 17 28  2  0  0  0  0
 18 30  2  0  0  0  0
 18 31  1  0  0  0  0
 19 32  1  0  0  0  0
 20 32  1  0  0  0  0
 20 33  2  0  0  0  0
 20 34  1  0  0  0  0
 21 23  2  0  0  0  0
 21 39  1  0  0  0  0
 22 24  2  0  0  0  0
 22 40  1  0  0  0  0
 23 48  1  0  0  0  0
 24 41  1  0  0  0  0
 25 58  1  0  0  0  0
 26 60  1  0  0  0  0
 27 81  1  0  0  0  0
 28 82  1  0  0  0  0
 29 31  2  0  0  0  0
 29 81  1  0  0  0  0
 30 83  1  0  0  0  0
 31 84  1  0  0  0  0
 32 65  2  0  0  0  0
 33 66  1  0  0  0  0
 33 69  1  0  0  0  0
 34 70  1  0  0  0  0
 34 76  2  0  0  0  0
 35 49  1  0  0  0  0
 35 71  1  0  0  0  0
 35 77  2  0  0  0  0
 36 61  1  0  0  0  0
 36 67  1  0  0  0  0
 36 78  2  0  0  0  0
 37 62  1  0  0  0  0
 37 72  1  0  0  0  0
 37 79  2  0  0  0  0
 38 68  1  0  0  0  0
 38 73  1  0  0  0  0
 38 80  2  0  0  0  0
 39 42  1  0  0  0  0
 40 49  1  0  0  0  0
 41 67  1  0  0  0  0
 42 44  1  0  0  0  0
 43 45  1  0  0  0  0
 43 46  1  0  0  0  0
 44 48  1  0  0  0  0
 45 50  1  0  0  0  0
 46 68  1  0  0  0  0
 47 50  1  0  0  0  0
 47 68  1  0  0  0  0
 48 71  1  0  0  0  0
 49 67  1  0  0  0  0
 50 66  1  0  0  0  0
 51 60  1  0  0  0  0
 52 62  1  0  0  0  0
 53 63  1  0  0  0  0
 54 64  1  0  0  0  0
 55 64  1  0  0  0  0
 56 64  1  0  0  0  0
 57 74  1  0  0  0  0
 58 82  1  0  0  0  0
 59 63  1  0  0  0  0
 59 73  1  0  0  0  0
 60 75  1  0  0  0  0
 61 64  1  0  0  0  0
 61 72  1  0  0  0  0
 62 74  1  0  0  0  0
 63 75  1  0  0  0  0
 65 66  1  0  0  0  0
M  CHG  2  74   1  75   1
M  ISO  4  38 100  58 101  73 100  82 101
M  END
> <Batch ID>
0110

> <Smiles>
CNC(C)C(=O)NC(C(=O)N1Cc2cc([101O:1][101CH2:1]c3ccc(C(C)NC(C)C[100NH:0][100C:0](=O)N4CCCC(n5nc(-c6ccc(Oc7ccc(F)cc7F)cc6)c(C(N)=O)c5N)C4)cc3)ccc2CC1C(=O)NC1CCCc2ccccc21)C(C)(C)C

> <Shape>
0.307

> <Color>
0.075

> <Negative vol penalty>
0.000

$$$$

  -OEChem-04052319583D

 84 92  0     1  0  0  0  0  0999 V2000
  -17.2482  -31.7828   23.3092 C   0  0  0  0  0  0  0  0  0  0  0  0
  -18.5385  -32.2883   23.1862 C   0  0  0  0  0  0  0  0  0  0  0  0
  -28.8575  -14.1173   19.7103 C   0  0  0  0  0  0  0  0  0  0  0  0
  -26.8096  -15.3989   19.7340 C   0  0  0  0  0  0  0  0  0  0  0  0
  -17.0534  -30.4233   23.5497 C   0  0  0  0  0  0  0  0  0  0  0  0
  -19.6348  -31.4348   23.3047 C   0  0  0  0  0  0  0  0  0  0  0  0
  -26.2833  -30.5064   20.8044 C   0  0  0  0  0  0  0  0  0  0  0  0
  -28.1418  -12.9674   20.0436 C   0  0  0  0  0  0  0  0  0  0  0  0
  -26.0938  -14.2490   20.0672 C   0  0  0  0  0  0  0  0  0  0  0  0
  -27.5883  -30.3194   21.2581 C   0  0  0  0  0  0  0  0  0  0  0  0
  -25.4966  -12.4007   22.8345 C   0  0  0  0  0  0  0  0  0  0  0  0
  -24.5427  -12.5019   23.8471 C   0  0  0  0  0  0  0  0  0  0  0  0
  -27.1288  -27.9753   21.5949 C   0  0  0  0  0  0  0  0  0  0  0  0
  -30.4967  -26.8398   17.4852 C   0  0  0  0  0  0  0  0  0  0  0  0
  -22.8211  -11.8255   22.2929 C   0  0  0  0  0  0  0  0  0  0  0  0
  -28.1914  -15.3331   19.5555 C   0  0  0  0  0  0  0  0  0  0  0  0
  -29.2154  -17.0011   17.9194 C   0  0  0  0  0  0  0  0  0  0  0  0
  -18.1476  -29.5510   23.6617 C   0  0  0  0  0  0  0  0  0  0  0  0
  -25.3865  -29.4296   20.7528 C   0  0  0  0  0  0  0  0  0  0  0  0
  -19.4545  -30.0626   23.5483 C   0  0  0  0  0  0  0  0  0  0  0  0
  -25.8137  -28.1508   21.1378 C   0  0  0  0  0  0  0  0  0  0  0  0
  -29.8344  -25.7662   16.9003 C   0  0  0  0  0  0  0  0  0  0  0  0
  -29.7420  -24.5583   17.5826 C   0  0  0  0  0  0  0  0  0  0  0  0
  -26.7599  -13.0332   20.2220 C   0  0  0  0  0  0  0  0  0  0  0  0
  -28.0103  -29.0543   21.6561 C   0  0  0  0  0  0  0  0  0  0  0  0
  -25.1128  -12.0120   21.5510 C   0  0  0  0  0  0  0  0  0  0  0  0
  -23.2050  -12.2142   23.5763 C   0  0  0  0  0  0  0  0  0  0  0  0
  -23.7751  -11.7244   21.2802 C   0  0  0  0  0  0  0  0  0  0  0  0
  -28.9303  -16.5214   19.2118 C   0  0  0  0  0  0  0  0  0  0  0  0
  -31.0450  -26.6555   18.7443 C   0  0  0  0  0  0  0  0  0  0  0  0
  -30.3243  -24.4760   18.8372 C   0  0  0  0  0  0  0  0  0  0  0  0
  -29.9363  -18.1508   18.1311 C   0  0  0  0  0  0  0  0  0  0  0  0
  -28.8601  -16.4562   16.6417 C   0  0  0  0  0  0  0  0  0  0  0  0
  -22.6133  -28.7511   22.1502 C   0  0  0  0  0  0  0  0  0  0  0  0
  -22.6775  -26.1955   20.1536 C   0  0  0  0  0  0  0  0  0  0  0  0
  -24.5312  -24.0371   18.2689 C   0  0  0  0  0  0  0  0  0  0  0  0
  -30.7525  -22.9650   20.8069 C   0  0  0  0  0  0  0  0  0  0  0  0
  -17.8887  -28.0974   23.9690 C   0  0  0  0  0  0  0  0  0  0  0  0
  -23.9902  -29.6427   20.2357 C   0  0  0  0  0  0  0  0  0  0  0  0
  -24.8959  -26.9579   21.0823 C   0  0  0  0  0  0  0  0  0  0  0  0
  -19.0927  -27.1959   23.7086 C   0  0  0  0  0  0  0  0  0  0  0  0
  -31.9976  -20.0140   22.3621 C   0  0  0  0  0  0  0  0  0  0  0  0
  -20.3579  -27.8114   24.2978 C   0  0  0  0  0  0  0  0  0  0  0  0
  -31.3340  -18.8818   21.5749 C   0  0  0  0  0  0  0  0  0  0  0  0
  -31.0608  -21.2080   22.5369 C   0  0  0  0  0  0  0  0  0  0  0  0
  -29.8095  -20.5910   20.5065 C   0  0  0  0  0  0  0  0  0  0  0  0
  -20.6684  -29.1643   23.6460 C   0  0  1  0  0  0  0  0  0  0  0  0
  -23.0079  -28.5765   20.7110 C   0  0  1  0  0  0  0  0  0  0  0  0
  -30.7368  -19.3921   20.2488 C   0  0  2  0  0  0  0  0  0  0  0  0
  -29.2333  -25.9354   15.5440 C   0  0  0  0  0  0  0  0  0  0  0  0
  -29.0325  -23.3953   16.9713 C   0  0  0  0  0  0  0  0  0  0  0  0
  -30.3476  -26.5729   23.4920 C   0  0  0  0  0  0  0  0  0  0  0  0
  -25.0103  -22.1849   16.6450 C   0  0  0  0  0  0  0  0  0  0  0  0
  -22.2598  -24.4277   22.6052 C   0  0  0  0  0  0  0  0  0  0  0  0
  -22.9861  -22.4667   21.2287 C   0  0  0  0  0  0  0  0  0  0  0  0
  -20.9421  -23.7470   20.5916 C   0  0  0  0  0  0  0  0  0  0  0  0
  -24.4355  -25.8825   15.9571 C   0  0  0  0  0  0  0  0  0  0  0  0
  -31.7718  -27.7973   19.4088 C   0  0  0  0  0  0  0  0  0  0  0  0
  -31.0698  -27.2827   22.3539 C   0  0  0  0  0  0  0  0  0  0  0  0
  -30.8675  -28.6910   20.2699 C   0  0  0  0  0  0  0  0  0  0  0  0
  -23.2182  -24.7884   20.2351 C   0  0  1  0  0  0  0  0  0  0  0  0
  -24.3647  -23.5477   16.8416 C   0  0  2  0  0  0  0  0  0  0  0  0
  -30.0971  -27.9492   21.3734 C   0  0  2  0  0  0  0  0  0  1  0  0
  -22.3685  -23.8801   21.1682 C   0  0  0  0  0  0  0  0  0  0  0  0
  -29.4296  -17.3024   20.1735 N   0  0  0  0  0  0  0  0  0  0  0  0
  -30.9756  -25.4972   19.4378 N   0  0  0  0  0  0  0  0  0  0  0  0
  -30.0357  -18.2844   19.4848 N   0  0  0  0  0  0  0  0  0  0  0  0
  -23.5384  -27.2185   20.5754 N   0  0  0  0  0  0  0  0  0  0  0  0
  -30.5371  -21.6393   21.2390 N   0  0  0  0  0  0  0  0  0  0  0  0
  -30.4887  -19.0503   17.2896 N   0  0  0  0  0  0  0  0  0  0  0  0
  -28.1172  -15.2683   16.6051 N   0  0  0  0  0  0  0  0  0  0  0  0
  -30.2372  -23.2505   19.5430 N   0  0  0  0  0  0  0  0  0  0  0  0
  -21.2625  -28.9718   22.3405 N   0  0  0  0  0  0  0  0  0  0  0  0
  -23.3158  -24.3083   18.8609 N   0  0  0  0  0  0  0  0  0  0  0  0
  -24.9917  -24.5067   15.8887 N   0  3  0  0  0  0  0  0  0  0  0  0
  -29.2058  -16.9975   15.5642 O   0  0  0  0  0  0  0  0  0  0  0  0
  -23.4706  -28.6887   23.0236 O   0  0  0  0  0  0  0  0  0  0  0  0
  -21.5359  -26.3807   19.7245 O   0  0  0  0  0  0  0  0  0  0  0  0
  -25.6294  -24.1625   18.8062 O   0  0  0  0  0  0  0  0  0  0  0  0
  -31.3740  -23.7789   21.4950 O   0  0  0  0  0  0  0  0  0  0  0  0
  -26.0612  -11.9113   20.5470 O   0  0  0  0  0  0  0  0  0  0  0  0
  -29.2834  -28.8691   22.1000 O   0  0  0  0  0  0  0  0  0  1  0  0
  -22.2893  -12.3099   24.5492 F   0  0  0  0  0  0  0  0  0  0  0  0
  -23.4005  -11.3493   20.0495 F   0  0  0  0  0  0  0  0  0  0  0  0
  1  2  1  0  0  0  0
  1  5  2  0  0  0  0
  2  6  2  0  0  0  0
  3  8  2  0  0  0  0
  3 16  1  0  0  0  0
  4  9  1  0  0  0  0
  4 16  2  0  0  0  0
  5 18  1  0  0  0  0
  6 20  1  0  0  0  0
  7 10  2  0  0  0  0
  7 19  1  0  0  0  0
  8 24  1  0  0  0  0
  9 24  2  0  0  0  0
 10 25  1  0  0  0  0
 11 12  2  0  0  0  0
 11 26  1  0  0  0  0
 12 27  1  0  0  0  0
 13 21  1  0  0  0  0
 13 25  2  0  0  0  0
 14 22  2  0  0  0  0
 14 30  1  0  0  0  0
 15 27  2  0  0  0  0
 15 28  1  0  0  0  0
 16 29  1  0  0  0  0
 17 29  1  0  0  0  0
 17 32  2  0  0  0  0
 17 33  1  0  0  0  0
 18 20  2  0  0  0  0
 18 38  1  0  0  0  0
 19 21  2  0  0  0  0
 19 39  1  0  0  0  0
 20 47  1  0  0  0  0
 21 40  1  0  0  0  0
 22 23  1  0  0  0  0
 22 50  1  0  0  0  0
 23 31  2  0  0  0  0
 23 51  1  0  0  0  0
 24 81  1  0  0  0  0
 25 82  1  0  0  0  0
 26 28  2  0  0  0  0
 26 81  1  0  0  0  0
 27 83  1  0  0  0  0
 28 84  1  0  0  0  0
 29 65  2  0  0  0  0
 30 58  1  0  0  0  0
 30 66  2  0  0  0  0
 31 66  1  0  0  0  0
 31 72  1  0  0  0  0
 32 67  1  0  0  0  0
 32 70  1  0  0  0  0
 33 71  1  0  0  0  0
 33 76  2  0  0  0  0
 34 48  1  0  0  0  0
 34 73  1  0  0  0  0
 34 77  2  0  0  0  0
 35 61  1  0  0  0  0
 35 68  1  0  0  0  0
 35 78  2  0  0  0  0
 36 62  1  0  0  0  0
 36 74  1  0  0  0  0
 36 79  2  0  0  0  0
 37 69  1  0  0  0  0
 37 72  1  0  0  0  0
 37 80  2  0  0  0  0
 38 41  1  0  0  0  0
 39 48  1  0  0  0  0
 40 68  1  0  0  0  0
 41 43  1  0  0  0  0
 42 44  1  0  0  0  0
 42 45  1  0  0  0  0
 43 47  1  0  0  0  0
 44 49  1  0  0  0  0
 45 69  1  0  0  0  0
 46 49  1  0  0  0  0
 46 69  1  0  0  0  0
 47 73  1  0  0  0  0
 48 68  1  0  0  0  0
 49 67  1  0  0  0  0
 52 59  1  0  0  0  0
 53 62  1  0  0  0  0
 54 64  1  0  0  0  0
 55 64  1  0  0  0  0
 56 64  1  0  0  0  0
 57 75  1  0  0  0  0
 58 60  1  0  0  0  0
 59 63  1  0  0  0  0
 60 63  1  0  0  0  0
 61 64  1  0  0  0  0
 61 74  1  0  0  0  0
 62 75  1  0  0  0  0
 63 82  1  0  0  0  0
 65 67  1  0  0  0  0
M  CHG  1  75   1
M  ISO  4  37 100  63 101  72 100  82 101
M  END
> <Batch ID>
0110

> <Smiles>
CC[101CH:1](CCc1cc(C)c(C)c([100NH:0][100C:0](=O)N2CCCC(n3nc(-c4ccc(Oc5ccc(F)cc5F)cc4)c(C(N)=O)c3N)C2)n1)[101O:1]c1ccc2c(c1)CN(C(=O)C(NC(=O)C(C)NC)C(C)(C)C)C(C(=O)NC1CCCc3ccccc31)C2

> <Shape>
0.260

> <Color>
0.085

> <Negative vol penalty>
0.000

$$$$

  -OEChem-04052319583D

 85 93  0     1  0  0  0  0  0999 V2000
  -20.1669  -23.6302   23.4001 C   0  0  0  0  0  0  0  0  0  0  0  0
  -21.4954  -23.9163   23.1022 C   0  0  0  0  0  0  0  0  0  0  0  0
  -27.5976  -12.5865   18.8767 C   0  0  0  0  0  0  0  0  0  0  0  0
  -28.2115  -13.7879   20.8809 C   0  0  0  0  0  0  0  0  0  0  0  0
  -19.1959  -24.6226   23.2729 C   0  0  0  0  0  0  0  0  0  0  0  0
  -21.8534  -25.1947   22.6759 C   0  0  0  0  0  0  0  0  0  0  0  0
  -26.0300  -26.9090   24.9699 C   0  0  0  0  0  0  0  0  0  0  0  0
  -28.8846  -12.0540   18.8017 C   0  0  0  0  0  0  0  0  0  0  0  0
  -29.4985  -13.2553   20.8060 C   0  0  0  0  0  0  0  0  0  0  0  0
  -27.2534  -26.4216   24.5123 C   0  0  0  0  0  0  0  0  0  0  0  0
  -32.1153  -10.6612   17.8815 C   0  0  0  0  0  0  0  0  0  0  0  0
  -27.8066  -22.7799   21.0135 C   0  0  0  0  0  0  0  0  0  0  0  0
  -32.7459  -10.6579   16.6374 C   0  0  0  0  0  0  0  0  0  0  0  0
  -26.7317  -21.9284   21.2430 C   0  0  0  0  0  0  0  0  0  0  0  0
  -27.5732  -28.4420   23.2337 C   0  0  0  0  0  0  0  0  0  0  0  0
  -32.5788  -13.0664   16.5464 C   0  0  0  0  0  0  0  0  0  0  0  0
  -27.2610  -13.4535   19.9163 C   0  0  0  0  0  0  0  0  0  0  0  0
  -24.8219  -13.4553   20.6633 C   0  0  0  0  0  0  0  0  0  0  0  0
  -19.5437  -25.9165   22.8541 C   0  0  0  0  0  0  0  0  0  0  0  0
  -25.5631  -28.1640   24.5536 C   0  0  0  0  0  0  0  0  0  0  0  0
  -20.8859  -26.2050   22.5417 C   0  0  0  0  0  0  0  0  0  0  0  0
  -26.3447  -28.9441   23.6895 C   0  0  0  0  0  0  0  0  0  0  0  0
  -29.8350  -12.3883   19.7663 C   0  0  0  0  0  0  0  0  0  0  0  0
  -28.0239  -27.1868   23.6417 C   0  0  0  0  0  0  0  0  0  0  0  0
  -31.7163  -11.8670   18.4581 C   0  0  0  0  0  0  0  0  0  0  0  0
  -27.5784  -24.0648   20.5337 C   0  0  0  0  0  0  0  0  0  0  0  0
  -32.9778  -11.8605   15.9699 C   0  0  0  0  0  0  0  0  0  0  0  0
  -31.9481  -13.0696   17.7905 C   0  0  0  0  0  0  0  0  0  0  0  0
  -25.9319  -14.0044   19.9939 C   0  0  0  0  0  0  0  0  0  0  0  0
  -25.4581  -22.4060   20.9790 C   0  0  0  0  0  0  0  0  0  0  0  0
  -26.2669  -24.4467   20.3013 C   0  0  0  0  0  0  0  0  0  0  0  0
  -23.8066  -14.3524   20.4376 C   0  0  0  0  0  0  0  0  0  0  0  0
  -24.7178  -12.2428   21.4214 C   0  0  0  0  0  0  0  0  0  0  0  0
  -23.0290  -29.1896   22.9319 C   0  0  0  0  0  0  0  0  0  0  0  0
  -24.2024  -32.1125   23.7078 C   0  0  0  0  0  0  0  0  0  0  0  0
  -26.8972  -34.0120   24.5890 C   0  0  0  0  0  0  0  0  0  0  0  0
  -23.7421  -20.2058   19.1788 C   0  0  0  0  0  0  0  0  0  0  0  0
  -18.4517  -26.9432   22.6862 C   0  0  0  0  0  0  0  0  0  0  0  0
  -24.2537  -28.6869   25.0774 C   0  0  0  0  0  0  0  0  0  0  0  0
  -25.8979  -30.3066   23.2286 C   0  0  0  0  0  0  0  0  0  0  0  0
  -18.9719  -28.3750   22.5881 C   0  0  0  0  0  0  0  0  0  0  0  0
  -22.3064  -17.5841   17.2444 C   0  0  0  0  0  0  0  0  0  0  0  0
  -20.1463  -28.4511   21.6177 C   0  0  0  0  0  0  0  0  0  0  0  0
  -22.9726  -16.3198   17.7901 C   0  0  0  0  0  0  0  0  0  0  0  0
  -23.2737  -18.7655   17.2186 C   0  0  0  0  0  0  0  0  0  0  0  0
  -24.6009  -17.7886   19.0510 C   0  0  0  0  0  0  0  0  0  0  0  0
  -21.3174  -27.5866   22.1001 C   0  0  1  0  0  0  0  0  0  0  0  0
  -23.6372  -29.7579   24.1828 C   0  0  1  0  0  0  0  0  0  0  0  0
  -23.6490  -16.5843   19.1487 C   0  0  2  0  0  0  0  0  0  0  0  0
  -27.5526  -36.3758   25.1185 C   0  0  0  0  0  0  0  0  0  0  0  0
  -24.1005  -32.8035   20.7376 C   0  0  0  0  0  0  0  0  0  0  0  0
  -25.6129  -34.7424   21.2081 C   0  0  0  0  0  0  0  0  0  0  0  0
  -23.3544  -34.6402   22.2622 C   0  0  0  0  0  0  0  0  0  0  0  0
  -27.7586  -33.2830   27.3250 C   0  0  0  0  0  0  0  0  0  0  0  0
  -24.2811  -21.5194   21.2143 C   0  0  0  0  0  0  0  0  0  0  0  0
  -30.5137  -26.0685   21.2623 C   0  0  0  0  0  0  0  0  0  0  0  0
  -29.6404  -27.1388   21.8980 C   0  0  0  0  0  0  0  0  0  1  0  0
  -29.7799  -24.7438   21.1238 C   0  0  0  0  0  0  0  0  0  0  0  0
  -25.9677  -25.8161   19.7850 C   0  0  0  0  0  0  0  0  0  0  0  0
  -25.1713  -33.0791   23.0707 C   0  0  1  0  0  0  0  0  0  0  0  0
  -27.0867  -35.0440   25.6860 C   0  0  2  0  0  0  0  0  0  0  0  0
  -24.5676  -33.7899   21.8266 C   0  0  0  0  0  0  0  0  0  0  0  0
  -25.6486  -15.1607   19.3882 N   0  0  0  0  0  0  0  0  0  0  0  0
  -25.1971  -23.6476   20.5124 N   0  0  0  0  0  0  0  0  0  0  0  0
  -24.3490  -15.3454   19.6761 N   0  0  0  0  0  0  0  0  0  0  0  0
  -24.6074  -30.7714   23.7636 N   0  0  0  0  0  0  0  0  0  0  0  0
  -23.8796  -18.9637   18.5375 N   0  0  0  0  0  0  0  0  0  0  0  0
  -22.5117  -14.3807   20.8181 N   0  0  0  0  0  0  0  0  0  0  0  0
  -25.8575  -11.4379   21.5540 N   0  0  0  0  0  0  0  0  0  0  0  0
  -22.0361  -28.2566   23.1626 N   0  0  0  0  0  0  0  0  0  0  0  0
  -25.5973  -33.9876   24.1297 N   0  0  0  0  0  0  0  0  0  0  0  0
  -24.3412  -20.3071   20.4285 N   0  0  0  0  0  0  0  0  0  0  0  0
  -28.1005  -34.5725   26.6713 N   0  3  0  0  0  0  0  0  0  0  0  0
  -23.6418  -11.8757   21.9514 O   0  0  0  0  0  0  0  0  0  0  0  0
  -23.4297  -29.5705   21.8383 O   0  0  0  0  0  0  0  0  0  0  0  0
  -23.1289  -32.5332   24.1464 O   0  0  0  0  0  0  0  0  0  0  0  0
  -27.8118  -33.3014   24.1778 O   0  0  0  0  0  0  0  0  0  0  0  0
  -23.1264  -21.1525   18.6774 O   0  0  0  0  0  0  0  0  0  0  0  0
  -31.0909  -11.8687   19.6936 O   0  0  0  0  0  0  0  0  0  0  0  0
  -29.2181  -26.7132   23.1930 O   0  0  0  0  0  0  0  0  0  1  0  0
  -28.6310  -24.9122   20.3043 O   0  0  0  0  0  0  0  0  0  0  0  0
  -33.5848  -11.8574   14.7759 F   0  0  0  0  0  0  0  0  0  0  0  0
  -31.5681  -14.2314   18.3399 F   0  0  0  0  0  0  0  0  0  0  0  0
  -26.3975  -26.7640   20.6576 F   0  0  0  0  0  0  0  0  0  0  0  0
  -24.6286  -25.9958   19.6472 F   0  0  0  0  0  0  0  0  0  0  0  0
  1  2  1  0  0  0  0
  1  5  2  0  0  0  0
  2  6  2  0  0  0  0
  3  8  2  0  0  0  0
  3 17  1  0  0  0  0
  4  9  1  0  0  0  0
  4 17  2  0  0  0  0
  5 19  1  0  0  0  0
  6 21  1  0  0  0  0
  7 10  2  0  0  0  0
  7 20  1  0  0  0  0
  8 23  1  0  0  0  0
  9 23  2  0  0  0  0
 10 24  1  0  0  0  0
 11 13  2  0  0  0  0
 11 25  1  0  0  0  0
 12 14  2  0  0  0  0
 12 26  1  0  0  0  0
 13 27  1  0  0  0  0
 14 30  1  0  0  0  0
 15 22  1  0  0  0  0
 15 24  2  0  0  0  0
 16 27  2  0  0  0  0
 16 28  1  0  0  0  0
 17 29  1  0  0  0  0
 18 29  1  0  0  0  0
 18 32  2  0  0  0  0
 18 33  1  0  0  0  0
 19 21  2  0  0  0  0
 19 38  1  0  0  0  0
 20 22  2  0  0  0  0
 20 39  1  0  0  0  0
 21 47  1  0  0  0  0
 22 40  1  0  0  0  0
 23 79  1  0  0  0  0
 24 80  1  0  0  0  0
 25 28  2  0  0  0  0
 25 79  1  0  0  0  0
 26 31  2  0  0  0  0
 26 81  1  0  0  0  0
 27 82  1  0  0  0  0
 28 83  1  0  0  0  0
 29 63  2  0  0  0  0
 30 55  1  0  0  0  0
 30 64  2  0  0  0  0
 31 59  1  0  0  0  0
 31 64  1  0  0  0  0
 32 65  1  0  0  0  0
 32 68  1  0  0  0  0
 33 69  1  0  0  0  0
 33 74  2  0  0  0  0
 34 48  1  0  0  0  0
 34 70  1  0  0  0  0
 34 75  2  0  0  0  0
 35 60  1  0  0  0  0
 35 66  1  0  0  0  0
 35 76  2  0  0  0  0
 36 61  1  0  0  0  0
 36 71  1  0  0  0  0
 36 77  2  0  0  0  0
 37 67  1  0  0  0  0
 37 72  1  0  0  0  0
 37 78  2  0  0  0  0
 38 41  1  0  0  0  0
 39 48  1  0  0  0  0
 40 66  1  0  0  0  0
 41 43  1  0  0  0  0
 42 44  1  0  0  0  0
 42 45  1  0  0  0  0
 43 47  1  0  0  0  0
 44 49  1  0  0  0  0
 45 67  1  0  0  0  0
 46 49  1  0  0  0  0
 46 67  1  0  0  0  0
 47 70  1  0  0  0  0
 48 66  1  0  0  0  0
 49 65  1  0  0  0  0
 50 61  1  0  0  0  0
 51 62  1  0  0  0  0
 52 62  1  0  0  0  0
 53 62  1  0  0  0  0
 54 73  1  0  0  0  0
 55 72  1  0  0  0  0
 56 57  1  0  0  0  0
 56 58  1  0  0  0  0
 57 80  1  0  0  0  0
 58 81  1  0  0  0  0
 59 84  1  0  0  0  0
 59 85  1  0  0  0  0
 60 62  1  0  0  0  0
 60 71  1  0  0  0  0
 61 73  1  0  0  0  0
 63 65  1  0  0  0  0
M  CHG  1  73   1
M  ISO  4  37 100  57 101  72 100  80 101
M  END
> <Batch ID>
0110

> <Smiles>
CNC(C)C(=O)NC(C(=O)N1Cc2cc([101O:1][101CH2:1]CCOc3ccc(C[100NH:0][100C:0](=O)N4CCCC(n5nc(-c6ccc(Oc7ccc(F)cc7F)cc6)c(C(N)=O)c5N)C4)nc3C(F)F)ccc2CC1C(=O)NC1CCCc2ccccc21)C(C)(C)C

> <Shape>
0.242

> <Color>
0.087

> <Negative vol penalty>
0.000

$$$$

  -OEChem-04052319583D

 87 95  0     1  0  0  0  0  0999 V2000
  -14.6236  -26.0356   26.4764 C   0  0  0  0  0  0  0  0  0  0  0  0
  -15.0367  -25.1261   25.5081 C   0  0  0  0  0  0  0  0  0  0  0  0
  -23.0752   -9.8731   19.9433 C   0  0  0  0  0  0  0  0  0  0  0  0
  -23.8338   -9.8843   22.2371 C   0  0  0  0  0  0  0  0  0  0  0  0
  -15.4652  -27.0814   26.8529 C   0  0  0  0  0  0  0  0  0  0  0  0
  -16.2912  -25.2626   24.9149 C   0  0  0  0  0  0  0  0  0  0  0  0
  -21.6287  -21.3461   22.1784 C   0  0  0  0  0  0  0  0  0  0  0  0
  -22.3294   -8.7217   20.1956 C   0  0  0  0  0  0  0  0  0  0  0  0
  -23.0879   -8.7329   22.4894 C   0  0  0  0  0  0  0  0  0  0  0  0
  -22.4056  -21.2404   21.0255 C   0  0  0  0  0  0  0  0  0  0  0  0
  -19.3791   -7.9331   21.6470 C   0  0  0  0  0  0  0  0  0  0  0  0
  -18.0724   -7.8878   21.1610 C   0  0  0  0  0  0  0  0  0  0  0  0
  -23.8067  -23.0397   21.8120 C   0  0  0  0  0  0  0  0  0  0  0  0
  -18.6299   -5.9407   19.8437 C   0  0  0  0  0  0  0  0  0  0  0  0
  -27.1073  -19.0836   21.1539 C   0  0  0  0  0  0  0  0  0  0  0  0
  -23.8275  -10.4543   20.9641 C   0  0  0  0  0  0  0  0  0  0  0  0
  -24.1733  -12.9787   20.8383 C   0  0  0  0  0  0  0  0  0  0  0  0
  -16.7346  -27.2252   26.2711 C   0  0  0  0  0  0  0  0  0  0  0  0
  -21.9289  -22.3083   23.1532 C   0  0  0  0  0  0  0  0  0  0  0  0
  -17.1501  -26.3121   25.2831 C   0  0  0  0  0  0  0  0  0  0  0  0
  -23.0336  -23.1539   22.9775 C   0  0  0  0  0  0  0  0  0  0  0  0
  -22.3357   -8.1516   21.4686 C   0  0  0  0  0  0  0  0  0  0  0  0
  -23.4931  -22.0892   20.8409 C   0  0  0  0  0  0  0  0  0  0  0  0
  -20.3112   -6.9823   21.2312 C   0  0  0  0  0  0  0  0  0  0  0  0
  -17.6978   -6.8916   20.2594 C   0  0  0  0  0  0  0  0  0  0  0  0
  -19.9366   -5.9861   20.3296 C   0  0  0  0  0  0  0  0  0  0  0  0
  -24.5986  -11.6434   20.7040 C   0  0  0  0  0  0  0  0  0  0  0  0
  -27.2200  -18.3633   19.9496 C   0  0  0  0  0  0  0  0  0  0  0  0
  -28.3710  -19.0539   21.6912 C   0  0  0  0  0  0  0  0  0  0  0  0
  -25.2669  -13.7256   20.4740 C   0  0  0  0  0  0  0  0  0  0  0  0
  -22.9034  -13.4975   21.2553 C   0  0  0  0  0  0  0  0  0  0  0  0
  -20.4040  -24.8155   24.3748 C   0  0  0  0  0  0  0  0  0  0  0  0
  -22.9507  -24.8942   26.3824 C   0  0  0  0  0  0  0  0  0  0  0  0
  -26.2176  -24.0873   26.9510 C   0  0  0  0  0  0  0  0  0  0  0  0
  -30.7521  -14.7365   20.6632 C   0  0  0  0  0  0  0  0  0  0  0  0
  -17.5902  -28.3993   26.6763 C   0  0  0  0  0  0  0  0  0  0  0  0
  -21.0971  -22.3917   24.4037 C   0  0  0  0  0  0  0  0  0  0  0  0
  -23.4102  -24.1901   24.0036 C   0  0  0  0  0  0  0  0  0  0  0  0
  -19.0545  -28.2550   26.2696 C   0  0  0  0  0  0  0  0  0  0  0  0
  -29.6122  -12.3481   18.2814 C   0  0  0  0  0  0  0  0  0  0  0  0
  -19.1628  -27.7891   24.8212 C   0  0  0  0  0  0  0  0  0  0  0  0
  -28.1740  -12.0577   18.7141 C   0  0  0  0  0  0  0  0  0  0  0  0
  -30.5289  -12.5704   19.4823 C   0  0  0  0  0  0  0  0  0  0  0  0
  -28.6275  -13.3077   20.8660 C   0  0  0  0  0  0  0  0  0  0  0  0
  -18.5137  -26.4124   24.6345 C   0  0  1  0  0  0  0  0  0  0  0  0
  -21.1860  -23.7509   25.0908 C   0  0  1  0  0  0  0  0  0  0  0  0
  -27.6538  -13.1318   19.6882 C   0  0  2  0  0  0  0  0  0  0  0  0
  -28.2433  -19.0388   24.2086 C   0  0  0  0  0  0  0  0  0  0  0  0
  -28.8127  -21.1698   22.9881 C   0  0  0  0  0  0  0  0  0  0  0  0
  -28.0335  -24.3174   28.6677 C   0  0  0  0  0  0  0  0  0  0  0  0
  -24.9383  -18.6665   16.8214 C   0  0  0  0  0  0  0  0  0  0  0  0
  -25.7954  -21.6284   17.2676 C   0  0  0  0  0  0  0  0  0  0  0  0
  -23.3270  -27.8163   25.5892 C   0  0  0  0  0  0  0  0  0  0  0  0
  -25.6342  -27.7090   26.5553 C   0  0  0  0  0  0  0  0  0  0  0  0
  -23.6508  -27.3463   28.0240 C   0  0  0  0  0  0  0  0  0  0  0  0
  -26.4655  -21.1535   27.2510 C   0  0  0  0  0  0  0  0  0  0  0  0
  -26.1310  -18.0754   18.9448 C   0  0  0  0  0  0  0  0  0  0  0  0
  -30.5407  -18.0396   20.9308 C   0  0  0  0  0  0  0  0  0  0  0  0
  -30.8206  -16.8899   21.8951 C   0  0  0  0  0  0  0  0  0  0  0  0
  -24.3543  -20.6987   19.1144 C   0  0  0  0  0  0  0  0  0  1  0  0
  -28.9060  -19.6263   22.9402 C   0  0  0  0  0  0  0  0  0  0  0  0
  -24.3071  -25.5566   26.3632 C   0  0  1  0  0  0  0  0  0  0  0  0
  -26.9037  -23.4449   28.1431 C   0  0  2  0  0  0  0  0  0  0  0  0
  -25.9881  -19.1449   17.8343 C   0  0  2  0  0  0  0  0  0  0  0  0
  -25.6986  -20.5743   18.3823 C   0  0  1  0  0  0  0  0  0  0  0  0
  -24.2218  -27.0890   26.6125 C   0  0  0  0  0  0  0  0  0  0  0  0
  -25.8635  -11.5446   20.2867 N   0  0  0  0  0  0  0  0  0  0  0  0
  -28.4575  -17.9094   19.7341 N   0  0  0  0  0  0  0  0  0  0  0  0
  -29.1341  -18.3455   20.8102 N   0  0  0  0  0  0  0  0  0  0  0  0
  -26.2425  -12.8273   20.1556 N   0  0  0  0  0  0  0  0  0  0  0  0
  -22.5624  -24.2369   25.2063 N   0  0  0  0  0  0  0  0  0  0  0  0
  -29.9795  -13.6018   20.3655 N   0  0  0  0  0  0  0  0  0  0  0  0
  -25.4794  -15.0565   20.3979 N   0  0  0  0  0  0  0  0  0  0  0  0
  -21.8899  -12.5907   21.5941 N   0  0  0  0  0  0  0  0  0  0  0  0
  -19.3877  -25.3703   25.1290 N   0  0  0  0  0  0  0  0  0  0  0  0
  -25.1261  -24.8381   27.3334 N   0  0  0  0  0  0  0  0  0  0  0  0
  -30.1539  -15.6682   21.5027 N   0  0  0  0  0  0  0  0  0  0  0  0
  -27.4708  -22.1203   27.7625 N   0  3  0  0  0  0  0  0  0  0  0  0
  -22.6690  -14.7286   21.3096 O   0  0  0  0  0  0  0  0  0  0  0  0
  -20.7017  -25.1127   23.2238 O   0  0  0  0  0  0  0  0  0  0  0  0
  -22.2642  -24.9514   27.4056 O   0  0  0  0  0  0  0  0  0  0  0  0
  -26.6128  -23.9410   25.7965 O   0  0  0  0  0  0  0  0  0  0  0  0
  -31.8886  -14.9091   20.2099 O   0  0  0  0  0  0  0  0  0  0  0  0
  -21.6079   -7.0282   21.7152 O   0  0  0  0  0  0  0  0  0  0  0  0
  -24.2527  -21.9885   19.7163 O   0  0  0  0  0  0  0  0  0  1  0  0
  -16.4425   -6.8472   19.7941 F   0  0  0  0  0  0  0  0  0  0  0  0
  -20.8273   -5.0692   19.9275 F   0  0  0  0  0  0  0  0  0  0  0  0
  1  2  1  0  0  0  0
  1  5  2  0  0  0  0
  2  6  2  0  0  0  0
  3  8  2  0  0  0  0
  3 16  1  0  0  0  0
  4  9  1  0  0  0  0
  4 16  2  0  0  0  0
  5 18  1  0  0  0  0
  6 20  1  0  0  0  0
  7 10  2  0  0  0  0
  7 19  1  0  0  0  0
  8 22  1  0  0  0  0
  9 22  2  0  0  0  0
 10 23  1  0  0  0  0
 11 12  2  0  0  0  0
 11 24  1  0  0  0  0
 12 25  1  0  0  0  0
 13 21  1  0  0  0  0
 13 23  2  0  0  0  0
 14 25  2  0  0  0  0
 14 26  1  0  0  0  0
 15 28  1  0  0  0  0
 15 29  2  0  0  0  0
 16 27  1  0  0  0  0
 17 27  1  0  0  0  0
 17 30  2  0  0  0  0
 17 31  1  0  0  0  0
 18 20  2  0  0  0  0
 18 36  1  0  0  0  0
 19 21  2  0  0  0  0
 19 37  1  0  0  0  0
 20 45  1  0  0  0  0
 21 38  1  0  0  0  0
 22 84  1  0  0  0  0
 23 85  1  0  0  0  0
 24 26  2  0  0  0  0
 24 84  1  0  0  0  0
 25 86  1  0  0  0  0
 26 87  1  0  0  0  0
 27 67  2  0  0  0  0
 28 57  1  0  0  0  0
 28 68  2  0  0  0  0
 29 61  1  0  0  0  0
 29 69  1  0  0  0  0
 30 70  1  0  0  0  0
 30 73  1  0  0  0  0
 31 74  1  0  0  0  0
 31 79  2  0  0  0  0
 32 46  1  0  0  0  0
 32 75  1  0  0  0  0
 32 80  2  0  0  0  0
 33 62  1  0  0  0  0
 33 71  1  0  0  0  0
 33 81  2  0  0  0  0
 34 63  1  0  0  0  0
 34 76  1  0  0  0  0
 34 82  2  0  0  0  0
 35 72  1  0  0  0  0
 35 77  1  0  0  0  0
 35 83  2  0  0  0  0
 36 39  1  0  0  0  0
 37 46  1  0  0  0  0
 38 71  1  0  0  0  0
 39 41  1  0  0  0  0
 40 42  1  0  0  0  0
 40 43  1  0  0  0  0
 41 45  1  0  0  0  0
 42 47  1  0  0  0  0
 43 72  1  0  0  0  0
 44 47  1  0  0  0  0
 44 72  1  0  0  0  0
 45 75  1  0  0  0  0
 46 71  1  0  0  0  0
 47 70  1  0  0  0  0
 48 61  1  0  0  0  0
 49 61  1  0  0  0  0
 50 63  1  0  0  0  0
 51 64  1  0  0  0  0
 52 65  1  0  0  0  0
 53 66  1  0  0  0  0
 54 66  1  0  0  0  0
 55 66  1  0  0  0  0
 56 78  1  0  0  0  0
 57 64  1  0  0  0  0
 58 59  1  0  0  0  0
 58 69  1  0  0  0  0
 59 77  1  0  0  0  0
 60 65  1  0  0  0  0
 60 85  1  0  0  0  0
 62 66  1  0  0  0  0
 62 76  1  0  0  0  0
 63 78  1  0  0  0  0
 64 65  1  0  0  0  0
 67 70  1  0  0  0  0
 68 69  1  0  0  0  0
M  CHG  1  78   1
M  ISO  4  35 100  60 101  77 100  85 101
M  END
> <Batch ID>
0110

> <Smiles>
CNC(C)C(=O)NC(C(=O)N1Cc2cc([101O:1][101CH2:1]C(C)C(C)Cc3cc(C(C)C)n(CC[100NH:0][100C:0](=O)N4CCCC(n5nc(-c6ccc(Oc7ccc(F)cc7F)cc6)c(C(N)=O)c5N)C4)n3)ccc2CC1C(=O)NC1CCCc2ccccc21)C(C)(C)C

> <Shape>
0.177

> <Color>
0.184

> <Negative vol penalty>
0.000

$$$$

  -OEChem-04052319583D

 81 88  0     1  0  0  0  0  0999 V2000
  -18.5300  -32.9759   20.2427 C   0  0  0  0  0  0  0  0  0  0  0  0
  -19.8621  -32.7486   19.9119 C   0  0  0  0  0  0  0  0  0  0  0  0
  -26.7295  -17.3201   20.3621 C   0  0  0  0  0  0  0  0  0  0  0  0
  -28.1886  -17.0687   18.4529 C   0  0  0  0  0  0  0  0  0  0  0  0
  -18.0183  -32.4876   21.4442 C   0  0  0  0  0  0  0  0  0  0  0  0
  -20.6835  -32.0339   20.7830 C   0  0  0  0  0  0  0  0  0  0  0  0
  -25.2238  -28.2158   19.2620 C   0  0  0  0  0  0  0  0  0  0  0  0
  -26.0897  -16.1258   20.0304 C   0  0  0  0  0  0  0  0  0  0  0  0
  -27.5489  -15.8744   18.1213 C   0  0  0  0  0  0  0  0  0  0  0  0
  -26.6063  -28.3822   19.1946 C   0  0  0  0  0  0  0  0  0  0  0  0
  -26.6794  -12.8118   20.3504 C   0  0  0  0  0  0  0  0  0  0  0  0
  -26.4258  -11.9047   21.3792 C   0  0  0  0  0  0  0  0  0  0  0  0
  -26.8194  -27.4610   21.4138 C   0  0  0  0  0  0  0  0  0  0  0  0
  -24.0577  -12.0493   20.9230 C   0  0  0  0  0  0  0  0  0  0  0  0
  -27.7789  -17.7916   19.5733 C   0  0  0  0  0  0  0  0  0  0  0  0
  -29.5613  -19.1860   20.7508 C   0  0  0  0  0  0  0  0  0  0  0  0
  -18.8313  -31.7582   22.3260 C   0  0  0  0  0  0  0  0  0  0  0  0
  -24.6266  -27.6799   20.4121 C   0  0  0  0  0  0  0  0  0  0  0  0
  -20.1825  -31.5365   21.9981 C   0  0  0  0  0  0  0  0  0  0  0  0
  -25.4293  -27.2864   21.4924 C   0  0  0  0  0  0  0  0  0  0  0  0
  -26.4994  -15.4030   18.9100 C   0  0  0  0  0  0  0  0  0  0  0  0
  -27.4041  -28.0075   20.2717 C   0  0  0  0  0  0  0  0  0  0  0  0
  -25.6221  -13.3376   19.6078 C   0  0  0  0  0  0  0  0  0  0  0  0
  -25.1150  -11.5234   21.6655 C   0  0  0  0  0  0  0  0  0  0  0  0
  -24.3113  -12.9563   19.8941 C   0  0  0  0  0  0  0  0  0  0  0  0
  -28.4398  -19.0255   19.9151 C   0  0  0  0  0  0  0  0  0  0  0  0
  -29.7975  -20.5390   20.7522 C   0  0  0  0  0  0  0  0  0  0  0  0
  -35.5385  -27.4589   19.7254 C   0  0  0  0  0  0  0  0  0  0  0  0
  -34.2132  -27.2903   19.6367 C   0  0  0  0  0  0  0  0  0  0  0  0
  -30.3215  -18.2002   21.4622 C   0  0  0  0  0  0  0  0  0  0  0  0
  -22.5360  -28.7435   22.5573 C   0  0  0  0  0  0  0  0  0  0  0  0
  -22.7076  -25.6975   23.6595 C   0  0  0  0  0  0  0  0  0  0  0  0
  -24.4915  -22.7976   23.8943 C   0  0  0  0  0  0  0  0  0  0  0  0
  -30.2596  -25.4015   18.0526 C   0  0  0  0  0  0  0  0  0  0  0  0
  -18.2458  -31.2910   23.6351 C   0  0  0  0  0  0  0  0  0  0  0  0
  -23.1363  -27.4820   20.4587 C   0  0  0  0  0  0  0  0  0  0  0  0
  -24.8392  -26.6874   22.7420 C   0  0  0  0  0  0  0  0  0  0  0  0
  -19.0840  -30.2210   24.3299 C   0  0  0  0  0  0  0  0  0  0  0  0
  -26.9906  -24.3731   19.0182 C   0  0  0  0  0  0  0  0  0  0  0  0
  -20.5572  -30.6165   24.3345 C   0  0  0  0  0  0  0  0  0  0  0  0
  -27.1677  -22.9025   19.4003 C   0  0  0  0  0  0  0  0  0  0  0  0
  -27.8768  -24.7598   17.8362 C   0  0  0  0  0  0  0  0  0  0  0  0
  -29.4850  -22.9759   18.3888 C   0  0  0  0  0  0  0  0  0  0  0  0
  -21.0985  -30.7443   22.9054 C   0  0  1  0  0  0  0  0  0  0  0  0
  -22.5881  -27.4032   21.8802 C   0  0  1  0  0  0  0  0  0  0  0  0
  -28.6531  -22.5531   19.6116 C   0  0  2  0  0  0  0  0  0  0  0  0
  -24.9776  -20.4026   24.4642 C   0  0  0  0  0  0  0  0  0  0  0  0
  -30.1084  -29.7778   21.3877 C   0  0  0  0  0  0  0  0  0  0  0  0
  -34.3309  -24.7339   19.8340 C   0  0  0  0  0  0  0  0  0  0  0  0
  -23.3510  -26.8604   26.4061 C   0  0  0  0  0  0  0  0  0  0  0  0
  -24.1568  -24.5938   27.0999 C   0  0  0  0  0  0  0  0  0  0  0  0
  -21.7738  -24.9198   26.4382 C   0  0  0  0  0  0  0  0  0  0  0  0
  -23.3828  -21.8397   21.3229 C   0  0  0  0  0  0  0  0  0  0  0  0
  -32.6782  -25.8912   18.3167 C   0  0  0  0  0  0  0  0  0  0  0  0
  -30.3953  -27.2559   21.7069 C   0  0  0  0  0  0  0  0  0  0  0  0
  -32.3917  -26.0424   20.8233 C   0  0  0  0  0  0  0  0  0  0  0  0
  -23.5715  -24.9702   24.6612 C   0  0  1  0  0  0  0  0  0  0  0  0
  -24.0953  -21.3500   23.6663 C   0  0  2  0  0  0  0  0  0  0  0  0
  -29.4370  -28.4116   21.4380 C   0  0  2  0  0  0  0  0  0  1  0  0
  -33.4295  -25.9791   19.6736 C   0  0  2  0  0  0  0  0  0  0  0  0
  -23.2245  -25.3491   26.1287 C   0  0  0  0  0  0  0  0  0  0  0  0
  -27.9945  -20.1840   19.4216 N   0  0  0  0  0  0  0  0  0  0  0  0
  -28.8403  -21.0854   19.9489 N   0  0  0  0  0  0  0  0  0  0  0  0
  -23.3765  -26.5199   22.7418 N   0  0  0  0  0  0  0  0  0  0  0  0
  -29.2727  -24.4031   18.1011 N   0  0  0  0  0  0  0  0  0  0  0  0
  -30.7286  -21.3028   21.3624 N   0  0  0  0  0  0  0  0  0  0  0  0
  -29.9424  -16.8555   21.3505 N   0  0  0  0  0  0  0  0  0  0  0  0
  -21.3592  -29.4358   22.3448 N   0  0  0  0  0  0  0  0  0  0  0  0
  -23.4343  -23.5488   24.3627 N   0  0  0  0  0  0  0  0  0  0  0  0
  -31.5558  -24.9797   18.3223 N   0  0  0  0  0  0  0  0  0  0  0  0
  -24.2163  -21.0012   22.2225 N   0  3  0  0  0  0  0  0  0  0  0  0
  -31.4457  -27.1797   20.6612 N   0  3  0  0  0  0  0  0  0  0  0  0
  -31.2976  -18.5046   22.1888 O   0  0  0  0  0  0  0  0  0  0  0  0
  -23.4921  -29.1210   23.2244 O   0  0  0  0  0  0  0  0  0  0  0  0
  -21.4849  -25.5363   23.6855 O   0  0  0  0  0  0  0  0  0  0  0  0
  -25.6263  -23.2190   23.6820 O   0  0  0  0  0  0  0  0  0  0  0  0
  -30.0038  -26.5824   17.7937 O   0  0  0  0  0  0  0  0  0  0  0  0
  -25.8755  -14.2374   18.5862 O   0  0  0  0  0  0  0  0  0  0  0  0
  -28.7538  -28.1695   20.2087 O   0  0  0  0  0  0  0  0  0  1  0  0
  -24.8717  -10.6512   22.6526 F   0  0  0  0  0  0  0  0  0  0  0  0
  -23.2915  -13.4572   19.1835 F   0  0  0  0  0  0  0  0  0  0  0  0
  1  2  1  0  0  0  0
  1  5  2  0  0  0  0
  2  6  2  0  0  0  0
  3  8  2  0  0  0  0
  3 15  1  0  0  0  0
  4  9  1  0  0  0  0
  4 15  2  0  0  0  0
  5 17  1  0  0  0  0
  6 19  1  0  0  0  0
  7 10  2  0  0  0  0
  7 18  1  0  0  0  0
  8 21  1  0  0  0  0
  9 21  2  0  0  0  0
 10 22  1  0  0  0  0
 11 12  2  0  0  0  0
 11 23  1  0  0  0  0
 12 24  1  0  0  0  0
 13 20  1  0  0  0  0
 13 22  2  0  0  0  0
 14 24  2  0  0  0  0
 14 25  1  0  0  0  0
 15 26  1  0  0  0  0
 16 26  1  0  0  0  0
 16 27  2  0  0  0  0
 16 30  1  0  0  0  0
 17 19  2  0  0  0  0
 17 35  1  0  0  0  0
 18 20  2  0  0  0  0
 18 36  1  0  0  0  0
 19 44  1  0  0  0  0
 20 37  1  0  0  0  0
 21 78  1  0  0  0  0
 22 79  1  0  0  0  0
 23 25  2  0  0  0  0
 23 78  1  0  0  0  0
 24 80  1  0  0  0  0
 25 81  1  0  0  0  0
 26 62  2  0  0  0  0
 27 63  1  0  0  0  0
 27 66  1  0  0  0  0
 28 29  2  0  0  0  0
 29 60  1  0  0  0  0
 30 67  1  0  0  0  0
 30 73  2  0  0  0  0
 31 45  1  0  0  0  0
 31 68  1  0  0  0  0
 31 74  2  0  0  0  0
 32 57  1  0  0  0  0
 32 64  1  0  0  0  0
 32 75  2  0  0  0  0
 33 58  1  0  0  0  0
 33 69  1  0  0  0  0
 33 76  2  0  0  0  0
 34 65  1  0  0  0  0
 34 70  1  0  0  0  0
 34 77  2  0  0  0  0
 35 38  1  0  0  0  0
 36 45  1  0  0  0  0
 37 64  1  0  0  0  0
 38 40  1  0  0  0  0
 39 41  1  0  0  0  0
 39 42  1  0  0  0  0
 40 44  1  0  0  0  0
 41 46  1  0  0  0  0
 42 65  1  0  0  0  0
 43 46  1  0  0  0  0
 43 65  1  0  0  0  0
 44 68  1  0  0  0  0
 45 64  1  0  0  0  0
 46 63  1  0  0  0  0
 47 58  1  0  0  0  0
 48 59  1  0  0  0  0
 49 60  1  0  0  0  0
 50 61  1  0  0  0  0
 51 61  1  0  0  0  0
 52 61  1  0  0  0  0
 53 71  1  0  0  0  0
 54 60  1  0  0  0  0
 54 70  1  0  0  0  0
 55 59  1  0  0  0  0
 55 72  1  0  0  0  0
 56 60  1  0  0  0  0
 56 72  1  0  0  0  0
 57 61  1  0  0  0  0
 57 69  1  0  0  0  0
 58 71  1  0  0  0  0
 59 79  1  0  0  0  0
 62 63  1  0  0  0  0
M  CHG  2  71   1  72   1
M  ISO  4  34 100  59 101  70 100  79 101
M  END
> <Batch ID>
0110

> <Smiles>
C=CC(C)(CNC[101CH:1](C)[101O:1]c1ccc2c(c1)CN(C(=O)C(NC(=O)C(C)NC)C(C)(C)C)C(C(=O)NC1CCCc3ccccc31)C2)C[100NH:0][100C:0](=O)N1CCCC(n2nc(-c3ccc(Oc4ccc(F)cc4F)cc3)c(C(N)=O)c2N)C1

> <Shape>
0.220

> <Color>
0.073

> <Negative vol penalty>
0.000

$$$$

  -OEChem-04052319583D

 80 87  0     1  0  0  0  0  0999 V2000
  -28.9800  -11.3798   19.7415 C   0  0  0  0  0  0  0  0  0  0  0  0
  -29.1490  -12.7360   19.4814 C   0  0  0  0  0  0  0  0  0  0  0  0
  -23.6122  -28.3198   19.2453 C   0  0  0  0  0  0  0  0  0  0  0  0
  -23.2057  -26.4593   20.7320 C   0  0  0  0  0  0  0  0  0  0  0  0
  -27.7103  -10.8786   20.0254 C   0  0  0  0  0  0  0  0  0  0  0  0
  -28.0482  -13.5916   19.5040 C   0  0  0  0  0  0  0  0  0  0  0  0
  -28.9878  -17.9007   21.9928 C   0  0  0  0  0  0  0  0  0  0  0  0
  -22.7911  -29.1278   20.0319 C   0  0  0  0  0  0  0  0  0  0  0  0
  -22.3846  -27.2672   21.5186 C   0  0  0  0  0  0  0  0  0  0  0  0
  -29.7232  -18.8764   21.3213 C   0  0  0  0  0  0  0  0  0  0  0  0
  -19.2210  -28.4553   21.4137 C   0  0  0  0  0  0  0  0  0  0  0  0
  -18.0013  -27.9252   21.8341 C   0  0  0  0  0  0  0  0  0  0  0  0
  -27.6810  -20.0524   20.8058 C   0  0  0  0  0  0  0  0  0  0  0  0
  -18.6713  -28.2103   24.1378 C   0  0  0  0  0  0  0  0  0  0  0  0
  -23.8195  -26.9856   19.5954 C   0  0  0  0  0  0  0  0  0  0  0  0
  -26.0548  -25.9575   18.9214 C   0  0  0  0  0  0  0  0  0  0  0  0
  -26.5948  -11.7301   20.0610 C   0  0  0  0  0  0  0  0  0  0  0  0
  -27.5901  -17.9879   22.0666 C   0  0  0  0  0  0  0  0  0  0  0  0
  -26.7622  -13.1011   19.7874 C   0  0  0  0  0  0  0  0  0  0  0  0
  -26.9304  -19.0778   21.4810 C   0  0  0  0  0  0  0  0  0  0  0  0
  -22.1773  -28.6015   21.1685 C   0  0  0  0  0  0  0  0  0  0  0  0
  -29.0696  -19.9509   20.7252 C   0  0  0  0  0  0  0  0  0  0  0  0
  -20.1660  -28.8628   22.3553 C   0  0  0  0  0  0  0  0  0  0  0  0
  -17.7264  -27.8027   23.1961 C   0  0  0  0  0  0  0  0  0  0  0  0
  -19.8912  -28.7403   23.7173 C   0  0  0  0  0  0  0  0  0  0  0  0
  -24.6672  -26.1503   18.7830 C   0  0  0  0  0  0  0  0  0  0  0  0
  -26.3816  -25.0812   17.9155 C   0  0  0  0  0  0  0  0  0  0  0  0
  -26.9667  -26.5200   19.8740 C   0  0  0  0  0  0  0  0  0  0  0  0
  -25.1738  -16.1859   21.0578 C   0  0  0  0  0  0  0  0  0  0  0  0
  -23.3938  -18.3234   22.7266 C   0  0  0  0  0  0  0  0  0  0  0  0
  -23.1162  -21.4581   24.0470 C   0  0  0  0  0  0  0  0  0  0  0  0
  -25.3455  -20.4657   14.9542 C   0  0  0  0  0  0  0  0  0  0  0  0
  -25.2349  -11.1343   20.3260 C   0  0  0  0  0  0  0  0  0  0  0  0
  -26.8136  -16.9413   22.8175 C   0  0  0  0  0  0  0  0  0  0  0  0
  -25.4333  -19.2285   21.5492 C   0  0  0  0  0  0  0  0  0  0  0  0
  -24.1781  -12.1707   20.6993 C   0  0  0  0  0  0  0  0  0  0  0  0
  -23.6801  -23.4520   13.9615 C   0  0  0  0  0  0  0  0  0  0  0  0
  -24.2369  -13.3602   19.7462 C   0  0  0  0  0  0  0  0  0  0  0  0
  -23.8976  -24.4014   15.1410 C   0  0  0  0  0  0  0  0  0  0  0  0
  -23.4826  -22.0107   14.4262 C   0  0  0  0  0  0  0  0  0  0  0  0
  -24.7632  -22.4425   16.4871 C   0  0  0  0  0  0  0  0  0  0  0  0
  -25.5964  -14.0651   19.8270 C   0  0  1  0  0  0  0  0  0  0  0  0
  -25.3517  -16.8598   22.3889 C   0  0  1  0  0  0  0  0  0  0  0  0
  -25.0229  -23.8989   16.0653 C   0  0  2  0  0  0  0  0  0  0  0  0
  -21.5291  -22.9248   25.3227 C   0  0  0  0  0  0  0  0  0  0  0  0
  -31.1604  -23.0202   18.6055 C   0  0  0  0  0  0  0  0  0  0  0  0
  -28.1797  -19.9016   13.4045 C   0  0  0  0  0  0  0  0  0  0  0  0
  -21.7466  -18.7410   20.1924 C   0  0  0  0  0  0  0  0  0  0  0  0
  -20.8357  -20.8376   21.2136 C   0  0  0  0  0  0  0  0  0  0  0  0
  -20.4070  -18.6342   22.3015 C   0  0  0  0  0  0  0  0  0  0  0  0
  -25.0105  -21.7436   26.3029 C   0  0  0  0  0  0  0  0  0  0  0  0
  -30.9594  -20.8986   17.2845 C   0  0  0  0  0  0  0  0  0  0  0  0
  -27.2487  -19.0142   15.6100 C   0  0  0  0  0  0  0  0  0  0  0  0
  -30.1180  -19.8069   16.6313 C   0  0  0  0  0  0  0  0  0  0  0  0
  -29.1418  -21.5634   18.9786 C   0  0  0  0  0  0  0  0  0  1  0  0
  -22.7248  -19.6384   22.4069 C   0  0  1  0  0  0  0  0  0  0  0  0
  -22.6820  -21.9378   25.4202 C   0  0  2  0  0  0  0  0  0  0  0  0
  -30.1717  -22.0478   17.9498 C   0  0  1  0  0  0  0  0  0  0  0  0
  -28.4918  -19.3538   14.7904 C   0  0  2  0  0  0  0  0  0  0  0  0
  -21.4566  -19.4592   21.5255 C   0  0  0  0  0  0  0  0  0  0  0  0
  -24.1482  -25.4528   17.7690 N   0  0  0  0  0  0  0  0  0  0  0  0
  -25.2154  -24.8132   17.2610 N   0  0  0  0  0  0  0  0  0  0  0  0
  -24.7177  -18.1760   22.2892 N   0  0  0  0  0  0  0  0  0  0  0  0
  -24.5843  -21.5952   15.2976 N   0  0  0  0  0  0  0  0  0  0  0  0
  -27.5500  -24.5216   17.5357 N   0  0  0  0  0  0  0  0  0  0  0  0
  -26.4639  -27.4026   20.8398 N   0  0  0  0  0  0  0  0  0  0  0  0
  -25.6656  -14.8954   21.0104 N   0  0  0  0  0  0  0  0  0  0  0  0
  -22.4752  -20.2914   23.6874 N   0  0  0  0  0  0  0  0  0  0  0  0
  -26.3746  -20.1447   15.8309 N   0  0  0  0  0  0  0  0  0  0  0  0
  -23.8162  -22.6074   26.1175 N   0  3  0  0  0  0  0  0  0  0  0  0
  -29.3049  -20.3625   15.5250 N   0  3  0  0  0  0  0  0  0  0  0  0
  -28.1940  -26.2609   19.8588 O   0  0  0  0  0  0  0  0  0  0  0  0
  -24.6292  -16.7913   20.1421 O   0  0  0  0  0  0  0  0  0  0  0  0
  -22.7671  -17.4615   23.3481 O   0  0  0  0  0  0  0  0  0  0  0  0
  -23.9386  -22.0602   23.3603 O   0  0  0  0  0  0  0  0  0  0  0  0
  -25.1277  -19.7963   13.9386 O   0  0  0  0  0  0  0  0  0  0  0  0
  -21.3762  -29.3896   21.9364 O   0  0  0  0  0  0  0  0  0  0  0  0
  -29.7850  -20.9044   20.0686 O   0  0  0  0  0  0  0  0  0  1  0  0
  -16.5544  -27.2951   23.5997 F   0  0  0  0  0  0  0  0  0  0  0  0
  -20.7946  -29.1312   24.6266 F   0  0  0  0  0  0  0  0  0  0  0  0
  1  2  1  0  0  0  0
  1  5  2  0  0  0  0
  2  6  2  0  0  0  0
  3  8  2  0  0  0  0
  3 15  1  0  0  0  0
  4  9  1  0  0  0  0
  4 15  2  0  0  0  0
  5 17  1  0  0  0  0
  6 19  1  0  0  0  0
  7 10  2  0  0  0  0
  7 18  1  0  0  0  0
  8 21  1  0  0  0  0
  9 21  2  0  0  0  0
 10 22  1  0  0  0  0
 11 12  2  0  0  0  0
 11 23  1  0  0  0  0
 12 24  1  0  0  0  0
 13 20  1  0  0  0  0
 13 22  2  0  0  0  0
 14 24  2  0  0  0  0
 14 25  1  0  0  0  0
 15 26  1  0  0  0  0
 16 26  1  0  0  0  0
 16 27  2  0  0  0  0
 16 28  1  0  0  0  0
 17 19  2  0  0  0  0
 17 33  1  0  0  0  0
 18 20  2  0  0  0  0
 18 34  1  0  0  0  0
 19 42  1  0  0  0  0
 20 35  1  0  0  0  0
 21 77  1  0  0  0  0
 22 78  1  0  0  0  0
 23 25  2  0  0  0  0
 23 77  1  0  0  0  0
 24 79  1  0  0  0  0
 25 80  1  0  0  0  0
 26 61  2  0  0  0  0
 27 62  1  0  0  0  0
 27 65  1  0  0  0  0
 28 66  1  0  0  0  0
 28 72  2  0  0  0  0
 29 43  1  0  0  0  0
 29 67  1  0  0  0  0
 29 73  2  0  0  0  0
 30 56  1  0  0  0  0
 30 63  1  0  0  0  0
 30 74  2  0  0  0  0
 31 57  1  0  0  0  0
 31 68  1  0  0  0  0
 31 75  2  0  0  0  0
 32 64  1  0  0  0  0
 32 69  1  0  0  0  0
 32 76  2  0  0  0  0
 33 36  1  0  0  0  0
 34 43  1  0  0  0  0
 35 63  1  0  0  0  0
 36 38  1  0  0  0  0
 37 39  1  0  0  0  0
 37 40  1  0  0  0  0
 38 42  1  0  0  0  0
 39 44  1  0  0  0  0
 40 64  1  0  0  0  0
 41 44  1  0  0  0  0
 41 64  1  0  0  0  0
 42 67  1  0  0  0  0
 43 63  1  0  0  0  0
 44 62  1  0  0  0  0
 45 57  1  0  0  0  0
 46 58  1  0  0  0  0
 47 59  1  0  0  0  0
 48 60  1  0  0  0  0
 49 60  1  0  0  0  0
 50 60  1  0  0  0  0
 51 70  1  0  0  0  0
 52 54  1  0  0  0  0
 52 58  1  0  0  0  0
 53 59  1  0  0  0  0
 53 69  1  0  0  0  0
 54 71  1  0  0  0  0
 55 58  1  0  0  0  0
 55 78  1  0  0  0  0
 56 60  1  0  0  0  0
 56 68  1  0  0  0  0
 57 70  1  0  0  0  0
 59 71  1  0  0  0  0
 61 62  1  0  0  0  0
M  CHG  2  70   1  71   1
M  ISO  4  32 100  55 101  69 100  78 101
M  END
> <Batch ID>
0110

> <Smiles>
CNC(C)C(=O)NC(C(=O)N1Cc2cc([101O:1][101CH2:1]C(C)CCNC(C)C[100NH:0][100C:0](=O)N3CCCC(n4nc(-c5ccc(Oc6ccc(F)cc6F)cc5)c(C(N)=O)c4N)C3)ccc2CC1C(=O)NC1CCCc2ccccc21)C(C)(C)C

> <Shape>
0.183

> <Color>
0.066

> <Negative vol penalty>
0.000

$$$$

  -OEChem-04052319583D

 79 86  0     1  0  0  0  0  0999 V2000
  -26.8786  -23.1097   21.5987 C   0  0  0  0  0  0  0  0  0  0  0  0
  -26.1062  -22.0102   21.2384 C   0  0  0  0  0  0  0  0  0  0  0  0
  -24.5617  -29.9779   20.4546 C   0  0  0  0  0  0  0  0  0  0  0  0
  -24.3799  -28.5395   22.3872 C   0  0  0  0  0  0  0  0  0  0  0  0
  -28.2214  -23.1684   21.2280 C   0  0  0  0  0  0  0  0  0  0  0  0
  -26.6758  -20.9691   20.5062 C   0  0  0  0  0  0  0  0  0  0  0  0
  -25.3991  -16.4080   22.2981 C   0  0  0  0  0  0  0  0  0  0  0  0
  -24.2687  -31.0849   21.2510 C   0  0  0  0  0  0  0  0  0  0  0  0
  -24.0870  -29.6466   23.1836 C   0  0  0  0  0  0  0  0  0  0  0  0
  -24.1296  -15.9300   21.9764 C   0  0  0  0  0  0  0  0  0  0  0  0
  -25.7832  -32.1678   24.6624 C   0  0  0  0  0  0  0  0  0  0  0  0
  -26.4343  -32.2704   25.8917 C   0  0  0  0  0  0  0  0  0  0  0  0
  -25.0911  -14.5671   20.2336 C   0  0  0  0  0  0  0  0  0  0  0  0
  -24.3004  -32.2412   27.0244 C   0  0  0  0  0  0  0  0  0  0  0  0
  -24.6172  -28.7051   21.0227 C   0  0  0  0  0  0  0  0  0  0  0  0
  -26.1913  -27.0262   19.9222 C   0  0  0  0  0  0  0  0  0  0  0  0
  -28.8103  -22.1231   20.4992 C   0  0  0  0  0  0  0  0  0  0  0  0
  -26.5248  -15.9767   21.5817 C   0  0  0  0  0  0  0  0  0  0  0  0
  -28.0274  -21.0145   20.1242 C   0  0  0  0  0  0  0  0  0  0  0  0
  -26.3741  -15.0392   20.5499 C   0  0  0  0  0  0  0  0  0  0  0  0
  -24.0314  -30.9193   22.6155 C   0  0  0  0  0  0  0  0  0  0  0  0
  -23.9751  -15.0116   20.9420 C   0  0  0  0  0  0  0  0  0  0  0  0
  -24.3907  -32.1020   24.6141 C   0  0  0  0  0  0  0  0  0  0  0  0
  -25.6929  -32.3071   27.0727 C   0  0  0  0  0  0  0  0  0  0  0  0
  -23.6493  -32.1387   25.7950 C   0  0  0  0  0  0  0  0  0  0  0  0
  -24.9192  -27.5611   20.2005 C   0  0  0  0  0  0  0  0  0  0  0  0
  -25.9408  -25.9537   19.1015 C   0  0  0  0  0  0  0  0  0  0  0  0
  -27.4838  -27.4599   20.3660 C   0  0  0  0  0  0  0  0  0  0  0  0
  -28.7027  -17.4005   19.7560 C   0  0  0  0  0  0  0  0  0  0  0  0
  -30.0751  -14.4613   19.7769 C   0  0  0  0  0  0  0  0  0  0  0  0
  -29.6983  -11.0906   20.1550 C   0  0  0  0  0  0  0  0  0  0  0  0
  -21.2021  -22.4843   18.4988 C   0  0  0  0  0  0  0  0  0  0  0  0
  -30.2534  -22.2531   20.0805 C   0  0  0  0  0  0  0  0  0  0  0  0
  -27.8906  -16.4816   21.9587 C   0  0  0  0  0  0  0  0  0  0  0  0
  -27.5530  -14.5292   19.7635 C   0  0  0  0  0  0  0  0  0  0  0  0
  -30.8773  -20.9355   19.6277 C   0  0  0  0  0  0  0  0  0  0  0  0
  -22.7963  -24.3753   15.8568 C   0  0  0  0  0  0  0  0  0  0  0  0
  -29.9433  -20.2042   18.6687 C   0  0  0  0  0  0  0  0  0  0  0  0
  -23.6474  -25.3611   16.6593 C   0  0  0  0  0  0  0  0  0  0  0  0
  -21.4544  -24.1220   16.5374 C   0  0  0  0  0  0  0  0  0  0  0  0
  -22.4080  -24.6348   18.7513 C   0  0  0  0  0  0  0  0  0  0  0  0
  -28.6156  -19.8540   19.3514 C   0  0  1  0  0  0  0  0  0  0  0  0
  -28.9049  -16.3643   20.8252 C   0  0  1  0  0  0  0  0  0  0  0  0
  -23.7870  -24.9154   18.1270 C   0  0  2  0  0  0  0  0  0  0  0  0
  -30.9936   -8.9427   20.0772 C   0  0  0  0  0  0  0  0  0  0  0  0
  -20.0045  -13.6666   20.0645 C   0  0  0  0  0  0  0  0  0  0  0  0
  -30.0937  -14.5859   16.7283 C   0  0  0  0  0  0  0  0  0  0  0  0
  -30.4883  -12.1137   16.6992 C   0  0  0  0  0  0  0  0  0  0  0  0
  -32.1690  -13.6310   17.7461 C   0  0  0  0  0  0  0  0  0  0  0  0
  -29.0856  -10.4835   22.9861 C   0  0  0  0  0  0  0  0  0  0  0  0
  -20.3928  -17.8745   18.3420 C   0  0  0  0  0  0  0  0  0  0  0  0
  -21.3899  -16.7450   18.0731 C   0  0  0  0  0  0  0  0  0  0  0  0
  -20.9581  -19.2278   17.8977 C   0  0  0  0  0  0  0  0  0  0  0  0
  -20.8428  -15.3531   18.4109 C   0  0  0  0  0  0  0  0  0  0  0  0
  -19.9671  -20.3703   18.0956 C   0  0  0  0  0  0  0  0  0  0  0  0
  -21.6328  -15.4150   20.8571 C   0  0  0  0  0  0  0  0  0  1  0  0
  -29.9661  -13.2244   18.9183 C   0  0  1  0  0  0  0  0  0  0  0  0
  -30.4867  -10.0729   20.9595 C   0  0  2  0  0  0  0  0  0  0  0  0
  -20.4793  -15.1149   19.8912 C   0  0  2  0  0  0  0  0  0  0  0  0
  -30.6566  -13.3996   17.5363 C   0  0  0  0  0  0  0  0  0  0  0  0
  -23.9337  -26.8844   19.6047 N   0  0  0  0  0  0  0  0  0  0  0  0
  -24.5867  -25.9132   18.9439 N   0  0  0  0  0  0  0  0  0  0  0  0
  -28.8670  -15.0574   20.1658 N   0  0  0  0  0  0  0  0  0  0  0  0
  -21.6581  -23.6828   17.9251 N   0  0  0  0  0  0  0  0  0  0  0  0
  -26.7490  -25.0509   18.5065 N   0  0  0  0  0  0  0  0  0  0  0  0
  -27.5610  -28.5795   21.2056 N   0  0  0  0  0  0  0  0  0  0  0  0
  -28.7785  -18.7024   20.2127 N   0  0  0  0  0  0  0  0  0  0  0  0
  -30.4976  -12.1252   19.7168 N   0  0  0  0  0  0  0  0  0  0  0  0
  -20.4944  -21.6412   17.6509 N   0  0  0  0  0  0  0  0  0  0  0  0
  -29.6332   -9.4860   22.0310 N   0  3  0  0  0  0  0  0  0  0  0  0
  -28.5403  -26.8820   20.0148 O   0  0  0  0  0  0  0  0  0  0  0  0
  -28.4949  -17.0451   18.6018 O   0  0  0  0  0  0  0  0  0  0  0  0
  -31.1908  -14.8790   20.0969 O   0  0  0  0  0  0  0  0  0  0  0  0
  -28.4946  -10.9771   19.9341 O   0  0  0  0  0  0  0  0  0  0  0  0
  -21.4147  -22.1850   19.6788 O   0  0  0  0  0  0  0  0  0  0  0  0
  -23.7458  -31.9994   23.3929 O   0  0  0  0  0  0  0  0  0  0  0  0
  -22.7278  -14.5405   20.6231 O   0  0  0  0  0  0  0  0  0  1  0  0
  -26.3184  -32.4040   28.2532 F   0  0  0  0  0  0  0  0  0  0  0  0
  -22.3114  -32.0746   25.7550 F   0  0  0  0  0  0  0  0  0  0  0  0
  1  2  1  0  0  0  0
  1  5  2  0  0  0  0
  2  6  2  0  0  0  0
  3  8  2  0  0  0  0
  3 15  1  0  0  0  0
  4  9  1  0  0  0  0
  4 15  2  0  0  0  0
  5 17  1  0  0  0  0
  6 19  1  0  0  0  0
  7 10  2  0  0  0  0
  7 18  1  0  0  0  0
  8 21  1  0  0  0  0
  9 21  2  0  0  0  0
 10 22  1  0  0  0  0
 11 12  2  0  0  0  0
 11 23  1  0  0  0  0
 12 24  1  0  0  0  0
 13 20  1  0  0  0  0
 13 22  2  0  0  0  0
 14 24  2  0  0  0  0
 14 25  1  0  0  0  0
 15 26  1  0  0  0  0
 16 26  1  0  0  0  0
 16 27  2  0  0  0  0
 16 28  1  0  0  0  0
 17 19  2  0  0  0  0
 17 33  1  0  0  0  0
 18 20  2  0  0  0  0
 18 34  1  0  0  0  0
 19 42  1  0  0  0  0
 20 35  1  0  0  0  0
 21 76  1  0  0  0  0
 22 77  1  0  0  0  0
 23 25  2  0  0  0  0
 23 76  1  0  0  0  0
 24 78  1  0  0  0  0
 25 79  1  0  0  0  0
 26 61  2  0  0  0  0
 27 62  1  0  0  0  0
 27 65  1  0  0  0  0
 28 66  1  0  0  0  0
 28 71  2  0  0  0  0
 29 43  1  0  0  0  0
 29 67  1  0  0  0  0
 29 72  2  0  0  0  0
 30 57  1  0  0  0  0
 30 63  1  0  0  0  0
 30 73  2  0  0  0  0
 31 58  1  0  0  0  0
 31 68  1  0  0  0  0
 31 74  2  0  0  0  0
 32 64  1  0  0  0  0
 32 69  1  0  0  0  0
 32 75  2  0  0  0  0
 33 36  1  0  0  0  0
 34 43  1  0  0  0  0
 35 63  1  0  0  0  0
 36 38  1  0  0  0  0
 37 39  1  0  0  0  0
 37 40  1  0  0  0  0
 38 42  1  0  0  0  0
 39 44  1  0  0  0  0
 40 64  1  0  0  0  0
 41 44  1  0  0  0  0
 41 64  1  0  0  0  0
 42 67  1  0  0  0  0
 43 63  1  0  0  0  0
 44 62  1  0  0  0  0
 45 58  1  0  0  0  0
 46 59  1  0  0  0  0
 47 60  1  0  0  0  0
 48 60  1  0  0  0  0
 49 60  1  0  0  0  0
 50 70  1  0  0  0  0
 51 52  1  0  0  0  0
 51 53  1  0  0  0  0
 52 54  1  0  0  0  0
 53 55  1  0  0  0  0
 54 59  1  0  0  0  0
 55 69  1  0  0  0  0
 56 59  1  0  0  0  0
 56 77  1  0  0  0  0
 57 60  1  0  0  0  0
 57 68  1  0  0  0  0
 58 70  1  0  0  0  0
 61 62  1  0  0  0  0
M  CHG  1  70   1
M  ISO  4  32 100  56 101  69 100  77 101
M  END
> <Batch ID>
0110

> <Smiles>
CNC(C)C(=O)NC(C(=O)N1Cc2cc([101O:1][101CH2:1]C(C)CCCCC[100NH:0][100C:0](=O)N3CCCC(n4nc(-c5ccc(Oc6ccc(F)cc6F)cc5)c(C(N)=O)c4N)C3)ccc2CC1C(=O)NC1CCCc2ccccc21)C(C)(C)C

> <Shape>
0.234

> <Color>
0.073

> <Negative vol penalty>
0.000

$$$$

  -OEChem-04052319583D

 86 94  0     1  0  0  0  0  0999 V2000
  -34.5282  -32.1402   14.7337 C   0  0  0  0  0  0  0  0  0  0  0  0
  -33.2429  -32.3567   15.2202 C   0  0  0  0  0  0  0  0  0  0  0  0
  -23.0121   -9.8818   19.9775 C   0  0  0  0  0  0  0  0  0  0  0  0
  -23.7410   -9.9353   22.2803 C   0  0  0  0  0  0  0  0  0  0  0  0
  -34.8505  -30.9219   14.1372 C   0  0  0  0  0  0  0  0  0  0  0  0
  -32.2788  -31.3554   15.1094 C   0  0  0  0  0  0  0  0  0  0  0  0
  -27.9519  -27.9439   20.6471 C   0  0  0  0  0  0  0  0  0  0  0  0
  -22.2539   -8.7417   20.2439 C   0  0  0  0  0  0  0  0  0  0  0  0
  -22.9828   -8.7952   22.5467 C   0  0  0  0  0  0  0  0  0  0  0  0
  -27.2441  -27.1572   21.5561 C   0  0  0  0  0  0  0  0  0  0  0  0
  -23.2494   -5.4585   22.0706 C   0  0  0  0  0  0  0  0  0  0  0  0
  -23.8453   -4.4446   22.8206 C   0  0  0  0  0  0  0  0  0  0  0  0
  -27.2340  -25.3245   19.9783 C   0  0  0  0  0  0  0  0  0  0  0  0
  -22.1227   -4.6737   24.4991 C   0  0  0  0  0  0  0  0  0  0  0  0
  -23.7557  -10.4786   20.9956 C   0  0  0  0  0  0  0  0  0  0  0  0
  -24.1233  -12.9969   20.8218 C   0  0  0  0  0  0  0  0  0  0  0  0
  -33.8926  -29.9016   14.0278 C   0  0  0  0  0  0  0  0  0  0  0  0
  -28.3173  -27.4181   19.4048 C   0  0  0  0  0  0  0  0  0  0  0  0
  -32.5882  -30.1228   14.5097 C   0  0  0  0  0  0  0  0  0  0  0  0
  -27.9538  -26.1036   19.0686 C   0  0  0  0  0  0  0  0  0  0  0  0
  -22.2392   -8.1984   21.5285 C   0  0  0  0  0  0  0  0  0  0  0  0
  -26.8858  -25.8508   21.2224 C   0  0  0  0  0  0  0  0  0  0  0  0
  -22.0902   -6.0802   22.5349 C   0  0  0  0  0  0  0  0  0  0  0  0
  -23.2820   -4.0522   24.0348 C   0  0  0  0  0  0  0  0  0  0  0  0
  -21.5269   -5.6877   23.7491 C   0  0  0  0  0  0  0  0  0  0  0  0
  -24.5395  -11.6559   20.7209 C   0  0  0  0  0  0  0  0  0  0  0  0
  -25.2273  -13.7276   20.4562 C   0  0  0  0  0  0  0  0  0  0  0  0
  -22.8522  -13.5341   21.2111 C   0  0  0  0  0  0  0  0  0  0  0  0
  -30.0489  -27.9783   16.1240 C   0  0  0  0  0  0  0  0  0  0  0  0
  -30.7412  -25.1278   17.0216 C   0  0  0  0  0  0  0  0  0  0  0  0
  -31.6013  -22.2105   18.5665 C   0  0  0  0  0  0  0  0  0  0  0  0
  -30.7175  -14.7000   20.6961 C   0  0  0  0  0  0  0  0  0  0  0  0
  -34.2745  -28.6188   13.3326 C   0  0  0  0  0  0  0  0  0  0  0  0
  -29.0263  -28.2497   18.3706 C   0  0  0  0  0  0  0  0  0  0  0  0
  -28.3381  -25.5916   17.7074 C   0  0  0  0  0  0  0  0  0  0  0  0
  -33.3002  -27.4725   13.5912 C   0  0  0  0  0  0  0  0  0  0  0  0
  -29.5895  -12.2711   18.3499 C   0  0  0  0  0  0  0  0  0  0  0  0
  -31.8604  -27.9471   13.4222 C   0  0  0  0  0  0  0  0  0  0  0  0
  -28.1436  -12.0008   18.7698 C   0  0  0  0  0  0  0  0  0  0  0  0
  -30.4924  -12.5114   19.5578 C   0  0  0  0  0  0  0  0  0  0  0  0
  -26.7749  -20.5444   22.7056 C   0  0  0  0  0  0  0  0  0  0  0  0
  -28.5792  -13.2922   20.9009 C   0  0  0  0  0  0  0  0  0  0  0  0
  -28.8887  -20.6510   21.6686 C   0  0  0  0  0  0  0  0  0  0  0  0
  -31.5219  -29.0519   14.4303 C   0  0  1  0  0  0  0  0  0  0  0  0
  -30.0232  -27.4384   17.5238 C   0  0  1  0  0  0  0  0  0  0  0  0
  -27.1165  -19.1391   22.1833 C   0  0  1  0  0  0  0  0  0  0  0  0
  -27.6194  -13.0992   19.7143 C   0  0  2  0  0  0  0  0  0  0  0  0
  -28.6278  -19.1910   21.9786 C   0  0  1  0  0  0  0  0  0  0  0  0
  -25.2035  -18.0326   23.3515 C   0  0  0  0  0  0  0  0  0  0  0  0
  -32.9799  -20.1395   18.2378 C   0  0  0  0  0  0  0  0  0  0  0  0
  -25.9639  -25.4356   24.4767 C   0  0  0  0  0  0  0  0  0  0  0  0
  -28.6363  -24.0355   15.1034 C   0  0  0  0  0  0  0  0  0  0  0  0
  -29.5154  -21.7362   15.5602 C   0  0  0  0  0  0  0  0  0  0  0  0
  -30.9938  -23.4490   14.5097 C   0  0  0  0  0  0  0  0  0  0  0  0
  -33.2749  -22.8088   20.9330 C   0  0  0  0  0  0  0  0  0  0  0  0
  -28.6503  -18.8663   19.5099 C   0  0  0  0  0  0  0  0  0  0  0  0
  -26.6815  -18.0238   23.1221 C   0  0  0  0  0  0  0  0  0  0  0  0
  -27.0282  -23.3310   23.5720 C   0  0  0  0  0  0  0  0  0  0  0  0
  -27.8584  -22.7115   22.4454 C   0  0  0  0  0  0  0  0  0  0  0  0
  -30.7873  -16.8781   21.8836 C   0  0  0  0  0  0  0  0  0  0  0  0
  -30.5291  -18.0011   20.8964 C   0  0  0  0  0  0  0  0  0  0  0  0
  -30.3946  -23.6619   16.9567 C   0  0  1  0  0  0  0  0  0  0  0  0
  -32.9497  -21.5528   18.7987 C   0  0  2  0  0  0  0  0  0  0  0  0
  -26.8262  -24.8373   23.3734 C   0  0  1  0  0  0  0  0  0  1  0  0
  -29.8759  -23.2372   15.5538 C   0  0  0  0  0  0  0  0  0  0  0  0
  -25.8090  -11.5387   20.3224 N   0  0  0  0  0  0  0  0  0  0  0  0
  -26.1998  -12.8153   20.1695 N   0  0  0  0  0  0  0  0  0  0  0  0
  -29.7125  -26.0056   17.3844 N   0  0  0  0  0  0  0  0  0  0  0  0
  -29.9398  -13.5653   20.4121 N   0  0  0  0  0  0  0  0  0  0  0  0
  -28.0427  -21.2882   22.6804 N   0  0  1  0  0  0  0  0  0  0  0  0
  -25.4514  -15.0550   20.3552 N   0  0  0  0  0  0  0  0  0  0  0  0
  -21.8272  -12.6425   21.5555 N   0  0  0  0  0  0  0  0  0  0  0  0
  -31.2757  -28.4843   15.7386 N   0  0  0  0  0  0  0  0  0  0  0  0
  -31.5840  -22.9412   17.3973 N   0  0  0  0  0  0  0  0  0  0  0  0
  -30.1160  -15.6537   21.5081 N   0  0  0  0  0  0  0  0  0  0  0  0
  -33.2493  -21.4862   20.2570 N   0  3  0  0  0  0  0  0  0  0  0  0
  -29.0519  -18.3237   20.8632 N   0  3  1  0  0  0  0  0  0  0  0  0
  -22.6270  -14.7679   21.2367 O   0  0  0  0  0  0  0  0  0  0  0  0
  -29.0316  -27.9380   15.4421 O   0  0  0  0  0  0  0  0  0  0  0  0
  -31.8907  -25.4882   16.7530 O   0  0  0  0  0  0  0  0  0  0  0  0
  -30.6567  -22.0852   19.3427 O   0  0  0  0  0  0  0  0  0  0  0  0
  -31.8611  -14.8543   20.2542 O   0  0  0  0  0  0  0  0  0  0  0  0
  -21.4993   -7.0861   21.7889 O   0  0  0  0  0  0  0  0  0  0  0  0
  -26.1988  -25.0867   22.1162 O   0  0  0  0  0  0  0  0  0  1  0  0
  -23.8535   -3.0774   24.7541 F   0  0  0  0  0  0  0  0  0  0  0  0
  -20.4126   -6.2804   24.1998 F   0  0  0  0  0  0  0  0  0  0  0  0
  1  2  1  0  0  0  0
  1  5  2  0  0  0  0
  2  6  2  0  0  0  0
  3  8  2  0  0  0  0
  3 15  1  0  0  0  0
  4  9  1  0  0  0  0
  4 15  2  0  0  0  0
  5 17  1  0  0  0  0
  6 19  1  0  0  0  0
  7 10  2  0  0  0  0
  7 18  1  0  0  0  0
  8 21  1  0  0  0  0
  9 21  2  0  0  0  0
 10 22  1  0  0  0  0
 11 12  2  0  0  0  0
 11 23  1  0  0  0  0
 12 24  1  0  0  0  0
 13 20  1  0  0  0  0
 13 22  2  0  0  0  0
 14 24  2  0  0  0  0
 14 25  1  0  0  0  0
 15 26  1  0  0  0  0
 16 26  1  0  0  0  0
 16 27  2  0  0  0  0
 16 28  1  0  0  0  0
 17 19  2  0  0  0  0
 17 33  1  0  0  0  0
 18 20  2  0  0  0  0
 18 34  1  0  0  0  0
 19 44  1  0  0  0  0
 20 35  1  0  0  0  0
 21 83  1  0  0  0  0
 22 84  1  0  0  0  0
 23 25  2  0  0  0  0
 23 83  1  0  0  0  0
 24 85  1  0  0  0  0
 25 86  1  0  0  0  0
 26 66  2  0  0  0  0
 27 67  1  0  0  0  0
 27 71  1  0  0  0  0
 28 72  1  0  0  0  0
 28 78  2  0  0  0  0
 29 45  1  0  0  0  0
 29 73  1  0  0  0  0
 29 79  2  0  0  0  0
 30 62  1  0  0  0  0
 30 68  1  0  0  0  0
 30 80  2  0  0  0  0
 31 63  1  0  0  0  0
 31 74  1  0  0  0  0
 31 81  2  0  0  0  0
 32 69  1  0  0  0  0
 32 75  1  0  0  0  0
 32 82  2  0  0  0  0
 33 36  1  0  0  0  0
 34 45  1  0  0  0  0
 35 68  1  0  0  0  0
 36 38  1  0  0  0  0
 37 39  1  0  0  0  0
 37 40  1  0  0  0  0
 38 44  1  0  0  0  0
 39 47  1  0  0  0  0
 40 69  1  0  0  0  0
 41 46  1  0  0  0  0
 41 70  1  0  0  0  0
 42 47  1  0  0  0  0
 42 69  1  0  0  0  0
 43 48  1  0  0  0  0
 43 70  1  0  0  0  0
 44 73  1  0  0  0  0
 45 68  1  0  0  0  0
 46 48  1  0  0  0  0
 46 57  1  0  0  0  0
 47 67  1  0  0  0  0
 48 77  1  0  0  0  0
 49 57  1  0  0  0  0
 50 63  1  0  0  0  0
 51 64  1  0  0  0  0
 52 65  1  0  0  0  0
 53 65  1  0  0  0  0
 54 65  1  0  0  0  0
 55 76  1  0  0  0  0
 56 77  1  0  0  0  0
 58 59  1  0  0  0  0
 58 64  1  0  0  0  0
 59 70  1  0  0  0  0
 60 61  1  0  0  0  0
 60 75  1  0  0  0  0
 61 77  1  0  0  0  0
 62 65  1  0  0  0  0
 62 74  1  0  0  0  0
 63 76  1  0  0  0  0
 64 84  1  0  0  0  0
 66 67  1  0  0  0  0
M  CHG  2  76   1  77   1
M  ISO  4  32 100  64 101  75 100  84 101
M  END
> <Batch ID>
0110

> <Smiles>
CCC1CN(CC[101CH:1](C)[101O:1]c2ccc3c(c2)CN(C(=O)C(NC(=O)C(C)NC)C(C)(C)C)C(C(=O)NC2CCCc4ccccc42)C3)CC1N(C)CC[100NH:0][100C:0](=O)N1CCCC(n2nc(-c3ccc(Oc4ccc(F)cc4F)cc3)c(C(N)=O)c2N)C1

> <Shape>
0.255

> <Color>
0.190

> <Negative vol penalty>
0.000

$$$$

  -OEChem-04052319583D

 82 90  0     1  0  0  0  0  0999 V2000
  -29.8188  -35.2299   27.3568 C   0  0  0  0  0  0  0  0  0  0  0  0
  -30.1655  -34.3119   26.3707 C   0  0  0  0  0  0  0  0  0  0  0  0
  -26.8301  -12.7355   21.0657 C   0  0  0  0  0  0  0  0  0  0  0  0
  -26.0695  -13.7357   19.0022 C   0  0  0  0  0  0  0  0  0  0  0  0
  -28.6694  -35.0302   28.1204 C   0  0  0  0  0  0  0  0  0  0  0  0
  -29.3637  -33.1929   26.1484 C   0  0  0  0  0  0  0  0  0  0  0  0
  -28.2599  -30.4629   20.7786 C   0  0  0  0  0  0  0  0  0  0  0  0
  -26.0825  -11.5915   20.7868 C   0  0  0  0  0  0  0  0  0  0  0  0
  -25.3219  -12.5916   18.7232 C   0  0  0  0  0  0  0  0  0  0  0  0
  -28.8081  -29.3349   20.1696 C   0  0  0  0  0  0  0  0  0  0  0  0
  -22.8515  -10.6186   20.9833 C   0  0  0  0  0  0  0  0  0  0  0  0
  -22.0945  -10.0715   22.0192 C   0  0  0  0  0  0  0  0  0  0  0  0
  -26.9862  -27.9997   21.0164 C   0  0  0  0  0  0  0  0  0  0  0  0
  -23.3299   -8.0038   21.8301 C   0  0  0  0  0  0  0  0  0  0  0  0
  -26.8235  -13.8077   20.1735 C   0  0  0  0  0  0  0  0  0  0  0  0
  -28.9296  -15.2449   20.0927 C   0  0  0  0  0  0  0  0  0  0  0  0
  -27.8479  -33.9133   27.9008 C   0  0  0  0  0  0  0  0  0  0  0  0
  -27.0745  -30.3655   21.5214 C   0  0  0  0  0  0  0  0  0  0  0  0
  -28.2030  -32.9774   26.9107 C   0  0  0  0  0  0  0  0  0  0  0  0
  -26.4236  -29.1284   21.6317 C   0  0  0  0  0  0  0  0  0  0  0  0
  -25.3284  -11.5195   19.6156 C   0  0  0  0  0  0  0  0  0  0  0  0
  -28.1728  -28.1025   20.2909 C   0  0  0  0  0  0  0  0  0  0  0  0
  -23.8477   -9.8583   20.3707 C   0  0  0  0  0  0  0  0  0  0  0  0
  -22.3337   -8.7641   22.4426 C   0  0  0  0  0  0  0  0  0  0  0  0
  -24.0869   -8.5510   20.7941 C   0  0  0  0  0  0  0  0  0  0  0  0
  -27.5951  -14.9900   20.4613 C   0  0  0  0  0  0  0  0  0  0  0  0
  -29.1934  -16.4938   20.5998 C   0  0  0  0  0  0  0  0  0  0  0  0
  -29.8486  -14.4259   19.3576 C   0  0  0  0  0  0  0  0  0  0  0  0
  -26.2813  -30.8749   24.5571 C   0  0  0  0  0  0  0  0  0  0  0  0
  -23.2805  -30.3134   23.4606 C   0  0  0  0  0  0  0  0  0  0  0  0
  -21.2806  -28.8705   21.1016 C   0  0  0  0  0  0  0  0  0  0  0  0
  -27.5205  -21.8305   21.3575 C   0  0  0  0  0  0  0  0  0  0  0  0
  -26.6410  -33.7151   28.7833 C   0  0  0  0  0  0  0  0  0  0  0  0
  -26.4817  -31.5968   22.1498 C   0  0  0  0  0  0  0  0  0  0  0  0
  -25.1380  -28.9746   22.4011 C   0  0  0  0  0  0  0  0  0  0  0  0
  -25.6432  -32.7000   28.2318 C   0  0  0  0  0  0  0  0  0  0  0  0
  -26.6075  -19.3736   23.8207 C   0  0  0  0  0  0  0  0  0  0  0  0
  -26.3667  -31.4431   27.7589 C   0  0  0  0  0  0  0  0  0  0  0  0
  -26.8354  -18.0374   23.1218 C   0  0  0  0  0  0  0  0  0  0  0  0
  -26.1260  -20.4288   22.8340 C   0  0  0  0  0  0  0  0  0  0  0  0
  -27.3335  -19.3127   20.9757 C   0  0  0  0  0  0  0  0  0  0  0  0
  -27.2348  -21.6507   18.7597 C   0  0  0  0  0  0  0  0  0  0  0  0
  -28.3782  -23.3059   19.4574 C   0  0  0  0  0  0  0  0  0  0  0  0
  -27.3454  -31.7642   26.6229 C   0  0  1  0  0  0  0  0  0  0  0  0
  -25.5451  -31.2825   23.3123 C   0  0  1  0  0  0  0  0  0  0  0  0
  -27.8032  -18.2072   21.9420 C   0  0  2  0  0  0  0  0  0  0  0  0
  -27.4407  -23.0886   18.2641 C   0  0  0  0  0  0  0  0  0  0  0  0
  -18.8670  -28.5513   20.4932 C   0  0  0  0  0  0  0  0  0  0  0  0
  -25.3036  -24.2789   16.3481 C   0  0  0  0  0  0  0  0  0  0  0  0
  -26.5145  -23.2342   14.4213 C   0  0  0  0  0  0  0  0  0  0  0  0
  -23.0102  -28.2045   25.6492 C   0  0  0  0  0  0  0  0  0  0  0  0
  -21.0269  -27.2894   24.4256 C   0  0  0  0  0  0  0  0  0  0  0  0
  -20.9778  -29.6217   25.3093 C   0  0  0  0  0  0  0  0  0  0  0  0
  -21.6222  -30.2878   18.5260 C   0  0  0  0  0  0  0  0  0  0  0  0
  -29.4000  -25.9706   17.6016 C   0  0  0  0  0  0  0  0  0  0  0  0
  -27.9634  -25.6267   17.1827 C   0  0  0  0  0  0  0  0  0  0  0  0
  -29.4550  -27.2011   18.5022 C   0  0  0  0  0  0  0  0  0  1  0  0
  -22.4136  -29.0883   23.2978 C   0  0  1  0  0  0  0  0  0  0  0  0
  -20.1060  -29.4136   20.3080 C   0  0  2  0  0  0  0  0  0  0  0  0
  -26.5373  -24.3755   15.4451 C   0  0  0  0  0  0  0  0  0  0  0  0
  -27.8828  -24.4382   16.2094 C   0  0  2  0  0  0  0  0  0  0  0  0
  -21.8824  -28.5531   24.6575 C   0  0  0  0  0  0  0  0  0  0  0  0
  -27.0492  -15.9961   21.1496 N   0  0  0  0  0  0  0  0  0  0  0  0
  -28.0457  -16.8953   21.2176 N   0  0  0  0  0  0  0  0  0  0  0  0
  -24.6014  -30.2065   23.0027 N   0  0  0  0  0  0  0  0  0  0  0  0
  -27.0269  -20.5627   21.6851 N   0  0  0  0  0  0  0  0  0  0  0  0
  -27.7726  -22.1077   20.0337 N   0  0  0  0  0  0  0  0  0  0  0  0
  -30.2929  -17.2766   20.5732 N   0  0  0  0  0  0  0  0  0  0  0  0
  -29.4145  -13.1707   18.9101 N   0  0  0  0  0  0  0  0  0  0  0  0
  -26.6330  -31.9321   25.3744 N   0  0  0  0  0  0  0  0  0  0  0  0
  -21.3669  -29.4521   22.3488 N   0  0  0  0  0  0  0  0  0  0  0  0
  -28.1185  -23.1699   16.9651 N   0  3  0  0  0  0  0  0  0  0  0  0
  -20.4370  -29.4550   18.8555 N   0  3  0  0  0  0  0  0  0  0  0  0
  -31.0253  -14.7894   19.1191 O   0  0  0  0  0  0  0  0  0  0  0  0
  -26.5119  -29.6888   24.7616 O   0  0  0  0  0  0  0  0  0  0  0  0
  -22.8013  -31.3301   23.9687 O   0  0  0  0  0  0  0  0  0  0  0  0
  -22.0430  -28.0132   20.6607 O   0  0  0  0  0  0  0  0  0  0  0  0
  -27.7024  -22.7028   22.2171 O   0  0  0  0  0  0  0  0  0  0  0  0
  -24.5990  -10.4032   19.3429 O   0  0  0  0  0  0  0  0  0  0  0  0
  -28.7101  -26.9916   19.6936 O   0  0  0  0  0  0  0  0  0  1  0  0
  -21.6076   -8.2394   23.4385 F   0  0  0  0  0  0  0  0  0  0  0  0
  -25.0434   -7.8161   20.2103 F   0  0  0  0  0  0  0  0  0  0  0  0
  1  2  1  0  0  0  0
  1  5  2  0  0  0  0
  2  6  2  0  0  0  0
  3  8  2  0  0  0  0
  3 15  1  0  0  0  0
  4  9  1  0  0  0  0
  4 15  2  0  0  0  0
  5 17  1  0  0  0  0
  6 19  1  0  0  0  0
  7 10  2  0  0  0  0
  7 18  1  0  0  0  0
  8 21  1  0  0  0  0
  9 21  2  0  0  0  0
 10 22  1  0  0  0  0
 11 12  2  0  0  0  0
 11 23  1  0  0  0  0
 12 24  1  0  0  0  0
 13 20  1  0  0  0  0
 13 22  2  0  0  0  0
 14 24  2  0  0  0  0
 14 25  1  0  0  0  0
 15 26  1  0  0  0  0
 16 26  1  0  0  0  0
 16 27  2  0  0  0  0
 16 28  1  0  0  0  0
 17 19  2  0  0  0  0
 17 33  1  0  0  0  0
 18 20  2  0  0  0  0
 18 34  1  0  0  0  0
 19 44  1  0  0  0  0
 20 35  1  0  0  0  0
 21 79  1  0  0  0  0
 22 80  1  0  0  0  0
 23 25  2  0  0  0  0
 23 79  1  0  0  0  0
 24 81  1  0  0  0  0
 25 82  1  0  0  0  0
 26 63  2  0  0  0  0
 27 64  1  0  0  0  0
 27 68  1  0  0  0  0
 28 69  1  0  0  0  0
 28 74  2  0  0  0  0
 29 45  1  0  0  0  0
 29 70  1  0  0  0  0
 29 75  2  0  0  0  0
 30 58  1  0  0  0  0
 30 65  1  0  0  0  0
 30 76  2  0  0  0  0
 31 59  1  0  0  0  0
 31 71  1  0  0  0  0
 31 77  2  0  0  0  0
 32 66  1  0  0  0  0
 32 67  1  0  0  0  0
 32 78  2  0  0  0  0
 33 36  1  0  0  0  0
 34 45  1  0  0  0  0
 35 65  1  0  0  0  0
 36 38  1  0  0  0  0
 37 39  1  0  0  0  0
 37 40  1  0  0  0  0
 38 44  1  0  0  0  0
 39 46  1  0  0  0  0
 40 66  1  0  0  0  0
 41 46  1  0  0  0  0
 41 66  1  0  0  0  0
 42 47  1  0  0  0  0
 42 67  1  0  0  0  0
 43 47  1  0  0  0  0
 43 67  1  0  0  0  0
 44 70  1  0  0  0  0
 45 65  1  0  0  0  0
 46 64  1  0  0  0  0
 47 72  1  0  0  0  0
 48 59  1  0  0  0  0
 49 60  1  0  0  0  0
 50 60  1  0  0  0  0
 51 62  1  0  0  0  0
 52 62  1  0  0  0  0
 53 62  1  0  0  0  0
 54 73  1  0  0  0  0
 55 56  1  0  0  0  0
 55 57  1  0  0  0  0
 56 61  1  0  0  0  0
 57 80  1  0  0  0  0
 58 62  1  0  0  0  0
 58 71  1  0  0  0  0
 59 73  1  0  0  0  0
 60 61  1  0  0  0  0
 61 72  1  0  0  0  0
 63 64  1  0  0  0  0
M  CHG  2  72   1  73   1
M  ISO  4  32 100  57 101  67 100  80 101
M  END
> <Batch ID>
0110

> <Smiles>
CNC(C)C(=O)NC(C(=O)N1Cc2cc([101O:1][101CH2:1]CCC(NC3C[100N:0]([100C:0](=O)N4CCCC(n5nc(-c6ccc(Oc7ccc(F)cc7F)cc6)c(C(N)=O)c5N)C4)C3)C(C)C)ccc2CC1C(=O)NC1CCCc2ccccc21)C(C)(C)C

> <Shape>
0.252

> <Color>
0.081

> <Negative vol penalty>
0.000

$$$$

  -OEChem-04052319583D

 81 89  0     1  0  0  0  0  0999 V2000
  -17.7012  -24.8136   24.6845 C   0  0  0  0  0  0  0  0  0  0  0  0
  -18.4110  -24.1353   23.6989 C   0  0  0  0  0  0  0  0  0  0  0  0
  -26.4125  -12.0226   20.5391 C   0  0  0  0  0  0  0  0  0  0  0  0
  -24.5567  -13.5439   20.2585 C   0  0  0  0  0  0  0  0  0  0  0  0
  -17.7322  -26.2067   24.7304 C   0  0  0  0  0  0  0  0  0  0  0  0
  -19.1513  -24.8498   22.7578 C   0  0  0  0  0  0  0  0  0  0  0  0
  -26.7307  -24.3525   20.9320 C   0  0  0  0  0  0  0  0  0  0  0  0
  -25.5414  -11.0508   21.0315 C   0  0  0  0  0  0  0  0  0  0  0  0
  -23.6856  -12.5721   20.7509 C   0  0  0  0  0  0  0  0  0  0  0  0
  -28.0882  -24.4673   20.6319 C   0  0  0  0  0  0  0  0  0  0  0  0
  -23.3246   -8.8269   19.7772 C   0  0  0  0  0  0  0  0  0  0  0  0
  -23.4658   -7.5257   19.2951 C   0  0  0  0  0  0  0  0  0  0  0  0
  -27.7596  -26.7719   19.9773 C   0  0  0  0  0  0  0  0  0  0  0  0
  -23.8951   -6.7408   21.5394 C   0  0  0  0  0  0  0  0  0  0  0  0
  -29.7209  -23.7391   16.2138 C   0  0  0  0  0  0  0  0  0  0  0  0
  -28.7467  -21.7335   16.7216 C   0  0  0  0  0  0  0  0  0  0  0  0
  -25.9202  -13.2692   20.1527 C   0  0  0  0  0  0  0  0  0  0  0  0
  -27.1920  -14.4808   18.3028 C   0  0  0  0  0  0  0  0  0  0  0  0
  -18.4811  -26.9383   23.7952 C   0  0  0  0  0  0  0  0  0  0  0  0
  -25.8843  -25.4530   20.7703 C   0  0  0  0  0  0  0  0  0  0  0  0
  -19.1913  -26.2541   22.7903 C   0  0  0  0  0  0  0  0  0  0  0  0
  -26.4013  -26.6666   20.2881 C   0  0  0  0  0  0  0  0  0  0  0  0
  -24.1780  -11.3256   21.1374 C   0  0  0  0  0  0  0  0  0  0  0  0
  -28.6013  -25.6739   20.1555 C   0  0  0  0  0  0  0  0  0  0  0  0
  -23.4688   -9.0852   21.1404 C   0  0  0  0  0  0  0  0  0  0  0  0
  -23.7510   -6.4826   20.1762 C   0  0  0  0  0  0  0  0  0  0  0  0
  -23.7540   -8.0421   22.0215 C   0  0  0  0  0  0  0  0  0  0  0  0
  -26.8196  -14.2736   19.6445 C   0  0  0  0  0  0  0  0  0  0  0  0
  -30.2577  -23.7993   17.4809 C   0  0  0  0  0  0  0  0  0  0  0  0
  -29.2841  -21.7932   17.9886 C   0  0  0  0  0  0  0  0  0  0  0  0
  -28.0577  -15.5462   18.3474 C   0  0  0  0  0  0  0  0  0  0  0  0
  -26.7913  -13.7734   17.1218 C   0  0  0  0  0  0  0  0  0  0  0  0
  -22.4096  -26.8358   21.0707 C   0  0  0  0  0  0  0  0  0  0  0  0
  -24.3278  -29.0302   22.0277 C   0  0  0  0  0  0  0  0  0  0  0  0
  -26.7382  -31.0203   23.3938 C   0  0  0  0  0  0  0  0  0  0  0  0
  -29.4656  -20.6040   20.2020 C   0  0  0  0  0  0  0  0  0  0  0  0
  -18.4460  -28.4449   23.8561 C   0  0  0  0  0  0  0  0  0  0  0  0
  -24.4041  -25.3572   21.0227 C   0  0  0  0  0  0  0  0  0  0  0  0
  -25.4471  -27.8137   20.0969 C   0  0  0  0  0  0  0  0  0  0  0  0
  -19.5568  -29.1131   23.0499 C   0  0  0  0  0  0  0  0  0  0  0  0
  -30.2693  -17.8310   22.2856 C   0  0  0  0  0  0  0  0  0  0  0  0
  -19.6668  -28.4804   21.6663 C   0  0  0  0  0  0  0  0  0  0  0  0
  -29.4741  -16.6754   21.6739 C   0  0  0  0  0  0  0  0  0  0  0  0
  -29.4995  -19.1487   22.2159 C   0  0  0  0  0  0  0  0  0  0  0  0
  -28.2160  -18.3568   20.2679 C   0  0  0  0  0  0  0  0  0  0  0  0
  -20.0260  -26.9930   21.7669 C   0  0  1  0  0  0  0  0  0  0  0  0
  -23.8041  -26.6544   21.5940 C   0  0  1  0  0  0  0  0  0  0  0  0
  -28.9774  -17.0212   20.2564 C   0  0  2  0  0  0  0  0  0  0  0  0
  -27.0572  -33.2472   24.5057 C   0  0  0  0  0  0  0  0  0  0  0  0
  -30.9953  -27.4587   18.5261 C   0  0  0  0  0  0  0  0  0  0  0  0
  -24.0589  -30.4148   19.3232 C   0  0  0  0  0  0  0  0  0  0  0  0
  -25.2858  -32.3743   20.2841 C   0  0  0  0  0  0  0  0  0  0  0  0
  -23.0901  -31.6855   21.2470 C   0  0  0  0  0  0  0  0  0  0  0  0
  -27.7576  -29.7666   25.8734 C   0  0  0  0  0  0  0  0  0  0  0  0
  -31.1145  -24.9789   17.8991 C   0  0  1  0  0  0  0  0  0  0  0  0
  -25.1312  -30.2537   21.6663 C   0  0  1  0  0  0  0  0  0  0  0  0
  -26.8014  -31.7630   24.7163 C   0  0  2  0  0  0  0  0  0  0  0  0
  -30.2770  -26.1123   18.5253 C   0  0  1  0  0  0  0  0  0  1  0  0
  -24.4032  -31.1561   20.6304 C   0  0  0  0  0  0  0  0  0  0  0  0
  -28.9557  -22.7052   15.8113 N   0  0  0  0  0  0  0  0  0  0  0  0
  -27.4011  -15.1379   20.4804 N   0  0  0  0  0  0  0  0  0  0  0  0
  -30.0490  -22.8274   18.3911 N   0  0  0  0  0  0  0  0  0  0  0  0
  -28.1479  -15.8985   19.6619 N   0  0  0  0  0  0  0  0  0  0  0  0
  -24.5197  -27.8910   21.2366 N   0  0  0  0  0  0  0  0  0  0  0  0
  -29.0643  -19.4127   20.8427 N   0  0  0  0  0  0  0  0  0  0  0  0
  -28.7430  -16.2066   17.3900 N   0  0  0  0  0  0  0  0  0  0  0  0
  -25.8953  -12.7039   17.2553 N   0  0  0  0  0  0  0  0  0  0  0  0
  -29.0182  -20.7305   18.8872 N   0  0  0  0  0  0  0  0  0  0  0  0
  -21.4358  -26.8316   22.0511 N   0  0  0  0  0  0  0  0  0  0  0  0
  -25.4455  -30.9221   22.9245 N   0  0  0  0  0  0  0  0  0  0  0  0
  -32.2344  -24.6025   18.8185 N   0  3  0  0  0  0  0  0  0  0  0  0
  -27.8948  -31.2138   25.5671 N   0  3  0  0  0  0  0  0  0  0  0  0
  -27.2279  -14.0702   15.9839 O   0  0  0  0  0  0  0  0  0  0  0  0
  -22.2291  -26.9713   19.8663 O   0  0  0  0  0  0  0  0  0  0  0  0
  -23.5462  -29.0819   22.9815 O   0  0  0  0  0  0  0  0  0  0  0  0
  -27.7363  -30.5752   22.8315 O   0  0  0  0  0  0  0  0  0  0  0  0
  -30.1779  -21.4371   20.7681 O   0  0  0  0  0  0  0  0  0  0  0  0
  -23.3276  -10.3775   21.6176 O   0  0  0  0  0  0  0  0  0  0  0  0
  -29.9284  -25.7803   19.8687 O   0  0  0  0  0  0  0  0  0  1  0  0
  -23.8849   -5.2328   19.7133 F   0  0  0  0  0  0  0  0  0  0  0  0
  -23.8925   -8.2838   23.3323 F   0  0  0  0  0  0  0  0  0  0  0  0
  1  2  1  0  0  0  0
  1  5  2  0  0  0  0
  2  6  2  0  0  0  0
  3  8  2  0  0  0  0
  3 17  1  0  0  0  0
  4  9  1  0  0  0  0
  4 17  2  0  0  0  0
  5 19  1  0  0  0  0
  6 21  1  0  0  0  0
  7 10  2  0  0  0  0
  7 20  1  0  0  0  0
  8 23  1  0  0  0  0
  9 23  2  0  0  0  0
 10 24  1  0  0  0  0
 11 12  2  0  0  0  0
 11 25  1  0  0  0  0
 12 26  1  0  0  0  0
 13 22  1  0  0  0  0
 13 24  2  0  0  0  0
 14 26  2  0  0  0  0
 14 27  1  0  0  0  0
 15 29  1  0  0  0  0
 15 60  2  0  0  0  0
 16 30  2  0  0  0  0
 16 60  1  0  0  0  0
 17 28  1  0  0  0  0
 18 28  1  0  0  0  0
 18 31  2  0  0  0  0
 18 32  1  0  0  0  0
 19 21  2  0  0  0  0
 19 37  1  0  0  0  0
 20 22  2  0  0  0  0
 20 38  1  0  0  0  0
 21 46  1  0  0  0  0
 22 39  1  0  0  0  0
 23 78  1  0  0  0  0
 24 79  1  0  0  0  0
 25 27  2  0  0  0  0
 25 78  1  0  0  0  0
 26 80  1  0  0  0  0
 27 81  1  0  0  0  0
 28 61  2  0  0  0  0
 29 55  1  0  0  0  0
 29 62  2  0  0  0  0
 30 62  1  0  0  0  0
 30 68  1  0  0  0  0
 31 63  1  0  0  0  0
 31 66  1  0  0  0  0
 32 67  1  0  0  0  0
 32 73  2  0  0  0  0
 33 47  1  0  0  0  0
 33 69  1  0  0  0  0
 33 74  2  0  0  0  0
 34 56  1  0  0  0  0
 34 64  1  0  0  0  0
 34 75  2  0  0  0  0
 35 57  1  0  0  0  0
 35 70  1  0  0  0  0
 35 76  2  0  0  0  0
 36 65  1  0  0  0  0
 36 68  1  0  0  0  0
 36 77  2  0  0  0  0
 37 40  1  0  0  0  0
 38 47  1  0  0  0  0
 39 64  1  0  0  0  0
 40 42  1  0  0  0  0
 41 43  1  0  0  0  0
 41 44  1  0  0  0  0
 42 46  1  0  0  0  0
 43 48  1  0  0  0  0
 44 65  1  0  0  0  0
 45 48  1  0  0  0  0
 45 65  1  0  0  0  0
 46 69  1  0  0  0  0
 47 64  1  0  0  0  0
 48 63  1  0  0  0  0
 49 57  1  0  0  0  0
 50 58  1  0  0  0  0
 51 59  1  0  0  0  0
 52 59  1  0  0  0  0
 53 59  1  0  0  0  0
 54 72  1  0  0  0  0
 55 58  1  0  0  0  0
 55 71  1  0  0  0  0
 56 59  1  0  0  0  0
 56 70  1  0  0  0  0
 57 72  1  0  0  0  0
 58 79  1  0  0  0  0
 61 63  1  0  0  0  0
M  CHG  2  71   1  72   1
M  ISO  4  36 100  58 101  68 100  79 101
M  END
> <Batch ID>
0110

> <Smiles>
CNC(C)C(=O)NC(C(=O)N1Cc2cc([101O:1][101CH:1](C)C(N)c3cncc([100NH:0][100C:0](=O)N4CCCC(n5nc(-c6ccc(Oc7ccc(F)cc7F)cc6)c(C(N)=O)c5N)C4)n3)ccc2CC1C(=O)NC1CCCc2ccccc21)C(C)(C)C

> <Shape>
0.324

> <Color>
0.063

> <Negative vol penalty>
0.000

$$$$

  -OEChem-04052319583D

 85 93  0     1  0  0  0  0  0999 V2000
  -36.2490  -20.5427   22.5101 C   0  0  0  0  0  0  0  0  0  0  0  0
  -35.0562  -21.1649   22.1558 C   0  0  0  0  0  0  0  0  0  0  0  0
  -32.1491  -26.4837   19.5257 C   0  0  0  0  0  0  0  0  0  0  0  0
  -31.4194  -24.6021   20.8538 C   0  0  0  0  0  0  0  0  0  0  0  0
  -36.4849  -19.2222   22.1299 C   0  0  0  0  0  0  0  0  0  0  0  0
  -34.0989  -20.4671   21.4201 C   0  0  0  0  0  0  0  0  0  0  0  0
  -28.0132  -20.9813   21.8733 C   0  0  0  0  0  0  0  0  0  0  0  0
  -33.4486  -26.3178   20.0045 C   0  0  0  0  0  0  0  0  0  0  0  0
  -32.7190  -24.4361   21.3326 C   0  0  0  0  0  0  0  0  0  0  0  0
  -27.0732  -21.6877   21.1243 C   0  0  0  0  0  0  0  0  0  0  0  0
  -35.1813  -27.0540   22.8117 C   0  0  0  0  0  0  0  0  0  0  0  0
  -35.8714  -28.1954   23.2199 C   0  0  0  0  0  0  0  0  0  0  0  0
  -26.6266  -19.7046   19.8255 C   0  0  0  0  0  0  0  0  0  0  0  0
  -37.5756  -27.7570   21.5644 C   0  0  0  0  0  0  0  0  0  0  0  0
  -20.2877  -25.3137   22.0080 C   0  0  0  0  0  0  0  0  0  0  0  0
  -31.1345  -25.6259   19.9504 C   0  0  0  0  0  0  0  0  0  0  0  0
  -29.2258  -25.2073   18.3104 C   0  0  0  0  0  0  0  0  0  0  0  0
  -35.5259  -18.5048   21.3975 C   0  0  0  0  0  0  0  0  0  0  0  0
  -28.2753  -19.6318   21.5965 C   0  0  0  0  0  0  0  0  0  0  0  0
  -34.3227  -19.1362   21.0287 C   0  0  0  0  0  0  0  0  0  0  0  0
  -27.5686  -18.9825   20.5742 C   0  0  0  0  0  0  0  0  0  0  0  0
  -33.7336  -25.2940   20.9079 C   0  0  0  0  0  0  0  0  0  0  0  0
  -26.3818  -21.0502   20.0983 C   0  0  0  0  0  0  0  0  0  0  0  0
  -35.6883  -26.2641   21.7799 C   0  0  0  0  0  0  0  0  0  0  0  0
  -37.0685  -28.5469   22.5963 C   0  0  0  0  0  0  0  0  0  0  0  0
  -36.8855  -26.6156   21.1562 C   0  0  0  0  0  0  0  0  0  0  0  0
  -29.7917  -25.7971   19.4565 C   0  0  0  0  0  0  0  0  0  0  0  0
  -19.9253  -26.3494   22.8221 C   0  0  0  0  0  0  0  0  0  0  0  0
  -27.9380  -25.6837   18.2794 C   0  0  0  0  0  0  0  0  0  0  0  0
  -22.0308  -25.8328   23.2701 C   0  0  0  0  0  0  0  0  0  0  0  0
  -29.8119  -24.3090   17.3589 C   0  0  0  0  0  0  0  0  0  0  0  0
  -30.8298  -17.9897   20.6576 C   0  0  0  0  0  0  0  0  0  0  0  0
  -28.8873  -15.4386   21.1487 C   0  0  0  0  0  0  0  0  0  0  0  0
  -25.7080  -14.2158   21.3581 C   0  0  0  0  0  0  0  0  0  0  0  0
  -24.2462  -27.7353   22.5235 C   0  0  0  0  0  0  0  0  0  0  0  0
  -35.8457  -17.0947   20.9686 C   0  0  0  0  0  0  0  0  0  0  0  0
  -29.2730  -18.8766   22.4312 C   0  0  0  0  0  0  0  0  0  0  0  0
  -27.7984  -17.5297   20.2503 C   0  0  0  0  0  0  0  0  0  0  0  0
  -34.6220  -16.3045   20.5122 C   0  0  0  0  0  0  0  0  0  0  0  0
  -25.3093  -29.4587   19.5949 C   0  0  0  0  0  0  0  0  0  0  0  0
  -33.7718  -17.1397   19.5602 C   0  0  0  0  0  0  0  0  0  0  0  0
  -26.5276  -28.6624   19.1239 C   0  0  0  0  0  0  0  0  0  0  0  0
  -25.2312  -29.5221   21.1187 C   0  0  0  0  0  0  0  0  0  0  0  0
  -26.4954  -27.4167   21.3252 C   0  0  0  0  0  0  0  0  0  0  0  0
  -33.2494  -18.4045   20.2524 C   0  0  1  0  0  0  0  0  0  0  0  0
  -29.8312  -17.6444   21.7258 C   0  0  1  0  0  0  0  0  0  0  0  0
  -26.5863  -27.2775   19.7960 C   0  0  2  0  0  0  0  0  0  0  0  0
  -18.7772  -28.5956   22.6533 C   0  0  0  0  0  0  0  0  0  0  0  0
  -24.4380  -12.0841   21.7325 C   0  0  0  0  0  0  0  0  0  0  0  0
  -23.4897  -23.3423   17.9260 C   0  0  0  0  0  0  0  0  0  0  0  0
  -29.5366  -14.5545   18.3015 C   0  0  0  0  0  0  0  0  0  0  0  0
  -27.5643  -13.0157   18.4039 C   0  0  0  0  0  0  0  0  0  0  0  0
  -29.4722  -12.7018   19.9800 C   0  0  0  0  0  0  0  0  0  0  0  0
  -24.4046  -15.2836   23.7912 C   0  0  0  0  0  0  0  0  0  0  0  0
  -23.3820  -25.8481   23.8839 C   0  0  0  0  0  0  0  0  0  0  0  0
  -22.5542  -24.0976   20.1263 C   0  0  0  0  0  0  0  0  0  0  0  0
  -22.4097  -23.9309   21.6454 C   0  0  0  0  0  0  0  0  0  0  0  0
  -24.7742  -22.8010   20.0204 C   0  0  0  0  0  0  0  0  0  1  0  0
  -18.6635  -27.0826   22.9522 C   0  0  2  0  0  0  0  0  0  0  0  0
  -27.9081  -14.6618   20.3021 C   0  0  1  0  0  0  0  0  0  0  0  0
  -25.0391  -13.3195   22.3846 C   0  0  2  0  0  0  0  0  0  0  0  0
  -23.3772  -22.9997   19.4171 C   0  0  2  0  0  0  0  0  0  0  0  0
  -28.6171  -13.7614   19.2515 C   0  0  0  0  0  0  0  0  0  0  0  0
  -28.9338  -26.5879   20.1065 N   0  0  0  0  0  0  0  0  0  0  0  0
  -21.5954  -25.0149   22.3063 N   0  0  0  0  0  0  0  0  0  0  0  0
  -27.8157  -26.4984   19.3663 N   0  0  0  0  0  0  0  0  0  0  0  0
  -21.0228  -26.6498   23.5924 N   0  3  0  0  0  0  0  0  0  0  0  0
  -28.7885  -16.8360   21.0905 N   0  0  0  0  0  0  0  0  0  0  0  0
  -25.2903  -28.1761   21.6937 N   0  0  0  0  0  0  0  0  0  0  0  0
  -26.9096  -25.4810   17.4286 N   0  0  0  0  0  0  0  0  0  0  0  0
  -31.1462  -23.9207   17.5405 N   0  0  0  0  0  0  0  0  0  0  0  0
  -18.0346  -26.9124   24.2624 N   0  0  0  0  0  0  0  0  0  0  0  0
  -32.1309  -18.0842   21.1131 N   0  0  0  0  0  0  0  0  0  0  0  0
  -27.0519  -13.9339   21.2324 N   0  0  0  0  0  0  0  0  0  0  0  0
  -24.3775  -26.4448   23.0215 N   0  0  0  0  0  0  0  0  0  0  0  0
  -23.9507  -14.0575   23.0858 N   0  3  0  0  0  0  0  0  0  0  0  0
  -29.1762  -23.8768   16.3676 O   0  0  0  0  0  0  0  0  0  0  0  0
  -30.4483  -18.1564   19.5050 O   0  0  0  0  0  0  0  0  0  0  0  0
  -29.7048  -14.8280   21.8418 O   0  0  0  0  0  0  0  0  0  0  0  0
  -25.0985  -15.0772   20.7280 O   0  0  0  0  0  0  0  0  0  0  0  0
  -23.2666  -28.4378   22.7956 O   0  0  0  0  0  0  0  0  0  0  0  0
  -35.0016  -25.1317   21.3752 O   0  0  0  0  0  0  0  0  0  0  0  0
  -25.4642  -21.7376   19.3652 O   0  0  0  0  0  0  0  0  0  1  0  0
  -37.7303  -29.6438   22.9873 F   0  0  0  0  0  0  0  0  0  0  0  0
  -37.3769  -25.8613   20.1636 F   0  0  0  0  0  0  0  0  0  0  0  0
  1  2  1  0  0  0  0
  1  5  2  0  0  0  0
  2  6  2  0  0  0  0
  3  8  2  0  0  0  0
  3 16  1  0  0  0  0
  4  9  1  0  0  0  0
  4 16  2  0  0  0  0
  5 18  1  0  0  0  0
  6 20  1  0  0  0  0
  7 10  2  0  0  0  0
  7 19  1  0  0  0  0
  8 22  1  0  0  0  0
  9 22  2  0  0  0  0
 10 23  1  0  0  0  0
 11 12  2  0  0  0  0
 11 24  1  0  0  0  0
 12 25  1  0  0  0  0
 13 21  1  0  0  0  0
 13 23  2  0  0  0  0
 14 25  2  0  0  0  0
 14 26  1  0  0  0  0
 15 28  2  0  0  0  0
 15 65  1  0  0  0  0
 16 27  1  0  0  0  0
 17 27  1  0  0  0  0
 17 29  2  0  0  0  0
 17 31  1  0  0  0  0
 18 20  2  0  0  0  0
 18 36  1  0  0  0  0
 19 21  2  0  0  0  0
 19 37  1  0  0  0  0
 20 45  1  0  0  0  0
 21 38  1  0  0  0  0
 22 82  1  0  0  0  0
 23 83  1  0  0  0  0
 24 26  2  0  0  0  0
 24 82  1  0  0  0  0
 25 84  1  0  0  0  0
 26 85  1  0  0  0  0
 27 64  2  0  0  0  0
 28 59  1  0  0  0  0
 28 67  1  0  0  0  0
 29 66  1  0  0  0  0
 29 70  1  0  0  0  0
 30 55  1  0  0  0  0
 30 65  1  0  0  0  0
 30 67  2  0  0  0  0
 31 71  1  0  0  0  0
 31 77  2  0  0  0  0
 32 46  1  0  0  0  0
 32 73  1  0  0  0  0
 32 78  2  0  0  0  0
 33 60  1  0  0  0  0
 33 68  1  0  0  0  0
 33 79  2  0  0  0  0
 34 61  1  0  0  0  0
 34 74  1  0  0  0  0
 34 80  2  0  0  0  0
 35 69  1  0  0  0  0
 35 75  1  0  0  0  0
 35 81  2  0  0  0  0
 36 39  1  0  0  0  0
 37 46  1  0  0  0  0
 38 68  1  0  0  0  0
 39 41  1  0  0  0  0
 40 42  1  0  0  0  0
 40 43  1  0  0  0  0
 41 45  1  0  0  0  0
 42 47  1  0  0  0  0
 43 69  1  0  0  0  0
 44 47  1  0  0  0  0
 44 69  1  0  0  0  0
 45 73  1  0  0  0  0
 46 68  1  0  0  0  0
 47 66  1  0  0  0  0
 48 59  1  0  0  0  0
 49 61  1  0  0  0  0
 50 62  1  0  0  0  0
 51 63  1  0  0  0  0
 52 63  1  0  0  0  0
 53 63  1  0  0  0  0
 54 76  1  0  0  0  0
 55 75  1  0  0  0  0
 56 57  1  0  0  0  0
 56 62  1  0  0  0  0
 57 65  1  0  0  0  0
 58 62  1  0  0  0  0
 58 83  1  0  0  0  0
 59 72  1  0  0  0  0
 60 63  1  0  0  0  0
 60 74  1  0  0  0  0
 61 76  1  0  0  0  0
 64 66  1  0  0  0  0
M  CHG  2  67   1  76   1
M  ISO  4  35 100  58 101  75 100  83 101
M  END
> <Batch ID>
0110

> <Smiles>
CNC(C)C(=O)NC(C(=O)N1Cc2cc([101O:1][101CH2:1]C(C)CCn3cc(C(C)N)nc3C[100NH:0][100C:0](=O)N3CCCC(n4nc(-c5ccc(Oc6ccc(F)cc6F)cc5)c(C(N)=O)c4N)C3)ccc2CC1C(=O)NC1CCCc2ccccc21)C(C)(C)C

> <Shape>
0.206

> <Color>
0.067

> <Negative vol penalty>
0.000

$$$$

  -OEChem-04052319583D

 84 92  0     1  0  0  0  0  0999 V2000
  -18.3588  -25.0000   24.6106 C   0  0  0  0  0  0  0  0  0  0  0  0
  -19.5911  -24.6895   24.0445 C   0  0  0  0  0  0  0  0  0  0  0  0
  -25.7353  -13.2726   22.3822 C   0  0  0  0  0  0  0  0  0  0  0  0
  -26.5550  -13.8251   20.1777 C   0  0  0  0  0  0  0  0  0  0  0  0
  -17.7902  -26.2546   24.3951 C   0  0  0  0  0  0  0  0  0  0  0  0
  -20.2551  -25.6333   23.2616 C   0  0  0  0  0  0  0  0  0  0  0  0
  -26.3067  -26.4847   22.8633 C   0  0  0  0  0  0  0  0  0  0  0  0
  -24.6995  -12.5329   21.8118 C   0  0  0  0  0  0  0  0  0  0  0  0
  -25.5191  -13.0854   19.6072 C   0  0  0  0  0  0  0  0  0  0  0  0
  -27.2543  -26.0610   21.9326 C   0  0  0  0  0  0  0  0  0  0  0  0
  -24.2963   -9.4839   20.4067 C   0  0  0  0  0  0  0  0  0  0  0  0
  -24.0244   -8.2266   20.9459 C   0  0  0  0  0  0  0  0  0  0  0  0
  -27.0647  -28.1751   20.7862 C   0  0  0  0  0  0  0  0  0  0  0  0
  -21.7787   -8.9409   21.4788 C   0  0  0  0  0  0  0  0  0  0  0  0
  -26.6631  -13.9187   21.5652 C   0  0  0  0  0  0  0  0  0  0  0  0
  -29.0124  -14.2188   22.5129 C   0  0  0  0  0  0  0  0  0  0  0  0
  -18.4521  -27.2177   23.6172 C   0  0  0  0  0  0  0  0  0  0  0  0
  -25.7220  -27.7548   22.7560 C   0  0  0  0  0  0  0  0  0  0  0  0
  -19.6942  -26.9015   23.0344 C   0  0  0  0  0  0  0  0  0  0  0  0
  -26.1118  -28.6135   21.7183 C   0  0  0  0  0  0  0  0  0  0  0  0
  -24.5914  -12.4392   20.4243 C   0  0  0  0  0  0  0  0  0  0  0  0
  -27.6313  -26.9051   20.8921 C   0  0  0  0  0  0  0  0  0  0  0  0
  -23.3095  -10.4698   20.4036 C   0  0  0  0  0  0  0  0  0  0  0  0
  -22.7656   -7.9550   21.4819 C   0  0  0  0  0  0  0  0  0  0  0  0
  -22.0507  -10.1982   20.9396 C   0  0  0  0  0  0  0  0  0  0  0  0
  -27.7330  -14.6835   22.1539 C   0  0  0  0  0  0  0  0  0  0  0  0
  -29.6478  -15.3236   23.0251 C   0  0  0  0  0  0  0  0  0  0  0  0
  -29.5762  -12.9059   22.3939 C   0  0  0  0  0  0  0  0  0  0  0  0
  -22.7631  -28.8327   22.3236 C   0  0  0  0  0  0  0  0  0  0  0  0
  -24.1619  -31.7199   22.8031 C   0  0  0  0  0  0  0  0  0  0  0  0
  -26.9983  -33.6157   22.7135 C   0  0  0  0  0  0  0  0  0  0  0  0
  -28.9025  -21.2063   22.1948 C   0  0  0  0  0  0  0  0  0  0  0  0
  -17.7759  -28.5436   23.3733 C   0  0  0  0  0  0  0  0  0  0  0  0
  -24.7210  -28.2071   23.7836 C   0  0  0  0  0  0  0  0  0  0  0  0
  -25.5289  -29.9944   21.5705 C   0  0  0  0  0  0  0  0  0  0  0  0
  -18.7188  -29.6192   22.8402 C   0  0  0  0  0  0  0  0  0  0  0  0
  -28.7543  -19.4447   25.2853 C   0  0  0  0  0  0  0  0  0  0  0  0
  -19.5772  -29.0633   21.7083 C   0  0  0  0  0  0  0  0  0  0  0  0
  -28.5912  -17.9828   24.8656 C   0  0  0  0  0  0  0  0  0  0  0  0
  -30.4375  -24.4391   18.8020 C   0  0  0  0  0  0  0  0  0  0  0  0
  -30.4651  -25.6649   17.9093 C   0  0  0  0  0  0  0  0  0  0  0  0
  -27.9991  -20.3876   24.3512 C   0  0  0  0  0  0  0  0  0  0  0  0
  -28.1564  -18.7677   22.5006 C   0  0  0  0  0  0  0  0  0  0  0  0
  -20.4568  -27.9073   22.1996 C   0  0  1  0  0  0  0  0  0  0  0  0
  -23.8119  -29.3243   23.2808 C   0  0  1  0  0  0  0  0  0  0  0  0
  -28.9460  -17.7830   23.3799 C   0  0  2  0  0  0  0  0  0  0  0  0
  -29.2962  -23.6219   18.2184 C   0  0  1  0  0  0  0  0  0  0  0  0
  -28.9954  -26.0016   17.6720 C   0  0  2  0  0  0  0  0  0  0  0  0
  -25.6021  -22.5398   16.0205 C   0  0  0  0  0  0  0  0  0  0  0  0
  -27.8209  -35.9505   23.1248 C   0  0  0  0  0  0  0  0  0  0  0  0
  -22.9204  -32.6194   20.1650 C   0  0  0  0  0  0  0  0  0  0  0  0
  -24.5079  -34.5555   20.1584 C   0  0  0  0  0  0  0  0  0  0  0  0
  -22.8340  -34.3236   21.9934 C   0  0  0  0  0  0  0  0  0  0  0  0
  -26.3997  -25.4671   16.5041 C   0  0  0  0  0  0  0  0  0  0  0  0
  -28.2781  -24.1440   15.4874 C   0  0  0  0  0  0  0  0  0  0  0  0
  -28.8488  -32.7134   24.8395 C   0  0  0  0  0  0  0  0  0  0  0  0
  -28.7222  -22.6084   19.1918 C   0  0  0  0  0  0  0  0  0  0  0  0
  -28.4452  -27.0211   18.6605 C   0  0  0  0  0  0  0  0  0  1  0  0
  -26.6019  -23.0201   17.0662 C   0  0  0  0  0  0  0  0  0  0  0  0
  -29.7998  -21.8728   19.9790 C   0  0  0  0  0  0  0  0  0  0  0  0
  -24.8135  -32.7527   21.9156 C   0  0  1  0  0  0  0  0  0  0  0  0
  -27.6039  -34.5706   23.7262 C   0  0  2  0  0  0  0  0  0  0  0  0
  -23.7787  -33.5361   21.0595 C   0  0  0  0  0  0  0  0  0  0  0  0
  -27.3781  -24.3058   16.7142 C   0  0  0  0  0  0  0  0  0  0  0  0
  -27.5638  -15.9822   22.4160 N   0  0  0  0  0  0  0  0  0  0  0  0
  -28.7453  -16.3430   22.9451 N   0  0  0  0  0  0  0  0  0  0  0  0
  -24.5493  -30.3883   22.5965 N   0  0  0  0  0  0  0  0  0  0  0  0
  -28.3823  -20.1479   22.9578 N   0  0  0  0  0  0  0  0  0  0  0  0
  -30.8847  -15.5127   23.5316 N   0  0  0  0  0  0  0  0  0  0  0  0
  -28.7860  -11.8866   21.8455 N   0  0  0  0  0  0  0  0  0  0  0  0
  -21.5956  -28.4155   22.9339 N   0  0  0  0  0  0  0  0  0  0  0  0
  -25.6218  -33.5929   22.7925 N   0  0  0  0  0  0  0  0  0  0  0  0
  -29.2462  -20.8919   20.8857 N   0  0  0  0  0  0  0  0  0  0  0  0
  -28.2562  -24.6766   17.8717 N   0  3  1  0  0  0  0  0  0  0  0  0
  -28.9178  -34.0543   24.2038 N   0  3  0  0  0  0  0  0  0  0  0  0
  -30.7405  -12.6407   22.7782 O   0  0  0  0  0  0  0  0  0  0  0  0
  -22.9953  -28.8333   21.1204 O   0  0  0  0  0  0  0  0  0  0  0  0
  -23.3448  -32.0820   23.6533 O   0  0  0  0  0  0  0  0  0  0  0  0
  -27.6779  -32.9586   21.9281 O   0  0  0  0  0  0  0  0  0  0  0  0
  -29.0546  -22.3456   22.6483 O   0  0  0  0  0  0  0  0  0  0  0  0
  -23.5809  -11.7173   19.8672 O   0  0  0  0  0  0  0  0  0  0  0  0
  -28.5555  -26.4938   19.9819 O   0  0  0  0  0  0  0  0  0  1  0  0
  -22.5040   -6.7471   21.9983 F   0  0  0  0  0  0  0  0  0  0  0  0
  -21.0983  -11.1410   20.9384 F   0  0  0  0  0  0  0  0  0  0  0  0
  1  2  1  0  0  0  0
  1  5  2  0  0  0  0
  2  6  2  0  0  0  0
  3  8  2  0  0  0  0
  3 15  1  0  0  0  0
  4  9  1  0  0  0  0
  4 15  2  0  0  0  0
  5 17  1  0  0  0  0
  6 19  1  0  0  0  0
  7 10  2  0  0  0  0
  7 18  1  0  0  0  0
  8 21  1  0  0  0  0
  9 21  2  0  0  0  0
 10 22  1  0  0  0  0
 11 12  2  0  0  0  0
 11 23  1  0  0  0  0
 12 24  1  0  0  0  0
 13 20  1  0  0  0  0
 13 22  2  0  0  0  0
 14 24  2  0  0  0  0
 14 25  1  0  0  0  0
 15 26  1  0  0  0  0
 16 26  1  0  0  0  0
 16 27  2  0  0  0  0
 16 28  1  0  0  0  0
 17 19  2  0  0  0  0
 17 33  1  0  0  0  0
 18 20  2  0  0  0  0
 18 34  1  0  0  0  0
 19 44  1  0  0  0  0
 20 35  1  0  0  0  0
 21 81  1  0  0  0  0
 22 82  1  0  0  0  0
 23 25  2  0  0  0  0
 23 81  1  0  0  0  0
 24 83  1  0  0  0  0
 25 84  1  0  0  0  0
 26 65  2  0  0  0  0
 27 66  1  0  0  0  0
 27 69  1  0  0  0  0
 28 70  1  0  0  0  0
 28 76  2  0  0  0  0
 29 45  1  0  0  0  0
 29 71  1  0  0  0  0
 29 77  2  0  0  0  0
 30 61  1  0  0  0  0
 30 67  1  0  0  0  0
 30 78  2  0  0  0  0
 31 62  1  0  0  0  0
 31 72  1  0  0  0  0
 31 79  2  0  0  0  0
 32 68  1  0  0  0  0
 32 73  1  0  0  0  0
 32 80  2  0  0  0  0
 33 36  1  0  0  0  0
 34 45  1  0  0  0  0
 35 67  1  0  0  0  0
 36 38  1  0  0  0  0
 37 39  1  0  0  0  0
 37 42  1  0  0  0  0
 38 44  1  0  0  0  0
 39 46  1  0  0  0  0
 40 41  1  0  0  0  0
 40 47  1  0  0  0  0
 41 48  1  0  0  0  0
 42 68  1  0  0  0  0
 43 46  1  0  0  0  0
 43 68  1  0  0  0  0
 44 71  1  0  0  0  0
 45 67  1  0  0  0  0
 46 66  1  0  0  0  0
 47 57  1  0  0  0  0
 47 74  1  0  0  0  0
 48 58  1  0  0  0  0
 48 74  1  0  0  0  0
 49 59  1  0  0  0  0
 50 62  1  0  0  0  0
 51 63  1  0  0  0  0
 52 63  1  0  0  0  0
 53 63  1  0  0  0  0
 54 64  1  0  0  0  0
 55 64  1  0  0  0  0
 56 75  1  0  0  0  0
 57 60  1  0  0  0  0
 58 82  1  0  0  0  0
 59 64  1  0  0  0  0
 60 73  1  0  0  0  0
 61 63  1  0  0  0  0
 61 72  1  0  0  0  0
 62 75  1  0  0  0  0
 64 74  1  0  0  0  0
 65 66  1  0  0  0  0
M  CHG  2  74   1  75   1
M  ISO  4  32 100  58 101  73 100  82 101
M  END
> <Batch ID>
0110

> <Smiles>
CCC(C)(C)N1C(CC[100NH:0][100C:0](=O)N2CCCC(n3nc(-c4ccc(Oc5ccc(F)cc5F)cc4)c(C(N)=O)c3N)C2)CCC1[101CH2:1][101O:1]c1ccc2c(c1)CN(C(=O)C(NC(=O)C(C)NC)C(C)(C)C)C(C(=O)NC1CCCc3ccccc31)C2

> <Shape>
0.269

> <Color>
0.085

> <Negative vol penalty>
0.000

$$$$

  -OEChem-04052319583D

 79 86  0     1  0  0  0  0  0999 V2000
  -16.6821  -25.7531   24.7942 C   0  0  0  0  0  0  0  0  0  0  0  0
  -17.3222  -24.7676   24.0494 C   0  0  0  0  0  0  0  0  0  0  0  0
  -28.7877  -17.8597   19.1210 C   0  0  0  0  0  0  0  0  0  0  0  0
  -30.4646  -18.3776   20.7813 C   0  0  0  0  0  0  0  0  0  0  0  0
  -17.0147  -27.0939   24.6058 C   0  0  0  0  0  0  0  0  0  0  0  0
  -18.2945  -25.1226   23.1150 C   0  0  0  0  0  0  0  0  0  0  0  0
  -23.3373  -21.9632   21.6681 C   0  0  0  0  0  0  0  0  0  0  0  0
  -28.6124  -16.5989   19.6913 C   0  0  0  0  0  0  0  0  0  0  0  0
  -30.2894  -17.1168   21.3516 C   0  0  0  0  0  0  0  0  0  0  0  0
  -23.6308  -21.0942   20.6181 C   0  0  0  0  0  0  0  0  0  0  0  0
  -30.1982  -13.6140   19.6706 C   0  0  0  0  0  0  0  0  0  0  0  0
  -30.1308  -12.5181   18.8103 C   0  0  0  0  0  0  0  0  0  0  0  0
  -24.6426  -22.9152   19.4019 C   0  0  0  0  0  0  0  0  0  0  0  0
  -27.9152  -12.0112   19.6298 C   0  0  0  0  0  0  0  0  0  0  0  0
  -29.7138  -18.7491   19.6660 C   0  0  0  0  0  0  0  0  0  0  0  0
  -29.2075  -21.2354   19.4030 C   0  0  0  0  0  0  0  0  0  0  0  0
  -17.9984  -27.4647   23.6756 C   0  0  0  0  0  0  0  0  0  0  0  0
  -23.6852  -23.3193   21.5881 C   0  0  0  0  0  0  0  0  0  0  0  0
  -18.6396  -26.4697   22.9131 C   0  0  0  0  0  0  0  0  0  0  0  0
  -24.3548  -23.7988   20.4533 C   0  0  0  0  0  0  0  0  0  0  0  0
  -29.3633  -16.2274   20.8066 C   0  0  0  0  0  0  0  0  0  0  0  0
  -24.2809  -21.5707   19.4835 C   0  0  0  0  0  0  0  0  0  0  0  0
  -29.1242  -13.9085   20.5106 C   0  0  0  0  0  0  0  0  0  0  0  0
  -28.9893  -11.7168   18.7899 C   0  0  0  0  0  0  0  0  0  0  0  0
  -27.9827  -13.1071   20.4901 C   0  0  0  0  0  0  0  0  0  0  0  0
  -29.8957  -20.0514   19.0770 C   0  0  0  0  0  0  0  0  0  0  0  0
  -29.7429  -22.1849   18.5673 C   0  0  0  0  0  0  0  0  0  0  0  0
  -28.1766  -21.4573   20.3744 C   0  0  0  0  0  0  0  0  0  0  0  0
  -22.0660  -26.0545   21.5939 C   0  0  0  0  0  0  0  0  0  0  0  0
  -26.7412  -19.6670   14.0813 C   0  0  0  0  0  0  0  0  0  0  0  0
  -25.0343  -27.3604   21.6703 C   0  0  0  0  0  0  0  0  0  0  0  0
  -28.3645  -27.0264   21.0033 C   0  0  0  0  0  0  0  0  0  0  0  0
  -30.2582  -20.0495   14.0108 C   0  0  0  0  0  0  0  0  0  0  0  0
  -18.2904  -28.9305   23.4732 C   0  0  0  0  0  0  0  0  0  0  0  0
  -23.3855  -24.2381   22.7407 C   0  0  0  0  0  0  0  0  0  0  0  0
  -24.7678  -25.2416   20.3268 C   0  0  0  0  0  0  0  0  0  0  0  0
  -19.5979  -29.1943   22.7308 C   0  0  0  0  0  0  0  0  0  0  0  0
  -33.5337  -21.4629   15.2797 C   0  0  0  0  0  0  0  0  0  0  0  0
  -19.7071  -28.2928   21.5051 C   0  0  0  0  0  0  0  0  0  0  0  0
  -32.9647  -21.4722   16.6954 C   0  0  0  0  0  0  0  0  0  0  0  0
  -32.6101  -20.7022   14.3294 C   0  0  0  0  0  0  0  0  0  0  0  0
  -30.8707  -22.1403   15.3649 C   0  0  0  0  0  0  0  0  0  0  0  0
  -19.7172  -26.8132   21.9076 C   0  0  1  0  0  0  0  0  0  0  0  0
  -23.3266  -25.7073   22.3340 C   0  0  1  0  0  0  0  0  0  0  0  0
  -31.5689  -22.1330   16.7400 C   0  0  1  0  0  0  0  0  0  0  0  0
  -25.7664  -18.6717   13.4810 C   0  0  0  0  0  0  0  0  0  0  0  0
  -25.9449  -22.2983   12.9452 C   0  0  0  0  0  0  0  0  0  0  0  0
  -30.5360  -28.2768   21.1397 C   0  0  0  0  0  0  0  0  0  0  0  0
  -24.2363  -29.0077   19.2291 C   0  0  0  0  0  0  0  0  0  0  0  0
  -26.6631  -29.4919   18.8493 C   0  0  0  0  0  0  0  0  0  0  0  0
  -25.5533  -30.2597   20.9472 C   0  0  0  0  0  0  0  0  0  0  0  0
  -29.5365  -25.0228   22.8394 C   0  0  0  0  0  0  0  0  0  0  0  0
  -25.2191  -21.6971   14.1426 C   0  0  0  0  0  0  0  0  0  0  0  0
  -25.4232  -20.2203   16.2383 C   0  0  0  0  0  0  0  0  0  0  0  0
  -25.2342  -21.2765   17.3258 C   0  0  0  0  0  0  0  0  0  1  0  0
  -26.1165  -20.7557   14.9690 C   0  0  1  0  0  0  0  0  0  0  0  0
  -26.0367  -27.7985   20.6300 C   0  0  1  0  0  0  0  0  0  0  0  0
  -29.5943  -27.3137   21.8457 C   0  0  2  0  0  0  0  0  0  0  0  0
  -25.6130  -29.1126   19.9151 C   0  0  0  0  0  0  0  0  0  0  0  0
  -30.7991  -20.2298   18.1095 N   0  0  0  0  0  0  0  0  0  0  0  0
  -27.9917  -19.4833   13.7820 N   0  0  0  0  0  0  0  0  0  0  0  0
  -30.6823  -21.5370   17.8204 N   0  0  0  0  0  0  0  0  0  0  0  0
  -24.4470  -26.1020   21.4776 N   0  0  0  0  0  0  0  0  0  0  0  0
  -31.1859  -20.9351   14.5870 N   0  0  0  0  0  0  0  0  0  0  0  0
  -29.4969  -23.5024   18.4057 N   0  0  0  0  0  0  0  0  0  0  0  0
  -27.7438  -20.3723   21.1489 N   0  0  0  0  0  0  0  0  0  0  0  0
  -21.0199  -26.4356   22.4124 N   0  0  0  0  0  0  0  0  0  0  0  0
  -27.3242  -27.8773   21.3114 N   0  0  0  0  0  0  0  0  0  0  0  0
  -28.9264  -20.3052   14.2956 N   0  0  0  0  0  0  0  0  0  0  0  0
  -30.3362  -26.0520   22.1264 N   0  3  0  0  0  0  0  0  0  0  0  0
  -27.6432  -22.5806   20.5390 O   0  0  0  0  0  0  0  0  0  0  0  0
  -22.0444  -25.9835   20.3707 O   0  0  0  0  0  0  0  0  0  0  0  0
  -24.7870  -28.1043   22.6228 O   0  0  0  0  0  0  0  0  0  0  0  0
  -28.3313  -26.1385   20.1542 O   0  0  0  0  0  0  0  0  0  0  0  0
  -30.6048  -19.0958   13.3047 O   0  0  0  0  0  0  0  0  0  0  0  0
  -29.1924  -14.9973   21.3635 O   0  0  0  0  0  0  0  0  0  0  0  0
  -24.5701  -20.7185   18.4492 O   0  0  0  0  0  0  0  0  0  1  0  0
  -28.9240  -10.6653   17.9626 F   0  0  0  0  0  0  0  0  0  0  0  0
  -26.9472  -13.3857   21.2939 F   0  0  0  0  0  0  0  0  0  0  0  0
  1  2  1  0  0  0  0
  1  5  2  0  0  0  0
  2  6  2  0  0  0  0
  3  8  2  0  0  0  0
  3 15  1  0  0  0  0
  4  9  1  0  0  0  0
  4 15  2  0  0  0  0
  5 17  1  0  0  0  0
  6 19  1  0  0  0  0
  7 10  2  0  0  0  0
  7 18  1  0  0  0  0
  8 21  1  0  0  0  0
  9 21  2  0  0  0  0
 10 22  1  0  0  0  0
 11 12  2  0  0  0  0
 11 23  1  0  0  0  0
 12 24  1  0  0  0  0
 13 20  1  0  0  0  0
 13 22  2  0  0  0  0
 14 24  2  0  0  0  0
 14 25  1  0  0  0  0
 15 26  1  0  0  0  0
 16 26  1  0  0  0  0
 16 27  2  0  0  0  0
 16 28  1  0  0  0  0
 17 19  2  0  0  0  0
 17 34  1  0  0  0  0
 18 20  2  0  0  0  0
 18 35  1  0  0  0  0
 19 43  1  0  0  0  0
 20 36  1  0  0  0  0
 21 76  1  0  0  0  0
 22 77  1  0  0  0  0
 23 25  2  0  0  0  0
 23 76  1  0  0  0  0
 24 78  1  0  0  0  0
 25 79  1  0  0  0  0
 26 60  2  0  0  0  0
 27 62  1  0  0  0  0
 27 65  1  0  0  0  0
 28 66  1  0  0  0  0
 28 71  2  0  0  0  0
 29 44  1  0  0  0  0
 29 67  1  0  0  0  0
 29 72  2  0  0  0  0
 30 46  1  0  0  0  0
 30 56  1  0  0  0  0
 30 61  2  0  0  0  0
 31 57  1  0  0  0  0
 31 63  1  0  0  0  0
 31 73  2  0  0  0  0
 32 58  1  0  0  0  0
 32 68  1  0  0  0  0
 32 74  2  0  0  0  0
 33 64  1  0  0  0  0
 33 69  1  0  0  0  0
 33 75  2  0  0  0  0
 34 37  1  0  0  0  0
 35 44  1  0  0  0  0
 36 63  1  0  0  0  0
 37 39  1  0  0  0  0
 38 40  1  0  0  0  0
 38 41  1  0  0  0  0
 39 43  1  0  0  0  0
 40 45  1  0  0  0  0
 41 64  1  0  0  0  0
 42 45  1  0  0  0  0
 42 64  1  0  0  0  0
 43 67  1  0  0  0  0
 44 63  1  0  0  0  0
 45 62  1  0  0  0  0
 47 53  1  0  0  0  0
 48 58  1  0  0  0  0
 49 59  1  0  0  0  0
 50 59  1  0  0  0  0
 51 59  1  0  0  0  0
 52 70  1  0  0  0  0
 53 56  1  0  0  0  0
 54 55  1  0  0  0  0
 54 56  1  0  0  0  0
 55 77  1  0  0  0  0
 57 59  1  0  0  0  0
 57 68  1  0  0  0  0
 58 70  1  0  0  0  0
 60 62  1  0  0  0  0
 61 69  1  0  0  0  0
M  CHG  1  70   1
M  ISO  4  33 100  55 101  69 100  77 101
M  END
> <Batch ID>
0110

> <Smiles>
CCC(C[101CH2:1][101O:1]c1ccc2c(c1)CN(C(=O)C(NC(=O)C(C)NC)C(C)(C)C)C(C(=O)NC1CCCc3ccccc31)C2)=C(C)N[100NH:0][100C:0](=O)N1CCCC(n2nc(-c3ccc(Oc4ccc(F)cc4F)cc3)c(C(N)=O)c2N)C1

> <Shape>
0.220

> <Color>
0.059

> <Negative vol penalty>
0.000

$$$$

  -OEChem-04052319583D

 86 94  0     1  0  0  0  0  0999 V2000
  -30.3984  -11.4578   38.1556 C   0  0  0  0  0  0  0  0  0  0  0  0
  -30.7022  -11.4082   36.7989 C   0  0  0  0  0  0  0  0  0  0  0  0
  -23.2880   -9.7995   19.9131 C   0  0  0  0  0  0  0  0  0  0  0  0
  -23.7398   -9.9396   22.2823 C   0  0  0  0  0  0  0  0  0  0  0  0
  -29.0979  -11.7459   38.5675 C   0  0  0  0  0  0  0  0  0  0  0  0
  -29.7053  -11.6456   35.8532 C   0  0  0  0  0  0  0  0  0  0  0  0
  -28.7506  -14.4549   29.3330 C   0  0  0  0  0  0  0  0  0  0  0  0
  -28.8783  -16.8610   25.2819 C   0  0  0  0  0  0  0  0  0  0  0  0
  -22.5616   -8.6270   20.1210 C   0  0  0  0  0  0  0  0  0  0  0  0
  -23.0133   -8.7671   22.4902 C   0  0  0  0  0  0  0  0  0  0  0  0
  -28.2025  -14.1343   28.0918 C   0  0  0  0  0  0  0  0  0  0  0  0
  -20.9745   -6.0070   23.6914 C   0  0  0  0  0  0  0  0  0  0  0  0
  -20.0734   -5.9816   24.7558 C   0  0  0  0  0  0  0  0  0  0  0  0
  -27.9082  -15.9053   25.5626 C   0  0  0  0  0  0  0  0  0  0  0  0
  -26.0090  -14.7005   28.9209 C   0  0  0  0  0  0  0  0  0  0  0  0
  -18.8636   -7.8289   23.7756 C   0  0  0  0  0  0  0  0  0  0  0  0
  -23.8771  -10.4558   20.9938 C   0  0  0  0  0  0  0  0  0  0  0  0
  -24.1366  -12.9858   20.7955 C   0  0  0  0  0  0  0  0  0  0  0  0
  -28.0867  -11.9965   37.6265 C   0  0  0  0  0  0  0  0  0  0  0  0
  -27.9292  -14.8910   30.3826 C   0  0  0  0  0  0  0  0  0  0  0  0
  -28.3898  -11.9360   36.2528 C   0  0  0  0  0  0  0  0  0  0  0  0
  -26.5495  -15.0285   30.1737 C   0  0  0  0  0  0  0  0  0  0  0  0
  -30.1269  -16.4611   24.8190 C   0  0  0  0  0  0  0  0  0  0  0  0
  -22.4242   -8.1108   21.4095 C   0  0  0  0  0  0  0  0  0  0  0  0
  -26.8312  -14.2544   27.8864 C   0  0  0  0  0  0  0  0  0  0  0  0
  -20.8203   -6.9434   22.6692 C   0  0  0  0  0  0  0  0  0  0  0  0
  -19.0179   -6.8925   24.7979 C   0  0  0  0  0  0  0  0  0  0  0  0
  -19.7648   -7.8544   22.7112 C   0  0  0  0  0  0  0  0  0  0  0  0
  -24.6281  -11.6667   20.7797 C   0  0  0  0  0  0  0  0  0  0  0  0
  -28.2341  -14.5731   25.3652 C   0  0  0  0  0  0  0  0  0  0  0  0
  -30.3535  -15.1041   24.6550 C   0  0  0  0  0  0  0  0  0  0  0  0
  -25.2380  -13.7656   20.5402 C   0  0  0  0  0  0  0  0  0  0  0  0
  -22.8037  -13.4635   21.0210 C   0  0  0  0  0  0  0  0  0  0  0  0
  -27.2212  -13.7948   33.2810 C   0  0  0  0  0  0  0  0  0  0  0  0
  -25.6322  -16.6116   33.5323 C   0  0  0  0  0  0  0  0  0  0  0  0
  -24.0806  -19.2131   31.9601 C   0  0  0  0  0  0  0  0  0  0  0  0
  -31.1093  -12.9220   21.3572 C   0  0  0  0  0  0  0  0  0  0  0  0
  -26.6852  -12.2571   38.1189 C   0  0  0  0  0  0  0  0  0  0  0  0
  -28.5394  -15.2584   31.7074 C   0  0  0  0  0  0  0  0  0  0  0  0
  -25.6270  -15.5117   31.2617 C   0  0  0  0  0  0  0  0  0  0  0  0
  -25.7705  -12.8657   37.0591 C   0  0  0  0  0  0  0  0  0  0  0  0
  -29.4592  -13.6621   18.2903 C   0  0  0  0  0  0  0  0  0  0  0  0
  -25.9100  -12.1148   35.7387 C   0  0  0  0  0  0  0  0  0  0  0  0
  -27.9896  -13.3536   18.5819 C   0  0  0  0  0  0  0  0  0  0  0  0
  -30.3927  -12.6825   18.9981 C   0  0  0  0  0  0  0  0  0  0  0  0
  -28.7068  -12.2529   20.7436 C   0  0  0  0  0  0  0  0  0  0  0  0
  -27.3413  -12.2122   35.1971 C   0  0  1  0  0  0  0  0  0  0  0  0
  -27.5425  -15.2012   32.8608 C   0  0  1  0  0  0  0  0  0  0  0  0
  -27.7286  -13.2484   20.0966 C   0  0  2  0  0  0  0  0  0  0  0  0
  -22.8454  -21.3459   32.4322 C   0  0  0  0  0  0  0  0  0  0  0  0
  -29.8220  -18.6644   22.7063 C   0  0  0  0  0  0  0  0  0  0  0  0
  -32.2990  -18.9975   22.8369 C   0  0  0  0  0  0  0  0  0  0  0  0
  -26.3488  -13.1970   24.4155 C   0  0  0  0  0  0  0  0  0  0  0  0
  -27.8557  -12.2160   26.1863 C   0  0  0  0  0  0  0  0  0  0  0  0
  -23.1602  -15.0037   34.3158 C   0  0  0  0  0  0  0  0  0  0  0  0
  -21.7752  -17.0359   33.8465 C   0  0  0  0  0  0  0  0  0  0  0  0
  -23.5069  -17.0960   35.6411 C   0  0  0  0  0  0  0  0  0  0  0  0
  -26.0973  -20.8349   30.5243 C   0  0  0  0  0  0  0  0  0  0  0  0
  -31.1706  -17.4803   24.5178 C   0  0  0  0  0  0  0  0  0  0  0  0
  -31.6748  -14.6166   24.1577 C   0  0  0  0  0  0  0  0  0  0  0  0
  -31.6722  -13.1353   23.7648 C   0  0  0  0  0  0  0  0  0  0  0  0
  -24.2319  -17.0808   33.2191 C   0  0  1  0  0  0  0  0  0  0  0  0
  -24.1988  -20.7155   32.1429 C   0  0  2  0  0  0  0  0  0  0  0  0
  -31.1567  -18.0031   23.0594 C   0  0  0  0  0  0  0  0  0  0  0  0
  -27.1928  -13.4966   25.6614 C   0  0  0  0  0  0  0  0  0  1  0  0
  -23.1854  -16.5431   34.2355 C   0  0  0  0  0  0  0  0  0  0  0  0
  -25.9395  -11.6080   20.5336 N   0  0  0  0  0  0  0  0  0  0  0  0
  -29.4360  -14.1463   24.9170 N   0  0  0  0  0  0  0  0  0  0  0  0
  -26.2815  -12.8999   20.3924 N   0  0  0  0  0  0  0  0  0  0  0  0
  -26.2705  -15.8525   32.5413 N   0  0  0  0  0  0  0  0  0  0  0  0
  -30.0940  -12.6308   20.4313 N   0  0  0  0  0  0  0  0  0  0  0  0
  -25.4060  -15.1006   20.4299 N   0  0  0  0  0  0  0  0  0  0  0  0
  -21.7912  -12.5266   21.2687 N   0  0  0  0  0  0  0  0  0  0  0  0
  -27.5643  -13.5059   34.5880 N   0  0  0  0  0  0  0  0  0  0  0  0
  -24.2968  -18.5363   33.1418 N   0  0  0  0  0  0  0  0  0  0  0  0
  -30.7402  -12.8563   22.6952 N   0  0  0  0  0  0  0  0  0  0  0  0
  -24.7571  -21.3446   30.9127 N   0  3  0  0  0  0  0  0  0  0  0  0
  -22.5159  -14.6840   20.9870 O   0  0  0  0  0  0  0  0  0  0  0  0
  -26.6992  -13.0290   32.4792 O   0  0  0  0  0  0  0  0  0  0  0  0
  -26.1435  -16.9137   34.6135 O   0  0  0  0  0  0  0  0  0  0  0  0
  -23.8188  -18.6923   30.8781 O   0  0  0  0  0  0  0  0  0  0  0  0
  -32.2582  -13.2238   21.0166 O   0  0  0  0  0  0  0  0  0  0  0  0
  -21.7153   -6.9668   21.6127 O   0  0  0  0  0  0  0  0  0  0  0  0
  -26.2935  -13.9415   26.6761 O   0  0  0  0  0  0  0  0  0  1  0  0
  -18.1517   -6.8670   25.8193 F   0  0  0  0  0  0  0  0  0  0  0  0
  -19.6108   -8.7555   21.7315 F   0  0  0  0  0  0  0  0  0  0  0  0
  1  2  1  0  0  0  0
  1  5  2  0  0  0  0
  2  6  2  0  0  0  0
  3  9  2  0  0  0  0
  3 17  1  0  0  0  0
  4 10  1  0  0  0  0
  4 17  2  0  0  0  0
  5 19  1  0  0  0  0
  6 21  1  0  0  0  0
  7 11  2  0  0  0  0
  7 20  1  0  0  0  0
  8 14  2  0  0  0  0
  8 23  1  0  0  0  0
  9 24  1  0  0  0  0
 10 24  2  0  0  0  0
 11 25  1  0  0  0  0
 12 13  2  0  0  0  0
 12 26  1  0  0  0  0
 13 27  1  0  0  0  0
 14 30  1  0  0  0  0
 15 22  1  0  0  0  0
 15 25  2  0  0  0  0
 16 27  2  0  0  0  0
 16 28  1  0  0  0  0
 17 29  1  0  0  0  0
 18 29  1  0  0  0  0
 18 32  2  0  0  0  0
 18 33  1  0  0  0  0
 19 21  2  0  0  0  0
 19 38  1  0  0  0  0
 20 22  2  0  0  0  0
 20 39  1  0  0  0  0
 21 47  1  0  0  0  0
 22 40  1  0  0  0  0
 23 31  2  0  0  0  0
 23 59  1  0  0  0  0
 24 83  1  0  0  0  0
 25 84  1  0  0  0  0
 26 28  2  0  0  0  0
 26 83  1  0  0  0  0
 27 85  1  0  0  0  0
 28 86  1  0  0  0  0
 29 67  2  0  0  0  0
 30 65  1  0  0  0  0
 30 68  2  0  0  0  0
 31 60  1  0  0  0  0
 31 68  1  0  0  0  0
 32 69  1  0  0  0  0
 32 72  1  0  0  0  0
 33 73  1  0  0  0  0
 33 78  2  0  0  0  0
 34 48  1  0  0  0  0
 34 74  1  0  0  0  0
 34 79  2  0  0  0  0
 35 62  1  0  0  0  0
 35 70  1  0  0  0  0
 35 80  2  0  0  0  0
 36 63  1  0  0  0  0
 36 75  1  0  0  0  0
 36 81  2  0  0  0  0
 37 71  1  0  0  0  0
 37 76  1  0  0  0  0
 37 82  2  0  0  0  0
 38 41  1  0  0  0  0
 39 48  1  0  0  0  0
 40 70  1  0  0  0  0
 41 43  1  0  0  0  0
 42 44  1  0  0  0  0
 42 45  1  0  0  0  0
 43 47  1  0  0  0  0
 44 49  1  0  0  0  0
 45 71  1  0  0  0  0
 46 49  1  0  0  0  0
 46 71  1  0  0  0  0
 47 74  1  0  0  0  0
 48 70  1  0  0  0  0
 49 69  1  0  0  0  0
 50 63  1  0  0  0  0
 51 64  1  0  0  0  0
 52 64  1  0  0  0  0
 53 65  1  0  0  0  0
 54 65  1  0  0  0  0
 55 66  1  0  0  0  0
 56 66  1  0  0  0  0
 57 66  1  0  0  0  0
 58 77  1  0  0  0  0
 59 64  1  0  0  0  0
 60 61  1  0  0  0  0
 61 76  1  0  0  0  0
 62 66  1  0  0  0  0
 62 75  1  0  0  0  0
 63 77  1  0  0  0  0
 65 84  1  0  0  0  0
 67 69  1  0  0  0  0
M  CHG  1  77   1
M  ISO  4  37 100  65 101  76 100  84 101
M  END
> <Batch ID>
0110

> <Smiles>
CNC(C)C(=O)NC(C(=O)N1Cc2cc([101O:1][101C:1](C)(C)c3ccc(CC(C)C)c(CC[100NH:0][100C:0](=O)N4CCCC(n5nc(-c6ccc(Oc7ccc(F)cc7F)cc6)c(C(N)=O)c5N)C4)n3)ccc2CC1C(=O)NC1CCCc2ccccc21)C(C)(C)C

> <Shape>
0.135

> <Color>
0.170

> <Negative vol penalty>
0.000

$$$$

  -OEChem-04052319583D

 83 91  0     1  0  0  0  0  0999 V2000
  -29.6560  -22.2397   14.8324 C   0  0  0  0  0  0  0  0  0  0  0  0
  -29.1103  -22.0417   16.0967 C   0  0  0  0  0  0  0  0  0  0  0  0
  -25.4327  -13.0971   19.2017 C   0  0  0  0  0  0  0  0  0  0  0  0
  -24.7455  -13.0648   21.5177 C   0  0  0  0  0  0  0  0  0  0  0  0
  -30.1874  -23.4825   14.4906 C   0  0  0  0  0  0  0  0  0  0  0  0
  -29.0967  -23.0862   17.0204 C   0  0  0  0  0  0  0  0  0  0  0  0
  -24.6491  -23.5143   19.4038 C   0  0  0  0  0  0  0  0  0  0  0  0
  -25.5214  -11.7051   19.2085 C   0  0  0  0  0  0  0  0  0  0  0  0
  -24.8341  -11.6727   21.5245 C   0  0  0  0  0  0  0  0  0  0  0  0
  -24.3886  -22.6105   20.4328 C   0  0  0  0  0  0  0  0  0  0  0  0
  -22.9745   -9.0549   20.4712 C   0  0  0  0  0  0  0  0  0  0  0  0
  -21.9306   -8.3435   21.0624 C   0  0  0  0  0  0  0  0  0  0  0  0
  -24.9993  -24.2894   22.0538 C   0  0  0  0  0  0  0  0  0  0  0  0
  -23.4835   -7.3763   22.6405 C   0  0  0  0  0  0  0  0  0  0  0  0
  -25.0448  -13.7770   20.3563 C   0  0  0  0  0  0  0  0  0  0  0  0
  -23.8264  -15.9938   20.0267 C   0  0  0  0  0  0  0  0  0  0  0  0
  -30.1717  -24.5456   15.4073 C   0  0  0  0  0  0  0  0  0  0  0  0
  -25.0979  -24.8112   19.6921 C   0  0  0  0  0  0  0  0  0  0  0  0
  -29.6297  -24.3440   16.6910 C   0  0  0  0  0  0  0  0  0  0  0  0
  -25.2624  -25.2086   21.0267 C   0  0  0  0  0  0  0  0  0  0  0  0
  -25.2220  -10.9929   20.3699 C   0  0  0  0  0  0  0  0  0  0  0  0
  -24.5664  -22.9970   21.7580 C   0  0  0  0  0  0  0  0  0  0  0  0
  -24.2730   -8.9270   20.9645 C   0  0  0  0  0  0  0  0  0  0  0  0
  -22.1850   -7.5042   22.1471 C   0  0  0  0  0  0  0  0  0  0  0  0
  -24.5274   -8.0877   22.0491 C   0  0  0  0  0  0  0  0  0  0  0  0
  -24.9536  -15.2149   20.3501 C   0  0  0  0  0  0  0  0  0  0  0  0
  -24.2525  -17.2914   20.1721 C   0  0  0  0  0  0  0  0  0  0  0  0
  -24.7083  -21.1528   24.8956 C   0  0  0  0  0  0  0  0  0  0  0  0
  -22.5117  -15.5813   19.6303 C   0  0  0  0  0  0  0  0  0  0  0  0
  -25.4762  -20.5593   25.8321 C   0  0  0  0  0  0  0  0  0  0  0  0
  -27.7286  -26.4715   19.0390 C   0  0  0  0  0  0  0  0  0  0  0  0
  -26.0705  -28.8965   20.4147 C   0  0  0  0  0  0  0  0  0  0  0  0
  -23.5907  -29.8651   22.5499 C   0  0  0  0  0  0  0  0  0  0  0  0
  -28.5984  -19.8154   23.4270 C   0  0  0  0  0  0  0  0  0  0  0  0
  -30.8006  -25.8572   15.0087 C   0  0  0  0  0  0  0  0  0  0  0  0
  -25.3488  -25.7827   18.5716 C   0  0  0  0  0  0  0  0  0  0  0  0
  -25.7228  -26.5958   21.3901 C   0  0  0  0  0  0  0  0  0  0  0  0
  -30.4088  -27.0210   15.9155 C   0  0  0  0  0  0  0  0  0  0  0  0
  -28.1919  -19.9924   19.8943 C   0  0  0  0  0  0  0  0  0  0  0  0
  -30.5242  -26.6174   17.3820 C   0  0  0  0  0  0  0  0  0  0  0  0
  -27.2141  -18.8584   19.5813 C   0  0  0  0  0  0  0  0  0  0  0  0
  -29.6634  -21.8922   27.5886 C   0  0  0  0  0  0  0  0  0  0  0  0
  -29.0400  -22.6234   28.7440 C   0  0  0  0  0  0  0  0  0  0  0  0
  -29.1516  -19.6154   21.0207 C   0  0  0  0  0  0  0  0  0  0  0  0
  -27.5226  -18.0139   21.9458 C   0  0  0  0  0  0  0  0  0  0  0  0
  -29.5742  -25.4598   17.7119 C   0  0  1  0  0  0  0  0  0  0  0  0
  -26.2947  -26.9141   18.9623 C   0  0  1  0  0  0  0  0  0  0  0  0
  -26.4982  -18.3680   20.8542 C   0  0  2  0  0  0  0  0  0  0  0  0
  -28.3135  -22.5471   27.4232 C   0  0  0  0  0  0  0  0  0  0  0  0
  -25.0060  -19.4426   26.7274 C   0  0  0  0  0  0  0  0  0  0  0  0
  -26.8131  -24.3261   26.5108 C   0  0  0  0  0  0  0  0  0  0  0  0
  -22.4961  -31.9149   23.4972 C   0  0  0  0  0  0  0  0  0  0  0  0
  -28.4623  -29.3170   22.2620 C   0  0  0  0  0  0  0  0  0  0  0  0
  -26.9824  -30.6784   23.7536 C   0  0  0  0  0  0  0  0  0  0  0  0
  -27.4166  -31.4242   21.4131 C   0  0  0  0  0  0  0  0  0  0  0  0
  -20.9639  -29.1364   21.3975 C   0  0  0  0  0  0  0  0  0  0  0  0
  -25.0764  -22.2620   23.9615 C   0  0  0  0  0  0  0  0  0  1  0  0
  -28.2151  -23.7864   26.5853 C   0  0  0  0  0  0  0  0  0  0  0  0
  -27.9323  -19.8985   25.8163 C   0  0  0  0  0  0  0  0  0  0  0  0
  -26.9138  -21.0251   26.0220 C   0  0  2  0  0  0  0  0  0  0  0  0
  -25.9209  -29.4269   21.8201 C   0  0  1  0  0  0  0  0  0  0  0  0
  -22.4623  -30.8686   22.3941 C   0  0  2  0  0  0  0  0  0  0  0  0
  -27.1887  -30.1848   22.3056 C   0  0  0  0  0  0  0  0  0  0  0  0
  -26.0160  -15.9559   20.6762 N   0  0  0  0  0  0  0  0  0  0  0  0
  -25.5583  -17.2139   20.5584 N   0  0  0  0  0  0  0  0  0  0  0  0
  -25.9611  -27.5074   20.2588 N   0  0  0  0  0  0  0  0  0  0  0  0
  -28.4093  -19.1605   22.1988 N   0  0  0  0  0  0  0  0  0  0  0  0
  -23.6339  -18.4798   20.0059 N   0  0  0  0  0  0  0  0  0  0  0  0
  -22.2436  -14.2093   19.5308 N   0  0  0  0  0  0  0  0  0  0  0  0
  -28.2186  -25.9447   17.8592 N   0  0  0  0  0  0  0  0  0  0  0  0
  -24.7046  -30.2325   21.8250 N   0  0  0  0  0  0  0  0  0  0  0  0
  -27.8515  -19.3252   24.4913 N   0  0  0  0  0  0  0  0  0  0  0  0
  -27.1464  -21.6346   27.3708 N   0  3  0  0  0  0  0  0  0  0  0  0
  -21.1433  -30.1766   22.4429 N   0  3  0  0  0  0  0  0  0  0  0  0
  -21.6064  -16.4052   19.3562 O   0  0  0  0  0  0  0  0  0  0  0  0
  -28.3452  -26.5999   20.0902 O   0  0  0  0  0  0  0  0  0  0  0  0
  -26.2698  -29.6862   19.4883 O   0  0  0  0  0  0  0  0  0  0  0  0
  -23.4949  -28.8581   23.2479 O   0  0  0  0  0  0  0  0  0  0  0  0
  -29.3713  -20.7698   23.5637 O   0  0  0  0  0  0  0  0  0  0  0  0
  -25.3082   -9.6346   20.3769 O   0  0  0  0  0  0  0  0  0  0  0  0
  -24.3135  -22.1166   22.7644 O   0  0  0  0  0  0  0  0  0  1  0  0
  -21.1822   -6.8222   22.7158 F   0  0  0  0  0  0  0  0  0  0  0  0
  -25.7726   -7.9617   22.5282 F   0  0  0  0  0  0  0  0  0  0  0  0
  1  2  1  0  0  0  0
  1  5  2  0  0  0  0
  2  6  2  0  0  0  0
  3  8  2  0  0  0  0
  3 15  1  0  0  0  0
  4  9  1  0  0  0  0
  4 15  2  0  0  0  0
  5 17  1  0  0  0  0
  6 19  1  0  0  0  0
  7 10  2  0  0  0  0
  7 18  1  0  0  0  0
  8 21  1  0  0  0  0
  9 21  2  0  0  0  0
 10 22  1  0  0  0  0
 11 12  2  0  0  0  0
 11 23  1  0  0  0  0
 12 24  1  0  0  0  0
 13 20  1  0  0  0  0
 13 22  2  0  0  0  0
 14 24  2  0  0  0  0
 14 25  1  0  0  0  0
 15 26  1  0  0  0  0
 16 26  1  0  0  0  0
 16 27  2  0  0  0  0
 16 29  1  0  0  0  0
 17 19  2  0  0  0  0
 17 35  1  0  0  0  0
 18 20  2  0  0  0  0
 18 36  1  0  0  0  0
 19 46  1  0  0  0  0
 20 37  1  0  0  0  0
 21 80  1  0  0  0  0
 22 81  1  0  0  0  0
 23 25  2  0  0  0  0
 23 80  1  0  0  0  0
 24 82  1  0  0  0  0
 25 83  1  0  0  0  0
 26 64  2  0  0  0  0
 27 65  1  0  0  0  0
 27 68  1  0  0  0  0
 28 30  2  0  0  0  0
 28 57  1  0  0  0  0
 29 69  1  0  0  0  0
 29 75  2  0  0  0  0
 30 50  1  0  0  0  0
 30 60  1  0  0  0  0
 31 47  1  0  0  0  0
 31 70  1  0  0  0  0
 31 76  2  0  0  0  0
 32 61  1  0  0  0  0
 32 66  1  0  0  0  0
 32 77  2  0  0  0  0
 33 62  1  0  0  0  0
 33 71  1  0  0  0  0
 33 78  2  0  0  0  0
 34 67  1  0  0  0  0
 34 72  1  0  0  0  0
 34 79  2  0  0  0  0
 35 38  1  0  0  0  0
 36 47  1  0  0  0  0
 37 66  1  0  0  0  0
 38 40  1  0  0  0  0
 39 41  1  0  0  0  0
 39 44  1  0  0  0  0
 40 46  1  0  0  0  0
 41 48  1  0  0  0  0
 42 43  1  0  0  0  0
 42 49  1  0  0  0  0
 43 49  1  0  0  0  0
 44 67  1  0  0  0  0
 45 48  1  0  0  0  0
 45 67  1  0  0  0  0
 46 70  1  0  0  0  0
 47 66  1  0  0  0  0
 48 65  1  0  0  0  0
 49 58  1  0  0  0  0
 49 73  1  0  0  0  0
 51 58  1  0  0  0  0
 52 62  1  0  0  0  0
 53 63  1  0  0  0  0
 54 63  1  0  0  0  0
 55 63  1  0  0  0  0
 56 74  1  0  0  0  0
 57 81  1  0  0  0  0
 59 60  1  0  0  0  0
 59 72  1  0  0  0  0
 60 73  1  0  0  0  0
 61 63  1  0  0  0  0
 61 71  1  0  0  0  0
 62 74  1  0  0  0  0
 64 65  1  0  0  0  0
M  CHG  2  73   1  74   1
M  ISO  4  34 100  57 101  72 100  81 101
M  END
> <Batch ID>
0110

> <Smiles>
CCC1(NC(C[100NH:0][100C:0](=O)N2CCCC(n3nc(-c4ccc(Oc5ccc(F)cc5F)cc4)c(C(N)=O)c3N)C2)C(C)=C[101CH2:1][101O:1]c2ccc3c(c2)CN(C(=O)C(NC(=O)C(C)NC)C(C)(C)C)C(C(=O)NC2CCCc4ccccc42)C3)CC1

> <Shape>
0.205

> <Color>
0.075

> <Negative vol penalty>
0.000

$$$$

  -OEChem-04052319583D

 89 98  0     1  0  0  0  0  0999 V2000
  -24.6940  -23.3657   13.2912 C   0  0  0  0  0  0  0  0  0  0  0  0
  -25.4230  -22.4321   14.0209 C   0  0  0  0  0  0  0  0  0  0  0  0
  -23.1442   -9.7692   20.0034 C   0  0  0  0  0  0  0  0  0  0  0  0
  -23.4857  -10.0857   22.3741 C   0  0  0  0  0  0  0  0  0  0  0  0
  -25.0546  -24.7120   13.3266 C   0  0  0  0  0  0  0  0  0  0  0  0
  -26.5137  -22.8443   14.7857 C   0  0  0  0  0  0  0  0  0  0  0  0
  -28.3415  -20.5155   20.1468 C   0  0  0  0  0  0  0  0  0  0  0  0
  -22.3479   -8.6547   20.2668 C   0  0  0  0  0  0  0  0  0  0  0  0
  -22.6893   -8.9712   22.6376 C   0  0  0  0  0  0  0  0  0  0  0  0
  -29.3340  -19.5948   20.4800 C   0  0  0  0  0  0  0  0  0  0  0  0
  -23.0166   -5.6065   22.5839 C   0  0  0  0  0  0  0  0  0  0  0  0
  -23.4773   -4.6897   23.5288 C   0  0  0  0  0  0  0  0  0  0  0  0
  -35.7781  -20.8292   19.4174 C   0  0  0  0  0  0  0  0  0  0  0  0
  -30.8486  -21.4103   20.9591 C   0  0  0  0  0  0  0  0  0  0  0  0
  -21.5036   -5.0775   24.8672 C   0  0  0  0  0  0  0  0  0  0  0  0
  -36.0036  -21.6181   18.3009 C   0  0  0  0  0  0  0  0  0  0  0  0
  -23.7132  -10.4847   21.0571 C   0  0  0  0  0  0  0  0  0  0  0  0
  -24.1147  -12.9736   20.6679 C   0  0  0  0  0  0  0  0  0  0  0  0
  -26.1444  -25.1423   14.0998 C   0  0  0  0  0  0  0  0  0  0  0  0
  -28.5989  -21.8926   20.2069 C   0  0  0  0  0  0  0  0  0  0  0  0
  -26.8900  -24.1975   14.8304 C   0  0  0  0  0  0  0  0  0  0  0  0
  -29.8568  -22.3463   20.6287 C   0  0  0  0  0  0  0  0  0  0  0  0
  -35.4693  -19.4886   19.2155 C   0  0  0  0  0  0  0  0  0  0  0  0
  -35.3964  -18.9850   17.9215 C   0  0  0  0  0  0  0  0  0  0  0  0
  -22.1204   -8.2557   21.5839 C   0  0  0  0  0  0  0  0  0  0  0  0
  -30.5887  -20.0421   20.8834 C   0  0  0  0  0  0  0  0  0  0  0  0
  -21.7996   -6.2590   22.7807 C   0  0  0  0  0  0  0  0  0  0  0  0
  -22.7207   -4.4251   24.6704 C   0  0  0  0  0  0  0  0  0  0  0  0
  -21.0430   -5.9945   23.9224 C   0  0  0  0  0  0  0  0  0  0  0  0
  -24.5363  -11.6357   20.7856 C   0  0  0  0  0  0  0  0  0  0  0  0
  -35.6388  -19.8565   16.8720 C   0  0  0  0  0  0  0  0  0  0  0  0
  -25.2668  -13.6752   20.4092 C   0  0  0  0  0  0  0  0  0  0  0  0
  -22.7992  -13.5323   20.7823 C   0  0  0  0  0  0  0  0  0  0  0  0
  -28.6291  -24.2635   18.0898 C   0  0  0  0  0  0  0  0  0  0  0  0
  -29.0936  -26.0928   20.7280 C   0  0  0  0  0  0  0  0  0  0  0  0
  -30.1843  -26.2991   23.9552 C   0  0  0  0  0  0  0  0  0  0  0  0
  -29.9333  -14.4110   17.8390 C   0  0  0  0  0  0  0  0  0  0  0  0
  -26.5251  -26.6013   14.0692 C   0  0  0  0  0  0  0  0  0  0  0  0
  -27.5092  -22.8731   19.8699 C   0  0  0  0  0  0  0  0  0  0  0  0
  -30.1775  -23.8145   20.7294 C   0  0  0  0  0  0  0  0  0  0  0  0
  -27.4647  -27.0094   15.2010 C   0  0  0  0  0  0  0  0  0  0  0  0
  -33.8187  -14.0261   15.2822 C   0  0  0  0  0  0  0  0  0  0  0  0
  -32.4375  -13.3937   15.4039 C   0  0  0  0  0  0  0  0  0  0  0  0
  -30.1125  -12.2745   20.6425 C   0  0  0  0  0  0  0  0  0  0  0  0
  -28.6015  -26.0020   15.3405 C   0  0  0  0  0  0  0  0  0  0  0  0
  -28.6325  -12.0152   20.9203 C   0  0  0  0  0  0  0  0  0  0  0  0
  -33.8669  -15.5177   15.5900 C   0  0  0  0  0  0  0  0  0  0  0  0
  -31.9613  -13.2776   16.8507 C   0  0  0  0  0  0  0  0  0  0  0  0
  -30.4220  -12.2917   19.1444 C   0  0  0  0  0  0  0  0  0  0  0  0
  -28.0928  -12.9642   18.6467 C   0  0  0  0  0  0  0  0  0  0  0  0
  -31.7996  -15.8016   17.0706 C   0  0  0  0  0  0  0  0  0  0  0  0
  -28.0644  -24.6092   15.6914 C   0  0  1  0  0  0  0  0  0  0  0  0
  -28.0426  -24.2462   19.4731 C   0  0  1  0  0  0  0  0  0  0  0  0
  -27.7453  -13.0028   20.1426 C   0  0  1  0  0  0  0  0  0  0  0  0
  -33.3222  -15.8993   16.9672 C   0  0  2  0  0  0  0  0  0  0  0  0
  -35.5746  -19.3729   15.4600 C   0  0  0  0  0  0  0  0  0  0  0  0
  -30.4731  -27.9349   25.8362 C   0  0  0  0  0  0  0  0  0  0  0  0
  -31.5460  -27.2575   19.3354 C   0  0  0  0  0  0  0  0  0  0  0  0
  -32.3058  -28.1305   21.5555 C   0  0  0  0  0  0  0  0  0  0  0  0
  -30.1566  -28.9290   20.5724 C   0  0  0  0  0  0  0  0  0  0  0  0
  -28.3465  -24.7825   25.7106 C   0  0  0  0  0  0  0  0  0  0  0  0
  -35.2213  -18.6139   20.3997 C   0  0  0  0  0  0  0  0  0  0  0  0
  -35.0654  -17.5428   17.6733 C   0  0  0  0  0  0  0  0  0  0  0  0
  -33.7389  -18.2997   20.6525 C   0  0  0  0  0  0  0  0  0  0  0  0
  -32.9110  -19.5378   20.9767 C   0  0  0  0  0  0  0  0  0  1  0  0
  -30.3010  -26.5788   21.4930 C   0  0  1  0  0  0  0  0  0  0  0  0
  -29.5534  -26.9075   25.1947 C   0  0  2  0  0  0  0  0  0  0  0  0
  -31.0722  -27.6962   20.7354 C   0  0  0  0  0  0  0  0  0  0  0  0
  -35.9417  -21.1647   17.0288 N   0  0  0  0  0  0  0  0  0  0  0  0
  -25.8535  -11.4932   20.6154 N   0  0  0  0  0  0  0  0  0  0  0  0
  -26.2694  -12.7508   20.3881 N   0  0  0  0  0  0  0  0  0  0  0  0
  -29.0809  -24.7338   20.3832 N   0  0  0  0  0  0  0  0  0  0  0  0
  -29.5210  -13.2092   18.4339 N   0  0  0  0  0  0  0  0  0  0  0  0
  -31.2577  -14.4682   17.3522 N   0  0  0  0  0  0  0  0  0  0  0  0
  -25.5099  -14.9865   20.1998 N   0  0  0  0  0  0  0  0  0  0  0  0
  -21.7279  -12.6696   21.0510 N   0  0  0  0  0  0  0  0  0  0  0  0
  -27.7128  -24.5416   17.0936 N   0  0  0  0  0  0  0  0  0  0  0  0
  -29.8168  -26.9750   22.8109 N   0  0  0  0  0  0  0  0  0  0  0  0
  -33.6821  -17.3408   17.1842 N   0  3  0  0  0  0  0  0  0  0  0  0
  -29.2595  -25.8473   26.1999 N   0  3  0  0  0  0  0  0  0  0  0  0
  -22.5780  -14.7581   20.6339 O   0  0  0  0  0  0  0  0  0  0  0  0
  -29.8248  -24.0423   17.9378 O   0  0  0  0  0  0  0  0  0  0  0  0
  -28.1917  -26.8881   20.4530 O   0  0  0  0  0  0  0  0  0  0  0  0
  -30.9314  -25.3242   23.9982 O   0  0  0  0  0  0  0  0  0  0  0  0
  -29.1696  -15.3807   17.7450 O   0  0  0  0  0  0  0  0  0  0  0  0
  -21.3433   -7.1684   21.8414 O   0  0  0  0  0  0  0  0  0  0  0  0
  -31.5664  -19.1393   21.2109 O   0  0  0  0  0  0  0  0  0  1  0  0
  -23.1625   -3.5435   25.5769 F   0  0  0  0  0  0  0  0  0  0  0  0
  -19.8724   -6.6172   24.1163 F   0  0  0  0  0  0  0  0  0  0  0  0
  1  2  1  0  0  0  0
  1  5  2  0  0  0  0
  2  6  2  0  0  0  0
  3  8  2  0  0  0  0
  3 17  1  0  0  0  0
  4  9  1  0  0  0  0
  4 17  2  0  0  0  0
  5 19  1  0  0  0  0
  6 21  1  0  0  0  0
  7 10  2  0  0  0  0
  7 20  1  0  0  0  0
  8 25  1  0  0  0  0
  9 25  2  0  0  0  0
 10 26  1  0  0  0  0
 11 12  2  0  0  0  0
 11 27  1  0  0  0  0
 12 28  1  0  0  0  0
 13 16  2  0  0  0  0
 13 23  1  0  0  0  0
 14 22  1  0  0  0  0
 14 26  2  0  0  0  0
 15 28  2  0  0  0  0
 15 29  1  0  0  0  0
 16 69  1  0  0  0  0
 17 30  1  0  0  0  0
 18 30  1  0  0  0  0
 18 32  2  0  0  0  0
 18 33  1  0  0  0  0
 19 21  2  0  0  0  0
 19 38  1  0  0  0  0
 20 22  2  0  0  0  0
 20 39  1  0  0  0  0
 21 52  1  0  0  0  0
 22 40  1  0  0  0  0
 23 24  2  0  0  0  0
 23 62  1  0  0  0  0
 24 31  1  0  0  0  0
 24 63  1  0  0  0  0
 25 86  1  0  0  0  0
 26 87  1  0  0  0  0
 27 29  2  0  0  0  0
 27 86  1  0  0  0  0
 28 88  1  0  0  0  0
 29 89  1  0  0  0  0
 30 70  2  0  0  0  0
 31 56  1  0  0  0  0
 31 69  2  0  0  0  0
 32 71  1  0  0  0  0
 32 75  1  0  0  0  0
 33 76  1  0  0  0  0
 33 81  2  0  0  0  0
 34 53  1  0  0  0  0
 34 77  1  0  0  0  0
 34 82  2  0  0  0  0
 35 66  1  0  0  0  0
 35 72  1  0  0  0  0
 35 83  2  0  0  0  0
 36 67  1  0  0  0  0
 36 78  1  0  0  0  0
 36 84  2  0  0  0  0
 37 73  1  0  0  0  0
 37 74  1  0  0  0  0
 37 85  2  0  0  0  0
 38 41  1  0  0  0  0
 39 53  1  0  0  0  0
 40 72  1  0  0  0  0
 41 45  1  0  0  0  0
 42 43  1  0  0  0  0
 42 47  1  0  0  0  0
 43 48  1  0  0  0  0
 44 46  1  0  0  0  0
 44 49  1  0  0  0  0
 45 52  1  0  0  0  0
 46 54  1  0  0  0  0
 47 55  1  0  0  0  0
 48 74  1  0  0  0  0
 49 73  1  0  0  0  0
 50 54  1  0  0  0  0
 50 73  1  0  0  0  0
 51 55  1  0  0  0  0
 51 74  1  0  0  0  0
 52 77  1  0  0  0  0
 53 72  1  0  0  0  0
 54 71  1  0  0  0  0
 55 79  1  0  0  0  0
 57 67  1  0  0  0  0
 58 68  1  0  0  0  0
 59 68  1  0  0  0  0
 60 68  1  0  0  0  0
 61 80  1  0  0  0  0
 62 64  1  0  0  0  0
 63 79  1  0  0  0  0
 64 65  1  0  0  0  0
 65 87  1  0  0  0  0
 66 68  1  0  0  0  0
 66 78  1  0  0  0  0
 67 80  1  0  0  0  0
 70 71  1  0  0  0  0
M  CHG  2  79   1  80   1
M  ISO  4  37 100  65 101  74 100  87 101
M  END
> <Batch ID>
0110

> <Smiles>
CNC(C)C(=O)NC(C(=O)N1Cc2cc([101O:1][101CH2:1]CCc3ccnc(C)c3CNC3CCCC[100N:0]([100C:0](=O)N4CCCC(n5nc(-c6ccc(Oc7ccc(F)cc7F)cc6)c(C(N)=O)c5N)C4)C3)ccc2CC1C(=O)NC1CCCc2ccccc21)C(C)(C)C

> <Shape>
0.231

> <Color>
0.191

> <Negative vol penalty>
0.000

$$$$

  -OEChem-04052319583D

 81 89  0     1  0  0  0  0  0999 V2000
  -31.2265  -19.1660   12.7428 C   0  0  0  0  0  0  0  0  0  0  0  0
  -31.1353  -19.2701   14.1270 C   0  0  0  0  0  0  0  0  0  0  0  0
  -23.0835   -9.8227   19.9980 C   0  0  0  0  0  0  0  0  0  0  0  0
  -23.8092   -9.9253   22.3001 C   0  0  0  0  0  0  0  0  0  0  0  0
  -31.6036  -20.2738   11.9848 C   0  0  0  0  0  0  0  0  0  0  0  0
  -31.4223  -20.4820   14.7543 C   0  0  0  0  0  0  0  0  0  0  0  0
  -28.0209  -21.6829   18.3087 C   0  0  0  0  0  0  0  0  0  0  0  0
  -22.3350   -8.6812   20.2848 C   0  0  0  0  0  0  0  0  0  0  0  0
  -23.0607   -8.7838   22.5870 C   0  0  0  0  0  0  0  0  0  0  0  0
  -28.1258  -21.0308   19.5366 C   0  0  0  0  0  0  0  0  0  0  0  0
  -21.0536   -6.1055   24.0071 C   0  0  0  0  0  0  0  0  0  0  0  0
  -20.2800   -6.1111   25.1677 C   0  0  0  0  0  0  0  0  0  0  0  0
  -29.2288  -22.9657   20.4632 C   0  0  0  0  0  0  0  0  0  0  0  0
  -31.8414  -17.5212   21.5201 C   0  0  0  0  0  0  0  0  0  0  0  0
  -19.0482   -8.0165   24.3374 C   0  0  0  0  0  0  0  0  0  0  0  0
  -29.8787  -17.8828   22.5628 C   0  0  0  0  0  0  0  0  0  0  0  0
  -23.8207  -10.4447   21.0056 C   0  0  0  0  0  0  0  0  0  0  0  0
  -24.1665  -12.9626   20.7853 C   0  0  0  0  0  0  0  0  0  0  0  0
  -31.8860  -21.5025   12.6023 C   0  0  0  0  0  0  0  0  0  0  0  0
  -28.5298  -22.9793   18.1457 C   0  0  0  0  0  0  0  0  0  0  0  0
  -31.8048  -21.6069   14.0041 C   0  0  0  0  0  0  0  0  0  0  0  0
  -29.1268  -23.6330   19.2330 C   0  0  0  0  0  0  0  0  0  0  0  0
  -30.5686  -16.9658   21.8009 C   0  0  0  0  0  0  0  0  0  0  0  0
  -22.3235   -8.1618   21.5793 C   0  0  0  0  0  0  0  0  0  0  0  0
  -28.7324  -21.6710   20.6132 C   0  0  0  0  0  0  0  0  0  0  0  0
  -20.8246   -7.0554   23.0116 C   0  0  0  0  0  0  0  0  0  0  0  0
  -19.2773   -7.0666   25.3329 C   0  0  0  0  0  0  0  0  0  0  0  0
  -19.8219   -8.0109   23.1768 C   0  0  0  0  0  0  0  0  0  0  0  0
  -24.5946  -11.6236   20.7099 C   0  0  0  0  0  0  0  0  0  0  0  0
  -31.8906  -18.7605   22.1192 C   0  0  0  0  0  0  0  0  0  0  0  0
  -25.2646  -13.6959   20.4073 C   0  0  0  0  0  0  0  0  0  0  0  0
  -22.8904  -13.4958   21.1634 C   0  0  0  0  0  0  0  0  0  0  0  0
  -30.7787  -24.2937   16.3239 C   0  0  0  0  0  0  0  0  0  0  0  0
  -29.6551  -27.0536   17.6055 C   0  0  0  0  0  0  0  0  0  0  0  0
  -28.0217  -28.6027   20.1704 C   0  0  0  0  0  0  0  0  0  0  0  0
  -30.7285  -14.7466   20.6195 C   0  0  0  0  0  0  0  0  0  0  0  0
  -32.3355  -22.6593   11.7454 C   0  0  0  0  0  0  0  0  0  0  0  0
  -28.3849  -23.6792   16.8222 C   0  0  0  0  0  0  0  0  0  0  0  0
  -29.6710  -25.0325   19.1156 C   0  0  0  0  0  0  0  0  0  0  0  0
  -32.2593  -24.0087   12.4550 C   0  0  0  0  0  0  0  0  0  0  0  0
  -29.6474  -12.2360   18.3380 C   0  0  0  0  0  0  0  0  0  0  0  0
  -32.8603  -23.9111   13.8536 C   0  0  0  0  0  0  0  0  0  0  0  0
  -28.2012  -11.9630   18.7579 C   0  0  0  0  0  0  0  0  0  0  0  0
  -30.5447  -12.5147   19.5425 C   0  0  0  0  0  0  0  0  0  0  0  0
  -28.6180  -13.2968   20.8636 C   0  0  0  0  0  0  0  0  0  0  0  0
  -32.0841  -22.9111   14.7191 C   0  0  1  0  0  0  0  0  0  0  0  0
  -29.3979  -24.8031   16.6265 C   0  0  1  0  0  0  0  0  0  0  0  0
  -27.6627  -13.0746   19.6797 C   0  0  2  0  0  0  0  0  0  0  0  0
  -33.3375  -20.2914   20.7349 C   0  0  0  0  0  0  0  0  0  0  0  0
  -34.2600  -19.2411   22.8327 C   0  0  0  0  0  0  0  0  0  0  0  0
  -27.2893  -30.8711   20.9551 C   0  0  0  0  0  0  0  0  0  0  0  0
  -32.5226  -27.6914   18.4305 C   0  0  0  0  0  0  0  0  0  0  0  0
  -31.6140  -29.4255   19.9912 C   0  0  0  0  0  0  0  0  0  0  0  0
  -31.2368  -29.6404   17.5347 C   0  0  0  0  0  0  0  0  0  0  0  0
  -25.1669  -27.8235   20.1282 C   0  0  0  0  0  0  0  0  0  0  0  0
  -30.3078  -20.2002   23.5354 C   0  0  0  0  0  0  0  0  0  0  0  0
  -29.9539  -21.3769   22.6325 C   0  0  0  0  0  0  0  0  0  1  0  0
  -32.9782  -19.7599   22.1414 C   0  0  0  0  0  0  0  0  0  0  0  0
  -29.9785  -27.8723   18.8319 C   0  0  1  0  0  0  0  0  0  0  0  0
  -26.8980  -29.6233   20.1787 C   0  0  2  0  0  0  0  0  0  0  0  0
  -31.3296  -28.6303   18.6991 C   0  0  0  0  0  0  0  0  0  0  0  0
  -25.8655  -11.5100   20.3148 N   0  0  0  0  0  0  0  0  0  0  0  0
  -30.6922  -18.9697   22.7503 N   0  0  0  0  0  0  0  0  0  0  0  0
  -26.2454  -12.7870   20.1386 N   0  0  0  0  0  0  0  0  0  0  0  0
  -29.5111  -25.6725   17.7993 N   0  0  0  0  0  0  0  0  0  0  0  0
  -29.9736  -13.5815   20.3675 N   0  0  0  0  0  0  0  0  0  0  0  0
  -25.4773  -15.0231   20.2819 N   0  0  0  0  0  0  0  0  0  0  0  0
  -21.8728  -12.6018   21.5232 N   0  0  0  0  0  0  0  0  0  0  0  0
  -30.0698  -15.7052   21.3887 N   0  0  0  0  0  0  0  0  0  0  0  0
  -30.8514  -23.5031   15.1929 N   0  0  0  0  0  0  0  0  0  0  0  0
  -28.8271  -28.7388   19.0596 N   0  0  0  0  0  0  0  0  0  0  0  0
  -25.6764  -29.0437   20.8053 N   0  3  0  0  0  0  0  0  0  0  0  0
  -22.6545  -14.7278   21.1657 O   0  0  0  0  0  0  0  0  0  0  0  0
  -31.7095  -24.5967   17.0611 O   0  0  0  0  0  0  0  0  0  0  0  0
  -29.5277  -27.6196   16.5169 O   0  0  0  0  0  0  0  0  0  0  0  0
  -28.1723  -27.7706   21.0623 O   0  0  0  0  0  0  0  0  0  0  0  0
  -31.8646  -14.8953   20.1621 O   0  0  0  0  0  0  0  0  0  0  0  0
  -21.5930   -7.0481   21.8596 O   0  0  0  0  0  0  0  0  0  0  0  0
  -28.8366  -21.0366   21.8126 O   0  0  0  0  0  0  0  0  0  1  0  0
  -18.5334   -7.0709   26.4468 F   0  0  0  0  0  0  0  0  0  0  0  0
  -19.5964   -8.9252   22.2234 F   0  0  0  0  0  0  0  0  0  0  0  0
  1  2  1  0  0  0  0
  1  5  2  0  0  0  0
  2  6  2  0  0  0  0
  3  8  2  0  0  0  0
  3 17  1  0  0  0  0
  4  9  1  0  0  0  0
  4 17  2  0  0  0  0
  5 19  1  0  0  0  0
  6 21  1  0  0  0  0
  7 10  2  0  0  0  0
  7 20  1  0  0  0  0
  8 24  1  0  0  0  0
  9 24  2  0  0  0  0
 10 25  1  0  0  0  0
 11 12  2  0  0  0  0
 11 26  1  0  0  0  0
 12 27  1  0  0  0  0
 13 22  1  0  0  0  0
 13 25  2  0  0  0  0
 14 23  1  0  0  0  0
 14 30  2  0  0  0  0
 15 27  2  0  0  0  0
 15 28  1  0  0  0  0
 16 23  2  0  0  0  0
 16 63  1  0  0  0  0
 17 29  1  0  0  0  0
 18 29  1  0  0  0  0
 18 31  2  0  0  0  0
 18 32  1  0  0  0  0
 19 21  2  0  0  0  0
 19 37  1  0  0  0  0
 20 22  2  0  0  0  0
 20 38  1  0  0  0  0
 21 46  1  0  0  0  0
 22 39  1  0  0  0  0
 23 69  1  0  0  0  0
 24 78  1  0  0  0  0
 25 79  1  0  0  0  0
 26 28  2  0  0  0  0
 26 78  1  0  0  0  0
 27 80  1  0  0  0  0
 28 81  1  0  0  0  0
 29 62  2  0  0  0  0
 30 58  1  0  0  0  0
 30 63  1  0  0  0  0
 31 64  1  0  0  0  0
 31 67  1  0  0  0  0
 32 68  1  0  0  0  0
 32 73  2  0  0  0  0
 33 47  1  0  0  0  0
 33 70  1  0  0  0  0
 33 74  2  0  0  0  0
 34 59  1  0  0  0  0
 34 65  1  0  0  0  0
 34 75  2  0  0  0  0
 35 60  1  0  0  0  0
 35 71  1  0  0  0  0
 35 76  2  0  0  0  0
 36 66  1  0  0  0  0
 36 69  1  0  0  0  0
 36 77  2  0  0  0  0
 37 40  1  0  0  0  0
 38 47  1  0  0  0  0
 39 65  1  0  0  0  0
 40 42  1  0  0  0  0
 41 43  1  0  0  0  0
 41 44  1  0  0  0  0
 42 46  1  0  0  0  0
 43 48  1  0  0  0  0
 44 66  1  0  0  0  0
 45 48  1  0  0  0  0
 45 66  1  0  0  0  0
 46 70  1  0  0  0  0
 47 65  1  0  0  0  0
 48 64  1  0  0  0  0
 49 58  1  0  0  0  0
 50 58  1  0  0  0  0
 51 60  1  0  0  0  0
 52 61  1  0  0  0  0
 53 61  1  0  0  0  0
 54 61  1  0  0  0  0
 55 72  1  0  0  0  0
 56 57  1  0  0  0  0
 56 63  1  0  0  0  0
 57 79  1  0  0  0  0
 59 61  1  0  0  0  0
 59 71  1  0  0  0  0
 60 72  1  0  0  0  0
 62 64  1  0  0  0  0
M  CHG  1  72   1
M  ISO  4  36 100  57 101  69 100  79 101
M  END
> <Batch ID>
0110

> <Smiles>
CNC(C)C(=O)NC(C(=O)N1Cc2cc([101O:1][101CH2:1]Cn3cc([100NH:0][100C:0](=O)N4CCCC(n5nc(-c6ccc(Oc7ccc(F)cc7F)cc6)c(C(N)=O)c5N)C4)cc3C(C)C)ccc2CC1C(=O)NC1CCCc2ccccc21)C(C)(C)C

> <Shape>
0.282

> <Color>
0.197

> <Negative vol penalty>
0.000

$$$$

  -OEChem-04052319583D

 81 89  0     1  0  0  0  0  0999 V2000
  -32.4936  -31.9299   21.1630 C   0  0  0  0  0  0  0  0  0  0  0  0
  -31.7492  -30.7796   20.9219 C   0  0  0  0  0  0  0  0  0  0  0  0
  -24.5078   -8.8814   21.0499 C   0  0  0  0  0  0  0  0  0  0  0  0
  -24.4225  -10.6099   22.7358 C   0  0  0  0  0  0  0  0  0  0  0  0
  -32.1167  -32.8015   22.1839 C   0  0  0  0  0  0  0  0  0  0  0  0
  -30.6282  -30.4996   21.7024 C   0  0  0  0  0  0  0  0  0  0  0  0
  -26.6640  -28.9884   18.9372 C   0  0  0  0  0  0  0  0  0  0  0  0
  -24.1698   -7.9280   22.0103 C   0  0  0  0  0  0  0  0  0  0  0  0
  -24.0844   -9.6565   23.6962 C   0  0  0  0  0  0  0  0  0  0  0  0
  -26.6691  -27.6698   18.4844 C   0  0  0  0  0  0  0  0  0  0  0  0
  -21.3765   -6.8705   23.5952 C   0  0  0  0  0  0  0  0  0  0  0  0
  -20.4020   -5.9304   23.2604 C   0  0  0  0  0  0  0  0  0  0  0  0
  -25.1807  -27.0537   20.2801 C   0  0  0  0  0  0  0  0  0  0  0  0
  -21.9982   -4.1510   23.6110 C   0  0  0  0  0  0  0  0  0  0  0  0
  -24.6342  -10.2224   21.4127 C   0  0  0  0  0  0  0  0  0  0  0  0
  -24.2681  -11.5286   19.2523 C   0  0  0  0  0  0  0  0  0  0  0  0
  -30.9849  -32.5370   22.9710 C   0  0  0  0  0  0  0  0  0  0  0  0
  -25.9246  -29.3480   20.0732 C   0  0  0  0  0  0  0  0  0  0  0  0
  -30.2366  -31.3677   22.7357 C   0  0  0  0  0  0  0  0  0  0  0  0
  -25.1658  -28.3780   20.7438 C   0  0  0  0  0  0  0  0  0  0  0  0
  -23.9581   -8.3155   23.3334 C   0  0  0  0  0  0  0  0  0  0  0  0
  -25.9297  -26.7016   19.1575 C   0  0  0  0  0  0  0  0  0  0  0  0
  -22.6619   -6.4509   23.9379 C   0  0  0  0  0  0  0  0  0  0  0  0
  -20.7129   -4.5706   23.2683 C   0  0  0  0  0  0  0  0  0  0  0  0
  -22.9727   -5.0911   23.9458 C   0  0  0  0  0  0  0  0  0  0  0  0
  -24.9839  -11.2077   20.4212 C   0  0  0  0  0  0  0  0  0  0  0  0
  -25.0106  -12.5182   18.6557 C   0  0  0  0  0  0  0  0  0  0  0  0
  -23.0416  -10.9811   18.7505 C   0  0  0  0  0  0  0  0  0  0  0  0
  -26.6418  -30.5362   22.9328 C   0  0  0  0  0  0  0  0  0  0  0  0
  -23.4167  -30.6748   23.2525 C   0  0  0  0  0  0  0  0  0  0  0  0
  -27.0476  -19.2210   20.9346 C   0  0  0  0  0  0  0  0  0  0  0  0
  -20.5976  -28.5735   22.4436 C   0  0  0  0  0  0  0  0  0  0  0  0
  -28.9054  -16.5375   20.7834 C   0  0  0  0  0  0  0  0  0  0  0  0
  -30.6440  -33.4843   24.0940 C   0  0  0  0  0  0  0  0  0  0  0  0
  -25.9082  -30.7800   20.5332 C   0  0  0  0  0  0  0  0  0  0  0  0
  -24.3392  -28.7166   21.9564 C   0  0  0  0  0  0  0  0  0  0  0  0
  -29.2264  -33.3069   24.6315 C   0  0  0  0  0  0  0  0  0  0  0  0
  -29.5081  -14.1009   18.2582 C   0  0  0  0  0  0  0  0  0  0  0  0
  -28.9226  -31.8293   24.8585 C   0  0  0  0  0  0  0  0  0  0  0  0
  -28.3524  -13.1121   18.4207 C   0  0  0  0  0  0  0  0  0  0  0  0
  -28.1433  -22.6005   19.8704 C   0  0  0  0  0  0  0  0  0  0  0  0
  -25.8020  -22.2542   20.7680 C   0  0  0  0  0  0  0  0  0  0  0  0
  -27.6372  -23.7525   19.0064 C   0  0  0  0  0  0  0  0  0  0  0  0
  -25.3035  -23.4080   19.9019 C   0  0  0  0  0  0  0  0  0  0  0  0
  -29.9813  -14.6424   19.6054 C   0  0  0  0  0  0  0  0  0  0  0  0
  -27.7644  -14.2433   20.6055 C   0  0  0  0  0  0  0  0  0  0  0  0
  -28.9998  -31.0421   23.5448 C   0  0  1  0  0  0  0  0  0  0  0  0
  -25.5293  -30.9311   22.0032 C   0  0  1  0  0  0  0  0  0  0  0  0
  -27.2159  -13.7125   19.2700 C   0  0  2  0  0  0  0  0  0  0  0  0
  -27.0326  -21.5842   20.1509 C   0  0  0  0  0  0  0  0  0  0  0  0
  -26.4107  -24.4224   19.6212 C   0  0  0  0  0  0  0  0  0  1  0  0
  -18.2068  -29.1649   21.9623 C   0  0  0  0  0  0  0  0  0  0  0  0
  -22.9903  -30.1471   26.2273 C   0  0  0  0  0  0  0  0  0  0  0  0
  -20.7892  -29.1003   25.6549 C   0  0  0  0  0  0  0  0  0  0  0  0
  -21.1947  -31.5075   25.1413 C   0  0  0  0  0  0  0  0  0  0  0  0
  -20.6532  -27.1691   19.8391 C   0  0  0  0  0  0  0  0  0  0  0  0
  -27.6954  -18.3419   21.9830 C   0  0  0  0  0  0  0  0  0  0  0  0
  -22.3513  -29.7335   23.7602 C   0  0  1  0  0  0  0  0  0  0  0  0
  -19.5610  -28.8200   21.3624 C   0  0  2  0  0  0  0  0  0  0  0  0
  -21.8554  -30.1124   25.1843 C   0  0  0  0  0  0  0  0  0  0  0  0
  -26.0958  -11.9344   20.5608 N   0  0  0  0  0  0  0  0  0  0  0  0
  -26.0844  -12.7217   19.4717 N   0  0  0  0  0  0  0  0  0  0  0  0
  -24.3606  -30.1291   22.3710 N   0  0  0  0  0  0  0  0  0  0  0  0
  -28.8560  -15.1989   20.3604 N   0  0  0  0  0  0  0  0  0  0  0  0
  -24.8433  -13.2253   17.5181 N   0  0  0  0  0  0  0  0  0  0  0  0
  -22.4096   -9.9709   19.4883 N   0  0  0  0  0  0  0  0  0  0  0  0
  -27.8065  -31.2583   22.7551 N   0  0  0  0  0  0  0  0  0  0  0  0
  -27.5136  -20.5266   21.0066 N   0  0  0  0  0  0  0  0  0  0  0  0
  -21.3023  -29.7193   22.7463 N   0  0  0  0  0  0  0  0  0  0  0  0
  -27.7951  -16.9871   21.4875 N   0  0  0  0  0  0  0  0  0  0  0  0
  -19.4026  -27.6075   20.5105 N   0  3  0  0  0  0  0  0  0  0  0  0
  -22.5300  -11.3647   17.6713 O   0  0  0  0  0  0  0  0  0  0  0  0
  -26.4566  -29.6437   23.7518 O   0  0  0  0  0  0  0  0  0  0  0  0
  -23.4075  -31.8527   23.6188 O   0  0  0  0  0  0  0  0  0  0  0  0
  -26.1903  -18.8175   20.1529 O   0  0  0  0  0  0  0  0  0  0  0  0
  -20.7629  -27.4752   22.9699 O   0  0  0  0  0  0  0  0  0  0  0  0
  -29.8653  -17.2785   20.5461 O   0  0  0  0  0  0  0  0  0  0  0  0
  -23.6280   -7.3855   24.2708 O   0  0  0  0  0  0  0  0  0  0  0  0
  -25.9335  -25.4137   18.7180 O   0  0  0  0  0  0  0  0  0  1  0  0
  -19.7765   -3.6678   22.9483 F   0  0  0  0  0  0  0  0  0  0  0  0
  -24.2055   -4.6819   24.2753 F   0  0  0  0  0  0  0  0  0  0  0  0
  1  2  1  0  0  0  0
  1  5  2  0  0  0  0
  2  6  2  0  0  0  0
  3  8  2  0  0  0  0
  3 15  1  0  0  0  0
  4  9  1  0  0  0  0
  4 15  2  0  0  0  0
  5 17  1  0  0  0  0
  6 19  1  0  0  0  0
  7 10  2  0  0  0  0
  7 18  1  0  0  0  0
  8 21  1  0  0  0  0
  9 21  2  0  0  0  0
 10 22  1  0  0  0  0
 11 12  2  0  0  0  0
 11 23  1  0  0  0  0
 12 24  1  0  0  0  0
 13 20  1  0  0  0  0
 13 22  2  0  0  0  0
 14 24  2  0  0  0  0
 14 25  1  0  0  0  0
 15 26  1  0  0  0  0
 16 26  1  0  0  0  0
 16 27  2  0  0  0  0
 16 28  1  0  0  0  0
 17 19  2  0  0  0  0
 17 34  1  0  0  0  0
 18 20  2  0  0  0  0
 18 35  1  0  0  0  0
 19 47  1  0  0  0  0
 20 36  1  0  0  0  0
 21 78  1  0  0  0  0
 22 79  1  0  0  0  0
 23 25  2  0  0  0  0
 23 78  1  0  0  0  0
 24 80  1  0  0  0  0
 25 81  1  0  0  0  0
 26 61  2  0  0  0  0
 27 62  1  0  0  0  0
 27 65  1  0  0  0  0
 28 66  1  0  0  0  0
 28 72  2  0  0  0  0
 29 48  1  0  0  0  0
 29 67  1  0  0  0  0
 29 73  2  0  0  0  0
 30 58  1  0  0  0  0
 30 63  1  0  0  0  0
 30 74  2  0  0  0  0
 31 57  1  0  0  0  0
 31 68  1  0  0  0  0
 31 75  2  0  0  0  0
 32 59  1  0  0  0  0
 32 69  1  0  0  0  0
 32 76  2  0  0  0  0
 33 64  1  0  0  0  0
 33 70  1  0  0  0  0
 33 77  2  0  0  0  0
 34 37  1  0  0  0  0
 35 48  1  0  0  0  0
 36 63  1  0  0  0  0
 37 39  1  0  0  0  0
 38 40  1  0  0  0  0
 38 45  1  0  0  0  0
 39 47  1  0  0  0  0
 40 49  1  0  0  0  0
 41 43  1  0  0  0  0
 41 50  1  0  0  0  0
 42 44  1  0  0  0  0
 42 50  1  0  0  0  0
 43 51  1  0  0  0  0
 44 51  1  0  0  0  0
 45 64  1  0  0  0  0
 46 49  1  0  0  0  0
 46 64  1  0  0  0  0
 47 67  1  0  0  0  0
 48 63  1  0  0  0  0
 49 62  1  0  0  0  0
 50 68  1  0  0  0  0
 51 79  1  0  0  0  0
 52 59  1  0  0  0  0
 53 60  1  0  0  0  0
 54 60  1  0  0  0  0
 55 60  1  0  0  0  0
 56 71  1  0  0  0  0
 57 70  1  0  0  0  0
 58 60  1  0  0  0  0
 58 69  1  0  0  0  0
 59 71  1  0  0  0  0
 61 62  1  0  0  0  0
M  CHG  1  71   1
M  ISO  4  33 100  51 101  70 100  79 101
M  END
> <Batch ID>
0110

> <Smiles>
CNC(C)C(=O)NC(C(=O)N1Cc2cc([101O:1][101CH:1]3CCC(NC(=O)C[100NH:0][100C:0](=O)N4CCCC(n5nc(-c6ccc(Oc7ccc(F)cc7F)cc6)c(C(N)=O)c5N)C4)CC3)ccc2CC1C(=O)NC1CCCc2ccccc21)C(C)(C)C

> <Shape>
0.258

> <Color>
0.113

> <Negative vol penalty>
0.000

$$$$

  -OEChem-04052319583D

 89 98  0     1  0  0  0  0  0999 V2000
  -29.7933  -34.6624   22.2894 C   0  0  0  0  0  0  0  0  0  0  0  0
  -29.7247  -33.3073   21.9824 C   0  0  0  0  0  0  0  0  0  0  0  0
  -24.7156   -9.0728   21.8780 C   0  0  0  0  0  0  0  0  0  0  0  0
  -23.2166  -10.1964   20.3523 C   0  0  0  0  0  0  0  0  0  0  0  0
  -28.9273  -35.2060   23.2373 C   0  0  0  0  0  0  0  0  0  0  0  0
  -28.7906  -32.4947   22.6239 C   0  0  0  0  0  0  0  0  0  0  0  0
  -26.3925  -29.3896   19.4219 C   0  0  0  0  0  0  0  0  0  0  0  0
  -23.6225   -8.5163   22.5421 C   0  0  0  0  0  0  0  0  0  0  0  0
  -22.1235   -9.6399   21.0164 C   0  0  0  0  0  0  0  0  0  0  0  0
  -27.0816  -28.2530   19.0010 C   0  0  0  0  0  0  0  0  0  0  0  0
  -21.4609   -5.9589   22.0729 C   0  0  0  0  0  0  0  0  0  0  0  0
  -21.5206   -4.6035   22.3967 C   0  0  0  0  0  0  0  0  0  0  0  0
  -23.5398  -18.4022   15.6566 C   0  0  0  0  0  0  0  0  0  0  0  0
  -25.8683  -26.9286   20.6113 C   0  0  0  0  0  0  0  0  0  0  0  0
  -26.8748  -19.0390   18.0032 C   0  0  0  0  0  0  0  0  0  0  0  0
  -21.2971   -5.1531   24.7387 C   0  0  0  0  0  0  0  0  0  0  0  0
  -23.2754  -17.0962   16.0055 C   0  0  0  0  0  0  0  0  0  0  0  0
  -24.5127   -9.9130   20.7831 C   0  0  0  0  0  0  0  0  0  0  0  0
  -26.3421   -9.9415   19.0054 C   0  0  0  0  0  0  0  0  0  0  0  0
  -27.9757  -34.4015   23.8838 C   0  0  0  0  0  0  0  0  0  0  0  0
  -25.4424  -29.3061   20.4498 C   0  0  0  0  0  0  0  0  0  0  0  0
  -27.9120  -33.0277   23.5823 C   0  0  0  0  0  0  0  0  0  0  0  0
  -25.1667  -28.0651   21.0416 C   0  0  0  0  0  0  0  0  0  0  0  0
  -24.6857  -18.8074   16.3843 C   0  0  0  0  0  0  0  0  0  0  0  0
  -25.0944  -17.7275   17.1645 C   0  0  0  0  0  0  0  0  0  0  0  0
  -26.2073  -17.8182   17.9991 C   0  0  0  0  0  0  0  0  0  0  0  0
  -22.3265   -8.7998   22.1113 C   0  0  0  0  0  0  0  0  0  0  0  0
  -26.8216  -27.0228   19.5977 C   0  0  0  0  0  0  0  0  0  0  0  0
  -21.3195   -6.9115   23.0821 C   0  0  0  0  0  0  0  0  0  0  0  0
  -21.4386   -4.2006   23.7296 C   0  0  0  0  0  0  0  0  0  0  0  0
  -21.2375   -6.5086   24.4149 C   0  0  0  0  0  0  0  0  0  0  0  0
  -25.6414  -10.4886   20.0970 C   0  0  0  0  0  0  0  0  0  0  0  0
  -26.4042  -20.0665   17.1969 C   0  0  0  0  0  0  0  0  0  0  0  0
  -27.3184  -10.8663   18.7259 C   0  0  0  0  0  0  0  0  0  0  0  0
  -26.1294   -8.7078   18.3066 C   0  0  0  0  0  0  0  0  0  0  0  0
  -25.1586  -30.5745   23.3506 C   0  0  0  0  0  0  0  0  0  0  0  0
  -22.2484  -29.1443   23.2658 C   0  0  0  0  0  0  0  0  0  0  0  0
  -20.2633  -26.6894   21.9697 C   0  0  0  0  0  0  0  0  0  0  0  0
  -27.7593  -16.7499   19.6714 C   0  0  0  0  0  0  0  0  0  0  0  0
  -27.0927  -35.0247   24.9357 C   0  0  0  0  0  0  0  0  0  0  0  0
  -24.6885  -30.5365   20.8740 C   0  0  0  0  0  0  0  0  0  0  0  0
  -24.1416  -27.9183   22.1352 C   0  0  0  0  0  0  0  0  0  0  0  0
  -25.8803  -34.1705   25.2973 C   0  0  0  0  0  0  0  0  0  0  0  0
  -29.9982  -14.2339   20.8263 C   0  0  0  0  0  0  0  0  0  0  0  0
  -26.2959  -32.7192   25.5160 C   0  0  0  0  0  0  0  0  0  0  0  0
  -29.2010  -12.9375   20.6653 C   0  0  0  0  0  0  0  0  0  0  0  0
  -29.1080  -15.3969   21.2605 C   0  0  0  0  0  0  0  0  0  0  0  0
  -27.1292  -14.3260   20.2573 C   0  0  0  0  0  0  0  0  0  0  0  0
  -26.8957  -32.1187   24.2388 C   0  0  1  0  0  0  0  0  0  0  0  0
  -24.1121  -30.4283   22.2824 C   0  0  1  0  0  0  0  0  0  0  0  0
  -27.9717  -13.1408   19.7581 C   0  0  2  0  0  0  0  0  0  0  0  0
  -17.9423  -25.7474   22.1217 C   0  0  0  0  0  0  0  0  0  0  0  0
  -23.7815  -13.5712   15.0206 C   0  0  0  0  0  0  0  0  0  0  0  0
  -22.9663  -27.8091   25.9138 C   0  0  0  0  0  0  0  0  0  0  0  0
  -21.0846  -26.2019   25.5336 C   0  0  0  0  0  0  0  0  0  0  0  0
  -20.6119  -28.6399   25.7690 C   0  0  0  0  0  0  0  0  0  0  0  0
  -19.7146  -27.2736   19.1207 C   0  0  0  0  0  0  0  0  0  0  0  0
  -27.1385  -21.3835   17.2125 C   0  0  0  0  0  0  0  0  0  0  0  0
  -26.6193  -22.3694   18.2651 C   0  0  0  0  0  0  0  0  0  0  0  0
  -27.3242  -23.7256   18.2142 C   0  0  0  0  0  0  0  0  0  0  0  0
  -25.2807  -14.4356   16.8623 C   0  0  0  0  0  0  0  0  0  0  0  0
  -24.2578  -15.3780   17.5088 C   0  0  0  0  0  0  0  0  0  0  0  0
  -26.8107  -24.6635   19.2983 C   0  0  0  0  0  0  0  0  0  1  0  0
  -21.7115  -27.7888   23.6574 C   0  0  1  0  0  0  0  0  0  0  0  0
  -18.8560  -26.7269   21.4017 C   0  0  2  0  0  0  0  0  0  0  0  0
  -25.1177  -14.2242   15.3517 C   0  0  1  0  0  0  0  0  0  0  0  0
  -21.6143  -27.6127   25.1992 C   0  0  0  0  0  0  0  0  0  0  0  0
  -25.3284  -20.0032   16.3799 N   0  0  0  0  0  0  0  0  0  0  0  0
  -26.1311  -11.6693   20.4846 N   0  0  0  0  0  0  0  0  0  0  0  0
  -24.2198  -16.6979   16.9167 N   0  0  0  0  0  0  0  0  0  0  0  0
  -27.1500  -11.8717   19.6320 N   0  0  0  0  0  0  0  0  0  0  0  0
  -23.4353  -29.1516   22.5195 N   0  0  0  0  0  0  0  0  0  0  0  0
  -27.9668  -15.5318   20.3526 N   0  0  0  0  0  0  0  0  0  0  0  0
  -28.2960  -10.9093   17.7960 N   0  0  0  0  0  0  0  0  0  0  0  0
  -25.0818   -7.8755   18.7240 N   0  0  0  0  0  0  0  0  0  0  0  0
  -26.6620  -16.7495   18.8108 N   0  0  0  0  0  0  0  0  0  0  0  0
  -25.8477  -31.7713   23.3031 N   0  0  0  0  0  0  0  0  0  0  0  0
  -20.4408  -27.6351   22.9573 N   0  0  0  0  0  0  0  0  0  0  0  0
  -26.1990  -13.3334   14.8462 N   0  3  0  0  0  0  0  0  0  0  0  0
  -18.8725  -26.3765   19.9533 N   0  3  0  0  0  0  0  0  0  0  0  0
  -26.8572   -8.3463   17.3511 O   0  0  0  0  0  0  0  0  0  0  0  0
  -25.3274  -29.6691   24.1590 O   0  0  0  0  0  0  0  0  0  0  0  0
  -21.6333  -30.1589   23.6033 O   0  0  0  0  0  0  0  0  0  0  0  0
  -21.1183  -25.8976   21.5792 O   0  0  0  0  0  0  0  0  0  0  0  0
  -28.5162  -17.7129   19.8184 O   0  0  0  0  0  0  0  0  0  0  0  0
  -21.2596   -8.2567   22.7589 O   0  0  0  0  0  0  0  0  0  0  0  0
  -27.4932  -25.9120   19.1893 O   0  0  0  0  0  0  0  0  0  1  0  0
  -21.4943   -2.8988   24.0402 F   0  0  0  0  0  0  0  0  0  0  0  0
  -21.1003   -7.4190   25.3887 F   0  0  0  0  0  0  0  0  0  0  0  0
  1  2  1  0  0  0  0
  1  5  2  0  0  0  0
  2  6  2  0  0  0  0
  3  8  2  0  0  0  0
  3 18  1  0  0  0  0
  4  9  1  0  0  0  0
  4 18  2  0  0  0  0
  5 20  1  0  0  0  0
  6 22  1  0  0  0  0
  7 10  2  0  0  0  0
  7 21  1  0  0  0  0
  8 27  1  0  0  0  0
  9 27  2  0  0  0  0
 10 28  1  0  0  0  0
 11 12  2  0  0  0  0
 11 29  1  0  0  0  0
 12 30  1  0  0  0  0
 13 17  2  0  0  0  0
 13 24  1  0  0  0  0
 14 23  1  0  0  0  0
 14 28  2  0  0  0  0
 15 26  2  0  0  0  0
 15 33  1  0  0  0  0
 16 30  2  0  0  0  0
 16 31  1  0  0  0  0
 17 70  1  0  0  0  0
 18 32  1  0  0  0  0
 19 32  1  0  0  0  0
 19 34  2  0  0  0  0
 19 35  1  0  0  0  0
 20 22  2  0  0  0  0
 20 40  1  0  0  0  0
 21 23  2  0  0  0  0
 21 41  1  0  0  0  0
 22 49  1  0  0  0  0
 23 42  1  0  0  0  0
 24 25  2  0  0  0  0
 24 68  1  0  0  0  0
 25 26  1  0  0  0  0
 25 70  1  0  0  0  0
 26 76  1  0  0  0  0
 27 86  1  0  0  0  0
 28 87  1  0  0  0  0
 29 31  2  0  0  0  0
 29 86  1  0  0  0  0
 30 88  1  0  0  0  0
 31 89  1  0  0  0  0
 32 69  2  0  0  0  0
 33 58  1  0  0  0  0
 33 68  2  0  0  0  0
 34 71  1  0  0  0  0
 34 74  1  0  0  0  0
 35 75  1  0  0  0  0
 35 81  2  0  0  0  0
 36 50  1  0  0  0  0
 36 77  1  0  0  0  0
 36 82  2  0  0  0  0
 37 64  1  0  0  0  0
 37 72  1  0  0  0  0
 37 83  2  0  0  0  0
 38 65  1  0  0  0  0
 38 78  1  0  0  0  0
 38 84  2  0  0  0  0
 39 73  1  0  0  0  0
 39 76  1  0  0  0  0
 39 85  2  0  0  0  0
 40 43  1  0  0  0  0
 41 50  1  0  0  0  0
 42 72  1  0  0  0  0
 43 45  1  0  0  0  0
 44 46  1  0  0  0  0
 44 47  1  0  0  0  0
 45 49  1  0  0  0  0
 46 51  1  0  0  0  0
 47 73  1  0  0  0  0
 48 51  1  0  0  0  0
 48 73  1  0  0  0  0
 49 77  1  0  0  0  0
 50 72  1  0  0  0  0
 51 71  1  0  0  0  0
 52 65  1  0  0  0  0
 53 66  1  0  0  0  0
 54 67  1  0  0  0  0
 55 67  1  0  0  0  0
 56 67  1  0  0  0  0
 57 80  1  0  0  0  0
 58 59  1  0  0  0  0
 59 60  1  0  0  0  0
 60 63  1  0  0  0  0
 61 62  1  0  0  0  0
 61 66  1  0  0  0  0
 62 70  1  0  0  0  0
 63 87  1  0  0  0  0
 64 67  1  0  0  0  0
 64 78  1  0  0  0  0
 65 80  1  0  0  0  0
 66 79  1  0  0  0  0
 69 71  1  0  0  0  0
M  CHG  2  79   1  80   1
M  ISO  4  39 100  63 101  76 100  87 101
M  END
> <Batch ID>
0110

> <Smiles>
CNC(C)C(=O)NC(C(=O)N1Cc2cc([101O:1][101CH2:1]CCCc3cc([100NH:0][100C:0](=O)N4CCCC(n5nc(-c6ccc(Oc7ccc(F)cc7F)cc6)c(C(N)=O)c5N)C4)c4c(ccn4CCC(C)N)n3)ccc2CC1C(=O)NC1CCCc2ccccc21)C(C)(C)C

> <Shape>
0.280

> <Color>
0.077

> <Negative vol penalty>
0.000

$$$$

  -OEChem-04052319583D

 85 94  0     1  0  0  0  0  0999 V2000
  -27.4326  -31.7905   25.7343 C   0  0  0  0  0  0  0  0  0  0  0  0
  -26.9132  -30.5495   25.3798 C   0  0  0  0  0  0  0  0  0  0  0  0
  -23.0788   -9.8625   19.9438 C   0  0  0  0  0  0  0  0  0  0  0  0
  -23.8380   -9.8775   22.2374 C   0  0  0  0  0  0  0  0  0  0  0  0
  -28.7220  -32.1439   25.3389 C   0  0  0  0  0  0  0  0  0  0  0  0
  -27.6826  -29.6616   24.6288 C   0  0  0  0  0  0  0  0  0  0  0  0
  -27.7121  -23.5518   25.0469 C   0  0  0  0  0  0  0  0  0  0  0  0
  -22.3375   -8.7083   20.1967 C   0  0  0  0  0  0  0  0  0  0  0  0
  -23.0966   -8.7234   22.4903 C   0  0  0  0  0  0  0  0  0  0  0  0
  -27.0813  -22.5575   24.3006 C   0  0  0  0  0  0  0  0  0  0  0  0
  -19.8702   -7.9197   23.0941 C   0  0  0  0  0  0  0  0  0  0  0  0
  -19.1130   -7.8813   24.2649 C   0  0  0  0  0  0  0  0  0  0  0  0
  -29.0786  -22.2947   22.9736 C   0  0  0  0  0  0  0  0  0  0  0  0
  -28.9464  -18.7170   21.8587 C   0  0  0  0  0  0  0  0  0  0  0  0
  -20.3586   -5.9487   25.0070 C   0  0  0  0  0  0  0  0  0  0  0  0
  -29.7271  -19.9145   20.1191 C   0  0  0  0  0  0  0  0  0  0  0  0
  -23.8291  -10.4471   20.9641 C   0  0  0  0  0  0  0  0  0  0  0  0
  -24.1651  -12.9727   20.8373 C   0  0  0  0  0  0  0  0  0  0  0  0
  -29.5113  -31.2561   24.5909 C   0  0  0  0  0  0  0  0  0  0  0  0
  -29.0295  -23.9333   24.7547 C   0  0  0  0  0  0  0  0  0  0  0  0
  -28.9834  -30.0040   24.2219 C   0  0  0  0  0  0  0  0  0  0  0  0
  -29.7248  -23.2924   23.7194 C   0  0  0  0  0  0  0  0  0  0  0  0
  -28.7096  -19.8527   21.0455 C   0  0  0  0  0  0  0  0  0  0  0  0
  -22.3464   -8.1387   21.4700 C   0  0  0  0  0  0  0  0  0  0  0  0
  -27.7635  -21.9308   23.2618 C   0  0  0  0  0  0  0  0  0  0  0  0
  -20.8716   -6.9726   22.8797 C   0  0  0  0  0  0  0  0  0  0  0  0
  -19.3572   -6.8958   25.2213 C   0  0  0  0  0  0  0  0  0  0  0  0
  -21.1158   -5.9872   23.8362 C   0  0  0  0  0  0  0  0  0  0  0  0
  -24.5955  -11.6390   20.7034 C   0  0  0  0  0  0  0  0  0  0  0  0
  -30.1015  -18.1195   21.4045 C   0  0  0  0  0  0  0  0  0  0  0  0
  -25.2556  -13.7237   20.4723 C   0  0  0  0  0  0  0  0  0  0  0  0
  -22.8933  -13.4867   21.2544 C   0  0  0  0  0  0  0  0  0  0  0  0
  -30.4278  -26.6278   23.8124 C   0  0  0  0  0  0  0  0  0  0  0  0
  -33.1462  -24.9148   24.2577 C   0  0  0  0  0  0  0  0  0  0  0  0
  -34.6468  -21.8545   24.4298 C   0  0  0  0  0  0  0  0  0  0  0  0
  -30.7369  -14.7560   20.6595 C   0  0  0  0  0  0  0  0  0  0  0  0
  -30.8819  -31.7013   24.1463 C   0  0  0  0  0  0  0  0  0  0  0  0
  -29.7050  -24.9889   25.5865 C   0  0  0  0  0  0  0  0  0  0  0  0
  -31.1473  -23.6512   23.3786 C   0  0  0  0  0  0  0  0  0  0  0  0
  -31.7706  -30.5545   23.6715 C   0  0  0  0  0  0  0  0  0  0  0  0
  -35.4251  -19.1592   20.2971 C   0  0  0  0  0  0  0  0  0  0  0  0
  -34.8343  -20.5477   20.5485 C   0  0  0  0  0  0  0  0  0  0  0  0
  -29.6056  -12.3622   18.2789 C   0  0  0  0  0  0  0  0  0  0  0  0
  -31.0009  -29.6395   22.7244 C   0  0  0  0  0  0  0  0  0  0  0  0
  -34.2791  -18.2993   19.7729 C   0  0  0  0  0  0  0  0  0  0  0  0
  -33.3658  -20.4611   20.1458 C   0  0  0  0  0  0  0  0  0  0  0  0
  -28.1687  -12.0664   18.7122 C   0  0  0  0  0  0  0  0  0  0  0  0
  -30.5218  -12.5885   19.4795 C   0  0  0  0  0  0  0  0  0  0  0  0
  -28.6180  -13.3190   20.8635 C   0  0  0  0  0  0  0  0  0  0  0  0
  -29.7963  -29.0038   23.4290 C   0  0  1  0  0  0  0  0  0  0  0  0
  -30.8738  -25.6574   24.8694 C   0  0  1  0  0  0  0  0  0  0  0  0
  -33.0259  -18.9832   20.3105 C   0  0  0  0  0  0  0  0  0  0  0  0
  -27.6446  -13.1389   19.6860 C   0  0  2  0  0  0  0  0  0  0  0  0
  -26.3471  -20.3802   20.3502 C   0  0  0  0  0  0  0  0  0  0  0  0
  -36.8868  -20.7751   24.7684 C   0  0  0  0  0  0  0  0  0  0  0  0
  -33.9318  -25.6556   21.4040 C   0  0  0  0  0  0  0  0  0  0  0  0
  -35.6395  -23.8261   21.4733 C   0  0  0  0  0  0  0  0  0  0  0  0
  -35.8052  -25.7452   23.0583 C   0  0  0  0  0  0  0  0  0  0  0  0
  -33.7303  -20.4483   26.8674 C   0  0  0  0  0  0  0  0  0  0  0  0
  -30.7974  -16.9101   21.8904 C   0  0  0  0  0  0  0  0  0  0  0  0
  -31.7598  -18.5748   19.5780 C   0  0  0  0  0  0  0  0  0  0  0  0
  -27.5539  -20.8189   21.1700 C   0  0  1  0  0  0  0  0  0  1  0  0
  -33.9949  -24.0127   23.3946 C   0  0  1  0  0  0  0  0  0  0  0  0
  -35.6120  -21.2613   25.4402 C   0  0  2  0  0  0  0  0  0  0  0  0
  -34.8154  -24.8043   22.3375 C   0  0  0  0  0  0  0  0  0  0  0  0
  -25.8607  -11.5450   20.2857 N   0  0  0  0  0  0  0  0  0  0  0  0
  -30.5674  -18.8562   20.3471 N   0  0  0  0  0  0  0  0  0  0  0  0
  -26.2346  -12.8291   20.1540 N   0  0  0  0  0  0  0  0  0  0  0  0
  -31.7623  -24.6937   24.2167 N   0  0  0  0  0  0  0  0  0  0  0  0
  -29.9686  -13.6182   20.3624 N   0  0  0  0  0  0  0  0  0  0  0  0
  -25.4629  -15.0554   20.3956 N   0  0  0  0  0  0  0  0  0  0  0  0
  -21.8834  -12.5761   21.5938 N   0  0  0  0  0  0  0  0  0  0  0  0
  -30.2252  -27.9130   24.2780 N   0  0  0  0  0  0  0  0  0  0  0  0
  -34.8076  -23.2187   24.3097 N   0  0  0  0  0  0  0  0  0  0  0  0
  -30.1354  -15.6857   21.4988 N   0  0  0  0  0  0  0  0  0  0  0  0
  -34.9820  -20.1082   26.1433 N   0  3  0  0  0  0  0  0  0  0  0  0
  -22.6542  -14.7169   21.3082 O   0  0  0  0  0  0  0  0  0  0  0  0
  -30.2800  -26.2397   22.6595 O   0  0  0  0  0  0  0  0  0  0  0  0
  -33.6917  -25.7790   24.9485 O   0  0  0  0  0  0  0  0  0  0  0  0
  -33.8341  -21.1751   23.8066 O   0  0  0  0  0  0  0  0  0  0  0  0
  -31.8726  -14.9328   20.2057 O   0  0  0  0  0  0  0  0  0  0  0  0
  -21.6230   -7.0126   21.7172 O   0  0  0  0  0  0  0  0  0  0  0  0
  -27.1498  -20.9604   22.5313 O   0  0  0  0  0  0  0  0  0  1  0  0
  -18.6310   -6.8599   26.3463 F   0  0  0  0  0  0  0  0  0  0  0  0
  -22.0773   -5.0754   23.6364 F   0  0  0  0  0  0  0  0  0  0  0  0
  1  2  1  0  0  0  0
  1  5  2  0  0  0  0
  2  6  2  0  0  0  0
  3  8  2  0  0  0  0
  3 17  1  0  0  0  0
  4  9  1  0  0  0  0
  4 17  2  0  0  0  0
  5 19  1  0  0  0  0
  6 21  1  0  0  0  0
  7 10  2  0  0  0  0
  7 20  1  0  0  0  0
  8 24  1  0  0  0  0
  9 24  2  0  0  0  0
 10 25  1  0  0  0  0
 11 12  2  0  0  0  0
 11 26  1  0  0  0  0
 12 27  1  0  0  0  0
 13 22  1  0  0  0  0
 13 25  2  0  0  0  0
 14 23  1  0  0  0  0
 14 30  2  0  0  0  0
 15 27  2  0  0  0  0
 15 28  1  0  0  0  0
 16 23  2  0  0  0  0
 16 67  1  0  0  0  0
 17 29  1  0  0  0  0
 18 29  1  0  0  0  0
 18 31  2  0  0  0  0
 18 32  1  0  0  0  0
 19 21  2  0  0  0  0
 19 37  1  0  0  0  0
 20 22  2  0  0  0  0
 20 38  1  0  0  0  0
 21 50  1  0  0  0  0
 22 39  1  0  0  0  0
 23 62  1  0  0  0  0
 24 82  1  0  0  0  0
 25 83  1  0  0  0  0
 26 28  2  0  0  0  0
 26 82  1  0  0  0  0
 27 84  1  0  0  0  0
 28 85  1  0  0  0  0
 29 66  2  0  0  0  0
 30 60  1  0  0  0  0
 30 67  1  0  0  0  0
 31 68  1  0  0  0  0
 31 71  1  0  0  0  0
 32 72  1  0  0  0  0
 32 77  2  0  0  0  0
 33 51  1  0  0  0  0
 33 73  1  0  0  0  0
 33 78  2  0  0  0  0
 34 63  1  0  0  0  0
 34 69  1  0  0  0  0
 34 79  2  0  0  0  0
 35 64  1  0  0  0  0
 35 74  1  0  0  0  0
 35 80  2  0  0  0  0
 36 70  1  0  0  0  0
 36 75  1  0  0  0  0
 36 81  2  0  0  0  0
 37 40  1  0  0  0  0
 38 51  1  0  0  0  0
 39 69  1  0  0  0  0
 40 44  1  0  0  0  0
 41 42  1  0  0  0  0
 41 45  1  0  0  0  0
 42 46  1  0  0  0  0
 43 47  1  0  0  0  0
 43 48  1  0  0  0  0
 44 50  1  0  0  0  0
 45 52  1  0  0  0  0
 46 52  1  0  0  0  0
 47 53  1  0  0  0  0
 48 70  1  0  0  0  0
 49 53  1  0  0  0  0
 49 70  1  0  0  0  0
 50 73  1  0  0  0  0
 51 69  1  0  0  0  0
 52 61  1  0  0  0  0
 53 68  1  0  0  0  0
 54 62  1  0  0  0  0
 55 64  1  0  0  0  0
 56 65  1  0  0  0  0
 57 65  1  0  0  0  0
 58 65  1  0  0  0  0
 59 76  1  0  0  0  0
 60 75  1  0  0  0  0
 61 67  1  0  0  0  0
 62 83  1  0  0  0  0
 63 65  1  0  0  0  0
 63 74  1  0  0  0  0
 64 76  1  0  0  0  0
 66 68  1  0  0  0  0
M  CHG  1  76   1
M  ISO  4  36 100  62 101  75 100  83 101
M  END
> <Batch ID>
0110

> <Smiles>
CNC(C)C(=O)NC(C(=O)N1Cc2cc([101O:1][101CH:1](C)c3cc(C[100NH:0][100C:0](=O)N4CCCC(n5nc(-c6ccc(Oc7ccc(F)cc7F)cc6)c(C(N)=O)c5N)C4)n(CC4CCCC4)c3)ccc2CC1C(=O)NC1CCCc2ccccc21)C(C)(C)C

> <Shape>
0.228

> <Color>
0.196

> <Negative vol penalty>
0.000

$$$$

  -OEChem-04052319583D

 94103  0     1  0  0  0  0  0999 V2000
  -25.3174  -30.5075   21.9218 C   0  0  0  0  0  0  0  0  0  0  0  0
  -24.9834  -29.2154   22.3149 C   0  0  0  0  0  0  0  0  0  0  0  0
  -30.3334  -22.8783   21.3534 C   0  0  0  0  0  0  0  0  0  0  0  0
  -29.3014  -22.4737   19.2067 C   0  0  0  0  0  0  0  0  0  0  0  0
  -24.8515  -31.0076   20.7067 C   0  0  0  0  0  0  0  0  0  0  0  0
  -24.1823  -28.4231   21.4934 C   0  0  0  0  0  0  0  0  0  0  0  0
  -23.1734  -21.5910   19.5905 C   0  0  0  0  0  0  0  0  0  0  0  0
  -30.8940  -24.0572   20.8618 C   0  0  0  0  0  0  0  0  0  0  0  0
  -29.8619  -23.6526   18.7150 C   0  0  0  0  0  0  0  0  0  0  0  0
  -22.1607  -20.6374   19.4965 C   0  0  0  0  0  0  0  0  0  0  0  0
  -30.7258  -26.7405   17.0013 C   0  0  0  0  0  0  0  0  0  0  0  0
  -29.9071  -27.5856   16.2522 C   0  0  0  0  0  0  0  0  0  0  0  0
  -21.4788  -21.5788   17.3827 C   0  0  0  0  0  0  0  0  0  0  0  0
  -24.5538  -13.9556   20.4543 C   0  0  0  0  0  0  0  0  0  0  0  0
  -28.4178  -27.8164   18.1405 C   0  0  0  0  0  0  0  0  0  0  0  0
  -29.5372  -22.0866   20.5258 C   0  0  0  0  0  0  0  0  0  0  0  0
  -27.7079  -20.7190   21.6621 C   0  0  0  0  0  0  0  0  0  0  0  0
  -24.0522  -30.2176   19.8654 C   0  0  0  0  0  0  0  0  0  0  0  0
  -23.3398  -22.5541   18.5849 C   0  0  0  0  0  0  0  0  0  0  0  0
  -23.7042  -28.9136   20.2664 C   0  0  0  0  0  0  0  0  0  0  0  0
  -22.4960  -22.5419   17.4651 C   0  0  0  0  0  0  0  0  0  0  0  0
  -23.4829  -13.0702   20.5045 C   0  0  0  0  0  0  0  0  0  0  0  0
  -23.7215  -11.7052   20.6190 C   0  0  0  0  0  0  0  0  0  0  0  0
  -30.6582  -24.4444   19.5426 C   0  0  0  0  0  0  0  0  0  0  0  0
  -21.3114  -20.6330   18.3939 C   0  0  0  0  0  0  0  0  0  0  0  0
  -30.3905  -26.4333   18.3200 C   0  0  0  0  0  0  0  0  0  0  0  0
  -28.7531  -28.1236   16.8218 C   0  0  0  0  0  0  0  0  0  0  0  0
  -29.2365  -26.9713   18.8896 C   0  0  0  0  0  0  0  0  0  0  0  0
  -28.9584  -20.8684   21.0329 C   0  0  0  0  0  0  0  0  0  0  0  0
  -25.0388  -11.2798   20.6792 C   0  0  0  0  0  0  0  0  0  0  0  0
  -25.8339  -13.4295   20.5220 C   0  0  0  0  0  0  0  0  0  0  0  0
  -27.6276  -19.3789   21.9523 C   0  0  0  0  0  0  0  0  0  0  0  0
  -26.7083  -21.7034   21.9576 C   0  0  0  0  0  0  0  0  0  0  0  0
  -23.1852  -25.7268   18.4698 C   0  0  0  0  0  0  0  0  0  0  0  0
  -24.2291  -25.2785   15.4314 C   0  0  0  0  0  0  0  0  0  0  0  0
  -24.4893  -23.2045   12.7337 C   0  0  0  0  0  0  0  0  0  0  0  0
  -28.2786  -14.0375   20.5211 C   0  0  0  0  0  0  0  0  0  0  0  0
  -23.5331  -30.8184   18.5831 C   0  0  0  0  0  0  0  0  0  0  0  0
  -24.4540  -23.5593   18.6882 C   0  0  0  0  0  0  0  0  0  0  0  0
  -22.6457  -23.5415   16.3485 C   0  0  0  0  0  0  0  0  0  0  0  0
  -22.9989  -29.7822   17.5975 C   0  0  0  0  0  0  0  0  0  0  0  0
  -31.1487  -15.7481   21.7513 C   0  0  0  0  0  0  0  0  0  0  0  0
  -22.0903  -28.7859   18.3107 C   0  0  0  0  0  0  0  0  0  0  0  0
  -30.7319  -17.2204   21.7258 C   0  0  0  0  0  0  0  0  0  0  0  0
  -21.8210  -14.5471   21.6198 C   0  0  0  0  0  0  0  0  0  0  0  0
  -21.8716  -14.3437   19.1013 C   0  0  0  0  0  0  0  0  0  0  0  0
  -30.5789  -14.9767   20.5622 C   0  0  0  0  0  0  0  0  0  0  0  0
  -28.7093  -16.5680   20.3581 C   0  0  0  0  0  0  0  0  0  0  0  0
  -20.4367  -15.1768   21.5315 C   0  0  0  0  0  0  0  0  0  0  0  0
  -20.4868  -14.9747   19.0323 C   0  0  0  0  0  0  0  0  0  0  0  0
  -22.0900  -13.6077   20.4331 C   0  0  0  0  0  0  0  0  0  0  0  0
  -22.8578  -28.0147   19.3913 C   0  0  1  0  0  0  0  0  0  0  0  0
  -24.2069  -24.8129   17.8547 C   0  0  1  0  0  0  0  0  0  0  0  0
  -29.2058  -17.3714   21.5712 C   0  0  2  0  0  0  0  0  0  0  0  0
  -26.1856   -9.5166   22.0438 C   0  0  0  0  0  0  0  0  0  0  0  0
  -16.5399  -17.7204   18.5790 C   0  0  0  0  0  0  0  0  0  0  0  0
  -25.2077  -22.4191   10.4611 C   0  0  0  0  0  0  0  0  0  0  0  0
  -23.2660   -9.4765   18.5615 C   0  0  0  0  0  0  0  0  0  0  0  0
  -20.9396   -9.2572   19.4579 C   0  0  0  0  0  0  0  0  0  0  0  0
  -21.8533  -26.9519   14.5013 C   0  0  0  0  0  0  0  0  0  0  0  0
  -22.2223  -26.0642   12.1895 C   0  0  0  0  0  0  0  0  0  0  0  0
  -23.9954  -27.4231   13.2996 C   0  0  0  0  0  0  0  0  0  0  0  0
  -26.9904  -22.0359   13.8005 C   0  0  0  0  0  0  0  0  0  0  0  0
  -22.5928  -10.7315   20.6762 C   0  0  0  0  0  0  0  0  0  0  0  0
  -25.3561   -9.8249   20.8012 C   0  0  0  0  0  0  0  0  0  0  0  0
  -17.7396  -18.5797   18.9511 C   0  0  0  0  0  0  0  0  0  0  0  0
  -18.9935  -16.6449   20.1256 C   0  0  0  0  0  0  0  0  0  0  0  0
  -20.2105  -18.7631   19.3673 C   0  0  0  0  0  0  0  0  0  1  0  0
  -23.5642  -25.0618   14.0935 C   0  0  1  0  0  0  0  0  0  0  0  0
  -25.6680  -22.8513   11.8447 C   0  0  2  0  0  0  0  0  0  0  0  0
  -22.1345  -10.2001   19.2959 C   0  0  0  0  0  0  0  0  0  0  0  0
  -19.0538  -17.7864   19.0962 C   0  0  2  0  0  0  0  0  0  0  0  0
  -22.9045  -26.3575   13.5428 C   0  0  0  0  0  0  0  0  0  0  0  0
  -29.6246  -19.7154   20.9294 N   0  0  0  0  0  0  0  0  0  0  0  0
  -26.1049  -12.1098   20.6335 N   0  0  0  0  0  0  0  0  0  0  0  0
  -28.7897  -18.8286   21.4975 N   0  0  0  0  0  0  0  0  0  0  0  0
  -23.7460  -24.5082   16.4986 N   0  0  0  0  0  0  0  0  0  0  0  0
  -29.1285  -15.1630   20.4816 N   0  0  0  0  0  0  0  0  0  0  0  0
  -26.6769  -18.6294   22.5498 N   0  0  0  0  0  0  0  0  0  0  0  0
  -26.9519  -23.0340   21.5905 N   0  0  0  0  0  0  0  0  0  0  0  0
  -26.9183  -14.3400   20.4699 N   0  0  0  0  0  0  0  0  0  0  0  0
  -23.6720  -26.9795   18.7914 N   0  0  0  0  0  0  0  0  0  0  0  0
  -24.5832  -24.4918   13.2188 N   0  0  0  0  0  0  0  0  0  0  0  0
  -20.2767  -15.9083   20.2109 N   0  3  0  0  0  0  0  0  0  0  0  0
  -26.4557  -21.7386   12.4467 N   0  3  0  0  0  0  0  0  0  0  0  0
  -25.6382  -21.4146   22.5448 O   0  0  0  0  0  0  0  0  0  0  0  0
  -22.0396  -25.3258   18.6386 O   0  0  0  0  0  0  0  0  0  0  0  0
  -25.1483  -26.0959   15.5245 O   0  0  0  0  0  0  0  0  0  0  0  0
  -23.5747  -22.4185   12.9709 O   0  0  0  0  0  0  0  0  0  0  0  0
  -28.7238  -12.8914   20.6225 O   0  0  0  0  0  0  0  0  0  0  0  0
  -31.2048  -25.5947   19.0626 O   0  0  0  0  0  0  0  0  0  0  0  0
  -20.3217  -19.7038   18.3000 O   0  0  0  0  0  0  0  0  0  1  0  0
  -27.9678  -28.9363   16.1029 F   0  0  0  0  0  0  0  0  0  0  0  0
  -28.9098  -26.6807   20.1563 F   0  0  0  0  0  0  0  0  0  0  0  0
  1  2  1  0  0  0  0
  1  5  2  0  0  0  0
  2  6  2  0  0  0  0
  3  8  2  0  0  0  0
  3 16  1  0  0  0  0
  4  9  1  0  0  0  0
  4 16  2  0  0  0  0
  5 18  1  0  0  0  0
  6 20  1  0  0  0  0
  7 10  2  0  0  0  0
  7 19  1  0  0  0  0
  8 24  1  0  0  0  0
  9 24  2  0  0  0  0
 10 25  1  0  0  0  0
 11 12  2  0  0  0  0
 11 26  1  0  0  0  0
 12 27  1  0  0  0  0
 13 21  1  0  0  0  0
 13 25  2  0  0  0  0
 14 22  2  0  0  0  0
 14 31  1  0  0  0  0
 15 27  2  0  0  0  0
 15 28  1  0  0  0  0
 16 29  1  0  0  0  0
 17 29  1  0  0  0  0
 17 32  2  0  0  0  0
 17 33  1  0  0  0  0
 18 20  2  0  0  0  0
 18 38  1  0  0  0  0
 19 21  2  0  0  0  0
 19 39  1  0  0  0  0
 20 52  1  0  0  0  0
 21 40  1  0  0  0  0
 22 23  1  0  0  0  0
 22 51  1  0  0  0  0
 23 30  2  0  0  0  0
 23 64  1  0  0  0  0
 24 91  1  0  0  0  0
 25 92  1  0  0  0  0
 26 28  2  0  0  0  0
 26 91  1  0  0  0  0
 27 93  1  0  0  0  0
 28 94  1  0  0  0  0
 29 74  2  0  0  0  0
 30 65  1  0  0  0  0
 30 75  1  0  0  0  0
 31 75  2  0  0  0  0
 31 81  1  0  0  0  0
 32 76  1  0  0  0  0
 32 79  1  0  0  0  0
 33 80  1  0  0  0  0
 33 86  2  0  0  0  0
 34 53  1  0  0  0  0
 34 82  1  0  0  0  0
 34 87  2  0  0  0  0
 35 69  1  0  0  0  0
 35 77  1  0  0  0  0
 35 88  2  0  0  0  0
 36 70  1  0  0  0  0
 36 83  1  0  0  0  0
 36 89  2  0  0  0  0
 37 78  1  0  0  0  0
 37 81  1  0  0  0  0
 37 90  2  0  0  0  0
 38 41  1  0  0  0  0
 39 53  1  0  0  0  0
 40 77  1  0  0  0  0
 41 43  1  0  0  0  0
 42 44  1  0  0  0  0
 42 47  1  0  0  0  0
 43 52  1  0  0  0  0
 44 54  1  0  0  0  0
 45 49  1  0  0  0  0
 45 51  1  0  0  0  0
 46 50  1  0  0  0  0
 46 51  1  0  0  0  0
 47 78  1  0  0  0  0
 48 54  1  0  0  0  0
 48 78  1  0  0  0  0
 49 84  1  0  0  0  0
 50 84  1  0  0  0  0
 52 82  1  0  0  0  0
 53 77  1  0  0  0  0
 54 76  1  0  0  0  0
 55 65  1  0  0  0  0
 56 66  1  0  0  0  0
 57 70  1  0  0  0  0
 58 71  1  0  0  0  0
 59 71  1  0  0  0  0
 60 73  1  0  0  0  0
 61 73  1  0  0  0  0
 62 73  1  0  0  0  0
 63 85  1  0  0  0  0
 64 71  1  0  0  0  0
 66 72  1  0  0  0  0
 67 72  1  0  0  0  0
 67 84  1  0  0  0  0
 68 72  1  0  0  0  0
 68 92  1  0  0  0  0
 69 73  1  0  0  0  0
 69 83  1  0  0  0  0
 70 85  1  0  0  0  0
 74 76  1  0  0  0  0
M  CHG  2  84   1  85   1
M  ISO  4  37 100  68 101  81 100  92 101
M  END
> <Batch ID>
0110

> <Smiles>
CCc1nc([100NH:0][100C:0](=O)N2CCCC(n3nc(-c4ccc(Oc5ccc(F)cc5F)cc4)c(C(N)=O)c3N)C2)cc(C2CCN(CC(CC)[101CH2:1][101O:1]c3ccc4c(c3)CN(C(=O)C(NC(=O)C(C)NC)C(C)(C)C)C(C(=O)NC3CCCc5ccccc53)C4)CC2)c1CC(C)C

> <Shape>
0.212

> <Color>
0.058

> <Negative vol penalty>
0.000

$$$$

  -OEChem-04052319583D

 82 90  0     1  0  0  0  0  0999 V2000
  -32.3176  -24.4348   15.2841 C   0  0  0  0  0  0  0  0  0  0  0  0
  -32.2020  -23.1974   15.9093 C   0  0  0  0  0  0  0  0  0  0  0  0
  -20.9454  -22.9080   21.3357 C   0  0  0  0  0  0  0  0  0  0  0  0
  -21.0619  -23.3113   18.9564 C   0  0  0  0  0  0  0  0  0  0  0  0
  -32.2342  -25.6054   16.0369 C   0  0  0  0  0  0  0  0  0  0  0  0
  -32.0040  -23.1299   17.2880 C   0  0  0  0  0  0  0  0  0  0  0  0
  -28.4249  -19.7865   18.5752 C   0  0  0  0  0  0  0  0  0  0  0  0
  -21.0033  -24.2815   21.5714 C   0  0  0  0  0  0  0  0  0  0  0  0
  -21.1198  -24.6849   19.1921 C   0  0  0  0  0  0  0  0  0  0  0  0
  -28.7805  -18.4385   18.5674 C   0  0  0  0  0  0  0  0  0  0  0  0
  -20.7567  -27.6994   22.7848 C   0  0  0  0  0  0  0  0  0  0  0  0
  -19.8711  -28.2348   23.7200 C   0  0  0  0  0  0  0  0  0  0  0  0
  -29.0590  -18.5044   20.9627 C   0  0  0  0  0  0  0  0  0  0  0  0
  -18.0046  -27.4554   22.3987 C   0  0  0  0  0  0  0  0  0  0  0  0
  -20.9748  -22.4228   20.0282 C   0  0  0  0  0  0  0  0  0  0  0  0
  -19.7608  -20.2215   19.5947 C   0  0  0  0  0  0  0  0  0  0  0  0
  -32.0255  -25.5524   17.4241 C   0  0  0  0  0  0  0  0  0  0  0  0
  -28.3942  -20.5077   19.7774 C   0  0  0  0  0  0  0  0  0  0  0  0
  -31.9191  -24.3008   18.0602 C   0  0  0  0  0  0  0  0  0  0  0  0
  -28.7003  -19.8609   20.9833 C   0  0  0  0  0  0  0  0  0  0  0  0
  -21.0905  -25.1700   20.4996 C   0  0  0  0  0  0  0  0  0  0  0  0
  -29.1004  -17.7979   19.7610 C   0  0  0  0  0  0  0  0  0  0  0  0
  -20.2662  -27.0421   21.6565 C   0  0  0  0  0  0  0  0  0  0  0  0
  -18.4951  -28.1128   23.5270 C   0  0  0  0  0  0  0  0  0  0  0  0
  -18.8902  -26.9201   21.4635 C   0  0  0  0  0  0  0  0  0  0  0  0
  -20.9156  -21.0040   19.7841 C   0  0  0  0  0  0  0  0  0  0  0  0
  -20.2370  -18.9478   19.4012 C   0  0  0  0  0  0  0  0  0  0  0  0
  -18.3809  -20.6111   19.5936 C   0  0  0  0  0  0  0  0  0  0  0  0
  -29.9521  -23.0322   20.9193 C   0  0  0  0  0  0  0  0  0  0  0  0
  -27.8603  -22.7215   23.3790 C   0  0  0  0  0  0  0  0  0  0  0  0
  -25.7724  -20.7008   25.1690 C   0  0  0  0  0  0  0  0  0  0  0  0
  -23.4296  -14.8033   20.6113 C   0  0  0  0  0  0  0  0  0  0  0  0
  -31.9894  -26.8436   18.2027 C   0  0  0  0  0  0  0  0  0  0  0  0
  -27.9827  -21.9544   19.7721 C   0  0  0  0  0  0  0  0  0  0  0  0
  -28.6627  -20.5851   22.3034 C   0  0  0  0  0  0  0  0  0  0  0  0
  -31.4039  -26.6935   19.6044 C   0  0  0  0  0  0  0  0  0  0  0  0
  -25.4796  -11.8563   19.6956 C   0  0  0  0  0  0  0  0  0  0  0  0
  -24.9313  -17.2621   18.6037 C   0  0  0  0  0  0  0  0  0  0  0  0
  -32.0050  -25.4802   20.3069 C   0  0  0  0  0  0  0  0  0  0  0  0
  -26.5814  -11.8835   20.7520 C   0  0  0  0  0  0  0  0  0  0  0  0
  -23.9216  -18.4040   18.7156 C   0  0  0  0  0  0  0  0  0  0  0  0
  -24.1909  -12.4915   20.2066 C   0  0  0  0  0  0  0  0  0  0  0  0
  -25.1395  -16.5485   19.9405 C   0  0  0  0  0  0  0  0  0  0  0  0
  -25.4777  -13.9009   21.7807 C   0  0  0  0  0  0  0  0  0  0  0  0
  -22.8769  -17.2172   20.6823 C   0  0  0  0  0  0  0  0  0  0  0  0
  -31.6791  -24.1869   19.5500 C   0  0  1  0  0  0  0  0  0  0  0  0
  -28.4835  -22.7225   20.9913 C   0  0  1  0  0  0  0  0  0  0  0  0
  -26.8002  -13.3054   21.2857 C   0  0  1  0  0  0  0  0  0  0  0  0
  -22.6029  -17.9160   19.3415 C   0  0  1  0  0  0  0  0  0  0  0  0
  -24.0505  -20.0624   26.8792 C   0  0  0  0  0  0  0  0  0  0  0  0
  -30.2662  -22.6794   25.2552 C   0  0  0  0  0  0  0  0  0  0  0  0
  -28.7696  -21.7625   27.0407 C   0  0  0  0  0  0  0  0  0  0  0  0
  -28.3234  -24.0209   26.0800 C   0  0  0  0  0  0  0  0  0  0  0  0
  -29.7682  -11.9069   21.5260 C   0  0  0  0  0  0  0  0  0  0  0  0
  -30.1926  -13.7606   23.1340 C   0  0  0  0  0  0  0  0  0  0  0  0
  -23.5443  -21.2504   23.3003 C   0  0  0  0  0  0  0  0  0  0  0  0
  -27.8434  -13.3088   22.4009 C   0  0  0  0  0  0  0  0  0  0  0  0
  -29.5692  -14.2730   20.7302 C   0  0  0  0  0  0  0  0  0  0  0  0
  -29.1338  -15.7238   20.9240 C   0  0  0  0  0  0  0  0  0  1  0  0
  -27.8512  -21.9655   24.6857 C   0  0  1  0  0  0  0  0  0  0  0  0
  -24.3424  -20.8945   25.6402 C   0  0  2  0  0  0  0  0  0  0  0  0
  -28.8053  -22.5936   25.7405 C   0  0  0  0  0  0  0  0  0  0  0  0
  -29.3229  -13.3271   21.9350 C   0  0  0  0  0  0  0  0  0  0  0  0
  -22.0407  -20.2874   19.7172 N   0  0  0  0  0  0  0  0  0  0  0  0
  -21.5952  -19.0412   19.4836 N   0  0  0  0  0  0  0  0  0  0  0  0
  -28.2605  -22.0001   22.2454 N   0  0  0  0  0  0  0  0  0  0  0  0
  -24.4310  -13.8278   20.7506 N   0  0  0  0  0  0  0  0  0  0  0  0
  -23.8526  -16.1377   20.5174 N   0  0  0  0  0  0  0  0  0  0  0  0
  -19.6223  -17.7683   19.1704 N   0  0  0  0  0  0  0  0  0  0  0  0
  -18.0674  -21.9602   19.8077 N   0  0  0  0  0  0  0  0  0  0  0  0
  -30.3165  -23.7767   19.8137 N   0  0  0  0  0  0  0  0  0  0  0  0
  -26.4564  -21.8965   25.1076 N   0  0  0  0  0  0  0  0  0  0  0  0
  -23.3857  -20.4950   24.5697 N   0  3  0  0  0  0  0  0  0  0  0  0
  -17.4527  -19.7845   19.4246 O   0  0  0  0  0  0  0  0  0  0  0  0
  -30.6990  -22.6269   21.8022 O   0  0  0  0  0  0  0  0  0  0  0  0
  -27.5179  -23.9065   23.3636 O   0  0  0  0  0  0  0  0  0  0  0  0
  -26.2375  -19.5985   24.8875 O   0  0  0  0  0  0  0  0  0  0  0  0
  -22.2309  -14.4989   20.5703 O   0  0  0  0  0  0  0  0  0  0  0  0
  -21.1467  -26.5104   20.7293 O   0  0  0  0  0  0  0  0  0  0  0  0
  -29.4507  -16.4739   19.7561 O   0  0  0  0  0  0  0  0  0  1  0  0
  -17.6448  -28.6256   24.4260 F   0  0  0  0  0  0  0  0  0  0  0  0
  -18.4131  -26.2886   20.3820 F   0  0  0  0  0  0  0  0  0  0  0  0
  1  2  1  0  0  0  0
  1  5  2  0  0  0  0
  2  6  2  0  0  0  0
  3  8  2  0  0  0  0
  3 15  1  0  0  0  0
  4  9  1  0  0  0  0
  4 15  2  0  0  0  0
  5 17  1  0  0  0  0
  6 19  1  0  0  0  0
  7 10  2  0  0  0  0
  7 18  1  0  0  0  0
  8 21  1  0  0  0  0
  9 21  2  0  0  0  0
 10 22  1  0  0  0  0
 11 12  2  0  0  0  0
 11 23  1  0  0  0  0
 12 24  1  0  0  0  0
 13 20  1  0  0  0  0
 13 22  2  0  0  0  0
 14 24  2  0  0  0  0
 14 25  1  0  0  0  0
 15 26  1  0  0  0  0
 16 26  1  0  0  0  0
 16 27  2  0  0  0  0
 16 28  1  0  0  0  0
 17 19  2  0  0  0  0
 17 33  1  0  0  0  0
 18 20  2  0  0  0  0
 18 34  1  0  0  0  0
 19 46  1  0  0  0  0
 20 35  1  0  0  0  0
 21 79  1  0  0  0  0
 22 80  1  0  0  0  0
 23 25  2  0  0  0  0
 23 79  1  0  0  0  0
 24 81  1  0  0  0  0
 25 82  1  0  0  0  0
 26 64  2  0  0  0  0
 27 65  1  0  0  0  0
 27 69  1  0  0  0  0
 28 70  1  0  0  0  0
 28 74  2  0  0  0  0
 29 47  1  0  0  0  0
 29 71  1  0  0  0  0
 29 75  2  0  0  0  0
 30 60  1  0  0  0  0
 30 66  1  0  0  0  0
 30 76  2  0  0  0  0
 31 61  1  0  0  0  0
 31 72  1  0  0  0  0
 31 77  2  0  0  0  0
 32 67  1  0  0  0  0
 32 68  1  0  0  0  0
 32 78  2  0  0  0  0
 33 36  1  0  0  0  0
 34 47  1  0  0  0  0
 35 66  1  0  0  0  0
 36 39  1  0  0  0  0
 37 40  1  0  0  0  0
 37 42  1  0  0  0  0
 38 41  1  0  0  0  0
 38 43  1  0  0  0  0
 39 46  1  0  0  0  0
 40 48  1  0  0  0  0
 41 49  1  0  0  0  0
 42 67  1  0  0  0  0
 43 68  1  0  0  0  0
 44 48  1  0  0  0  0
 44 67  1  0  0  0  0
 45 49  1  0  0  0  0
 45 68  1  0  0  0  0
 46 71  1  0  0  0  0
 47 66  1  0  0  0  0
 48 57  1  0  0  0  0
 49 65  1  0  0  0  0
 50 61  1  0  0  0  0
 51 62  1  0  0  0  0
 52 62  1  0  0  0  0
 53 62  1  0  0  0  0
 54 63  1  0  0  0  0
 55 63  1  0  0  0  0
 56 73  1  0  0  0  0
 57 63  1  0  0  0  0
 58 59  1  0  0  0  0
 58 63  1  0  0  0  0
 59 80  1  0  0  0  0
 60 62  1  0  0  0  0
 60 72  1  0  0  0  0
 61 73  1  0  0  0  0
 64 65  1  0  0  0  0
M  CHG  1  73   1
M  ISO  4  32 100  59 101  67 100  80 101
M  END
> <Batch ID>
0110

> <Smiles>
CNC(C)C(=O)NC(C(=O)N1Cc2cc([101O:1][101CH2:1]CC(C)(C)CC3CCC[100N:0]([100C:0](=O)N4CCCC(n5nc(-c6ccc(Oc7ccc(F)cc7F)cc6)c(C(N)=O)c5N)C4)C3)ccc2CC1C(=O)NC1CCCc2ccccc21)C(C)(C)C

> <Shape>
0.191

> <Color>
0.058

> <Negative vol penalty>
0.000

$$$$

  -OEChem-04052319583D

 93101  0     1  0  0  0  0  0999 V2000
  -22.9684  -23.0598   24.2871 C   0  0  0  0  0  0  0  0  0  0  0  0
  -24.1423  -22.4067   23.9251 C   0  0  0  0  0  0  0  0  0  0  0  0
  -22.6658  -28.3434   19.4250 C   0  0  0  0  0  0  0  0  0  0  0  0
  -23.0092  -27.8262   21.7599 C   0  0  0  0  0  0  0  0  0  0  0  0
  -21.8382  -22.3197   24.6318 C   0  0  0  0  0  0  0  0  0  0  0  0
  -24.1869  -21.0131   23.9086 C   0  0  0  0  0  0  0  0  0  0  0  0
  -26.4578  -19.1909   19.7652 C   0  0  0  0  0  0  0  0  0  0  0  0
  -21.2872  -28.2260   19.6017 C   0  0  0  0  0  0  0  0  0  0  0  0
  -21.6306  -27.7088   21.9366 C   0  0  0  0  0  0  0  0  0  0  0  0
  -27.8511  -19.2287   19.7340 C   0  0  0  0  0  0  0  0  0  0  0  0
  -18.9855  -29.7765   22.3226 C   0  0  0  0  0  0  0  0  0  0  0  0
  -18.4232  -30.3862   23.4440 C   0  0  0  0  0  0  0  0  0  0  0  0
  -27.9221  -16.8970   20.3481 C   0  0  0  0  0  0  0  0  0  0  0  0
  -33.2653  -21.8426   22.7373 C   0  0  0  0  0  0  0  0  0  0  0  0
  -17.6198  -28.2397   24.2082 C   0  0  0  0  0  0  0  0  0  0  0  0
  -34.7841  -20.1758   23.4933 C   0  0  0  0  0  0  0  0  0  0  0  0
  -23.5269  -28.1435   20.5041 C   0  0  0  0  0  0  0  0  0  0  0  0
  -25.7309  -29.4274   20.4652 C   0  0  0  0  0  0  0  0  0  0  0  0
  -21.8662  -20.9163   24.6102 C   0  0  0  0  0  0  0  0  0  0  0  0
  -25.7852  -18.0067   20.0993 C   0  0  0  0  0  0  0  0  0  0  0  0
  -23.0564  -20.2536   24.2547 C   0  0  0  0  0  0  0  0  0  0  0  0
  -26.5201  -16.8461   20.3803 C   0  0  0  0  0  0  0  0  0  0  0  0
  -34.1561  -20.8178   22.4382 C   0  0  0  0  0  0  0  0  0  0  0  0
  -33.0331  -22.1892   24.0637 C   0  0  0  0  0  0  0  0  0  0  0  0
  -20.7696  -27.9087   20.8576 C   0  0  0  0  0  0  0  0  0  0  0  0
  -28.5835  -18.0824   20.0283 C   0  0  0  0  0  0  0  0  0  0  0  0
  -18.8649  -28.3983   22.1439 C   0  0  0  0  0  0  0  0  0  0  0  0
  -17.7404  -29.6179   24.3868 C   0  0  0  0  0  0  0  0  0  0  0  0
  -18.1821  -27.6300   23.0868 C   0  0  0  0  0  0  0  0  0  0  0  0
  -24.9511  -28.2641   20.3220 C   0  0  0  0  0  0  0  0  0  0  0  0
  -33.7112  -21.4857   25.0460 C   0  0  0  0  0  0  0  0  0  0  0  0
  -27.0122  -29.0182   20.1869 C   0  0  0  0  0  0  0  0  0  0  0  0
  -25.3327  -30.7587   20.8182 C   0  0  0  0  0  0  0  0  0  0  0  0
  -23.8099  -17.1300   22.4302 C   0  0  0  0  0  0  0  0  0  0  0  0
  -23.5982  -14.3982   20.6939 C   0  0  0  0  0  0  0  0  0  0  0  0
  -25.0160  -12.3054   18.4011 C   0  0  0  0  0  0  0  0  0  0  0  0
  -29.7601  -23.7089   20.5210 C   0  0  0  0  0  0  0  0  0  0  0  0
  -20.6335  -20.1591   25.0365 C   0  0  0  0  0  0  0  0  0  0  0  0
  -24.2814  -17.9754   20.1024 C   0  0  0  0  0  0  0  0  0  0  0  0
  -25.8456  -15.5443   20.7250 C   0  0  0  0  0  0  0  0  0  0  0  0
  -20.6524  -18.6873   24.6318 C   0  0  0  0  0  0  0  0  0  0  0  0
  -29.4371  -25.7747   17.6392 C   0  0  0  0  0  0  0  0  0  0  0  0
  -22.0004  -18.0581   24.9692 C   0  0  0  0  0  0  0  0  0  0  0  0
  -28.3211  -26.7519   18.0129 C   0  0  0  0  0  0  0  0  0  0  0  0
  -29.1807  -24.3810   18.2082 C   0  0  0  0  0  0  0  0  0  0  0  0
  -27.8183  -25.3184   20.0355 C   0  0  0  0  0  0  0  0  0  0  0  0
  -23.1368  -18.7433   24.2008 C   0  0  1  0  0  0  0  0  0  0  0  0
  -23.7089  -16.8493   20.9576 C   0  0  1  0  0  0  0  0  0  0  0  0
  -28.0604  -26.7513   19.5312 C   0  0  2  0  0  0  0  0  0  0  0  0
  -33.5033  -21.8119   26.4894 C   0  0  0  0  0  0  0  0  0  0  0  0
  -35.8997  -20.6692   20.6294 C   0  0  0  0  0  0  0  0  0  0  0  0
  -24.6229  -10.1320   17.2098 C   0  0  0  0  0  0  0  0  0  0  0  0
  -30.6858  -27.3901   26.2200 C   0  0  0  0  0  0  0  0  0  0  0  0
  -32.8791  -28.3398   25.4798 C   0  0  0  0  0  0  0  0  0  0  0  0
  -30.2117  -17.5135   22.3178 C   0  0  0  0  0  0  0  0  0  0  0  0
  -24.3406  -12.8756   23.2317 C   0  0  0  0  0  0  0  0  0  0  0  0
  -24.8579  -10.8857   21.8031 C   0  0  0  0  0  0  0  0  0  0  0  0
  -22.5406  -11.8073   21.8631 C   0  0  0  0  0  0  0  0  0  0  0  0
  -25.0336  -13.6216   15.7505 C   0  0  0  0  0  0  0  0  0  0  0  0
  -32.1063  -26.1623   24.4921 C   0  0  0  0  0  0  0  0  0  0  0  0
  -30.9445  -25.3013   23.9763 C   0  0  0  0  0  0  0  0  0  0  0  0
  -30.2273  -23.1408   22.8913 C   0  0  0  0  0  0  0  0  0  0  0  0
  -34.0593  -18.9542   20.7035 C   0  0  0  0  0  0  0  0  0  0  0  0
  -32.1345  -17.3638   20.6371 C   0  0  0  0  0  0  0  0  0  0  0  0
  -34.4328  -20.4134   20.9950 C   0  0  1  0  0  0  0  0  0  0  0  0
  -24.3547  -13.0923   20.6590 C   0  0  1  0  0  0  0  0  0  0  0  0
  -24.4511  -11.6421   17.1580 C   0  0  2  0  0  0  0  0  0  0  0  0
  -31.6563  -27.5275   25.0461 C   0  0  0  0  0  0  0  0  0  0  0  0
  -31.4199  -23.9662   23.3813 C   0  0  2  0  0  0  0  0  0  0  0  0
  -30.6346  -17.2334   20.8816 C   0  0  2  0  0  0  0  0  0  1  0  0
  -24.0365  -12.1901   21.8847 C   0  0  0  0  0  0  0  0  0  0  0  0
  -34.5840  -20.4844   24.7941 N   0  0  0  0  0  0  0  0  0  0  0  0
  -25.6763  -27.1961   19.9792 N   0  0  0  0  0  0  0  0  0  0  0  0
  -26.9252  -27.6867   19.9046 N   0  0  0  0  0  0  0  0  0  0  0  0
  -24.3735  -15.5661   20.7210 N   0  0  0  0  0  0  0  0  0  0  0  0
  -28.9426  -24.4501   19.6520 N   0  0  0  0  0  0  0  0  0  0  0  0
  -28.1934  -29.6711   20.1585 N   0  0  0  0  0  0  0  0  0  0  0  0
  -23.9765  -31.0055   21.0716 N   0  0  0  0  0  0  0  0  0  0  0  0
  -32.1333  -23.2238   24.3770 N   0  0  0  0  0  0  0  0  0  0  0  0
  -23.1662  -18.2862   22.8280 N   0  0  0  0  0  0  0  0  0  0  0  0
  -24.0510  -12.4789   19.3707 N   0  0  0  0  0  0  0  0  0  0  0  0
  -29.4706  -23.8361   21.8741 N   0  0  0  0  0  0  0  0  0  0  0  0
  -25.1416  -12.1521   15.9397 N   0  3  0  0  0  0  0  0  0  0  0  0
  -32.6118  -18.7299   20.9663 N   0  3  0  0  0  0  0  0  0  0  0  0
  -26.1528  -31.7051   20.8903 O   0  0  0  0  0  0  0  0  0  0  0  0
  -24.4249  -16.3542   23.1524 O   0  0  0  0  0  0  0  0  0  0  0  0
  -22.3647  -14.3828   20.6899 O   0  0  0  0  0  0  0  0  0  0  0  0
  -26.1961  -12.6331   18.5035 O   0  0  0  0  0  0  0  0  0  0  0  0
  -30.6833  -22.9914   20.1211 O   0  0  0  0  0  0  0  0  0  0  0  0
  -19.4244  -27.7943   21.0305 O   0  0  0  0  0  0  0  0  0  0  0  0
  -29.9436  -18.1167   19.9992 O   0  0  0  0  0  0  0  0  0  1  0  0
  -17.2018  -30.2034   25.4645 F   0  0  0  0  0  0  0  0  0  0  0  0
  -18.0639  -26.3054   22.9212 F   0  0  0  0  0  0  0  0  0  0  0  0
  1  2  1  0  0  0  0
  1  5  2  0  0  0  0
  2  6  2  0  0  0  0
  3  8  2  0  0  0  0
  3 17  1  0  0  0  0
  4  9  1  0  0  0  0
  4 17  2  0  0  0  0
  5 19  1  0  0  0  0
  6 21  1  0  0  0  0
  7 10  2  0  0  0  0
  7 20  1  0  0  0  0
  8 25  1  0  0  0  0
  9 25  2  0  0  0  0
 10 26  1  0  0  0  0
 11 12  2  0  0  0  0
 11 27  1  0  0  0  0
 12 28  1  0  0  0  0
 13 22  1  0  0  0  0
 13 26  2  0  0  0  0
 14 23  2  0  0  0  0
 14 24  1  0  0  0  0
 15 28  2  0  0  0  0
 15 29  1  0  0  0  0
 16 23  1  0  0  0  0
 16 72  2  0  0  0  0
 17 30  1  0  0  0  0
 18 30  1  0  0  0  0
 18 32  2  0  0  0  0
 18 33  1  0  0  0  0
 19 21  2  0  0  0  0
 19 38  1  0  0  0  0
 20 22  2  0  0  0  0
 20 39  1  0  0  0  0
 21 47  1  0  0  0  0
 22 40  1  0  0  0  0
 23 65  1  0  0  0  0
 24 31  2  0  0  0  0
 24 79  1  0  0  0  0
 25 90  1  0  0  0  0
 26 91  1  0  0  0  0
 27 29  2  0  0  0  0
 27 90  1  0  0  0  0
 28 92  1  0  0  0  0
 29 93  1  0  0  0  0
 30 73  2  0  0  0  0
 31 50  1  0  0  0  0
 31 72  1  0  0  0  0
 32 74  1  0  0  0  0
 32 77  1  0  0  0  0
 33 78  1  0  0  0  0
 33 85  2  0  0  0  0
 34 48  1  0  0  0  0
 34 80  1  0  0  0  0
 34 86  2  0  0  0  0
 35 66  1  0  0  0  0
 35 75  1  0  0  0  0
 35 87  2  0  0  0  0
 36 67  1  0  0  0  0
 36 81  1  0  0  0  0
 36 88  2  0  0  0  0
 37 76  1  0  0  0  0
 37 82  1  0  0  0  0
 37 89  2  0  0  0  0
 38 41  1  0  0  0  0
 39 48  1  0  0  0  0
 40 75  1  0  0  0  0
 41 43  1  0  0  0  0
 42 44  1  0  0  0  0
 42 45  1  0  0  0  0
 43 47  1  0  0  0  0
 44 49  1  0  0  0  0
 45 76  1  0  0  0  0
 46 49  1  0  0  0  0
 46 76  1  0  0  0  0
 47 80  1  0  0  0  0
 48 75  1  0  0  0  0
 49 74  1  0  0  0  0
 51 65  1  0  0  0  0
 52 67  1  0  0  0  0
 53 68  1  0  0  0  0
 54 68  1  0  0  0  0
 55 70  1  0  0  0  0
 56 71  1  0  0  0  0
 57 71  1  0  0  0  0
 58 71  1  0  0  0  0
 59 83  1  0  0  0  0
 60 61  1  0  0  0  0
 60 68  1  0  0  0  0
 61 69  1  0  0  0  0
 62 69  1  0  0  0  0
 62 82  1  0  0  0  0
 63 65  1  0  0  0  0
 63 84  1  0  0  0  0
 64 70  1  0  0  0  0
 64 84  1  0  0  0  0
 66 71  1  0  0  0  0
 66 81  1  0  0  0  0
 67 83  1  0  0  0  0
 69 79  1  0  0  0  0
 70 91  1  0  0  0  0
 73 74  1  0  0  0  0
M  CHG  2  83   1  84   1
M  ISO  4  37 100  70 101  82 100  91 101
M  END
> <Batch ID>
0110

> <Smiles>
CNC(C)C(=O)NC(C(=O)N1Cc2cc([101O:1][101CH:1](C)CNCC(C)c3cnc(C)c(NC(CCC(C)C)C[100NH:0][100C:0](=O)N4CCCC(n5nc(-c6ccc(Oc7ccc(F)cc7F)cc6)c(C(N)=O)c5N)C4)c3)ccc2CC1C(=O)NC1CCCc2ccccc21)C(C)(C)C

> <Shape>
0.219

> <Color>
0.060

> <Negative vol penalty>
0.000

$$$$

  -OEChem-04052319583D

 82 90  0     1  0  0  0  0  0999 V2000
  -27.6307  -24.1248   17.4574 C   0  0  0  0  0  0  0  0  0  0  0  0
  -26.4833  -24.4295   18.1827 C   0  0  0  0  0  0  0  0  0  0  0  0
  -27.2558  -13.6889   19.9475 C   0  0  0  0  0  0  0  0  0  0  0  0
  -26.9016  -13.8017   22.3348 C   0  0  0  0  0  0  0  0  0  0  0  0
  -28.8636  -24.6389   17.8570 C   0  0  0  0  0  0  0  0  0  0  0  0
  -26.5683  -25.2476   19.3087 C   0  0  0  0  0  0  0  0  0  0  0  0
  -22.9165  -28.7535   19.4428 C   0  0  0  0  0  0  0  0  0  0  0  0
  -28.1702  -12.6519   20.1322 C   0  0  0  0  0  0  0  0  0  0  0  0
  -27.8159  -12.7646   22.5194 C   0  0  0  0  0  0  0  0  0  0  0  0
  -21.6493  -28.3378   19.8494 C   0  0  0  0  0  0  0  0  0  0  0  0
  -31.3975  -12.3164   21.0788 C   0  0  0  0  0  0  0  0  0  0  0  0
  -32.5975  -12.3777   20.3706 C   0  0  0  0  0  0  0  0  0  0  0  0
  -18.9194  -23.9291   20.7773 C   0  0  0  0  0  0  0  0  0  0  0  0
  -22.0716  -29.2256   22.0523 C   0  0  0  0  0  0  0  0  0  0  0  0
  -32.0699  -10.2796   19.2950 C   0  0  0  0  0  0  0  0  0  0  0  0
  -19.8420  -24.5439   22.7371 C   0  0  0  0  0  0  0  0  0  0  0  0
  -26.6215  -14.2639   21.0488 C   0  0  0  0  0  0  0  0  0  0  0  0
  -19.8250  -23.5394   21.7947 C   0  0  0  0  0  0  0  0  0  0  0  0
  -24.2888  -15.2195   20.6584 C   0  0  0  0  0  0  0  0  0  0  0  0
  -28.9622  -25.4716   18.9828 C   0  0  0  0  0  0  0  0  0  0  0  0
  -23.7763  -29.3998   20.3425 C   0  0  0  0  0  0  0  0  0  0  0  0
  -27.8038  -25.7723   19.7245 C   0  0  0  0  0  0  0  0  0  0  0  0
  -23.3481  -29.6508   21.6539 C   0  0  0  0  0  0  0  0  0  0  0  0
  -28.4502  -12.1897   21.4181 C   0  0  0  0  0  0  0  0  0  0  0  0
  -21.2278  -28.5712   21.1551 C   0  0  0  0  0  0  0  0  0  0  0  0
  -30.5336  -11.2366   20.8953 C   0  0  0  0  0  0  0  0  0  0  0  0
  -32.9337  -11.3593   19.4786 C   0  0  0  0  0  0  0  0  0  0  0  0
  -30.8698  -10.2183   20.0033 C   0  0  0  0  0  0  0  0  0  0  0  0
  -25.6774  -15.3355   20.8588 C   0  0  0  0  0  0  0  0  0  0  0  0
  -18.4106  -25.1599   21.1288 C   0  0  0  0  0  0  0  0  0  0  0  0
  -23.8505  -16.5152   20.5330 C   0  0  0  0  0  0  0  0  0  0  0  0
  -20.6004  -22.3355   21.8719 C   0  0  0  0  0  0  0  0  0  0  0  0
  -23.4684  -14.0456   20.5917 C   0  0  0  0  0  0  0  0  0  0  0  0
  -26.6370  -28.7541   21.5684 C   0  0  0  0  0  0  0  0  0  0  0  0
  -26.3371  -31.7282   22.8281 C   0  0  0  0  0  0  0  0  0  0  0  0
  -24.2746  -34.2574   23.8261 C   0  0  0  0  0  0  0  0  0  0  0  0
  -23.8532  -21.8376   22.2115 C   0  0  0  0  0  0  0  0  0  0  0  0
  -30.3239  -25.9651   19.4036 C   0  0  0  0  0  0  0  0  0  0  0  0
  -25.1298  -29.8658   19.8807 C   0  0  0  0  0  0  0  0  0  0  0  0
  -24.2254  -30.3587   22.6527 C   0  0  0  0  0  0  0  0  0  0  0  0
  -30.2719  -27.1288   20.3903 C   0  0  0  0  0  0  0  0  0  0  0  0
  -26.4374  -20.8267   19.9807 C   0  0  0  0  0  0  0  0  0  0  0  0
  -29.2676  -26.8416   21.5019 C   0  0  0  0  0  0  0  0  0  0  0  0
  -26.3594  -19.2992   19.9987 C   0  0  0  0  0  0  0  0  0  0  0  0
  -26.1402  -21.4233   21.3546 C   0  0  0  0  0  0  0  0  0  0  0  0
  -24.7896  -19.4577   21.9760 C   0  0  0  0  0  0  0  0  0  0  0  0
  -27.8516  -26.6763   20.9371 C   0  0  1  0  0  0  0  0  0  0  0  0
  -26.1191  -30.0562   21.0264 C   0  0  1  0  0  0  0  0  0  0  0  0
  -25.0269  -18.8128   20.5997 C   0  0  2  0  0  0  0  0  0  0  0  0
  -17.4325  -26.0169   20.4273 C   0  0  0  0  0  0  0  0  0  0  0  0
  -24.3194  -36.5480   24.8502 C   0  0  0  0  0  0  0  0  0  0  0  0
  -26.9099  -30.4934   25.5589 C   0  0  0  0  0  0  0  0  0  0  0  0
  -26.0183  -32.5821   26.6128 C   0  0  0  0  0  0  0  0  0  0  0  0
  -28.0359  -32.6887   25.1498 C   0  0  0  0  0  0  0  0  0  0  0  0
  -22.9906  -35.4709   21.4516 C   0  0  0  0  0  0  0  0  0  0  0  0
  -21.5391  -22.0909   23.0717 C   0  0  0  0  0  0  0  0  0  0  0  0
  -18.7064  -26.8018   23.0775 C   0  0  0  0  0  0  0  0  0  0  0  0
  -19.8361  -27.8151   22.9292 C   0  0  0  0  0  0  0  0  0  1  0  0
  -25.7671  -32.2956   24.1057 C   0  0  1  0  0  0  0  0  0  0  0  0
  -24.3080  -35.7507   23.5552 C   0  0  2  0  0  0  0  0  0  0  0  0
  -26.6668  -31.9999   25.3388 C   0  0  0  0  0  0  0  0  0  0  0  0
  -26.0938  -16.6046   20.8611 N   0  0  0  0  0  0  0  0  0  0  0  0
  -18.9787  -25.5239   22.3217 N   0  0  0  0  0  0  0  0  0  0  0  0
  -24.9601  -17.2980   20.6606 N   0  0  0  0  0  0  0  0  0  0  0  0
  -25.5424  -30.7894   22.1551 N   0  0  0  0  0  0  0  0  0  0  0  0
  -24.8624  -20.9232   21.8676 N   0  0  0  0  0  0  0  0  0  0  0  0
  -22.6282  -17.0499   20.3271 N   0  0  0  0  0  0  0  0  0  0  0  0
  -24.0802  -12.7935   20.7409 N   0  0  0  0  0  0  0  0  0  0  0  0
  -27.2765  -27.9681   20.6289 N   0  0  0  0  0  0  0  0  0  0  0  0
  -25.5421  -33.7155   23.8570 N   0  0  0  0  0  0  0  0  0  0  0  0
  -22.6713  -21.2797   22.6834 N   0  0  0  0  0  0  0  0  0  0  0  0
  -23.1147  -36.1601   22.7618 N   0  3  0  0  0  0  0  0  0  0  0  0
  -20.5095  -21.4422   20.9927 O   0  0  0  0  0  0  0  0  0  0  0  0
  -22.2318  -14.1044   20.3889 O   0  0  0  0  0  0  0  0  0  0  0  0
  -26.4703  -28.4832   22.7519 O   0  0  0  0  0  0  0  0  0  0  0  0
  -27.4434  -32.1094   22.4379 O   0  0  0  0  0  0  0  0  0  0  0  0
  -23.2288  -33.6347   23.9971 O   0  0  0  0  0  0  0  0  0  0  0  0
  -23.9929  -23.0604   22.1008 O   0  0  0  0  0  0  0  0  0  0  0  0
  -29.3422  -11.1776   21.5986 O   0  0  0  0  0  0  0  0  0  0  0  0
  -19.9917  -28.1659   21.5548 O   0  0  0  0  0  0  0  0  0  1  0  0
  -34.0855  -11.4191   18.7974 F   0  0  0  0  0  0  0  0  0  0  0  0
  -30.0434   -9.1791   19.8218 F   0  0  0  0  0  0  0  0  0  0  0  0
  1  2  1  0  0  0  0
  1  5  2  0  0  0  0
  2  6  2  0  0  0  0
  3  8  2  0  0  0  0
  3 17  1  0  0  0  0
  4  9  1  0  0  0  0
  4 17  2  0  0  0  0
  5 20  1  0  0  0  0
  6 22  1  0  0  0  0
  7 10  2  0  0  0  0
  7 21  1  0  0  0  0
  8 24  1  0  0  0  0
  9 24  2  0  0  0  0
 10 25  1  0  0  0  0
 11 12  2  0  0  0  0
 11 26  1  0  0  0  0
 12 27  1  0  0  0  0
 13 18  1  0  0  0  0
 13 30  2  0  0  0  0
 14 23  1  0  0  0  0
 14 25  2  0  0  0  0
 15 27  2  0  0  0  0
 15 28  1  0  0  0  0
 16 18  2  0  0  0  0
 16 63  1  0  0  0  0
 17 29  1  0  0  0  0
 18 32  1  0  0  0  0
 19 29  1  0  0  0  0
 19 31  2  0  0  0  0
 19 33  1  0  0  0  0
 20 22  2  0  0  0  0
 20 38  1  0  0  0  0
 21 23  2  0  0  0  0
 21 39  1  0  0  0  0
 22 47  1  0  0  0  0
 23 40  1  0  0  0  0
 24 79  1  0  0  0  0
 25 80  1  0  0  0  0
 26 28  2  0  0  0  0
 26 79  1  0  0  0  0
 27 81  1  0  0  0  0
 28 82  1  0  0  0  0
 29 62  2  0  0  0  0
 30 50  1  0  0  0  0
 30 63  1  0  0  0  0
 31 64  1  0  0  0  0
 31 67  1  0  0  0  0
 32 56  1  0  0  0  0
 32 73  2  0  0  0  0
 33 68  1  0  0  0  0
 33 74  2  0  0  0  0
 34 48  1  0  0  0  0
 34 69  1  0  0  0  0
 34 75  2  0  0  0  0
 35 59  1  0  0  0  0
 35 65  1  0  0  0  0
 35 76  2  0  0  0  0
 36 60  1  0  0  0  0
 36 70  1  0  0  0  0
 36 77  2  0  0  0  0
 37 66  1  0  0  0  0
 37 71  1  0  0  0  0
 37 78  2  0  0  0  0
 38 41  1  0  0  0  0
 39 48  1  0  0  0  0
 40 65  1  0  0  0  0
 41 43  1  0  0  0  0
 42 44  1  0  0  0  0
 42 45  1  0  0  0  0
 43 47  1  0  0  0  0
 44 49  1  0  0  0  0
 45 66  1  0  0  0  0
 46 49  1  0  0  0  0
 46 66  1  0  0  0  0
 47 69  1  0  0  0  0
 48 65  1  0  0  0  0
 49 64  1  0  0  0  0
 51 60  1  0  0  0  0
 52 61  1  0  0  0  0
 53 61  1  0  0  0  0
 54 61  1  0  0  0  0
 55 72  1  0  0  0  0
 56 71  1  0  0  0  0
 57 58  1  0  0  0  0
 57 63  1  0  0  0  0
 58 80  1  0  0  0  0
 59 61  1  0  0  0  0
 59 70  1  0  0  0  0
 60 72  1  0  0  0  0
 62 64  1  0  0  0  0
M  CHG  1  72   1
M  ISO  4  37 100  58 101  71 100  80 101
M  END
> <Batch ID>
0110

> <Smiles>
CNC(C)C(=O)NC(C(=O)N1Cc2cc([101O:1][101CH2:1]Cn3cc(C(=O)C[100NH:0][100C:0](=O)N4CCCC(n5nc(-c6ccc(Oc7ccc(F)cc7F)cc6)c(C(N)=O)c5N)C4)cc3C)ccc2CC1C(=O)NC1CCCc2ccccc21)C(C)(C)C

> <Shape>
0.285

> <Color>
0.064

> <Negative vol penalty>
0.000

$$$$

  -OEChem-04052319583D

 85 93  0     1  0  0  0  0  0999 V2000
  -29.7939  -32.7099   13.4120 C   0  0  0  0  0  0  0  0  0  0  0  0
  -29.7749  -31.4163   13.9234 C   0  0  0  0  0  0  0  0  0  0  0  0
  -22.3769  -10.4381   21.9317 C   0  0  0  0  0  0  0  0  0  0  0  0
  -23.2323   -9.7995   19.7644 C   0  0  0  0  0  0  0  0  0  0  0  0
  -29.6041  -33.7977   14.2634 C   0  0  0  0  0  0  0  0  0  0  0  0
  -29.5672  -31.2097   15.2867 C   0  0  0  0  0  0  0  0  0  0  0  0
  -26.5667  -26.5477   17.8884 C   0  0  0  0  0  0  0  0  0  0  0  0
  -21.8604   -9.1543   22.1062 C   0  0  0  0  0  0  0  0  0  0  0  0
  -22.7159   -8.5155   19.9389 C   0  0  0  0  0  0  0  0  0  0  0  0
  -27.0048  -25.3628   18.4783 C   0  0  0  0  0  0  0  0  0  0  0  0
  -20.6299   -5.9402   23.2769 C   0  0  0  0  0  0  0  0  0  0  0  0
  -20.8292   -5.3234   24.5120 C   0  0  0  0  0  0  0  0  0  0  0  0
  -26.8921  -26.4088   20.6490 C   0  0  0  0  0  0  0  0  0  0  0  0
  -23.2204   -5.4802   24.2045 C   0  0  0  0  0  0  0  0  0  0  0  0
  -23.0628  -10.7608   20.7607 C   0  0  0  0  0  0  0  0  0  0  0  0
  -24.8744  -12.5470   20.9484 C   0  0  0  0  0  0  0  0  0  0  0  0
  -29.3843  -33.6038   15.6362 C   0  0  0  0  0  0  0  0  0  0  0  0
  -26.2981  -27.6772   18.6747 C   0  0  0  0  0  0  0  0  0  0  0  0
  -29.3756  -32.2959   16.1574 C   0  0  0  0  0  0  0  0  0  0  0  0
  -26.4483  -27.6060   20.0670 C   0  0  0  0  0  0  0  0  0  0  0  0
  -22.0300   -8.1929   21.1099 C   0  0  0  0  0  0  0  0  0  0  0  0
  -27.1703  -25.2940   19.8585 C   0  0  0  0  0  0  0  0  0  0  0  0
  -21.7259   -6.3270   22.5055 C   0  0  0  0  0  0  0  0  0  0  0  0
  -22.1244   -5.0934   24.9758 C   0  0  0  0  0  0  0  0  0  0  0  0
  -23.0211   -6.0970   22.9694 C   0  0  0  0  0  0  0  0  0  0  0  0
  -23.5960  -12.0871   20.5796 C   0  0  0  0  0  0  0  0  0  0  0  0
  -24.8887  -13.8657   20.5646 C   0  0  0  0  0  0  0  0  0  0  0  0
  -25.9525  -11.8450   21.5813 C   0  0  0  0  0  0  0  0  0  0  0  0
  -27.4882  -30.6192   18.8554 C   0  0  0  0  0  0  0  0  0  0  0  0
  -25.0545  -31.0552   20.9552 C   0  0  0  0  0  0  0  0  0  0  0  0
  -22.8414  -29.6705   23.1534 C   0  0  0  0  0  0  0  0  0  0  0  0
  -23.7819  -17.8584   16.8258 C   0  0  0  0  0  0  0  0  0  0  0  0
  -29.2313  -34.8129   16.5247 C   0  0  0  0  0  0  0  0  0  0  0  0
  -25.8007  -28.9398   18.0258 C   0  0  0  0  0  0  0  0  0  0  0  0
  -26.1539  -28.7844   20.9577 C   0  0  0  0  0  0  0  0  0  0  0  0
  -28.6440  -34.4903   17.8964 C   0  0  0  0  0  0  0  0  0  0  0  0
  -21.1397  -16.8811   19.0030 C   0  0  0  0  0  0  0  0  0  0  0  0
  -29.3362  -33.2726   18.5005 C   0  0  0  0  0  0  0  0  0  0  0  0
  -21.6460  -15.5821   19.6325 C   0  0  0  0  0  0  0  0  0  0  0  0
  -25.1573  -19.5012   21.9743 C   0  0  0  0  0  0  0  0  0  0  0  0
  -27.6377  -19.5722   22.4448 C   0  0  0  0  0  0  0  0  0  0  0  0
  -21.5695  -17.0057   17.5429 C   0  0  0  0  0  0  0  0  0  0  0  0
  -23.5243  -15.5579   17.9384 C   0  0  0  0  0  0  0  0  0  0  0  0
  -24.9804  -18.5139   23.1183 C   0  0  0  0  0  0  0  0  0  0  0  0
  -27.4379  -18.5840   23.5843 C   0  0  0  0  0  0  0  0  0  0  0  0
  -29.1285  -32.0299   17.6265 C   0  0  1  0  0  0  0  0  0  0  0  0
  -26.0499  -30.1846   18.8718 C   0  0  1  0  0  0  0  0  0  0  0  0
  -26.5620  -19.4120   21.3608 C   0  0  0  0  0  0  0  0  0  0  0  0
  -23.1634  -15.4135   19.4267 C   0  0  2  0  0  0  0  0  0  0  0  0
  -21.0026  -30.2842   24.7470 C   0  0  0  0  0  0  0  0  0  0  0  0
  -28.5785  -18.1496   17.9234 C   0  0  0  0  0  0  0  0  0  0  0  0
  -27.1272  -32.0598   22.9563 C   0  0  0  0  0  0  0  0  0  0  0  0
  -25.4266  -31.7503   24.7675 C   0  0  0  0  0  0  0  0  0  0  0  0
  -24.9956  -33.3671   22.9173 C   0  0  0  0  0  0  0  0  0  0  0  0
  -20.8547  -28.0615   21.6625 C   0  0  0  0  0  0  0  0  0  0  0  0
  -26.6103  -19.5658   17.2086 C   0  0  0  0  0  0  0  0  0  0  0  0
  -27.1339  -21.8194   20.8359 C   0  0  0  0  0  0  0  0  0  0  0  0
  -26.0656  -18.5804   16.1756 C   0  0  0  0  0  0  0  0  0  0  0  0
  -27.2492  -22.9183   19.7852 C   0  0  0  0  0  0  0  0  0  1  0  0
  -24.8852  -30.8857   22.4457 C   0  0  1  0  0  0  0  0  0  0  0  0
  -21.3450  -29.8570   23.3282 C   0  0  2  0  0  0  0  0  0  0  0  0
  -26.7406  -20.4569   20.2615 C   0  0  1  0  0  0  0  0  0  0  0  0
  -27.3499  -18.9212   18.3882 C   0  0  2  0  0  0  0  0  0  0  0  0
  -25.6161  -31.9939   23.2550 C   0  0  0  0  0  0  0  0  0  0  0  0
  -22.8522  -13.0364   20.0057 N   0  0  0  0  0  0  0  0  0  0  0  0
  -23.6656  -14.1062   20.0110 N   0  0  0  0  0  0  0  0  0  0  0  0
  -25.6762  -29.9983   20.2753 N   0  0  0  0  0  0  0  0  0  0  0  0
  -23.0192  -16.8377   17.4169 N   0  0  0  0  0  0  0  0  0  0  0  0
  -25.8281  -14.8314   20.6500 N   0  0  0  0  0  0  0  0  0  0  0  0
  -25.7698  -10.4944   21.9081 N   0  0  0  0  0  0  0  0  0  0  0  0
  -27.8020  -31.4870   17.8269 N   0  0  0  0  0  0  0  0  0  0  0  0
  -23.4482  -30.8180   22.6883 N   0  0  0  0  0  0  0  0  0  0  0  0
  -25.1491  -17.6216   16.7513 N   0  0  0  0  0  0  0  0  0  0  0  0
  -26.0564  -18.7345   24.1294 N   0  3  0  0  0  0  0  0  0  0  0  0
  -20.6267  -28.5848   23.0341 N   0  3  0  0  0  0  0  0  0  0  0  0
  -27.8023  -19.9726   19.3359 N   0  3  0  0  0  0  0  0  0  0  0  0
  -27.0396  -12.4034   21.8641 O   0  0  0  0  0  0  0  0  0  0  0  0
  -28.2560  -30.1994   19.7132 O   0  0  0  0  0  0  0  0  0  0  0  0
  -24.6436  -32.0842   20.4131 O   0  0  0  0  0  0  0  0  0  0  0  0
  -23.4152  -28.6139   23.4078 O   0  0  0  0  0  0  0  0  0  0  0  0
  -23.2823  -18.9058   16.4011 O   0  0  0  0  0  0  0  0  0  0  0  0
  -21.5264   -6.9399   21.2799 O   0  0  0  0  0  0  0  0  0  0  0  0
  -27.5983  -24.1389   20.4367 O   0  0  0  0  0  0  0  0  0  1  0  0
  -22.3156   -4.5025   26.1626 F   0  0  0  0  0  0  0  0  0  0  0  0
  -24.0779   -6.4675   22.2333 F   0  0  0  0  0  0  0  0  0  0  0  0
  1  2  1  0  0  0  0
  1  5  2  0  0  0  0
  2  6  2  0  0  0  0
  3  8  2  0  0  0  0
  3 15  1  0  0  0  0
  4  9  1  0  0  0  0
  4 15  2  0  0  0  0
  5 17  1  0  0  0  0
  6 19  1  0  0  0  0
  7 10  2  0  0  0  0
  7 18  1  0  0  0  0
  8 21  1  0  0  0  0
  9 21  2  0  0  0  0
 10 22  1  0  0  0  0
 11 12  2  0  0  0  0
 11 23  1  0  0  0  0
 12 24  1  0  0  0  0
 13 20  1  0  0  0  0
 13 22  2  0  0  0  0
 14 24  2  0  0  0  0
 14 25  1  0  0  0  0
 15 26  1  0  0  0  0
 16 26  1  0  0  0  0
 16 27  2  0  0  0  0
 16 28  1  0  0  0  0
 17 19  2  0  0  0  0
 17 33  1  0  0  0  0
 18 20  2  0  0  0  0
 18 34  1  0  0  0  0
 19 46  1  0  0  0  0
 20 35  1  0  0  0  0
 21 82  1  0  0  0  0
 22 83  1  0  0  0  0
 23 25  2  0  0  0  0
 23 82  1  0  0  0  0
 24 84  1  0  0  0  0
 25 85  1  0  0  0  0
 26 65  2  0  0  0  0
 27 66  1  0  0  0  0
 27 69  1  0  0  0  0
 28 70  1  0  0  0  0
 28 77  2  0  0  0  0
 29 47  1  0  0  0  0
 29 71  1  0  0  0  0
 29 78  2  0  0  0  0
 30 60  1  0  0  0  0
 30 67  1  0  0  0  0
 30 79  2  0  0  0  0
 31 61  1  0  0  0  0
 31 72  1  0  0  0  0
 31 80  2  0  0  0  0
 32 68  1  0  0  0  0
 32 73  1  0  0  0  0
 32 81  2  0  0  0  0
 33 36  1  0  0  0  0
 34 47  1  0  0  0  0
 35 67  1  0  0  0  0
 36 38  1  0  0  0  0
 37 39  1  0  0  0  0
 37 42  1  0  0  0  0
 38 46  1  0  0  0  0
 39 49  1  0  0  0  0
 40 44  1  0  0  0  0
 40 48  1  0  0  0  0
 41 45  1  0  0  0  0
 41 48  1  0  0  0  0
 42 68  1  0  0  0  0
 43 49  1  0  0  0  0
 43 68  1  0  0  0  0
 44 74  1  0  0  0  0
 45 74  1  0  0  0  0
 46 71  1  0  0  0  0
 47 67  1  0  0  0  0
 48 62  1  0  0  0  0
 49 66  1  0  0  0  0
 50 61  1  0  0  0  0
 51 63  1  0  0  0  0
 52 64  1  0  0  0  0
 53 64  1  0  0  0  0
 54 64  1  0  0  0  0
 55 75  1  0  0  0  0
 56 58  1  0  0  0  0
 56 63  1  0  0  0  0
 57 59  1  0  0  0  0
 57 62  1  0  0  0  0
 58 73  1  0  0  0  0
 59 83  1  0  0  0  0
 60 64  1  0  0  0  0
 60 72  1  0  0  0  0
 61 75  1  0  0  0  0
 62 76  1  0  0  0  0
 63 76  1  0  0  0  0
 65 66  1  0  0  0  0
M  CHG  3  74   1  75   1  76   1
M  ISO  4  32 100  59 101  73 100  83 101
M  END
> <Batch ID>
0110

> <Smiles>
CNC(C)C(=O)NC(C(=O)N1Cc2cc([101O:1][101CH2:1]CC(NC(C)CC[100NH:0][100C:0](=O)N3CCCC(n4nc(-c5ccc(Oc6ccc(F)cc6F)cc5)c(C(N)=O)c4N)C3)C3CCNCC3)ccc2CC1C(=O)NC1CCCc2ccccc21)C(C)(C)C

> <Shape>
0.228

> <Color>
0.104

> <Negative vol penalty>
0.000

$$$$

  -OEChem-04052319583D

 92101  0     1  0  0  0  0  0999 V2000
  -21.6357  -27.3990   25.3112 C   0  0  0  0  0  0  0  0  0  0  0  0
  -22.1235  -26.1003   25.2075 C   0  0  0  0  0  0  0  0  0  0  0  0
  -26.5683  -12.6327   17.4050 C   0  0  0  0  0  0  0  0  0  0  0  0
  -24.6355  -13.4200   18.6881 C   0  0  0  0  0  0  0  0  0  0  0  0
  -27.4220  -23.4486   20.4246 C   0  0  0  0  0  0  0  0  0  0  0  0
  -29.1189  -23.5336   18.7068 C   0  0  0  0  0  0  0  0  0  0  0  0
  -20.4583  -27.7547   24.6546 C   0  0  0  0  0  0  0  0  0  0  0  0
  -21.4336  -25.1561   24.4479 C   0  0  0  0  0  0  0  0  0  0  0  0
  -23.8593  -20.6206   21.1235 C   0  0  0  0  0  0  0  0  0  0  0  0
  -27.9459  -12.4724   17.2872 C   0  0  0  0  0  0  0  0  0  0  0  0
  -27.5036  -24.8330   20.5737 C   0  0  0  0  0  0  0  0  0  0  0  0
  -29.2004  -24.9181   18.8559 C   0  0  0  0  0  0  0  0  0  0  0  0
  -24.0436  -19.2631   21.3822 C   0  0  0  0  0  0  0  0  0  0  0  0
  -26.3731  -27.5827   18.9630 C   0  0  0  0  0  0  0  0  0  0  0  0
  -25.1781  -28.2974   19.0440 C   0  0  0  0  0  0  0  0  0  0  0  0
  -24.1238  -14.0296   19.8245 C   0  0  0  0  0  0  0  0  0  0  0  0
  -21.9871  -18.7689   20.2221 C   0  0  0  0  0  0  0  0  0  0  0  0
  -28.2315  -13.5329   19.4361 C   0  0  0  0  0  0  0  0  0  0  0  0
  -25.8087  -29.1036   21.2325 C   0  0  0  0  0  0  0  0  0  0  0  0
  -26.0186  -13.2460   18.5436 C   0  0  0  0  0  0  0  0  0  0  0  0
  -28.2297  -22.7988   19.4912 C   0  0  0  0  0  0  0  0  0  0  0  0
  -27.3010  -20.6553   18.4664 C   0  0  0  0  0  0  0  0  0  0  0  0
  -19.7588  -26.8171   23.8787 C   0  0  0  0  0  0  0  0  0  0  0  0
  -22.7300  -21.0643   20.4205 C   0  0  0  0  0  0  0  0  0  0  0  0
  -20.2450  -25.4993   23.7814 C   0  0  0  0  0  0  0  0  0  0  0  0
  -21.7921  -20.1324   19.9536 C   0  0  0  0  0  0  0  0  0  0  0  0
  -28.7782  -12.9232   18.3042 C   0  0  0  0  0  0  0  0  0  0  0  0
  -26.8576  -13.7062   19.5800 C   0  0  0  0  0  0  0  0  0  0  0  0
  -28.3927  -25.5678   19.7893 C   0  0  0  0  0  0  0  0  0  0  0  0
  -23.1061  -18.3373   20.9340 C   0  0  0  0  0  0  0  0  0  0  0  0
  -27.2859  -27.6283   20.0167 C   0  0  0  0  0  0  0  0  0  0  0  0
  -24.8958  -29.0579   20.1788 C   0  0  0  0  0  0  0  0  0  0  0  0
  -27.0037  -28.3888   21.1515 C   0  0  0  0  0  0  0  0  0  0  0  0
  -28.1464  -21.3687   19.3371 C   0  0  0  0  0  0  0  0  0  0  0  0
  -25.0231  -14.4470   20.7846 C   0  0  0  0  0  0  0  0  0  0  0  0
  -27.6035  -19.3358   18.6987 C   0  0  0  0  0  0  0  0  0  0  0  0
  -26.3292  -21.1418   17.5312 C   0  0  0  0  0  0  0  0  0  0  0  0
  -20.2720  -22.9640   21.0935 C   0  0  0  0  0  0  0  0  0  0  0  0
  -19.5757  -22.5251   17.9558 C   0  0  0  0  0  0  0  0  0  0  0  0
  -19.8791  -20.5849   15.1647 C   0  0  0  0  0  0  0  0  0  0  0  0
  -31.3381  -15.2679   19.5049 C   0  0  0  0  0  0  0  0  0  0  0  0
  -18.4652  -27.2356   23.2259 C   0  0  0  0  0  0  0  0  0  0  0  0
  -22.5593  -22.5295   20.1264 C   0  0  0  0  0  0  0  0  0  0  0  0
  -20.5730  -20.5553   19.1768 C   0  0  0  0  0  0  0  0  0  0  0  0
  -17.9947  -26.2760   22.1359 C   0  0  0  0  0  0  0  0  0  0  0  0
  -30.3721  -17.1853   22.3451 C   0  0  0  0  0  0  0  0  0  0  0  0
  -18.0888  -24.8321   22.6187 C   0  0  0  0  0  0  0  0  0  0  0  0
  -29.6431  -18.3882   21.7437 C   0  0  0  0  0  0  0  0  0  0  0  0
  -31.5516  -16.7493   21.4788 C   0  0  0  0  0  0  0  0  0  0  0  0
  -30.4903  -17.6919   19.4642 C   0  0  0  0  0  0  0  0  0  0  0  0
  -19.5382  -24.4535   22.9466 C   0  0  1  0  0  0  0  0  0  0  0  0
  -21.1107  -22.9182   19.8476 C   0  0  1  0  0  0  0  0  0  0  0  0
  -29.2591  -18.1335   20.2737 C   0  0  2  0  0  0  0  0  0  0  0  0
  -31.0453  -15.1969   15.1897 C   0  0  0  0  0  0  0  0  0  0  0  0
  -25.9872  -13.1806   24.9719 C   0  0  0  0  0  0  0  0  0  0  0  0
  -19.1685  -20.4669   12.7609 C   0  0  0  0  0  0  0  0  0  0  0  0
  -16.7851  -21.6506   18.8263 C   0  0  0  0  0  0  0  0  0  0  0  0
  -16.4596  -20.6640   16.5483 C   0  0  0  0  0  0  0  0  0  0  0  0
  -16.8345  -23.1172   16.8012 C   0  0  0  0  0  0  0  0  0  0  0  0
  -32.5351  -13.5554   17.3506 C   0  0  0  0  0  0  0  0  0  0  0  0
  -22.6799  -20.6681   14.2119 C   0  0  0  0  0  0  0  0  0  0  0  0
  -30.4237  -14.0921   16.0387 C   0  0  0  0  0  0  0  0  0  0  0  0
  -25.0681  -13.4296   23.7961 C   0  0  0  0  0  0  0  0  0  0  0  0
  -24.4524  -16.6396   21.9144 C   0  0  0  0  0  0  0  0  0  1  0  0
  -30.2558  -12.7565   18.1892 C   0  0  2  0  0  0  0  0  0  0  0  0
  -24.5112  -15.1155   22.0394 C   0  0  2  0  0  0  0  0  0  0  0  0
  -18.7625  -21.5242   17.1710 C   0  0  1  0  0  0  0  0  0  0  0  0
  -20.2428  -20.9310   13.7321 C   0  0  2  0  0  0  0  0  0  0  0  0
  -17.2323  -21.7309   17.3530 C   0  0  0  0  0  0  0  0  0  0  0  0
  -31.0401  -13.9030   17.4537 C   0  0  1  0  0  0  0  0  0  0  0  0
  -26.3639  -14.2981   20.6841 N   0  0  0  0  0  0  0  0  0  0  0  0
  -28.9272  -20.5687   20.0681 N   0  0  0  0  0  0  0  0  0  0  0  0
  -28.5736  -19.3389   19.6573 N   0  0  0  0  0  0  0  0  0  0  0  0
  -20.4475  -21.9995   18.9200 N   0  0  0  0  0  0  0  0  0  0  0  0
  -31.1198  -16.5225   20.0975 N   0  0  0  0  0  0  0  0  0  0  0  0
  -27.1315  -18.1848   18.1744 N   0  0  0  0  0  0  0  0  0  0  0  0
  -26.1450  -22.5267   17.4188 N   0  0  0  0  0  0  0  0  0  0  0  0
  -20.2789  -24.1897   21.7316 N   0  0  0  0  0  0  0  0  0  0  0  0
  -19.2185  -21.6219   15.7887 N   0  0  0  0  0  0  0  0  0  0  0  0
  -30.8926  -15.1354   18.1954 N   0  0  0  0  0  0  0  0  0  0  0  0
  -21.5303  -20.2828   13.3535 N   0  3  0  0  0  0  0  0  0  0  0  0
  -25.3396  -14.7770   23.2410 N   0  3  0  0  0  0  0  0  0  0  0  0
  -25.6329  -20.3708   16.8282 O   0  0  0  0  0  0  0  0  0  0  0  0
  -19.6624  -21.9620   21.4487 O   0  0  0  0  0  0  0  0  0  0  0  0
  -19.4476  -23.7285   17.7171 O   0  0  0  0  0  0  0  0  0  0  0  0
  -20.1504  -19.5015   15.6777 O   0  0  0  0  0  0  0  0  0  0  0  0
  -31.8843  -14.3331   20.1006 O   0  0  0  0  0  0  0  0  0  0  0  0
  -28.4723  -26.9188   19.9344 O   0  0  0  0  0  0  0  0  0  0  0  0
  -23.2833  -17.0117   21.1857 O   0  0  0  0  0  0  0  0  0  1  0  0
  -23.7489  -29.7454   20.2559 F   0  0  0  0  0  0  0  0  0  0  0  0
  -27.8773  -28.4375   22.1665 F   0  0  0  0  0  0  0  0  0  0  0  0
  -30.5862  -11.5770   17.5564 F   0  0  0  0  0  0  0  0  0  0  0  0
  1  2  1  0  0  0  0
  1  7  2  0  0  0  0
  2  8  2  0  0  0  0
  3 10  2  0  0  0  0
  3 20  1  0  0  0  0
  4 16  2  0  0  0  0
  4 20  1  0  0  0  0
  5 11  2  0  0  0  0
  5 21  1  0  0  0  0
  6 12  1  0  0  0  0
  6 21  2  0  0  0  0
  7 23  1  0  0  0  0
  8 25  1  0  0  0  0
  9 13  2  0  0  0  0
  9 24  1  0  0  0  0
 10 27  1  0  0  0  0
 11 29  1  0  0  0  0
 12 29  2  0  0  0  0
 13 30  1  0  0  0  0
 14 15  2  0  0  0  0
 14 31  1  0  0  0  0
 15 32  1  0  0  0  0
 16 35  1  0  0  0  0
 17 26  1  0  0  0  0
 17 30  2  0  0  0  0
 18 27  2  0  0  0  0
 18 28  1  0  0  0  0
 19 32  2  0  0  0  0
 19 33  1  0  0  0  0
 20 28  2  0  0  0  0
 21 34  1  0  0  0  0
 22 34  1  0  0  0  0
 22 36  2  0  0  0  0
 22 37  1  0  0  0  0
 23 25  2  0  0  0  0
 23 42  1  0  0  0  0
 24 26  2  0  0  0  0
 24 43  1  0  0  0  0
 25 51  1  0  0  0  0
 26 44  1  0  0  0  0
 27 65  1  0  0  0  0
 28 71  1  0  0  0  0
 29 88  1  0  0  0  0
 30 89  1  0  0  0  0
 31 33  2  0  0  0  0
 31 88  1  0  0  0  0
 32 90  1  0  0  0  0
 33 91  1  0  0  0  0
 34 72  2  0  0  0  0
 35 66  1  0  0  0  0
 35 71  2  0  0  0  0
 36 73  1  0  0  0  0
 36 76  1  0  0  0  0
 37 77  1  0  0  0  0
 37 83  2  0  0  0  0
 38 52  1  0  0  0  0
 38 78  1  0  0  0  0
 38 84  2  0  0  0  0
 39 67  1  0  0  0  0
 39 74  1  0  0  0  0
 39 85  2  0  0  0  0
 40 68  1  0  0  0  0
 40 79  1  0  0  0  0
 40 86  2  0  0  0  0
 41 75  1  0  0  0  0
 41 80  1  0  0  0  0
 41 87  2  0  0  0  0
 42 45  1  0  0  0  0
 43 52  1  0  0  0  0
 44 74  1  0  0  0  0
 45 47  1  0  0  0  0
 46 48  1  0  0  0  0
 46 49  1  0  0  0  0
 47 51  1  0  0  0  0
 48 53  1  0  0  0  0
 49 75  1  0  0  0  0
 50 53  1  0  0  0  0
 50 75  1  0  0  0  0
 51 78  1  0  0  0  0
 52 74  1  0  0  0  0
 53 73  1  0  0  0  0
 54 62  1  0  0  0  0
 55 63  1  0  0  0  0
 56 68  1  0  0  0  0
 57 69  1  0  0  0  0
 58 69  1  0  0  0  0
 59 69  1  0  0  0  0
 60 70  1  0  0  0  0
 61 81  1  0  0  0  0
 62 70  1  0  0  0  0
 63 82  1  0  0  0  0
 64 66  1  0  0  0  0
 64 89  1  0  0  0  0
 65 70  1  0  0  0  0
 65 92  1  0  0  0  0
 66 82  1  0  0  0  0
 67 69  1  0  0  0  0
 67 79  1  0  0  0  0
 68 81  1  0  0  0  0
 70 80  1  0  0  0  0
 72 73  1  0  0  0  0
M  CHG  2  81   1  82   1
M  ISO  4  41 100  64 101  80 100  89 101
M  END
> <Batch ID>
0110

> <Smiles>
CCNC(c1ccc2ccc(C(F)C(C)(CC)[100NH:0][100C:0](=O)N3CCCC(n4nc(-c5ccc(Oc6ccc(F)cc6F)cc5)c(C(N)=O)c4N)C3)cc2n1)[101CH2:1][101O:1]c1ccc2c(c1)CN(C(=O)C(NC(=O)C(C)NC)C(C)(C)C)C(C(=O)NC1CCCc3ccccc31)C2

> <Shape>
0.210

> <Color>
0.071

> <Negative vol penalty>
0.000

$$$$

  -OEChem-04052319583D

 86 94  0     1  0  0  0  0  0999 V2000
  -32.7892  -32.5115   25.1569 C   0  0  0  0  0  0  0  0  0  0  0  0
  -32.9591  -31.4804   24.2385 C   0  0  0  0  0  0  0  0  0  0  0  0
  -23.6800   -9.6458   20.6139 C   0  0  0  0  0  0  0  0  0  0  0  0
  -24.2979  -10.2568   22.8682 C   0  0  0  0  0  0  0  0  0  0  0  0
  -32.2651  -32.2393   26.4198 C   0  0  0  0  0  0  0  0  0  0  0  0
  -32.6059  -30.1762   24.5830 C   0  0  0  0  0  0  0  0  0  0  0  0
  -30.2689  -25.8946   20.8800 C   0  0  0  0  0  0  0  0  0  0  0  0
  -23.1640   -8.4377   21.0828 C   0  0  0  0  0  0  0  0  0  0  0  0
  -23.7819   -9.0488   23.3371 C   0  0  0  0  0  0  0  0  0  0  0  0
  -30.8486  -24.8238   20.2010 C   0  0  0  0  0  0  0  0  0  0  0  0
  -20.3544   -7.3604   22.6251 C   0  0  0  0  0  0  0  0  0  0  0  0
  -19.1103   -6.9557   22.1415 C   0  0  0  0  0  0  0  0  0  0  0  0
  -28.9743  -18.5087   21.6596 C   0  0  0  0  0  0  0  0  0  0  0  0
  -30.2203  -23.3487   22.0034 C   0  0  0  0  0  0  0  0  0  0  0  0
  -30.9253  -19.7109   22.3896 C   0  0  0  0  0  0  0  0  0  0  0  0
  -20.1109   -4.9456   21.2496 C   0  0  0  0  0  0  0  0  0  0  0  0
  -29.0218  -19.2495   20.4897 C   0  0  0  0  0  0  0  0  0  0  0  0
  -24.2470  -10.5554   21.5066 C   0  0  0  0  0  0  0  0  0  0  0  0
  -24.0936  -13.0236   20.8805 C   0  0  0  0  0  0  0  0  0  0  0  0
  -31.8963  -30.9326   26.7766 C   0  0  0  0  0  0  0  0  0  0  0  0
  -29.6691  -25.7023   22.1329 C   0  0  0  0  0  0  0  0  0  0  0  0
  -32.0776  -29.8860   25.8525 C   0  0  0  0  0  0  0  0  0  0  0  0
  -29.6314  -24.4183   22.6951 C   0  0  0  0  0  0  0  0  0  0  0  0
  -29.9478  -18.7498   22.6226 C   0  0  0  0  0  0  0  0  0  0  0  0
  -23.2149   -8.1392   22.4444 C   0  0  0  0  0  0  0  0  0  0  0  0
  -30.8269  -23.5511   20.7640 C   0  0  0  0  0  0  0  0  0  0  0  0
  -21.4769   -6.5578   22.4209 C   0  0  0  0  0  0  0  0  0  0  0  0
  -18.9885   -5.7483   21.4538 C   0  0  0  0  0  0  0  0  0  0  0  0
  -21.3550   -5.3504   21.7331 C   0  0  0  0  0  0  0  0  0  0  0  0
  -24.7808  -11.8032   21.0228 C   0  0  0  0  0  0  0  0  0  0  0  0
  -30.8855  -20.3978   21.1869 C   0  0  0  0  0  0  0  0  0  0  0  0
  -25.0359  -13.8928   20.3875 C   0  0  0  0  0  0  0  0  0  0  0  0
  -22.7258  -13.3429   21.1684 C   0  0  0  0  0  0  0  0  0  0  0  0
  -30.2036  -26.7997   25.0678 C   0  0  0  0  0  0  0  0  0  0  0  0
  -27.4591  -25.2076   25.7424 C   0  0  0  0  0  0  0  0  0  0  0  0
  -25.2815  -22.7111   24.9224 C   0  0  0  0  0  0  0  0  0  0  0  0
  -31.0140  -14.0293   20.6947 C   0  0  0  0  0  0  0  0  0  0  0  0
  -31.3781  -30.6795   28.1702 C   0  0  0  0  0  0  0  0  0  0  0  0
  -29.0246  -26.8628   22.8402 C   0  0  0  0  0  0  0  0  0  0  0  0
  -28.9821  -24.1551   24.0283 C   0  0  0  0  0  0  0  0  0  0  0  0
  -30.6793  -29.3312   28.3247 C   0  0  0  0  0  0  0  0  0  0  0  0
  -29.0223  -13.9885   17.7437 C   0  0  0  0  0  0  0  0  0  0  0  0
  -31.5099  -28.2231   27.6850 C   0  0  0  0  0  0  0  0  0  0  0  0
  -27.6474  -13.5339   18.2366 C   0  0  0  0  0  0  0  0  0  0  0  0
  -30.1516  -13.2863   18.4945 C   0  0  0  0  0  0  0  0  0  0  0  0
  -28.7021  -12.9361   20.4568 C   0  0  0  0  0  0  0  0  0  0  0  0
  -31.6832  -28.4622   26.1802 C   0  0  1  0  0  0  0  0  0  0  0  0
  -28.8951  -26.6480   24.3450 C   0  0  1  0  0  0  0  0  0  0  0  0
  -27.5315  -13.6580   19.7678 C   0  0  2  0  0  0  0  0  0  0  0  0
  -33.1447  -20.8726   20.1800 C   0  0  0  0  0  0  0  0  0  0  0  0
  -23.1495  -21.6280   25.6833 C   0  0  0  0  0  0  0  0  0  0  0  0
  -28.9812  -23.7813   27.9692 C   0  0  0  0  0  0  0  0  0  0  0  0
  -27.1384  -22.0884   28.0494 C   0  0  0  0  0  0  0  0  0  0  0  0
  -26.6573  -24.4790   28.5752 C   0  0  0  0  0  0  0  0  0  0  0  0
  -23.8922  -23.4090   22.4042 C   0  0  0  0  0  0  0  0  0  0  0  0
  -28.6272  -18.0783   24.7140 C   0  0  0  0  0  0  0  0  0  0  0  0
  -31.7331  -14.7338   22.9631 C   0  0  0  0  0  0  0  0  0  0  0  0
  -28.2158  -19.4993   25.0932 C   0  0  0  0  0  0  0  0  0  0  0  0
  -31.5420  -16.2316   23.1122 C   0  0  0  0  0  0  0  0  0  0  0  0
  -29.9426  -17.9809   23.9000 C   0  0  1  0  0  0  0  0  0  0  0  0
  -31.9322  -21.4497   20.8994 C   0  0  1  0  0  0  0  0  0  1  0  0
  -27.1176  -23.8045   26.1824 C   0  0  1  0  0  0  0  0  0  0  0  0
  -23.7689  -22.6954   24.7947 C   0  0  2  0  0  0  0  0  0  0  0  0
  -27.4876  -23.5433   27.6698 C   0  0  0  0  0  0  0  0  0  0  0  0
  -29.9556  -20.1912   20.2276 N   0  0  0  0  0  0  0  0  0  0  0  0
  -26.0607  -11.8857   20.6501 N   0  0  0  0  0  0  0  0  0  0  0  0
  -26.1853  -13.1684   20.2687 N   0  0  0  0  0  0  0  0  0  0  0  0
  -28.3712  -25.3233   24.6839 N   0  0  0  0  0  0  0  0  0  0  0  0
  -29.9834  -13.4433   19.9413 N   0  0  0  0  0  0  0  0  0  0  0  0
  -24.9850  -15.1985   20.0483 N   0  0  0  0  0  0  0  0  0  0  0  0
  -21.8948  -12.3317   21.6695 N   0  0  0  0  0  0  0  0  0  0  0  0
  -30.4787  -28.0934   25.4678 N   0  0  0  0  0  0  0  0  0  0  0  0
  -25.7042  -23.6131   25.8758 N   0  0  0  0  0  0  0  0  0  0  0  0
  -30.7709  -14.1463   22.0577 N   0  0  0  0  0  0  0  0  0  0  0  0
  -29.2604  -20.1429   25.9236 N   0  3  0  0  0  0  0  0  0  0  0  0
  -23.3710  -22.4221   23.3847 N   0  3  0  0  0  0  0  0  0  0  0  0
  -30.2101  -16.5108   23.6890 N   0  3  0  0  0  0  0  0  0  0  0  0
  -22.2503  -14.4868   20.9712 O   0  0  0  0  0  0  0  0  0  0  0  0
  -30.9106  -25.8156   25.2504 O   0  0  0  0  0  0  0  0  0  0  0  0
  -26.9304  -26.1655   26.3120 O   0  0  0  0  0  0  0  0  0  0  0  0
  -26.0145  -21.9921   24.2469 O   0  0  0  0  0  0  0  0  0  0  0  0
  -32.0702  -14.4242   20.1892 O   0  0  0  0  0  0  0  0  0  0  0  0
  -22.7112   -6.9606   22.9023 O   0  0  0  0  0  0  0  0  0  0  0  0
  -31.3926  -22.5043   20.1037 O   0  0  0  0  0  0  0  0  0  1  0  0
  -17.7934   -5.3590   20.9908 F   0  0  0  0  0  0  0  0  0  0  0  0
  -22.4295   -4.5745   21.5349 F   0  0  0  0  0  0  0  0  0  0  0  0
  1  2  1  0  0  0  0
  1  5  2  0  0  0  0
  2  6  2  0  0  0  0
  3  8  2  0  0  0  0
  3 18  1  0  0  0  0
  4  9  1  0  0  0  0
  4 18  2  0  0  0  0
  5 20  1  0  0  0  0
  6 22  1  0  0  0  0
  7 10  2  0  0  0  0
  7 21  1  0  0  0  0
  8 25  1  0  0  0  0
  9 25  2  0  0  0  0
 10 26  1  0  0  0  0
 11 12  2  0  0  0  0
 11 27  1  0  0  0  0
 12 28  1  0  0  0  0
 13 17  2  0  0  0  0
 13 24  1  0  0  0  0
 14 23  1  0  0  0  0
 14 26  2  0  0  0  0
 15 24  2  0  0  0  0
 15 31  1  0  0  0  0
 16 28  2  0  0  0  0
 16 29  1  0  0  0  0
 17 65  1  0  0  0  0
 18 30  1  0  0  0  0
 19 30  1  0  0  0  0
 19 32  2  0  0  0  0
 19 33  1  0  0  0  0
 20 22  2  0  0  0  0
 20 38  1  0  0  0  0
 21 23  2  0  0  0  0
 21 39  1  0  0  0  0
 22 47  1  0  0  0  0
 23 40  1  0  0  0  0
 24 60  1  0  0  0  0
 25 83  1  0  0  0  0
 26 84  1  0  0  0  0
 27 29  2  0  0  0  0
 27 83  1  0  0  0  0
 28 85  1  0  0  0  0
 29 86  1  0  0  0  0
 30 66  2  0  0  0  0
 31 61  1  0  0  0  0
 31 65  2  0  0  0  0
 32 67  1  0  0  0  0
 32 70  1  0  0  0  0
 33 71  1  0  0  0  0
 33 78  2  0  0  0  0
 34 48  1  0  0  0  0
 34 72  1  0  0  0  0
 34 79  2  0  0  0  0
 35 62  1  0  0  0  0
 35 68  1  0  0  0  0
 35 80  2  0  0  0  0
 36 63  1  0  0  0  0
 36 73  1  0  0  0  0
 36 81  2  0  0  0  0
 37 69  1  0  0  0  0
 37 74  1  0  0  0  0
 37 82  2  0  0  0  0
 38 41  1  0  0  0  0
 39 48  1  0  0  0  0
 40 68  1  0  0  0  0
 41 43  1  0  0  0  0
 42 44  1  0  0  0  0
 42 45  1  0  0  0  0
 43 47  1  0  0  0  0
 44 49  1  0  0  0  0
 45 69  1  0  0  0  0
 46 49  1  0  0  0  0
 46 69  1  0  0  0  0
 47 72  1  0  0  0  0
 48 68  1  0  0  0  0
 49 67  1  0  0  0  0
 50 61  1  0  0  0  0
 51 63  1  0  0  0  0
 52 64  1  0  0  0  0
 53 64  1  0  0  0  0
 54 64  1  0  0  0  0
 55 76  1  0  0  0  0
 56 58  1  0  0  0  0
 56 60  1  0  0  0  0
 57 59  1  0  0  0  0
 57 74  1  0  0  0  0
 58 75  1  0  0  0  0
 59 77  1  0  0  0  0
 60 77  1  0  0  0  0
 61 84  1  0  0  0  0
 62 64  1  0  0  0  0
 62 73  1  0  0  0  0
 63 76  1  0  0  0  0
 66 67  1  0  0  0  0
M  CHG  3  75   1  76   1  77   1
M  ISO  4  37 100  61 101  74 100  84 101
M  END
> <Batch ID>
0110

> <Smiles>
CNC(C)C(=O)NC(C(=O)N1Cc2cc([101O:1][101CH:1](C)c3cc(C(CCN)NCC[100NH:0][100C:0](=O)N4CCCC(n5nc(-c6ccc(Oc7ccc(F)cc7F)cc6)c(C(N)=O)c5N)C4)ccn3)ccc2CC1C(=O)NC1CCCc2ccccc21)C(C)(C)C

> <Shape>
0.183

> <Color>
0.142

> <Negative vol penalty>
0.000

$$$$

  -OEChem-04052319583D

 84 92  0     1  0  0  0  0  0999 V2000
  -17.1141  -25.2299   24.2379 C   0  0  0  0  0  0  0  0  0  0  0  0
  -17.9254  -24.3282   23.5566 C   0  0  0  0  0  0  0  0  0  0  0  0
  -25.1471  -10.0606   21.7191 C   0  0  0  0  0  0  0  0  0  0  0  0
  -24.9068  -11.0532   23.9086 C   0  0  0  0  0  0  0  0  0  0  0  0
  -17.3147  -26.6010   24.0833 C   0  0  0  0  0  0  0  0  0  0  0  0
  -18.9371  -24.7971   22.7194 C   0  0  0  0  0  0  0  0  0  0  0  0
  -24.4087  -22.2203   21.7567 C   0  0  0  0  0  0  0  0  0  0  0  0
  -24.8948   -8.8010   22.2624 C   0  0  0  0  0  0  0  0  0  0  0  0
  -24.6544   -9.7935   24.4519 C   0  0  0  0  0  0  0  0  0  0  0  0
  -24.8932  -21.4001   20.7386 C   0  0  0  0  0  0  0  0  0  0  0  0
  -22.2057   -7.0163   23.2707 C   0  0  0  0  0  0  0  0  0  0  0  0
  -21.3191   -6.1823   22.5896 C   0  0  0  0  0  0  0  0  0  0  0  0
  -25.8108  -23.3338   19.6258 C   0  0  0  0  0  0  0  0  0  0  0  0
  -31.2058  -21.6445   18.8923 C   0  0  0  0  0  0  0  0  0  0  0  0
  -23.0673   -4.5348   22.3314 C   0  0  0  0  0  0  0  0  0  0  0  0
  -32.1195  -21.7346   20.9483 C   0  0  0  0  0  0  0  0  0  0  0  0
  -25.1532  -11.1867   22.5422 C   0  0  0  0  0  0  0  0  0  0  0  0
  -24.4706  -13.3968   21.4663 C   0  0  0  0  0  0  0  0  0  0  0  0
  -18.3356  -27.0869   23.2513 C   0  0  0  0  0  0  0  0  0  0  0  0
  -24.6126  -23.6069   21.7113 C   0  0  0  0  0  0  0  0  0  0  0  0
  -19.1507  -26.1760   22.5524 C   0  0  0  0  0  0  0  0  0  0  0  0
  -25.3301  -24.1690   20.6458 C   0  0  0  0  0  0  0  0  0  0  0  0
  -32.2799  -22.1707   19.6516 C   0  0  0  0  0  0  0  0  0  0  0  0
  -24.6484   -8.6674   23.6288 C   0  0  0  0  0  0  0  0  0  0  0  0
  -25.5919  -21.9572   19.6715 C   0  0  0  0  0  0  0  0  0  0  0  0
  -23.5231   -6.6096   23.4822 C   0  0  0  0  0  0  0  0  0  0  0  0
  -21.7499   -4.9415   22.1199 C   0  0  0  0  0  0  0  0  0  0  0  0
  -23.9539   -5.3689   23.0125 C   0  0  0  0  0  0  0  0  0  0  0  0
  -25.4144  -12.4881   21.9816 C   0  0  0  0  0  0  0  0  0  0  0  0
  -25.2183  -14.4751   21.0605 C   0  0  0  0  0  0  0  0  0  0  0  0
  -30.4215  -20.9030   19.7483 C   0  0  0  0  0  0  0  0  0  0  0  0
  -23.0456  -13.2769   21.3638 C   0  0  0  0  0  0  0  0  0  0  0  0
  -22.7113  -26.1500   21.5652 C   0  0  0  0  0  0  0  0  0  0  0  0
  -25.4988  -27.7695   21.9252 C   0  0  0  0  0  0  0  0  0  0  0  0
  -28.8936  -27.8064   21.5781 C   0  0  0  0  0  0  0  0  0  0  0  0
  -29.1553  -18.1648   22.2141 C   0  0  0  0  0  0  0  0  0  0  0  0
  -18.4837  -28.5779   23.0789 C   0  0  0  0  0  0  0  0  0  0  0  0
  -24.1067  -24.4747   22.8309 C   0  0  0  0  0  0  0  0  0  0  0  0
  -25.5934  -25.6495   20.5605 C   0  0  0  0  0  0  0  0  0  0  0  0
  -19.8190  -28.9903   22.4646 C   0  0  0  0  0  0  0  0  0  0  0  0
  -30.1976  -15.0375   20.5355 C   0  0  0  0  0  0  0  0  0  0  0  0
  -20.1413  -28.1199   21.2541 C   0  0  0  0  0  0  0  0  0  0  0  0
  -28.9785  -14.1541   20.7809 C   0  0  0  0  0  0  0  0  0  0  0  0
  -30.4442  -16.0100   21.6880 C   0  0  0  0  0  0  0  0  0  0  0  0
  -28.0326  -15.9602   22.2684 C   0  0  0  0  0  0  0  0  0  0  0  0
  -20.2746  -26.6457   21.6545 C   0  0  1  0  0  0  0  0  0  0  0  0
  -23.9266  -25.9333   22.4217 C   0  0  1  0  0  0  0  0  0  0  0  0
  -27.7439  -15.0121   21.0949 C   0  0  2  0  0  0  0  0  0  0  0  0
  -34.7658  -22.3765   19.2886 C   0  0  0  0  0  0  0  0  0  0  0  0
  -33.3938  -24.4265   19.8086 C   0  0  0  0  0  0  0  0  0  0  0  0
  -30.8930  -29.2835   21.9218 C   0  0  0  0  0  0  0  0  0  0  0  0
  -24.7603  -29.3477   19.4205 C   0  0  0  0  0  0  0  0  0  0  0  0
  -27.1447  -30.0968   19.2740 C   0  0  0  0  0  0  0  0  0  0  0  0
  -25.7644  -30.7159   21.2574 C   0  0  0  0  0  0  0  0  0  0  0  0
  -30.0983  -25.9214   23.5157 C   0  0  0  0  0  0  0  0  0  0  0  0
  -27.5245  -19.3224   18.1113 C   0  0  0  0  0  0  0  0  0  0  0  0
  -26.4194  -19.8223   19.0285 C   0  0  0  0  0  0  0  0  0  1  0  0
  -28.7687  -20.1928   18.1928 C   0  0  0  0  0  0  0  0  0  0  0  0
  -30.4574  -20.2988   22.2360 C   0  0  0  0  0  0  0  0  0  0  0  0
  -33.3700  -23.0280   19.1484 C   0  0  0  0  0  0  0  0  0  0  0  0
  -26.5412  -28.3254   20.9854 C   0  0  1  0  0  0  0  0  0  0  0  0
  -29.9995  -28.2160   22.5340 C   0  0  2  0  0  0  0  0  0  0  0  0
  -26.0462  -29.5938   20.2346 C   0  0  0  0  0  0  0  0  0  0  0  0
  -26.6660  -12.9490   21.9106 N   0  0  0  0  0  0  0  0  0  0  0  0
  -30.9864  -20.9651   20.9953 N   0  0  0  0  0  0  0  0  0  0  0  0
  -26.5139  -14.1590   21.3459 N   0  0  0  0  0  0  0  0  0  0  0  0
  -25.0731  -26.4569   21.6763 N   0  0  0  0  0  0  0  0  0  0  0  0
  -29.2317  -16.7720   22.0267 N   0  0  0  0  0  0  0  0  0  0  0  0
  -24.8872  -15.6534   20.4908 N   0  0  0  0  0  0  0  0  0  0  0  0
  -22.4387  -12.1022   21.8289 N   0  0  0  0  0  0  0  0  0  0  0  0
  -21.5571  -26.4060   22.2807 N   0  0  0  0  0  0  0  0  0  0  0  0
  -27.7422  -28.5359   21.7865 N   0  0  0  0  0  0  0  0  0  0  0  0
  -30.3519  -18.8578   22.0683 N   0  0  0  0  0  0  0  0  0  0  0  0
  -30.8447  -27.0392   22.8830 N   0  3  0  0  0  0  0  0  0  0  0  0
  -22.3331  -14.1776   20.8593 O   0  0  0  0  0  0  0  0  0  0  0  0
  -22.8133  -26.0909   20.3455 O   0  0  0  0  0  0  0  0  0  0  0  0
  -25.0828  -28.4713   22.8504 O   0  0  0  0  0  0  0  0  0  0  0  0
  -29.0380  -26.9297   20.7289 O   0  0  0  0  0  0  0  0  0  0  0  0
  -28.1008  -18.7429   22.4982 O   0  0  0  0  0  0  0  0  0  0  0  0
  -24.4019   -7.4384   24.1593 O   0  0  0  0  0  0  0  0  0  0  0  0
  -26.0653  -21.1590   18.6762 O   0  0  0  0  0  0  0  0  0  1  0  0
  -29.2719  -20.1919   19.5219 O   0  0  0  0  0  0  0  0  0  0  0  0
  -20.8980   -4.1401   21.4671 F   0  0  0  0  0  0  0  0  0  0  0  0
  -25.2180   -4.9722   23.2137 F   0  0  0  0  0  0  0  0  0  0  0  0
  1  2  1  0  0  0  0
  1  5  2  0  0  0  0
  2  6  2  0  0  0  0
  3  8  2  0  0  0  0
  3 17  1  0  0  0  0
  4  9  1  0  0  0  0
  4 17  2  0  0  0  0
  5 19  1  0  0  0  0
  6 21  1  0  0  0  0
  7 10  2  0  0  0  0
  7 20  1  0  0  0  0
  8 24  1  0  0  0  0
  9 24  2  0  0  0  0
 10 25  1  0  0  0  0
 11 12  2  0  0  0  0
 11 26  1  0  0  0  0
 12 27  1  0  0  0  0
 13 22  1  0  0  0  0
 13 25  2  0  0  0  0
 14 23  1  0  0  0  0
 14 31  2  0  0  0  0
 15 27  2  0  0  0  0
 15 28  1  0  0  0  0
 16 23  2  0  0  0  0
 16 65  1  0  0  0  0
 17 29  1  0  0  0  0
 18 29  1  0  0  0  0
 18 30  2  0  0  0  0
 18 32  1  0  0  0  0
 19 21  2  0  0  0  0
 19 37  1  0  0  0  0
 20 22  2  0  0  0  0
 20 38  1  0  0  0  0
 21 46  1  0  0  0  0
 22 39  1  0  0  0  0
 23 60  1  0  0  0  0
 24 80  1  0  0  0  0
 25 81  1  0  0  0  0
 26 28  2  0  0  0  0
 26 80  1  0  0  0  0
 27 83  1  0  0  0  0
 28 84  1  0  0  0  0
 29 64  2  0  0  0  0
 30 66  1  0  0  0  0
 30 69  1  0  0  0  0
 31 65  1  0  0  0  0
 31 82  1  0  0  0  0
 32 70  1  0  0  0  0
 32 75  2  0  0  0  0
 33 47  1  0  0  0  0
 33 71  1  0  0  0  0
 33 76  2  0  0  0  0
 34 61  1  0  0  0  0
 34 67  1  0  0  0  0
 34 77  2  0  0  0  0
 35 62  1  0  0  0  0
 35 72  1  0  0  0  0
 35 78  2  0  0  0  0
 36 68  1  0  0  0  0
 36 73  1  0  0  0  0
 36 79  2  0  0  0  0
 37 40  1  0  0  0  0
 38 47  1  0  0  0  0
 39 67  1  0  0  0  0
 40 42  1  0  0  0  0
 41 43  1  0  0  0  0
 41 44  1  0  0  0  0
 42 46  1  0  0  0  0
 43 48  1  0  0  0  0
 44 68  1  0  0  0  0
 45 48  1  0  0  0  0
 45 68  1  0  0  0  0
 46 71  1  0  0  0  0
 47 67  1  0  0  0  0
 48 66  1  0  0  0  0
 49 60  1  0  0  0  0
 50 60  1  0  0  0  0
 51 62  1  0  0  0  0
 52 63  1  0  0  0  0
 53 63  1  0  0  0  0
 54 63  1  0  0  0  0
 55 74  1  0  0  0  0
 56 57  1  0  0  0  0
 56 58  1  0  0  0  0
 57 81  1  0  0  0  0
 58 82  1  0  0  0  0
 59 65  1  0  0  0  0
 59 73  1  0  0  0  0
 61 63  1  0  0  0  0
 61 72  1  0  0  0  0
 62 74  1  0  0  0  0
 64 66  1  0  0  0  0
M  CHG  1  74   1
M  ISO  4  36 100  57 101  73 100  81 101
M  END
> <Batch ID>
0110

> <Smiles>
CNC(C)C(=O)NC(C(=O)N1Cc2cc([101O:1][101CH2:1]CCOc3cc(C(C)C)cn3C[100NH:0][100C:0](=O)N3CCCC(n4nc(-c5ccc(Oc6ccc(F)cc6F)cc5)c(C(N)=O)c4N)C3)ccc2CC1C(=O)NC1CCCc2ccccc21)C(C)(C)C

> <Shape>
0.231

> <Color>
0.100

> <Negative vol penalty>
0.000

$$$$

  -OEChem-04052319583D

 88 96  0     1  0  0  0  0  0999 V2000
  -27.5176  -23.3462   17.4597 C   0  0  0  0  0  0  0  0  0  0  0  0
  -26.3395  -23.7861   18.0547 C   0  0  0  0  0  0  0  0  0  0  0  0
  -26.3476  -15.9282   20.1851 C   0  0  0  0  0  0  0  0  0  0  0  0
  -28.2722  -14.9353   21.2562 C   0  0  0  0  0  0  0  0  0  0  0  0
  -28.7495  -23.7348   17.9844 C   0  0  0  0  0  0  0  0  0  0  0  0
  -26.3927  -24.6140   19.1754 C   0  0  0  0  0  0  0  0  0  0  0  0
  -23.1464  -28.4898   18.8834 C   0  0  0  0  0  0  0  0  0  0  0  0
  -25.8089  -14.6587   19.9762 C   0  0  0  0  0  0  0  0  0  0  0  0
  -27.7335  -13.6657   21.0473 C   0  0  0  0  0  0  0  0  0  0  0  0
  -21.8060  -28.2195   19.1555 C   0  0  0  0  0  0  0  0  0  0  0  0
  -24.1610  -12.3238   21.7833 C   0  0  0  0  0  0  0  0  0  0  0  0
  -22.8093  -12.1375   22.0729 C   0  0  0  0  0  0  0  0  0  0  0  0
  -22.0862  -29.1034   21.3825 C   0  0  0  0  0  0  0  0  0  0  0  0
  -22.4034  -11.5113   19.7750 C   0  0  0  0  0  0  0  0  0  0  0  0
  -27.5793  -16.0665   20.8250 C   0  0  0  0  0  0  0  0  0  0  0  0
  -28.4706  -18.3311   20.0602 C   0  0  0  0  0  0  0  0  0  0  0  0
  -28.8178  -24.5757   19.1064 C   0  0  0  0  0  0  0  0  0  0  0  0
  -23.9709  -29.0598   19.8640 C   0  0  0  0  0  0  0  0  0  0  0  0
  -27.6266  -25.0131   19.7165 C   0  0  0  0  0  0  0  0  0  0  0  0
  -23.4361  -29.3823   21.1194 C   0  0  0  0  0  0  0  0  0  0  0  0
  -26.5018  -13.5275   20.4073 C   0  0  0  0  0  0  0  0  0  0  0  0
  -21.2765  -28.5237   20.4062 C   0  0  0  0  0  0  0  0  0  0  0  0
  -24.6339  -12.1039   20.4896 C   0  0  0  0  0  0  0  0  0  0  0  0
  -21.9305  -11.7313   21.0688 C   0  0  0  0  0  0  0  0  0  0  0  0
  -23.7551  -11.6976   19.4855 C   0  0  0  0  0  0  0  0  0  0  0  0
  -28.1367  -17.3776   21.0406 C   0  0  0  0  0  0  0  0  0  0  0  0
  -28.9582  -19.3995   20.7723 C   0  0  0  0  0  0  0  0  0  0  0  0
  -28.3506  -18.2576   18.6334 C   0  0  0  0  0  0  0  0  0  0  0  0
  -26.5997  -28.1399   21.3961 C   0  0  0  0  0  0  0  0  0  0  0  0
  -26.4905  -31.1548   22.5880 C   0  0  0  0  0  0  0  0  0  0  0  0
  -24.6187  -33.9091   23.3347 C   0  0  0  0  0  0  0  0  0  0  0  0
  -28.0924  -21.2949   26.3856 C   0  0  0  0  0  0  0  0  0  0  0  0
  -30.1725  -24.9306   19.6662 C   0  0  0  0  0  0  0  0  0  0  0  0
  -25.4080  -29.3697   19.5459 C   0  0  0  0  0  0  0  0  0  0  0  0
  -24.2740  -30.0139   22.1999 C   0  0  0  0  0  0  0  0  0  0  0  0
  -30.1422  -26.1136   20.6305 C   0  0  0  0  0  0  0  0  0  0  0  0
  -17.5515  -27.2946   24.0159 C   0  0  0  0  0  0  0  0  0  0  0  0
  -18.1569  -28.6925   23.9447 C   0  0  0  0  0  0  0  0  0  0  0  0
  -31.2012  -20.4632   24.8624 C   0  0  0  0  0  0  0  0  0  0  0  0
  -29.0010  -25.9580   21.6306 C   0  0  0  0  0  0  0  0  0  0  0  0
  -18.5268  -26.2332   23.5135 C   0  0  0  0  0  0  0  0  0  0  0  0
  -30.7984  -19.6641   23.6218 C   0  0  0  0  0  0  0  0  0  0  0  0
  -18.6521  -29.0133   22.5400 C   0  0  0  0  0  0  0  0  0  0  0  0
  -30.2761  -20.1766   26.0431 C   0  0  0  0  0  0  0  0  0  0  0  0
  -28.4369  -19.5610   24.5225 C   0  0  0  0  0  0  0  0  0  0  0  0
  -27.6431  -25.9322   20.9186 C   0  0  1  0  0  0  0  0  0  0  0  0
  -26.2853  -29.4780   20.7892 C   0  0  1  0  0  0  0  0  0  0  0  0
  -19.0287  -26.5440   22.0966 C   0  0  1  0  0  0  0  0  0  0  0  0
  -29.3069  -19.8587   23.2893 C   0  0  2  0  0  0  0  0  0  0  0  0
  -19.6320  -27.9572   22.0261 C   0  0  1  0  0  0  0  0  0  1  0  0
  -24.8017  -36.2029   24.3359 C   0  0  0  0  0  0  0  0  0  0  0  0
  -19.3554  -24.1880   21.2507 C   0  0  0  0  0  0  0  0  0  0  0  0
  -25.1643  -21.6330   27.7613 C   0  0  0  0  0  0  0  0  0  0  0  0
  -26.6350  -29.9237   25.3761 C   0  0  0  0  0  0  0  0  0  0  0  0
  -25.8673  -32.1169   26.3083 C   0  0  0  0  0  0  0  0  0  0  0  0
  -28.0279  -31.9780   25.0694 C   0  0  0  0  0  0  0  0  0  0  0  0
  -23.7314  -35.2019   20.8247 C   0  0  0  0  0  0  0  0  0  0  0  0
  -23.1438  -24.4707   23.6103 C   0  0  0  0  0  0  0  0  0  0  0  0
  -24.4861  -23.8358   23.2483 C   0  0  0  0  0  0  0  0  0  0  0  0
  -24.8045  -22.8743   25.6013 C   0  0  0  0  0  0  0  0  0  0  0  0
  -22.2714  -24.6383   22.3741 C   0  0  0  0  0  0  0  0  0  0  0  0
  -25.8531  -31.8062   23.7915 C   0  0  1  0  0  0  0  0  0  0  0  0
  -24.8414  -35.3844   23.0547 C   0  0  2  0  0  0  0  0  0  0  0  0
  -20.0367  -25.4835   21.6457 C   0  0  2  0  0  0  0  0  0  0  0  0
  -25.8508  -22.3395   26.5943 C   0  0  2  0  0  0  0  0  0  0  0  0
  -25.4253  -23.6607   24.4426 C   0  0  2  0  0  0  0  0  0  0  0  0
  -26.5803  -31.4425   25.1168 C   0  0  0  0  0  0  0  0  0  0  0  0
  -28.3908  -17.8028   22.2810 N   0  0  0  0  0  0  0  0  0  0  0  0
  -28.8897  -19.0351   22.0849 N   0  0  0  0  0  0  0  0  0  0  0  0
  -25.6749  -30.2918   21.8425 N   0  0  0  0  0  0  0  0  0  0  0  0
  -28.8765  -20.3813   25.6621 N   0  0  0  0  0  0  0  0  0  0  0  0
  -29.4347  -20.6057   20.3976 N   0  0  0  0  0  0  0  0  0  0  0  0
  -27.8295  -17.0867   18.0661 N   0  0  0  0  0  0  0  0  0  0  0  0
  -27.2464  -27.2710   20.5381 N   0  0  0  0  0  0  0  0  0  0  0  0
  -25.8100  -33.2364   23.5067 N   0  0  0  0  0  0  0  0  0  0  0  0
  -26.7787  -21.4335   25.9547 N   0  0  0  0  0  0  0  0  0  0  0  0
  -23.7898  -35.9014   22.1340 N   0  3  0  0  0  0  0  0  0  0  0  0
  -20.9607  -25.2155   22.7770 N   0  3  0  0  0  0  0  0  0  0  0  0
  -28.7107  -19.1959   17.8827 O   0  0  0  0  0  0  0  0  0  0  0  0
  -26.2805  -27.9131   22.5573 O   0  0  0  0  0  0  0  0  0  0  0  0
  -27.6666  -31.4082   22.3152 O   0  0  0  0  0  0  0  0  0  0  0  0
  -23.4998  -33.4046   23.3983 O   0  0  0  0  0  0  0  0  0  0  0  0
  -28.5321  -21.9432   27.3413 O   0  0  0  0  0  0  0  0  0  0  0  0
  -25.9763  -12.2885   20.2039 O   0  0  0  0  0  0  0  0  0  0  0  0
  -19.9686  -28.2603   20.6746 O   0  0  0  0  0  0  0  0  0  1  0  0
  -20.6328  -11.5509   21.3473 F   0  0  0  0  0  0  0  0  0  0  0  0
  -24.2037  -11.4836   18.2410 F   0  0  0  0  0  0  0  0  0  0  0  0
  -25.7290  -24.9121   24.8996 F   0  0  0  0  0  0  0  0  0  0  0  0
  1  2  1  0  0  0  0
  1  5  2  0  0  0  0
  2  6  2  0  0  0  0
  3  8  2  0  0  0  0
  3 15  1  0  0  0  0
  4  9  1  0  0  0  0
  4 15  2  0  0  0  0
  5 17  1  0  0  0  0
  6 19  1  0  0  0  0
  7 10  2  0  0  0  0
  7 18  1  0  0  0  0
  8 21  1  0  0  0  0
  9 21  2  0  0  0  0
 10 22  1  0  0  0  0
 11 12  2  0  0  0  0
 11 23  1  0  0  0  0
 12 24  1  0  0  0  0
 13 20  1  0  0  0  0
 13 22  2  0  0  0  0
 14 24  2  0  0  0  0
 14 25  1  0  0  0  0
 15 26  1  0  0  0  0
 16 26  1  0  0  0  0
 16 27  2  0  0  0  0
 16 28  1  0  0  0  0
 17 19  2  0  0  0  0
 17 33  1  0  0  0  0
 18 20  2  0  0  0  0
 18 34  1  0  0  0  0
 19 46  1  0  0  0  0
 20 35  1  0  0  0  0
 21 84  1  0  0  0  0
 22 85  1  0  0  0  0
 23 25  2  0  0  0  0
 23 84  1  0  0  0  0
 24 86  1  0  0  0  0
 25 87  1  0  0  0  0
 26 68  2  0  0  0  0
 27 69  1  0  0  0  0
 27 72  1  0  0  0  0
 28 73  1  0  0  0  0
 28 79  2  0  0  0  0
 29 47  1  0  0  0  0
 29 74  1  0  0  0  0
 29 80  2  0  0  0  0
 30 62  1  0  0  0  0
 30 70  1  0  0  0  0
 30 81  2  0  0  0  0
 31 63  1  0  0  0  0
 31 75  1  0  0  0  0
 31 82  2  0  0  0  0
 32 71  1  0  0  0  0
 32 76  1  0  0  0  0
 32 83  2  0  0  0  0
 33 36  1  0  0  0  0
 34 47  1  0  0  0  0
 35 70  1  0  0  0  0
 36 40  1  0  0  0  0
 37 38  1  0  0  0  0
 37 41  1  0  0  0  0
 38 43  1  0  0  0  0
 39 42  1  0  0  0  0
 39 44  1  0  0  0  0
 40 46  1  0  0  0  0
 41 48  1  0  0  0  0
 42 49  1  0  0  0  0
 43 50  1  0  0  0  0
 44 71  1  0  0  0  0
 45 49  1  0  0  0  0
 45 71  1  0  0  0  0
 46 74  1  0  0  0  0
 47 70  1  0  0  0  0
 48 50  1  0  0  0  0
 48 64  1  0  0  0  0
 49 69  1  0  0  0  0
 50 85  1  0  0  0  0
 51 63  1  0  0  0  0
 52 64  1  0  0  0  0
 53 65  1  0  0  0  0
 54 67  1  0  0  0  0
 55 67  1  0  0  0  0
 56 67  1  0  0  0  0
 57 77  1  0  0  0  0
 58 59  1  0  0  0  0
 58 61  1  0  0  0  0
 59 66  1  0  0  0  0
 60 65  1  0  0  0  0
 60 66  1  0  0  0  0
 61 78  1  0  0  0  0
 62 67  1  0  0  0  0
 62 75  1  0  0  0  0
 63 77  1  0  0  0  0
 64 78  1  0  0  0  0
 65 76  1  0  0  0  0
 66 88  1  0  0  0  0
 68 69  1  0  0  0  0
M  CHG  2  77   1  78   1
M  ISO  4  32 100  50 101  76 100  85 101
M  END
> <Batch ID>
0110

> <Smiles>
CNC(C)C(=O)NC(C(=O)N1Cc2cc([101O:1][101CH:1]3CCCCC3C(C)NCCCC(F)CC(C)[100NH:0][100C:0](=O)N3CCCC(n4nc(-c5ccc(Oc6ccc(F)cc6F)cc5)c(C(N)=O)c4N)C3)ccc2CC1C(=O)NC1CCCc2ccccc21)C(C)(C)C

> <Shape>
0.307

> <Color>
0.080

> <Negative vol penalty>
0.000

$$$$

  -OEChem-04052319583D

 87 95  0     1  0  0  0  0  0999 V2000
  -30.4284  -23.3642   14.3843 C   0  0  0  0  0  0  0  0  0  0  0  0
  -30.3257  -22.9921   15.7209 C   0  0  0  0  0  0  0  0  0  0  0  0
  -28.0047  -14.8925   19.1607 C   0  0  0  0  0  0  0  0  0  0  0  0
  -27.4456  -15.4869   21.4347 C   0  0  0  0  0  0  0  0  0  0  0  0
  -30.2504  -24.6975   14.0174 C   0  0  0  0  0  0  0  0  0  0  0  0
  -30.0460  -23.9534   16.6915 C   0  0  0  0  0  0  0  0  0  0  0  0
  -26.7152  -23.1922   21.7741 C   0  0  0  0  0  0  0  0  0  0  0  0
  -27.2702  -13.7136   19.2883 C   0  0  0  0  0  0  0  0  0  0  0  0
  -26.7110  -14.3080   21.5623 C   0  0  0  0  0  0  0  0  0  0  0  0
  -27.0700  -22.9523   23.1009 C   0  0  0  0  0  0  0  0  0  0  0  0
  -23.6695  -13.1583   20.6415 C   0  0  0  0  0  0  0  0  0  0  0  0
  -22.4115  -13.2417   21.2382 C   0  0  0  0  0  0  0  0  0  0  0  0
  -26.9061  -25.3138   23.5654 C   0  0  0  0  0  0  0  0  0  0  0  0
  -34.2108  -20.7342   27.7543 C   0  0  0  0  0  0  0  0  0  0  0  0
  -32.7314  -19.7165   26.1543 C   0  0  0  0  0  0  0  0  0  0  0  0
  -23.1297  -11.7132   22.9659 C   0  0  0  0  0  0  0  0  0  0  0  0
  -28.0925  -15.7792   20.2340 C   0  0  0  0  0  0  0  0  0  0  0  0
  -28.3817  -18.2480   19.6606 C   0  0  0  0  0  0  0  0  0  0  0  0
  -29.9587  -25.6740   14.9829 C   0  0  0  0  0  0  0  0  0  0  0  0
  -26.4634  -24.4981   21.3297 C   0  0  0  0  0  0  0  0  0  0  0  0
  -29.8652  -25.3012   16.3374 C   0  0  0  0  0  0  0  0  0  0  0  0
  -26.5458  -25.5673   22.2331 C   0  0  0  0  0  0  0  0  0  0  0  0
  -32.9473  -20.2643   27.4140 C   0  0  0  0  0  0  0  0  0  0  0  0
  -26.6234  -13.4213   20.4890 C   0  0  0  0  0  0  0  0  0  0  0  0
  -27.1683  -24.0134   23.9961 C   0  0  0  0  0  0  0  0  0  0  0  0
  -24.6577  -12.3523   21.2069 C   0  0  0  0  0  0  0  0  0  0  0  0
  -22.1416  -12.5192   22.4004 C   0  0  0  0  0  0  0  0  0  0  0  0
  -24.3878  -11.6298   22.3692 C   0  0  0  0  0  0  0  0  0  0  0  0
  -28.8515  -16.9969   20.1030 C   0  0  0  0  0  0  0  0  0  0  0  0
  -35.2169  -20.6343   26.8069 C   0  0  0  0  0  0  0  0  0  0  0  0
  -33.8036  -19.6623   25.2784 C   0  0  0  0  0  0  0  0  0  0  0  0
  -29.4823  -19.0678   19.7178 C   0  0  0  0  0  0  0  0  0  0  0  0
  -27.0680  -18.6347   19.2361 C   0  0  0  0  0  0  0  0  0  0  0  0
  -27.7794  -26.4263   19.1723 C   0  0  0  0  0  0  0  0  0  0  0  0
  -25.2744  -28.3430   19.9294 C   0  0  0  0  0  0  0  0  0  0  0  0
  -22.9003  -29.2425   22.2101 C   0  0  0  0  0  0  0  0  0  0  0  0
  -34.4973  -18.9481   22.9643 C   0  0  0  0  0  0  0  0  0  0  0  0
  -29.8213  -27.1104   14.5441 C   0  0  0  0  0  0  0  0  0  0  0  0
  -26.0558  -24.7372   19.9017 C   0  0  0  0  0  0  0  0  0  0  0  0
  -26.2658  -26.9857   21.8109 C   0  0  0  0  0  0  0  0  0  0  0  0
  -29.1570  -28.0051   15.5874 C   0  0  0  0  0  0  0  0  0  0  0  0
  -34.2600  -18.9493   19.4118 C   0  0  0  0  0  0  0  0  0  0  0  0
  -29.7632  -27.7590   16.9654 C   0  0  0  0  0  0  0  0  0  0  0  0
  -32.8018  -18.5685   19.1457 C   0  0  0  0  0  0  0  0  0  0  0  0
  -34.8300  -18.2035   20.6170 C   0  0  0  0  0  0  0  0  0  0  0  0
  -32.5793  -17.9350   21.5821 C   0  0  0  0  0  0  0  0  0  0  0  0
  -29.5384  -26.3107   17.4164 C   0  0  1  0  0  0  0  0  0  0  0  0
  -26.3233  -26.1648   19.4349 C   0  0  1  0  0  0  0  0  0  0  0  0
  -31.9417  -18.7092   20.4169 C   0  0  2  0  0  0  0  0  0  0  0  0
  -36.5855  -21.1293   27.1372 C   0  0  0  0  0  0  0  0  0  0  0  0
  -21.0204  -30.8677   22.5599 C   0  0  0  0  0  0  0  0  0  0  0  0
  -31.1885  -22.5625   30.7256 C   0  0  0  0  0  0  0  0  0  0  0  0
  -29.4802  -20.7955   30.2394 C   0  0  0  0  0  0  0  0  0  0  0  0
  -30.0975  -24.1335   26.6430 C   0  0  0  0  0  0  0  0  0  0  0  0
  -27.2971  -30.5634   20.4667 C   0  0  0  0  0  0  0  0  0  0  0  0
  -25.5022  -31.8067   21.6916 C   0  0  0  0  0  0  0  0  0  0  0  0
  -25.2326  -31.3016   19.2637 C   0  0  0  0  0  0  0  0  0  0  0  0
  -20.9118  -27.0656   22.4665 C   0  0  0  0  0  0  0  0  0  0  0  0
  -31.8125  -20.3486   28.4095 C   0  0  0  0  0  0  0  0  0  0  0  0
  -30.0474  -21.6218   27.0953 C   0  0  0  0  0  0  0  0  0  0  0  0
  -28.3655  -22.6660   25.5476 C   0  0  0  0  0  0  0  0  0  1  0  0
  -25.0288  -29.4285   20.9494 C   0  0  1  0  0  0  0  0  0  0  0  0
  -21.4077  -29.4812   22.0695 C   0  0  2  0  0  0  0  0  0  0  0  0
  -30.2481  -21.9860   29.6595 C   0  0  0  0  0  0  0  0  0  0  0  0
  -29.2172  -22.8904   26.8082 C   0  0  2  0  0  0  0  0  0  0  0  0
  -30.9947  -21.6672   28.3271 C   0  0  1  0  0  0  0  0  0  0  0  0
  -25.7724  -30.7487   20.6007 C   0  0  0  0  0  0  0  0  0  0  0  0
  -30.1494  -17.0153   20.4178 N   0  0  0  0  0  0  0  0  0  0  0  0
  -35.0452  -20.1086   25.5733 N   0  0  0  0  0  0  0  0  0  0  0  0
  -30.5046  -18.2881   20.1729 N   0  0  0  0  0  0  0  0  0  0  0  0
  -25.8769  -27.1689   20.4028 N   0  0  0  0  0  0  0  0  0  0  0  0
  -33.9652  -18.3857   21.7848 N   0  0  0  0  0  0  0  0  0  0  0  0
  -29.6655  -20.3723   19.4227 N   0  0  0  0  0  0  0  0  0  0  0  0
  -26.0534  -17.6677   19.2386 N   0  0  0  0  0  0  0  0  0  0  0  0
  -33.5733  -19.1028   23.9972 N   0  0  0  0  0  0  0  0  0  0  0  0
  -28.1803  -26.1317   17.8831 N   0  0  0  0  0  0  0  0  0  0  0  0
  -23.5806  -29.5686   21.0559 N   0  0  0  0  0  0  0  0  0  0  0  0
  -20.6453  -28.4733   22.8594 N   0  3  0  0  0  0  0  0  0  0  0  0
  -26.8055  -19.7989   18.8499 O   0  0  0  0  0  0  0  0  0  0  0  0
  -28.4865  -26.8643   20.0722 O   0  0  0  0  0  0  0  0  0  0  0  0
  -24.9372  -28.5273   18.7572 O   0  0  0  0  0  0  0  0  0  0  0  0
  -23.4120  -28.8135   23.2419 O   0  0  0  0  0  0  0  0  0  0  0  0
  -35.6789  -19.2940   23.0426 O   0  0  0  0  0  0  0  0  0  0  0  0
  -25.9063  -12.2712   20.6138 O   0  0  0  0  0  0  0  0  0  0  0  0
  -27.5175  -23.7805   25.3006 O   0  0  0  0  0  0  0  0  0  1  0  0
  -20.9340  -12.6006   22.9742 F   0  0  0  0  0  0  0  0  0  0  0  0
  -25.3334  -10.8547   22.9177 F   0  0  0  0  0  0  0  0  0  0  0  0
  1  2  1  0  0  0  0
  1  5  2  0  0  0  0
  2  6  2  0  0  0  0
  3  8  2  0  0  0  0
  3 17  1  0  0  0  0
  4  9  1  0  0  0  0
  4 17  2  0  0  0  0
  5 19  1  0  0  0  0
  6 21  1  0  0  0  0
  7 10  2  0  0  0  0
  7 20  1  0  0  0  0
  8 24  1  0  0  0  0
  9 24  2  0  0  0  0
 10 25  1  0  0  0  0
 11 12  2  0  0  0  0
 11 26  1  0  0  0  0
 12 27  1  0  0  0  0
 13 22  1  0  0  0  0
 13 25  2  0  0  0  0
 14 23  1  0  0  0  0
 14 30  2  0  0  0  0
 15 23  2  0  0  0  0
 15 31  1  0  0  0  0
 16 27  2  0  0  0  0
 16 28  1  0  0  0  0
 17 29  1  0  0  0  0
 18 29  1  0  0  0  0
 18 32  2  0  0  0  0
 18 33  1  0  0  0  0
 19 21  2  0  0  0  0
 19 38  1  0  0  0  0
 20 22  2  0  0  0  0
 20 39  1  0  0  0  0
 21 47  1  0  0  0  0
 22 40  1  0  0  0  0
 23 59  1  0  0  0  0
 24 84  1  0  0  0  0
 25 85  1  0  0  0  0
 26 28  2  0  0  0  0
 26 84  1  0  0  0  0
 27 86  1  0  0  0  0
 28 87  1  0  0  0  0
 29 68  2  0  0  0  0
 30 50  1  0  0  0  0
 30 69  1  0  0  0  0
 31 69  2  0  0  0  0
 31 75  1  0  0  0  0
 32 70  1  0  0  0  0
 32 73  1  0  0  0  0
 33 74  1  0  0  0  0
 33 79  2  0  0  0  0
 34 48  1  0  0  0  0
 34 76  1  0  0  0  0
 34 80  2  0  0  0  0
 35 62  1  0  0  0  0
 35 71  1  0  0  0  0
 35 81  2  0  0  0  0
 36 63  1  0  0  0  0
 36 77  1  0  0  0  0
 36 82  2  0  0  0  0
 37 72  1  0  0  0  0
 37 75  1  0  0  0  0
 37 83  2  0  0  0  0
 38 41  1  0  0  0  0
 39 48  1  0  0  0  0
 40 71  1  0  0  0  0
 41 43  1  0  0  0  0
 42 44  1  0  0  0  0
 42 45  1  0  0  0  0
 43 47  1  0  0  0  0
 44 49  1  0  0  0  0
 45 72  1  0  0  0  0
 46 49  1  0  0  0  0
 46 72  1  0  0  0  0
 47 76  1  0  0  0  0
 48 71  1  0  0  0  0
 49 70  1  0  0  0  0
 51 63  1  0  0  0  0
 52 64  1  0  0  0  0
 53 64  1  0  0  0  0
 54 65  1  0  0  0  0
 55 67  1  0  0  0  0
 56 67  1  0  0  0  0
 57 67  1  0  0  0  0
 58 78  1  0  0  0  0
 59 66  1  0  0  0  0
 60 65  1  0  0  0  0
 60 66  1  0  0  0  0
 61 65  1  0  0  0  0
 61 85  1  0  0  0  0
 62 67  1  0  0  0  0
 62 77  1  0  0  0  0
 63 78  1  0  0  0  0
 64 66  1  0  0  0  0
 68 70  1  0  0  0  0
M  CHG  1  78   1
M  ISO  4  37 100  61 101  75 100  85 101
M  END
> <Batch ID>
0110

> <Smiles>
CNC(C)C(=O)NC(C(=O)N1Cc2cc([101O:1][101CH2:1]C(C)CC(Cc3cc(C)nc([100NH:0][100C:0](=O)N4CCCC(n5nc(-c6ccc(Oc7ccc(F)cc7F)cc6)c(C(N)=O)c5N)C4)c3)C(C)C)ccc2CC1C(=O)NC1CCCc2ccccc21)C(C)(C)C

> <Shape>
0.201

> <Color>
0.070

> <Negative vol penalty>
0.000

$$$$

  -OEChem-04052319583D

 88 96  0     1  0  0  0  0  0999 V2000
  -27.5741  -39.9315   27.8044 C   0  0  0  0  0  0  0  0  0  0  0  0
  -28.3136  -38.9508   27.1512 C   0  0  0  0  0  0  0  0  0  0  0  0
  -24.5581   -9.8116   21.6415 C   0  0  0  0  0  0  0  0  0  0  0  0
  -24.8007  -11.0233   23.7176 C   0  0  0  0  0  0  0  0  0  0  0  0
  -26.4909  -39.5693   28.6040 C   0  0  0  0  0  0  0  0  0  0  0  0
  -27.9710  -37.6071   27.2981 C   0  0  0  0  0  0  0  0  0  0  0  0
  -28.4265  -33.2073   23.0625 C   0  0  0  0  0  0  0  0  0  0  0  0
  -24.2541   -8.6516   22.3541 C   0  0  0  0  0  0  0  0  0  0  0  0
  -24.4966   -9.8634   24.4301 C   0  0  0  0  0  0  0  0  0  0  0  0
  -29.3874  -32.2240   22.8310 C   0  0  0  0  0  0  0  0  0  0  0  0
  -21.5795   -7.3399   23.9536 C   0  0  0  0  0  0  0  0  0  0  0  0
  -20.5014   -6.5723   23.5130 C   0  0  0  0  0  0  0  0  0  0  0  0
  -28.0566  -30.6399   24.0715 C   0  0  0  0  0  0  0  0  0  0  0  0
  -21.9788   -4.6905   23.1765 C   0  0  0  0  0  0  0  0  0  0  0  0
  -29.3673  -21.4956   19.8311 C   0  0  0  0  0  0  0  0  0  0  0  0
  -24.8315  -10.9974   22.3233 C   0  0  0  0  0  0  0  0  0  0  0  0
  -24.2426  -13.1708   21.1245 C   0  0  0  0  0  0  0  0  0  0  0  0
  -26.1289  -38.2212   28.7531 C   0  0  0  0  0  0  0  0  0  0  0  0
  -27.2767  -32.9167   23.8107 C   0  0  0  0  0  0  0  0  0  0  0  0
  -26.8828  -37.2264   28.1015 C   0  0  0  0  0  0  0  0  0  0  0  0
  -27.0813  -31.6206   24.3089 C   0  0  0  0  0  0  0  0  0  0  0  0
  -27.1549  -21.5138   20.7036 C   0  0  0  0  0  0  0  0  0  0  0  0
  -27.2351  -20.1337   20.8530 C   0  0  0  0  0  0  0  0  0  0  0  0
  -24.2233   -8.6775   23.7483 C   0  0  0  0  0  0  0  0  0  0  0  0
  -29.2039  -30.9409   23.3379 C   0  0  0  0  0  0  0  0  0  0  0  0
  -22.8573   -6.7828   24.0056 C   0  0  0  0  0  0  0  0  0  0  0  0
  -28.2370  -22.2152   20.1836 C   0  0  0  0  0  0  0  0  0  0  0  0
  -20.7010   -5.2476   23.1245 C   0  0  0  0  0  0  0  0  0  0  0  0
  -23.0569   -5.4581   23.6170 C   0  0  0  0  0  0  0  0  0  0  0  0
  -25.1462  -12.1958   21.5878 C   0  0  0  0  0  0  0  0  0  0  0  0
  -28.4102  -19.5073   20.4702 C   0  0  0  0  0  0  0  0  0  0  0  0
  -25.0333  -14.0986   20.4916 C   0  0  0  0  0  0  0  0  0  0  0  0
  -22.8161  -13.2325   21.2547 C   0  0  0  0  0  0  0  0  0  0  0  0
  -26.0500  -33.9813   26.5431 C   0  0  0  0  0  0  0  0  0  0  0  0
  -23.5525  -32.0871   25.7082 C   0  0  0  0  0  0  0  0  0  0  0  0
  -22.4213  -29.3968   23.9392 C   0  0  0  0  0  0  0  0  0  0  0  0
  -29.5920  -17.2895   20.2938 C   0  0  0  0  0  0  0  0  0  0  0  0
  -24.9792  -37.8749   29.6657 C   0  0  0  0  0  0  0  0  0  0  0  0
  -26.2368  -33.9813   24.0289 C   0  0  0  0  0  0  0  0  0  0  0  0
  -25.8546  -31.2520   25.1011 C   0  0  0  0  0  0  0  0  0  0  0  0
  -24.4518  -36.4558   29.4695 C   0  0  0  0  0  0  0  0  0  0  0  0
  -29.9215  -13.9207   19.1894 C   0  0  0  0  0  0  0  0  0  0  0  0
  -25.6066  -35.4612   29.4058 C   0  0  0  0  0  0  0  0  0  0  0  0
  -28.6342  -13.2518   19.6768 C   0  0  0  0  0  0  0  0  0  0  0  0
  -30.4368  -14.9549   20.1887 C   0  0  0  0  0  0  0  0  0  0  0  0
  -28.1673  -15.2990   21.0834 C   0  0  0  0  0  0  0  0  0  0  0  0
  -26.5270  -35.7600   28.2163 C   0  0  1  0  0  0  0  0  0  0  0  0
  -25.3505  -33.7115   25.2409 C   0  0  1  0  0  0  0  0  0  0  0  0
  -27.5746  -14.2959   20.0803 C   0  0  2  0  0  0  0  0  0  0  0  0
  -26.0841  -19.3617   21.4092 C   0  0  0  0  0  0  0  0  0  0  0  0
  -25.2472  -22.9539   19.9035 C   0  0  0  0  0  0  0  0  0  0  0  0
  -26.1669  -23.2591   22.2307 C   0  0  0  0  0  0  0  0  0  0  0  0
  -20.3391  -28.0714   23.4861 C   0  0  0  0  0  0  0  0  0  0  0  0
  -23.7981  -30.7688   28.4490 C   0  0  0  0  0  0  0  0  0  0  0  0
  -22.3851  -28.8875   27.5934 C   0  0  0  0  0  0  0  0  0  0  0  0
  -21.4495  -31.1973   27.7041 C   0  0  0  0  0  0  0  0  0  0  0  0
  -22.5189  -30.0136   21.0463 C   0  0  0  0  0  0  0  0  0  0  0  0
  -29.1807  -25.6743   20.6327 C   0  0  0  0  0  0  0  0  0  0  0  0
  -30.4731  -26.4583   20.7828 C   0  0  0  0  0  0  0  0  0  0  0  0
  -31.3464  -28.6923   21.4794 C   0  0  0  0  0  0  0  0  0  0  0  0
  -29.4432  -24.2639   20.1247 C   0  0  0  0  0  0  0  0  0  0  0  0
  -30.8931  -30.0748   21.9053 C   0  0  0  0  0  0  0  0  0  1  0  0
  -25.9140  -22.2485   21.0978 C   0  0  0  0  0  0  0  0  0  0  0  0
  -23.1794  -30.6437   25.9454 C   0  0  1  0  0  0  0  0  0  0  0  0
  -21.2197  -29.2236   23.0278 C   0  0  2  0  0  0  0  0  0  0  0  0
  -22.7272  -30.3814   27.4097 C   0  0  0  0  0  0  0  0  0  0  0  0
  -29.4823  -20.1550   19.9614 N   0  0  0  0  0  0  0  0  0  0  0  0
  -26.4139  -12.4778   21.2757 N   0  0  0  0  0  0  0  0  0  0  0  0
  -26.3126  -13.6405   20.6094 N   0  0  0  0  0  0  0  0  0  0  0  0
  -24.8696  -32.3293   25.2930 N   0  0  0  0  0  0  0  0  0  0  0  0
  -29.3802  -15.9132   20.5209 N   0  0  0  0  0  0  0  0  0  0  0  0
  -24.7521  -15.2533   19.8513 N   0  0  0  0  0  0  0  0  0  0  0  0
  -22.1619  -12.1964   21.9350 N   0  0  0  0  0  0  0  0  0  0  0  0
  -28.5052  -18.1012   20.6173 N   0  0  0  0  0  0  0  0  0  0  0  0
  -25.9323  -35.2852   26.9853 N   0  0  0  0  0  0  0  0  0  0  0  0
  -22.1747  -30.3114   24.9412 N   0  0  0  0  0  0  0  0  0  0  0  0
  -21.6636  -28.9494   21.6319 N   0  3  0  0  0  0  0  0  0  0  0  0
  -30.1558  -27.8392   21.2370 N   0  3  0  0  0  0  0  0  0  0  0  0
  -22.1399  -14.1700   20.7675 O   0  0  0  0  0  0  0  0  0  0  0  0
  -26.6508  -33.0734   27.1057 O   0  0  0  0  0  0  0  0  0  0  0  0
  -22.7045  -32.9667   25.8780 O   0  0  0  0  0  0  0  0  0  0  0  0
  -23.4722  -28.7796   23.7805 O   0  0  0  0  0  0  0  0  0  0  0  0
  -30.6490  -17.7139   19.8199 O   0  0  0  0  0  0  0  0  0  0  0  0
  -23.9264   -7.5459   24.4440 O   0  0  0  0  0  0  0  0  0  0  0  0
  -30.1406  -29.9795   23.1140 O   0  0  0  0  0  0  0  0  0  1  0  0
  -28.2048  -23.5755   20.0179 O   0  0  0  0  0  0  0  0  0  0  0  0
  -19.6654   -4.5101   22.7029 F   0  0  0  0  0  0  0  0  0  0  0  0
  -24.2819   -4.9171   23.6659 F   0  0  0  0  0  0  0  0  0  0  0  0
  1  2  1  0  0  0  0
  1  5  2  0  0  0  0
  2  6  2  0  0  0  0
  3  8  2  0  0  0  0
  3 16  1  0  0  0  0
  4  9  1  0  0  0  0
  4 16  2  0  0  0  0
  5 18  1  0  0  0  0
  6 20  1  0  0  0  0
  7 10  2  0  0  0  0
  7 19  1  0  0  0  0
  8 24  1  0  0  0  0
  9 24  2  0  0  0  0
 10 25  1  0  0  0  0
 11 12  2  0  0  0  0
 11 26  1  0  0  0  0
 12 28  1  0  0  0  0
 13 21  1  0  0  0  0
 13 25  2  0  0  0  0
 14 28  2  0  0  0  0
 14 29  1  0  0  0  0
 15 27  1  0  0  0  0
 15 67  2  0  0  0  0
 16 30  1  0  0  0  0
 17 30  1  0  0  0  0
 17 32  2  0  0  0  0
 17 33  1  0  0  0  0
 18 20  2  0  0  0  0
 18 38  1  0  0  0  0
 19 21  2  0  0  0  0
 19 39  1  0  0  0  0
 20 47  1  0  0  0  0
 21 40  1  0  0  0  0
 22 23  1  0  0  0  0
 22 27  2  0  0  0  0
 22 63  1  0  0  0  0
 23 31  2  0  0  0  0
 23 50  1  0  0  0  0
 24 84  1  0  0  0  0
 25 85  1  0  0  0  0
 26 29  2  0  0  0  0
 26 84  1  0  0  0  0
 27 86  1  0  0  0  0
 28 87  1  0  0  0  0
 29 88  1  0  0  0  0
 30 68  2  0  0  0  0
 31 67  1  0  0  0  0
 31 74  1  0  0  0  0
 32 69  1  0  0  0  0
 32 72  1  0  0  0  0
 33 73  1  0  0  0  0
 33 79  2  0  0  0  0
 34 48  1  0  0  0  0
 34 75  1  0  0  0  0
 34 80  2  0  0  0  0
 35 64  1  0  0  0  0
 35 70  1  0  0  0  0
 35 81  2  0  0  0  0
 36 65  1  0  0  0  0
 36 76  1  0  0  0  0
 36 82  2  0  0  0  0
 37 71  1  0  0  0  0
 37 74  1  0  0  0  0
 37 83  2  0  0  0  0
 38 41  1  0  0  0  0
 39 48  1  0  0  0  0
 40 70  1  0  0  0  0
 41 43  1  0  0  0  0
 42 44  1  0  0  0  0
 42 45  1  0  0  0  0
 43 47  1  0  0  0  0
 44 49  1  0  0  0  0
 45 71  1  0  0  0  0
 46 49  1  0  0  0  0
 46 71  1  0  0  0  0
 47 75  1  0  0  0  0
 48 70  1  0  0  0  0
 49 69  1  0  0  0  0
 51 63  1  0  0  0  0
 52 63  1  0  0  0  0
 53 65  1  0  0  0  0
 54 66  1  0  0  0  0
 55 66  1  0  0  0  0
 56 66  1  0  0  0  0
 57 77  1  0  0  0  0
 58 59  1  0  0  0  0
 58 61  1  0  0  0  0
 59 78  1  0  0  0  0
 60 62  1  0  0  0  0
 60 78  1  0  0  0  0
 61 86  1  0  0  0  0
 62 85  1  0  0  0  0
 64 66  1  0  0  0  0
 64 76  1  0  0  0  0
 65 77  1  0  0  0  0
 68 69  1  0  0  0  0
M  CHG  2  77   1  78   1
M  ISO  4  37 100  62 101  74 100  85 101
M  END
> <Batch ID>
0110

> <Smiles>
CNC(C)C(=O)NC(C(=O)N1Cc2cc([101O:1][101CH2:1]CNCCCOc3cnc([100NH:0][100C:0](=O)N4CCCC(n5nc(-c6ccc(Oc7ccc(F)cc7F)cc6)c(C(N)=O)c5N)C4)c(C)c3C(C)C)ccc2CC1C(=O)NC1CCCc2ccccc21)C(C)(C)C

> <Shape>
0.284

> <Color>
0.136

> <Negative vol penalty>
0.000

$$$$

  -OEChem-04052319583D

 86 94  0     1  0  0  0  0  0999 V2000
  -29.4688  -31.9539   23.7909 C   0  0  0  0  0  0  0  0  0  0  0  0
  -29.1981  -30.5921   23.8780 C   0  0  0  0  0  0  0  0  0  0  0  0
  -26.2143  -12.0565   21.3890 C   0  0  0  0  0  0  0  0  0  0  0  0
  -25.5756  -13.4778   19.5426 C   0  0  0  0  0  0  0  0  0  0  0  0
  -28.4200  -32.8668   23.6883 C   0  0  0  0  0  0  0  0  0  0  0  0
  -27.8782  -30.1425   23.8636 C   0  0  0  0  0  0  0  0  0  0  0  0
  -27.2204  -26.1463   20.8235 C   0  0  0  0  0  0  0  0  0  0  0  0
  -24.8727  -11.9130   21.7426 C   0  0  0  0  0  0  0  0  0  0  0  0
  -24.2340  -13.3343   19.8963 C   0  0  0  0  0  0  0  0  0  0  0  0
  -27.6306  -24.9044   21.3065 C   0  0  0  0  0  0  0  0  0  0  0  0
  -22.2002  -10.1219   20.7021 C   0  0  0  0  0  0  0  0  0  0  0  0
  -21.7456   -8.8407   21.0139 C   0  0  0  0  0  0  0  0  0  0  0  0
  -25.3465  -24.3789   21.8778 C   0  0  0  0  0  0  0  0  0  0  0  0
  -27.3032  -19.8962   19.5209 C   0  0  0  0  0  0  0  0  0  0  0  0
  -21.1344   -9.5958   23.2260 C   0  0  0  0  0  0  0  0  0  0  0  0
  -29.0103  -20.8557   20.6322 C   0  0  0  0  0  0  0  0  0  0  0  0
  -26.5658  -12.8390   20.2890 C   0  0  0  0  0  0  0  0  0  0  0  0
  -28.6905  -12.1760   19.0425 C   0  0  0  0  0  0  0  0  0  0  0  0
  -27.0870  -32.4275   23.6630 C   0  0  0  0  0  0  0  0  0  0  0  0
  -25.8694  -26.5188   20.8741 C   0  0  0  0  0  0  0  0  0  0  0  0
  -26.8106  -31.0505   23.7619 C   0  0  0  0  0  0  0  0  0  0  0  0
  -24.9214  -25.6250   21.3924 C   0  0  0  0  0  0  0  0  0  0  0  0
  -27.7226  -20.3899   20.7808 C   0  0  0  0  0  0  0  0  0  0  0  0
  -23.8825  -12.5519   20.9963 C   0  0  0  0  0  0  0  0  0  0  0  0
  -26.6940  -24.0217   21.8364 C   0  0  0  0  0  0  0  0  0  0  0  0
  -22.1221  -11.1401   21.6523 C   0  0  0  0  0  0  0  0  0  0  0  0
  -21.2126   -8.5776   22.2758 C   0  0  0  0  0  0  0  0  0  0  0  0
  -21.5892  -10.8771   22.9142 C   0  0  0  0  0  0  0  0  0  0  0  0
  -27.9515  -12.9881   19.9235 C   0  0  0  0  0  0  0  0  0  0  0  0
  -28.3475  -20.0751   18.6407 C   0  0  0  0  0  0  0  0  0  0  0  0
  -29.9464  -12.7319   19.0348 C   0  0  0  0  0  0  0  0  0  0  0  0
  -28.2784  -11.0223   18.2975 C   0  0  0  0  0  0  0  0  0  0  0  0
  -24.2340  -28.8374   22.3070 C   0  0  0  0  0  0  0  0  0  0  0  0
  -21.7656  -27.6289   20.5840 C   0  0  0  0  0  0  0  0  0  0  0  0
  -20.4065  -24.9594   18.9489 C   0  0  0  0  0  0  0  0  0  0  0  0
  -31.9686  -18.2532   20.1646 C   0  0  0  0  0  0  0  0  0  0  0  0
  -25.9850  -33.4552   23.5984 C   0  0  0  0  0  0  0  0  0  0  0  0
  -25.4393  -27.8512   20.3244 C   0  0  0  0  0  0  0  0  0  0  0  0
  -23.4562  -25.9689   21.4509 C   0  0  0  0  0  0  0  0  0  0  0  0
  -24.6287  -32.8705   23.2126 C   0  0  0  0  0  0  0  0  0  0  0  0
  -32.9478  -15.2405   21.7897 C   0  0  0  0  0  0  0  0  0  0  0  0
  -24.3457  -31.6041   24.0144 C   0  0  0  0  0  0  0  0  0  0  0  0
  -31.8450  -14.2483   21.4162 C   0  0  0  0  0  0  0  0  0  0  0  0
  -32.3929  -16.6472   22.0023 C   0  0  0  0  0  0  0  0  0  0  0  0
  -30.4900  -16.1812   20.5071 C   0  0  0  0  0  0  0  0  0  0  0  0
  -25.3930  -30.5221   23.7246 C   0  0  1  0  0  0  0  0  0  0  0  0
  -24.1099  -28.3329   20.8972 C   0  0  1  0  0  0  0  0  0  0  0  0
  -31.0090  -14.7603   20.2279 C   0  0  2  0  0  0  0  0  0  0  0  0
  -28.4458  -19.7385   17.2053 C   0  0  0  0  0  0  0  0  0  0  0  0
  -25.6006  -16.7300   22.3664 C   0  0  0  0  0  0  0  0  0  0  0  0
  -18.3608  -24.2644   17.6724 C   0  0  0  0  0  0  0  0  0  0  0  0
  -20.2106  -27.4099   23.2001 C   0  0  0  0  0  0  0  0  0  0  0  0
  -18.6101  -25.8740   22.0392 C   0  0  0  0  0  0  0  0  0  0  0  0
  -18.8690  -28.2276   21.2544 C   0  0  0  0  0  0  0  0  0  0  0  0
  -30.5878  -22.0398   17.6141 C   0  0  0  0  0  0  0  0  0  0  0  0
  -31.5164  -21.6832   19.8870 C   0  0  0  0  0  0  0  0  0  0  0  0
  -21.9793  -24.4018   16.5047 C   0  0  0  0  0  0  0  0  0  0  0  0
  -26.6053  -17.8579   22.1866 C   0  0  0  0  0  0  0  0  0  0  0  0
  -25.9104  -19.2233   22.1482 C   0  0  0  0  0  0  0  0  0  0  0  0
  -31.4259  -19.7618   18.2702 C   0  0  0  0  0  0  0  0  0  0  0  0
  -26.1530  -21.7381   22.2216 C   0  0  0  0  0  0  0  0  0  1  0  0
  -26.9022  -20.4042   22.0633 C   0  0  2  0  0  0  0  0  0  0  0  0
  -20.7211  -26.5637   20.8149 C   0  0  1  0  0  0  0  0  0  0  0  0
  -19.7664  -24.8374   17.5779 C   0  0  2  0  0  0  0  0  0  0  0  0
  -19.6305  -27.0128   21.8280 C   0  0  0  0  0  0  0  0  0  0  0  0
  -30.6678  -21.0194   18.7760 C   0  0  0  0  0  0  0  0  0  0  0  0
  -28.6776  -13.9840   20.4383 N   0  0  0  0  0  0  0  0  0  0  0  0
  -29.3799  -20.6589   19.3273 N   0  0  0  0  0  0  0  0  0  0  0  0
  -29.8859  -13.8013   19.8791 N   0  0  0  0  0  0  0  0  0  0  0  0
  -23.0862  -27.2859   20.9069 N   0  0  0  0  0  0  0  0  0  0  0  0
  -31.6117  -17.0738   20.8388 N   0  0  0  0  0  0  0  0  0  0  0  0
  -31.0856  -12.4053   18.3884 N   0  0  0  0  0  0  0  0  0  0  0  0
  -26.9523  -10.5858   18.4212 N   0  0  0  0  0  0  0  0  0  0  0  0
  -25.1231  -29.8850   22.4535 N   0  0  0  0  0  0  0  0  0  0  0  0
  -20.2032  -26.2077   19.4982 N   0  0  0  0  0  0  0  0  0  0  0  0
  -31.1799  -18.5818   19.0688 N   0  0  0  0  0  0  0  0  0  0  0  0
  -20.5797  -23.9454   16.7040 N   0  3  0  0  0  0  0  0  0  0  0  0
  -29.0672  -10.3873   17.5572 O   0  0  0  0  0  0  0  0  0  0  0  0
  -23.5711  -28.3158   23.1959 O   0  0  0  0  0  0  0  0  0  0  0  0
  -21.4234  -28.7225   20.1272 O   0  0  0  0  0  0  0  0  0  0  0  0
  -21.0220  -24.0383   19.4811 O   0  0  0  0  0  0  0  0  0  0  0  0
  -32.9228  -18.9582   20.5102 O   0  0  0  0  0  0  0  0  0  0  0  0
  -22.5733  -12.4118   21.3409 O   0  0  0  0  0  0  0  0  0  0  0  0
  -27.0918  -22.8092   22.3092 O   0  0  0  0  0  0  0  0  0  1  0  0
  -20.7746   -7.3476   22.5746 F   0  0  0  0  0  0  0  0  0  0  0  0
  -21.5105  -11.8516   23.8308 F   0  0  0  0  0  0  0  0  0  0  0  0
  1  2  1  0  0  0  0
  1  5  2  0  0  0  0
  2  6  2  0  0  0  0
  3  8  2  0  0  0  0
  3 17  1  0  0  0  0
  4  9  1  0  0  0  0
  4 17  2  0  0  0  0
  5 19  1  0  0  0  0
  6 21  1  0  0  0  0
  7 10  2  0  0  0  0
  7 20  1  0  0  0  0
  8 24  1  0  0  0  0
  9 24  2  0  0  0  0
 10 25  1  0  0  0  0
 11 12  2  0  0  0  0
 11 26  1  0  0  0  0
 12 27  1  0  0  0  0
 13 22  1  0  0  0  0
 13 25  2  0  0  0  0
 14 23  1  0  0  0  0
 14 30  2  0  0  0  0
 15 27  2  0  0  0  0
 15 28  1  0  0  0  0
 16 23  2  0  0  0  0
 16 68  1  0  0  0  0
 17 29  1  0  0  0  0
 18 29  1  0  0  0  0
 18 31  2  0  0  0  0
 18 32  1  0  0  0  0
 19 21  2  0  0  0  0
 19 37  1  0  0  0  0
 20 22  2  0  0  0  0
 20 38  1  0  0  0  0
 21 46  1  0  0  0  0
 22 39  1  0  0  0  0
 23 62  1  0  0  0  0
 24 83  1  0  0  0  0
 25 84  1  0  0  0  0
 26 28  2  0  0  0  0
 26 83  1  0  0  0  0
 27 85  1  0  0  0  0
 28 86  1  0  0  0  0
 29 67  2  0  0  0  0
 30 49  1  0  0  0  0
 30 68  1  0  0  0  0
 31 69  1  0  0  0  0
 31 72  1  0  0  0  0
 32 73  1  0  0  0  0
 32 78  2  0  0  0  0
 33 47  1  0  0  0  0
 33 74  1  0  0  0  0
 33 79  2  0  0  0  0
 34 63  1  0  0  0  0
 34 70  1  0  0  0  0
 34 80  2  0  0  0  0
 35 64  1  0  0  0  0
 35 75  1  0  0  0  0
 35 81  2  0  0  0  0
 36 71  1  0  0  0  0
 36 76  1  0  0  0  0
 36 82  2  0  0  0  0
 37 40  1  0  0  0  0
 38 47  1  0  0  0  0
 39 70  1  0  0  0  0
 40 42  1  0  0  0  0
 41 43  1  0  0  0  0
 41 44  1  0  0  0  0
 42 46  1  0  0  0  0
 43 48  1  0  0  0  0
 44 71  1  0  0  0  0
 45 48  1  0  0  0  0
 45 71  1  0  0  0  0
 46 74  1  0  0  0  0
 47 70  1  0  0  0  0
 48 69  1  0  0  0  0
 50 58  1  0  0  0  0
 51 64  1  0  0  0  0
 52 65  1  0  0  0  0
 53 65  1  0  0  0  0
 54 65  1  0  0  0  0
 55 66  1  0  0  0  0
 56 66  1  0  0  0  0
 57 77  1  0  0  0  0
 58 59  1  0  0  0  0
 59 62  1  0  0  0  0
 60 66  1  0  0  0  0
 60 76  1  0  0  0  0
 61 62  1  0  0  0  0
 61 84  1  0  0  0  0
 63 65  1  0  0  0  0
 63 75  1  0  0  0  0
 64 77  1  0  0  0  0
 66 68  1  0  0  0  0
 67 69  1  0  0  0  0
M  CHG  1  77   1
M  ISO  4  36 100  61 101  76 100  84 101
M  END
> <Batch ID>
0110

> <Smiles>
CCCC(c1cc(C)n(C(C)(C)C[100NH:0][100C:0](=O)N2CCCC(n3nc(-c4ccc(Oc5ccc(F)cc5F)cc4)c(C(N)=O)c3N)C2)c1)[101CH2:1][101O:1]c1ccc2c(c1)CN(C(=O)C(NC(=O)C(C)NC)C(C)(C)C)C(C(=O)NC1CCCc3ccccc31)C2

> <Shape>
0.276

> <Color>
0.050

> <Negative vol penalty>
0.000

$$$$

  -OEChem-04052319583D

 81 89  0     1  0  0  0  0  0999 V2000
  -28.4687  -26.3808   13.3776 C   0  0  0  0  0  0  0  0  0  0  0  0
  -29.2817  -25.6698   14.2546 C   0  0  0  0  0  0  0  0  0  0  0  0
  -23.0746   -9.8648   19.9450 C   0  0  0  0  0  0  0  0  0  0  0  0
  -23.8361   -9.8769   22.2378 C   0  0  0  0  0  0  0  0  0  0  0  0
  -28.1576  -27.7138   13.6427 C   0  0  0  0  0  0  0  0  0  0  0  0
  -29.7849  -26.2919   15.3967 C   0  0  0  0  0  0  0  0  0  0  0  0
  -29.3795  -23.3908   19.5276 C   0  0  0  0  0  0  0  0  0  0  0  0
  -22.3322   -8.7113   20.1976 C   0  0  0  0  0  0  0  0  0  0  0  0
  -23.0937   -8.7234   22.4905 C   0  0  0  0  0  0  0  0  0  0  0  0
  -30.3143  -22.3680   19.6815 C   0  0  0  0  0  0  0  0  0  0  0  0
  -19.8668   -7.9232   23.0968 C   0  0  0  0  0  0  0  0  0  0  0  0
  -19.1107   -7.8846   24.2683 C   0  0  0  0  0  0  0  0  0  0  0  0
  -31.5584  -23.7452   21.2225 C   0  0  0  0  0  0  0  0  0  0  0  0
  -20.3548   -5.9499   25.0075 C   0  0  0  0  0  0  0  0  0  0  0  0
  -23.8266  -10.4476   20.9651 C   0  0  0  0  0  0  0  0  0  0  0  0
  -24.1656  -12.9729   20.8401 C   0  0  0  0  0  0  0  0  0  0  0  0
  -28.6494  -28.3496   14.7935 C   0  0  0  0  0  0  0  0  0  0  0  0
  -29.5332  -24.6047   20.2127 C   0  0  0  0  0  0  0  0  0  0  0  0
  -29.4811  -27.6351   15.6766 C   0  0  0  0  0  0  0  0  0  0  0  0
  -30.6227  -24.7809   21.0775 C   0  0  0  0  0  0  0  0  0  0  0  0
  -22.3417   -8.1406   21.4704 C   0  0  0  0  0  0  0  0  0  0  0  0
  -31.4055  -22.5462   20.5269 C   0  0  0  0  0  0  0  0  0  0  0  0
  -20.8669   -6.9751   22.8805 C   0  0  0  0  0  0  0  0  0  0  0  0
  -19.3547   -6.8980   25.2236 C   0  0  0  0  0  0  0  0  0  0  0  0
  -21.1109   -5.9885   23.8359 C   0  0  0  0  0  0  0  0  0  0  0  0
  -24.5942  -11.6388   20.7046 C   0  0  0  0  0  0  0  0  0  0  0  0
  -25.2567  -13.7229   20.4746 C   0  0  0  0  0  0  0  0  0  0  0  0
  -22.8948  -13.4881   21.2589 C   0  0  0  0  0  0  0  0  0  0  0  0
  -29.9353  -27.6356   19.3436 C   0  0  0  0  0  0  0  0  0  0  0  0
  -29.6391  -28.1807   22.5275 C   0  0  0  0  0  0  0  0  0  0  0  0
  -29.9022  -26.9764   25.7099 C   0  0  0  0  0  0  0  0  0  0  0  0
  -30.7394  -14.7484   20.6572 C   0  0  0  0  0  0  0  0  0  0  0  0
  -28.3244  -29.8060   15.0132 C   0  0  0  0  0  0  0  0  0  0  0  0
  -28.5017  -25.6881   20.0563 C   0  0  0  0  0  0  0  0  0  0  0  0
  -30.8225  -26.0575   21.8514 C   0  0  0  0  0  0  0  0  0  0  0  0
  -28.5919  -30.2814   16.4389 C   0  0  0  0  0  0  0  0  0  0  0  0
  -29.6028  -12.3581   18.2757 C   0  0  0  0  0  0  0  0  0  0  0  0
  -28.8313  -18.6553   23.4787 C   0  0  0  0  0  0  0  0  0  0  0  0
  -29.9587  -29.7995   16.9148 C   0  0  0  0  0  0  0  0  0  0  0  0
  -28.1659  -12.0636   18.7102 C   0  0  0  0  0  0  0  0  0  0  0  0
  -28.6005  -18.1550   22.0642 C   0  0  0  0  0  0  0  0  0  0  0  0
  -30.5205  -12.5822   19.4755 C   0  0  0  0  0  0  0  0  0  0  0  0
  -28.6189  -13.3138   20.8621 C   0  0  0  0  0  0  0  0  0  0  0  0
  -29.9614  -19.6660   23.3674 C   0  0  0  0  0  0  0  0  0  0  0  0
  -30.0260  -28.2677   16.9388 C   0  0  1  0  0  0  0  0  0  0  0  0
  -29.0335  -27.0745   20.4064 C   0  0  1  0  0  0  0  0  0  0  0  0
  -27.6441  -13.1359   19.6855 C   0  0  2  0  0  0  0  0  0  0  0  0
  -30.0010  -18.1300   21.4442 C   0  0  2  0  0  0  0  0  0  0  0  0
  -29.9428  -18.2202   19.9193 C   0  0  0  0  0  0  0  0  0  0  0  0
  -29.6305  -27.6683   28.1067 C   0  0  0  0  0  0  0  0  0  0  0  0
  -33.9337  -21.2782   22.4485 C   0  0  0  0  0  0  0  0  0  0  0  0
  -32.2827  -29.6978   22.3868 C   0  0  0  0  0  0  0  0  0  0  0  0
  -32.4299  -29.5331   24.8806 C   0  0  0  0  0  0  0  0  0  0  0  0
  -30.5394  -30.7707   23.8236 C   0  0  0  0  0  0  0  0  0  0  0  0
  -27.7868  -24.9592   26.1734 C   0  0  0  0  0  0  0  0  0  0  0  0
  -30.8037  -16.9013   21.8900 C   0  0  0  0  0  0  0  0  0  0  0  0
  -32.0900  -19.5607   22.0070 C   0  0  0  0  0  0  0  0  0  0  0  0
  -30.5947  -28.2463   23.6944 C   0  0  1  0  0  0  0  0  0  0  0  0
  -28.9556  -27.0455   26.8945 C   0  0  2  0  0  0  0  0  0  0  0  0
  -32.5012  -21.0294   21.9949 C   0  0  2  0  0  0  0  0  0  1  0  0
  -31.4592  -29.5385   23.6804 C   0  0  0  0  0  0  0  0  0  0  0  0
  -25.8589  -11.5436   20.2856 N   0  0  0  0  0  0  0  0  0  0  0  0
  -26.2343  -12.8274   20.1546 N   0  0  0  0  0  0  0  0  0  0  0  0
  -29.7902  -27.0896   21.6600 N   0  0  0  0  0  0  0  0  0  0  0  0
  -29.9694  -13.6118   20.3600 N   0  0  0  0  0  0  0  0  0  0  0  0
  -25.4655  -15.0545   20.3990 N   0  0  0  0  0  0  0  0  0  0  0  0
  -21.8842  -12.5784   21.5986 N   0  0  0  0  0  0  0  0  0  0  0  0
  -29.3388  -27.7498   18.1024 N   0  0  0  0  0  0  0  0  0  0  0  0
  -29.7835  -28.0830   24.8960 N   0  0  0  0  0  0  0  0  0  0  0  0
  -30.1398  -15.6781   21.4979 N   0  0  0  0  0  0  0  0  0  0  0  0
  -30.5989  -19.4192   22.0100 N   0  3  2  0  0  0  0  0  0  0  0  0
  -28.4900  -25.6794   27.2660 N   0  3  0  0  0  0  0  0  0  0  0  0
  -22.6573  -14.7185   21.3141 O   0  0  0  0  0  0  0  0  0  0  0  0
  -31.0866  -27.9436   19.6289 O   0  0  0  0  0  0  0  0  0  0  0  0
  -28.7853  -29.0611   22.3948 O   0  0  0  0  0  0  0  0  0  0  0  0
  -30.6728  -26.0365   25.5270 O   0  0  0  0  0  0  0  0  0  0  0  0
  -31.8748  -14.9242   20.2025 O   0  0  0  0  0  0  0  0  0  0  0  0
  -21.6172   -7.0152   21.7173 O   0  0  0  0  0  0  0  0  0  0  0  0
  -32.3198  -21.5497   20.6785 O   0  0  0  0  0  0  0  0  0  1  0  0
  -18.6296   -6.8620   26.3493 F   0  0  0  0  0  0  0  0  0  0  0  0
  -22.0711   -5.0756   23.6343 F   0  0  0  0  0  0  0  0  0  0  0  0
  1  2  1  0  0  0  0
  1  5  2  0  0  0  0
  2  6  2  0  0  0  0
  3  8  2  0  0  0  0
  3 15  1  0  0  0  0
  4  9  1  0  0  0  0
  4 15  2  0  0  0  0
  5 17  1  0  0  0  0
  6 19  1  0  0  0  0
  7 10  2  0  0  0  0
  7 18  1  0  0  0  0
  8 21  1  0  0  0  0
  9 21  2  0  0  0  0
 10 22  1  0  0  0  0
 11 12  2  0  0  0  0
 11 23  1  0  0  0  0
 12 24  1  0  0  0  0
 13 20  1  0  0  0  0
 13 22  2  0  0  0  0
 14 24  2  0  0  0  0
 14 25  1  0  0  0  0
 15 26  1  0  0  0  0
 16 26  1  0  0  0  0
 16 27  2  0  0  0  0
 16 28  1  0  0  0  0
 17 19  2  0  0  0  0
 17 33  1  0  0  0  0
 18 20  2  0  0  0  0
 18 34  1  0  0  0  0
 19 45  1  0  0  0  0
 20 35  1  0  0  0  0
 21 78  1  0  0  0  0
 22 79  1  0  0  0  0
 23 25  2  0  0  0  0
 23 78  1  0  0  0  0
 24 80  1  0  0  0  0
 25 81  1  0  0  0  0
 26 62  2  0  0  0  0
 27 63  1  0  0  0  0
 27 66  1  0  0  0  0
 28 67  1  0  0  0  0
 28 73  2  0  0  0  0
 29 46  1  0  0  0  0
 29 68  1  0  0  0  0
 29 74  2  0  0  0  0
 30 58  1  0  0  0  0
 30 64  1  0  0  0  0
 30 75  2  0  0  0  0
 31 59  1  0  0  0  0
 31 69  1  0  0  0  0
 31 76  2  0  0  0  0
 32 65  1  0  0  0  0
 32 70  1  0  0  0  0
 32 77  2  0  0  0  0
 33 36  1  0  0  0  0
 34 46  1  0  0  0  0
 35 64  1  0  0  0  0
 36 39  1  0  0  0  0
 37 40  1  0  0  0  0
 37 42  1  0  0  0  0
 38 41  1  0  0  0  0
 38 44  1  0  0  0  0
 39 45  1  0  0  0  0
 40 47  1  0  0  0  0
 41 48  1  0  0  0  0
 42 65  1  0  0  0  0
 43 47  1  0  0  0  0
 43 65  1  0  0  0  0
 44 71  1  0  0  0  0
 45 68  1  0  0  0  0
 46 64  1  0  0  0  0
 47 63  1  0  0  0  0
 48 49  1  0  0  0  0
 48 56  1  0  0  0  0
 48 71  1  0  0  0  0
 50 59  1  0  0  0  0
 51 60  1  0  0  0  0
 52 61  1  0  0  0  0
 53 61  1  0  0  0  0
 54 61  1  0  0  0  0
 55 72  1  0  0  0  0
 56 70  1  0  0  0  0
 57 60  1  0  0  0  0
 57 71  1  0  0  0  0
 58 61  1  0  0  0  0
 58 69  1  0  0  0  0
 59 72  1  0  0  0  0
 60 79  1  0  0  0  0
 62 63  1  0  0  0  0
M  CHG  2  71   1  72   1
M  ISO  4  32 100  60 101  70 100  79 101
M  END
> <Batch ID>
0110

> <Smiles>
CNC(C)C(=O)NC(C(=O)N1Cc2cc([101O:1][101CH:1](C)CN3CCCC3(C)C[100NH:0][100C:0](=O)N3CCCC(n4nc(-c5ccc(Oc6ccc(F)cc6F)cc5)c(C(N)=O)c4N)C3)ccc2CC1C(=O)NC1CCCc2ccccc21)C(C)(C)C

> <Shape>
0.246

> <Color>
0.191

> <Negative vol penalty>
0.000

$$$$

  -OEChem-04052319583D

 86 94  0     1  0  0  0  0  0999 V2000
  -33.0085  -26.3078   13.0870 C   0  0  0  0  0  0  0  0  0  0  0  0
  -32.1531  -25.3288   13.5822 C   0  0  0  0  0  0  0  0  0  0  0  0
  -23.3220   -9.8622   21.3067 C   0  0  0  0  0  0  0  0  0  0  0  0
  -24.0638  -10.7120   23.4433 C   0  0  0  0  0  0  0  0  0  0  0  0
  -33.6780  -27.1570   13.9671 C   0  0  0  0  0  0  0  0  0  0  0  0
  -31.9677  -25.1976   14.9580 C   0  0  0  0  0  0  0  0  0  0  0  0
  -26.8108  -23.5834   17.8401 C   0  0  0  0  0  0  0  0  0  0  0  0
  -22.6785   -8.8053   21.9505 C   0  0  0  0  0  0  0  0  0  0  0  0
  -23.4202   -9.6551   24.0871 C   0  0  0  0  0  0  0  0  0  0  0  0
  -26.3683  -22.3682   18.3609 C   0  0  0  0  0  0  0  0  0  0  0  0
  -21.1426   -5.6832   23.0073 C   0  0  0  0  0  0  0  0  0  0  0  0
  -21.3003   -4.4042   22.4736 C   0  0  0  0  0  0  0  0  0  0  0  0
  -27.1686  -23.0183   20.5418 C   0  0  0  0  0  0  0  0  0  0  0  0
  -27.7947  -18.9607   22.2264 C   0  0  0  0  0  0  0  0  0  0  0  0
  -23.6887   -4.5613   22.8029 C   0  0  0  0  0  0  0  0  0  0  0  0
  -28.7642  -17.9072   20.4886 C   0  0  0  0  0  0  0  0  0  0  0  0
  -24.0147  -10.8156   22.0531 C   0  0  0  0  0  0  0  0  0  0  0  0
  -24.1388  -13.1684   21.0752 C   0  0  0  0  0  0  0  0  0  0  0  0
  -33.4931  -27.0425   15.3539 C   0  0  0  0  0  0  0  0  0  0  0  0
  -27.4463  -24.5222   18.6654 C   0  0  0  0  0  0  0  0  0  0  0  0
  -32.6363  -26.0452   15.8575 C   0  0  0  0  0  0  0  0  0  0  0  0
  -27.6159  -24.2457   20.0296 C   0  0  0  0  0  0  0  0  0  0  0  0
  -27.5750  -18.4492   20.9236 C   0  0  0  0  0  0  0  0  0  0  0  0
  -22.7276   -8.7017   23.3406 C   0  0  0  0  0  0  0  0  0  0  0  0
  -26.5498  -22.0842   19.7113 C   0  0  0  0  0  0  0  0  0  0  0  0
  -22.2579   -6.4013   23.4388 C   0  0  0  0  0  0  0  0  0  0  0  0
  -22.5733   -3.8432   22.3714 C   0  0  0  0  0  0  0  0  0  0  0  0
  -23.5309   -5.8403   23.3366 C   0  0  0  0  0  0  0  0  0  0  0  0
  -24.6801  -11.9073   21.3887 C   0  0  0  0  0  0  0  0  0  0  0  0
  -29.1116  -18.7158   22.5478 C   0  0  0  0  0  0  0  0  0  0  0  0
  -25.1647  -13.8376   20.4538 C   0  0  0  0  0  0  0  0  0  0  0  0
  -22.8260  -13.6885   21.3236 C   0  0  0  0  0  0  0  0  0  0  0  0
  -30.3310  -25.8553   18.7389 C   0  0  0  0  0  0  0  0  0  0  0  0
  -29.0209  -27.6335   21.1146 C   0  0  0  0  0  0  0  0  0  0  0  0
  -26.6385  -27.9216   23.5411 C   0  0  0  0  0  0  0  0  0  0  0  0
  -30.9220  -14.3983   20.6843 C   0  0  0  0  0  0  0  0  0  0  0  0
  -34.2749  -27.9524   16.2680 C   0  0  0  0  0  0  0  0  0  0  0  0
  -27.8939  -25.8396   18.0938 C   0  0  0  0  0  0  0  0  0  0  0  0
  -28.2740  -25.2285   20.9621 C   0  0  0  0  0  0  0  0  0  0  0  0
  -33.7349  -27.9921   17.6953 C   0  0  0  0  0  0  0  0  0  0  0  0
  -29.3218  -12.4763   18.1501 C   0  0  0  0  0  0  0  0  0  0  0  0
  -33.4562  -26.5799   18.2001 C   0  0  0  0  0  0  0  0  0  0  0  0
  -27.9114  -12.2509   18.6977 C   0  0  0  0  0  0  0  0  0  0  0  0
  -30.3697  -12.4478   19.2606 C   0  0  0  0  0  0  0  0  0  0  0  0
  -28.6962  -13.1410   20.9317 C   0  0  0  0  0  0  0  0  0  0  0  0
  -32.3900  -25.8878   17.3423 C   0  0  1  0  0  0  0  0  0  0  0  0
  -28.9895  -26.5076   18.9189 C   0  0  1  0  0  0  0  0  0  0  0  0
  -27.5988  -13.2168   19.8564 C   0  0  2  0  0  0  0  0  0  0  0  0
  -30.6432  -22.8499   23.3036 C   0  0  0  0  0  0  0  0  0  0  0  0
  -29.2947  -18.2977   25.0136 C   0  0  0  0  0  0  0  0  0  0  0  0
  -25.8428  -29.4726   25.3463 C   0  0  0  0  0  0  0  0  0  0  0  0
  -31.3702  -26.7917   22.8701 C   0  0  0  0  0  0  0  0  0  0  0  0
  -30.0631  -27.5545   24.8645 C   0  0  0  0  0  0  0  0  0  0  0  0
  -30.7065  -29.1922   23.0964 C   0  0  0  0  0  0  0  0  0  0  0  0
  -23.9798  -28.2179   22.2752 C   0  0  0  0  0  0  0  0  0  0  0  0
  -30.6141  -21.3633   22.9824 C   0  0  0  0  0  0  0  0  0  0  0  0
  -29.9478  -20.5622   24.1060 C   0  0  0  0  0  0  0  0  0  0  0  0
  -31.0673  -17.6363   21.4062 C   0  0  0  0  0  0  0  0  0  0  0  0
  -31.3249  -16.3422   22.1736 C   0  0  0  0  0  0  0  0  0  0  0  0
  -26.1112  -19.7764   19.3406 C   0  0  0  0  0  0  0  0  0  1  0  0
  -26.2761  -18.4897   20.1525 C   0  0  2  0  0  0  0  0  0  0  0  0
  -29.8629  -19.0389   23.7783 C   0  0  2  0  0  0  0  0  0  0  0  0
  -28.8986  -27.4923   22.6126 C   0  0  1  0  0  0  0  0  0  0  0  0
  -25.6902  -29.0537   23.8923 C   0  0  2  0  0  0  0  0  0  0  0  0
  -30.2489  -27.7381   23.3432 C   0  0  0  0  0  0  0  0  0  0  0  0
  -25.9512  -11.7803   20.9984 N   0  0  0  0  0  0  0  0  0  0  0  0
  -29.6912  -18.0752   21.4839 N   0  0  0  0  0  0  0  0  0  0  0  0
  -26.2171  -12.9703   20.4333 N   0  0  0  0  0  0  0  0  0  0  0  0
  -28.7001  -26.4999   20.3543 N   0  0  0  0  0  0  0  0  0  0  0  0
  -30.0149  -13.3870   20.3274 N   0  0  0  0  0  0  0  0  0  0  0  0
  -25.2602  -15.0774   19.9284 N   0  0  0  0  0  0  0  0  0  0  0  0
  -21.8939  -12.8676   21.9729 N   0  0  0  0  0  0  0  0  0  0  0  0
  -31.0704  -26.3692   17.6907 N   0  0  0  0  0  0  0  0  0  0  0  0
  -27.8256  -28.3924   23.0212 N   0  0  0  0  0  0  0  0  0  0  0  0
  -30.5048  -15.2494   21.7003 N   0  0  0  0  0  0  0  0  0  0  0  0
  -25.0816  -18.3444   21.0452 N   0  3  0  0  0  0  0  0  0  0  0  0
  -24.2776  -28.6340   23.6699 N   0  3  0  0  0  0  0  0  0  0  0  0
  -22.4843  -14.8411   20.9654 O   0  0  0  0  0  0  0  0  0  0  0  0
  -30.6708  -24.9535   19.4959 O   0  0  0  0  0  0  0  0  0  0  0  0
  -29.3807  -28.7121   20.6362 O   0  0  0  0  0  0  0  0  0  0  0  0
  -26.3561  -26.7380   23.7144 O   0  0  0  0  0  0  0  0  0  0  0  0
  -32.0200  -14.5361   20.1343 O   0  0  0  0  0  0  0  0  0  0  0  0
  -22.0996   -7.6707   23.9692 O   0  0  0  0  0  0  0  0  0  0  0  0
  -26.1194  -20.8986   20.2221 O   0  0  0  0  0  0  0  0  0  1  0  0
  -22.7245   -2.6144   21.8602 F   0  0  0  0  0  0  0  0  0  0  0  0
  -24.6060   -6.5249   23.7505 F   0  0  0  0  0  0  0  0  0  0  0  0
  1  2  1  0  0  0  0
  1  5  2  0  0  0  0
  2  6  2  0  0  0  0
  3  8  2  0  0  0  0
  3 17  1  0  0  0  0
  4  9  1  0  0  0  0
  4 17  2  0  0  0  0
  5 19  1  0  0  0  0
  6 21  1  0  0  0  0
  7 10  2  0  0  0  0
  7 20  1  0  0  0  0
  8 24  1  0  0  0  0
  9 24  2  0  0  0  0
 10 25  1  0  0  0  0
 11 12  2  0  0  0  0
 11 26  1  0  0  0  0
 12 27  1  0  0  0  0
 13 22  1  0  0  0  0
 13 25  2  0  0  0  0
 14 23  1  0  0  0  0
 14 30  2  0  0  0  0
 15 27  2  0  0  0  0
 15 28  1  0  0  0  0
 16 23  2  0  0  0  0
 16 67  1  0  0  0  0
 17 29  1  0  0  0  0
 18 29  1  0  0  0  0
 18 31  2  0  0  0  0
 18 32  1  0  0  0  0
 19 21  2  0  0  0  0
 19 37  1  0  0  0  0
 20 22  2  0  0  0  0
 20 38  1  0  0  0  0
 21 46  1  0  0  0  0
 22 39  1  0  0  0  0
 23 61  1  0  0  0  0
 24 83  1  0  0  0  0
 25 84  1  0  0  0  0
 26 28  2  0  0  0  0
 26 83  1  0  0  0  0
 27 85  1  0  0  0  0
 28 86  1  0  0  0  0
 29 66  2  0  0  0  0
 30 62  1  0  0  0  0
 30 67  1  0  0  0  0
 31 68  1  0  0  0  0
 31 71  1  0  0  0  0
 32 72  1  0  0  0  0
 32 78  2  0  0  0  0
 33 47  1  0  0  0  0
 33 73  1  0  0  0  0
 33 79  2  0  0  0  0
 34 63  1  0  0  0  0
 34 69  1  0  0  0  0
 34 80  2  0  0  0  0
 35 64  1  0  0  0  0
 35 74  1  0  0  0  0
 35 81  2  0  0  0  0
 36 70  1  0  0  0  0
 36 75  1  0  0  0  0
 36 82  2  0  0  0  0
 37 40  1  0  0  0  0
 38 47  1  0  0  0  0
 39 69  1  0  0  0  0
 40 42  1  0  0  0  0
 41 43  1  0  0  0  0
 41 44  1  0  0  0  0
 42 46  1  0  0  0  0
 43 48  1  0  0  0  0
 44 70  1  0  0  0  0
 45 48  1  0  0  0  0
 45 70  1  0  0  0  0
 46 73  1  0  0  0  0
 47 69  1  0  0  0  0
 48 68  1  0  0  0  0
 49 56  1  0  0  0  0
 50 62  1  0  0  0  0
 51 64  1  0  0  0  0
 52 65  1  0  0  0  0
 53 65  1  0  0  0  0
 54 65  1  0  0  0  0
 55 77  1  0  0  0  0
 56 57  1  0  0  0  0
 57 62  1  0  0  0  0
 58 59  1  0  0  0  0
 58 67  1  0  0  0  0
 59 75  1  0  0  0  0
 60 61  1  0  0  0  0
 60 84  1  0  0  0  0
 61 76  1  0  0  0  0
 63 65  1  0  0  0  0
 63 74  1  0  0  0  0
 64 77  1  0  0  0  0
 66 68  1  0  0  0  0
M  CHG  2  76   1  77   1
M  ISO  4  36 100  60 101  75 100  84 101
M  END
> <Batch ID>
0110

> <Smiles>
CCCC(C)c1cc(C(N)[101CH2:1][101O:1]c2ccc3c(c2)CN(C(=O)C(NC(=O)C(C)NC)C(C)(C)C)C(C(=O)NC2CCCc4ccccc42)C3)cn1CC[100NH:0][100C:0](=O)N1CCCC(n2nc(-c3ccc(Oc4ccc(F)cc4F)cc3)c(C(N)=O)c2N)C1

> <Shape>
0.253

> <Color>
0.167

> <Negative vol penalty>
0.000

$$$$

  -OEChem-04052319583D

 84 92  0     1  0  0  0  0  0999 V2000
  -29.8315  -35.7543   20.8565 C   0  0  0  0  0  0  0  0  0  0  0  0
  -30.2207  -34.5190   20.3486 C   0  0  0  0  0  0  0  0  0  0  0  0
  -23.4833   -9.9288   22.2023 C   0  0  0  0  0  0  0  0  0  0  0  0
  -23.3510   -9.9068   19.7900 C   0  0  0  0  0  0  0  0  0  0  0  0
  -28.8427  -35.8234   21.8370 C   0  0  0  0  0  0  0  0  0  0  0  0
  -29.6219  -33.3519   20.8217 C   0  0  0  0  0  0  0  0  0  0  0  0
  -27.6608  -26.8106   18.6580 C   0  0  0  0  0  0  0  0  0  0  0  0
  -22.6739   -8.7941   22.2570 C   0  0  0  0  0  0  0  0  0  0  0  0
  -22.5416   -8.7721   19.8447 C   0  0  0  0  0  0  0  0  0  0  0  0
  -27.8075  -25.4701   19.0119 C   0  0  0  0  0  0  0  0  0  0  0  0
  -19.3832   -8.0676   21.9968 C   0  0  0  0  0  0  0  0  0  0  0  0
  -18.3448   -8.0574   22.9281 C   0  0  0  0  0  0  0  0  0  0  0  0
  -26.0542  -25.7169   20.6502 C   0  0  0  0  0  0  0  0  0  0  0  0
  -19.3058   -6.1053   23.9782 C   0  0  0  0  0  0  0  0  0  0  0  0
  -23.8218  -10.4852   20.9688 C   0  0  0  0  0  0  0  0  0  0  0  0
  -24.3914  -12.9195   21.4761 C   0  0  0  0  0  0  0  0  0  0  0  0
  -28.2247  -34.6573   22.3155 C   0  0  0  0  0  0  0  0  0  0  0  0
  -26.7156  -27.6185   19.3063 C   0  0  0  0  0  0  0  0  0  0  0  0
  -28.6248  -33.4054   21.8105 C   0  0  0  0  0  0  0  0  0  0  0  0
  -25.8957  -27.0667   20.3010 C   0  0  0  0  0  0  0  0  0  0  0  0
  -22.2030   -8.2158   21.0783 C   0  0  0  0  0  0  0  0  0  0  0  0
  -27.0061  -24.9237   20.0101 C   0  0  0  0  0  0  0  0  0  0  0  0
  -20.3828   -7.0965   22.0561 C   0  0  0  0  0  0  0  0  0  0  0  0
  -18.3061   -7.0763   23.9188 C   0  0  0  0  0  0  0  0  0  0  0  0
  -20.3441   -6.1154   23.0468 C   0  0  0  0  0  0  0  0  0  0  0  0
  -24.6574  -11.6576   20.9116 C   0  0  0  0  0  0  0  0  0  0  0  0
  -25.4845  -13.6817   21.1437 C   0  0  0  0  0  0  0  0  0  0  0  0
  -23.2575  -13.3630   22.2332 C   0  0  0  0  0  0  0  0  0  0  0  0
  -26.8576  -30.2394   21.0993 C   0  0  0  0  0  0  0  0  0  0  0  0
  -23.6241  -30.0869   20.8899 C   0  0  0  0  0  0  0  0  0  0  0  0
  -20.8406  -28.1795   20.3791 C   0  0  0  0  0  0  0  0  0  0  0  0
  -31.3440  -15.9912   23.9149 C   0  0  0  0  0  0  0  0  0  0  0  0
  -31.0068  -14.3122   20.6413 C   0  0  0  0  0  0  0  0  0  0  0  0
  -27.1940  -34.7787   23.4099 C   0  0  0  0  0  0  0  0  0  0  0  0
  -26.5513  -29.0558   18.8944 C   0  0  0  0  0  0  0  0  0  0  0  0
  -24.8520  -27.8863   21.0133 C   0  0  0  0  0  0  0  0  0  0  0  0
  -26.3444  -33.5231   23.5884 C   0  0  0  0  0  0  0  0  0  0  0  0
  -29.2865  -12.7629   17.9364 C   0  0  0  0  0  0  0  0  0  0  0  0
  -27.2273  -32.2792   23.6061 C   0  0  0  0  0  0  0  0  0  0  0  0
  -27.9099  -12.4359   18.5177 C   0  0  0  0  0  0  0  0  0  0  0  0
  -29.1930  -20.5826   19.4699 C   0  0  0  0  0  0  0  0  0  0  0  0
  -28.4133  -21.4285   21.7119 C   0  0  0  0  0  0  0  0  0  0  0  0
  -30.3935  -12.5864   18.9734 C   0  0  0  0  0  0  0  0  0  0  0  0
  -28.8079  -12.9965   20.8151 C   0  0  0  0  0  0  0  0  0  0  0  0
  -29.2710  -19.1717   20.0364 C   0  0  0  0  0  0  0  0  0  0  0  0
  -28.4948  -20.0132   22.2671 C   0  0  0  0  0  0  0  0  0  0  0  0
  -27.9813  -32.1189   22.2805 C   0  0  1  0  0  0  0  0  0  0  0  0
  -25.9108  -29.9183   19.9776 C   0  0  1  0  0  0  0  0  0  0  0  0
  -28.1496  -21.4339   20.2020 C   0  0  0  0  0  0  0  0  0  0  0  0
  -27.6530  -13.2137   19.8224 C   0  0  2  0  0  0  0  0  0  0  0  0
  -18.3367  -28.3284   20.3067 C   0  0  0  0  0  0  0  0  0  0  0  0
  -23.5459  -30.2130   23.9375 C   0  0  0  0  0  0  0  0  0  0  0  0
  -21.1754  -29.4132   23.8403 C   0  0  0  0  0  0  0  0  0  0  0  0
  -21.7999  -31.5886   22.7913 C   0  0  0  0  0  0  0  0  0  0  0  0
  -20.7547  -27.3069   17.5525 C   0  0  0  0  0  0  0  0  0  0  0  0
  -28.1369  -22.8612   19.6589 C   0  0  0  0  0  0  0  0  0  1  0  0
  -31.1673  -17.3928   21.7730 C   0  0  0  0  0  0  0  0  0  0  0  0
  -29.7576  -17.8702   22.1056 C   0  0  0  0  0  0  0  0  0  0  0  0
  -22.5303  -29.4298   21.6967 C   0  0  1  0  0  0  0  0  0  0  0  0
  -19.6229  -28.3904   19.4976 C   0  0  2  0  0  0  0  0  0  0  0  0
  -31.4746  -16.0193   22.3809 C   0  0  2  0  0  0  0  0  0  0  0  0
  -22.2838  -30.1459   23.0546 C   0  0  0  0  0  0  0  0  0  0  0  0
  -25.8278  -11.6165   20.2693 N   0  0  0  0  0  0  0  0  0  0  0  0
  -26.3068  -12.8621   20.4280 N   0  0  0  0  0  0  0  0  0  0  0  0
  -24.7339  -29.2882   20.5794 N   0  0  0  0  0  0  0  0  0  0  0  0
  -30.0898  -13.3507   20.1857 N   0  0  0  0  0  0  0  0  0  0  0  0
  -25.8130  -14.9664   21.3968 N   0  0  0  0  0  0  0  0  0  0  0  0
  -22.2233  -12.4509   22.4840 N   0  0  0  0  0  0  0  0  0  0  0  0
  -27.1022  -31.5898   21.2598 N   0  0  0  0  0  0  0  0  0  0  0  0
  -21.3592  -29.3755   20.8285 N   0  0  0  0  0  0  0  0  0  0  0  0
  -30.6387  -14.9961   21.7935 N   0  0  0  0  0  0  0  0  0  0  0  0
  -29.5515  -19.2391   21.5177 N   0  3  0  0  0  0  0  0  0  0  0  0
  -19.5627  -27.3439   18.4384 N   0  3  0  0  0  0  0  0  0  0  0  0
  -30.9901  -14.8718   24.3876 O   0  5  0  0  0  0  0  0  0  0  0  0
  -23.1566  -14.5381   22.6604 O   0  0  0  0  0  0  0  0  0  0  0  0
  -27.3300  -29.3293   21.7704 O   0  0  0  0  0  0  0  0  0  0  0  0
  -23.4953  -31.2633   20.5417 O   0  0  0  0  0  0  0  0  0  0  0  0
  -21.2851  -27.0651   20.6456 O   0  0  0  0  0  0  0  0  0  0  0  0
  -31.5920  -17.0702   24.5210 O   0  0  0  0  0  0  0  0  0  0  0  0
  -32.0721  -14.5478   20.0611 O   0  0  0  0  0  0  0  0  0  0  0  0
  -21.4134   -7.1084   21.1313 O   0  0  0  0  0  0  0  0  0  0  0  0
  -27.1477  -23.6157   20.3579 O   0  0  0  0  0  0  0  0  0  1  0  0
  -17.3098   -7.0676   24.8141 F   0  0  0  0  0  0  0  0  0  0  0  0
  -21.3023   -5.1806   23.1096 F   0  0  0  0  0  0  0  0  0  0  0  0
  1  2  1  0  0  0  0
  1  5  2  0  0  0  0
  2  6  2  0  0  0  0
  3  8  2  0  0  0  0
  3 15  1  0  0  0  0
  4  9  1  0  0  0  0
  4 15  2  0  0  0  0
  5 17  1  0  0  0  0
  6 19  1  0  0  0  0
  7 10  2  0  0  0  0
  7 18  1  0  0  0  0
  8 21  1  0  0  0  0
  9 21  2  0  0  0  0
 10 22  1  0  0  0  0
 11 12  2  0  0  0  0
 11 23  1  0  0  0  0
 12 24  1  0  0  0  0
 13 20  1  0  0  0  0
 13 22  2  0  0  0  0
 14 24  2  0  0  0  0
 14 25  1  0  0  0  0
 15 26  1  0  0  0  0
 16 26  1  0  0  0  0
 16 27  2  0  0  0  0
 16 28  1  0  0  0  0
 17 19  2  0  0  0  0
 17 34  1  0  0  0  0
 18 20  2  0  0  0  0
 18 35  1  0  0  0  0
 19 47  1  0  0  0  0
 20 36  1  0  0  0  0
 21 81  1  0  0  0  0
 22 82  1  0  0  0  0
 23 25  2  0  0  0  0
 23 81  1  0  0  0  0
 24 83  1  0  0  0  0
 25 84  1  0  0  0  0
 26 63  2  0  0  0  0
 27 64  1  0  0  0  0
 27 67  1  0  0  0  0
 28 68  1  0  0  0  0
 28 75  2  0  0  0  0
 29 48  1  0  0  0  0
 29 69  1  0  0  0  0
 29 76  2  0  0  0  0
 30 59  1  0  0  0  0
 30 65  1  0  0  0  0
 30 77  2  0  0  0  0
 31 60  1  0  0  0  0
 31 70  1  0  0  0  0
 31 78  2  0  0  0  0
 32 61  1  0  0  0  0
 32 74  1  0  0  0  0
 32 79  2  0  0  0  0
 33 66  1  0  0  0  0
 33 71  1  0  0  0  0
 33 80  2  0  0  0  0
 34 37  1  0  0  0  0
 35 48  1  0  0  0  0
 36 65  1  0  0  0  0
 37 39  1  0  0  0  0
 38 40  1  0  0  0  0
 38 43  1  0  0  0  0
 39 47  1  0  0  0  0
 40 50  1  0  0  0  0
 41 45  1  0  0  0  0
 41 49  1  0  0  0  0
 42 46  1  0  0  0  0
 42 49  1  0  0  0  0
 43 66  1  0  0  0  0
 44 50  1  0  0  0  0
 44 66  1  0  0  0  0
 45 72  1  0  0  0  0
 46 72  1  0  0  0  0
 47 69  1  0  0  0  0
 48 65  1  0  0  0  0
 49 56  1  0  0  0  0
 50 64  1  0  0  0  0
 51 60  1  0  0  0  0
 52 62  1  0  0  0  0
 53 62  1  0  0  0  0
 54 62  1  0  0  0  0
 55 73  1  0  0  0  0
 56 82  1  0  0  0  0
 57 58  1  0  0  0  0
 57 61  1  0  0  0  0
 58 72  1  0  0  0  0
 59 62  1  0  0  0  0
 59 70  1  0  0  0  0
 60 73  1  0  0  0  0
 61 71  1  0  0  0  0
 63 64  1  0  0  0  0
M  CHG  3  72   1  73   1  74  -1
M  ISO  4  33 100  56 101  71 100  82 101
M  END
> <Batch ID>
0110

> <Smiles>
CNC(C)C(=O)NC(C(=O)N1Cc2cc([101O:1][101CH2:1]C3CCN(CCC([100NH:0][100C:0](=O)N4CCCC(n5nc(-c6ccc(Oc7ccc(F)cc7F)cc6)c(C(N)=O)c5N)C4)C(=O)O)CC3)ccc2CC1C(=O)NC1CCCc2ccccc21)C(C)(C)C

> <Shape>
0.329

> <Color>
0.151

> <Negative vol penalty>
0.000

$$$$

  -OEChem-04052319583D

 86 94  0     1  0  0  0  0  0999 V2000
  -19.0902  -24.2935   23.6008 C   0  0  0  0  0  0  0  0  0  0  0  0
  -20.4390  -24.1634   23.2854 C   0  0  0  0  0  0  0  0  0  0  0  0
  -25.4941   -9.3207   21.5697 C   0  0  0  0  0  0  0  0  0  0  0  0
  -25.2401  -10.6767   23.5531 C   0  0  0  0  0  0  0  0  0  0  0  0
  -18.4328  -25.4996   23.3617 C   0  0  0  0  0  0  0  0  0  0  0  0
  -21.1308  -25.2391   22.7298 C   0  0  0  0  0  0  0  0  0  0  0  0
  -26.9957  -26.7276   23.6747 C   0  0  0  0  0  0  0  0  0  0  0  0
  -25.6503   -8.1859   22.3655 C   0  0  0  0  0  0  0  0  0  0  0  0
  -25.3963   -9.5418   24.3490 C   0  0  0  0  0  0  0  0  0  0  0  0
  -28.1542  -26.4914   22.9358 C   0  0  0  0  0  0  0  0  0  0  0  0
  -23.6665   -6.0701   24.1038 C   0  0  0  0  0  0  0  0  0  0  0  0
  -22.9662   -4.9206   23.7381 C   0  0  0  0  0  0  0  0  0  0  0  0
  -27.9510  -28.6750   21.9308 C   0  0  0  0  0  0  0  0  0  0  0  0
  -25.0524   -3.7252   23.5011 C   0  0  0  0  0  0  0  0  0  0  0  0
  -25.2891  -10.5661   22.1635 C   0  0  0  0  0  0  0  0  0  0  0  0
  -23.9245  -12.2606   20.8314 C   0  0  0  0  0  0  0  0  0  0  0  0
  -19.1193  -26.5936   22.8118 C   0  0  0  0  0  0  0  0  0  0  0  0
  -26.2990  -27.9370   23.5388 C   0  0  0  0  0  0  0  0  0  0  0  0
  -20.4816  -26.4605   22.4819 C   0  0  0  0  0  0  0  0  0  0  0  0
  -26.7854  -28.9251   22.6710 C   0  0  0  0  0  0  0  0  0  0  0  0
  -25.6013   -8.2964   23.7551 C   0  0  0  0  0  0  0  0  0  0  0  0
  -28.6304  -27.4640   22.0615 C   0  0  0  0  0  0  0  0  0  0  0  0
  -25.0597   -6.0473   24.1680 C   0  0  0  0  0  0  0  0  0  0  0  0
  -23.6592   -3.7481   23.4368 C   0  0  0  0  0  0  0  0  0  0  0  0
  -25.7527   -4.8748   23.8668 C   0  0  0  0  0  0  0  0  0  0  0  0
  -25.1282  -11.7389   21.3420 C   0  0  0  0  0  0  0  0  0  0  0  0
  -24.3062  -13.3725   20.1211 C   0  0  0  0  0  0  0  0  0  0  0  0
  -22.5815  -11.7829   20.9855 C   0  0  0  0  0  0  0  0  0  0  0  0
  -23.3814  -28.7486   22.5732 C   0  0  0  0  0  0  0  0  0  0  0  0
  -29.9506  -22.8483   19.2896 C   0  0  0  0  0  0  0  0  0  0  0  0
  -24.3053  -31.7030   23.5430 C   0  0  0  0  0  0  0  0  0  0  0  0
  -26.8583  -33.8738   24.1885 C   0  0  0  0  0  0  0  0  0  0  0  0
  -27.1047  -17.9346   19.5440 C   0  0  0  0  0  0  0  0  0  0  0  0
  -18.3545  -27.8621   22.5276 C   0  0  0  0  0  0  0  0  0  0  0  0
  -25.0658  -28.1869   24.3629 C   0  0  0  0  0  0  0  0  0  0  0  0
  -26.0856  -30.2482   22.5039 C   0  0  0  0  0  0  0  0  0  0  0  0
  -19.2519  -29.0726   22.2836 C   0  0  0  0  0  0  0  0  0  0  0  0
  -28.8760  -14.9860   18.7123 C   0  0  0  0  0  0  0  0  0  0  0  0
  -20.3795  -28.7157   21.3203 C   0  0  0  0  0  0  0  0  0  0  0  0
  -27.9626  -13.9106   19.2973 C   0  0  0  0  0  0  0  0  0  0  0  0
  -28.9692  -16.2181   19.6146 C   0  0  0  0  0  0  0  0  0  0  0  0
  -28.7630  -20.9971   18.0475 C   0  0  0  0  0  0  0  0  0  0  0  0
  -27.6527  -19.9944   18.3250 C   0  0  0  0  0  0  0  0  0  0  0  0
  -26.7414  -15.7123   20.5682 C   0  0  0  0  0  0  0  0  0  0  0  0
  -29.1390  -19.3092   20.2044 C   0  0  0  0  0  0  0  0  0  0  0  0
  -21.2724  -27.6124   21.9008 C   0  0  1  0  0  0  0  0  0  0  0  0
  -24.1511  -29.2499   23.7623 C   0  0  1  0  0  0  0  0  0  0  0  0
  -26.5829  -14.4939   19.6467 C   0  0  2  0  0  0  0  0  0  0  0  0
  -29.2497  -20.8100   20.5051 C   0  0  2  0  0  0  0  0  0  0  0  0
  -27.3006  -36.2297   24.9309 C   0  0  0  0  0  0  0  0  0  0  0  0
  -23.5220  -32.7198   20.7748 C   0  0  0  0  0  0  0  0  0  0  0  0
  -24.8390  -34.7972   21.2417 C   0  0  0  0  0  0  0  0  0  0  0  0
  -22.8699  -34.2253   22.6623 C   0  0  0  0  0  0  0  0  0  0  0  0
  -28.3371  -32.9640   26.5852 C   0  0  0  0  0  0  0  0  0  0  0  0
  -30.0722  -23.5658   17.9678 C   0  0  0  0  0  0  0  0  0  0  0  0
  -28.1176  -21.2905   21.4192 C   0  0  0  0  0  0  0  0  0  0  0  0
  -28.4315  -20.9846   22.8705 C   0  0  0  0  0  0  0  0  0  0  0  0
  -30.7870  -24.8960   18.1121 C   0  0  0  0  0  0  0  0  0  0  0  0
  -29.8569  -27.8721   20.0653 C   0  0  0  0  0  0  0  0  0  1  0  0
  -30.6870  -27.0097   19.1342 C   0  0  0  0  0  0  0  0  0  0  0  0
  -24.9956  -32.8756   22.8891 C   0  0  1  0  0  0  0  0  0  0  0  0
  -27.1314  -34.7842   25.3721 C   0  0  2  0  0  0  0  0  0  0  0  0
  -24.0690  -33.6289   21.8935 C   0  0  0  0  0  0  0  0  0  0  0  0
  -26.1947  -12.4600   20.9861 N   0  0  0  0  0  0  0  0  0  0  0  0
  -25.6625  -13.4461   20.2443 N   0  0  0  0  0  0  0  0  0  0  0  0
  -24.8804  -30.4427   23.3269 N   0  0  0  0  0  0  0  0  0  0  0  0
  -29.3050  -21.6073   19.2675 N   0  0  0  0  0  0  0  0  0  0  0  0
  -27.6336  -16.7107   19.9743 N   0  0  0  0  0  0  0  0  0  0  0  0
  -28.0065  -18.9901   19.3257 N   0  0  0  0  0  0  0  0  0  0  0  0
  -23.6105  -14.2846   19.4093 N   0  0  0  0  0  0  0  0  0  0  0  0
  -22.3670  -10.6265   21.7477 N   0  0  0  0  0  0  0  0  0  0  0  0
  -22.1726  -28.1604   22.8927 N   0  0  0  0  0  0  0  0  0  0  0  0
  -25.5066  -33.7056   23.9747 N   0  0  0  0  0  0  0  0  0  0  0  0
  -27.2881  -21.4228   23.7064 N   0  3  0  0  0  0  0  0  0  0  0  0
  -28.3740  -34.3593   26.0766 N   0  3  0  0  0  0  0  0  0  0  0  0
  -21.6024  -12.3550   20.4491 O   0  0  0  0  0  0  0  0  0  0  0  0
  -23.8489  -28.8868   21.4489 O   0  0  0  0  0  0  0  0  0  0  0  0
  -30.4098  -23.3706   20.3084 O   0  0  0  0  0  0  0  0  0  0  0  0
  -23.2972  -31.8989   24.2263 O   0  0  0  0  0  0  0  0  0  0  0  0
  -27.7545  -33.3657   23.5182 O   0  0  0  0  0  0  0  0  0  0  0  0
  -25.8868  -18.0879   19.3814 O   0  0  0  0  0  0  0  0  0  0  0  0
  -25.7534   -7.1892   24.5320 O   0  0  0  0  0  0  0  0  0  0  0  0
  -29.7682  -27.2342   21.3337 O   0  0  0  0  0  0  0  0  0  1  0  0
  -30.0474  -25.7509   18.9740 O   0  0  0  0  0  0  0  0  0  0  0  0
  -22.9865   -2.6438   23.0871 F   0  0  0  0  0  0  0  0  0  0  0  0
  -27.0910   -4.8464   23.9279 F   0  0  0  0  0  0  0  0  0  0  0  0
  1  2  1  0  0  0  0
  1  5  2  0  0  0  0
  2  6  2  0  0  0  0
  3  8  2  0  0  0  0
  3 15  1  0  0  0  0
  4  9  1  0  0  0  0
  4 15  2  0  0  0  0
  5 17  1  0  0  0  0
  6 19  1  0  0  0  0
  7 10  2  0  0  0  0
  7 18  1  0  0  0  0
  8 21  1  0  0  0  0
  9 21  2  0  0  0  0
 10 22  1  0  0  0  0
 11 12  2  0  0  0  0
 11 23  1  0  0  0  0
 12 24  1  0  0  0  0
 13 20  1  0  0  0  0
 13 22  2  0  0  0  0
 14 24  2  0  0  0  0
 14 25  1  0  0  0  0
 15 26  1  0  0  0  0
 16 26  1  0  0  0  0
 16 27  2  0  0  0  0
 16 28  1  0  0  0  0
 17 19  2  0  0  0  0
 17 34  1  0  0  0  0
 18 20  2  0  0  0  0
 18 35  1  0  0  0  0
 19 46  1  0  0  0  0
 20 36  1  0  0  0  0
 21 82  1  0  0  0  0
 22 83  1  0  0  0  0
 23 25  2  0  0  0  0
 23 82  1  0  0  0  0
 24 85  1  0  0  0  0
 25 86  1  0  0  0  0
 26 64  2  0  0  0  0
 27 65  1  0  0  0  0
 27 70  1  0  0  0  0
 28 71  1  0  0  0  0
 28 76  2  0  0  0  0
 29 47  1  0  0  0  0
 29 72  1  0  0  0  0
 29 77  2  0  0  0  0
 30 55  1  0  0  0  0
 30 67  1  0  0  0  0
 30 78  2  0  0  0  0
 31 61  1  0  0  0  0
 31 66  1  0  0  0  0
 31 79  2  0  0  0  0
 32 62  1  0  0  0  0
 32 73  1  0  0  0  0
 32 80  2  0  0  0  0
 33 68  1  0  0  0  0
 33 69  1  0  0  0  0
 33 81  2  0  0  0  0
 34 37  1  0  0  0  0
 35 47  1  0  0  0  0
 36 66  1  0  0  0  0
 37 39  1  0  0  0  0
 38 40  1  0  0  0  0
 38 41  1  0  0  0  0
 39 46  1  0  0  0  0
 40 48  1  0  0  0  0
 41 68  1  0  0  0  0
 42 43  1  0  0  0  0
 42 67  1  0  0  0  0
 43 69  1  0  0  0  0
 44 48  1  0  0  0  0
 44 68  1  0  0  0  0
 45 49  1  0  0  0  0
 45 69  1  0  0  0  0
 46 72  1  0  0  0  0
 47 66  1  0  0  0  0
 48 65  1  0  0  0  0
 49 56  1  0  0  0  0
 49 67  1  0  0  0  0
 50 62  1  0  0  0  0
 51 63  1  0  0  0  0
 52 63  1  0  0  0  0
 53 63  1  0  0  0  0
 54 75  1  0  0  0  0
 55 58  1  0  0  0  0
 56 57  1  0  0  0  0
 57 74  1  0  0  0  0
 58 84  1  0  0  0  0
 59 60  1  0  0  0  0
 59 83  1  0  0  0  0
 60 84  1  0  0  0  0
 61 63  1  0  0  0  0
 61 73  1  0  0  0  0
 62 75  1  0  0  0  0
 64 65  1  0  0  0  0
M  CHG  2  74   1  75   1
M  ISO  4  33 100  59 101  69 100  83 101
M  END
> <Batch ID>
0110

> <Smiles>
CNC(C)C(=O)NC(C(=O)N1Cc2cc([101O:1][101CH2:1]COCCC(=O)N3CC[100N:0]([100C:0](=O)N4CCCC(n5nc(-c6ccc(Oc7ccc(F)cc7F)cc6)c(C(N)=O)c5N)C4)CC3CCN)ccc2CC1C(=O)NC1CCCc2ccccc21)C(C)(C)C

> <Shape>
0.304

> <Color>
0.083

> <Negative vol penalty>
0.000

$$$$

  -OEChem-04052319583D

 84 93  0     1  0  0  0  0  0999 V2000
  -32.1326  -31.8455   19.8398 C   0  0  0  0  0  0  0  0  0  0  0  0
  -31.3454  -30.7057   19.7114 C   0  0  0  0  0  0  0  0  0  0  0  0
  -23.2342   -9.8717   19.8652 C   0  0  0  0  0  0  0  0  0  0  0  0
  -24.5687   -9.2808   21.7906 C   0  0  0  0  0  0  0  0  0  0  0  0
  -31.9239  -32.7190   20.9063 C   0  0  0  0  0  0  0  0  0  0  0  0
  -30.3496  -30.4381   20.6501 C   0  0  0  0  0  0  0  0  0  0  0  0
  -25.9976  -28.9868   18.5057 C   0  0  0  0  0  0  0  0  0  0  0  0
  -22.1146   -9.2943   20.4640 C   0  0  0  0  0  0  0  0  0  0  0  0
  -23.4489   -8.7035   22.3894 C   0  0  0  0  0  0  0  0  0  0  0  0
  -25.9175  -27.6696   18.0559 C   0  0  0  0  0  0  0  0  0  0  0  0
  -21.7062   -5.8162   22.1501 C   0  0  0  0  0  0  0  0  0  0  0  0
  -21.8644   -4.5677   22.7518 C   0  0  0  0  0  0  0  0  0  0  0  0
  -24.7055  -27.0678   20.0529 C   0  0  0  0  0  0  0  0  0  0  0  0
  -21.1835   -5.5035   24.8726 C   0  0  0  0  0  0  0  0  0  0  0  0
  -26.0224  -22.6266   17.6409 C   0  0  0  0  0  0  0  0  0  0  0  0
  -24.9105  -23.1470   15.7681 C   0  0  0  0  0  0  0  0  0  0  0  0
  -24.4613   -9.8649   20.5285 C   0  0  0  0  0  0  0  0  0  0  0  0
  -26.2098  -10.0970   18.6855 C   0  0  0  0  0  0  0  0  0  0  0  0
  -30.9186  -32.4669   21.8532 C   0  0  0  0  0  0  0  0  0  0  0  0
  -25.4407  -29.3527   19.7396 C   0  0  0  0  0  0  0  0  0  0  0  0
  -30.1281  -31.3082   21.7311 C   0  0  0  0  0  0  0  0  0  0  0  0
  -24.7776  -28.3908   20.5149 C   0  0  0  0  0  0  0  0  0  0  0  0
  -25.6328  -21.4440   17.0518 C   0  0  0  0  0  0  0  0  0  0  0  0
  -24.9292  -21.7732   15.8671 C   0  0  0  0  0  0  0  0  0  0  0  0
  -22.2219   -8.7102   21.7261 C   0  0  0  0  0  0  0  0  0  0  0  0
  -25.2740  -26.7092   18.8309 C   0  0  0  0  0  0  0  0  0  0  0  0
  -21.2868   -6.9084   22.9097 C   0  0  0  0  0  0  0  0  0  0  0  0
  -21.6030   -4.4114   24.1130 C   0  0  0  0  0  0  0  0  0  0  0  0
  -21.0254   -6.7520   24.2709 C   0  0  0  0  0  0  0  0  0  0  0  0
  -25.6185  -10.4606   19.9102 C   0  0  0  0  0  0  0  0  0  0  0  0
  -27.2706  -10.9585   18.5473 C   0  0  0  0  0  0  0  0  0  0  0  0
  -25.8338   -9.0723   17.7559 C   0  0  0  0  0  0  0  0  0  0  0  0
  -26.5921  -30.5232   22.4614 C   0  0  0  0  0  0  0  0  0  0  0  0
  -23.4530  -30.7029   23.2586 C   0  0  0  0  0  0  0  0  0  0  0  0
  -20.5170  -28.6409   22.8773 C   0  0  0  0  0  0  0  0  0  0  0  0
  -28.3967  -16.4219   20.7231 C   0  0  0  0  0  0  0  0  0  0  0  0
  -30.7618  -33.4154   23.0153 C   0  0  0  0  0  0  0  0  0  0  0  0
  -25.5122  -30.7835   20.1982 C   0  0  0  0  0  0  0  0  0  0  0  0
  -24.1456  -28.7366   21.8376 C   0  0  0  0  0  0  0  0  0  0  0  0
  -29.4379  -33.2549   23.7581 C   0  0  0  0  0  0  0  0  0  0  0  0
  -30.3910  -13.5011   21.1337 C   0  0  0  0  0  0  0  0  0  0  0  0
  -25.2519  -19.8158   18.9524 C   0  0  0  0  0  0  0  0  0  0  0  0
  -27.4215  -19.7531   17.6432 C   0  0  0  0  0  0  0  0  0  0  0  0
  -29.1516  -31.7808   24.0265 C   0  0  0  0  0  0  0  0  0  0  0  0
  -29.4473  -12.3579   20.7562 C   0  0  0  0  0  0  0  0  0  0  0  0
  -25.5282  -18.4047   19.4725 C   0  0  0  0  0  0  0  0  0  0  0  0
  -27.6939  -18.3426   18.1670 C   0  0  0  0  0  0  0  0  0  0  0  0
  -29.6558  -14.6210   21.8668 C   0  0  0  0  0  0  0  0  0  0  0  0
  -27.5283  -14.0056   20.7856 C   0  0  0  0  0  0  0  0  0  0  0  0
  -25.9132  -20.0501   17.5834 C   0  0  0  0  0  0  0  0  0  0  0  0
  -29.0216  -30.9964   22.7152 C   0  0  1  0  0  0  0  0  0  0  0  0
  -25.3589  -30.9352   21.7084 C   0  0  1  0  0  0  0  0  0  0  0  0
  -28.2131  -12.8777   19.9949 C   0  0  2  0  0  0  0  0  0  0  0  0
  -27.0297  -18.1124   19.5261 C   0  0  0  0  0  0  0  0  0  0  0  0
  -24.3236  -20.8283   14.9082 C   0  0  0  0  0  0  0  0  0  0  0  0
  -18.0892  -29.2649   22.7585 C   0  0  0  0  0  0  0  0  0  0  0  0
  -23.4679  -30.1721   26.2633 C   0  0  0  0  0  0  0  0  0  0  0  0
  -21.1923  -29.1558   26.0246 C   0  0  0  0  0  0  0  0  0  0  0  0
  -21.5487  -31.5590   25.4585 C   0  0  0  0  0  0  0  0  0  0  0  0
  -20.1648  -27.2435   20.2923 C   0  0  0  0  0  0  0  0  0  0  0  0
  -25.7927  -25.1189   17.1310 C   0  0  0  0  0  0  0  0  0  1  0  0
  -22.4627  -29.7741   23.9187 C   0  0  1  0  0  0  0  0  0  0  0  0
  -19.3341  -28.9041   21.9630 C   0  0  2  0  0  0  0  0  0  0  0  0
  -22.1899  -30.1553   25.4011 C   0  0  0  0  0  0  0  0  0  0  0  0
  -26.2511  -11.4740   20.5076 N   0  0  0  0  0  0  0  0  0  0  0  0
  -25.5782  -23.6551   16.8516 N   0  0  0  0  0  0  0  0  0  0  0  0
  -27.2511  -11.7544   19.6547 N   0  0  0  0  0  0  0  0  0  0  0  0
  -24.2475  -30.1475   22.2457 N   0  0  0  0  0  0  0  0  0  0  0  0
  -28.4970  -15.0700   21.0911 N   0  0  0  0  0  0  0  0  0  0  0  0
  -28.2089  -11.1051   17.5878 N   0  0  0  0  0  0  0  0  0  0  0  0
  -24.7181   -8.2776   18.0526 N   0  0  0  0  0  0  0  0  0  0  0  0
  -27.7268  -31.2304   22.1125 N   0  0  0  0  0  0  0  0  0  0  0  0
  -21.2742  -29.7766   23.0726 N   0  0  0  0  0  0  0  0  0  0  0  0
  -27.2705  -16.7620   19.9837 N   0  0  0  0  0  0  0  0  0  0  0  0
  -19.0343  -27.6962   21.1432 N   0  3  0  0  0  0  0  0  0  0  0  0
  -26.4782   -8.8565   16.7015 O   0  0  0  0  0  0  0  0  0  0  0  0
  -26.5193  -29.6307   23.2980 O   0  0  0  0  0  0  0  0  0  0  0  0
  -23.5142  -31.8797   23.6233 O   0  0  0  0  0  0  0  0  0  0  0  0
  -20.7442  -27.5390   23.3720 O   0  0  0  0  0  0  0  0  0  0  0  0
  -29.2503  -17.2624   21.0262 O   0  0  0  0  0  0  0  0  0  0  0  0
  -21.1295   -8.1470   22.3108 O   0  0  0  0  0  0  0  0  0  0  0  0
  -25.1950  -25.4227   18.3946 O   0  0  0  0  0  0  0  0  0  1  0  0
  -21.7534   -3.2121   24.6903 F   0  0  0  0  0  0  0  0  0  0  0  0
  -20.6210   -7.7973   25.0056 F   0  0  0  0  0  0  0  0  0  0  0  0
  1  2  1  0  0  0  0
  1  5  2  0  0  0  0
  2  6  2  0  0  0  0
  3  8  2  0  0  0  0
  3 17  1  0  0  0  0
  4  9  1  0  0  0  0
  4 17  2  0  0  0  0
  5 19  1  0  0  0  0
  6 21  1  0  0  0  0
  7 10  2  0  0  0  0
  7 20  1  0  0  0  0
  8 25  1  0  0  0  0
  9 25  2  0  0  0  0
 10 26  1  0  0  0  0
 11 12  2  0  0  0  0
 11 27  1  0  0  0  0
 12 28  1  0  0  0  0
 13 22  1  0  0  0  0
 13 26  2  0  0  0  0
 14 28  2  0  0  0  0
 14 29  1  0  0  0  0
 15 23  2  0  0  0  0
 15 66  1  0  0  0  0
 16 24  2  0  0  0  0
 16 66  1  0  0  0  0
 17 30  1  0  0  0  0
 18 30  1  0  0  0  0
 18 31  2  0  0  0  0
 18 32  1  0  0  0  0
 19 21  2  0  0  0  0
 19 37  1  0  0  0  0
 20 22  2  0  0  0  0
 20 38  1  0  0  0  0
 21 51  1  0  0  0  0
 22 39  1  0  0  0  0
 23 24  1  0  0  0  0
 23 50  1  0  0  0  0
 24 55  1  0  0  0  0
 25 81  1  0  0  0  0
 26 82  1  0  0  0  0
 27 29  2  0  0  0  0
 27 81  1  0  0  0  0
 28 83  1  0  0  0  0
 29 84  1  0  0  0  0
 30 65  2  0  0  0  0
 31 67  1  0  0  0  0
 31 70  1  0  0  0  0
 32 71  1  0  0  0  0
 32 76  2  0  0  0  0
 33 52  1  0  0  0  0
 33 72  1  0  0  0  0
 33 77  2  0  0  0  0
 34 62  1  0  0  0  0
 34 68  1  0  0  0  0
 34 78  2  0  0  0  0
 35 63  1  0  0  0  0
 35 73  1  0  0  0  0
 35 79  2  0  0  0  0
 36 69  1  0  0  0  0
 36 74  1  0  0  0  0
 36 80  2  0  0  0  0
 37 40  1  0  0  0  0
 38 52  1  0  0  0  0
 39 68  1  0  0  0  0
 40 44  1  0  0  0  0
 41 45  1  0  0  0  0
 41 48  1  0  0  0  0
 42 46  1  0  0  0  0
 42 50  1  0  0  0  0
 43 47  1  0  0  0  0
 43 50  1  0  0  0  0
 44 51  1  0  0  0  0
 45 53  1  0  0  0  0
 46 54  1  0  0  0  0
 47 54  1  0  0  0  0
 48 69  1  0  0  0  0
 49 53  1  0  0  0  0
 49 69  1  0  0  0  0
 51 72  1  0  0  0  0
 52 68  1  0  0  0  0
 53 67  1  0  0  0  0
 54 74  1  0  0  0  0
 56 63  1  0  0  0  0
 57 64  1  0  0  0  0
 58 64  1  0  0  0  0
 59 64  1  0  0  0  0
 60 75  1  0  0  0  0
 61 66  1  0  0  0  0
 61 82  1  0  0  0  0
 62 64  1  0  0  0  0
 62 73  1  0  0  0  0
 63 75  1  0  0  0  0
 65 67  1  0  0  0  0
M  CHG  1  75   1
M  ISO  4  36 100  61 101  74 100  82 101
M  END
> <Batch ID>
0110

> <Smiles>
CNC(C)C(=O)NC(C(=O)N1Cc2cc([101O:1][101CH2:1]n3cc(C)c(C4CCC([100NH:0][100C:0](=O)N5CCCC(n6nc(-c7ccc(Oc8ccc(F)cc8F)cc7)c(C(N)=O)c6N)C5)CC4)c3)ccc2CC1C(=O)NC1CCCc2ccccc21)C(C)(C)C

> <Shape>
0.258

> <Color>
0.108

> <Negative vol penalty>
0.000

$$$$

  -OEChem-04052319583D

 85 93  0     1  0  0  0  0  0999 V2000
  -29.5300  -11.8851   19.7917 C   0  0  0  0  0  0  0  0  0  0  0  0
  -29.5837  -12.9286   20.7102 C   0  0  0  0  0  0  0  0  0  0  0  0
  -29.3762  -25.2245   22.0517 C   0  0  0  0  0  0  0  0  0  0  0  0
  -27.6588  -23.7564   21.1961 C   0  0  0  0  0  0  0  0  0  0  0  0
  -28.6430  -11.9483   18.7178 C   0  0  0  0  0  0  0  0  0  0  0  0
  -28.7513  -14.0364   20.5547 C   0  0  0  0  0  0  0  0  0  0  0  0
  -25.1667  -18.9086   24.3925 C   0  0  0  0  0  0  0  0  0  0  0  0
  -20.3877  -25.0851   24.1707 C   0  0  0  0  0  0  0  0  0  0  0  0
  -19.1675  -25.6668   23.8265 C   0  0  0  0  0  0  0  0  0  0  0  0
  -29.8881  -24.1784   22.8193 C   0  0  0  0  0  0  0  0  0  0  0  0
  -28.1707  -22.7102   21.9636 C   0  0  0  0  0  0  0  0  0  0  0  0
  -25.0088  -20.2895   24.5024 C   0  0  0  0  0  0  0  0  0  0  0  0
  -29.2437  -19.5575   23.4221 C   0  0  0  0  0  0  0  0  0  0  0  0
  -29.3841  -18.3118   22.8104 C   0  0  0  0  0  0  0  0  0  0  0  0
  -23.4602  -20.2535   22.6531 C   0  0  0  0  0  0  0  0  0  0  0  0
  -21.2022  -25.4668   21.9284 C   0  0  0  0  0  0  0  0  0  0  0  0
  -30.8866  -19.2795   21.1846 C   0  0  0  0  0  0  0  0  0  0  0  0
  -28.2615  -25.0135   21.2402 C   0  0  0  0  0  0  0  0  0  0  0  0
  -28.0926  -26.4388   19.1312 C   0  0  0  0  0  0  0  0  0  0  0  0
  -27.7925  -13.0530   18.5544 C   0  0  0  0  0  0  0  0  0  0  0  0
  -24.4797  -18.1902   23.4034 C   0  0  0  0  0  0  0  0  0  0  0  0
  -27.8531  -14.1150   19.4769 C   0  0  0  0  0  0  0  0  0  0  0  0
  -23.6091  -18.8633   22.5344 C   0  0  0  0  0  0  0  0  0  0  0  0
  -21.4050  -24.9852   23.2216 C   0  0  0  0  0  0  0  0  0  0  0  0
  -18.9646  -26.1484   22.5332 C   0  0  0  0  0  0  0  0  0  0  0  0
  -19.9820  -26.0484   21.5841 C   0  0  0  0  0  0  0  0  0  0  0  0
  -29.2854  -22.9212   22.7752 C   0  0  0  0  0  0  0  0  0  0  0  0
  -24.1577  -20.9626   23.6308 C   0  0  0  0  0  0  0  0  0  0  0  0
  -29.9247  -20.6642   22.9150 C   0  0  0  0  0  0  0  0  0  0  0  0
  -30.2055  -18.1728   21.6917 C   0  0  0  0  0  0  0  0  0  0  0  0
  -30.7461  -20.5252   21.7963 C   0  0  0  0  0  0  0  0  0  0  0  0
  -27.7319  -26.0940   20.4475 C   0  0  0  0  0  0  0  0  0  0  0  0
  -27.3091  -27.5271   18.8343 C   0  0  0  0  0  0  0  0  0  0  0  0
  -29.0504  -25.8298   18.2551 C   0  0  0  0  0  0  0  0  0  0  0  0
  -25.3440  -16.4176   20.9104 C   0  0  0  0  0  0  0  0  0  0  0  0
  -22.1611  -15.8191   20.7276 C   0  0  0  0  0  0  0  0  0  0  0  0
  -18.9785  -16.8235   21.4412 C   0  0  0  0  0  0  0  0  0  0  0  0
  -22.0320  -29.4417   20.9171 C   0  0  0  0  0  0  0  0  0  0  0  0
  -26.8839  -13.0980   17.3515 C   0  0  0  0  0  0  0  0  0  0  0  0
  -24.6403  -16.6973   23.3152 C   0  0  0  0  0  0  0  0  0  0  0  0
  -22.8331  -18.1354   21.4684 C   0  0  0  0  0  0  0  0  0  0  0  0
  -25.7705  -14.1359   17.4675 C   0  0  0  0  0  0  0  0  0  0  0  0
  -25.1083  -31.2342   20.9090 C   0  0  0  0  0  0  0  0  0  0  0  0
  -26.3304  -15.4666   17.9601 C   0  0  0  0  0  0  0  0  0  0  0  0
  -26.1621  -30.1512   20.6711 C   0  0  0  0  0  0  0  0  0  0  0  0
  -23.9646  -30.7262   21.7841 C   0  0  0  0  0  0  0  0  0  0  0  0
  -24.3765  -28.4041   21.0687 C   0  0  0  0  0  0  0  0  0  0  0  0
  -26.9485  -15.3222   19.3560 C   0  0  1  0  0  0  0  0  0  0  0  0
  -24.2863  -16.1384   21.9405 C   0  0  1  0  0  0  0  0  0  0  0  0
  -25.5223  -28.8522   20.1453 C   0  0  2  0  0  0  0  0  0  0  0  0
  -17.3572  -28.0279   23.0202 C   0  0  0  0  0  0  0  0  0  0  0  0
  -16.4818  -25.7710   22.3166 C   0  0  0  0  0  0  0  0  0  0  0  0
  -16.5825  -16.1451   21.1311 C   0  0  0  0  0  0  0  0  0  0  0  0
  -19.9857  -28.4961   18.5755 C   0  0  0  0  0  0  0  0  0  0  0  0
  -22.2869  -16.7156   17.8137 C   0  0  0  0  0  0  0  0  0  0  0  0
  -19.7925  -16.9277   17.8440 C   0  0  0  0  0  0  0  0  0  0  0  0
  -20.8581  -14.7048   18.2258 C   0  0  0  0  0  0  0  0  0  0  0  0
  -18.5277  -16.6533   24.3613 C   0  0  0  0  0  0  0  0  0  0  0  0
  -22.7251  -24.3552   23.5942 C   0  0  0  0  0  0  0  0  0  0  0  0
  -19.7874  -26.5568   20.1933 C   0  0  0  0  0  0  0  0  0  0  0  0
  -22.7409  -22.8511   23.3444 C   0  0  0  0  0  0  0  0  0  1  0  0
  -17.6495  -26.7661   22.1877 C   0  0  0  0  0  0  0  0  0  0  0  0
  -20.9893  -16.4689   20.0321 C   0  0  1  0  0  0  0  0  0  0  0  0
  -17.7987  -16.0808   22.0419 C   0  0  2  0  0  0  0  0  0  0  0  0
  -20.1993  -28.0333   20.0132 C   0  0  1  0  0  0  0  0  0  0  0  0
  -20.9977  -16.2185   18.4976 C   0  0  0  0  0  0  0  0  0  0  0  0
  -26.7923  -26.8981   20.9521 N   0  0  0  0  0  0  0  0  0  0  0  0
  -26.5562  -27.7591   19.9476 N   0  0  0  0  0  0  0  0  0  0  0  0
  -23.0288  -16.6770   21.4181 N   0  0  0  0  0  0  0  0  0  0  0  0
  -23.4005  -29.4932   21.2295 N   0  0  0  0  0  0  0  0  0  0  0  0
  -27.1976  -28.2986   17.7322 N   0  0  0  0  0  0  0  0  0  0  0  0
  -29.7692  -24.7197   18.7191 N   0  0  0  0  0  0  0  0  0  0  0  0
  -25.9126  -15.2821   20.3658 N   0  0  0  0  0  0  0  0  0  0  0  0
  -19.7920  -15.9839   20.7102 N   0  0  0  0  0  0  0  0  0  0  0  0
  -21.5803  -28.2380   20.3899 N   0  0  0  0  0  0  0  0  0  0  0  0
  -17.4309  -16.6720   23.3595 N   0  3  0  0  0  0  0  0  0  0  0  0
  -29.2742  -26.2674   17.1010 O   0  0  0  0  0  0  0  0  0  0  0  0
  -25.6225  -17.5775   20.6295 O   0  0  0  0  0  0  0  0  0  0  0  0
  -22.2974  -14.5946   20.6665 O   0  0  0  0  0  0  0  0  0  0  0  0
  -19.1583  -18.0288   21.6012 O   0  0  0  0  0  0  0  0  0  0  0  0
  -21.2703  -30.3993   21.0898 O   0  0  0  0  0  0  0  0  0  0  0  0
  -29.7848  -21.9001   23.5238 O   0  0  0  0  0  0  0  0  0  0  0  0
  -24.0023  -22.3104   23.7354 O   0  0  0  0  0  0  0  0  0  1  0  0
  -30.3415  -16.9761   21.1054 F   0  0  0  0  0  0  0  0  0  0  0  0
  -31.4038  -21.5845   21.3053 F   0  0  0  0  0  0  0  0  0  0  0  0
  1  2  1  0  0  0  0
  1  5  2  0  0  0  0
  2  6  2  0  0  0  0
  3 10  2  0  0  0  0
  3 18  1  0  0  0  0
  4 11  1  0  0  0  0
  4 18  2  0  0  0  0
  5 20  1  0  0  0  0
  6 22  1  0  0  0  0
  7 12  2  0  0  0  0
  7 21  1  0  0  0  0
  8  9  2  0  0  0  0
  8 24  1  0  0  0  0
  9 25  1  0  0  0  0
 10 27  1  0  0  0  0
 11 27  2  0  0  0  0
 12 28  1  0  0  0  0
 13 14  2  0  0  0  0
 13 29  1  0  0  0  0
 14 30  1  0  0  0  0
 15 23  1  0  0  0  0
 15 28  2  0  0  0  0
 16 24  2  0  0  0  0
 16 26  1  0  0  0  0
 17 30  2  0  0  0  0
 17 31  1  0  0  0  0
 18 32  1  0  0  0  0
 19 32  1  0  0  0  0
 19 33  2  0  0  0  0
 19 34  1  0  0  0  0
 20 22  2  0  0  0  0
 20 39  1  0  0  0  0
 21 23  2  0  0  0  0
 21 40  1  0  0  0  0
 22 48  1  0  0  0  0
 23 41  1  0  0  0  0
 24 59  1  0  0  0  0
 25 26  2  0  0  0  0
 25 62  1  0  0  0  0
 26 60  1  0  0  0  0
 27 82  1  0  0  0  0
 28 83  1  0  0  0  0
 29 31  2  0  0  0  0
 29 82  1  0  0  0  0
 30 84  1  0  0  0  0
 31 85  1  0  0  0  0
 32 67  2  0  0  0  0
 33 68  1  0  0  0  0
 33 71  1  0  0  0  0
 34 72  1  0  0  0  0
 34 77  2  0  0  0  0
 35 49  1  0  0  0  0
 35 73  1  0  0  0  0
 35 78  2  0  0  0  0
 36 63  1  0  0  0  0
 36 69  1  0  0  0  0
 36 79  2  0  0  0  0
 37 64  1  0  0  0  0
 37 74  1  0  0  0  0
 37 80  2  0  0  0  0
 38 70  1  0  0  0  0
 38 75  1  0  0  0  0
 38 81  2  0  0  0  0
 39 42  1  0  0  0  0
 40 49  1  0  0  0  0
 41 69  1  0  0  0  0
 42 44  1  0  0  0  0
 43 45  1  0  0  0  0
 43 46  1  0  0  0  0
 44 48  1  0  0  0  0
 45 50  1  0  0  0  0
 46 70  1  0  0  0  0
 47 50  1  0  0  0  0
 47 70  1  0  0  0  0
 48 73  1  0  0  0  0
 49 69  1  0  0  0  0
 50 68  1  0  0  0  0
 51 62  1  0  0  0  0
 52 62  1  0  0  0  0
 53 64  1  0  0  0  0
 54 65  1  0  0  0  0
 55 66  1  0  0  0  0
 56 66  1  0  0  0  0
 57 66  1  0  0  0  0
 58 76  1  0  0  0  0
 59 61  1  0  0  0  0
 60 65  1  0  0  0  0
 61 83  1  0  0  0  0
 63 66  1  0  0  0  0
 63 74  1  0  0  0  0
 64 76  1  0  0  0  0
 65 75  1  0  0  0  0
 67 68  1  0  0  0  0
M  CHG  1  76   1
M  ISO  4  38 100  61 101  75 100  83 101
M  END
> <Batch ID>
0110

> <Smiles>
CNC(C)C(=O)NC(C(=O)N1Cc2cc([101O:1][101CH2:1]Cc3ccc(C(C)C)c(CC(C)[100NH:0][100C:0](=O)N4CCCC(n5nc(-c6ccc(Oc7ccc(F)cc7F)cc6)c(C(N)=O)c5N)C4)c3)ccc2CC1C(=O)NC1CCCc2ccccc21)C(C)(C)C

> <Shape>
0.203

> <Color>
0.070

> <Negative vol penalty>
0.000

$$$$

  -OEChem-04052319583D

 91 99  0     1  0  0  0  0  0999 V2000
  -26.3742  -26.2376   13.3819 C   0  0  0  0  0  0  0  0  0  0  0  0
  -26.2495  -25.2890   14.3919 C   0  0  0  0  0  0  0  0  0  0  0  0
  -23.0410   -9.9041   19.9790 C   0  0  0  0  0  0  0  0  0  0  0  0
  -23.7584   -9.9782   22.2848 C   0  0  0  0  0  0  0  0  0  0  0  0
  -27.1380  -27.3844   13.5947 C   0  0  0  0  0  0  0  0  0  0  0  0
  -26.8896  -25.4862   15.6150 C   0  0  0  0  0  0  0  0  0  0  0  0
  -24.8539  -23.8223   21.1461 C   0  0  0  0  0  0  0  0  0  0  0  0
  -22.2899   -8.7603   20.2494 C   0  0  0  0  0  0  0  0  0  0  0  0
  -23.0072   -8.8344   22.5553 C   0  0  0  0  0  0  0  0  0  0  0  0
  -25.1363  -22.7250   21.9585 C   0  0  0  0  0  0  0  0  0  0  0  0
  -23.3005   -5.4967   22.1028 C   0  0  0  0  0  0  0  0  0  0  0  0
  -23.9002   -4.4922   22.8624 C   0  0  0  0  0  0  0  0  0  0  0  0
  -32.6662  -20.9111   21.5536 C   0  0  0  0  0  0  0  0  0  0  0  0
  -31.4227  -21.4002   22.0243 C   0  0  0  0  0  0  0  0  0  0  0  0
  -26.7682  -24.0384   23.1548 C   0  0  0  0  0  0  0  0  0  0  0  0
  -22.1680   -4.7198   24.5311 C   0  0  0  0  0  0  0  0  0  0  0  0
  -23.7753  -10.5130   20.9967 C   0  0  0  0  0  0  0  0  0  0  0  0
  -24.1252  -13.0329   20.8077 C   0  0  0  0  0  0  0  0  0  0  0  0
  -27.7799  -27.6004   14.8243 C   0  0  0  0  0  0  0  0  0  0  0  0
  -25.5355  -25.0346   21.3251 C   0  0  0  0  0  0  0  0  0  0  0  0
  -27.6639  -26.6364   15.8439 C   0  0  0  0  0  0  0  0  0  0  0  0
  -26.4908  -25.1503   22.3450 C   0  0  0  0  0  0  0  0  0  0  0  0
  -22.2730   -8.2254   21.5375 C   0  0  0  0  0  0  0  0  0  0  0  0
  -26.0957  -22.8321   22.9611 C   0  0  0  0  0  0  0  0  0  0  0  0
  -22.1346   -6.1129   22.5574 C   0  0  0  0  0  0  0  0  0  0  0  0
  -23.3339   -4.1037   24.0765 C   0  0  0  0  0  0  0  0  0  0  0  0
  -21.5683   -5.7244   23.7715 C   0  0  0  0  0  0  0  0  0  0  0  0
  -24.5518  -11.6943   20.7178 C   0  0  0  0  0  0  0  0  0  0  0  0
  -32.4534  -19.6359   21.0784 C   0  0  0  0  0  0  0  0  0  0  0  0
  -30.4878  -20.4088   21.8226 C   0  0  0  0  0  0  0  0  0  0  0  0
  -25.2257  -13.7692   20.4426 C   0  0  0  0  0  0  0  0  0  0  0  0
  -22.8484  -13.5633   21.1874 C   0  0  0  0  0  0  0  0  0  0  0  0
  -27.4686  -26.8076   19.5297 C   0  0  0  0  0  0  0  0  0  0  0  0
  -27.2195  -28.8895   22.0047 C   0  0  0  0  0  0  0  0  0  0  0  0
  -26.5791  -29.3858   25.3199 C   0  0  0  0  0  0  0  0  0  0  0  0
  -30.7074  -14.7835   20.7021 C   0  0  0  0  0  0  0  0  0  0  0  0
  -28.6335  -28.8326   14.9910 C   0  0  0  0  0  0  0  0  0  0  0  0
  -25.2002  -26.2169   20.4578 C   0  0  0  0  0  0  0  0  0  0  0  0
  -27.2360  -26.4358   22.5914 C   0  0  0  0  0  0  0  0  0  0  0  0
  -28.9731  -29.1460   16.4459 C   0  0  0  0  0  0  0  0  0  0  0  0
  -29.6085  -12.3308   18.3669 C   0  0  0  0  0  0  0  0  0  0  0  0
  -29.4323  -27.8847   17.1705 C   0  0  0  0  0  0  0  0  0  0  0  0
  -28.1626  -12.0527   18.7816 C   0  0  0  0  0  0  0  0  0  0  0  0
  -30.5038  -12.5857   19.5775 C   0  0  0  0  0  0  0  0  0  0  0  0
  -28.5785  -13.3613   20.9061 C   0  0  0  0  0  0  0  0  0  0  0  0
  -28.3228  -26.8264   17.1929 C   0  0  1  0  0  0  0  0  0  0  0  0
  -26.3220  -27.2489   20.3947 C   0  0  1  0  0  0  0  0  0  0  0  0
  -27.6258  -13.1534   19.7163 C   0  0  2  0  0  0  0  0  0  0  0  0
  -33.4052  -18.6779   20.4790 C   0  0  0  0  0  0  0  0  0  0  0  0
  -26.4901  -31.1916   27.0603 C   0  0  0  0  0  0  0  0  0  0  0  0
  -32.2975  -21.2899   26.4091 C   0  0  0  0  0  0  0  0  0  0  0  0
  -31.3899  -23.3973   27.4081 C   0  0  0  0  0  0  0  0  0  0  0  0
  -30.2685  -28.9344   22.1106 C   0  0  0  0  0  0  0  0  0  0  0  0
  -30.1049  -29.9525   24.3920 C   0  0  0  0  0  0  0  0  0  0  0  0
  -29.1811  -31.1654   22.4176 C   0  0  0  0  0  0  0  0  0  0  0  0
  -27.3801  -17.1071   24.1776 C   0  0  0  0  0  0  0  0  0  0  0  0
  -23.7088  -28.8955   25.8487 C   0  0  0  0  0  0  0  0  0  0  0  0
  -29.0118  -20.3933   22.1375 C   0  0  0  0  0  0  0  0  0  0  0  0
  -29.7914  -21.5531   26.8120 C   0  0  0  0  0  0  0  0  0  0  0  0
  -30.4937  -18.0928   20.8749 C   0  0  0  0  0  0  0  0  0  0  0  0
  -30.7555  -16.9699   21.8753 C   0  0  0  0  0  0  0  0  0  0  0  0
  -29.3461  -20.4208   25.8920 C   0  0  0  0  0  0  0  0  0  0  0  0
  -26.2088  -20.4667   23.1804 C   0  0  0  0  0  0  0  0  0  1  0  0
  -27.9788  -29.1192   23.2891 C   0  0  1  0  0  0  0  0  0  0  0  0
  -25.6983  -30.3939   26.0358 C   0  0  2  0  0  0  0  0  0  0  0  0
  -31.1103  -22.2532   26.4292 C   0  0  0  0  0  0  0  0  0  0  0  0
  -27.2091  -19.4685   23.7836 C   0  0  2  0  0  0  0  0  0  0  0  0
  -28.6899  -19.8632   23.5474 C   0  0  2  0  0  0  0  0  0  0  0  0
  -29.3709  -29.7679   23.0467 C   0  0  0  0  0  0  0  0  0  0  0  0
  -25.8240  -11.5837   20.3261 N   0  0  0  0  0  0  0  0  0  0  0  0
  -31.1257  -19.3410   21.2473 N   0  0  0  0  0  0  0  0  0  0  0  0
  -26.2062  -12.8622   20.1666 N   0  0  0  0  0  0  0  0  0  0  0  0
  -26.8773  -27.5615   21.7131 N   0  0  0  0  0  0  0  0  0  0  0  0
  -29.9394  -13.6412   20.4220 N   0  0  0  0  0  0  0  0  0  0  0  0
  -25.4405  -15.0975   20.3337 N   0  0  0  0  0  0  0  0  0  0  0  0
  -21.8283  -12.6664   21.5328 N   0  0  0  0  0  0  0  0  0  0  0  0
  -27.3340  -27.1519   18.1983 N   0  0  0  0  0  0  0  0  0  0  0  0
  -27.0974  -29.9002   24.1503 N   0  0  0  0  0  0  0  0  0  0  0  0
  -30.0950  -15.7381   21.5048 N   0  0  0  0  0  0  0  0  0  0  0  0
  -26.9007  -18.1332   23.2662 N   0  0  0  0  0  0  0  0  0  0  0  0
  -24.5836  -29.6997   26.7403 N   0  3  0  0  0  0  0  0  0  0  0  0
  -29.0898  -20.9269   24.5219 N   0  3  0  0  0  0  0  0  0  0  0  0
  -22.6141  -14.7955   21.2036 O   0  0  0  0  0  0  0  0  0  0  0  0
  -28.4067  -26.2009   20.0333 O   0  0  0  0  0  0  0  0  0  0  0  0
  -26.9340  -29.8537   21.2903 O   0  0  0  0  0  0  0  0  0  0  0  0
  -26.7895  -28.2564   25.7566 O   0  0  0  0  0  0  0  0  0  0  0  0
  -31.8520  -14.9432   20.2646 O   0  0  0  0  0  0  0  0  0  0  0  0
  -21.5400   -7.1095   21.8018 O   0  0  0  0  0  0  0  0  0  0  0  0
  -26.3737  -21.7624   23.7551 O   0  0  0  0  0  0  0  0  0  1  0  0
  -23.9091   -3.1380   24.8050 F   0  0  0  0  0  0  0  0  0  0  0  0
  -20.4476   -6.3118   24.2129 F   0  0  0  0  0  0  0  0  0  0  0  0
  1  2  1  0  0  0  0
  1  5  2  0  0  0  0
  2  6  2  0  0  0  0
  3  8  2  0  0  0  0
  3 17  1  0  0  0  0
  4  9  1  0  0  0  0
  4 17  2  0  0  0  0
  5 19  1  0  0  0  0
  6 21  1  0  0  0  0
  7 10  2  0  0  0  0
  7 20  1  0  0  0  0
  8 23  1  0  0  0  0
  9 23  2  0  0  0  0
 10 24  1  0  0  0  0
 11 12  2  0  0  0  0
 11 25  1  0  0  0  0
 12 26  1  0  0  0  0
 13 14  1  0  0  0  0
 13 29  2  0  0  0  0
 14 30  2  0  0  0  0
 15 22  1  0  0  0  0
 15 24  2  0  0  0  0
 16 26  2  0  0  0  0
 16 27  1  0  0  0  0
 17 28  1  0  0  0  0
 18 28  1  0  0  0  0
 18 31  2  0  0  0  0
 18 32  1  0  0  0  0
 19 21  2  0  0  0  0
 19 37  1  0  0  0  0
 20 22  2  0  0  0  0
 20 38  1  0  0  0  0
 21 46  1  0  0  0  0
 22 39  1  0  0  0  0
 23 88  1  0  0  0  0
 24 89  1  0  0  0  0
 25 27  2  0  0  0  0
 25 88  1  0  0  0  0
 26 90  1  0  0  0  0
 27 91  1  0  0  0  0
 28 70  2  0  0  0  0
 29 49  1  0  0  0  0
 29 71  1  0  0  0  0
 30 58  1  0  0  0  0
 30 71  1  0  0  0  0
 31 72  1  0  0  0  0
 31 75  1  0  0  0  0
 32 76  1  0  0  0  0
 32 83  2  0  0  0  0
 33 47  1  0  0  0  0
 33 77  1  0  0  0  0
 33 84  2  0  0  0  0
 34 64  1  0  0  0  0
 34 73  1  0  0  0  0
 34 85  2  0  0  0  0
 35 65  1  0  0  0  0
 35 78  1  0  0  0  0
 35 86  2  0  0  0  0
 36 74  1  0  0  0  0
 36 79  1  0  0  0  0
 36 87  2  0  0  0  0
 37 40  1  0  0  0  0
 38 47  1  0  0  0  0
 39 73  1  0  0  0  0
 40 42  1  0  0  0  0
 41 43  1  0  0  0  0
 41 44  1  0  0  0  0
 42 46  1  0  0  0  0
 43 48  1  0  0  0  0
 44 74  1  0  0  0  0
 45 48  1  0  0  0  0
 45 74  1  0  0  0  0
 46 77  1  0  0  0  0
 47 73  1  0  0  0  0
 48 72  1  0  0  0  0
 50 65  1  0  0  0  0
 51 66  1  0  0  0  0
 52 66  1  0  0  0  0
 53 69  1  0  0  0  0
 54 69  1  0  0  0  0
 55 69  1  0  0  0  0
 56 80  1  0  0  0  0
 57 81  1  0  0  0  0
 58 68  1  0  0  0  0
 59 62  1  0  0  0  0
 59 66  1  0  0  0  0
 60 61  1  0  0  0  0
 60 71  1  0  0  0  0
 61 79  1  0  0  0  0
 62 82  1  0  0  0  0
 63 67  1  0  0  0  0
 63 89  1  0  0  0  0
 64 69  1  0  0  0  0
 64 78  1  0  0  0  0
 65 81  1  0  0  0  0
 67 68  1  0  0  0  0
 67 80  1  0  0  0  0
 68 82  1  0  0  0  0
 70 72  1  0  0  0  0
M  CHG  2  81   1  82   1
M  ISO  4  36 100  63 101  79 100  89 101
M  END
> <Batch ID>
0110

> <Smiles>
CNC(C)C(=O)NC(C(=O)N1Cc2cc([101O:1][101CH2:1]C(NC)C(Cc3ccc(C)n3CC[100NH:0][100C:0](=O)N3CCCC(n4nc(-c5ccc(Oc6ccc(F)cc6F)cc5)c(C(N)=O)c4N)C3)NCCC(C)C)ccc2CC1C(=O)NC1CCCc2ccccc21)C(C)(C)C

> <Shape>
0.246

> <Color>
0.203

> <Negative vol penalty>
0.000

$$$$

  -OEChem-04052319583D

 82 89  0     1  0  0  0  0  0999 V2000
  -16.9368  -27.9693   23.8203 C   0  0  0  0  0  0  0  0  0  0  0  0
  -17.6544  -27.2500   22.8700 C   0  0  0  0  0  0  0  0  0  0  0  0
  -23.8183  -15.0974   23.3994 C   0  0  0  0  0  0  0  0  0  0  0  0
  -22.8935  -15.7759   21.2730 C   0  0  0  0  0  0  0  0  0  0  0  0
  -17.3117  -29.2751   24.1339 C   0  0  0  0  0  0  0  0  0  0  0  0
  -18.7468  -27.8365   22.2320 C   0  0  0  0  0  0  0  0  0  0  0  0
  -22.7365  -24.7294   21.9610 C   0  0  0  0  0  0  0  0  0  0  0  0
  -23.0675  -16.0827   24.0404 C   0  0  0  0  0  0  0  0  0  0  0  0
  -22.1425  -16.7612   21.9141 C   0  0  0  0  0  0  0  0  0  0  0  0
  -22.7059  -23.7379   20.9814 C   0  0  0  0  0  0  0  0  0  0  0  0
  -21.6657  -18.6565   26.1931 C   0  0  0  0  0  0  0  0  0  0  0  0
  -22.3047  -19.4368   27.1566 C   0  0  0  0  0  0  0  0  0  0  0  0
  -24.1300  -25.0882   19.5786 C   0  0  0  0  0  0  0  0  0  0  0  0
  -23.8771  -20.2056   25.4911 C   0  0  0  0  0  0  0  0  0  0  0  0
  -23.7314  -14.9440   22.0156 C   0  0  0  0  0  0  0  0  0  0  0  0
  -24.1229  -12.5971   21.0955 C   0  0  0  0  0  0  0  0  0  0  0  0
  -18.4152  -29.8745   23.5065 C   0  0  0  0  0  0  0  0  0  0  0  0
  -23.4564  -25.9146   21.7519 C   0  0  0  0  0  0  0  0  0  0  0  0
  -19.1361  -29.1520   22.5366 C   0  0  0  0  0  0  0  0  0  0  0  0
  -24.1702  -26.0922   20.5582 C   0  0  0  0  0  0  0  0  0  0  0  0
  -22.2295  -16.9145   23.2978 C   0  0  0  0  0  0  0  0  0  0  0  0
  -23.4004  -23.9184   19.7888 C   0  0  0  0  0  0  0  0  0  0  0  0
  -22.1324  -18.6506   24.8786 C   0  0  0  0  0  0  0  0  0  0  0  0
  -23.4104  -20.2114   26.8056 C   0  0  0  0  0  0  0  0  0  0  0  0
  -23.2381  -19.4252   24.5276 C   0  0  0  0  0  0  0  0  0  0  0  0
  -24.5072  -13.9267   21.3528 C   0  0  0  0  0  0  0  0  0  0  0  0
  -25.2025  -12.0465   20.4492 C   0  0  0  0  0  0  0  0  0  0  0  0
  -22.8992  -11.9203   21.4122 C   0  0  0  0  0  0  0  0  0  0  0  0
  -22.6999  -28.9967   21.5733 C   0  0  0  0  0  0  0  0  0  0  0  0
  -26.4609  -15.7613   17.5119 C   0  0  0  0  0  0  0  0  0  0  0  0
  -25.9183  -29.3783   21.4378 C   0  0  0  0  0  0  0  0  0  0  0  0
  -28.9662  -28.0359   20.6927 C   0  0  0  0  0  0  0  0  0  0  0  0
  -29.6559  -14.9054   17.3618 C   0  0  0  0  0  0  0  0  0  0  0  0
  -18.7536  -31.3049   23.8441 C   0  0  0  0  0  0  0  0  0  0  0  0
  -23.5012  -26.9630   22.8295 C   0  0  0  0  0  0  0  0  0  0  0  0
  -24.9747  -27.3376   20.2931 C   0  0  0  0  0  0  0  0  0  0  0  0
  -20.1515  -31.7224   23.3949 C   0  0  0  0  0  0  0  0  0  0  0  0
  -29.9529  -12.4173   20.0862 C   0  0  0  0  0  0  0  0  0  0  0  0
  -20.4078  -31.2724   21.9601 C   0  0  0  0  0  0  0  0  0  0  0  0
  -28.5718  -12.4699   20.7373 C   0  0  0  0  0  0  0  0  0  0  0  0
  -30.3242  -13.7465   19.4358 C   0  0  0  0  0  0  0  0  0  0  0  0
  -27.9351  -14.2944   19.1106 C   0  0  0  0  0  0  0  0  0  0  0  0
  -20.3421  -29.7450   21.8409 C   0  0  1  0  0  0  0  0  0  0  0  0
  -23.8464  -28.3510   22.2987 C   0  0  1  0  0  0  0  0  0  0  0  0
  -27.5109  -12.9565   19.7348 C   0  0  2  0  0  0  0  0  0  0  0  0
  -24.2454  -14.5842   17.3815 C   0  0  0  0  0  0  0  0  0  0  0  0
  -31.4105  -28.6024   20.6480 C   0  0  0  0  0  0  0  0  0  0  0  0
  -25.4928  -31.0028   18.8902 C   0  0  0  0  0  0  0  0  0  0  0  0
  -27.9303  -30.7261   18.3898 C   0  0  0  0  0  0  0  0  0  0  0  0
  -27.2112  -31.9373   20.4485 C   0  0  0  0  0  0  0  0  0  0  0  0
  -28.9681  -16.0387   15.2828 C   0  0  0  0  0  0  0  0  0  0  0  0
  -29.6117  -25.9178   22.6563 C   0  0  0  0  0  0  0  0  0  0  0  0
  -27.2468  -14.8497   16.5901 C   0  0  0  0  0  0  0  0  0  0  0  0
  -23.8014  -19.2168   18.6944 C   0  0  0  0  0  0  0  0  0  0  0  0
  -23.9078  -20.6808   18.2739 C   0  0  0  0  0  0  0  0  0  0  0  0
  -24.5263  -18.3115   17.7097 C   0  0  0  0  0  0  0  0  0  0  0  0
  -23.2237  -21.6036   19.2726 C   0  0  0  0  0  0  0  0  0  1  0  0
  -24.9769  -15.9050   17.2149 C   0  0  1  0  0  0  0  0  0  0  0  0
  -26.9436  -29.4260   20.3307 C   0  0  1  0  0  0  0  0  0  0  0  0
  -30.2724  -28.0117   21.4658 C   0  0  2  0  0  0  0  0  0  0  0  0
  -26.8778  -30.7503   19.5187 C   0  0  0  0  0  0  0  0  0  0  0  0
  -25.7353  -14.2040   20.9066 N   0  0  0  0  0  0  0  0  0  0  0  0
  -26.1319  -13.0410   20.3624 N   0  0  0  0  0  0  0  0  0  0  0  0
  -24.9823  -28.3363   21.3748 N   0  0  0  0  0  0  0  0  0  0  0  0
  -29.2794  -14.2070   18.5208 N   0  0  0  0  0  0  0  0  0  0  0  0
  -25.4381  -10.8136   19.9525 N   0  0  0  0  0  0  0  0  0  0  0  0
  -21.8938  -12.6344   22.0783 N   0  0  0  0  0  0  0  0  0  0  0  0
  -21.5609  -29.1461   22.3412 N   0  0  0  0  0  0  0  0  0  0  0  0
  -28.2356  -29.1744   20.9598 N   0  0  0  0  0  0  0  0  0  0  0  0
  -28.6272  -15.3212   16.5030 N   0  0  0  0  0  0  0  0  0  0  0  0
  -30.6327  -26.6124   21.8305 N   0  3  0  0  0  0  0  0  0  0  0  0
  -24.3581  -16.9004   18.1329 N   0  3  0  0  0  0  0  0  0  0  0  0
  -22.7096  -10.7133   21.1281 O   0  0  0  0  0  0  0  0  0  0  0  0
  -22.8389  -29.3357   20.4039 O   0  0  0  0  0  0  0  0  0  0  0  0
  -26.9885  -16.3184   18.4753 O   0  0  0  0  0  0  0  0  0  0  0  0
  -25.9513  -30.2299   22.3296 O   0  0  0  0  0  0  0  0  0  0  0  0
  -28.6295  -27.1367   19.9255 O   0  0  0  0  0  0  0  0  0  0  0  0
  -30.8445  -15.1354   17.1042 O   0  0  0  0  0  0  0  0  0  0  0  0
  -21.4965  -17.8759   23.9230 O   0  0  0  0  0  0  0  0  0  0  0  0
  -23.3717  -22.9524   18.8307 O   0  0  0  0  0  0  0  0  0  1  0  0
  -24.0229  -20.9619   27.7306 F   0  0  0  0  0  0  0  0  0  0  0  0
  -23.6904  -19.4245   23.2662 F   0  0  0  0  0  0  0  0  0  0  0  0
  1  2  1  0  0  0  0
  1  5  2  0  0  0  0
  2  6  2  0  0  0  0
  3  8  2  0  0  0  0
  3 15  1  0  0  0  0
  4  9  1  0  0  0  0
  4 15  2  0  0  0  0
  5 17  1  0  0  0  0
  6 19  1  0  0  0  0
  7 10  2  0  0  0  0
  7 18  1  0  0  0  0
  8 21  1  0  0  0  0
  9 21  2  0  0  0  0
 10 22  1  0  0  0  0
 11 12  2  0  0  0  0
 11 23  1  0  0  0  0
 12 24  1  0  0  0  0
 13 20  1  0  0  0  0
 13 22  2  0  0  0  0
 14 24  2  0  0  0  0
 14 25  1  0  0  0  0
 15 26  1  0  0  0  0
 16 26  1  0  0  0  0
 16 27  2  0  0  0  0
 16 28  1  0  0  0  0
 17 19  2  0  0  0  0
 17 34  1  0  0  0  0
 18 20  2  0  0  0  0
 18 35  1  0  0  0  0
 19 43  1  0  0  0  0
 20 36  1  0  0  0  0
 21 79  1  0  0  0  0
 22 80  1  0  0  0  0
 23 25  2  0  0  0  0
 23 79  1  0  0  0  0
 24 81  1  0  0  0  0
 25 82  1  0  0  0  0
 26 62  2  0  0  0  0
 27 63  1  0  0  0  0
 27 66  1  0  0  0  0
 28 67  1  0  0  0  0
 28 73  2  0  0  0  0
 29 44  1  0  0  0  0
 29 68  1  0  0  0  0
 29 74  2  0  0  0  0
 30 53  1  0  0  0  0
 30 58  1  0  0  0  0
 30 75  2  0  0  0  0
 31 59  1  0  0  0  0
 31 64  1  0  0  0  0
 31 76  2  0  0  0  0
 32 60  1  0  0  0  0
 32 69  1  0  0  0  0
 32 77  2  0  0  0  0
 33 65  1  0  0  0  0
 33 70  1  0  0  0  0
 33 78  2  0  0  0  0
 34 37  1  0  0  0  0
 35 44  1  0  0  0  0
 36 64  1  0  0  0  0
 37 39  1  0  0  0  0
 38 40  1  0  0  0  0
 38 41  1  0  0  0  0
 39 43  1  0  0  0  0
 40 45  1  0  0  0  0
 41 65  1  0  0  0  0
 42 45  1  0  0  0  0
 42 65  1  0  0  0  0
 43 68  1  0  0  0  0
 44 64  1  0  0  0  0
 45 63  1  0  0  0  0
 46 58  1  0  0  0  0
 47 60  1  0  0  0  0
 48 61  1  0  0  0  0
 49 61  1  0  0  0  0
 50 61  1  0  0  0  0
 51 70  1  0  0  0  0
 52 71  1  0  0  0  0
 53 70  1  0  0  0  0
 54 55  1  0  0  0  0
 54 56  1  0  0  0  0
 55 57  1  0  0  0  0
 56 72  1  0  0  0  0
 57 80  1  0  0  0  0
 58 72  1  0  0  0  0
 59 61  1  0  0  0  0
 59 69  1  0  0  0  0
 60 71  1  0  0  0  0
 62 63  1  0  0  0  0
M  CHG  2  71   1  72   1
M  ISO  4  33 100  57 101  70 100  80 101
M  END
> <Batch ID>
0110

> <Smiles>
CNC(C)C(=O)NC(C(=O)N1Cc2cc([101O:1][101CH2:1]CCCNC(C)C(=O)C[100N:0](C)[100C:0](=O)N3CCCC(n4nc(-c5ccc(Oc6ccc(F)cc6F)cc5)c(C(N)=O)c4N)C3)ccc2CC1C(=O)NC1CCCc2ccccc21)C(C)(C)C

> <Shape>
0.208

> <Color>
0.103

> <Negative vol penalty>
0.000

$$$$

  -OEChem-04052319583D

 82 89  0     1  0  0  0  0  0999 V2000
  -24.0636  -23.6499   18.6857 C   0  0  0  0  0  0  0  0  0  0  0  0
  -24.8368  -22.5261   18.4168 C   0  0  0  0  0  0  0  0  0  0  0  0
  -22.6890  -30.1173   20.3174 C   0  0  0  0  0  0  0  0  0  0  0  0
  -22.4473  -28.2655   21.8502 C   0  0  0  0  0  0  0  0  0  0  0  0
  -23.1376  -23.6213   19.7263 C   0  0  0  0  0  0  0  0  0  0  0  0
  -24.6759  -21.3696   19.1806 C   0  0  0  0  0  0  0  0  0  0  0  0
  -27.1324  -17.3657   17.7184 C   0  0  0  0  0  0  0  0  0  0  0  0
  -21.3019  -30.2531   20.2627 C   0  0  0  0  0  0  0  0  0  0  0  0
  -21.0601  -28.4013   21.7955 C   0  0  0  0  0  0  0  0  0  0  0  0
  -28.5141  -17.2381   17.8534 C   0  0  0  0  0  0  0  0  0  0  0  0
  -17.4667  -28.4913   22.3409 C   0  0  0  0  0  0  0  0  0  0  0  0
  -16.7613  -28.4384   23.5430 C   0  0  0  0  0  0  0  0  0  0  0  0
  -28.1882  -15.7753   19.7437 C   0  0  0  0  0  0  0  0  0  0  0  0
  -17.9919  -30.3547   24.3495 C   0  0  0  0  0  0  0  0  0  0  0  0
  -23.2617  -29.1234   21.1111 C   0  0  0  0  0  0  0  0  0  0  0  0
  -25.5759  -29.6115   22.0671 C   0  0  0  0  0  0  0  0  0  0  0  0
  -22.9747  -22.4675   20.5108 C   0  0  0  0  0  0  0  0  0  0  0  0
  -26.2669  -16.7067   18.6033 C   0  0  0  0  0  0  0  0  0  0  0  0
  -23.7296  -21.3131   20.2198 C   0  0  0  0  0  0  0  0  0  0  0  0
  -26.7959  -15.8942   19.6162 C   0  0  0  0  0  0  0  0  0  0  0  0
  -20.4874  -29.3951   21.0017 C   0  0  0  0  0  0  0  0  0  0  0  0
  -29.0423  -16.4451   18.8679 C   0  0  0  0  0  0  0  0  0  0  0  0
  -18.4348  -29.4758   22.1431 C   0  0  0  0  0  0  0  0  0  0  0  0
  -17.0238  -29.3701   24.5474 C   0  0  0  0  0  0  0  0  0  0  0  0
  -18.6974  -30.4075   23.1474 C   0  0  0  0  0  0  0  0  0  0  0  0
  -24.6945  -28.9823   21.1676 C   0  0  0  0  0  0  0  0  0  0  0  0
  -26.8192  -29.1511   21.7083 C   0  0  0  0  0  0  0  0  0  0  0  0
  -25.2958  -30.5299   23.1319 C   0  0  0  0  0  0  0  0  0  0  0  0
  -24.0786  -17.6390   20.7118 C   0  0  0  0  0  0  0  0  0  0  0  0
  -23.5123  -14.4536   20.9471 C   0  0  0  0  0  0  0  0  0  0  0  0
  -24.6786  -11.2683   20.5733 C   0  0  0  0  0  0  0  0  0  0  0  0
  -28.6823  -24.1889   18.9232 C   0  0  0  0  0  0  0  0  0  0  0  0
  -21.9523  -22.4889   21.6196 C   0  0  0  0  0  0  0  0  0  0  0  0
  -24.7784  -16.8333   18.4277 C   0  0  0  0  0  0  0  0  0  0  0  0
  -25.9094  -15.1496   20.5796 C   0  0  0  0  0  0  0  0  0  0  0  0
  -22.1665  -21.3822   22.6471 C   0  0  0  0  0  0  0  0  0  0  0  0
  -29.2723  -27.5547   17.9234 C   0  0  0  0  0  0  0  0  0  0  0  0
  -22.3410  -20.0453   21.9424 C   0  0  0  0  0  0  0  0  0  0  0  0
  -28.2455  -28.3590   18.7226 C   0  0  0  0  0  0  0  0  0  0  0  0
  -28.7121  -26.2041   17.4829 C   0  0  0  0  0  0  0  0  0  0  0  0
  -27.1282  -26.1841   19.3709 C   0  0  0  0  0  0  0  0  0  0  0  0
  -23.5935  -20.0540   21.0569 C   0  0  1  0  0  0  0  0  0  0  0  0
  -23.9983  -16.5285   19.7028 C   0  0  1  0  0  0  0  0  0  0  0  0
  -27.6659  -27.5306   19.8850 C   0  0  2  0  0  0  0  0  0  0  0  0
  -23.9983   -8.8725   20.8813 C   0  0  0  0  0  0  0  0  0  0  0  0
  -33.7781  -18.7181   20.1515 C   0  0  0  0  0  0  0  0  0  0  0  0
  -23.8936  -14.7354   23.9613 C   0  0  0  0  0  0  0  0  0  0  0  0
  -24.1506  -12.2484   24.0910 C   0  0  0  0  0  0  0  0  0  0  0  0
  -22.0081  -13.2387   23.2837 C   0  0  0  0  0  0  0  0  0  0  0  0
  -29.3293  -23.0217   22.7524 C   0  0  0  0  0  0  0  0  0  0  0  0
  -25.0194  -10.6801   17.6929 C   0  0  0  0  0  0  0  0  0  0  0  0
  -30.2374  -20.8852   21.8057 C   0  0  0  0  0  0  0  0  0  0  0  0
  -32.2955  -16.6897   20.4128 C   0  0  0  0  0  0  0  0  0  0  0  0
  -28.5457  -22.2473   20.4629 C   0  0  0  0  0  0  0  0  0  0  0  0
  -31.0670  -20.2570   20.6916 C   0  0  0  0  0  0  0  0  0  0  0  0
  -30.8941  -16.0964   20.3188 C   0  0  0  0  0  0  0  0  0  1  0  0
  -24.0532  -13.3318   21.8002 C   0  0  1  0  0  0  0  0  0  0  0  0
  -24.0703  -10.0437   19.9139 C   0  0  2  0  0  0  0  0  0  0  0  0
  -32.3496  -18.1908   20.1220 C   0  0  1  0  0  0  0  0  0  0  0  0
  -23.5434  -13.4040   23.2673 C   0  0  0  0  0  0  0  0  0  0  0  0
  -29.7070  -22.2899   21.4626 C   0  0  1  0  0  0  0  0  0  0  0  0
  -25.3244  -28.1832   20.3023 N   0  0  0  0  0  0  0  0  0  0  0  0
  -26.6149  -28.3072   20.6564 N   0  0  0  0  0  0  0  0  0  0  0  0
  -24.4609  -15.3103   20.3709 N   0  0  0  0  0  0  0  0  0  0  0  0
  -28.1799  -25.4679   18.6321 N   0  0  0  0  0  0  0  0  0  0  0  0
  -28.0563  -29.3899   22.1930 N   0  0  0  0  0  0  0  0  0  0  0  0
  -23.9634  -30.8972   23.3642 N   0  0  0  0  0  0  0  0  0  0  0  0
  -23.6095  -18.8539   20.2499 N   0  0  0  0  0  0  0  0  0  0  0  0
  -23.7122  -12.0928   21.1094 N   0  0  0  0  0  0  0  0  0  0  0  0
  -28.1279  -23.5631   20.0331 N   0  0  0  0  0  0  0  0  0  0  0  0
  -24.8849   -9.6311   18.7362 N   0  3  0  0  0  0  0  0  0  0  0  0
  -31.5650  -18.9333   21.1475 N   0  3  0  0  0  0  0  0  0  0  0  0
  -26.2020  -31.0234   23.8452 O   0  0  0  0  0  0  0  0  0  0  0  0
  -24.5311  -17.4101   21.8274 O   0  0  0  0  0  0  0  0  0  0  0  0
  -22.2933  -14.5615   20.7918 O   0  0  0  0  0  0  0  0  0  0  0  0
  -25.8902  -11.4711   20.6124 O   0  0  0  0  0  0  0  0  0  0  0  0
  -29.5636  -23.6471   18.2474 O   0  0  0  0  0  0  0  0  0  0  0  0
  -19.1338  -29.5275   20.9488 O   0  0  0  0  0  0  0  0  0  0  0  0
  -30.3906  -16.3193   19.0023 O   0  0  0  0  0  0  0  0  0  1  0  0
  -16.3452  -29.3202   25.7011 F   0  0  0  0  0  0  0  0  0  0  0  0
  -19.6255  -31.3564   22.9627 F   0  0  0  0  0  0  0  0  0  0  0  0
  -30.7326  -22.9875   20.8866 F   0  0  0  0  0  0  0  0  0  0  0  0
  1  2  1  0  0  0  0
  1  5  2  0  0  0  0
  2  6  2  0  0  0  0
  3  8  2  0  0  0  0
  3 15  1  0  0  0  0
  4  9  1  0  0  0  0
  4 15  2  0  0  0  0
  5 17  1  0  0  0  0
  6 19  1  0  0  0  0
  7 10  2  0  0  0  0
  7 18  1  0  0  0  0
  8 21  1  0  0  0  0
  9 21  2  0  0  0  0
 10 22  1  0  0  0  0
 11 12  2  0  0  0  0
 11 23  1  0  0  0  0
 12 24  1  0  0  0  0
 13 20  1  0  0  0  0
 13 22  2  0  0  0  0
 14 24  2  0  0  0  0
 14 25  1  0  0  0  0
 15 26  1  0  0  0  0
 16 26  1  0  0  0  0
 16 27  2  0  0  0  0
 16 28  1  0  0  0  0
 17 19  2  0  0  0  0
 17 33  1  0  0  0  0
 18 20  2  0  0  0  0
 18 34  1  0  0  0  0
 19 42  1  0  0  0  0
 20 35  1  0  0  0  0
 21 78  1  0  0  0  0
 22 79  1  0  0  0  0
 23 25  2  0  0  0  0
 23 78  1  0  0  0  0
 24 80  1  0  0  0  0
 25 81  1  0  0  0  0
 26 62  2  0  0  0  0
 27 63  1  0  0  0  0
 27 66  1  0  0  0  0
 28 67  1  0  0  0  0
 28 73  2  0  0  0  0
 29 43  1  0  0  0  0
 29 68  1  0  0  0  0
 29 74  2  0  0  0  0
 30 57  1  0  0  0  0
 30 64  1  0  0  0  0
 30 75  2  0  0  0  0
 31 58  1  0  0  0  0
 31 69  1  0  0  0  0
 31 76  2  0  0  0  0
 32 65  1  0  0  0  0
 32 70  1  0  0  0  0
 32 77  2  0  0  0  0
 33 36  1  0  0  0  0
 34 43  1  0  0  0  0
 35 64  1  0  0  0  0
 36 38  1  0  0  0  0
 37 39  1  0  0  0  0
 37 40  1  0  0  0  0
 38 42  1  0  0  0  0
 39 44  1  0  0  0  0
 40 65  1  0  0  0  0
 41 44  1  0  0  0  0
 41 65  1  0  0  0  0
 42 68  1  0  0  0  0
 43 64  1  0  0  0  0
 44 63  1  0  0  0  0
 45 58  1  0  0  0  0
 46 59  1  0  0  0  0
 47 60  1  0  0  0  0
 48 60  1  0  0  0  0
 49 60  1  0  0  0  0
 50 61  1  0  0  0  0
 51 71  1  0  0  0  0
 52 55  1  0  0  0  0
 52 61  1  0  0  0  0
 53 56  1  0  0  0  0
 53 59  1  0  0  0  0
 54 61  1  0  0  0  0
 54 70  1  0  0  0  0
 55 72  1  0  0  0  0
 56 79  1  0  0  0  0
 57 60  1  0  0  0  0
 57 69  1  0  0  0  0
 58 71  1  0  0  0  0
 59 72  1  0  0  0  0
 61 82  1  0  0  0  0
 62 63  1  0  0  0  0
M  CHG  2  71   1  72   1
M  ISO  4  32 100  56 101  70 100  79 101
M  END
> <Batch ID>
0110

> <Smiles>
CNC(C)C(=O)NC(C(=O)N1Cc2cc([101O:1][101CH2:1]CC(C)NCCC(C)(F)C[100NH:0][100C:0](=O)N3CCCC(n4nc(-c5ccc(Oc6ccc(F)cc6F)cc5)c(C(N)=O)c4N)C3)ccc2CC1C(=O)NC1CCCc2ccccc21)C(C)(C)C

> <Shape>
0.231

> <Color>
0.070

> <Negative vol penalty>
0.000

$$$$

  -OEChem-04052319583D

 85 93  0     1  0  0  0  0  0999 V2000
  -28.2377  -36.1279   20.6616 C   0  0  0  0  0  0  0  0  0  0  0  0
  -28.4942  -34.7651   20.7734 C   0  0  0  0  0  0  0  0  0  0  0  0
  -23.6827  -15.0541   19.9441 C   0  0  0  0  0  0  0  0  0  0  0  0
  -25.1014  -14.9924   21.8988 C   0  0  0  0  0  0  0  0  0  0  0  0
  -27.1239  -36.6805   21.2925 C   0  0  0  0  0  0  0  0  0  0  0  0
  -27.6375  -33.9543   21.5171 C   0  0  0  0  0  0  0  0  0  0  0  0
  -26.5210  -29.6199   19.1482 C   0  0  0  0  0  0  0  0  0  0  0  0
  -24.4478  -14.0464   19.3570 C   0  0  0  0  0  0  0  0  0  0  0  0
  -25.8665  -13.9846   21.3117 C   0  0  0  0  0  0  0  0  0  0  0  0
  -27.4852  -28.6132   19.1747 C   0  0  0  0  0  0  0  0  0  0  0  0
  -28.3047  -13.7448   18.9818 C   0  0  0  0  0  0  0  0  0  0  0  0
  -29.6929  -13.8585   19.0558 C   0  0  0  0  0  0  0  0  0  0  0  0
  -27.2862  -18.7730   22.0243 C   0  0  0  0  0  0  0  0  0  0  0  0
  -27.3587  -19.6866   20.9440 C   0  0  0  0  0  0  0  0  0  0  0  0
  -26.2840  -27.5180   20.9570 C   0  0  0  0  0  0  0  0  0  0  0  0
  -29.8008  -11.7627   20.2528 C   0  0  0  0  0  0  0  0  0  0  0  0
  -24.0095  -15.5272   21.2150 C   0  0  0  0  0  0  0  0  0  0  0  0
  -22.0858  -16.4080   22.6401 C   0  0  0  0  0  0  0  0  0  0  0  0
  -26.2479  -35.8744   22.0363 C   0  0  0  0  0  0  0  0  0  0  0  0
  -25.4351  -29.5889   20.0349 C   0  0  0  0  0  0  0  0  0  0  0  0
  -26.5117  -34.4969   22.1597 C   0  0  0  0  0  0  0  0  0  0  0  0
  -25.3060  -28.5242   20.9381 C   0  0  0  0  0  0  0  0  0  0  0  0
  -25.5396  -13.5116   20.0408 C   0  0  0  0  0  0  0  0  0  0  0  0
  -27.3683  -27.5635   20.0811 C   0  0  0  0  0  0  0  0  0  0  0  0
  -27.6645  -12.6400   19.5433 C   0  0  0  0  0  0  0  0  0  0  0  0
  -30.4410  -12.8675   19.6913 C   0  0  0  0  0  0  0  0  0  0  0  0
  -28.4126  -11.6489   20.1788 C   0  0  0  0  0  0  0  0  0  0  0  0
  -23.2200  -16.5686   21.8218 C   0  0  0  0  0  0  0  0  0  0  0  0
  -27.1550  -19.5116   23.1795 C   0  0  0  0  0  0  0  0  0  0  0  0
  -27.2697  -20.9557   21.4719 C   0  0  0  0  0  0  0  0  0  0  0  0
  -21.7067  -17.6896   22.9568 C   0  0  0  0  0  0  0  0  0  0  0  0
  -21.4334  -15.2078   23.0753 C   0  0  0  0  0  0  0  0  0  0  0  0
  -24.3842  -31.4826   22.3615 C   0  0  0  0  0  0  0  0  0  0  0  0
  -21.8774  -29.4240   22.3743 C   0  0  0  0  0  0  0  0  0  0  0  0
  -24.7825  -22.8479   23.1671 C   0  0  0  0  0  0  0  0  0  0  0  0
  -20.6839  -26.3076   21.6597 C   0  0  0  0  0  0  0  0  0  0  0  0
  -25.0831  -36.5250   22.7396 C   0  0  0  0  0  0  0  0  0  0  0  0
  -24.3893  -30.6685   19.9755 C   0  0  0  0  0  0  0  0  0  0  0  0
  -24.1483  -28.4338   21.8972 C   0  0  0  0  0  0  0  0  0  0  0  0
  -24.0174  -35.5331   23.1986 C   0  0  0  0  0  0  0  0  0  0  0  0
  -21.8182  -22.1594   21.2753 C   0  0  0  0  0  0  0  0  0  0  0  0
  -24.6637  -34.3387   23.8933 C   0  0  0  0  0  0  0  0  0  0  0  0
  -21.7542  -20.6328   21.2512 C   0  0  0  0  0  0  0  0  0  0  0  0
  -23.2589  -22.6586   21.2287 C   0  0  0  0  0  0  0  0  0  0  0  0
  -24.0687  -20.5719   22.2829 C   0  0  0  0  0  0  0  0  0  0  0  0
  -25.5921  -33.5803   22.9371 C   0  0  1  0  0  0  0  0  0  0  0  0
  -23.5991  -30.8068   21.2731 C   0  0  1  0  0  0  0  0  0  0  0  0
  -22.6322  -20.0251   22.3595 C   0  0  2  0  0  0  0  0  0  0  0  0
  -27.0375  -19.0623   24.5821 C   0  0  0  0  0  0  0  0  0  0  0  0
  -18.6056  -24.9101   21.8175 C   0  0  0  0  0  0  0  0  0  0  0  0
  -22.3500  -29.0635   25.3671 C   0  0  0  0  0  0  0  0  0  0  0  0
  -20.9227  -27.0086   25.2742 C   0  0  0  0  0  0  0  0  0  0  0  0
  -19.9446  -29.2313   24.7036 C   0  0  0  0  0  0  0  0  0  0  0  0
  -20.5587  -25.9546   18.7239 C   0  0  0  0  0  0  0  0  0  0  0  0
  -29.1192  -23.0560   17.6843 C   0  0  0  0  0  0  0  0  0  0  0  0
  -27.2926  -22.2943   20.7781 C   0  0  0  0  0  0  0  0  0  0  0  0
  -28.6990  -22.8907   20.6219 C   0  0  0  0  0  0  0  0  0  0  0  0
  -27.0256  -21.9428   23.7585 C   0  0  0  0  0  0  0  0  0  0  0  0
  -27.8766  -25.2804   20.5108 C   0  0  0  0  0  0  0  0  0  1  0  0
  -21.5556  -28.1356   23.0924 C   0  0  1  0  0  0  0  0  0  0  0  0
  -25.5867  -22.1399   24.2282 C   0  0  1  0  0  0  0  0  0  0  0  0
  -19.4241  -25.8505   20.9466 C   0  0  2  0  0  0  0  0  0  0  0  0
  -28.7696  -24.2235   19.8646 C   0  0  2  0  0  0  0  0  0  0  0  0
  -21.2162  -28.3622   24.5927 C   0  0  0  0  0  0  0  0  0  0  0  0
  -23.5403  -17.8511   21.6303 N   0  0  0  0  0  0  0  0  0  0  0  0
  -27.1465  -20.8372   22.8317 N   0  0  0  0  0  0  0  0  0  0  0  0
  -22.6017  -18.5080   22.3328 N   0  0  0  0  0  0  0  0  0  0  0  0
  -23.1552  -29.5167   21.8049 N   0  0  0  0  0  0  0  0  0  0  0  0
  -24.0655  -22.0414   22.2831 N   0  0  0  0  0  0  0  0  0  0  0  0
  -20.6983  -18.1851   23.7052 N   0  0  0  0  0  0  0  0  0  0  0  0
  -21.9539  -13.9753   22.6576 N   0  0  0  0  0  0  0  0  0  0  0  0
  -24.8211  -32.7522   22.0348 N   0  0  0  0  0  0  0  0  0  0  0  0
  -20.4891  -27.4977   22.3282 N   0  0  0  0  0  0  0  0  0  0  0  0
  -19.7726  -25.1385   19.6846 N   0  3  0  0  0  0  0  0  0  0  0  0
  -28.3050  -24.0253   18.4599 N   0  3  0  0  0  0  0  0  0  0  0  0
  -20.4091  -15.2280   23.7991 O   0  0  0  0  0  0  0  0  0  0  0  0
  -24.5779  -30.8962   23.4200 O   0  0  0  0  0  0  0  0  0  0  0  0
  -21.0237  -30.3124   22.3146 O   0  0  0  0  0  0  0  0  0  0  0  0
  -24.7902  -24.0810   23.1285 O   0  0  0  0  0  0  0  0  0  0  0  0
  -21.7346  -25.6706   21.6298 O   0  0  0  0  0  0  0  0  0  0  0  0
  -25.5588  -22.9952   25.3603 O   0  0  0  0  0  0  0  0  0  0  0  0
  -26.2863  -12.5280   19.4683 O   0  0  0  0  0  0  0  0  0  0  0  0
  -28.3083  -26.5800   20.1095 O   0  0  0  0  0  0  0  0  0  1  0  0
  -31.7742  -12.9761   19.7609 F   0  0  0  0  0  0  0  0  0  0  0  0
  -27.8033  -10.5846   20.7191 F   0  0  0  0  0  0  0  0  0  0  0  0
  1  2  1  0  0  0  0
  1  5  2  0  0  0  0
  2  6  2  0  0  0  0
  3  8  2  0  0  0  0
  3 17  1  0  0  0  0
  4  9  1  0  0  0  0
  4 17  2  0  0  0  0
  5 19  1  0  0  0  0
  6 21  1  0  0  0  0
  7 10  2  0  0  0  0
  7 20  1  0  0  0  0
  8 23  1  0  0  0  0
  9 23  2  0  0  0  0
 10 24  1  0  0  0  0
 11 12  2  0  0  0  0
 11 25  1  0  0  0  0
 12 26  1  0  0  0  0
 13 14  1  0  0  0  0
 13 29  2  0  0  0  0
 14 30  2  0  0  0  0
 15 22  1  0  0  0  0
 15 24  2  0  0  0  0
 16 26  2  0  0  0  0
 16 27  1  0  0  0  0
 17 28  1  0  0  0  0
 18 28  1  0  0  0  0
 18 31  2  0  0  0  0
 18 32  1  0  0  0  0
 19 21  2  0  0  0  0
 19 37  1  0  0  0  0
 20 22  2  0  0  0  0
 20 38  1  0  0  0  0
 21 46  1  0  0  0  0
 22 39  1  0  0  0  0
 23 82  1  0  0  0  0
 24 83  1  0  0  0  0
 25 27  2  0  0  0  0
 25 82  1  0  0  0  0
 26 84  1  0  0  0  0
 27 85  1  0  0  0  0
 28 65  2  0  0  0  0
 29 49  1  0  0  0  0
 29 66  1  0  0  0  0
 30 56  1  0  0  0  0
 30 66  1  0  0  0  0
 31 67  1  0  0  0  0
 31 70  1  0  0  0  0
 32 71  1  0  0  0  0
 32 76  2  0  0  0  0
 33 47  1  0  0  0  0
 33 72  1  0  0  0  0
 33 77  2  0  0  0  0
 34 60  1  0  0  0  0
 34 68  1  0  0  0  0
 34 78  2  0  0  0  0
 35 61  1  0  0  0  0
 35 69  1  0  0  0  0
 35 79  2  0  0  0  0
 36 62  1  0  0  0  0
 36 73  1  0  0  0  0
 36 80  2  0  0  0  0
 37 40  1  0  0  0  0
 38 47  1  0  0  0  0
 39 68  1  0  0  0  0
 40 42  1  0  0  0  0
 41 43  1  0  0  0  0
 41 44  1  0  0  0  0
 42 46  1  0  0  0  0
 43 48  1  0  0  0  0
 44 69  1  0  0  0  0
 45 48  1  0  0  0  0
 45 69  1  0  0  0  0
 46 72  1  0  0  0  0
 47 68  1  0  0  0  0
 48 67  1  0  0  0  0
 50 62  1  0  0  0  0
 51 64  1  0  0  0  0
 52 64  1  0  0  0  0
 53 64  1  0  0  0  0
 54 74  1  0  0  0  0
 55 75  1  0  0  0  0
 56 57  1  0  0  0  0
 57 63  1  0  0  0  0
 58 61  1  0  0  0  0
 58 66  1  0  0  0  0
 59 63  1  0  0  0  0
 59 83  1  0  0  0  0
 60 64  1  0  0  0  0
 60 73  1  0  0  0  0
 61 81  1  0  0  0  0
 62 74  1  0  0  0  0
 63 75  1  0  0  0  0
 65 67  1  0  0  0  0
M  CHG  2  74   1  75   1
M  ISO  4  35 100  59 101  61 100  83 101
M  END
> <Batch ID>
0110

> <Smiles>
CNC(C)C(=O)NC(C(=O)N1Cc2cc([101O:1][101CH2:1]C(CCc3ccc(C)n3C[100CH:0](O)[100C:0](=O)N3CCCC(n4nc(-c5ccc(Oc6ccc(F)cc6F)cc5)c(C(N)=O)c4N)C3)NC)ccc2CC1C(=O)NC1CCCc2ccccc21)C(C)(C)C

> <Shape>
0.247

> <Color>
0.071

> <Negative vol penalty>
0.000

$$$$

  -OEChem-04052319583D

 79 87  0     1  0  0  0  0  0999 V2000
  -32.5246  -23.8802   10.1821 C   0  0  0  0  0  0  0  0  0  0  0  0
  -31.9042  -22.9239   10.9796 C   0  0  0  0  0  0  0  0  0  0  0  0
  -23.0806   -9.8129   20.0193 C   0  0  0  0  0  0  0  0  0  0  0  0
  -23.7994   -9.9411   22.3223 C   0  0  0  0  0  0  0  0  0  0  0  0
  -33.1853  -24.9565   10.7728 C   0  0  0  0  0  0  0  0  0  0  0  0
  -31.9451  -23.0428   12.3684 C   0  0  0  0  0  0  0  0  0  0  0  0
  -28.0389  -21.6464   18.2086 C   0  0  0  0  0  0  0  0  0  0  0  0
  -22.3297   -8.6757   20.3169 C   0  0  0  0  0  0  0  0  0  0  0  0
  -23.0484   -8.8039   22.6200 C   0  0  0  0  0  0  0  0  0  0  0  0
  -28.1391  -21.0083   19.4442 C   0  0  0  0  0  0  0  0  0  0  0  0
  -22.8889   -5.3767   20.7945 C   0  0  0  0  0  0  0  0  0  0  0  0
  -22.9701   -4.2984   19.9135 C   0  0  0  0  0  0  0  0  0  0  0  0
  -29.2418  -22.9524   20.3519 C   0  0  0  0  0  0  0  0  0  0  0  0
  -31.8439  -17.5170   21.4796 C   0  0  0  0  0  0  0  0  0  0  0  0
  -20.5926   -4.4486   19.5106 C   0  0  0  0  0  0  0  0  0  0  0  0
  -29.8786  -17.8932   22.5119 C   0  0  0  0  0  0  0  0  0  0  0  0
  -23.8155  -10.4455   21.0220 C   0  0  0  0  0  0  0  0  0  0  0  0
  -24.1654  -12.9602   20.7737 C   0  0  0  0  0  0  0  0  0  0  0  0
  -33.2260  -25.0940   12.1692 C   0  0  0  0  0  0  0  0  0  0  0  0
  -28.5500  -22.9402   18.0322 C   0  0  0  0  0  0  0  0  0  0  0  0
  -32.6080  -24.1214   12.9783 C   0  0  0  0  0  0  0  0  0  0  0  0
  -29.1445  -23.6056   19.1138 C   0  0  0  0  0  0  0  0  0  0  0  0
  -30.5696  -16.9666   21.7628 C   0  0  0  0  0  0  0  0  0  0  0  0
  -22.3135   -8.1713   21.6173 C   0  0  0  0  0  0  0  0  0  0  0  0
  -28.7432  -21.6602   20.5153 C   0  0  0  0  0  0  0  0  0  0  0  0
  -21.6595   -5.9909   21.0337 C   0  0  0  0  0  0  0  0  0  0  0  0
  -21.8220   -3.8344   19.2715 C   0  0  0  0  0  0  0  0  0  0  0  0
  -20.5114   -5.5268   20.3918 C   0  0  0  0  0  0  0  0  0  0  0  0
  -24.5919  -11.6199   20.7150 C   0  0  0  0  0  0  0  0  0  0  0  0
  -31.8929  -18.7632   22.0645 C   0  0  0  0  0  0  0  0  0  0  0  0
  -25.2656  -13.6877   20.3907 C   0  0  0  0  0  0  0  0  0  0  0  0
  -22.8888  -13.4994   21.1416 C   0  0  0  0  0  0  0  0  0  0  0  0
  -30.8062  -24.2305   16.2023 C   0  0  0  0  0  0  0  0  0  0  0  0
  -29.6823  -27.0065   17.4485 C   0  0  0  0  0  0  0  0  0  0  0  0
  -28.0431  -28.5872   19.9904 C   0  0  0  0  0  0  0  0  0  0  0  0
  -30.7302  -14.7337   20.6075 C   0  0  0  0  0  0  0  0  0  0  0  0
  -33.9927  -26.2491   12.7629 C   0  0  0  0  0  0  0  0  0  0  0  0
  -28.4101  -23.6250   16.7003 C   0  0  0  0  0  0  0  0  0  0  0  0
  -29.6909  -25.0030   18.9818 C   0  0  0  0  0  0  0  0  0  0  0  0
  -33.6694  -26.5034   14.2330 C   0  0  0  0  0  0  0  0  0  0  0  0
  -29.6527  -12.1983   18.3518 C   0  0  0  0  0  0  0  0  0  0  0  0
  -33.6777  -25.1941   15.0156 C   0  0  0  0  0  0  0  0  0  0  0  0
  -28.2049  -11.9321   18.7704 C   0  0  0  0  0  0  0  0  0  0  0  0
  -30.5467  -12.4898   19.5558 C   0  0  0  0  0  0  0  0  0  0  0  0
  -28.6170  -13.2896   20.8619 C   0  0  0  0  0  0  0  0  0  0  0  0
  -32.6093  -24.2290   14.4878 C   0  0  1  0  0  0  0  0  0  0  0  0
  -29.4252  -24.7452   16.4948 C   0  0  1  0  0  0  0  0  0  0  0  0
  -27.6650  -13.0550   19.6777 C   0  0  2  0  0  0  0  0  0  0  0  0
  -32.9819  -19.7613   22.0785 C   0  0  0  0  0  0  0  0  0  0  0  0
  -27.3113  -30.8654   20.7465 C   0  0  0  0  0  0  0  0  0  0  0  0
  -32.5481  -27.6501   18.2750 C   0  0  0  0  0  0  0  0  0  0  0  0
  -31.6370  -29.4032   19.8128 C   0  0  0  0  0  0  0  0  0  0  0  0
  -31.2677  -29.5903   17.3528 C   0  0  0  0  0  0  0  0  0  0  0  0
  -25.1874  -27.8112   19.9484 C   0  0  0  0  0  0  0  0  0  0  0  0
  -30.3077  -20.2211   23.4590 C   0  0  0  0  0  0  0  0  0  0  0  0
  -29.9581  -21.3878   22.5415 C   0  0  0  0  0  0  0  0  0  1  0  0
  -30.0031  -27.8389   18.6664 C   0  0  1  0  0  0  0  0  0  0  0  0
  -26.9207  -29.6093   19.9834 C   0  0  2  0  0  0  0  0  0  0  0  0
  -31.3555  -28.5936   18.5290 C   0  0  0  0  0  0  0  0  0  0  0  0
  -25.8638  -11.5001   20.3252 N   0  0  0  0  0  0  0  0  0  0  0  0
  -30.6929  -18.9811   22.6895 N   0  0  0  0  0  0  0  0  0  0  0  0
  -26.2459  -12.7745   20.1354 N   0  0  0  0  0  0  0  0  0  0  0  0
  -29.5359  -25.6279   17.6578 N   0  0  0  0  0  0  0  0  0  0  0  0
  -29.9745  -13.5667   20.3667 N   0  0  0  0  0  0  0  0  0  0  0  0
  -25.4804  -15.0131   20.2506 N   0  0  0  0  0  0  0  0  0  0  0  0
  -21.8689  -12.6109   21.5086 N   0  0  0  0  0  0  0  0  0  0  0  0
  -30.0704  -15.7020   21.3636 N   0  0  0  0  0  0  0  0  0  0  0  0
  -31.2996  -24.6125   14.9694 N   0  0  0  0  0  0  0  0  0  0  0  0
  -28.8521  -28.7095   18.8805 N   0  0  0  0  0  0  0  0  0  0  0  0
  -25.6965  -29.0386   20.6129 N   0  3  0  0  0  0  0  0  0  0  0  0
  -22.6545  -14.7317   21.1290 O   0  0  0  0  0  0  0  0  0  0  0  0
  -31.3822  -23.5394   17.0343 O   0  0  0  0  0  0  0  0  0  0  0  0
  -29.5590  -27.5601   16.3531 O   0  0  0  0  0  0  0  0  0  0  0  0
  -28.1899  -27.7653   20.8922 O   0  0  0  0  0  0  0  0  0  0  0  0
  -31.8678  -14.8757   20.1520 O   0  0  0  0  0  0  0  0  0  0  0  0
  -21.5807   -7.0618   21.9081 O   0  0  0  0  0  0  0  0  0  0  0  0
  -28.8429  -21.0395   21.7222 O   0  0  0  0  0  0  0  0  0  1  0  0
  -21.9004   -2.7999   18.4242 F   0  0  0  0  0  0  0  0  0  0  0  0
  -19.3278   -6.1136   20.6166 F   0  0  0  0  0  0  0  0  0  0  0  0
  1  2  1  0  0  0  0
  1  5  2  0  0  0  0
  2  6  2  0  0  0  0
  3  8  2  0  0  0  0
  3 17  1  0  0  0  0
  4  9  1  0  0  0  0
  4 17  2  0  0  0  0
  5 19  1  0  0  0  0
  6 21  1  0  0  0  0
  7 10  2  0  0  0  0
  7 20  1  0  0  0  0
  8 24  1  0  0  0  0
  9 24  2  0  0  0  0
 10 25  1  0  0  0  0
 11 12  2  0  0  0  0
 11 26  1  0  0  0  0
 12 27  1  0  0  0  0
 13 22  1  0  0  0  0
 13 25  2  0  0  0  0
 14 23  1  0  0  0  0
 14 30  2  0  0  0  0
 15 27  2  0  0  0  0
 15 28  1  0  0  0  0
 16 23  2  0  0  0  0
 16 61  1  0  0  0  0
 17 29  1  0  0  0  0
 18 29  1  0  0  0  0
 18 31  2  0  0  0  0
 18 32  1  0  0  0  0
 19 21  2  0  0  0  0
 19 37  1  0  0  0  0
 20 22  2  0  0  0  0
 20 38  1  0  0  0  0
 21 46  1  0  0  0  0
 22 39  1  0  0  0  0
 23 67  1  0  0  0  0
 24 76  1  0  0  0  0
 25 77  1  0  0  0  0
 26 28  2  0  0  0  0
 26 76  1  0  0  0  0
 27 78  1  0  0  0  0
 28 79  1  0  0  0  0
 29 60  2  0  0  0  0
 30 49  1  0  0  0  0
 30 61  1  0  0  0  0
 31 62  1  0  0  0  0
 31 65  1  0  0  0  0
 32 66  1  0  0  0  0
 32 71  2  0  0  0  0
 33 47  1  0  0  0  0
 33 68  1  0  0  0  0
 33 72  2  0  0  0  0
 34 57  1  0  0  0  0
 34 63  1  0  0  0  0
 34 73  2  0  0  0  0
 35 58  1  0  0  0  0
 35 69  1  0  0  0  0
 35 74  2  0  0  0  0
 36 64  1  0  0  0  0
 36 67  1  0  0  0  0
 36 75  2  0  0  0  0
 37 40  1  0  0  0  0
 38 47  1  0  0  0  0
 39 63  1  0  0  0  0
 40 42  1  0  0  0  0
 41 43  1  0  0  0  0
 41 44  1  0  0  0  0
 42 46  1  0  0  0  0
 43 48  1  0  0  0  0
 44 64  1  0  0  0  0
 45 48  1  0  0  0  0
 45 64  1  0  0  0  0
 46 68  1  0  0  0  0
 47 63  1  0  0  0  0
 48 62  1  0  0  0  0
 50 58  1  0  0  0  0
 51 59  1  0  0  0  0
 52 59  1  0  0  0  0
 53 59  1  0  0  0  0
 54 70  1  0  0  0  0
 55 56  1  0  0  0  0
 55 61  1  0  0  0  0
 56 77  1  0  0  0  0
 57 59  1  0  0  0  0
 57 69  1  0  0  0  0
 58 70  1  0  0  0  0
 60 62  1  0  0  0  0
M  CHG  1  70   1
M  ISO  4  36 100  56 101  67 100  77 101
M  END
> <Batch ID>
0110

> <Smiles>
CNC(C)C(=O)NC(C(=O)N1Cc2cc([101O:1][101CH2:1]Cn3cc([100NH:0][100C:0](=O)N4CCCC(n5nc(-c6ccc(Oc7ccc(F)cc7F)cc6)c(C(N)=O)c5N)C4)cc3C)ccc2CC1C(=O)NC1CCCc2ccccc21)C(C)(C)C

> <Shape>
0.272

> <Color>
0.201

> <Negative vol penalty>
0.000

$$$$

  -OEChem-04052319583D

 82 89  0     1  0  0  0  0  0999 V2000
  -20.3717  -23.1657   19.9811 C   0  0  0  0  0  0  0  0  0  0  0  0
  -21.7348  -22.9252   19.8420 C   0  0  0  0  0  0  0  0  0  0  0  0
  -22.6768  -27.3772   21.0534 C   0  0  0  0  0  0  0  0  0  0  0  0
  -24.0583  -28.0278   22.9257 C   0  0  0  0  0  0  0  0  0  0  0  0
  -19.5936  -22.3228   20.7736 C   0  0  0  0  0  0  0  0  0  0  0  0
  -22.3209  -21.8422   20.4963 C   0  0  0  0  0  0  0  0  0  0  0  0
  -26.9447  -18.3776   18.4656 C   0  0  0  0  0  0  0  0  0  0  0  0
  -21.5521  -27.3916   21.8783 C   0  0  0  0  0  0  0  0  0  0  0  0
  -22.9335  -28.0422   23.7506 C   0  0  0  0  0  0  0  0  0  0  0  0
  -28.3138  -18.3927   18.7284 C   0  0  0  0  0  0  0  0  0  0  0  0
  -20.1384  -25.3791   24.1968 C   0  0  0  0  0  0  0  0  0  0  0  0
  -19.2496  -24.3087   24.0981 C   0  0  0  0  0  0  0  0  0  0  0  0
  -28.0057  -16.6814   20.4003 C   0  0  0  0  0  0  0  0  0  0  0  0
  -17.4825  -25.8335   23.4742 C   0  0  0  0  0  0  0  0  0  0  0  0
  -23.9300  -27.6953   21.5772 C   0  0  0  0  0  0  0  0  0  0  0  0
  -25.6085  -28.7517   19.9728 C   0  0  0  0  0  0  0  0  0  0  0  0
  -20.1686  -21.2233   21.4301 C   0  0  0  0  0  0  0  0  0  0  0  0
  -26.0928  -17.5206   19.1771 C   0  0  0  0  0  0  0  0  0  0  0  0
  -21.5501  -20.9846   21.2993 C   0  0  0  0  0  0  0  0  0  0  0  0
  -26.6265  -16.6555   20.1429 C   0  0  0  0  0  0  0  0  0  0  0  0
  -21.6804  -27.7240   23.2268 C   0  0  0  0  0  0  0  0  0  0  0  0
  -28.8441  -17.5466   19.6979 C   0  0  0  0  0  0  0  0  0  0  0  0
  -19.6993  -26.6768   23.9343 C   0  0  0  0  0  0  0  0  0  0  0  0
  -17.9216  -24.5359   23.7368 C   0  0  0  0  0  0  0  0  0  0  0  0
  -18.3713  -26.9040   23.5729 C   0  0  0  0  0  0  0  0  0  0  0  0
  -25.0923  -27.6801   20.7257 C   0  0  0  0  0  0  0  0  0  0  0  0
  -26.7109  -28.2286   19.3422 C   0  0  0  0  0  0  0  0  0  0  0  0
  -25.1340  -30.0995   19.8540 C   0  0  0  0  0  0  0  0  0  0  0  0
  -23.6245  -17.9312   21.1374 C   0  0  0  0  0  0  0  0  0  0  0  0
  -23.4435  -14.6974   20.9572 C   0  0  0  0  0  0  0  0  0  0  0  0
  -25.0291  -11.7360   20.3551 C   0  0  0  0  0  0  0  0  0  0  0  0
  -31.3694  -25.1790   19.7997 C   0  0  0  0  0  0  0  0  0  0  0  0
  -19.2959  -20.3677   22.3139 C   0  0  0  0  0  0  0  0  0  0  0  0
  -24.6220  -17.4972   18.8630 C   0  0  0  0  0  0  0  0  0  0  0  0
  -25.7576  -15.7020   20.9203 C   0  0  0  0  0  0  0  0  0  0  0  0
  -19.9242  -19.0234   22.6723 C   0  0  0  0  0  0  0  0  0  0  0  0
  -27.9342  -23.5039   20.2156 C   0  0  0  0  0  0  0  0  0  0  0  0
  -21.3742  -19.2108   23.1073 C   0  0  0  0  0  0  0  0  0  0  0  0
  -27.2424  -24.4695   19.2579 C   0  0  0  0  0  0  0  0  0  0  0  0
  -29.4475  -23.5370   20.0256 C   0  0  0  0  0  0  0  0  0  0  0  0
  -29.0655  -25.9930   20.2369 C   0  0  0  0  0  0  0  0  0  0  0  0
  -22.2178  -19.8056   21.9732 C   0  0  1  0  0  0  0  0  0  0  0  0
  -23.7750  -16.9511   20.0084 C   0  0  1  0  0  0  0  0  0  0  0  0
  -27.8254  -25.8977   19.3306 C   0  0  2  0  0  0  0  0  0  0  0  0
  -24.6299   -9.2587   20.3227 C   0  0  0  0  0  0  0  0  0  0  0  0
  -35.1721  -19.2084   20.9337 C   0  0  0  0  0  0  0  0  0  0  0  0
  -31.6301  -18.8236   22.1396 C   0  0  0  0  0  0  0  0  0  0  0  0
  -23.5144  -14.6486   24.0072 C   0  0  0  0  0  0  0  0  0  0  0  0
  -24.0687  -12.2101   23.8859 C   0  0  0  0  0  0  0  0  0  0  0  0
  -21.9001  -13.0412   22.9754 C   0  0  0  0  0  0  0  0  0  0  0  0
  -25.6980  -11.5487   17.4782 C   0  0  0  0  0  0  0  0  0  0  0  0
  -34.4478  -22.9975   22.9591 C   0  0  0  0  0  0  0  0  0  0  0  0
  -32.8838  -20.1953   20.3826 C   0  0  0  0  0  0  0  0  0  0  0  0
  -33.6106  -24.1658   19.4510 C   0  0  0  0  0  0  0  0  0  0  0  0
  -34.3754  -24.1662   20.7615 C   0  0  0  0  0  0  0  0  0  0  0  0
  -34.8679  -21.7272   20.8588 C   0  0  0  0  0  0  0  0  0  0  0  0
  -30.8682  -18.7938   19.7567 C   0  0  0  0  0  0  0  0  0  1  0  0
  -24.0422  -13.5483   21.7319 C   0  0  1  0  0  0  0  0  0  0  0  0
  -24.6409  -10.5403   19.5041 C   0  0  2  0  0  0  0  0  0  0  0  0
  -34.2050  -20.3734   21.1644 C   0  0  2  0  0  0  0  0  0  0  0  0
  -32.0905  -18.9016   20.6832 C   0  0  2  0  0  0  0  0  0  0  0  0
  -23.3977  -13.3813   23.1370 C   0  0  0  0  0  0  0  0  0  0  0  0
  -25.8078  -26.5608   20.5874 N   0  0  0  0  0  0  0  0  0  0  0  0
  -26.7849  -26.9262   19.7401 N   0  0  0  0  0  0  0  0  0  0  0  0
  -24.3250  -15.7209   20.5814 N   0  0  0  0  0  0  0  0  0  0  0  0
  -30.0025  -24.8960   19.9881 N   0  0  0  0  0  0  0  0  0  0  0  0
  -27.6145  -28.7603   18.4917 N   0  0  0  0  0  0  0  0  0  0  0  0
  -23.9876  -30.4698   20.5702 N   0  0  0  0  0  0  0  0  0  0  0  0
  -22.5475  -18.7861   21.0004 N   0  0  0  0  0  0  0  0  0  0  0  0
  -23.9227  -12.3728   20.8762 N   0  0  0  0  0  0  0  0  0  0  0  0
  -32.1832  -24.0589   19.6503 N   0  0  0  0  0  0  0  0  0  0  0  0
  -25.6032  -10.3710   18.3788 N   0  3  0  0  0  0  0  0  0  0  0  0
  -34.1484  -22.8610   21.4857 N   0  3  1  0  0  0  0  0  0  0  0  0
  -25.7001  -30.9457   19.1212 O   0  0  0  0  0  0  0  0  0  0  0  0
  -24.4253  -17.9121   22.0648 O   0  0  0  0  0  0  0  0  0  0  0  0
  -22.2396  -14.6838   20.6891 O   0  0  0  0  0  0  0  0  0  0  0  0
  -26.1972  -12.0693   20.5421 O   0  0  0  0  0  0  0  0  0  0  0  0
  -31.8231  -26.3269   19.7702 O   0  0  0  0  0  0  0  0  0  0  0  0
  -20.5831  -27.7384   24.0320 O   0  0  0  0  0  0  0  0  0  0  0  0
  -30.1800  -17.5599   19.9568 O   0  0  0  0  0  0  0  0  0  1  0  0
  -17.0686  -23.5077   23.6405 F   0  0  0  0  0  0  0  0  0  0  0  0
  -17.9439  -28.1483   23.3183 F   0  0  0  0  0  0  0  0  0  0  0  0
  1  2  1  0  0  0  0
  1  5  2  0  0  0  0
  2  6  2  0  0  0  0
  3  8  2  0  0  0  0
  3 15  1  0  0  0  0
  4  9  1  0  0  0  0
  4 15  2  0  0  0  0
  5 17  1  0  0  0  0
  6 19  1  0  0  0  0
  7 10  2  0  0  0  0
  7 18  1  0  0  0  0
  8 21  1  0  0  0  0
  9 21  2  0  0  0  0
 10 22  1  0  0  0  0
 11 12  2  0  0  0  0
 11 23  1  0  0  0  0
 12 24  1  0  0  0  0
 13 20  1  0  0  0  0
 13 22  2  0  0  0  0
 14 24  2  0  0  0  0
 14 25  1  0  0  0  0
 15 26  1  0  0  0  0
 16 26  1  0  0  0  0
 16 27  2  0  0  0  0
 16 28  1  0  0  0  0
 17 19  2  0  0  0  0
 17 33  1  0  0  0  0
 18 20  2  0  0  0  0
 18 34  1  0  0  0  0
 19 42  1  0  0  0  0
 20 35  1  0  0  0  0
 21 79  1  0  0  0  0
 22 80  1  0  0  0  0
 23 25  2  0  0  0  0
 23 79  1  0  0  0  0
 24 81  1  0  0  0  0
 25 82  1  0  0  0  0
 26 63  2  0  0  0  0
 27 64  1  0  0  0  0
 27 67  1  0  0  0  0
 28 68  1  0  0  0  0
 28 74  2  0  0  0  0
 29 43  1  0  0  0  0
 29 69  1  0  0  0  0
 29 75  2  0  0  0  0
 30 58  1  0  0  0  0
 30 65  1  0  0  0  0
 30 76  2  0  0  0  0
 31 59  1  0  0  0  0
 31 70  1  0  0  0  0
 31 77  2  0  0  0  0
 32 66  1  0  0  0  0
 32 71  1  0  0  0  0
 32 78  2  0  0  0  0
 33 36  1  0  0  0  0
 34 43  1  0  0  0  0
 35 65  1  0  0  0  0
 36 38  1  0  0  0  0
 37 39  1  0  0  0  0
 37 40  1  0  0  0  0
 38 42  1  0  0  0  0
 39 44  1  0  0  0  0
 40 66  1  0  0  0  0
 41 44  1  0  0  0  0
 41 66  1  0  0  0  0
 42 69  1  0  0  0  0
 43 65  1  0  0  0  0
 44 64  1  0  0  0  0
 45 59  1  0  0  0  0
 46 60  1  0  0  0  0
 47 61  1  0  0  0  0
 48 62  1  0  0  0  0
 49 62  1  0  0  0  0
 50 62  1  0  0  0  0
 51 72  1  0  0  0  0
 52 73  1  0  0  0  0
 53 60  1  0  0  0  0
 53 61  1  0  0  0  0
 54 55  1  0  0  0  0
 54 71  1  0  0  0  0
 55 73  1  0  0  0  0
 56 60  1  0  0  0  0
 56 73  1  0  0  0  0
 57 61  1  0  0  0  0
 57 80  1  0  0  0  0
 58 62  1  0  0  0  0
 58 70  1  0  0  0  0
 59 72  1  0  0  0  0
 63 64  1  0  0  0  0
M  CHG  2  72   1  73   1
M  ISO  4  32 100  57 101  71 100  80 101
M  END
> <Batch ID>
0110

> <Smiles>
CNC(C)C(=O)NC(C(=O)N1Cc2cc([101O:1][101CH2:1]C(C)CC(C)CN(C)CC[100NH:0][100C:0](=O)N3CCCC(n4nc(-c5ccc(Oc6ccc(F)cc6F)cc5)c(C(N)=O)c4N)C3)ccc2CC1C(=O)NC1CCCc2ccccc21)C(C)(C)C

> <Shape>
0.187

> <Color>
0.066

> <Negative vol penalty>
0.000

$$$$

  -OEChem-04052319583D

 86 94  0     1  0  0  0  0  0999 V2000
  -18.9679  -16.2821   18.9747 C   0  0  0  0  0  0  0  0  0  0  0  0
  -20.1111  -17.0571   18.8082 C   0  0  0  0  0  0  0  0  0  0  0  0
  -23.4023  -30.0214   20.4356 C   0  0  0  0  0  0  0  0  0  0  0  0
  -23.0171  -28.4631   22.2412 C   0  0  0  0  0  0  0  0  0  0  0  0
  -18.9868  -15.1915   19.8432 C   0  0  0  0  0  0  0  0  0  0  0  0
  -21.2737  -16.7428   19.5110 C   0  0  0  0  0  0  0  0  0  0  0  0
  -27.0429  -17.3854   17.5595 C   0  0  0  0  0  0  0  0  0  0  0  0
  -22.3571  -30.8192   20.9011 C   0  0  0  0  0  0  0  0  0  0  0  0
  -21.9719  -29.2608   22.7068 C   0  0  0  0  0  0  0  0  0  0  0  0
  -28.0023  -18.3733   17.7774 C   0  0  0  0  0  0  0  0  0  0  0  0
  -18.7357  -29.8381   21.9163 C   0  0  0  0  0  0  0  0  0  0  0  0
  -17.5489  -29.2030   22.2818 C   0  0  0  0  0  0  0  0  0  0  0  0
  -25.7917  -22.4260   23.3803 C   0  0  0  0  0  0  0  0  0  0  0  0
  -24.6937  -21.6585   23.8414 C   0  0  0  0  0  0  0  0  0  0  0  0
  -28.9456  -17.0546   19.5636 C   0  0  0  0  0  0  0  0  0  0  0  0
  -17.7793  -30.0649   24.5271 C   0  0  0  0  0  0  0  0  0  0  0  0
  -23.7323  -28.8433   21.1057 C   0  0  0  0  0  0  0  0  0  0  0  0
  -26.1698  -28.1005   20.9857 C   0  0  0  0  0  0  0  0  0  0  0  0
  -20.1530  -14.8578   20.5497 C   0  0  0  0  0  0  0  0  0  0  0  0
  -27.0209  -16.2277   18.3505 C   0  0  0  0  0  0  0  0  0  0  0  0
  -21.3078  -15.6475   20.3908 C   0  0  0  0  0  0  0  0  0  0  0  0
  -27.9865  -16.0524   19.3520 C   0  0  0  0  0  0  0  0  0  0  0  0
  -21.6419  -30.4389   22.0367 C   0  0  0  0  0  0  0  0  0  0  0  0
  -28.9521  -18.2093   18.7815 C   0  0  0  0  0  0  0  0  0  0  0  0
  -19.4444  -30.5866   22.8561 C   0  0  0  0  0  0  0  0  0  0  0  0
  -17.0707  -29.3164   23.5872 C   0  0  0  0  0  0  0  0  0  0  0  0
  -18.9661  -30.7000   24.1615 C   0  0  0  0  0  0  0  0  0  0  0  0
  -24.8115  -28.0185   20.6250 C   0  0  0  0  0  0  0  0  0  0  0  0
  -26.2005  -21.8810   22.1832 C   0  0  0  0  0  0  0  0  0  0  0  0
  -24.4652  -20.6678   22.9121 C   0  0  0  0  0  0  0  0  0  0  0  0
  -26.7787  -27.1067   20.2590 C   0  0  0  0  0  0  0  0  0  0  0  0
  -26.8228  -28.9949   21.8964 C   0  0  0  0  0  0  0  0  0  0  0  0
  -24.9307  -14.9217   20.3576 C   0  0  0  0  0  0  0  0  0  0  0  0
  -27.0729  -12.4861   20.3889 C   0  0  0  0  0  0  0  0  0  0  0  0
  -30.2925  -11.4534   19.9262 C   0  0  0  0  0  0  0  0  0  0  0  0
  -24.7837  -21.9836   17.8873 C   0  0  0  0  0  0  0  0  0  0  0  0
  -20.1114  -13.6982   21.5131 C   0  0  0  0  0  0  0  0  0  0  0  0
  -25.9960  -15.1593   18.0851 C   0  0  0  0  0  0  0  0  0  0  0  0
  -28.0186  -14.8186   20.2153 C   0  0  0  0  0  0  0  0  0  0  0  0
  -21.4937  -13.2078   21.9362 C   0  0  0  0  0  0  0  0  0  0  0  0
  -26.3596  -24.6704   16.1627 C   0  0  0  0  0  0  0  0  0  0  0  0
  -22.3862  -14.3863   22.3124 C   0  0  0  0  0  0  0  0  0  0  0  0
  -26.2641  -25.8405   17.1433 C   0  0  0  0  0  0  0  0  0  0  0  0
  -25.1173  -23.7841   16.2190 C   0  0  0  0  0  0  0  0  0  0  0  0
  -24.6715  -24.4636   18.5456 C   0  0  0  0  0  0  0  0  0  0  0  0
  -22.5955  -15.3235   21.1168 C   0  0  1  0  0  0  0  0  0  0  0  0
  -25.7500  -14.2551   19.2890 C   0  0  1  0  0  0  0  0  0  0  0  0
  -25.9256  -25.3542   18.5654 C   0  0  2  0  0  0  0  0  0  0  0  0
  -22.0001  -20.1444   22.8542 C   0  0  0  0  0  0  0  0  0  0  0  0
  -23.5837  -18.6204   24.0890 C   0  0  0  0  0  0  0  0  0  0  0  0
  -31.7455   -9.4120   20.0638 C   0  0  0  0  0  0  0  0  0  0  0  0
  -27.0903  -12.7065   23.4321 C   0  0  0  0  0  0  0  0  0  0  0  0
  -29.1977  -11.3549   23.4483 C   0  0  0  0  0  0  0  0  0  0  0  0
  -27.0895  -10.3642   22.5559 C   0  0  0  0  0  0  0  0  0  0  0  0
  -30.9641  -11.5953   17.0474 C   0  0  0  0  0  0  0  0  0  0  0  0
  -27.3141  -22.2973   21.2679 C   0  0  0  0  0  0  0  0  0  0  0  0
  -30.7550  -20.7758   20.5564 C   0  0  0  0  0  0  0  0  0  0  0  0
  -25.4867  -19.9667   20.7379 C   0  0  0  0  0  0  0  0  0  0  0  0
  -24.4425  -20.2953   19.6741 C   0  0  0  0  0  0  0  0  0  0  0  0
  -29.5895  -21.7411   20.4009 C   0  0  0  0  0  0  0  0  0  0  0  0
  -30.3773  -19.3171   20.3299 C   0  0  0  0  0  0  0  0  0  1  0  0
  -23.4457  -19.5985   22.9000 C   0  0  0  0  0  0  0  0  0  0  0  0
  -28.2881  -12.1417   21.2157 C   0  0  1  0  0  0  0  0  0  0  0  0
  -30.8729  -10.2748   19.1655 C   0  0  2  0  0  0  0  0  0  0  0  0
  -27.9149  -11.6661   22.6482 C   0  0  0  0  0  0  0  0  0  0  0  0
  -24.5712  -27.0494   19.7379 N   0  0  0  0  0  0  0  0  0  0  0  0
  -25.3872  -20.8126   21.9087 N   0  0  0  0  0  0  0  0  0  0  0  0
  -25.7868  -26.5132   19.5351 N   0  0  0  0  0  0  0  0  0  0  0  0
  -26.9918  -13.8054   19.9212 N   0  0  0  0  0  0  0  0  0  0  0  0
  -24.8524  -23.3557   17.5946 N   0  0  0  0  0  0  0  0  0  0  0  0
  -28.0604  -26.6914   20.1750 N   0  0  0  0  0  0  0  0  0  0  0  0
  -26.0480  -29.9562   22.5598 N   0  0  0  0  0  0  0  0  0  0  0  0
  -23.5667  -14.7650   20.2008 N   0  0  0  0  0  0  0  0  0  0  0  0
  -29.0460  -11.1655   20.4405 N   0  0  0  0  0  0  0  0  0  0  0  0
  -24.5353  -21.6638   19.2165 N   0  0  0  0  0  0  0  0  0  0  0  0
  -31.7022  -10.7531   18.0235 N   0  3  0  0  0  0  0  0  0  0  0  0
  -28.4962  -21.3946   21.3391 N   0  3  0  0  0  0  0  0  0  0  0  0
  -28.0593  -28.9539   22.1030 O   0  0  0  0  0  0  0  0  0  0  0  0
  -25.4942  -15.5318   21.2587 O   0  0  0  0  0  0  0  0  0  0  0  0
  -26.2302  -11.6147   20.1603 O   0  0  0  0  0  0  0  0  0  0  0  0
  -30.8872  -12.5212   20.0547 O   0  0  0  0  0  0  0  0  0  0  0  0
  -24.9379  -21.1083   17.0288 O   0  0  0  0  0  0  0  0  0  0  0  0
  -20.6221  -31.2172   22.4914 O   0  0  0  0  0  0  0  0  0  0  0  0
  -29.8892  -19.1723   18.9968 O   0  0  0  0  0  0  0  0  0  1  0  0
  -15.9302  -28.7076   23.9378 F   0  0  0  0  0  0  0  0  0  0  0  0
  -19.6419  -31.4187   25.0685 F   0  0  0  0  0  0  0  0  0  0  0  0
  1  2  1  0  0  0  0
  1  5  2  0  0  0  0
  2  6  2  0  0  0  0
  3  8  2  0  0  0  0
  3 17  1  0  0  0  0
  4  9  1  0  0  0  0
  4 17  2  0  0  0  0
  5 19  1  0  0  0  0
  6 21  1  0  0  0  0
  7 10  2  0  0  0  0
  7 20  1  0  0  0  0
  8 23  1  0  0  0  0
  9 23  2  0  0  0  0
 10 24  1  0  0  0  0
 11 12  2  0  0  0  0
 11 25  1  0  0  0  0
 12 26  1  0  0  0  0
 13 14  1  0  0  0  0
 13 29  2  0  0  0  0
 14 30  2  0  0  0  0
 15 22  1  0  0  0  0
 15 24  2  0  0  0  0
 16 26  2  0  0  0  0
 16 27  1  0  0  0  0
 17 28  1  0  0  0  0
 18 28  1  0  0  0  0
 18 31  2  0  0  0  0
 18 32  1  0  0  0  0
 19 21  2  0  0  0  0
 19 37  1  0  0  0  0
 20 22  2  0  0  0  0
 20 38  1  0  0  0  0
 21 46  1  0  0  0  0
 22 39  1  0  0  0  0
 23 83  1  0  0  0  0
 24 84  1  0  0  0  0
 25 27  2  0  0  0  0
 25 83  1  0  0  0  0
 26 85  1  0  0  0  0
 27 86  1  0  0  0  0
 28 66  2  0  0  0  0
 29 56  1  0  0  0  0
 29 67  1  0  0  0  0
 30 62  1  0  0  0  0
 30 67  1  0  0  0  0
 31 68  1  0  0  0  0
 31 71  1  0  0  0  0
 32 72  1  0  0  0  0
 32 78  2  0  0  0  0
 33 47  1  0  0  0  0
 33 73  1  0  0  0  0
 33 79  2  0  0  0  0
 34 63  1  0  0  0  0
 34 69  1  0  0  0  0
 34 80  2  0  0  0  0
 35 64  1  0  0  0  0
 35 74  1  0  0  0  0
 35 81  2  0  0  0  0
 36 70  1  0  0  0  0
 36 75  1  0  0  0  0
 36 82  2  0  0  0  0
 37 40  1  0  0  0  0
 38 47  1  0  0  0  0
 39 69  1  0  0  0  0
 40 42  1  0  0  0  0
 41 43  1  0  0  0  0
 41 44  1  0  0  0  0
 42 46  1  0  0  0  0
 43 48  1  0  0  0  0
 44 70  1  0  0  0  0
 45 48  1  0  0  0  0
 45 70  1  0  0  0  0
 46 73  1  0  0  0  0
 47 69  1  0  0  0  0
 48 68  1  0  0  0  0
 49 62  1  0  0  0  0
 50 62  1  0  0  0  0
 51 64  1  0  0  0  0
 52 65  1  0  0  0  0
 53 65  1  0  0  0  0
 54 65  1  0  0  0  0
 55 76  1  0  0  0  0
 56 77  1  0  0  0  0
 57 60  1  0  0  0  0
 57 61  1  0  0  0  0
 58 59  1  0  0  0  0
 58 67  1  0  0  0  0
 59 75  1  0  0  0  0
 60 77  1  0  0  0  0
 61 84  1  0  0  0  0
 63 65  1  0  0  0  0
 63 74  1  0  0  0  0
 64 76  1  0  0  0  0
 66 68  1  0  0  0  0
M  CHG  2  76   1  77   1
M  ISO  4  36 100  61 101  75 100  84 101
M  END
> <Batch ID>
0110

> <Smiles>
CNC(C)C(=O)NC(C(=O)N1Cc2cc([101O:1][101CH2:1]CCNCc3ccc(C(C)C)n3CC[100NH:0][100C:0](=O)N3CCCC(n4nc(-c5ccc(Oc6ccc(F)cc6F)cc5)c(C(N)=O)c4N)C3)ccc2CC1C(=O)NC1CCCc2ccccc21)C(C)(C)C

> <Shape>
0.229

> <Color>
0.058

> <Negative vol penalty>
0.000

$$$$

  -OEChem-04052319583D

 79 86  0     1  0  0  0  0  0999 V2000
  -32.1984  -14.7390   20.9694 C   0  0  0  0  0  0  0  0  0  0  0  0
  -31.2743  -15.7371   21.2614 C   0  0  0  0  0  0  0  0  0  0  0  0
  -27.8458  -29.4750   21.3635 C   0  0  0  0  0  0  0  0  0  0  0  0
  -27.5255  -27.6973   22.9680 C   0  0  0  0  0  0  0  0  0  0  0  0
  -31.7853  -13.5765   20.3200 C   0  0  0  0  0  0  0  0  0  0  0  0
  -29.9366  -15.5736   20.9032 C   0  0  0  0  0  0  0  0  0  0  0  0
  -25.0311  -17.5634   23.9826 C   0  0  0  0  0  0  0  0  0  0  0  0
  -27.1426  -30.3495   22.1920 C   0  0  0  0  0  0  0  0  0  0  0  0
  -26.8223  -28.5718   23.7965 C   0  0  0  0  0  0  0  0  0  0  0  0
  -24.2189  -18.6861   23.8287 C   0  0  0  0  0  0  0  0  0  0  0  0
  -27.7407  -32.1556   24.9871 C   0  0  0  0  0  0  0  0  0  0  0  0
  -28.2760  -33.4275   25.1904 C   0  0  0  0  0  0  0  0  0  0  0  0
  -22.6547  -17.3713   22.5466 C   0  0  0  0  0  0  0  0  0  0  0  0
  -26.2803  -34.4170   24.2550 C   0  0  0  0  0  0  0  0  0  0  0  0
  -28.0372  -28.1489   21.7515 C   0  0  0  0  0  0  0  0  0  0  0  0
  -30.1492  -26.9988   20.9002 C   0  0  0  0  0  0  0  0  0  0  0  0
  -30.4402  -13.3944   19.9623 C   0  0  0  0  0  0  0  0  0  0  0  0
  -24.6659  -16.3368   23.4094 C   0  0  0  0  0  0  0  0  0  0  0  0
  -29.5054  -14.4081   20.2472 C   0  0  0  0  0  0  0  0  0  0  0  0
  -23.4627  -16.2339   22.6968 C   0  0  0  0  0  0  0  0  0  0  0  0
  -26.6308  -29.8979   23.4084 C   0  0  0  0  0  0  0  0  0  0  0  0
  -23.0319  -18.5909   23.1082 C   0  0  0  0  0  0  0  0  0  0  0  0
  -26.4752  -32.0144   24.4177 C   0  0  0  0  0  0  0  0  0  0  0  0
  -27.5458  -34.5582   24.8244 C   0  0  0  0  0  0  0  0  0  0  0  0
  -25.7450  -33.1451   24.0516 C   0  0  0  0  0  0  0  0  0  0  0  0
  -28.7631  -27.2449   20.8959 C   0  0  0  0  0  0  0  0  0  0  0  0
  -30.3357  -26.0681   19.9076 C   0  0  0  0  0  0  0  0  0  0  0  0
  -31.1762  -27.5612   21.7277 C   0  0  0  0  0  0  0  0  0  0  0  0
  -25.9416  -14.4143   21.2229 C   0  0  0  0  0  0  0  0  0  0  0  0
  -23.4998  -12.4592   22.0818 C   0  0  0  0  0  0  0  0  0  0  0  0
  -20.3804  -12.1398   23.4286 C   0  0  0  0  0  0  0  0  0  0  0  0
  -26.7404  -21.9687   17.4338 C   0  0  0  0  0  0  0  0  0  0  0  0
  -30.0497  -12.1413   19.2194 C   0  0  0  0  0  0  0  0  0  0  0  0
  -25.5398  -15.1286   23.6071 C   0  0  0  0  0  0  0  0  0  0  0  0
  -23.0154  -14.9352   22.0790 C   0  0  0  0  0  0  0  0  0  0  0  0
  -28.5452  -11.8833   19.2087 C   0  0  0  0  0  0  0  0  0  0  0  0
  -28.4660  -24.5936   15.7578 C   0  0  0  0  0  0  0  0  0  0  0  0
  -27.7873  -13.1593   18.8564 C   0  0  0  0  0  0  0  0  0  0  0  0
  -28.8629  -25.5485   16.8849 C   0  0  0  0  0  0  0  0  0  0  0  0
  -27.0980  -23.9627   16.0081 C   0  0  0  0  0  0  0  0  0  0  0  0
  -27.3505  -24.2505   18.4427 C   0  0  0  0  0  0  0  0  0  0  0  0
  -28.0410  -14.2568   19.8968 C   0  0  1  0  0  0  0  0  0  0  0  0
  -25.3243  -14.0550   22.5448 C   0  0  1  0  0  0  0  0  0  0  0  0
  -28.7475  -24.8687   18.2625 C   0  0  2  0  0  0  0  0  0  0  0  0
  -18.6323  -10.4207   23.9638 C   0  0  0  0  0  0  0  0  0  0  0  0
  -24.6256  -18.3301   19.5130 C   0  0  0  0  0  0  0  0  0  0  0  0
  -22.3699  -21.7862   24.1094 C   0  0  0  0  0  0  0  0  0  0  0  0
  -22.7466  -12.3094   19.1288 C   0  0  0  0  0  0  0  0  0  0  0  0
  -20.5156  -11.4042   19.8155 C   0  0  0  0  0  0  0  0  0  0  0  0
  -22.5944  -10.1355   20.3559 C   0  0  0  0  0  0  0  0  0  0  0  0
  -20.4927  -12.7572   26.3209 C   0  0  0  0  0  0  0  0  0  0  0  0
  -22.5887  -21.6518   21.6022 C   0  0  0  0  0  0  0  0  0  0  0  0
  -26.4278  -20.0613   18.9905 C   0  0  0  0  0  0  0  0  0  0  0  0
  -22.9953  -20.8472   20.3707 C   0  0  0  0  0  0  0  0  0  0  0  0
  -22.0757  -12.2618   21.6216 C   0  0  1  0  0  0  0  0  0  0  0  0
  -19.8309  -11.1983   24.4850 C   0  0  2  0  0  0  0  0  0  0  0  0
  -24.9423  -19.7898   19.2174 C   0  0  2  0  0  0  0  0  0  0  0  0
  -22.8824  -20.9583   22.9375 C   0  0  2  0  0  0  0  0  0  1  0  0
  -21.9922  -11.5528   20.2403 C   0  0  0  0  0  0  0  0  0  0  0  0
  -28.1151  -26.5285   19.9735 N   0  0  0  0  0  0  0  0  0  0  0  0
  -29.0983  -25.8231   19.3889 N   0  0  0  0  0  0  0  0  0  0  0  0
  -23.9072  -13.7838   22.2947 N   0  0  0  0  0  0  0  0  0  0  0  0
  -27.0554  -23.3337   17.3304 N   0  0  0  0  0  0  0  0  0  0  0  0
  -31.4359  -25.4436   19.4364 N   0  0  0  0  0  0  0  0  0  0  0  0
  -30.8108  -28.5040   22.6982 N   0  0  0  0  0  0  0  0  0  0  0  0
  -27.2573  -14.0140   21.0890 N   0  0  0  0  0  0  0  0  0  0  0  0
  -21.3929  -11.5537   22.6990 N   0  0  0  0  0  0  0  0  0  0  0  0
  -26.7279  -21.4502   18.7229 N   0  0  0  0  0  0  0  0  0  0  0  0
  -19.4060  -11.9640   25.6909 N   0  3  0  0  0  0  0  0  0  0  0  0
  -24.4592  -20.6179   20.3568 N   0  3  0  0  0  0  0  0  0  0  0  0
  -32.3844  -27.2494   21.5988 O   0  0  0  0  0  0  0  0  0  0  0  0
  -25.2731  -15.0094   20.3857 O   0  0  0  0  0  0  0  0  0  0  0  0
  -24.2220  -11.4739   22.2533 O   0  0  0  0  0  0  0  0  0  0  0  0
  -19.9516  -13.2799   23.2645 O   0  0  0  0  0  0  0  0  0  0  0  0
  -26.4941  -21.2630   16.4498 O   0  0  0  0  0  0  0  0  0  0  0  0
  -25.9448  -30.7510   24.2172 O   0  0  0  0  0  0  0  0  0  0  0  0
  -22.2377  -19.6854   22.9560 O   0  0  0  0  0  0  0  0  0  1  0  0
  -28.0594  -35.7796   25.0211 F   0  0  0  0  0  0  0  0  0  0  0  0
  -24.5282  -33.0158   23.5052 F   0  0  0  0  0  0  0  0  0  0  0  0
  1  2  1  0  0  0  0
  1  5  2  0  0  0  0
  2  6  2  0  0  0  0
  3  8  2  0  0  0  0
  3 15  1  0  0  0  0
  4  9  1  0  0  0  0
  4 15  2  0  0  0  0
  5 17  1  0  0  0  0
  6 19  1  0  0  0  0
  7 10  2  0  0  0  0
  7 18  1  0  0  0  0
  8 21  1  0  0  0  0
  9 21  2  0  0  0  0
 10 22  1  0  0  0  0
 11 12  2  0  0  0  0
 11 23  1  0  0  0  0
 12 24  1  0  0  0  0
 13 20  1  0  0  0  0
 13 22  2  0  0  0  0
 14 24  2  0  0  0  0
 14 25  1  0  0  0  0
 15 26  1  0  0  0  0
 16 26  1  0  0  0  0
 16 27  2  0  0  0  0
 16 28  1  0  0  0  0
 17 19  2  0  0  0  0
 17 33  1  0  0  0  0
 18 20  2  0  0  0  0
 18 34  1  0  0  0  0
 19 42  1  0  0  0  0
 20 35  1  0  0  0  0
 21 76  1  0  0  0  0
 22 77  1  0  0  0  0
 23 25  2  0  0  0  0
 23 76  1  0  0  0  0
 24 78  1  0  0  0  0
 25 79  1  0  0  0  0
 26 60  2  0  0  0  0
 27 61  1  0  0  0  0
 27 64  1  0  0  0  0
 28 65  1  0  0  0  0
 28 71  2  0  0  0  0
 29 43  1  0  0  0  0
 29 66  1  0  0  0  0
 29 72  2  0  0  0  0
 30 55  1  0  0  0  0
 30 62  1  0  0  0  0
 30 73  2  0  0  0  0
 31 56  1  0  0  0  0
 31 67  1  0  0  0  0
 31 74  2  0  0  0  0
 32 63  1  0  0  0  0
 32 68  1  0  0  0  0
 32 75  2  0  0  0  0
 33 36  1  0  0  0  0
 34 43  1  0  0  0  0
 35 62  1  0  0  0  0
 36 38  1  0  0  0  0
 37 39  1  0  0  0  0
 37 40  1  0  0  0  0
 38 42  1  0  0  0  0
 39 44  1  0  0  0  0
 40 63  1  0  0  0  0
 41 44  1  0  0  0  0
 41 63  1  0  0  0  0
 42 66  1  0  0  0  0
 43 62  1  0  0  0  0
 44 61  1  0  0  0  0
 45 56  1  0  0  0  0
 46 57  1  0  0  0  0
 47 58  1  0  0  0  0
 48 59  1  0  0  0  0
 49 59  1  0  0  0  0
 50 59  1  0  0  0  0
 51 69  1  0  0  0  0
 52 54  1  0  0  0  0
 52 58  1  0  0  0  0
 53 57  1  0  0  0  0
 53 68  1  0  0  0  0
 54 70  1  0  0  0  0
 55 59  1  0  0  0  0
 55 67  1  0  0  0  0
 56 69  1  0  0  0  0
 57 70  1  0  0  0  0
 58 77  1  0  0  0  0
 60 61  1  0  0  0  0
M  CHG  2  69   1  70   1
M  ISO  4  32 100  58 101  68 100  77 101
M  END
> <Batch ID>
0110

> <Smiles>
CNC(C)C(=O)NC(C(=O)N1Cc2cc([101O:1][101CH:1](C)CCNC(C)C[100NH:0][100C:0](=O)N3CCCC(n4nc(-c5ccc(Oc6ccc(F)cc6F)cc5)c(C(N)=O)c4N)C3)ccc2CC1C(=O)NC1CCCc2ccccc21)C(C)(C)C

> <Shape>
0.223

> <Color>
0.066

> <Negative vol penalty>
0.000

$$$$

  -OEChem-04052319583D

 83 91  0     1  0  0  0  0  0999 V2000
  -29.0828  -35.8834   22.4230 C   0  0  0  0  0  0  0  0  0  0  0  0
  -29.1797  -34.4971   22.3598 C   0  0  0  0  0  0  0  0  0  0  0  0
  -27.3754  -13.2896   22.5684 C   0  0  0  0  0  0  0  0  0  0  0  0
  -26.7757  -12.9027   20.2602 C   0  0  0  0  0  0  0  0  0  0  0  0
  -27.9077  -36.4788   22.8800 C   0  0  0  0  0  0  0  0  0  0  0  0
  -28.1020  -33.7052   22.7545 C   0  0  0  0  0  0  0  0  0  0  0  0
  -27.1785  -29.9254   19.5133 C   0  0  0  0  0  0  0  0  0  0  0  0
  -26.8975  -12.0232   22.9049 C   0  0  0  0  0  0  0  0  0  0  0  0
  -26.2978  -11.6362   20.5967 C   0  0  0  0  0  0  0  0  0  0  0  0
  -28.0131  -28.8106   19.5808 C   0  0  0  0  0  0  0  0  0  0  0  0
  -24.5905   -8.4427   20.9082 C   0  0  0  0  0  0  0  0  0  0  0  0
  -23.3613   -8.0516   20.3776 C   0  0  0  0  0  0  0  0  0  0  0  0
  -26.3325  -27.6370   20.8526 C   0  0  0  0  0  0  0  0  0  0  0  0
  -22.2933   -9.9210   21.4739 C   0  0  0  0  0  0  0  0  0  0  0  0
  -27.3145  -13.7294   21.2460 C   0  0  0  0  0  0  0  0  0  0  0  0
  -29.1153  -15.3756   20.5012 C   0  0  0  0  0  0  0  0  0  0  0  0
  -26.8116  -35.6940   23.2714 C   0  0  0  0  0  0  0  0  0  0  0  0
  -25.9170  -29.9082   20.1254 C   0  0  0  0  0  0  0  0  0  0  0  0
  -26.9117  -34.2906   23.2184 C   0  0  0  0  0  0  0  0  0  0  0  0
  -25.4828  -28.7519   20.7892 C   0  0  0  0  0  0  0  0  0  0  0  0
  -26.3587  -11.1964   21.9191 C   0  0  0  0  0  0  0  0  0  0  0  0
  -27.5913  -27.6672   20.2529 C   0  0  0  0  0  0  0  0  0  0  0  0
  -24.6712   -9.5730   21.7217 C   0  0  0  0  0  0  0  0  0  0  0  0
  -22.2126   -8.7907   20.6605 C   0  0  0  0  0  0  0  0  0  0  0  0
  -23.5226  -10.3121   22.0045 C   0  0  0  0  0  0  0  0  0  0  0  0
  -27.8075  -15.0378   20.8979 C   0  0  0  0  0  0  0  0  0  0  0  0
  -29.0691  -16.7312   20.2851 C   0  0  0  0  0  0  0  0  0  0  0  0
  -30.2687  -14.5389   20.3423 C   0  0  0  0  0  0  0  0  0  0  0  0
  -24.5287  -31.5733   22.4499 C   0  0  0  0  0  0  0  0  0  0  0  0
  -21.9105  -29.8691   21.5761 C   0  0  0  0  0  0  0  0  0  0  0  0
  -20.6369  -27.0619   20.1118 C   0  0  0  0  0  0  0  0  0  0  0  0
  -26.6290  -21.1212   18.1124 C   0  0  0  0  0  0  0  0  0  0  0  0
  -25.5793  -36.3819   23.8032 C   0  0  0  0  0  0  0  0  0  0  0  0
  -25.0179  -31.1094   20.0206 C   0  0  0  0  0  0  0  0  0  0  0  0
  -24.1293  -28.6753   21.4456 C   0  0  0  0  0  0  0  0  0  0  0  0
  -24.3493  -35.4788   23.8486 C   0  0  0  0  0  0  0  0  0  0  0  0
  -25.4867  -20.1249   21.3988 C   0  0  0  0  0  0  0  0  0  0  0  0
  -29.0319  -23.6267   21.0802 C   0  0  0  0  0  0  0  0  0  0  0  0
  -24.7025  -34.1261   24.4587 C   0  0  0  0  0  0  0  0  0  0  0  0
  -26.1033  -18.7307   21.5253 C   0  0  0  0  0  0  0  0  0  0  0  0
  -30.1932  -24.2479   20.3252 C   0  0  0  0  0  0  0  0  0  0  0  0
  -25.0156  -20.3937   19.9726 C   0  0  0  0  0  0  0  0  0  0  0  0
  -26.6873  -18.8309   19.0578 C   0  0  0  0  0  0  0  0  0  0  0  0
  -28.1655  -23.0755   19.9702 C   0  0  0  0  0  0  0  0  0  0  0  0
  -25.7554  -33.3981   23.6144 C   0  0  1  0  0  0  0  0  0  0  0  0
  -23.9618  -31.1630   21.1203 C   0  0  1  0  0  0  0  0  0  0  0  0
  -27.2039  -18.5069   20.4714 C   0  0  2  0  0  0  0  0  0  0  0  0
  -29.5640  -24.8780   19.0828 C   0  0  2  0  0  0  0  0  0  0  0  0
  -18.4602  -25.9319   19.5803 C   0  0  0  0  0  0  0  0  0  0  0  0
  -25.9908  -25.9258   16.6468 C   0  0  0  0  0  0  0  0  0  0  0  0
  -24.0723  -24.4989   17.3579 C   0  0  0  0  0  0  0  0  0  0  0  0
  -21.6338  -29.0334   24.4976 C   0  0  0  0  0  0  0  0  0  0  0  0
  -20.0856  -27.2106   23.7570 C   0  0  0  0  0  0  0  0  0  0  0  0
  -19.4766  -29.5977   23.3651 C   0  0  0  0  0  0  0  0  0  0  0  0
  -26.2616  -22.9637   15.8092 C   0  0  0  0  0  0  0  0  0  0  0  0
  -21.1711  -27.1449   17.2020 C   0  0  0  0  0  0  0  0  0  0  0  0
  -29.3039  -26.3701   19.2329 C   0  0  0  0  0  0  0  0  0  1  0  0
  -27.9581  -23.6686   17.5324 C   0  0  0  0  0  0  0  0  0  0  0  0
  -21.3127  -28.5440   21.9829 C   0  0  1  0  0  0  0  0  0  0  0  0
  -19.5427  -26.8738   19.0765 C   0  0  2  0  0  0  0  0  0  0  0  0
  -25.5823  -24.7298   17.5229 C   0  0  0  0  0  0  0  0  0  0  0  0
  -20.6535  -28.5982   23.3900 C   0  0  0  0  0  0  0  0  0  0  0  0
  -26.4511  -23.4463   17.2642 C   0  0  1  0  0  0  0  0  0  0  0  0
  -26.9902  -16.0937   20.9327 N   0  0  0  0  0  0  0  0  0  0  0  0
  -27.7866  -17.1083   20.5552 N   0  0  0  0  0  0  0  0  0  0  0  0
  -23.2892  -29.8779   21.3211 N   0  0  0  0  0  0  0  0  0  0  0  0
  -26.1151  -20.1809   19.0208 N   0  0  0  0  0  0  0  0  0  0  0  0
  -30.0010  -17.6255   19.8923 N   0  0  0  0  0  0  0  0  0  0  0  0
  -30.1412  -13.1683   20.6059 N   0  0  0  0  0  0  0  0  0  0  0  0
  -25.1445  -32.8102   22.4415 N   0  0  0  0  0  0  0  0  0  0  0  0
  -20.4010  -28.1609   20.9103 N   0  0  0  0  0  0  0  0  0  0  0  0
  -26.0272  -22.3734   18.1361 N   0  0  0  0  0  0  0  0  0  0  0  0
  -28.2269  -24.1595   18.9196 N   0  3  1  0  0  0  0  0  0  0  0  0
  -20.1102  -26.3083   17.8199 N   0  3  0  0  0  0  0  0  0  0  0  0
  -31.3835  -14.9958   19.9931 O   0  0  0  0  0  0  0  0  0  0  0  0
  -24.4144  -30.8238   23.4127 O   0  0  0  0  0  0  0  0  0  0  0  0
  -21.1799  -30.8584   21.4809 O   0  0  0  0  0  0  0  0  0  0  0  0
  -21.6023  -26.3071   20.2053 O   0  0  0  0  0  0  0  0  0  0  0  0
  -27.5595  -20.8655   17.3406 O   0  0  0  0  0  0  0  0  0  0  0  0
  -25.8925   -9.9605   22.2470 O   0  0  0  0  0  0  0  0  0  0  0  0
  -28.4041  -26.5779   20.3208 O   0  0  0  0  0  0  0  0  0  1  0  0
  -21.0325   -8.4159   20.1496 F   0  0  0  0  0  0  0  0  0  0  0  0
  -23.5940  -11.3995   22.7844 F   0  0  0  0  0  0  0  0  0  0  0  0
  1  2  1  0  0  0  0
  1  5  2  0  0  0  0
  2  6  2  0  0  0  0
  3  8  2  0  0  0  0
  3 15  1  0  0  0  0
  4  9  1  0  0  0  0
  4 15  2  0  0  0  0
  5 17  1  0  0  0  0
  6 19  1  0  0  0  0
  7 10  2  0  0  0  0
  7 18  1  0  0  0  0
  8 21  1  0  0  0  0
  9 21  2  0  0  0  0
 10 22  1  0  0  0  0
 11 12  2  0  0  0  0
 11 23  1  0  0  0  0
 12 24  1  0  0  0  0
 13 20  1  0  0  0  0
 13 22  2  0  0  0  0
 14 24  2  0  0  0  0
 14 25  1  0  0  0  0
 15 26  1  0  0  0  0
 16 26  1  0  0  0  0
 16 27  2  0  0  0  0
 16 28  1  0  0  0  0
 17 19  2  0  0  0  0
 17 33  1  0  0  0  0
 18 20  2  0  0  0  0
 18 34  1  0  0  0  0
 19 45  1  0  0  0  0
 20 35  1  0  0  0  0
 21 80  1  0  0  0  0
 22 81  1  0  0  0  0
 23 25  2  0  0  0  0
 23 80  1  0  0  0  0
 24 82  1  0  0  0  0
 25 83  1  0  0  0  0
 26 64  2  0  0  0  0
 27 65  1  0  0  0  0
 27 68  1  0  0  0  0
 28 69  1  0  0  0  0
 28 75  2  0  0  0  0
 29 46  1  0  0  0  0
 29 70  1  0  0  0  0
 29 76  2  0  0  0  0
 30 59  1  0  0  0  0
 30 66  1  0  0  0  0
 30 77  2  0  0  0  0
 31 60  1  0  0  0  0
 31 71  1  0  0  0  0
 31 78  2  0  0  0  0
 32 67  1  0  0  0  0
 32 72  1  0  0  0  0
 32 79  2  0  0  0  0
 33 36  1  0  0  0  0
 34 46  1  0  0  0  0
 35 66  1  0  0  0  0
 36 39  1  0  0  0  0
 37 40  1  0  0  0  0
 37 42  1  0  0  0  0
 38 41  1  0  0  0  0
 38 44  1  0  0  0  0
 39 45  1  0  0  0  0
 40 47  1  0  0  0  0
 41 48  1  0  0  0  0
 42 67  1  0  0  0  0
 43 47  1  0  0  0  0
 43 67  1  0  0  0  0
 44 73  1  0  0  0  0
 45 70  1  0  0  0  0
 46 66  1  0  0  0  0
 47 65  1  0  0  0  0
 48 57  1  0  0  0  0
 48 73  1  0  0  0  0
 49 60  1  0  0  0  0
 50 61  1  0  0  0  0
 51 61  1  0  0  0  0
 52 62  1  0  0  0  0
 53 62  1  0  0  0  0
 54 62  1  0  0  0  0
 55 63  1  0  0  0  0
 56 74  1  0  0  0  0
 57 81  1  0  0  0  0
 58 63  1  0  0  0  0
 58 73  1  0  0  0  0
 59 62  1  0  0  0  0
 59 71  1  0  0  0  0
 60 74  1  0  0  0  0
 61 63  1  0  0  0  0
 63 72  1  0  0  0  0
 64 65  1  0  0  0  0
M  CHG  2  73   1  74   1
M  ISO  4  32 100  57 101  72 100  81 101
M  END
> <Batch ID>
0110

> <Smiles>
CNC(C)C(=O)NC(C(=O)N1Cc2cc([101O:1][101CH2:1]C3CCCN3CC(C)([100NH:0][100C:0](=O)N3CCCC(n4nc(-c5ccc(Oc6ccc(F)cc6F)cc5)c(C(N)=O)c4N)C3)C(C)C)ccc2CC1C(=O)NC1CCCc2ccccc21)C(C)(C)C

> <Shape>
0.294

> <Color>
0.096

> <Negative vol penalty>
0.000

$$$$

  -OEChem-04052319583D

 86 94  0     1  0  0  0  0  0999 V2000
  -33.0576   -2.2696   36.2079 C   0  0  0  0  0  0  0  0  0  0  0  0
  -32.9766   -2.5236   34.8425 C   0  0  0  0  0  0  0  0  0  0  0  0
  -23.1909   -9.8191   19.9316 C   0  0  0  0  0  0  0  0  0  0  0  0
  -23.5684   -9.9994   22.3111 C   0  0  0  0  0  0  0  0  0  0  0  0
  -31.9392   -2.4593   37.0186 C   0  0  0  0  0  0  0  0  0  0  0  0
  -31.7768   -2.9665   34.2868 C   0  0  0  0  0  0  0  0  0  0  0  0
  -31.1020   -6.8753   29.6207 C   0  0  0  0  0  0  0  0  0  0  0  0
  -22.4247   -8.6723   20.1400 C   0  0  0  0  0  0  0  0  0  0  0  0
  -22.8022   -8.8526   22.5195 C   0  0  0  0  0  0  0  0  0  0  0  0
  -30.8613   -6.6806   28.2613 C   0  0  0  0  0  0  0  0  0  0  0  0
  -23.2038   -5.5060   22.2554 C   0  0  0  0  0  0  0  0  0  0  0  0
  -23.7020   -4.5447   23.1348 C   0  0  0  0  0  0  0  0  0  0  0  0
  -30.5015  -14.0626   26.1103 C   0  0  0  0  0  0  0  0  0  0  0  0
  -29.8828  -13.5228   27.2648 C   0  0  0  0  0  0  0  0  0  0  0  0
  -28.5012   -7.0073   28.6386 C   0  0  0  0  0  0  0  0  0  0  0  0
  -21.7450   -4.8044   24.5275 C   0  0  0  0  0  0  0  0  0  0  0  0
  -23.7628  -10.4826   21.0171 C   0  0  0  0  0  0  0  0  0  0  0  0
  -24.1013  -12.9993   20.7735 C   0  0  0  0  0  0  0  0  0  0  0  0
  -30.7278   -2.9140   36.4741 C   0  0  0  0  0  0  0  0  0  0  0  0
  -30.0411   -7.1270   30.5025 C   0  0  0  0  0  0  0  0  0  0  0  0
  -30.6408   -3.1612   35.0907 C   0  0  0  0  0  0  0  0  0  0  0  0
  -28.7314   -7.2073   30.0083 C   0  0  0  0  0  0  0  0  0  0  0  0
  -22.2303   -8.1891   21.4340 C   0  0  0  0  0  0  0  0  0  0  0  0
  -29.5605   -6.7437   27.7705 C   0  0  0  0  0  0  0  0  0  0  0  0
  -21.9762   -6.1166   22.5121 C   0  0  0  0  0  0  0  0  0  0  0  0
  -22.9726   -4.1939   24.2708 C   0  0  0  0  0  0  0  0  0  0  0  0
  -21.2468   -5.7658   23.6481 C   0  0  0  0  0  0  0  0  0  0  0  0
  -24.5549  -11.6670   20.8024 C   0  0  0  0  0  0  0  0  0  0  0  0
  -30.8625  -13.0053   25.3046 C   0  0  0  0  0  0  0  0  0  0  0  0
  -29.8847  -12.1520   27.1296 C   0  0  0  0  0  0  0  0  0  0  0  0
  -25.2324  -13.7421   20.5387 C   0  0  0  0  0  0  0  0  0  0  0  0
  -22.7759  -13.5190   20.9440 C   0  0  0  0  0  0  0  0  0  0  0  0
  -28.8261   -5.6366   33.0335 C   0  0  0  0  0  0  0  0  0  0  0  0
  -26.9856   -8.3004   33.2310 C   0  0  0  0  0  0  0  0  0  0  0  0
  -25.5897  -10.9814   31.6466 C   0  0  0  0  0  0  0  0  0  0  0  0
  -31.0470  -12.7529   21.5697 C   0  0  0  0  0  0  0  0  0  0  0  0
  -29.5327   -3.0590   37.3826 C   0  0  0  0  0  0  0  0  0  0  0  0
  -30.3203   -7.3613   31.9618 C   0  0  0  0  0  0  0  0  0  0  0  0
  -27.5598   -7.4950   30.9100 C   0  0  0  0  0  0  0  0  0  0  0  0
  -28.4040   -3.8891   36.7765 C   0  0  0  0  0  0  0  0  0  0  0  0
  -29.5205  -13.4703   18.4341 C   0  0  0  0  0  0  0  0  0  0  0  0
  -28.1311   -3.4515   35.3409 C   0  0  0  0  0  0  0  0  0  0  0  0
  -28.0339  -13.2096   18.6829 C   0  0  0  0  0  0  0  0  0  0  0  0
  -30.4017  -12.4809   19.1936 C   0  0  0  0  0  0  0  0  0  0  0  0
  -28.6477  -12.1379   20.8904 C   0  0  0  0  0  0  0  0  0  0  0  0
  -29.3639   -3.6664   34.4548 C   0  0  1  0  0  0  0  0  0  0  0  0
  -29.1086   -7.1011   32.8513 C   0  0  1  0  0  0  0  0  0  0  0  0
  -27.7203  -13.1456   20.1898 C   0  0  2  0  0  0  0  0  0  0  0  0
  -27.8396  -11.2089   28.2617 C   0  0  0  0  0  0  0  0  0  0  0  0
  -30.0804  -11.0983   29.4111 C   0  0  0  0  0  0  0  0  0  0  0  0
  -24.3322  -13.1375   31.3876 C   0  0  0  0  0  0  0  0  0  0  0  0
  -24.5498   -6.4631   33.2650 C   0  0  0  0  0  0  0  0  0  0  0  0
  -23.1288   -8.4522   32.7240 C   0  0  0  0  0  0  0  0  0  0  0  0
  -24.4253   -8.3900   34.8543 C   0  0  0  0  0  0  0  0  0  0  0  0
  -28.0296  -12.5936   32.1010 C   0  0  0  0  0  0  0  0  0  0  0  0
  -30.3639   -8.4503   23.0319 C   0  0  0  0  0  0  0  0  0  0  0  0
  -31.5364  -13.0041   23.9898 C   0  0  0  0  0  0  0  0  0  0  0  0
  -30.6847  -10.5013   25.4125 C   0  0  0  0  0  0  0  0  0  0  0  0
  -29.4197   -9.8684   24.8479 C   0  0  0  0  0  0  0  0  0  0  0  0
  -28.4968   -7.5921   24.4388 C   0  0  0  0  0  0  0  0  0  0  0  0
  -28.2009   -7.2326   25.8815 C   0  0  0  0  0  0  0  0  0  1  0  0
  -29.3663  -11.1104   28.0402 C   0  0  0  0  0  0  0  0  0  0  0  0
  -25.6498   -8.7211   32.6673 C   0  0  1  0  0  0  0  0  0  0  0  0
  -25.5373  -12.4534   32.0139 C   0  0  2  0  0  0  0  0  0  0  0  0
  -24.4601   -7.9992   33.3607 C   0  0  0  0  0  0  0  0  0  0  0  0
  -25.8715  -11.5661   20.6016 N   0  0  0  0  0  0  0  0  0  0  0  0
  -30.4830  -11.8488   25.9344 N   0  0  0  0  0  0  0  0  0  0  0  0
  -26.2549  -12.8445   20.4444 N   0  0  0  0  0  0  0  0  0  0  0  0
  -27.8834   -7.7106   32.3300 N   0  0  0  0  0  0  0  0  0  0  0  0
  -30.0547  -12.4697   20.6167 N   0  0  0  0  0  0  0  0  0  0  0  0
  -25.4422  -15.0690   20.4055 N   0  0  0  0  0  0  0  0  0  0  0  0
  -21.7293  -12.6166   21.1776 N   0  0  0  0  0  0  0  0  0  0  0  0
  -29.4934   -5.0632   34.0991 N   0  0  0  0  0  0  0  0  0  0  0  0
  -25.6053  -10.1760   32.7657 N   0  0  0  0  0  0  0  0  0  0  0  0
  -30.6324  -12.7275   22.8957 N   0  0  0  0  0  0  0  0  0  0  0  0
  -26.7691  -13.1486   31.5443 N   0  3  0  0  0  0  0  0  0  0  0  0
  -29.7006   -8.4596   24.3869 N   0  3  1  0  0  0  0  0  0  0  0  0
  -22.5246  -14.7460   20.8743 O   0  0  0  0  0  0  0  0  0  0  0  0
  -28.0584   -5.0691   32.2652 O   0  0  0  0  0  0  0  0  0  0  0  0
  -27.2263   -8.4946   34.4251 O   0  0  0  0  0  0  0  0  0  0  0  0
  -25.6106  -10.5855   30.4833 O   0  0  0  0  0  0  0  0  0  0  0  0
  -32.2147  -13.0147   21.2614 O   0  0  0  0  0  0  0  0  0  0  0  0
  -21.4825   -7.0702   21.6377 O   0  0  0  0  0  0  0  0  0  0  0  0
  -29.3227   -6.5534   26.4442 O   0  0  0  0  0  0  0  0  0  1  0  0
  -23.4505   -3.2696   25.1143 F   0  0  0  0  0  0  0  0  0  0  0  0
  -20.0662   -6.3480   23.8994 F   0  0  0  0  0  0  0  0  0  0  0  0
  1  2  1  0  0  0  0
  1  5  2  0  0  0  0
  2  6  2  0  0  0  0
  3  8  2  0  0  0  0
  3 17  1  0  0  0  0
  4  9  1  0  0  0  0
  4 17  2  0  0  0  0
  5 19  1  0  0  0  0
  6 21  1  0  0  0  0
  7 10  2  0  0  0  0
  7 20  1  0  0  0  0
  8 23  1  0  0  0  0
  9 23  2  0  0  0  0
 10 24  1  0  0  0  0
 11 12  2  0  0  0  0
 11 25  1  0  0  0  0
 12 26  1  0  0  0  0
 13 14  1  0  0  0  0
 13 29  2  0  0  0  0
 14 30  2  0  0  0  0
 15 22  1  0  0  0  0
 15 24  2  0  0  0  0
 16 26  2  0  0  0  0
 16 27  1  0  0  0  0
 17 28  1  0  0  0  0
 18 28  1  0  0  0  0
 18 31  2  0  0  0  0
 18 32  1  0  0  0  0
 19 21  2  0  0  0  0
 19 37  1  0  0  0  0
 20 22  2  0  0  0  0
 20 38  1  0  0  0  0
 21 46  1  0  0  0  0
 22 39  1  0  0  0  0
 23 83  1  0  0  0  0
 24 84  1  0  0  0  0
 25 27  2  0  0  0  0
 25 83  1  0  0  0  0
 26 85  1  0  0  0  0
 27 86  1  0  0  0  0
 28 66  2  0  0  0  0
 29 57  1  0  0  0  0
 29 67  1  0  0  0  0
 30 62  1  0  0  0  0
 30 67  1  0  0  0  0
 31 68  1  0  0  0  0
 31 71  1  0  0  0  0
 32 72  1  0  0  0  0
 32 78  2  0  0  0  0
 33 47  1  0  0  0  0
 33 73  1  0  0  0  0
 33 79  2  0  0  0  0
 34 63  1  0  0  0  0
 34 69  1  0  0  0  0
 34 80  2  0  0  0  0
 35 64  1  0  0  0  0
 35 74  1  0  0  0  0
 35 81  2  0  0  0  0
 36 70  1  0  0  0  0
 36 75  1  0  0  0  0
 36 82  2  0  0  0  0
 37 40  1  0  0  0  0
 38 47  1  0  0  0  0
 39 69  1  0  0  0  0
 40 42  1  0  0  0  0
 41 43  1  0  0  0  0
 41 44  1  0  0  0  0
 42 46  1  0  0  0  0
 43 48  1  0  0  0  0
 44 70  1  0  0  0  0
 45 48  1  0  0  0  0
 45 70  1  0  0  0  0
 46 73  1  0  0  0  0
 47 69  1  0  0  0  0
 48 68  1  0  0  0  0
 49 62  1  0  0  0  0
 50 62  1  0  0  0  0
 51 64  1  0  0  0  0
 52 65  1  0  0  0  0
 53 65  1  0  0  0  0
 54 65  1  0  0  0  0
 55 76  1  0  0  0  0
 56 77  1  0  0  0  0
 57 75  1  0  0  0  0
 58 59  1  0  0  0  0
 58 67  1  0  0  0  0
 59 77  1  0  0  0  0
 60 61  1  0  0  0  0
 60 77  1  0  0  0  0
 61 84  1  0  0  0  0
 63 65  1  0  0  0  0
 63 74  1  0  0  0  0
 64 76  1  0  0  0  0
 66 68  1  0  0  0  0
M  CHG  2  76   1  77   1
M  ISO  4  36 100  61 101  75 100  84 101
M  END
> <Batch ID>
0110

> <Smiles>
CNC(C)C(=O)NC(C(=O)N1Cc2cc([101O:1][101CH2:1]CN(C)CCn3c(C[100NH:0][100C:0](=O)N4CCCC(n5nc(-c6ccc(Oc7ccc(F)cc7F)cc6)c(C(N)=O)c5N)C4)ccc3C(C)C)ccc2CC1C(=O)NC1CCCc2ccccc21)C(C)(C)C

> <Shape>
0.139

> <Color>
0.178

> <Negative vol penalty>
0.000

$$$$

  -OEChem-04052319583D

 81 88  0     1  0  0  0  0  0999 V2000
  -20.6758  -33.3516   15.3854 C   0  0  0  0  0  0  0  0  0  0  0  0
  -21.6281  -32.3415   15.4767 C   0  0  0  0  0  0  0  0  0  0  0  0
  -26.7216  -13.6013   21.5288 C   0  0  0  0  0  0  0  0  0  0  0  0
  -25.1082  -14.8996   20.2842 C   0  0  0  0  0  0  0  0  0  0  0  0
  -20.6949  -34.4101   16.2927 C   0  0  0  0  0  0  0  0  0  0  0  0
  -22.6007  -32.3899   16.4748 C   0  0  0  0  0  0  0  0  0  0  0  0
  -25.0638  -27.6364   19.4485 C   0  0  0  0  0  0  0  0  0  0  0  0
  -25.8392  -12.5212   21.5459 C   0  0  0  0  0  0  0  0  0  0  0  0
  -24.2259  -13.8194   20.3013 C   0  0  0  0  0  0  0  0  0  0  0  0
  -26.2595  -26.9402   19.2769 C   0  0  0  0  0  0  0  0  0  0  0  0
  -24.8438  -10.0840   19.4242 C   0  0  0  0  0  0  0  0  0  0  0  0
  -25.3591   -8.8213   19.1315 C   0  0  0  0  0  0  0  0  0  0  0  0
  -27.2913  -28.3052   20.9773 C   0  0  0  0  0  0  0  0  0  0  0  0
  -24.6706   -8.0354   21.3099 C   0  0  0  0  0  0  0  0  0  0  0  0
  -26.3561  -14.7906   20.8980 C   0  0  0  0  0  0  0  0  0  0  0  0
  -28.2449  -16.1909   19.9085 C   0  0  0  0  0  0  0  0  0  0  0  0
  -21.6623  -34.4665   17.3083 C   0  0  0  0  0  0  0  0  0  0  0  0
  -24.9758  -28.6813   20.3796 C   0  0  0  0  0  0  0  0  0  0  0  0
  -22.6335  -33.4509   17.3957 C   0  0  0  0  0  0  0  0  0  0  0  0
  -26.0926  -29.0114   21.1606 C   0  0  0  0  0  0  0  0  0  0  0  0
  -24.5914  -12.6302   20.9322 C   0  0  0  0  0  0  0  0  0  0  0  0
  -27.3743  -27.2765   20.0393 C   0  0  0  0  0  0  0  0  0  0  0  0
  -24.2420  -10.3224   20.6597 C   0  0  0  0  0  0  0  0  0  0  0  0
  -25.2725   -7.7970   20.0743 C   0  0  0  0  0  0  0  0  0  0  0  0
  -24.1554   -9.2981   21.6026 C   0  0  0  0  0  0  0  0  0  0  0  0
  -27.2669  -15.9069   20.8804 C   0  0  0  0  0  0  0  0  0  0  0  0
  -28.8381  -17.3496   20.3466 C   0  0  0  0  0  0  0  0  0  0  0  0
  -28.5866  -15.4716   18.7161 C   0  0  0  0  0  0  0  0  0  0  0  0
  -24.3749  -31.7976   20.2041 C   0  0  0  0  0  0  0  0  0  0  0  0
  -24.4338  -31.5953   23.4410 C   0  0  0  0  0  0  0  0  0  0  0  0
  -25.5117  -29.9349   26.2210 C   0  0  0  0  0  0  0  0  0  0  0  0
  -28.4813  -22.4958   22.4761 C   0  0  0  0  0  0  0  0  0  0  0  0
  -21.6716  -35.6550   18.2367 C   0  0  0  0  0  0  0  0  0  0  0  0
  -23.6712  -29.4048   20.5716 C   0  0  0  0  0  0  0  0  0  0  0  0
  -26.0444  -30.1116   22.1881 C   0  0  0  0  0  0  0  0  0  0  0  0
  -22.5069  -35.4378   19.4959 C   0  0  0  0  0  0  0  0  0  0  0  0
  -28.4596  -19.7732   24.7704 C   0  0  0  0  0  0  0  0  0  0  0  0
  -23.8595  -34.8284   19.1407 C   0  0  0  0  0  0  0  0  0  0  0  0
  -28.2219  -18.5495   23.8837 C   0  0  0  0  0  0  0  0  0  0  0  0
  -27.6820  -20.9899   24.2733 C   0  0  0  0  0  0  0  0  0  0  0  0
  -27.6725  -20.1110   21.9709 C   0  0  0  0  0  0  0  0  0  0  0  0
  -23.6894  -33.4552   18.4797 C   0  0  1  0  0  0  0  0  0  0  0  0
  -23.8416  -30.7915   21.1843 C   0  0  1  0  0  0  0  0  0  0  0  0
  -28.4796  -18.8737   22.3998 C   0  0  2  0  0  0  0  0  0  0  0  0
  -31.9399  -25.4731   16.2929 C   0  0  0  0  0  0  0  0  0  0  0  0
  -25.4310  -30.0300   28.7273 C   0  0  0  0  0  0  0  0  0  0  0  0
  -26.4927  -33.8470   23.4194 C   0  0  0  0  0  0  0  0  0  0  0  0
  -27.0636  -33.2536   25.7838 C   0  0  0  0  0  0  0  0  0  0  0  0
  -24.7628  -34.0324   25.2159 C   0  0  0  0  0  0  0  0  0  0  0  0
  -30.4360  -22.7305   18.6696 C   0  0  0  0  0  0  0  0  0  0  0  0
  -31.5905  -23.0605   20.8552 C   0  0  0  0  0  0  0  0  0  0  0  0
  -30.8961  -27.4282   18.4123 C   0  0  0  0  0  0  0  0  0  0  0  0
  -24.1429  -27.3165   26.3920 C   0  0  0  0  0  0  0  0  0  0  0  0
  -30.5101  -25.5185   16.8202 C   0  0  0  0  0  0  0  0  0  0  0  0
  -31.1045  -25.1236   19.3495 C   0  0  0  0  0  0  0  0  0  0  0  0
  -29.2657  -23.8797   20.5713 C   0  0  0  0  0  0  0  0  0  0  0  0
  -28.8088  -26.0682   18.5771 C   0  0  0  0  0  0  0  0  0  1  0  0
  -25.5012  -31.7226   24.5009 C   0  0  1  0  0  0  0  0  0  0  0  0
  -24.7783  -29.4785   27.4693 C   0  0  2  0  0  0  0  0  0  0  0  0
  -25.9569  -33.1944   24.7094 C   0  0  0  0  0  0  0  0  0  0  0  0
  -30.6358  -23.7119   19.8441 C   0  0  0  0  0  0  0  0  0  0  0  0
  -30.3266  -25.9844   18.2957 C   0  0  1  0  0  0  0  0  0  0  0  0
  -27.2374  -16.8122   21.8620 N   0  0  0  0  0  0  0  0  0  0  0  0
  -28.2042  -17.6763   21.5092 N   0  0  0  0  0  0  0  0  0  0  0  0
  -24.7480  -30.7938   22.3343 N   0  0  0  0  0  0  0  0  0  0  0  0
  -27.9723  -21.2442   22.8602 N   0  0  0  0  0  0  0  0  0  0  0  0
  -29.8348  -18.1107   19.8469 N   0  0  0  0  0  0  0  0  0  0  0  0
  -27.8772  -14.3008   18.4158 N   0  0  0  0  0  0  0  0  0  0  0  0
  -23.3964  -32.4474   19.4763 N   0  0  0  0  0  0  0  0  0  0  0  0
  -24.9639  -31.0879   25.6996 N   0  0  0  0  0  0  0  0  0  0  0  0
  -28.7347  -22.6513   21.1188 N   0  0  0  0  0  0  0  0  0  0  0  0
  -24.7766  -27.9907   27.5543 N   0  3  0  0  0  0  0  0  0  0  0  0
  -29.5051  -15.8469   17.9487 O   0  0  0  0  0  0  0  0  0  0  0  0
  -25.5846  -31.9726   20.1157 O   0  0  0  0  0  0  0  0  0  0  0  0
  -23.3580  -32.1795   23.5929 O   0  0  0  0  0  0  0  0  0  0  0  0
  -26.4764  -29.3312   25.7570 O   0  0  0  0  0  0  0  0  0  0  0  0
  -28.6991  -23.4053   23.2838 O   0  0  0  0  0  0  0  0  0  0  0  0
  -23.7302  -11.5763   20.9485 O   0  0  0  0  0  0  0  0  0  0  0  0
  -28.5511  -26.5940   19.8722 O   0  0  0  0  0  0  0  0  0  1  0  0
  -25.7660   -6.5840   19.7925 F   0  0  0  0  0  0  0  0  0  0  0  0
  -23.5772   -9.5208   22.7908 F   0  0  0  0  0  0  0  0  0  0  0  0
  1  2  1  0  0  0  0
  1  5  2  0  0  0  0
  2  6  2  0  0  0  0
  3  8  2  0  0  0  0
  3 15  1  0  0  0  0
  4  9  1  0  0  0  0
  4 15  2  0  0  0  0
  5 17  1  0  0  0  0
  6 19  1  0  0  0  0
  7 10  2  0  0  0  0
  7 18  1  0  0  0  0
  8 21  1  0  0  0  0
  9 21  2  0  0  0  0
 10 22  1  0  0  0  0
 11 12  2  0  0  0  0
 11 23  1  0  0  0  0
 12 24  1  0  0  0  0
 13 20  1  0  0  0  0
 13 22  2  0  0  0  0
 14 24  2  0  0  0  0
 14 25  1  0  0  0  0
 15 26  1  0  0  0  0
 16 26  1  0  0  0  0
 16 27  2  0  0  0  0
 16 28  1  0  0  0  0
 17 19  2  0  0  0  0
 17 33  1  0  0  0  0
 18 20  2  0  0  0  0
 18 34  1  0  0  0  0
 19 42  1  0  0  0  0
 20 35  1  0  0  0  0
 21 78  1  0  0  0  0
 22 79  1  0  0  0  0
 23 25  2  0  0  0  0
 23 78  1  0  0  0  0
 24 80  1  0  0  0  0
 25 81  1  0  0  0  0
 26 63  2  0  0  0  0
 27 64  1  0  0  0  0
 27 67  1  0  0  0  0
 28 68  1  0  0  0  0
 28 73  2  0  0  0  0
 29 43  1  0  0  0  0
 29 69  1  0  0  0  0
 29 74  2  0  0  0  0
 30 58  1  0  0  0  0
 30 65  1  0  0  0  0
 30 75  2  0  0  0  0
 31 59  1  0  0  0  0
 31 70  1  0  0  0  0
 31 76  2  0  0  0  0
 32 66  1  0  0  0  0
 32 71  1  0  0  0  0
 32 77  2  0  0  0  0
 33 36  1  0  0  0  0
 34 43  1  0  0  0  0
 35 65  1  0  0  0  0
 36 38  1  0  0  0  0
 37 39  1  0  0  0  0
 37 40  1  0  0  0  0
 38 42  1  0  0  0  0
 39 44  1  0  0  0  0
 40 66  1  0  0  0  0
 41 44  1  0  0  0  0
 41 66  1  0  0  0  0
 42 69  1  0  0  0  0
 43 65  1  0  0  0  0
 44 64  1  0  0  0  0
 45 54  1  0  0  0  0
 46 59  1  0  0  0  0
 47 60  1  0  0  0  0
 48 60  1  0  0  0  0
 49 60  1  0  0  0  0
 50 61  1  0  0  0  0
 51 61  1  0  0  0  0
 52 62  1  0  0  0  0
 53 72  1  0  0  0  0
 54 62  1  0  0  0  0
 55 61  1  0  0  0  0
 55 62  1  0  0  0  0
 56 61  1  0  0  0  0
 56 71  1  0  0  0  0
 57 62  1  0  0  0  0
 57 79  1  0  0  0  0
 58 60  1  0  0  0  0
 58 70  1  0  0  0  0
 59 72  1  0  0  0  0
 63 64  1  0  0  0  0
M  CHG  1  72   1
M  ISO  4  32 100  57 101  71 100  79 101
M  END
> <Batch ID>
0110

> <Smiles>
CCC(C)(CC(C)(C)C[100NH:0][100C:0](=O)N1CCCC(n2nc(-c3ccc(Oc4ccc(F)cc4F)cc3)c(C(N)=O)c2N)C1)[101CH2:1][101O:1]c1ccc2c(c1)CN(C(=O)C(NC(=O)C(C)NC)C(C)(C)C)C(C(=O)NC1CCCc3ccccc31)C2

> <Shape>
0.267

> <Color>
0.087

> <Negative vol penalty>
0.000

$$$$

  -OEChem-04052319583D

 84 92  0     1  0  0  0  0  0999 V2000
  -16.0240  -23.8899   20.5678 C   0  0  0  0  0  0  0  0  0  0  0  0
  -17.2353  -23.2185   20.4362 C   0  0  0  0  0  0  0  0  0  0  0  0
  -22.9746   -9.9446   19.9666 C   0  0  0  0  0  0  0  0  0  0  0  0
  -23.7773   -9.9037   22.2450 C   0  0  0  0  0  0  0  0  0  0  0  0
  -15.8686  -25.1601   20.0142 C   0  0  0  0  0  0  0  0  0  0  0  0
  -18.2917  -23.8166   19.7500 C   0  0  0  0  0  0  0  0  0  0  0  0
  -22.7084  -23.3322   22.1796 C   0  0  0  0  0  0  0  0  0  0  0  0
  -22.1901   -8.8201   20.2228 C   0  0  0  0  0  0  0  0  0  0  0  0
  -22.9927   -8.7793   22.5012 C   0  0  0  0  0  0  0  0  0  0  0  0
  -23.3547  -22.1004   22.0864 C   0  0  0  0  0  0  0  0  0  0  0  0
  -19.2402   -8.1306   21.7248 C   0  0  0  0  0  0  0  0  0  0  0  0
  -17.9236   -8.1402   21.2643 C   0  0  0  0  0  0  0  0  0  0  0  0
  -24.8109  -22.9999   20.3865 C   0  0  0  0  0  0  0  0  0  0  0  0
  -29.2098  -18.3281   22.0420 C   0  0  0  0  0  0  0  0  0  0  0  0
  -18.3801   -6.1865   19.9183 C   0  0  0  0  0  0  0  0  0  0  0  0
  -30.2708  -19.6529   19.9055 C   0  0  0  0  0  0  0  0  0  0  0  0
  -23.7683  -10.4864   20.9777 C   0  0  0  0  0  0  0  0  0  0  0  0
  -24.2085  -12.9967   20.8685 C   0  0  0  0  0  0  0  0  0  0  0  0
  -16.9268  -25.7780   19.3293 C   0  0  0  0  0  0  0  0  0  0  0  0
  -23.1021  -24.4058   21.3679 C   0  0  0  0  0  0  0  0  0  0  0  0
  -18.1499  -25.0957   19.1857 C   0  0  0  0  0  0  0  0  0  0  0  0
  -24.1697  -24.2450   20.4732 C   0  0  0  0  0  0  0  0  0  0  0  0
  -29.1359  -20.1758   20.5042 C   0  0  0  0  0  0  0  0  0  0  0  0
  -22.1991   -8.2375   21.4901 C   0  0  0  0  0  0  0  0  0  0  0  0
  -24.4042  -21.9332   21.1877 C   0  0  0  0  0  0  0  0  0  0  0  0
  -20.1269   -7.1490   21.2819 C   0  0  0  0  0  0  0  0  0  0  0  0
  -28.6015  -19.4947   21.5922 C   0  0  0  0  0  0  0  0  0  0  0  0
  -17.4936   -7.1682   20.3611 C   0  0  0  0  0  0  0  0  0  0  0  0
  -19.6968   -6.1770   20.3787 C   0  0  0  0  0  0  0  0  0  0  0  0
  -24.5794  -11.6476   20.7135 C   0  0  0  0  0  0  0  0  0  0  0  0
  -30.3413  -17.8878   21.3744 C   0  0  0  0  0  0  0  0  0  0  0  0
  -25.3228  -13.7048   20.4896 C   0  0  0  0  0  0  0  0  0  0  0  0
  -22.9678  -13.5596   21.3152 C   0  0  0  0  0  0  0  0  0  0  0  0
  -21.6893  -26.1548   19.1210 C   0  0  0  0  0  0  0  0  0  0  0  0
  -24.4407  -27.8662   19.2724 C   0  0  0  0  0  0  0  0  0  0  0  0
  -27.7604  -27.9508   20.0592 C   0  0  0  0  0  0  0  0  0  0  0  0
  -30.8454  -14.5030   20.5798 C   0  0  0  0  0  0  0  0  0  0  0  0
  -16.6962  -27.1325   18.7072 C   0  0  0  0  0  0  0  0  0  0  0  0
  -22.4123  -25.7359   21.4996 C   0  0  0  0  0  0  0  0  0  0  0  0
  -24.6439  -25.3721   19.5938 C   0  0  0  0  0  0  0  0  0  0  0  0
  -17.9854  -27.8518   18.3188 C   0  0  0  0  0  0  0  0  0  0  0  0
  -29.5686  -12.1841   18.1989 C   0  0  0  0  0  0  0  0  0  0  0  0
  -18.9240  -26.9033   17.5798 C   0  0  0  0  0  0  0  0  0  0  0  0
  -28.1289  -11.9446   18.6573 C   0  0  0  0  0  0  0  0  0  0  0  0
  -30.5163  -12.3590   19.3835 C   0  0  0  0  0  0  0  0  0  0  0  0
  -28.6718  -13.1547   20.8113 C   0  0  0  0  0  0  0  0  0  0  0  0
  -19.3272  -25.7215   18.4699 C   0  0  1  0  0  0  0  0  0  0  0  0
  -22.5590  -26.6106   20.2583 C   0  0  1  0  0  0  0  0  0  0  0  0
  -27.6694  -13.0281   19.6514 C   0  0  2  0  0  0  0  0  0  0  0  0
  -28.0215  -21.2864   18.5348 C   0  0  0  0  0  0  0  0  0  0  0  0
  -29.4674  -22.6407   20.0938 C   0  0  0  0  0  0  0  0  0  0  0  0
  -29.7515  -29.4781   20.0385 C   0  0  0  0  0  0  0  0  0  0  0  0
  -24.6898  -27.4966   16.2539 C   0  0  0  0  0  0  0  0  0  0  0  0
  -27.0907  -28.1820   16.4382 C   0  0  0  0  0  0  0  0  0  0  0  0
  -25.2863  -29.7812   17.0778 C   0  0  0  0  0  0  0  0  0  0  0  0
  -28.0775  -27.7674   22.9960 C   0  0  0  0  0  0  0  0  0  0  0  0
  -31.0206  -16.6397   21.8300 C   0  0  0  0  0  0  0  0  0  0  0  0
  -25.0874  -19.9312   22.2743 C   0  0  0  0  0  0  0  0  0  1  0  0
  -26.3517  -19.0941   22.2506 C   0  0  0  0  0  0  0  0  0  0  0  0
  -28.5209  -21.4289   19.9861 C   0  0  0  0  0  0  0  0  0  0  0  0
  -25.7781  -27.8041   18.5749 C   0  0  1  0  0  0  0  0  0  0  0  0
  -28.5821  -28.9494   20.8543 C   0  0  2  0  0  0  0  0  0  0  0  0
  -25.7013  -28.2940   17.1013 C   0  0  0  0  0  0  0  0  0  0  0  0
  -30.8895  -18.5225   20.3141 N   0  0  0  0  0  0  0  0  0  0  0  0
  -25.8313  -11.5046   20.2704 N   0  0  0  0  0  0  0  0  0  0  0  0
  -26.2568  -12.7731   20.1437 N   0  0  0  0  0  0  0  0  0  0  0  0
  -23.9335  -26.6515   19.7549 N   0  0  0  0  0  0  0  0  0  0  0  0
  -30.0241  -13.4018   20.2869 N   0  0  0  0  0  0  0  0  0  0  0  0
  -25.5848  -15.0274   20.4217 N   0  0  0  0  0  0  0  0  0  0  0  0
  -21.9269  -12.6889   21.6656 N   0  0  0  0  0  0  0  0  0  0  0  0
  -20.3405  -26.1272   19.4202 N   0  0  0  0  0  0  0  0  0  0  0  0
  -26.7083  -28.5589   19.4077 N   0  0  0  0  0  0  0  0  0  0  0  0
  -30.2999  -15.4485   21.4396 N   0  0  0  0  0  0  0  0  0  0  0  0
  -29.1205  -28.3111   22.0886 N   0  3  0  0  0  0  0  0  0  0  0  0
  -22.7821  -14.7981   21.3856 O   0  0  0  0  0  0  0  0  0  0  0  0
  -22.2036  -25.8521   18.0507 O   0  0  0  0  0  0  0  0  0  0  0  0
  -23.8706  -28.9536   19.3912 O   0  0  0  0  0  0  0  0  0  0  0  0
  -28.0277  -26.7519   20.0171 O   0  0  0  0  0  0  0  0  0  0  0  0
  -31.9787  -14.6366   20.1058 O   0  0  0  0  0  0  0  0  0  0  0  0
  -21.4335   -7.1404   21.7405 O   0  0  0  0  0  0  0  0  0  0  0  0
  -25.0363  -20.7317   21.0942 O   0  0  0  0  0  0  0  0  0  1  0  0
  -27.4810  -19.9587   22.2295 O   0  0  0  0  0  0  0  0  0  0  0  0
  -16.2288   -7.1766   19.9202 F   0  0  0  0  0  0  0  0  0  0  0  0
  -20.5436   -5.2307   19.9505 F   0  0  0  0  0  0  0  0  0  0  0  0
  1  2  1  0  0  0  0
  1  5  2  0  0  0  0
  2  6  2  0  0  0  0
  3  8  2  0  0  0  0
  3 17  1  0  0  0  0
  4  9  1  0  0  0  0
  4 17  2  0  0  0  0
  5 19  1  0  0  0  0
  6 21  1  0  0  0  0
  7 10  2  0  0  0  0
  7 20  1  0  0  0  0
  8 24  1  0  0  0  0
  9 24  2  0  0  0  0
 10 25  1  0  0  0  0
 11 12  2  0  0  0  0
 11 26  1  0  0  0  0
 12 28  1  0  0  0  0
 13 22  1  0  0  0  0
 13 25  2  0  0  0  0
 14 27  1  0  0  0  0
 14 31  2  0  0  0  0
 15 28  2  0  0  0  0
 15 29  1  0  0  0  0
 16 23  1  0  0  0  0
 16 64  2  0  0  0  0
 17 30  1  0  0  0  0
 18 30  1  0  0  0  0
 18 32  2  0  0  0  0
 18 33  1  0  0  0  0
 19 21  2  0  0  0  0
 19 38  1  0  0  0  0
 20 22  2  0  0  0  0
 20 39  1  0  0  0  0
 21 47  1  0  0  0  0
 22 40  1  0  0  0  0
 23 27  2  0  0  0  0
 23 60  1  0  0  0  0
 24 80  1  0  0  0  0
 25 81  1  0  0  0  0
 26 29  2  0  0  0  0
 26 80  1  0  0  0  0
 27 82  1  0  0  0  0
 28 83  1  0  0  0  0
 29 84  1  0  0  0  0
 30 65  2  0  0  0  0
 31 57  1  0  0  0  0
 31 64  1  0  0  0  0
 32 66  1  0  0  0  0
 32 69  1  0  0  0  0
 33 70  1  0  0  0  0
 33 75  2  0  0  0  0
 34 48  1  0  0  0  0
 34 71  1  0  0  0  0
 34 76  2  0  0  0  0
 35 61  1  0  0  0  0
 35 67  1  0  0  0  0
 35 77  2  0  0  0  0
 36 62  1  0  0  0  0
 36 72  1  0  0  0  0
 36 78  2  0  0  0  0
 37 68  1  0  0  0  0
 37 73  1  0  0  0  0
 37 79  2  0  0  0  0
 38 41  1  0  0  0  0
 39 48  1  0  0  0  0
 40 67  1  0  0  0  0
 41 43  1  0  0  0  0
 42 44  1  0  0  0  0
 42 45  1  0  0  0  0
 43 47  1  0  0  0  0
 44 49  1  0  0  0  0
 45 68  1  0  0  0  0
 46 49  1  0  0  0  0
 46 68  1  0  0  0  0
 47 71  1  0  0  0  0
 48 67  1  0  0  0  0
 49 66  1  0  0  0  0
 50 60  1  0  0  0  0
 51 60  1  0  0  0  0
 52 62  1  0  0  0  0
 53 63  1  0  0  0  0
 54 63  1  0  0  0  0
 55 63  1  0  0  0  0
 56 74  1  0  0  0  0
 57 73  1  0  0  0  0
 58 59  1  0  0  0  0
 58 81  1  0  0  0  0
 59 82  1  0  0  0  0
 61 63  1  0  0  0  0
 61 72  1  0  0  0  0
 62 74  1  0  0  0  0
 65 66  1  0  0  0  0
M  CHG  1  74   1
M  ISO  4  37 100  58 101  73 100  81 101
M  END
> <Batch ID>
0110

> <Smiles>
CNC(C)C(=O)NC(C(=O)N1Cc2cc([101O:1][101CH2:1]COc3cc(C[100NH:0][100C:0](=O)N4CCCC(n5nc(-c6ccc(Oc7ccc(F)cc7F)cc6)c(C(N)=O)c5N)C4)ncc3C(C)C)ccc2CC1C(=O)NC1CCCc2ccccc21)C(C)(C)C

> <Shape>
0.243

> <Color>
0.212

> <Negative vol penalty>
0.000

$$$$

  -OEChem-04052319583D

 88 96  0     1  0  0  0  0  0999 V2000
  -18.2133  -29.7280   26.0379 C   0  0  0  0  0  0  0  0  0  0  0  0
  -19.5961  -29.6716   26.1797 C   0  0  0  0  0  0  0  0  0  0  0  0
  -29.1002  -12.2757   20.8953 C   0  0  0  0  0  0  0  0  0  0  0  0
  -29.7877  -13.5124   18.9370 C   0  0  0  0  0  0  0  0  0  0  0  0
  -17.6146  -29.2690   24.8654 C   0  0  0  0  0  0  0  0  0  0  0  0
  -20.3810  -29.1550   25.1493 C   0  0  0  0  0  0  0  0  0  0  0  0
  -25.9886  -30.9963   23.5153 C   0  0  0  0  0  0  0  0  0  0  0  0
  -28.7952  -11.1757   20.0937 C   0  0  0  0  0  0  0  0  0  0  0  0
  -29.4828  -12.4124   18.1353 C   0  0  0  0  0  0  0  0  0  0  0  0
  -27.2595  -30.5003   23.8023 C   0  0  0  0  0  0  0  0  0  0  0  0
  -26.7187  -10.9826   16.8138 C   0  0  0  0  0  0  0  0  0  0  0  0
  -26.0088  -11.2160   15.6360 C   0  0  0  0  0  0  0  0  0  0  0  0
  -27.2492  -29.2849   21.7186 C   0  0  0  0  0  0  0  0  0  0  0  0
  -27.0849  -25.1268   22.2885 C   0  0  0  0  0  0  0  0  0  0  0  0
  -27.8338  -10.2891   14.3524 C   0  0  0  0  0  0  0  0  0  0  0  0
  -29.0228  -26.1207   21.7172 C   0  0  0  0  0  0  0  0  0  0  0  0
  -29.5964  -13.4440   20.3170 C   0  0  0  0  0  0  0  0  0  0  0  0
  -31.1441  -14.8694   21.7594 C   0  0  0  0  0  0  0  0  0  0  0  0
  -18.3933  -28.7555   23.8163 C   0  0  0  0  0  0  0  0  0  0  0  0
  -25.3328  -30.6312   22.3308 C   0  0  0  0  0  0  0  0  0  0  0  0
  -19.7920  -28.6875   23.9622 C   0  0  0  0  0  0  0  0  0  0  0  0
  -25.9711  -29.7798   21.4176 C   0  0  0  0  0  0  0  0  0  0  0  0
  -27.9545  -25.4159   21.2081 C   0  0  0  0  0  0  0  0  0  0  0  0
  -28.9865  -11.2440   18.7137 C   0  0  0  0  0  0  0  0  0  0  0  0
  -27.8888  -29.6422   22.9053 C   0  0  0  0  0  0  0  0  0  0  0  0
  -27.9862  -10.4026   16.7609 C   0  0  0  0  0  0  0  0  0  0  0  0
  -26.5664  -10.8692   14.4053 C   0  0  0  0  0  0  0  0  0  0  0  0
  -28.5437  -10.0558   15.5302 C   0  0  0  0  0  0  0  0  0  0  0  0
  -29.9110  -14.5808   21.1445 C   0  0  0  0  0  0  0  0  0  0  0  0
  -27.6483  -25.6639   23.4250 C   0  0  0  0  0  0  0  0  0  0  0  0
  -30.9267  -16.0497   22.4274 C   0  0  0  0  0  0  0  0  0  0  0  0
  -32.3758  -14.1362   21.7294 C   0  0  0  0  0  0  0  0  0  0  0  0
  -22.6387  -29.0914   21.6415 C   0  0  0  0  0  0  0  0  0  0  0  0
  -23.3872  -29.9440   18.6025 C   0  0  0  0  0  0  0  0  0  0  0  0
  -25.7930  -30.8395   16.3537 C   0  0  0  0  0  0  0  0  0  0  0  0
  -27.0478  -20.5385   21.6180 C   0  0  0  0  0  0  0  0  0  0  0  0
  -17.6973  -28.2276   22.5868 C   0  0  0  0  0  0  0  0  0  0  0  0
  -23.9731  -31.1961   22.0233 C   0  0  0  0  0  0  0  0  0  0  0  0
  -25.3183  -29.3733   20.1226 C   0  0  0  0  0  0  0  0  0  0  0  0
  -18.6292  -28.0410   21.3922 C   0  0  0  0  0  0  0  0  0  0  0  0
  -27.4560  -18.5649   24.5531 C   0  0  0  0  0  0  0  0  0  0  0  0
  -19.9094  -27.3304   21.8197 C   0  0  0  0  0  0  0  0  0  0  0  0
  -28.2427  -17.3461   24.0678 C   0  0  0  0  0  0  0  0  0  0  0  0
  -26.4558  -19.0454   23.5039 C   0  0  0  0  0  0  0  0  0  0  0  0
  -27.8201  -18.0900   21.6873 C   0  0  0  0  0  0  0  0  0  0  0  0
  -20.6792  -28.1568   22.8570 C   0  0  1  0  0  0  0  0  0  0  0  0
  -23.1854  -30.3495   21.0283 C   0  0  1  0  0  0  0  0  0  0  0  0
  -28.8808  -17.6030   22.6894 C   0  0  2  0  0  0  0  0  0  0  0  0
  -27.7098  -26.2283   18.8263 C   0  0  0  0  0  0  0  0  0  0  0  0
  -27.0444  -24.2272   25.4061 C   0  0  0  0  0  0  0  0  0  0  0  0
  -25.8140  -26.3886   24.9948 C   0  0  0  0  0  0  0  0  0  0  0  0
  -26.1057  -31.4364   13.9364 C   0  0  0  0  0  0  0  0  0  0  0  0
  -30.2665  -22.2075   19.7778 C   0  0  0  0  0  0  0  0  0  0  0  0
  -30.2584  -29.0871   25.2943 C   0  0  0  0  0  0  0  0  0  0  0  0
  -23.1164  -27.0011   17.8433 C   0  0  0  0  0  0  0  0  0  0  0  0
  -24.3378  -27.5091   15.7177 C   0  0  0  0  0  0  0  0  0  0  0  0
  -22.1437  -28.6001   16.1846 C   0  0  0  0  0  0  0  0  0  0  0  0
  -26.8149  -33.5331   17.0310 C   0  0  0  0  0  0  0  0  0  0  0  0
  -29.7738  -26.9829   23.9978 C   0  0  0  0  0  0  0  0  0  0  0  0
  -27.7328  -21.9133   19.6687 C   0  0  0  0  0  0  0  0  0  0  0  0
  -27.7542  -25.0329   19.7975 C   0  0  1  0  0  0  0  0  0  0  0  0
  -27.1621  -25.6528   24.8202 C   0  0  0  0  0  0  0  0  0  0  0  0
  -24.1885  -29.3223   17.4843 C   0  0  1  0  0  0  0  0  0  0  0  0
  -25.8538  -31.9671   15.3392 C   0  0  2  0  0  0  0  0  0  0  0  0
  -28.8999  -22.8265   20.0377 C   0  0  2  0  0  0  0  0  0  0  0  0
  -29.2712  -28.3811   24.3732 C   0  0  2  0  0  0  0  0  0  1  0  0
  -23.4584  -28.1141   16.8327 C   0  0  0  0  0  0  0  0  0  0  0  0
  -28.9793  -15.5033   21.3994 N   0  0  0  0  0  0  0  0  0  0  0  0
  -28.8258  -26.2659   23.0656 N   0  0  0  0  0  0  0  0  0  0  0  0
  -29.6272  -16.3831   22.1819 N   0  0  0  0  0  0  0  0  0  0  0  0
  -23.9861  -29.9471   19.8702 N   0  0  0  0  0  0  0  0  0  0  0  0
  -27.1250  -19.2720   22.2206 N   0  0  0  0  0  0  0  0  0  0  0  0
  -31.7223  -16.8244   23.1951 N   0  0  0  0  0  0  0  0  0  0  0  0
  -32.4258  -12.9437   20.9947 N   0  0  0  0  0  0  0  0  0  0  0  0
  -21.3896  -29.2409   22.2132 N   0  0  0  0  0  0  0  0  0  0  0  0
  -24.5006  -30.4034   16.5558 N   0  0  0  0  0  0  0  0  0  0  0  0
  -27.7152  -20.6698   20.4064 N   0  0  0  0  0  0  0  0  0  0  0  0
  -26.9484  -32.9172   15.6858 N   0  3  0  0  0  0  0  0  0  0  0  0
  -28.7999  -24.0827   19.2658 N   0  3  0  0  0  0  0  0  0  0  0  0
  -33.3970  -14.5185   22.3494 O   0  0  0  0  0  0  0  0  0  0  0  0
  -23.3005  -28.0610   21.5978 O   0  0  0  0  0  0  0  0  0  0  0  0
  -22.2739  -30.4160   18.3587 O   0  0  0  0  0  0  0  0  0  0  0  0
  -26.7924  -30.3880   16.9085 O   0  0  0  0  0  0  0  0  0  0  0  0
  -26.4343  -21.4838   22.1249 O   0  0  0  0  0  0  0  0  0  0  0  0
  -28.6893  -10.1708   17.9312 O   0  0  0  0  0  0  0  0  0  0  0  0
  -29.1291  -29.1560   23.1834 O   0  0  0  0  0  0  0  0  0  1  0  0
  -25.8839  -11.0920   13.2744 F   0  0  0  0  0  0  0  0  0  0  0  0
  -29.7604   -9.4972   15.4732 F   0  0  0  0  0  0  0  0  0  0  0  0
  1  2  1  0  0  0  0
  1  5  2  0  0  0  0
  2  6  2  0  0  0  0
  3  8  2  0  0  0  0
  3 17  1  0  0  0  0
  4  9  1  0  0  0  0
  4 17  2  0  0  0  0
  5 19  1  0  0  0  0
  6 21  1  0  0  0  0
  7 10  2  0  0  0  0
  7 20  1  0  0  0  0
  8 24  1  0  0  0  0
  9 24  2  0  0  0  0
 10 25  1  0  0  0  0
 11 12  2  0  0  0  0
 11 26  1  0  0  0  0
 12 27  1  0  0  0  0
 13 22  1  0  0  0  0
 13 25  2  0  0  0  0
 14 23  1  0  0  0  0
 14 30  2  0  0  0  0
 15 27  2  0  0  0  0
 15 28  1  0  0  0  0
 16 23  2  0  0  0  0
 16 69  1  0  0  0  0
 17 29  1  0  0  0  0
 18 29  1  0  0  0  0
 18 31  2  0  0  0  0
 18 32  1  0  0  0  0
 19 21  2  0  0  0  0
 19 37  1  0  0  0  0
 20 22  2  0  0  0  0
 20 38  1  0  0  0  0
 21 46  1  0  0  0  0
 22 39  1  0  0  0  0
 23 61  1  0  0  0  0
 24 85  1  0  0  0  0
 25 86  1  0  0  0  0
 26 28  2  0  0  0  0
 26 85  1  0  0  0  0
 27 87  1  0  0  0  0
 28 88  1  0  0  0  0
 29 68  2  0  0  0  0
 30 62  1  0  0  0  0
 30 69  1  0  0  0  0
 31 70  1  0  0  0  0
 31 73  1  0  0  0  0
 32 74  1  0  0  0  0
 32 80  2  0  0  0  0
 33 47  1  0  0  0  0
 33 75  1  0  0  0  0
 33 81  2  0  0  0  0
 34 63  1  0  0  0  0
 34 71  1  0  0  0  0
 34 82  2  0  0  0  0
 35 64  1  0  0  0  0
 35 76  1  0  0  0  0
 35 83  2  0  0  0  0
 36 72  1  0  0  0  0
 36 77  1  0  0  0  0
 36 84  2  0  0  0  0
 37 40  1  0  0  0  0
 38 47  1  0  0  0  0
 39 71  1  0  0  0  0
 40 42  1  0  0  0  0
 41 43  1  0  0  0  0
 41 44  1  0  0  0  0
 42 46  1  0  0  0  0
 43 48  1  0  0  0  0
 44 72  1  0  0  0  0
 45 48  1  0  0  0  0
 45 72  1  0  0  0  0
 46 75  1  0  0  0  0
 47 71  1  0  0  0  0
 48 70  1  0  0  0  0
 49 61  1  0  0  0  0
 50 62  1  0  0  0  0
 51 62  1  0  0  0  0
 52 64  1  0  0  0  0
 53 65  1  0  0  0  0
 54 66  1  0  0  0  0
 55 67  1  0  0  0  0
 56 67  1  0  0  0  0
 57 67  1  0  0  0  0
 58 78  1  0  0  0  0
 59 66  1  0  0  0  0
 59 69  1  0  0  0  0
 60 65  1  0  0  0  0
 60 77  1  0  0  0  0
 61 79  1  0  0  0  0
 63 67  1  0  0  0  0
 63 76  1  0  0  0  0
 64 78  1  0  0  0  0
 65 79  1  0  0  0  0
 66 86  1  0  0  0  0
 68 70  1  0  0  0  0
M  CHG  2  78   1  79   1
M  ISO  4  36 100  66 101  77 100  86 101
M  END
> <Batch ID>
0110

> <Smiles>
CNC(C)C(=O)NC(C(=O)N1Cc2cc([101O:1][101CH:1](C)Cn3cc(C(C)NC(C)C[100NH:0][100C:0](=O)N4CCCC(n5nc(-c6ccc(Oc7ccc(F)cc7F)cc6)c(C(N)=O)c5N)C4)cc3C(C)C)ccc2CC1C(=O)NC1CCCc2ccccc21)C(C)(C)C

> <Shape>
0.228

> <Color>
0.065

> <Negative vol penalty>
0.000

$$$$

  -OEChem-04052319583D

 87 95  0     1  0  0  0  0  0999 V2000
  -31.6755  -18.4199   21.5756 C   0  0  0  0  0  0  0  0  0  0  0  0
  -30.3684  -18.8596   21.7587 C   0  0  0  0  0  0  0  0  0  0  0  0
  -28.7598  -25.1515   18.5683 C   0  0  0  0  0  0  0  0  0  0  0  0
  -30.3717  -26.0874   20.1055 C   0  0  0  0  0  0  0  0  0  0  0  0
  -31.9204  -17.2335   20.8854 C   0  0  0  0  0  0  0  0  0  0  0  0
  -29.3054  -18.1136   21.2507 C   0  0  0  0  0  0  0  0  0  0  0  0
  -25.5104  -17.6301   24.5687 C   0  0  0  0  0  0  0  0  0  0  0  0
  -29.7982  -24.7055   17.7508 C   0  0  0  0  0  0  0  0  0  0  0  0
  -31.4102  -25.6413   19.2880 C   0  0  0  0  0  0  0  0  0  0  0  0
  -24.6590  -18.7229   24.7259 C   0  0  0  0  0  0  0  0  0  0  0  0
  -32.0332  -23.0054   15.4422 C   0  0  0  0  0  0  0  0  0  0  0  0
  -31.9532  -21.7053   14.9434 C   0  0  0  0  0  0  0  0  0  0  0  0
  -23.0417  -17.6625   23.2839 C   0  0  0  0  0  0  0  0  0  0  0  0
  -31.9234  -20.8415   17.1996 C   0  0  0  0  0  0  0  0  0  0  0  0
  -29.0465  -25.8425   19.7456 C   0  0  0  0  0  0  0  0  0  0  0  0
  -27.3676  -25.6060   21.6516 C   0  0  0  0  0  0  0  0  0  0  0  0
  -30.8595  -16.4677   20.3770 C   0  0  0  0  0  0  0  0  0  0  0  0
  -25.1379  -16.5484   23.7579 C   0  0  0  0  0  0  0  0  0  0  0  0
  -29.5365  -16.9166   20.5519 C   0  0  0  0  0  0  0  0  0  0  0  0
  -23.8891  -16.5561   23.1202 C   0  0  0  0  0  0  0  0  0  0  0  0
  -31.1235  -24.9504   18.1107 C   0  0  0  0  0  0  0  0  0  0  0  0
  -23.4256  -18.7405   24.0812 C   0  0  0  0  0  0  0  0  0  0  0  0
  -32.0584  -23.2237   16.8197 C   0  0  0  0  0  0  0  0  0  0  0  0
  -31.8983  -20.6233   15.8221 C   0  0  0  0  0  0  0  0  0  0  0  0
  -32.0035  -22.1417   17.6983 C   0  0  0  0  0  0  0  0  0  0  0  0
  -27.9742  -26.3040   20.5902 C   0  0  0  0  0  0  0  0  0  0  0  0
  -26.4122  -26.4697   22.1289 C   0  0  0  0  0  0  0  0  0  0  0  0
  -21.1491  -28.1504   23.7749 C   0  0  0  0  0  0  0  0  0  0  0  0
  -22.2129  -28.7414   22.9215 C   0  0  0  0  0  0  0  0  0  0  0  0
  -27.6430  -24.2943   22.1606 C   0  0  0  0  0  0  0  0  0  0  0  0
  -26.3025  -15.2204   21.1152 C   0  0  0  0  0  0  0  0  0  0  0  0
  -23.9839  -13.0198   21.6662 C   0  0  0  0  0  0  0  0  0  0  0  0
  -20.9808  -12.2736   23.1055 C   0  0  0  0  0  0  0  0  0  0  0  0
  -22.1694  -30.0015   20.7984 C   0  0  0  0  0  0  0  0  0  0  0  0
  -31.1760  -15.2165   19.5967 C   0  0  0  0  0  0  0  0  0  0  0  0
  -26.0563  -15.3652   23.6200 C   0  0  0  0  0  0  0  0  0  0  0  0
  -23.4335  -15.4105   22.2550 C   0  0  0  0  0  0  0  0  0  0  0  0
  -19.8289  -28.1734   23.0918 C   0  0  0  0  0  0  0  0  0  0  0  0
  -29.9752  -14.2917   19.4151 C   0  0  0  0  0  0  0  0  0  0  0  0
  -25.5842  -31.3544   21.1753 C   0  0  0  0  0  0  0  0  0  0  0  0
  -28.7500  -15.0875   18.9765 C   0  0  0  0  0  0  0  0  0  0  0  0
  -26.4577  -30.1063   21.0663 C   0  0  0  0  0  0  0  0  0  0  0  0
  -24.2883  -31.2084   20.3839 C   0  0  0  0  0  0  0  0  0  0  0  0
  -24.3699  -28.7455   20.6442 C   0  0  0  0  0  0  0  0  0  0  0  0
  -28.3556  -16.1223   20.0372 C   0  0  1  0  0  0  0  0  0  0  0  0
  -25.7932  -14.5483   22.3588 C   0  0  1  0  0  0  0  0  0  0  0  0
  -25.6649  -28.8502   21.4644 C   0  0  1  0  0  0  0  0  0  0  0  0
  -20.1237  -29.0456   21.8672 C   0  0  2  0  0  0  0  0  0  0  0  0
  -19.3238  -10.4050   23.3502 C   0  0  0  0  0  0  0  0  0  0  0  0
  -20.0301  -27.0872   20.2987 C   0  0  0  0  0  0  0  0  0  0  0  0
  -17.9582  -28.4295   20.7560 C   0  0  0  0  0  0  0  0  0  0  0  0
  -23.0217  -13.5023   18.8112 C   0  0  0  0  0  0  0  0  0  0  0  0
  -20.8722  -12.3715   19.4187 C   0  0  0  0  0  0  0  0  0  0  0  0
  -23.0185  -11.1045   19.5219 C   0  0  0  0  0  0  0  0  0  0  0  0
  -21.2869  -12.2325   26.0489 C   0  0  0  0  0  0  0  0  0  0  0  0
  -21.3396  -24.2283   26.0059 C   0  0  0  0  0  0  0  0  0  0  0  0
  -21.7130  -25.4287   26.8811 C   0  0  0  0  0  0  0  0  0  0  0  0
  -22.4055  -23.1310   25.9898 C   0  0  0  0  0  0  0  0  0  0  0  0
  -20.6603  -26.5397   26.9768 C   0  0  0  0  0  0  0  0  0  0  0  0
  -21.9717  -21.9509   25.1218 C   0  0  0  0  0  0  0  0  0  0  0  0
  -20.2350  -27.1378   25.6402 C   0  0  0  0  0  0  0  0  0  0  0  0
  -23.0437  -20.8719   25.0647 C   0  0  0  0  0  0  0  0  0  1  0  0
  -22.5359  -12.8694   21.2667 C   0  0  1  0  0  0  0  0  0  0  0  0
  -20.5356  -11.0969   23.9549 C   0  0  2  0  0  0  0  0  0  0  0  0
  -19.4776  -28.4775   20.6070 C   0  0  0  0  0  0  0  0  0  0  0  0
  -22.3712  -12.4846   19.7693 C   0  0  0  0  0  0  0  0  0  0  0  0
  -27.4483  -27.5175   20.4037 N   0  0  0  0  0  0  0  0  0  0  0  0
  -21.3972  -27.6776   24.9453 N   0  0  0  0  0  0  0  0  0  0  0  0
  -26.5011  -27.5888   21.3543 N   0  0  0  0  0  0  0  0  0  0  0  0
  -21.5834  -29.1438   21.7433 N   0  0  0  0  0  0  0  0  0  0  0  0
  -24.3695  -14.2794   22.1463 N   0  0  0  0  0  0  0  0  0  0  0  0
  -23.5749  -29.9798   20.7355 N   0  0  0  0  0  0  0  0  0  0  0  0
  -25.5132  -26.3735   23.1314 N   0  0  0  0  0  0  0  0  0  0  0  0
  -28.6576  -23.5415   21.5537 N   0  0  0  0  0  0  0  0  0  0  0  0
  -27.6590  -15.4828   21.1328 N   0  0  0  0  0  0  0  0  0  0  0  0
  -21.9530  -11.9096   22.1980 N   0  0  0  0  0  0  0  0  0  0  0  0
  -20.1791  -11.5545   25.3277 N   0  3  0  0  0  0  0  0  0  0  0  0
  -23.3670  -28.7991   23.2921 O   0  0  0  0  0  0  0  0  0  0  0  0
  -26.9972  -23.7978   23.1145 O   0  0  0  0  0  0  0  0  0  0  0  0
  -25.5227  -15.4803   20.2063 O   0  0  0  0  0  0  0  0  0  0  0  0
  -24.7432  -12.0531   21.5631 O   0  0  0  0  0  0  0  0  0  0  0  0
  -20.5103  -13.4020   23.2316 O   0  0  0  0  0  0  0  0  0  0  0  0
  -21.4822  -30.7548   20.0996 O   0  0  0  0  0  0  0  0  0  0  0  0
  -32.1370  -24.5151   17.3133 O   0  0  0  0  0  0  0  0  0  0  0  0
  -22.5868  -19.8140   24.2334 O   0  0  0  0  0  0  0  0  0  1  0  0
  -31.8199  -19.3749   15.3429 F   0  0  0  0  0  0  0  0  0  0  0  0
  -32.0261  -22.3452   19.0227 F   0  0  0  0  0  0  0  0  0  0  0  0
  1  2  1  0  0  0  0
  1  5  2  0  0  0  0
  2  6  2  0  0  0  0
  3  8  2  0  0  0  0
  3 15  1  0  0  0  0
  4  9  1  0  0  0  0
  4 15  2  0  0  0  0
  5 17  1  0  0  0  0
  6 19  1  0  0  0  0
  7 10  2  0  0  0  0
  7 18  1  0  0  0  0
  8 21  1  0  0  0  0
  9 21  2  0  0  0  0
 10 22  1  0  0  0  0
 11 12  2  0  0  0  0
 11 23  1  0  0  0  0
 12 24  1  0  0  0  0
 13 20  1  0  0  0  0
 13 22  2  0  0  0  0
 14 24  2  0  0  0  0
 14 25  1  0  0  0  0
 15 26  1  0  0  0  0
 16 26  1  0  0  0  0
 16 27  2  0  0  0  0
 16 30  1  0  0  0  0
 17 19  2  0  0  0  0
 17 35  1  0  0  0  0
 18 20  2  0  0  0  0
 18 36  1  0  0  0  0
 19 45  1  0  0  0  0
 20 37  1  0  0  0  0
 21 84  1  0  0  0  0
 22 85  1  0  0  0  0
 23 25  2  0  0  0  0
 23 84  1  0  0  0  0
 24 86  1  0  0  0  0
 25 87  1  0  0  0  0
 26 67  2  0  0  0  0
 27 69  1  0  0  0  0
 27 73  1  0  0  0  0
 28 29  1  0  0  0  0
 28 38  1  0  0  0  0
 28 68  2  0  0  0  0
 29 70  1  0  0  0  0
 29 78  2  0  0  0  0
 30 74  1  0  0  0  0
 30 79  2  0  0  0  0
 31 46  1  0  0  0  0
 31 75  1  0  0  0  0
 31 80  2  0  0  0  0
 32 63  1  0  0  0  0
 32 71  1  0  0  0  0
 32 81  2  0  0  0  0
 33 64  1  0  0  0  0
 33 76  1  0  0  0  0
 33 82  2  0  0  0  0
 34 70  1  0  0  0  0
 34 72  1  0  0  0  0
 34 83  2  0  0  0  0
 35 39  1  0  0  0  0
 36 46  1  0  0  0  0
 37 71  1  0  0  0  0
 38 48  1  0  0  0  0
 39 41  1  0  0  0  0
 40 42  1  0  0  0  0
 40 43  1  0  0  0  0
 41 45  1  0  0  0  0
 42 47  1  0  0  0  0
 43 72  1  0  0  0  0
 44 47  1  0  0  0  0
 44 72  1  0  0  0  0
 45 75  1  0  0  0  0
 46 71  1  0  0  0  0
 47 69  1  0  0  0  0
 48 65  1  0  0  0  0
 48 70  1  0  0  0  0
 49 64  1  0  0  0  0
 50 65  1  0  0  0  0
 51 65  1  0  0  0  0
 52 66  1  0  0  0  0
 53 66  1  0  0  0  0
 54 66  1  0  0  0  0
 55 77  1  0  0  0  0
 56 57  1  0  0  0  0
 56 58  1  0  0  0  0
 57 59  1  0  0  0  0
 58 60  1  0  0  0  0
 59 61  1  0  0  0  0
 60 62  1  0  0  0  0
 61 68  1  0  0  0  0
 62 85  1  0  0  0  0
 63 66  1  0  0  0  0
 63 76  1  0  0  0  0
 64 77  1  0  0  0  0
 67 69  1  0  0  0  0
M  CHG  1  77   1
M  ISO  4  34 100  62 101  70 100  85 101
M  END
> <Batch ID>
0110

> <Smiles>
CNC(C)C(=O)NC(C(=O)N1Cc2cc([101O:1][101CH2:1]CCCCCCNC3=CC(C(C)C)[100N:0]([100C:0](=O)N4CCCC(n5nc(-c6ccc(Oc7ccc(F)cc7F)cc6)c(C(N)=O)c5N)C4)C3=O)ccc2CC1C(=O)NC1CCCc2ccccc21)C(C)(C)C

> <Shape>
0.220

> <Color>
0.066

> <Negative vol penalty>
0.000

$$$$

  -OEChem-04052319583D

 84 92  0     1  0  0  0  0  0999 V2000
  -18.4733  -28.9038   22.5020 C   0  0  0  0  0  0  0  0  0  0  0  0
  -17.9423  -27.6297   22.6750 C   0  0  0  0  0  0  0  0  0  0  0  0
  -31.4306  -20.9365   19.2875 C   0  0  0  0  0  0  0  0  0  0  0  0
  -29.0744  -20.8955   19.8202 C   0  0  0  0  0  0  0  0  0  0  0  0
  -19.8514  -29.0718   22.3728 C   0  0  0  0  0  0  0  0  0  0  0  0
  -18.7890  -26.5226   22.7178 C   0  0  0  0  0  0  0  0  0  0  0  0
  -19.4016  -20.0782   25.7856 C   0  0  0  0  0  0  0  0  0  0  0  0
  -31.2397  -22.0938   18.5326 C   0  0  0  0  0  0  0  0  0  0  0  0
  -28.8836  -22.0528   19.0653 C   0  0  0  0  0  0  0  0  0  0  0  0
  -19.6124  -18.7414   25.4504 C   0  0  0  0  0  0  0  0  0  0  0  0
  -27.8388  -25.1996   17.5740 C   0  0  0  0  0  0  0  0  0  0  0  0
  -27.0494  -26.2101   18.1230 C   0  0  0  0  0  0  0  0  0  0  0  0
  -21.9830  -19.1603   25.2959 C   0  0  0  0  0  0  0  0  0  0  0  0
  -23.6698  -11.7978   20.9456 C   0  0  0  0  0  0  0  0  0  0  0  0
  -25.0617  -13.7565   20.8417 C   0  0  0  0  0  0  0  0  0  0  0  0
  -28.5755  -26.3896   19.9874 C   0  0  0  0  0  0  0  0  0  0  0  0
  -30.3479  -20.3373   19.9313 C   0  0  0  0  0  0  0  0  0  0  0  0
  -30.8554  -19.0618   22.0815 C   0  0  0  0  0  0  0  0  0  0  0  0
  -20.7162  -27.9672   22.4238 C   0  0  0  0  0  0  0  0  0  0  0  0
  -20.4806  -20.9701   25.8679 C   0  0  0  0  0  0  0  0  0  0  0  0
  -20.1798  -26.6758   22.5879 C   0  0  0  0  0  0  0  0  0  0  0  0
  -21.7835  -20.5073   25.6348 C   0  0  0  0  0  0  0  0  0  0  0  0
  -29.9663  -22.6519   18.4215 C   0  0  0  0  0  0  0  0  0  0  0  0
  -20.9029  -18.2829   25.2027 C   0  0  0  0  0  0  0  0  0  0  0  0
  -28.9966  -24.7841   18.2318 C   0  0  0  0  0  0  0  0  0  0  0  0
  -23.8289  -13.1699   21.1050 C   0  0  0  0  0  0  0  0  0  0  0  0
  -27.4177  -26.8051   19.3296 C   0  0  0  0  0  0  0  0  0  0  0  0
  -29.3649  -25.3791   19.4384 C   0  0  0  0  0  0  0  0  0  0  0  0
  -30.5443  -19.1416   20.7108 C   0  0  0  0  0  0  0  0  0  0  0  0
  -24.7659  -11.0626   20.5240 C   0  0  0  0  0  0  0  0  0  0  0  0
  -26.0955  -12.9335   20.4249 C   0  0  0  0  0  0  0  0  0  0  0  0
  -30.9359  -17.7148   22.3375 C   0  0  0  0  0  0  0  0  0  0  0  0
  -31.0538  -20.1115   23.0377 C   0  0  0  0  0  0  0  0  0  0  0  0
  -21.3185  -23.6249   24.3337 C   0  0  0  0  0  0  0  0  0  0  0  0
  -23.6813  -23.6979   26.5550 C   0  0  0  0  0  0  0  0  0  0  0  0
  -25.6358  -21.9803   28.7633 C   0  0  0  0  0  0  0  0  0  0  0  0
  -28.5172  -12.9125   19.7311 C   0  0  0  0  0  0  0  0  0  0  0  0
  -22.1949  -28.1935   22.2322 C   0  0  0  0  0  0  0  0  0  0  0  0
  -20.2393  -22.4029   26.2568 C   0  0  0  0  0  0  0  0  0  0  0  0
  -22.9781  -21.4197   25.7300 C   0  0  0  0  0  0  0  0  0  0  0  0
  -23.0536  -27.0075   22.6639 C   0  0  0  0  0  0  0  0  0  0  0  0
  -31.9864  -13.5549   20.2101 C   0  0  0  0  0  0  0  0  0  0  0  0
  -22.4780  -25.7048   22.1176 C   0  0  0  0  0  0  0  0  0  0  0  0
  -32.0380  -15.0519   20.5236 C   0  0  0  0  0  0  0  0  0  0  0  0
  -30.9168  -13.2300   19.1688 C   0  0  0  0  0  0  0  0  0  0  0  0
  -29.6253  -15.2328   19.7933 C   0  0  0  0  0  0  0  0  0  0  0  0
  -21.0677  -25.4527   22.6644 C   0  0  1  0  0  0  0  0  0  0  0  0
  -21.3567  -23.3399   25.8085 C   0  0  1  0  0  0  0  0  0  0  0  0
  -30.6436  -15.6004   20.8849 C   0  0  2  0  0  0  0  0  0  0  0  0
  -25.5519   -8.7907   21.2821 C   0  0  0  0  0  0  0  0  0  0  0  0
  -24.8714   -9.1530   18.8819 C   0  0  0  0  0  0  0  0  0  0  0  0
  -27.5030  -22.3056   30.4081 C   0  0  0  0  0  0  0  0  0  0  0  0
  -25.6695  -23.9175   24.2509 C   0  0  0  0  0  0  0  0  0  0  0  0
  -27.4880  -23.2866   25.8519 C   0  0  0  0  0  0  0  0  0  0  0  0
  -26.1814  -25.3805   26.2135 C   0  0  0  0  0  0  0  0  0  0  0  0
  -23.9692  -21.0345   31.0187 C   0  0  0  0  0  0  0  0  0  0  0  0
  -21.9399  -15.4462   23.2054 C   0  0  0  0  0  0  0  0  0  0  0  0
  -22.2252  -16.6915   24.0301 C   0  0  0  0  0  0  0  0  0  1  0  0
  -23.0906  -15.1067   22.2711 C   0  0  0  0  0  0  0  0  0  0  0  0
  -24.6309   -9.5879   20.3396 C   0  0  0  0  0  0  0  0  0  0  0  0
  -25.0830  -23.1443   26.6434 C   0  0  1  0  0  0  0  0  0  0  0  0
  -25.9958  -22.2521   30.2128 C   0  0  2  0  0  0  0  0  0  0  0  0
  -26.0830  -23.9152   25.7362 C   0  0  0  0  0  0  0  0  0  0  0  0
  -30.4348  -17.9408   20.1362 N   0  0  0  0  0  0  0  0  0  0  0  0
  -25.9790  -11.5969   20.2586 N   0  0  0  0  0  0  0  0  0  0  0  0
  -30.6785  -17.0938   21.1508 N   0  0  0  0  0  0  0  0  0  0  0  0
  -22.6899  -22.8133   26.1073 N   0  0  0  0  0  0  0  0  0  0  0  0
  -29.6221  -13.7770   19.5803 N   0  0  0  0  0  0  0  0  0  0  0  0
  -31.2011  -17.0128   23.4597 N   0  0  0  0  0  0  0  0  0  0  0  0
  -30.9339  -21.4397   22.6065 N   0  0  0  0  0  0  0  0  0  0  0  0
  -27.3476  -13.5407   20.1578 N   0  0  0  0  0  0  0  0  0  0  0  0
  -21.1333  -24.9585   24.0230 N   0  0  0  0  0  0  0  0  0  0  0  0
  -25.4351  -23.1487   28.0592 N   0  0  0  0  0  0  0  0  0  0  0  0
  -25.4456  -21.1823   31.0925 N   0  3  0  0  0  0  0  0  0  0  0  0
  -31.3453  -19.8789   24.2354 O   0  0  0  0  0  0  0  0  0  0  0  0
  -21.4490  -22.7032   23.5367 O   0  0  0  0  0  0  0  0  0  0  0  0
  -23.4725  -24.8699   26.8783 O   0  0  0  0  0  0  0  0  0  0  0  0
  -25.5457  -20.8451   28.3009 O   0  0  0  0  0  0  0  0  0  0  0  0
  -28.6094  -11.6996   19.5252 O   0  0  0  0  0  0  0  0  0  0  0  0
  -29.7797  -23.7813   17.6851 O   0  0  0  0  0  0  0  0  0  0  0  0
  -21.1114  -16.9788   24.8747 O   0  0  0  0  0  0  0  0  0  1  0  0
  -22.7752  -13.9415   21.5209 O   0  0  0  0  0  0  0  0  0  0  0  0
  -26.6603  -27.7765   19.8559 F   0  0  0  0  0  0  0  0  0  0  0  0
  -30.4767  -24.9849   20.0743 F   0  0  0  0  0  0  0  0  0  0  0  0
  1  2  1  0  0  0  0
  1  5  2  0  0  0  0
  2  6  2  0  0  0  0
  3  8  2  0  0  0  0
  3 17  1  0  0  0  0
  4  9  1  0  0  0  0
  4 17  2  0  0  0  0
  5 19  1  0  0  0  0
  6 21  1  0  0  0  0
  7 10  2  0  0  0  0
  7 20  1  0  0  0  0
  8 23  1  0  0  0  0
  9 23  2  0  0  0  0
 10 24  1  0  0  0  0
 11 12  2  0  0  0  0
 11 25  1  0  0  0  0
 12 27  1  0  0  0  0
 13 22  1  0  0  0  0
 13 24  2  0  0  0  0
 14 26  2  0  0  0  0
 14 30  1  0  0  0  0
 15 26  1  0  0  0  0
 15 31  2  0  0  0  0
 16 27  2  0  0  0  0
 16 28  1  0  0  0  0
 17 29  1  0  0  0  0
 18 29  1  0  0  0  0
 18 32  2  0  0  0  0
 18 33  1  0  0  0  0
 19 21  2  0  0  0  0
 19 38  1  0  0  0  0
 20 22  2  0  0  0  0
 20 39  1  0  0  0  0
 21 47  1  0  0  0  0
 22 40  1  0  0  0  0
 23 80  1  0  0  0  0
 24 81  1  0  0  0  0
 25 28  2  0  0  0  0
 25 80  1  0  0  0  0
 26 82  1  0  0  0  0
 27 83  1  0  0  0  0
 28 84  1  0  0  0  0
 29 64  2  0  0  0  0
 30 60  1  0  0  0  0
 30 65  2  0  0  0  0
 31 65  1  0  0  0  0
 31 71  1  0  0  0  0
 32 66  1  0  0  0  0
 32 69  1  0  0  0  0
 33 70  1  0  0  0  0
 33 75  2  0  0  0  0
 34 48  1  0  0  0  0
 34 72  1  0  0  0  0
 34 76  2  0  0  0  0
 35 61  1  0  0  0  0
 35 67  1  0  0  0  0
 35 77  2  0  0  0  0
 36 62  1  0  0  0  0
 36 73  1  0  0  0  0
 36 78  2  0  0  0  0
 37 68  1  0  0  0  0
 37 71  1  0  0  0  0
 37 79  2  0  0  0  0
 38 41  1  0  0  0  0
 39 48  1  0  0  0  0
 40 67  1  0  0  0  0
 41 43  1  0  0  0  0
 42 44  1  0  0  0  0
 42 45  1  0  0  0  0
 43 47  1  0  0  0  0
 44 49  1  0  0  0  0
 45 68  1  0  0  0  0
 46 49  1  0  0  0  0
 46 68  1  0  0  0  0
 47 72  1  0  0  0  0
 48 67  1  0  0  0  0
 49 66  1  0  0  0  0
 50 60  1  0  0  0  0
 51 60  1  0  0  0  0
 52 62  1  0  0  0  0
 53 63  1  0  0  0  0
 54 63  1  0  0  0  0
 55 63  1  0  0  0  0
 56 74  1  0  0  0  0
 57 58  1  0  0  0  0
 57 59  1  0  0  0  0
 58 81  1  0  0  0  0
 59 82  1  0  0  0  0
 61 63  1  0  0  0  0
 61 73  1  0  0  0  0
 62 74  1  0  0  0  0
 64 66  1  0  0  0  0
M  CHG  1  74   1
M  ISO  4  37 100  58 101  71 100  81 101
M  END
> <Batch ID>
0110

> <Smiles>
CNC(C)C(=O)NC(C(=O)N1Cc2cc([101O:1][101CH2:1]CCOc3cc([100NH:0][100C:0](=O)N4CCCC(n5nc(-c6ccc(Oc7ccc(F)cc7F)cc6)c(C(N)=O)c5N)C4)nc(C(C)C)c3)ccc2CC1C(=O)NC1CCCc2ccccc21)C(C)(C)C

> <Shape>
0.225

> <Color>
0.075

> <Negative vol penalty>
0.000

$$$$

  -OEChem-04052319583D

 80 88  0     1  0  0  0  0  0999 V2000
  -17.9910  -27.7113   22.9163 C   0  0  0  0  0  0  0  0  0  0  0  0
  -18.7323  -26.6013   22.5243 C   0  0  0  0  0  0  0  0  0  0  0  0
  -26.8465  -12.9447   20.9260 C   0  0  0  0  0  0  0  0  0  0  0  0
  -27.2538  -12.8490   18.5465 C   0  0  0  0  0  0  0  0  0  0  0  0
  -18.6136  -28.9515   23.0516 C   0  0  0  0  0  0  0  0  0  0  0  0
  -20.0965  -26.7311   22.2663 C   0  0  0  0  0  0  0  0  0  0  0  0
  -26.2418  -23.0817   22.7509 C   0  0  0  0  0  0  0  0  0  0  0  0
  -26.3794  -11.6307   20.8989 C   0  0  0  0  0  0  0  0  0  0  0  0
  -26.7868  -11.5349   18.5194 C   0  0  0  0  0  0  0  0  0  0  0  0
  -27.3354  -22.7057   21.9722 C   0  0  0  0  0  0  0  0  0  0  0  0
  -24.7430   -8.4210   21.3928 C   0  0  0  0  0  0  0  0  0  0  0  0
  -23.5698   -8.1336   22.0904 C   0  0  0  0  0  0  0  0  0  0  0  0
  -28.3201  -24.8810   22.3156 C   0  0  0  0  0  0  0  0  0  0  0  0
  -22.3681   -9.7234   20.7244 C   0  0  0  0  0  0  0  0  0  0  0  0
  -31.8296  -20.9836   19.9756 C   0  0  0  0  0  0  0  0  0  0  0  0
  -27.2836  -13.5539   19.7497 C   0  0  0  0  0  0  0  0  0  0  0  0
  -29.0904  -15.3392   19.9863 C   0  0  0  0  0  0  0  0  0  0  0  0
  -19.9880  -29.0945   22.8045 C   0  0  0  0  0  0  0  0  0  0  0  0
  -26.1738  -24.3661   23.3097 C   0  0  0  0  0  0  0  0  0  0  0  0
  -20.7378  -27.9746   22.3971 C   0  0  0  0  0  0  0  0  0  0  0  0
  -27.2257  -25.2700   23.1031 C   0  0  0  0  0  0  0  0  0  0  0  0
  -26.3496  -10.9257   19.6957 C   0  0  0  0  0  0  0  0  0  0  0  0
  -28.3734  -23.6064   21.7521 C   0  0  0  0  0  0  0  0  0  0  0  0
  -24.7288   -9.3597   20.3611 C   0  0  0  0  0  0  0  0  0  0  0  0
  -22.3824   -8.7847   21.7562 C   0  0  0  0  0  0  0  0  0  0  0  0
  -23.5414  -10.0108   20.0269 C   0  0  0  0  0  0  0  0  0  0  0  0
  -27.7656  -14.9115   19.7769 C   0  0  0  0  0  0  0  0  0  0  0  0
  -32.6666  -21.1587   18.8573 C   0  0  0  0  0  0  0  0  0  0  0  0
  -30.6992  -21.7034   19.6745 C   0  0  0  0  0  0  0  0  0  0  0  0
  -29.0235  -16.7094   19.9189 C   0  0  0  0  0  0  0  0  0  0  0  0
  -30.2754  -14.5669   20.2207 C   0  0  0  0  0  0  0  0  0  0  0  0
  -24.1998  -26.8398   23.0131 C   0  0  0  0  0  0  0  0  0  0  0  0
  -26.0117  -28.0734   25.4042 C   0  0  0  0  0  0  0  0  0  0  0  0
  -28.9977  -28.1034   27.0565 C   0  0  0  0  0  0  0  0  0  0  0  0
  -27.1792  -21.3778   17.4796 C   0  0  0  0  0  0  0  0  0  0  0  0
  -20.6073  -30.4650   22.9183 C   0  0  0  0  0  0  0  0  0  0  0  0
  -24.9998  -24.7471   24.1693 C   0  0  0  0  0  0  0  0  0  0  0  0
  -27.2104  -26.6538   23.6974 C   0  0  0  0  0  0  0  0  0  0  0  0
  -22.1320  -30.4405   22.9889 C   0  0  0  0  0  0  0  0  0  0  0  0
  -25.0284  -19.8110   19.8452 C   0  0  0  0  0  0  0  0  0  0  0  0
  -22.7010  -29.5122   21.9206 C   0  0  0  0  0  0  0  0  0  0  0  0
  -25.6544  -18.4305   20.0505 C   0  0  0  0  0  0  0  0  0  0  0  0
  -25.1574  -20.2795   18.3975 C   0  0  0  0  0  0  0  0  0  0  0  0
  -27.1565  -18.8771   18.0648 C   0  0  0  0  0  0  0  0  0  0  0  0
  -22.2247  -28.0701   22.1322 C   0  0  1  0  0  0  0  0  0  0  0  0
  -24.7932  -26.2557   24.2639 C   0  0  1  0  0  0  0  0  0  0  0  0
  -27.1006  -18.3863   19.5216 C   0  0  2  0  0  0  0  0  0  0  0  0
  -34.0143  -20.6029   18.6494 C   0  0  0  0  0  0  0  0  0  0  0  0
  -30.1927  -29.2450   28.9448 C   0  0  0  0  0  0  0  0  0  0  0  0
  -26.4291  -30.5342   23.6492 C   0  0  0  0  0  0  0  0  0  0  0  0
  -28.3390  -31.1822   25.1327 C   0  0  0  0  0  0  0  0  0  0  0  0
  -26.0311  -31.0329   26.0673 C   0  0  0  0  0  0  0  0  0  0  0  0
  -29.3238  -25.5631   28.5395 C   0  0  0  0  0  0  0  0  0  0  0  0
  -29.4339  -21.9218   20.4508 C   0  0  0  0  0  0  0  0  0  1  0  0
  -30.0182  -23.0874   17.6907 C   0  0  0  0  0  0  0  0  0  0  0  0
  -29.2847  -22.3372   16.5820 C   0  0  0  0  0  0  0  0  0  0  0  0
  -27.2671  -28.9092   25.4721 C   0  0  1  0  0  0  0  0  0  0  0  0
  -29.3301  -28.0608   28.5371 C   0  0  2  0  0  0  0  0  0  0  0  0
  -27.0163  -30.3893   25.0674 C   0  0  0  0  0  0  0  0  0  0  0  0
  -26.9190  -15.9277   19.5907 N   0  0  0  0  0  0  0  0  0  0  0  0
  -32.1150  -21.9291   17.9159 N   0  0  0  0  0  0  0  0  0  0  0  0
  -30.9192  -22.2445   18.4420 N   0  0  0  0  0  0  0  0  0  0  0  0
  -27.7137  -17.0075   19.6828 N   0  0  0  0  0  0  0  0  0  0  0  0
  -26.0378  -26.9814   24.5253 N   0  0  0  0  0  0  0  0  0  0  0  0
  -26.5533  -20.2148   17.9579 N   0  0  0  0  0  0  0  0  0  0  0  0
  -29.9579  -17.6762   20.0392 N   0  0  0  0  0  0  0  0  0  0  0  0
  -30.1660  -13.1702   20.2589 N   0  0  0  0  0  0  0  0  0  0  0  0
  -22.9711  -27.4431   23.2019 N   0  0  0  0  0  0  0  0  0  0  0  0
  -27.7976  -28.7401   26.8206 N   0  0  0  0  0  0  0  0  0  0  0  0
  -28.5047  -21.2305   17.0895 N   0  0  0  0  0  0  0  0  0  0  0  0
  -30.0661  -26.8076   28.8668 N   0  3  0  0  0  0  0  0  0  0  0  0
  -31.3953  -15.1004   20.4075 O   0  0  0  0  0  0  0  0  0  0  0  0
  -24.8122  -26.7510   21.9554 O   0  0  0  0  0  0  0  0  0  0  0  0
  -25.0461  -28.3741   26.1105 O   0  0  0  0  0  0  0  0  0  0  0  0
  -29.7312  -27.6235   26.1950 O   0  0  0  0  0  0  0  0  0  0  0  0
  -26.6014  -22.4679   17.4108 O   0  0  0  0  0  0  0  0  0  0  0  0
  -25.8942   -9.6434   19.6689 O   0  0  0  0  0  0  0  0  0  0  0  0
  -29.4418  -23.2422   20.9919 O   0  0  0  0  0  0  0  0  0  1  0  0
  -21.2555   -8.5075   22.4251 F   0  0  0  0  0  0  0  0  0  0  0  0
  -23.5213  -10.9127   19.0359 F   0  0  0  0  0  0  0  0  0  0  0  0
  1  2  1  0  0  0  0
  1  5  2  0  0  0  0
  2  6  2  0  0  0  0
  3  8  2  0  0  0  0
  3 16  1  0  0  0  0
  4  9  1  0  0  0  0
  4 16  2  0  0  0  0
  5 18  1  0  0  0  0
  6 20  1  0  0  0  0
  7 10  2  0  0  0  0
  7 19  1  0  0  0  0
  8 22  1  0  0  0  0
  9 22  2  0  0  0  0
 10 23  1  0  0  0  0
 11 12  2  0  0  0  0
 11 24  1  0  0  0  0
 12 25  1  0  0  0  0
 13 21  1  0  0  0  0
 13 23  2  0  0  0  0
 14 25  2  0  0  0  0
 14 26  1  0  0  0  0
 15 28  1  0  0  0  0
 15 29  2  0  0  0  0
 16 27  1  0  0  0  0
 17 27  1  0  0  0  0
 17 30  2  0  0  0  0
 17 31  1  0  0  0  0
 18 20  2  0  0  0  0
 18 36  1  0  0  0  0
 19 21  2  0  0  0  0
 19 37  1  0  0  0  0
 20 45  1  0  0  0  0
 21 38  1  0  0  0  0
 22 77  1  0  0  0  0
 23 78  1  0  0  0  0
 24 26  2  0  0  0  0
 24 77  1  0  0  0  0
 25 79  1  0  0  0  0
 26 80  1  0  0  0  0
 27 60  2  0  0  0  0
 28 48  1  0  0  0  0
 28 61  2  0  0  0  0
 29 54  1  0  0  0  0
 29 62  1  0  0  0  0
 30 63  1  0  0  0  0
 30 66  1  0  0  0  0
 31 67  1  0  0  0  0
 31 72  2  0  0  0  0
 32 46  1  0  0  0  0
 32 68  1  0  0  0  0
 32 73  2  0  0  0  0
 33 57  1  0  0  0  0
 33 64  1  0  0  0  0
 33 74  2  0  0  0  0
 34 58  1  0  0  0  0
 34 69  1  0  0  0  0
 34 75  2  0  0  0  0
 35 65  1  0  0  0  0
 35 70  1  0  0  0  0
 35 76  2  0  0  0  0
 36 39  1  0  0  0  0
 37 46  1  0  0  0  0
 38 64  1  0  0  0  0
 39 41  1  0  0  0  0
 40 42  1  0  0  0  0
 40 43  1  0  0  0  0
 41 45  1  0  0  0  0
 42 47  1  0  0  0  0
 43 65  1  0  0  0  0
 44 47  1  0  0  0  0
 44 65  1  0  0  0  0
 45 68  1  0  0  0  0
 46 64  1  0  0  0  0
 47 63  1  0  0  0  0
 49 58  1  0  0  0  0
 50 59  1  0  0  0  0
 51 59  1  0  0  0  0
 52 59  1  0  0  0  0
 53 71  1  0  0  0  0
 54 78  1  0  0  0  0
 55 56  1  0  0  0  0
 55 62  1  0  0  0  0
 56 70  1  0  0  0  0
 57 59  1  0  0  0  0
 57 69  1  0  0  0  0
 58 71  1  0  0  0  0
 60 63  1  0  0  0  0
 61 62  1  0  0  0  0
M  CHG  1  71   1
M  ISO  4  35 100  54 101  70 100  78 101
M  END
> <Batch ID>
0110

> <Smiles>
CNC(C)C(=O)NC(C(=O)N1Cc2cc([101O:1][101CH2:1]c3cc(C)nn3CC[100NH:0][100C:0](=O)N3CCCC(n4nc(-c5ccc(Oc6ccc(F)cc6F)cc5)c(C(N)=O)c4N)C3)ccc2CC1C(=O)NC1CCCc2ccccc21)C(C)(C)C

> <Shape>
0.231

> <Color>
0.075

> <Negative vol penalty>
0.000

$$$$

  -OEChem-04052319583D

 85 93  0     1  0  0  0  0  0999 V2000
  -24.4715  -21.3070   29.3839 C   0  0  0  0  0  0  0  0  0  0  0  0
  -25.0309  -20.4224   28.4674 C   0  0  0  0  0  0  0  0  0  0  0  0
  -27.5322  -23.5529   20.5542 C   0  0  0  0  0  0  0  0  0  0  0  0
  -29.0139  -23.5828   18.6460 C   0  0  0  0  0  0  0  0  0  0  0  0
  -23.0856  -21.4000   29.5047 C   0  0  0  0  0  0  0  0  0  0  0  0
  -24.2046  -19.6295   27.6718 C   0  0  0  0  0  0  0  0  0  0  0  0
  -25.2338  -17.8809   21.8934 C   0  0  0  0  0  0  0  0  0  0  0  0
  -27.6175  -24.9424   20.6421 C   0  0  0  0  0  0  0  0  0  0  0  0
  -29.0991  -24.9723   18.7340 C   0  0  0  0  0  0  0  0  0  0  0  0
  -25.7345  -16.7006   21.3457 C   0  0  0  0  0  0  0  0  0  0  0  0
  -26.2787  -27.6241   19.0773 C   0  0  0  0  0  0  0  0  0  0  0  0
  -25.0947  -28.3351   19.2729 C   0  0  0  0  0  0  0  0  0  0  0  0
  -29.4045  -12.3308   16.4125 C   0  0  0  0  0  0  0  0  0  0  0  0
  -23.4810  -15.9170   20.9894 C   0  0  0  0  0  0  0  0  0  0  0  0
  -25.9711  -29.2255   21.3408 C   0  0  0  0  0  0  0  0  0  0  0  0
  -29.1818  -11.9920   17.7288 C   0  0  0  0  0  0  0  0  0  0  0  0
  -28.2305  -22.8731   19.5561 C   0  0  0  0  0  0  0  0  0  0  0  0
  -27.2081  -20.6880   18.7269 C   0  0  0  0  0  0  0  0  0  0  0  0
  -22.2418  -20.6148   28.7033 C   0  0  0  0  0  0  0  0  0  0  0  0
  -23.8506  -18.0838   22.0035 C   0  0  0  0  0  0  0  0  0  0  0  0
  -22.8062  -19.7111   27.7828 C   0  0  0  0  0  0  0  0  0  0  0  0
  -22.9653  -17.1018   21.5366 C   0  0  0  0  0  0  0  0  0  0  0  0
  -30.0250  -13.6043   16.4025 C   0  0  0  0  0  0  0  0  0  0  0  0
  -28.4009  -25.6521   19.7320 C   0  0  0  0  0  0  0  0  0  0  0  0
  -24.8581  -15.7173   20.8962 C   0  0  0  0  0  0  0  0  0  0  0  0
  -27.3089  -27.7138   20.0134 C   0  0  0  0  0  0  0  0  0  0  0  0
  -24.9409  -29.1358   20.4046 C   0  0  0  0  0  0  0  0  0  0  0  0
  -27.1551  -28.5145   21.1452 C   0  0  0  0  0  0  0  0  0  0  0  0
  -28.1433  -21.4378   19.4651 C   0  0  0  0  0  0  0  0  0  0  0  0
  -27.5484  -19.3797   18.9697 C   0  0  0  0  0  0  0  0  0  0  0  0
  -30.1629  -14.0049   17.7132 C   0  0  0  0  0  0  0  0  0  0  0  0
  -26.1282  -21.1343   17.8960 C   0  0  0  0  0  0  0  0  0  0  0  0
  -21.8340  -18.5283   24.4200 C   0  0  0  0  0  0  0  0  0  0  0  0
  -19.6936  -19.0198   22.0326 C   0  0  0  0  0  0  0  0  0  0  0  0
  -19.2245  -18.9030   18.9219 C   0  0  0  0  0  0  0  0  0  0  0  0
  -31.3590  -15.3513   19.4747 C   0  0  0  0  0  0  0  0  0  0  0  0
  -20.7503  -20.7159   28.9030 C   0  0  0  0  0  0  0  0  0  0  0  0
  -23.3264  -19.3738   22.5723 C   0  0  0  0  0  0  0  0  0  0  0  0
  -21.4716  -17.2795   21.6136 C   0  0  0  0  0  0  0  0  0  0  0  0
  -19.9402  -20.1120   27.7587 C   0  0  0  0  0  0  0  0  0  0  0  0
  -30.7556  -17.3809   22.3372 C   0  0  0  0  0  0  0  0  0  0  0  0
  -20.4945  -18.7432   27.3766 C   0  0  0  0  0  0  0  0  0  0  0  0
  -29.9453  -18.5556   21.7845 C   0  0  0  0  0  0  0  0  0  0  0  0
  -31.8238  -16.9143   21.3498 C   0  0  0  0  0  0  0  0  0  0  0  0
  -30.5207  -17.7828   19.4481 C   0  0  0  0  0  0  0  0  0  0  0  0
  -21.9428  -18.8522   26.8846 C   0  0  1  0  0  0  0  0  0  0  0  0
  -21.9025  -19.2559   23.1072 C   0  0  1  0  0  0  0  0  0  0  0  0
  -29.3895  -18.2458   20.3807 C   0  0  2  0  0  0  0  0  0  0  0  0
  -18.4619  -18.9496   16.5316 C   0  0  0  0  0  0  0  0  0  0  0  0
  -25.9537  -11.7068   20.4626 C   0  0  0  0  0  0  0  0  0  0  0  0
  -30.1187  -13.5711   13.8854 C   0  0  0  0  0  0  0  0  0  0  0  0
  -31.9830  -14.6362   15.1991 C   0  0  0  0  0  0  0  0  0  0  0  0
  -29.7756  -15.7638   15.0061 C   0  0  0  0  0  0  0  0  0  0  0  0
  -17.9320  -16.9024   23.3454 C   0  0  0  0  0  0  0  0  0  0  0  0
  -16.6338  -16.7583   21.2096 C   0  0  0  0  0  0  0  0  0  0  0  0
  -16.6973  -18.9004   22.4863 C   0  0  0  0  0  0  0  0  0  0  0  0
  -19.7864  -21.7984   18.6777 C   0  0  0  0  0  0  0  0  0  0  0  0
  -28.3929  -12.2697   20.6039 C   0  0  0  0  0  0  0  0  0  0  0  0
  -29.5891  -13.0326   20.0178 C   0  0  0  0  0  0  0  0  0  0  0  0
  -26.6068  -14.1063   20.8440 C   0  0  0  0  0  0  0  0  0  1  0  0
  -18.7595  -18.1408   21.2365 C   0  0  1  0  0  0  0  0  0  0  0  0
  -18.6423  -19.7553   17.8087 C   0  0  2  0  0  0  0  0  0  0  0  0
  -27.0036  -12.7862   20.1694 C   0  0  2  0  0  0  0  0  0  0  0  0
  -30.4429  -14.3549   15.2013 C   0  0  0  0  0  0  0  0  0  0  0  0
  -17.5337  -17.6710   22.0696 C   0  0  0  0  0  0  0  0  0  0  0  0
  -29.0125  -20.6696   20.1274 N   0  0  0  0  0  0  0  0  0  0  0  0
  -29.6471  -13.0169   18.5107 N   0  0  0  0  0  0  0  0  0  0  0  0
  -28.6247  -19.4236   19.8062 N   0  0  0  0  0  0  0  0  0  0  0  0
  -21.0079  -18.5554   22.1835 N   0  0  0  0  0  0  0  0  0  0  0  0
  -31.2234  -16.6354   20.0435 N   0  0  0  0  0  0  0  0  0  0  0  0
  -27.0290  -18.2075   18.5471 N   0  0  0  0  0  0  0  0  0  0  0  0
  -25.9187  -22.5130   17.7558 N   0  0  0  0  0  0  0  0  0  0  0  0
  -30.7188  -15.1945   18.2458 N   0  0  0  0  0  0  0  0  0  0  0  0
  -21.9787  -19.3458   25.5246 N   0  0  0  0  0  0  0  0  0  0  0  0
  -18.4129  -18.8948   20.0366 N   0  0  0  0  0  0  0  0  0  0  0  0
  -19.5406  -20.9075   17.5147 N   0  3  0  0  0  0  0  0  0  0  0  0
  -25.3614  -20.3340   17.3087 O   0  0  0  0  0  0  0  0  0  0  0  0
  -21.6611  -17.3151   24.4301 O   0  0  0  0  0  0  0  0  0  0  0  0
  -19.2746  -20.0829   22.4973 O   0  0  0  0  0  0  0  0  0  0  0  0
  -20.2906  -18.3015   18.8121 O   0  0  0  0  0  0  0  0  0  0  0  0
  -31.9731  -14.4486   20.0492 O   0  0  0  0  0  0  0  0  0  0  0  0
  -28.4841  -27.0079   19.8174 O   0  0  0  0  0  0  0  0  0  0  0  0
  -25.3442  -14.5640   20.3617 O   0  0  0  0  0  0  0  0  0  1  0  0
  -23.8045  -29.8198   20.5916 F   0  0  0  0  0  0  0  0  0  0  0  0
  -28.1418  -28.6055   22.0474 F   0  0  0  0  0  0  0  0  0  0  0  0
  1  2  1  0  0  0  0
  1  5  2  0  0  0  0
  2  6  2  0  0  0  0
  3  8  2  0  0  0  0
  3 17  1  0  0  0  0
  4  9  1  0  0  0  0
  4 17  2  0  0  0  0
  5 19  1  0  0  0  0
  6 21  1  0  0  0  0
  7 10  2  0  0  0  0
  7 20  1  0  0  0  0
  8 24  1  0  0  0  0
  9 24  2  0  0  0  0
 10 25  1  0  0  0  0
 11 12  2  0  0  0  0
 11 26  1  0  0  0  0
 12 27  1  0  0  0  0
 13 16  2  0  0  0  0
 13 23  1  0  0  0  0
 14 22  1  0  0  0  0
 14 25  2  0  0  0  0
 15 27  2  0  0  0  0
 15 28  1  0  0  0  0
 16 67  1  0  0  0  0
 17 29  1  0  0  0  0
 18 29  1  0  0  0  0
 18 30  2  0  0  0  0
 18 32  1  0  0  0  0
 19 21  2  0  0  0  0
 19 37  1  0  0  0  0
 20 22  2  0  0  0  0
 20 38  1  0  0  0  0
 21 46  1  0  0  0  0
 22 39  1  0  0  0  0
 23 31  2  0  0  0  0
 23 64  1  0  0  0  0
 24 82  1  0  0  0  0
 25 83  1  0  0  0  0
 26 28  2  0  0  0  0
 26 82  1  0  0  0  0
 27 84  1  0  0  0  0
 28 85  1  0  0  0  0
 29 66  2  0  0  0  0
 30 68  1  0  0  0  0
 30 71  1  0  0  0  0
 31 67  1  0  0  0  0
 31 73  1  0  0  0  0
 32 72  1  0  0  0  0
 32 77  2  0  0  0  0
 33 47  1  0  0  0  0
 33 74  1  0  0  0  0
 33 78  2  0  0  0  0
 34 61  1  0  0  0  0
 34 69  1  0  0  0  0
 34 79  2  0  0  0  0
 35 62  1  0  0  0  0
 35 75  1  0  0  0  0
 35 80  2  0  0  0  0
 36 70  1  0  0  0  0
 36 73  1  0  0  0  0
 36 81  2  0  0  0  0
 37 40  1  0  0  0  0
 38 47  1  0  0  0  0
 39 69  1  0  0  0  0
 40 42  1  0  0  0  0
 41 43  1  0  0  0  0
 41 44  1  0  0  0  0
 42 46  1  0  0  0  0
 43 48  1  0  0  0  0
 44 70  1  0  0  0  0
 45 48  1  0  0  0  0
 45 70  1  0  0  0  0
 46 74  1  0  0  0  0
 47 69  1  0  0  0  0
 48 68  1  0  0  0  0
 49 62  1  0  0  0  0
 50 63  1  0  0  0  0
 51 64  1  0  0  0  0
 52 64  1  0  0  0  0
 53 64  1  0  0  0  0
 54 65  1  0  0  0  0
 55 65  1  0  0  0  0
 56 65  1  0  0  0  0
 57 76  1  0  0  0  0
 58 59  1  0  0  0  0
 58 63  1  0  0  0  0
 59 67  1  0  0  0  0
 60 63  1  0  0  0  0
 60 83  1  0  0  0  0
 61 65  1  0  0  0  0
 61 75  1  0  0  0  0
 62 76  1  0  0  0  0
 66 68  1  0  0  0  0
M  CHG  1  76   1
M  ISO  4  36 100  60 101  73 100  83 101
M  END
> <Batch ID>
0110

> <Smiles>
CNC(C)C(=O)NC(C(=O)N1Cc2cc([101O:1][101CH2:1]C(C)CCn3ccc(C(C)(C)C)c3[100NH:0][100C:0](=O)N3CCCC(n4nc(-c5ccc(Oc6ccc(F)cc6F)cc5)c(C(N)=O)c4N)C3)ccc2CC1C(=O)NC1CCCc2ccccc21)C(C)(C)C

> <Shape>
0.189

> <Color>
0.082

> <Negative vol penalty>
0.000

$$$$

  -OEChem-04052319583D

 86 94  0     1  0  0  0  0  0999 V2000
  -29.1557  -12.3362   19.6721 C   0  0  0  0  0  0  0  0  0  0  0  0
  -28.9256  -13.5411   19.0159 C   0  0  0  0  0  0  0  0  0  0  0  0
  -29.3262  -25.8155   20.5917 C   0  0  0  0  0  0  0  0  0  0  0  0
  -27.4272  -24.3373   20.8046 C   0  0  0  0  0  0  0  0  0  0  0  0
  -28.1219  -11.7174   20.3738 C   0  0  0  0  0  0  0  0  0  0  0  0
  -27.6612  -14.1274   19.0601 C   0  0  0  0  0  0  0  0  0  0  0  0
  -24.4838  -20.5473   19.1364 C   0  0  0  0  0  0  0  0  0  0  0  0
  -30.1474  -24.8428   21.1618 C   0  0  0  0  0  0  0  0  0  0  0  0
  -28.2483  -23.3645   21.3747 C   0  0  0  0  0  0  0  0  0  0  0  0
  -23.4940  -21.2672   18.4687 C   0  0  0  0  0  0  0  0  0  0  0  0
  -29.9130  -20.3556   22.5554 C   0  0  0  0  0  0  0  0  0  0  0  0
  -29.7729  -19.0428   22.1055 C   0  0  0  0  0  0  0  0  0  0  0  0
  -21.8051  -20.1477   19.7778 C   0  0  0  0  0  0  0  0  0  0  0  0
  -30.3470  -19.7484   19.8673 C   0  0  0  0  0  0  0  0  0  0  0  0
  -18.9394  -27.0265   21.3162 C   0  0  0  0  0  0  0  0  0  0  0  0
  -27.9661  -25.5628   20.4131 C   0  0  0  0  0  0  0  0  0  0  0  0
  -26.8280  -26.7419   18.4581 C   0  0  0  0  0  0  0  0  0  0  0  0
  -26.8468  -12.3013   20.4347 C   0  0  0  0  0  0  0  0  0  0  0  0
  -24.1405  -19.6127   20.1239 C   0  0  0  0  0  0  0  0  0  0  0  0
  -26.6090  -13.5152   19.7621 C   0  0  0  0  0  0  0  0  0  0  0  0
  -22.7926  -19.4191   20.4583 C   0  0  0  0  0  0  0  0  0  0  0  0
  -19.7268  -27.4087   22.3797 C   0  0  0  0  0  0  0  0  0  0  0  0
  -19.9874  -26.2495   23.1513 C   0  0  0  0  0  0  0  0  0  0  0  0
  -29.6085  -23.6172   21.5533 C   0  0  0  0  0  0  0  0  0  0  0  0
  -22.1543  -21.0654   18.7873 C   0  0  0  0  0  0  0  0  0  0  0  0
  -30.2700  -21.3649   21.6612 C   0  0  0  0  0  0  0  0  0  0  0  0
  -29.9899  -18.7391   20.7615 C   0  0  0  0  0  0  0  0  0  0  0  0
  -30.4871  -21.0613   20.3172 C   0  0  0  0  0  0  0  0  0  0  0  0
  -27.1172  -26.5675   19.8248 C   0  0  0  0  0  0  0  0  0  0  0  0
  -19.3514  -25.1941   22.5357 C   0  0  0  0  0  0  0  0  0  0  0  0
  -25.9814  -27.8229   18.4216 C   0  0  0  0  0  0  0  0  0  0  0  0
  -27.2837  -25.9937   17.3232 C   0  0  0  0  0  0  0  0  0  0  0  0
  -24.5130  -16.4749   20.4690 C   0  0  0  0  0  0  0  0  0  0  0  0
  -23.2877  -17.0471   23.4175 C   0  0  0  0  0  0  0  0  0  0  0  0
  -21.4019  -19.0557   25.4314 C   0  0  0  0  0  0  0  0  0  0  0  0
  -22.2276  -30.1995   22.4356 C   0  0  0  0  0  0  0  0  0  0  0  0
  -25.7483  -11.5713   21.1661 C   0  0  0  0  0  0  0  0  0  0  0  0
  -25.2216  -18.8636   20.8536 C   0  0  0  0  0  0  0  0  0  0  0  0
  -22.3726  -18.4422   21.5250 C   0  0  0  0  0  0  0  0  0  0  0  0
  -24.5370  -12.4468   21.4768 C   0  0  0  0  0  0  0  0  0  0  0  0
  -24.9321  -31.8392   20.8004 C   0  0  0  0  0  0  0  0  0  0  0  0
  -24.1308  -13.2521   20.2467 C   0  0  0  0  0  0  0  0  0  0  0  0
  -25.7727  -30.6898   20.2416 C   0  0  0  0  0  0  0  0  0  0  0  0
  -24.3254  -31.4872   22.1568 C   0  0  0  0  0  0  0  0  0  0  0  0
  -24.3929  -29.0820   21.6236 C   0  0  0  0  0  0  0  0  0  0  0  0
  -25.2577  -14.1948   19.8075 C   0  0  1  0  0  0  0  0  0  0  0  0
  -24.7283  -17.5638   21.4817 C   0  0  1  0  0  0  0  0  0  0  0  0
  -24.9799  -29.3690   20.2310 C   0  0  2  0  0  0  0  0  0  0  0  0
  -19.2900  -23.7644   22.9099 C   0  0  0  0  0  0  0  0  0  0  0  0
  -20.5500  -19.2437   27.7844 C   0  0  0  0  0  0  0  0  0  0  0  0
  -16.4537  -25.3366   20.4786 C   0  0  0  0  0  0  0  0  0  0  0  0
  -21.2074  -14.8926   22.8339 C   0  0  0  0  0  0  0  0  0  0  0  0
  -19.8587  -15.7742   24.7502 C   0  0  0  0  0  0  0  0  0  0  0  0
  -22.1374  -14.8434   25.1549 C   0  0  0  0  0  0  0  0  0  0  0  0
  -20.5024  -25.2289   25.3692 C   0  0  0  0  0  0  0  0  0  0  0  0
  -22.8170  -21.6190   25.8622 C   0  0  0  0  0  0  0  0  0  0  0  0
  -20.2033  -28.7801   22.6515 C   0  0  0  0  0  0  0  0  0  0  0  0
  -20.2854  -23.9328   17.6102 C   0  0  0  0  0  0  0  0  0  0  0  0
  -18.4856  -24.9004   19.0467 C   0  0  0  0  0  0  0  0  0  0  0  0
  -21.5305  -23.0702   17.6703 C   0  0  0  0  0  0  0  0  0  1  0  0
  -21.8995  -17.0847   24.0095 C   0  0  1  0  0  0  0  0  0  0  0  0
  -21.6604  -19.6213   26.8162 C   0  0  2  0  0  0  0  0  0  0  0  0
  -17.9188  -24.8888   20.4725 C   0  0  1  0  0  0  0  0  0  0  0  0
  -21.2832  -15.6658   24.1656 C   0  0  0  0  0  0  0  0  0  0  0  0
  -26.5043  -27.4657   20.6003 N   0  0  0  0  0  0  0  0  0  0  0  0
  -18.7178  -25.6781   21.4211 N   0  0  0  0  0  0  0  0  0  0  0  0
  -25.8215  -28.2151   19.7181 N   0  0  0  0  0  0  0  0  0  0  0  0
  -23.4662  -17.7292   22.2056 N   0  0  0  0  0  0  0  0  0  0  0  0
  -23.5858  -30.2252   22.0781 N   0  0  0  0  0  0  0  0  0  0  0  0
  -25.3656  -28.4666   17.4073 N   0  0  0  0  0  0  0  0  0  0  0  0
  -28.1499  -24.9133   17.5392 N   0  0  0  0  0  0  0  0  0  0  0  0
  -20.7227  -26.1841   24.2825 N   0  0  0  0  0  0  0  0  0  0  0  0
  -25.3051  -15.3597   20.6650 N   0  0  0  0  0  0  0  0  0  0  0  0
  -22.0087  -17.8296   25.2591 N   0  0  0  0  0  0  0  0  0  0  0  0
  -21.6000  -28.9647   22.3260 N   0  0  0  0  0  0  0  0  0  0  0  0
  -21.7496  -21.1079   26.7602 N   0  3  0  0  0  0  0  0  0  0  0  0
  -19.7032  -24.0485   18.9711 N   0  3  0  0  0  0  0  0  0  0  0  0
  -26.9462  -26.2851   16.1507 O   0  0  0  0  0  0  0  0  0  0  0  0
  -23.6883  -16.6341   19.5767 O   0  0  0  0  0  0  0  0  0  0  0  0
  -24.1825  -16.4409   24.0121 O   0  0  0  0  0  0  0  0  0  0  0  0
  -20.7260  -19.6411   24.5883 O   0  0  0  0  0  0  0  0  0  0  0  0
  -21.6181  -31.2038   22.8186 O   0  0  0  0  0  0  0  0  0  0  0  0
  -30.4095  -22.6677   22.1094 O   0  0  0  0  0  0  0  0  0  0  0  0
  -21.1861  -21.7662   18.1366 O   0  0  0  0  0  0  0  0  0  1  0  0
  -29.8569  -17.4781   20.3300 F   0  0  0  0  0  0  0  0  0  0  0  0
  -30.8315  -22.0265   19.4536 F   0  0  0  0  0  0  0  0  0  0  0  0
  1  2  1  0  0  0  0
  1  5  2  0  0  0  0
  2  6  2  0  0  0  0
  3  8  2  0  0  0  0
  3 16  1  0  0  0  0
  4  9  1  0  0  0  0
  4 16  2  0  0  0  0
  5 18  1  0  0  0  0
  6 20  1  0  0  0  0
  7 10  2  0  0  0  0
  7 19  1  0  0  0  0
  8 24  1  0  0  0  0
  9 24  2  0  0  0  0
 10 25  1  0  0  0  0
 11 12  2  0  0  0  0
 11 26  1  0  0  0  0
 12 27  1  0  0  0  0
 13 21  1  0  0  0  0
 13 25  2  0  0  0  0
 14 27  2  0  0  0  0
 14 28  1  0  0  0  0
 15 22  2  0  0  0  0
 15 66  1  0  0  0  0
 16 29  1  0  0  0  0
 17 29  1  0  0  0  0
 17 31  2  0  0  0  0
 17 32  1  0  0  0  0
 18 20  2  0  0  0  0
 18 37  1  0  0  0  0
 19 21  2  0  0  0  0
 19 38  1  0  0  0  0
 20 46  1  0  0  0  0
 21 39  1  0  0  0  0
 22 23  1  0  0  0  0
 22 57  1  0  0  0  0
 23 30  2  0  0  0  0
 23 72  1  0  0  0  0
 24 83  1  0  0  0  0
 25 84  1  0  0  0  0
 26 28  2  0  0  0  0
 26 83  1  0  0  0  0
 27 85  1  0  0  0  0
 28 86  1  0  0  0  0
 29 65  2  0  0  0  0
 30 49  1  0  0  0  0
 30 66  1  0  0  0  0
 31 67  1  0  0  0  0
 31 70  1  0  0  0  0
 32 71  1  0  0  0  0
 32 78  2  0  0  0  0
 33 47  1  0  0  0  0
 33 73  1  0  0  0  0
 33 79  2  0  0  0  0
 34 61  1  0  0  0  0
 34 68  1  0  0  0  0
 34 80  2  0  0  0  0
 35 62  1  0  0  0  0
 35 74  1  0  0  0  0
 35 81  2  0  0  0  0
 36 69  1  0  0  0  0
 36 75  1  0  0  0  0
 36 82  2  0  0  0  0
 37 40  1  0  0  0  0
 38 47  1  0  0  0  0
 39 68  1  0  0  0  0
 40 42  1  0  0  0  0
 41 43  1  0  0  0  0
 41 44  1  0  0  0  0
 42 46  1  0  0  0  0
 43 48  1  0  0  0  0
 44 69  1  0  0  0  0
 45 48  1  0  0  0  0
 45 69  1  0  0  0  0
 46 73  1  0  0  0  0
 47 68  1  0  0  0  0
 48 67  1  0  0  0  0
 50 62  1  0  0  0  0
 51 63  1  0  0  0  0
 52 64  1  0  0  0  0
 53 64  1  0  0  0  0
 54 64  1  0  0  0  0
 55 72  1  0  0  0  0
 56 76  1  0  0  0  0
 57 75  1  0  0  0  0
 58 60  1  0  0  0  0
 58 77  1  0  0  0  0
 59 63  1  0  0  0  0
 59 77  1  0  0  0  0
 60 84  1  0  0  0  0
 61 64  1  0  0  0  0
 61 74  1  0  0  0  0
 62 76  1  0  0  0  0
 63 66  1  0  0  0  0
 65 67  1  0  0  0  0
M  CHG  2  76   1  77   1
M  ISO  4  36 100  60 101  75 100  84 101
M  END
> <Batch ID>
0110

> <Smiles>
CNc1c(C[100NH:0][100C:0](=O)N2CCCC(n3nc(-c4ccc(Oc5ccc(F)cc5F)cc4)c(C(N)=O)c3N)C2)cn(C(C)CNC[101CH2:1][101O:1]c2ccc3c(c2)CN(C(=O)C(NC(=O)C(C)NC)C(C)(C)C)C(C(=O)NC2CCCc4ccccc42)C3)c1C

> <Shape>
0.217

> <Color>
0.077

> <Negative vol penalty>
0.000

$$$$
