
  -OEChem-04052320013D

 89 97  0     1  0  0  0  0  0999 V2000
  -25.5547  -38.3500   22.6308 C   0  0  0  0  0  0  0  0  0  0  0  0
  -24.7843  -37.3433   22.0578 C   0  0  0  0  0  0  0  0  0  0  0  0
  -23.2224   -9.2932   20.5211 C   0  0  0  0  0  0  0  0  0  0  0  0
  -23.6996  -10.7894   22.3571 C   0  0  0  0  0  0  0  0  0  0  0  0
  -26.6449  -38.0198   23.4348 C   0  0  0  0  0  0  0  0  0  0  0  0
  -25.1042  -36.0057   22.2876 C   0  0  0  0  0  0  0  0  0  0  0  0
  -21.1923  -31.3245   22.8254 C   0  0  0  0  0  0  0  0  0  0  0  0
  -22.3705   -8.5559   21.3434 C   0  0  0  0  0  0  0  0  0  0  0  0
  -22.8477  -10.0521   23.1794 C   0  0  0  0  0  0  0  0  0  0  0  0
  -20.7647  -30.3511   21.9235 C   0  0  0  0  0  0  0  0  0  0  0  0
  -22.6561   -6.2149   23.7646 C   0  0  0  0  0  0  0  0  0  0  0  0
  -22.7588   -4.8245   23.7223 C   0  0  0  0  0  0  0  0  0  0  0  0
  -22.4226  -28.8282   22.7904 C   0  0  0  0  0  0  0  0  0  0  0  0
  -20.4527   -4.6757   23.0174 C   0  0  0  0  0  0  0  0  0  0  0  0
  -23.8870  -10.4100   21.0280 C   0  0  0  0  0  0  0  0  0  0  0  0
  -24.4317  -11.8380   18.9855 C   0  0  0  0  0  0  0  0  0  0  0  0
  -26.9726  -36.6775   23.6824 C   0  0  0  0  0  0  0  0  0  0  0  0
  -22.2473  -31.0603   23.7106 C   0  0  0  0  0  0  0  0  0  0  0  0
  -26.2006  -35.6572   23.0946 C   0  0  0  0  0  0  0  0  0  0  0  0
  -22.8600  -29.7991   23.7043 C   0  0  0  0  0  0  0  0  0  0  0  0
  -22.1831   -8.9354   22.6725 C   0  0  0  0  0  0  0  0  0  0  0  0
  -21.3818  -29.1037   21.9039 C   0  0  0  0  0  0  0  0  0  0  0  0
  -21.4517   -6.8357   23.4334 C   0  0  0  0  0  0  0  0  0  0  0  0
  -21.6571   -4.0549   23.3487 C   0  0  0  0  0  0  0  0  0  0  0  0
  -20.3500   -6.0661   23.0597 C   0  0  0  0  0  0  0  0  0  0  0  0
  -24.7676  -11.1717   20.1792 C   0  0  0  0  0  0  0  0  0  0  0  0
  -25.6098  -12.4058   18.5659 C   0  0  0  0  0  0  0  0  0  0  0  0
  -23.1676  -11.9351   18.3158 C   0  0  0  0  0  0  0  0  0  0  0  0
  -25.1408  -32.2887   24.1821 C   0  0  0  0  0  0  0  0  0  0  0  0
  -25.1530  -30.2782   26.7277 C   0  0  0  0  0  0  0  0  0  0  0  0
  -23.9397  -27.4403   28.1840 C   0  0  0  0  0  0  0  0  0  0  0  0
  -30.2923  -15.1322   19.4881 C   0  0  0  0  0  0  0  0  0  0  0  0
  -28.1886  -36.3697   24.5199 C   0  0  0  0  0  0  0  0  0  0  0  0
  -22.6789  -32.1120   24.6956 C   0  0  0  0  0  0  0  0  0  0  0  0
  -23.9834  -29.4585   24.6479 C   0  0  0  0  0  0  0  0  0  0  0  0
  -28.2357  -34.9276   25.0184 C   0  0  0  0  0  0  0  0  0  0  0  0
  -30.3536  -11.7303   20.1587 C   0  0  0  0  0  0  0  0  0  0  0  0
  -27.9158  -33.9598   23.8836 C   0  0  0  0  0  0  0  0  0  0  0  0
  -28.8808  -11.3239   20.1318 C   0  0  0  0  0  0  0  0  0  0  0  0
  -28.1648  -17.8744   20.0165 C   0  0  0  0  0  0  0  0  0  0  0  0
  -27.0115  -16.0713   18.6829 C   0  0  0  0  0  0  0  0  0  0  0  0
  -30.5339  -13.0779   20.8475 C   0  0  0  0  0  0  0  0  0  0  0  0
  -28.2563  -13.7902   20.1947 C   0  0  0  0  0  0  0  0  0  0  0  0
  -26.8350  -18.2362   20.6651 C   0  0  0  0  0  0  0  0  0  0  0  0
  -25.6874  -16.4432   19.3374 C   0  0  0  0  0  0  0  0  0  0  0  0
  -26.5011  -34.1946   23.3406 C   0  0  1  0  0  0  0  0  0  0  0  0
  -24.1039  -31.9084   25.2009 C   0  0  1  0  0  0  0  0  0  0  0  0
  -28.0148  -12.4312   19.5061 C   0  0  2  0  0  0  0  0  0  0  0  0
  -28.1986  -16.4077   19.5854 C   0  0  0  0  0  0  0  0  0  0  0  0
  -24.1668  -26.0347   30.2505 C   0  0  0  0  0  0  0  0  0  0  0  0
  -30.9197  -17.3209   17.3955 C   0  0  0  0  0  0  0  0  0  0  0  0
  -29.4142  -15.4927   16.5502 C   0  0  0  0  0  0  0  0  0  0  0  0
  -27.7943  -29.1674   25.6790 C   0  0  0  0  0  0  0  0  0  0  0  0
  -27.4844  -27.1950   27.1896 C   0  0  0  0  0  0  0  0  0  0  0  0
  -27.7063  -29.4830   28.1583 C   0  0  0  0  0  0  0  0  0  0  0  0
  -21.1010  -27.8491   28.9144 C   0  0  0  0  0  0  0  0  0  0  0  0
  -22.8630  -20.3787   20.6115 C   0  0  0  0  0  0  0  0  0  0  0  0
  -24.2031  -19.8554   20.0867 C   0  0  0  0  0  0  0  0  0  0  0  0
  -22.7368  -21.8890   20.3999 C   0  0  0  0  0  0  0  0  0  0  0  0
  -20.0156  -25.9665   20.7559 C   0  0  0  0  0  0  0  0  0  0  0  0
  -24.3776  -18.3519   20.2626 C   0  0  0  0  0  0  0  0  0  0  0  0
  -21.4194  -22.4102   20.9550 C   0  0  0  0  0  0  0  0  0  0  0  0
  -20.0481  -24.4909   21.1244 C   0  0  0  0  0  0  0  0  0  0  0  0
  -21.1085  -26.7901   21.4260 C   0  0  0  0  0  0  0  0  0  1  0  0
  -25.5743  -28.8469   26.9576 C   0  0  1  0  0  0  0  0  0  0  0  0
  -23.4109  -27.1722   29.5815 C   0  0  2  0  0  0  0  0  0  0  0  0
  -29.5798  -16.6160   17.5657 C   0  0  0  0  0  0  0  0  0  0  0  0
  -27.1200  -28.6798   26.9769 C   0  0  0  0  0  0  0  0  0  0  0  0
  -26.0582  -11.3030   20.4973 N   0  0  0  0  0  0  0  0  0  0  0  0
  -26.5436  -12.0583   19.4973 N   0  0  0  0  0  0  0  0  0  0  0  0
  -24.3738  -30.5222   25.5879 N   0  0  0  0  0  0  0  0  0  0  0  0
  -29.6929  -14.1043   20.2311 N   0  0  0  0  0  0  0  0  0  0  0  0
  -25.9279  -13.1633   17.4947 N   0  0  0  0  0  0  0  0  0  0  0  0
  -22.0595  -11.2919   18.8838 N   0  0  0  0  0  0  0  0  0  0  0  0
  -25.5160  -33.6177   24.2302 N   0  0  0  0  0  0  0  0  0  0  0  0
  -24.9116  -28.4184   28.1846 N   0  0  0  0  0  0  0  0  0  0  0  0
  -29.4426  -16.0962   18.9249 N   0  0  0  0  0  0  0  0  0  0  0  0
  -25.7064  -17.9037   19.7190 N   0  3  0  0  0  0  0  0  0  0  0  0
  -21.9665  -26.8091   29.5279 N   0  3  0  0  0  0  0  0  0  0  0  0
  -21.3210  -23.8716   20.6865 N   0  3  0  0  0  0  0  0  0  0  0  0
  -23.0286  -12.5597   17.2369 O   0  0  0  0  0  0  0  0  0  0  0  0
  -25.5699  -31.4388   23.4105 O   0  0  0  0  0  0  0  0  0  0  0  0
  -25.4965  -31.1466   27.5337 O   0  0  0  0  0  0  0  0  0  0  0  0
  -23.5341  -26.8393   27.1916 O   0  0  0  0  0  0  0  0  0  0  0  0
  -31.5200  -15.1908   19.3415 O   0  0  0  0  0  0  0  0  0  0  0  0
  -21.3516   -8.2163   23.4751 O   0  0  0  0  0  0  0  0  0  0  0  0
  -20.9669  -28.1520   21.0242 O   0  0  0  0  0  0  0  0  0  1  0  0
  -21.7562   -2.7197   23.3066 F   0  0  0  0  0  0  0  0  0  0  0  0
  -19.1907   -6.6569   22.7393 F   0  0  0  0  0  0  0  0  0  0  0  0
  1  2  1  0  0  0  0
  1  5  2  0  0  0  0
  2  6  2  0  0  0  0
  3  8  2  0  0  0  0
  3 15  1  0  0  0  0
  4  9  1  0  0  0  0
  4 15  2  0  0  0  0
  5 17  1  0  0  0  0
  6 19  1  0  0  0  0
  7 10  2  0  0  0  0
  7 18  1  0  0  0  0
  8 21  1  0  0  0  0
  9 21  2  0  0  0  0
 10 22  1  0  0  0  0
 11 12  2  0  0  0  0
 11 23  1  0  0  0  0
 12 24  1  0  0  0  0
 13 20  1  0  0  0  0
 13 22  2  0  0  0  0
 14 24  2  0  0  0  0
 14 25  1  0  0  0  0
 15 26  1  0  0  0  0
 16 26  1  0  0  0  0
 16 27  2  0  0  0  0
 16 28  1  0  0  0  0
 17 19  2  0  0  0  0
 17 33  1  0  0  0  0
 18 20  2  0  0  0  0
 18 34  1  0  0  0  0
 19 46  1  0  0  0  0
 20 35  1  0  0  0  0
 21 86  1  0  0  0  0
 22 87  1  0  0  0  0
 23 25  2  0  0  0  0
 23 86  1  0  0  0  0
 24 88  1  0  0  0  0
 25 89  1  0  0  0  0
 26 69  2  0  0  0  0
 27 70  1  0  0  0  0
 27 73  1  0  0  0  0
 28 74  1  0  0  0  0
 28 81  2  0  0  0  0
 29 47  1  0  0  0  0
 29 75  1  0  0  0  0
 29 82  2  0  0  0  0
 30 65  1  0  0  0  0
 30 71  1  0  0  0  0
 30 83  2  0  0  0  0
 31 66  1  0  0  0  0
 31 76  1  0  0  0  0
 31 84  2  0  0  0  0
 32 72  1  0  0  0  0
 32 77  1  0  0  0  0
 32 85  2  0  0  0  0
 33 36  1  0  0  0  0
 34 47  1  0  0  0  0
 35 71  1  0  0  0  0
 36 38  1  0  0  0  0
 37 39  1  0  0  0  0
 37 42  1  0  0  0  0
 38 46  1  0  0  0  0
 39 48  1  0  0  0  0
 40 44  1  0  0  0  0
 40 49  1  0  0  0  0
 41 45  1  0  0  0  0
 41 49  1  0  0  0  0
 42 72  1  0  0  0  0
 43 48  1  0  0  0  0
 43 72  1  0  0  0  0
 44 78  1  0  0  0  0
 45 78  1  0  0  0  0
 46 75  1  0  0  0  0
 47 71  1  0  0  0  0
 48 70  1  0  0  0  0
 49 77  1  0  0  0  0
 50 66  1  0  0  0  0
 51 67  1  0  0  0  0
 52 67  1  0  0  0  0
 53 68  1  0  0  0  0
 54 68  1  0  0  0  0
 55 68  1  0  0  0  0
 56 79  1  0  0  0  0
 57 58  1  0  0  0  0
 57 59  1  0  0  0  0
 58 61  1  0  0  0  0
 59 62  1  0  0  0  0
 60 63  1  0  0  0  0
 60 64  1  0  0  0  0
 61 78  1  0  0  0  0
 62 80  1  0  0  0  0
 63 80  1  0  0  0  0
 64 87  1  0  0  0  0
 65 68  1  0  0  0  0
 65 76  1  0  0  0  0
 66 79  1  0  0  0  0
 67 77  1  0  0  0  0
 69 70  1  0  0  0  0
M  CHG  3  78   1  79   1  80   1
M  ISO  4  32 100  64 101  77 100  87 101
M  END
> <Batch ID>
0111

> <Smiles>
CNC(C)C(=O)NC(C(=O)N1Cc2cc([101O:1][101CH2:1]CCNCCCCCN3CCC([100N:0](C(C)C)[100C:0](=O)N4CCCC(n5nc(-c6ccc(Oc7ccc(F)cc7F)cc6)c(C(N)=O)c5N)C4)CC3)ccc2CC1C(=O)NC1CCCc2ccccc21)C(C)(C)C

> <Shape>
0.257

> <Color>
0.082

> <Negative vol penalty>
0.000

$$$$

  -OEChem-04052320013D

 88 96  0     1  0  0  0  0  0999 V2000
  -34.2254  -30.1323   17.0249 C   0  0  0  0  0  0  0  0  0  0  0  0
  -33.6643  -29.1129   17.7874 C   0  0  0  0  0  0  0  0  0  0  0  0
  -22.8127  -10.6798   21.5275 C   0  0  0  0  0  0  0  0  0  0  0  0
  -24.6201   -9.0781   21.5946 C   0  0  0  0  0  0  0  0  0  0  0  0
  -33.9993  -31.4642   17.3695 C   0  0  0  0  0  0  0  0  0  0  0  0
  -32.8777  -29.4248   18.8957 C   0  0  0  0  0  0  0  0  0  0  0  0
  -28.6381  -26.6634   19.1081 C   0  0  0  0  0  0  0  0  0  0  0  0
  -21.8888   -9.6357   21.4865 C   0  0  0  0  0  0  0  0  0  0  0  0
  -23.6962   -8.0338   21.5536 C   0  0  0  0  0  0  0  0  0  0  0  0
  -28.7543  -25.3527   19.5687 C   0  0  0  0  0  0  0  0  0  0  0  0
  -21.6238   -6.4578   23.7080 C   0  0  0  0  0  0  0  0  0  0  0  0
  -21.8136   -5.3917   24.5871 C   0  0  0  0  0  0  0  0  0  0  0  0
  -23.5571  -16.3249   18.9738 C   0  0  0  0  0  0  0  0  0  0  0  0
  -27.9676  -26.0519   21.7392 C   0  0  0  0  0  0  0  0  0  0  0  0
  -21.9902   -3.8775   22.7127 C   0  0  0  0  0  0  0  0  0  0  0  0
  -23.6240  -16.7976   20.2658 C   0  0  0  0  0  0  0  0  0  0  0  0
  -24.1784  -10.4011   21.5816 C   0  0  0  0  0  0  0  0  0  0  0  0
  -25.6516  -12.1118   22.7693 C   0  0  0  0  0  0  0  0  0  0  0  0
  -33.2016  -31.7928   18.4769 C   0  0  0  0  0  0  0  0  0  0  0  0
  -28.1953  -27.6820   19.9642 C   0  0  0  0  0  0  0  0  0  0  0  0
  -32.6418  -30.7624   19.2562 C   0  0  0  0  0  0  0  0  0  0  0  0
  -27.8441  -27.3743   21.2864 C   0  0  0  0  0  0  0  0  0  0  0  0
  -24.8476  -16.4623   18.4056 C   0  0  0  0  0  0  0  0  0  0  0  0
  -22.3306   -8.3127   21.4995 C   0  0  0  0  0  0  0  0  0  0  0  0
  -28.4219  -25.0472   20.8852 C   0  0  0  0  0  0  0  0  0  0  0  0
  -21.6171   -6.2338   22.3312 C   0  0  0  0  0  0  0  0  0  0  0  0
  -21.9968   -4.1015   24.0895 C   0  0  0  0  0  0  0  0  0  0  0  0
  -21.8004   -4.9437   21.8336 C   0  0  0  0  0  0  0  0  0  0  0  0
  -25.1333  -11.4793   21.6234 C   0  0  0  0  0  0  0  0  0  0  0  0
  -25.6639  -17.0147   19.3679 C   0  0  0  0  0  0  0  0  0  0  0  0
  -26.5128  -13.0618   22.2772 C   0  0  0  0  0  0  0  0  0  0  0  0
  -25.3789  -11.8629   24.1547 C   0  0  0  0  0  0  0  0  0  0  0  0
  -29.4596  -30.3711   21.0928 C   0  0  0  0  0  0  0  0  0  0  0  0
  -26.4847  -30.7986   22.3134 C   0  0  0  0  0  0  0  0  0  0  0  0
  -23.5481  -29.3995   23.3457 C   0  0  0  0  0  0  0  0  0  0  0  0
  -26.5570  -15.6814   16.7445 C   0  0  0  0  0  0  0  0  0  0  0  0
  -33.0244  -33.2463   18.8382 C   0  0  0  0  0  0  0  0  0  0  0  0
  -28.0499  -29.0860   19.4445 C   0  0  0  0  0  0  0  0  0  0  0  0
  -27.3444  -28.4277   22.2398 C   0  0  0  0  0  0  0  0  0  0  0  0
  -31.8713  -33.4970   19.8067 C   0  0  0  0  0  0  0  0  0  0  0  0
  -29.3327  -14.0162   18.5376 C   0  0  0  0  0  0  0  0  0  0  0  0
  -31.9162  -32.4994   20.9597 C   0  0  0  0  0  0  0  0  0  0  0  0
  -28.6038  -13.1650   19.5757 C   0  0  0  0  0  0  0  0  0  0  0  0
  -28.4866  -14.2312   17.2864 C   0  0  0  0  0  0  0  0  0  0  0  0
  -26.4094  -13.9620   18.6109 C   0  0  0  0  0  0  0  0  0  0  0  0
  -31.7624  -31.0610   20.4511 C   0  0  1  0  0  0  0  0  0  0  0  0
  -28.0785  -30.1379   20.5490 C   0  0  1  0  0  0  0  0  0  0  0  0
  -27.2250  -13.7647   19.8974 C   0  0  1  0  0  0  0  0  0  0  0  0
  -27.0984  -17.3712   19.3153 C   0  0  0  0  0  0  0  0  0  0  0  0
  -21.3188  -29.9994   24.3293 C   0  0  0  0  0  0  0  0  0  0  0  0
  -26.8882  -21.5724   24.7362 C   0  0  0  0  0  0  0  0  0  0  0  0
  -24.2421  -20.0354   21.4493 C   0  0  0  0  0  0  0  0  0  0  0  0
  -24.6226  -17.8208   15.4412 C   0  0  0  0  0  0  0  0  0  0  0  0
  -24.4682  -15.3785   14.8627 C   0  0  0  0  0  0  0  0  0  0  0  0
  -27.7957  -31.1883   25.0409 C   0  0  0  0  0  0  0  0  0  0  0  0
  -25.5518  -30.8323   26.0927 C   0  0  0  0  0  0  0  0  0  0  0  0
  -25.9139  -32.7617   24.5536 C   0  0  0  0  0  0  0  0  0  0  0  0
  -22.0949  -28.3270   21.0011 C   0  0  0  0  0  0  0  0  0  0  0  0
  -27.3740  -21.8619   22.2556 C   0  0  0  0  0  0  0  0  0  0  0  0
  -26.1403  -19.7999   23.1338 C   0  0  0  0  0  0  0  0  0  0  0  0
  -25.3998  -17.8018   21.7959 C   0  0  0  0  0  0  0  0  0  0  0  0
  -27.6338  -23.3615   22.3661 C   0  0  0  0  0  0  0  0  0  1  0  0
  -25.7936  -30.4226   23.6018 C   0  0  1  0  0  0  0  0  0  0  0  0
  -22.1029  -29.7570   23.0490 C   0  0  2  0  0  0  0  0  0  0  0  0
  -26.3901  -21.3166   23.3074 C   0  0  1  0  0  0  0  0  0  0  0  0
  -25.5693  -19.3400   21.7717 C   0  0  1  0  0  0  0  0  0  0  0  0
  -24.3464  -16.4186   15.9689 C   0  0  0  0  0  0  0  0  0  0  0  0
  -26.2750  -31.2815   24.8051 C   0  0  0  0  0  0  0  0  0  0  0  0
  -25.6242  -11.9849   20.4888 N   0  0  0  0  0  0  0  0  0  0  0  0
  -24.9095  -17.2140   20.4945 N   0  0  0  0  0  0  0  0  0  0  0  0
  -26.4599  -12.9453   20.9193 N   0  0  0  0  0  0  0  0  0  0  0  0
  -27.2255  -29.7868   21.6862 N   0  0  0  0  0  0  0  0  0  0  0  0
  -27.1557  -14.7456   17.6129 N   0  0  0  0  0  0  0  0  0  0  0  0
  -27.3027  -13.9771   22.8778 N   0  0  0  0  0  0  0  0  0  0  0  0
  -24.4681  -10.8501   24.4849 N   0  0  0  0  0  0  0  0  0  0  0  0
  -30.3767  -30.7792   20.1432 N   0  0  0  0  0  0  0  0  0  0  0  0
  -24.3615  -30.5128   23.3382 N   0  0  0  0  0  0  0  0  0  0  0  0
  -25.2518  -16.0974   17.0699 N   0  0  0  0  0  0  0  0  0  0  0  0
  -21.4413  -28.6555   22.2941 N   0  3  0  0  0  0  0  0  0  0  0  0
  -25.9143  -12.5300   25.0722 O   0  0  0  0  0  0  0  0  0  0  0  0
  -29.6768  -30.1954   22.2860 O   0  0  0  0  0  0  0  0  0  0  0  0
  -26.3657  -31.9457   21.8758 O   0  0  0  0  0  0  0  0  0  0  0  0
  -23.9178  -28.2483   23.5660 O   0  0  0  0  0  0  0  0  0  0  0  0
  -27.1234  -16.0777   15.7185 O   0  0  0  0  0  0  0  0  0  0  0  0
  -21.4293   -7.2935   21.4597 O   0  0  0  0  0  0  0  0  0  0  0  0
  -28.5351  -23.7688   21.3375 O   0  0  0  0  0  0  0  0  0  1  0  0
  -22.1807   -3.0780   24.9338 F   0  0  0  0  0  0  0  0  0  0  0  0
  -21.7961   -4.7225   20.5119 F   0  0  0  0  0  0  0  0  0  0  0  0
  1  2  1  0  0  0  0
  1  5  2  0  0  0  0
  2  6  2  0  0  0  0
  3  8  2  0  0  0  0
  3 17  1  0  0  0  0
  4  9  1  0  0  0  0
  4 17  2  0  0  0  0
  5 19  1  0  0  0  0
  6 21  1  0  0  0  0
  7 10  2  0  0  0  0
  7 20  1  0  0  0  0
  8 24  1  0  0  0  0
  9 24  2  0  0  0  0
 10 25  1  0  0  0  0
 11 12  2  0  0  0  0
 11 26  1  0  0  0  0
 12 27  1  0  0  0  0
 13 16  2  0  0  0  0
 13 23  1  0  0  0  0
 14 22  1  0  0  0  0
 14 25  2  0  0  0  0
 15 27  2  0  0  0  0
 15 28  1  0  0  0  0
 16 70  1  0  0  0  0
 17 29  1  0  0  0  0
 18 29  1  0  0  0  0
 18 31  2  0  0  0  0
 18 32  1  0  0  0  0
 19 21  2  0  0  0  0
 19 37  1  0  0  0  0
 20 22  2  0  0  0  0
 20 38  1  0  0  0  0
 21 46  1  0  0  0  0
 22 39  1  0  0  0  0
 23 30  2  0  0  0  0
 23 78  1  0  0  0  0
 24 85  1  0  0  0  0
 25 86  1  0  0  0  0
 26 28  2  0  0  0  0
 26 85  1  0  0  0  0
 27 87  1  0  0  0  0
 28 88  1  0  0  0  0
 29 69  2  0  0  0  0
 30 49  1  0  0  0  0
 30 70  1  0  0  0  0
 31 71  1  0  0  0  0
 31 74  1  0  0  0  0
 32 75  1  0  0  0  0
 32 80  2  0  0  0  0
 33 47  1  0  0  0  0
 33 76  1  0  0  0  0
 33 81  2  0  0  0  0
 34 63  1  0  0  0  0
 34 72  1  0  0  0  0
 34 82  2  0  0  0  0
 35 64  1  0  0  0  0
 35 77  1  0  0  0  0
 35 83  2  0  0  0  0
 36 73  1  0  0  0  0
 36 78  1  0  0  0  0
 36 84  2  0  0  0  0
 37 40  1  0  0  0  0
 38 47  1  0  0  0  0
 39 72  1  0  0  0  0
 40 42  1  0  0  0  0
 41 43  1  0  0  0  0
 41 44  1  0  0  0  0
 42 46  1  0  0  0  0
 43 48  1  0  0  0  0
 44 73  1  0  0  0  0
 45 48  1  0  0  0  0
 45 73  1  0  0  0  0
 46 76  1  0  0  0  0
 47 72  1  0  0  0  0
 48 71  1  0  0  0  0
 50 64  1  0  0  0  0
 51 65  1  0  0  0  0
 52 66  1  0  0  0  0
 53 67  1  0  0  0  0
 54 67  1  0  0  0  0
 55 68  1  0  0  0  0
 56 68  1  0  0  0  0
 57 68  1  0  0  0  0
 58 79  1  0  0  0  0
 59 62  1  0  0  0  0
 59 65  1  0  0  0  0
 60 65  1  0  0  0  0
 60 66  1  0  0  0  0
 61 66  1  0  0  0  0
 61 70  1  0  0  0  0
 62 86  1  0  0  0  0
 63 68  1  0  0  0  0
 63 77  1  0  0  0  0
 64 79  1  0  0  0  0
 67 78  1  0  0  0  0
 69 71  1  0  0  0  0
M  CHG  1  79   1
M  ISO  4  36 100  62 101  78 100  86 101
M  END
> <Batch ID>
0111

> <Smiles>
CNC(C)C(=O)NC(C(=O)N1Cc2cc([101O:1][101CH2:1]CC(C)CC(C)Cn3ccc([100N:0](C(C)C)[100C:0](=O)N4CCCC(n5nc(-c6ccc(Oc7ccc(F)cc7F)cc6)c(C(N)=O)c5N)C4)c3C)ccc2CC1C(=O)NC1CCCc2ccccc21)C(C)(C)C

> <Shape>
0.232

> <Color>
0.110

> <Negative vol penalty>
0.000

$$$$

  -OEChem-04052320013D

 81 89  0     1  0  0  0  0  0999 V2000
  -24.4009  -19.5991   27.7487 C   0  0  0  0  0  0  0  0  0  0  0  0
  -25.3216  -20.1912   26.8901 C   0  0  0  0  0  0  0  0  0  0  0  0
  -24.2986  -13.9737   20.6072 C   0  0  0  0  0  0  0  0  0  0  0  0
  -26.6831  -13.6648   20.8437 C   0  0  0  0  0  0  0  0  0  0  0  0
  -23.0346  -19.7495   27.5150 C   0  0  0  0  0  0  0  0  0  0  0  0
  -24.8764  -20.9332   25.7966 C   0  0  0  0  0  0  0  0  0  0  0  0
  -27.5062  -25.9275   23.4203 C   0  0  0  0  0  0  0  0  0  0  0  0
  -24.1491  -12.6133   20.3377 C   0  0  0  0  0  0  0  0  0  0  0  0
  -26.5336  -12.3044   20.5742 C   0  0  0  0  0  0  0  0  0  0  0  0
  -28.3503  -26.1127   22.3263 C   0  0  0  0  0  0  0  0  0  0  0  0
  -23.0958   -9.1564   19.9433 C   0  0  0  0  0  0  0  0  0  0  0  0
  -22.0586   -8.4786   20.5837 C   0  0  0  0  0  0  0  0  0  0  0  0
  -30.1640  -23.4643   14.3731 C   0  0  0  0  0  0  0  0  0  0  0  0
  -26.4459  -26.6885   20.9621 C   0  0  0  0  0  0  0  0  0  0  0  0
  -23.0143   -9.0438   22.7295 C   0  0  0  0  0  0  0  0  0  0  0  0
  -30.0217  -24.6031   13.5969 C   0  0  0  0  0  0  0  0  0  0  0  0
  -29.3411  -25.8549   15.3992 C   0  0  0  0  0  0  0  0  0  0  0  0
  -25.5656  -14.4995   20.8601 C   0  0  0  0  0  0  0  0  0  0  0  0
  -25.6772  -16.5321   22.3975 C   0  0  0  0  0  0  0  0  0  0  0  0
  -22.5725  -20.5017   26.4236 C   0  0  0  0  0  0  0  0  0  0  0  0
  -26.1220  -26.1111   23.2905 C   0  0  0  0  0  0  0  0  0  0  0  0
  -23.5027  -21.0926   25.5473 C   0  0  0  0  0  0  0  0  0  0  0  0
  -25.5867  -26.5075   22.0566 C   0  0  0  0  0  0  0  0  0  0  0  0
  -29.8713  -23.5600   15.7290 C   0  0  0  0  0  0  0  0  0  0  0  0
  -29.4513  -24.7746   16.2598 C   0  0  0  0  0  0  0  0  0  0  0  0
  -25.2666  -11.7787   20.3212 C   0  0  0  0  0  0  0  0  0  0  0  0
  -27.8199  -26.4904   21.0962 C   0  0  0  0  0  0  0  0  0  0  0  0
  -24.0924   -9.7779   20.6959 C   0  0  0  0  0  0  0  0  0  0  0  0
  -22.0178   -8.4223   21.9769 C   0  0  0  0  0  0  0  0  0  0  0  0
  -24.0516   -9.7216   22.0890 C   0  0  0  0  0  0  0  0  0  0  0  0
  -25.7207  -15.9048   21.1380 C   0  0  0  0  0  0  0  0  0  0  0  0
  -25.8775  -17.8633   22.1251 C   0  0  0  0  0  0  0  0  0  0  0  0
  -25.4741  -15.9624   23.6975 C   0  0  0  0  0  0  0  0  0  0  0  0
  -23.5710  -24.2434   23.6184 C   0  0  0  0  0  0  0  0  0  0  0  0
  -21.9614  -27.0224   23.1614 C   0  0  0  0  0  0  0  0  0  0  0  0
  -21.9524  -30.1903   21.8920 C   0  0  0  0  0  0  0  0  0  0  0  0
  -28.6381  -20.5965   17.6794 C   0  0  0  0  0  0  0  0  0  0  0  0
  -21.0863  -20.5968   26.1848 C   0  0  0  0  0  0  0  0  0  0  0  0
  -25.2279  -25.9334   24.4869 C   0  0  0  0  0  0  0  0  0  0  0  0
  -24.1099  -26.7372   21.8699 C   0  0  0  0  0  0  0  0  0  0  0  0
  -20.6949  -21.7112   25.2177 C   0  0  0  0  0  0  0  0  0  0  0  0
  -25.2029  -21.1253   18.6883 C   0  0  0  0  0  0  0  0  0  0  0  0
  -21.5923  -21.6874   23.9845 C   0  0  0  0  0  0  0  0  0  0  0  0
  -24.9479  -19.8924   19.5572 C   0  0  0  0  0  0  0  0  0  0  0  0
  -26.0843  -20.7845   17.4903 C   0  0  0  0  0  0  0  0  0  0  0  0
  -27.1339  -18.9191   18.7119 C   0  0  0  0  0  0  0  0  0  0  0  0
  -23.0587  -21.9258   24.3646 C   0  0  1  0  0  0  0  0  0  0  0  0
  -23.7771  -25.6477   24.1115 C   0  0  1  0  0  0  0  0  0  0  0  0
  -26.2672  -19.2027   19.9523 C   0  0  2  0  0  0  0  0  0  0  0  0
  -20.4807  -32.2071   21.6395 C   0  0  0  0  0  0  0  0  0  0  0  0
  -20.4313  -25.6226   20.9233 C   0  0  0  0  0  0  0  0  0  0  0  0
  -19.7000  -27.8745   20.1094 C   0  0  0  0  0  0  0  0  0  0  0  0
  -19.0312  -27.0941   22.3823 C   0  0  0  0  0  0  0  0  0  0  0  0
  -23.8039  -31.8820   23.4634 C   0  0  0  0  0  0  0  0  0  0  0  0
  -29.1222  -24.9344   17.7226 C   0  0  0  0  0  0  0  0  0  0  0  0
  -30.0157  -22.3510   16.5926 C   0  0  0  0  0  0  0  0  0  0  0  0
  -30.2102  -25.6528   18.5237 C   0  0  0  0  0  0  0  0  0  0  0  0
  -29.8320  -25.8856   19.9819 C   0  0  0  0  0  0  0  0  0  1  0  0
  -21.4315  -27.7657   21.9590 C   0  0  1  0  0  0  0  0  0  0  0  0
  -21.5297  -31.5168   22.4972 C   0  0  2  0  0  0  0  0  0  0  0  0
  -20.1762  -27.0831   21.3462 C   0  0  0  0  0  0  0  0  0  0  0  0
  -29.6164  -25.8003   14.0767 N   0  0  0  0  0  0  0  0  0  0  0  0
  -25.9319  -16.7666   20.1397 N   0  0  0  0  0  0  0  0  0  0  0  0
  -26.0228  -17.9491   20.7717 N   0  0  0  0  0  0  0  0  0  0  0  0
  -23.2762  -26.5446   23.0680 N   0  0  0  0  0  0  0  0  0  0  0  0
  -27.3318  -20.1480   17.9361 N   0  0  0  0  0  0  0  0  0  0  0  0
  -25.9417  -18.9572   22.9137 N   0  0  0  0  0  0  0  0  0  0  0  0
  -25.2840  -14.5775   23.7978 N   0  0  0  0  0  0  0  0  0  0  0  0
  -23.2930  -23.3311   24.6184 N   0  0  0  0  0  0  0  0  0  0  0  0
  -21.2117  -29.1410   22.3935 N   0  0  0  0  0  0  0  0  0  0  0  0
  -28.7387  -21.7636   16.9321 N   0  0  0  0  0  0  0  0  0  0  0  0
  -22.7041  -32.4253   22.6254 N   0  3  0  0  0  0  0  0  0  0  0  0
  -25.4451  -16.6630   24.7376 O   0  0  0  0  0  0  0  0  0  0  0  0
  -23.6562  -24.0055   22.4193 O   0  0  0  0  0  0  0  0  0  0  0  0
  -21.2379  -26.8776   24.1499 O   0  0  0  0  0  0  0  0  0  0  0  0
  -22.8475  -30.0950   21.0551 O   0  0  0  0  0  0  0  0  0  0  0  0
  -29.6412  -20.0035   18.0906 O   0  0  0  0  0  0  0  0  0  0  0  0
  -25.1210  -10.4512   20.0585 O   0  0  0  0  0  0  0  0  0  0  0  0
  -28.6415  -26.6712   20.0266 O   0  0  0  0  0  0  0  0  0  1  0  0
  -21.0209   -7.7726   22.5919 F   0  0  0  0  0  0  0  0  0  0  0  0
  -25.0055  -10.3177   22.8174 F   0  0  0  0  0  0  0  0  0  0  0  0
  1  2  1  0  0  0  0
  1  5  2  0  0  0  0
  2  6  2  0  0  0  0
  3  8  2  0  0  0  0
  3 18  1  0  0  0  0
  4  9  1  0  0  0  0
  4 18  2  0  0  0  0
  5 20  1  0  0  0  0
  6 22  1  0  0  0  0
  7 10  2  0  0  0  0
  7 21  1  0  0  0  0
  8 26  1  0  0  0  0
  9 26  2  0  0  0  0
 10 27  1  0  0  0  0
 11 12  2  0  0  0  0
 11 28  1  0  0  0  0
 12 29  1  0  0  0  0
 13 16  2  0  0  0  0
 13 24  1  0  0  0  0
 14 23  1  0  0  0  0
 14 27  2  0  0  0  0
 15 29  2  0  0  0  0
 15 30  1  0  0  0  0
 16 62  1  0  0  0  0
 17 25  1  0  0  0  0
 17 62  2  0  0  0  0
 18 31  1  0  0  0  0
 19 31  1  0  0  0  0
 19 32  2  0  0  0  0
 19 33  1  0  0  0  0
 20 22  2  0  0  0  0
 20 38  1  0  0  0  0
 21 23  2  0  0  0  0
 21 39  1  0  0  0  0
 22 47  1  0  0  0  0
 23 40  1  0  0  0  0
 24 25  2  0  0  0  0
 24 56  1  0  0  0  0
 25 55  1  0  0  0  0
 26 78  1  0  0  0  0
 27 79  1  0  0  0  0
 28 30  2  0  0  0  0
 28 78  1  0  0  0  0
 29 80  1  0  0  0  0
 30 81  1  0  0  0  0
 31 63  2  0  0  0  0
 32 64  1  0  0  0  0
 32 67  1  0  0  0  0
 33 68  1  0  0  0  0
 33 73  2  0  0  0  0
 34 48  1  0  0  0  0
 34 69  1  0  0  0  0
 34 74  2  0  0  0  0
 35 59  1  0  0  0  0
 35 65  1  0  0  0  0
 35 75  2  0  0  0  0
 36 60  1  0  0  0  0
 36 70  1  0  0  0  0
 36 76  2  0  0  0  0
 37 66  1  0  0  0  0
 37 71  1  0  0  0  0
 37 77  2  0  0  0  0
 38 41  1  0  0  0  0
 39 48  1  0  0  0  0
 40 65  1  0  0  0  0
 41 43  1  0  0  0  0
 42 44  1  0  0  0  0
 42 45  1  0  0  0  0
 43 47  1  0  0  0  0
 44 49  1  0  0  0  0
 45 66  1  0  0  0  0
 46 49  1  0  0  0  0
 46 66  1  0  0  0  0
 47 69  1  0  0  0  0
 48 65  1  0  0  0  0
 49 64  1  0  0  0  0
 50 60  1  0  0  0  0
 51 61  1  0  0  0  0
 52 61  1  0  0  0  0
 53 61  1  0  0  0  0
 54 72  1  0  0  0  0
 55 57  1  0  0  0  0
 56 71  1  0  0  0  0
 57 58  1  0  0  0  0
 58 79  1  0  0  0  0
 59 61  1  0  0  0  0
 59 70  1  0  0  0  0
 60 72  1  0  0  0  0
 63 64  1  0  0  0  0
M  CHG  1  72   1
M  ISO  4  37 100  58 101  71 100  79 101
M  END
> <Batch ID>
0111

> <Smiles>
CNC(C)C(=O)NC(C(=O)N1Cc2cc([101O:1][101CH2:1]CCc3cnccc3C[100NH:0][100C:0](=O)N3CCCC(n4nc(-c5ccc(Oc6ccc(F)cc6F)cc5)c(C(N)=O)c4N)C3)ccc2CC1C(=O)NC1CCCc2ccccc21)C(C)(C)C

> <Shape>
0.182

> <Color>
0.073

> <Negative vol penalty>
0.000

$$$$

  -OEChem-04052320013D

 86 94  0     1  0  0  0  0  0999 V2000
  -20.2583  -17.9434   16.8301 C   0  0  0  0  0  0  0  0  0  0  0  0
  -21.3156  -18.5035   17.5400 C   0  0  0  0  0  0  0  0  0  0  0  0
  -24.7488  -29.3097   19.7952 C   0  0  0  0  0  0  0  0  0  0  0  0
  -25.6077  -28.7309   21.9779 C   0  0  0  0  0  0  0  0  0  0  0  0
  -20.0498  -16.5653   16.8640 C   0  0  0  0  0  0  0  0  0  0  0  0
  -22.1643  -17.6857   18.2852 C   0  0  0  0  0  0  0  0  0  0  0  0
  -27.0495  -18.8507   17.6347 C   0  0  0  0  0  0  0  0  0  0  0  0
  -27.0277  -19.9565   26.2541 C   0  0  0  0  0  0  0  0  0  0  0  0
  -24.3777  -30.5660   20.2743 C   0  0  0  0  0  0  0  0  0  0  0  0
  -25.2366  -29.9872   22.4571 C   0  0  0  0  0  0  0  0  0  0  0  0
  -27.5348  -19.9649   18.3181 C   0  0  0  0  0  0  0  0  0  0  0  0
  -26.4247  -33.1485   22.3347 C   0  0  0  0  0  0  0  0  0  0  0  0
  -27.3468  -33.8386   23.1214 C   0  0  0  0  0  0  0  0  0  0  0  0
  -28.0130  -20.7204   25.6385 C   0  0  0  0  0  0  0  0  0  0  0  0
  -28.4859  -18.5146   19.9948 C   0  0  0  0  0  0  0  0  0  0  0  0
  -25.7674  -33.8646   24.9496 C   0  0  0  0  0  0  0  0  0  0  0  0
  -25.3638  -28.3921   20.6470 C   0  0  0  0  0  0  0  0  0  0  0  0
  -26.9783  -26.7345   19.5730 C   0  0  0  0  0  0  0  0  0  0  0  0
  -20.9022  -15.7291   17.6021 C   0  0  0  0  0  0  0  0  0  0  0  0
  -27.2697  -17.5586   18.1329 C   0  0  0  0  0  0  0  0  0  0  0  0
  -21.9663  -16.2952   18.3300 C   0  0  0  0  0  0  0  0  0  0  0  0
  -28.0045  -17.3856   19.3145 C   0  0  0  0  0  0  0  0  0  0  0  0
  -25.7841  -19.8167   25.6480 C   0  0  0  0  0  0  0  0  0  0  0  0
  -24.6216  -30.9048   21.6053 C   0  0  0  0  0  0  0  0  0  0  0  0
  -28.2506  -19.7970   19.4999 C   0  0  0  0  0  0  0  0  0  0  0  0
  -25.1739  -32.8165   22.8553 C   0  0  0  0  0  0  0  0  0  0  0  0
  -27.0182  -34.1967   24.4289 C   0  0  0  0  0  0  0  0  0  0  0  0
  -24.8453  -33.1745   24.1627 C   0  0  0  0  0  0  0  0  0  0  0  0
  -25.7468  -27.0940   20.1527 C   0  0  0  0  0  0  0  0  0  0  0  0
  -27.7070  -21.3192   24.4271 C   0  0  0  0  0  0  0  0  0  0  0  0
  -25.5779  -20.4561   24.4362 C   0  0  0  0  0  0  0  0  0  0  0  0
  -26.8410  -25.4010   19.2743 C   0  0  0  0  0  0  0  0  0  0  0  0
  -28.1424  -27.5345   19.3267 C   0  0  0  0  0  0  0  0  0  0  0  0
  -25.3994  -15.1924   19.1364 C   0  0  0  0  0  0  0  0  0  0  0  0
  -28.2016  -13.5660   19.2944 C   0  0  0  0  0  0  0  0  0  0  0  0
  -31.6000  -13.6714   19.5887 C   0  0  0  0  0  0  0  0  0  0  0  0
  -23.3949  -21.0524   21.5249 C   0  0  0  0  0  0  0  0  0  0  0  0
  -20.6087  -14.2504   17.6466 C   0  0  0  0  0  0  0  0  0  0  0  0
  -26.7626  -16.3657   17.3698 C   0  0  0  0  0  0  0  0  0  0  0  0
  -28.2856  -16.0185   19.8806 C   0  0  0  0  0  0  0  0  0  0  0  0
  -21.7777  -13.4125   18.1581 C   0  0  0  0  0  0  0  0  0  0  0  0
  -23.5295  -22.1402   18.1374 C   0  0  0  0  0  0  0  0  0  0  0  0
  -22.3715  -14.0368   19.4168 C   0  0  0  0  0  0  0  0  0  0  0  0
  -24.2242  -23.5007   18.2175 C   0  0  0  0  0  0  0  0  0  0  0  0
  -22.6114  -21.9039   19.3346 C   0  0  0  0  0  0  0  0  0  0  0  0
  -23.9498  -23.4311   20.7312 C   0  0  0  0  0  0  0  0  0  0  0  0
  -22.9235  -15.4384   19.1299 C   0  0  1  0  0  0  0  0  0  0  0  0
  -26.6035  -15.1230   18.2402 C   0  0  1  0  0  0  0  0  0  0  0  0
  -24.9292  -23.6913   19.5739 C   0  0  2  0  0  0  0  0  0  0  0  0
  -33.6126  -12.1788   19.7256 C   0  0  0  0  0  0  0  0  0  0  0  0
  -24.9619  -19.9366   28.6329 C   0  0  0  0  0  0  0  0  0  0  0  0
  -23.3443  -21.0207   27.0735 C   0  0  0  0  0  0  0  0  0  0  0  0
  -22.8462  -18.7585   28.0332 C   0  0  0  0  0  0  0  0  0  0  0  0
  -27.5068  -12.8987   22.1895 C   0  0  0  0  0  0  0  0  0  0  0  0
  -29.9011  -12.2581   22.5433 C   0  0  0  0  0  0  0  0  0  0  0  0
  -28.5079  -11.0079   20.8945 C   0  0  0  0  0  0  0  0  0  0  0  0
  -32.7631  -14.8192   17.1212 C   0  0  0  0  0  0  0  0  0  0  0  0
  -24.7242  -19.0006   26.3032 C   0  0  0  0  0  0  0  0  0  0  0  0
  -28.7524  -22.1534   23.7306 C   0  0  0  0  0  0  0  0  0  0  0  0
  -24.2630  -20.3386   23.7377 C   0  0  0  0  0  0  0  0  0  0  0  0
  -28.6287  -22.1481   22.2054 C   0  0  0  0  0  0  0  0  0  0  0  0
  -28.8425  -20.7714   21.5870 C   0  0  0  0  0  0  0  0  0  1  0  0
  -29.2599  -13.3597   20.3510 C   0  0  1  0  0  0  0  0  0  0  0  0
  -32.7007  -12.9773   18.8070 C   0  0  2  0  0  0  0  0  0  0  0  0
  -23.9581  -19.6729   27.4905 C   0  0  0  0  0  0  0  0  0  0  0  0
  -28.7871  -12.4071   21.4852 C   0  0  0  0  0  0  0  0  0  0  0  0
  -24.8902  -26.0714   20.2192 N   0  0  0  0  0  0  0  0  0  0  0  0
  -26.5107  -21.2063   23.8078 N   0  0  0  0  0  0  0  0  0  0  0  0
  -25.5844  -25.0562   19.6773 N   0  0  0  0  0  0  0  0  0  0  0  0
  -27.7634  -14.8838   19.1013 N   0  0  0  0  0  0  0  0  0  0  0  0
  -23.3415  -22.0989   20.5896 N   0  0  0  0  0  0  0  0  0  0  0  0
  -27.6736  -24.5013   18.7089 N   0  0  0  0  0  0  0  0  0  0  0  0
  -28.1143  -28.8864   19.6954 N   0  0  0  0  0  0  0  0  0  0  0  0
  -24.2040  -15.3502   18.4614 N   0  0  0  0  0  0  0  0  0  0  0  0
  -30.4550  -12.9054   19.6485 N   0  0  0  0  0  0  0  0  0  0  0  0
  -24.1125  -21.3181   22.6847 N   0  0  0  0  0  0  0  0  0  0  0  0
  -33.5287  -13.9789   18.0776 N   0  3  0  0  0  0  0  0  0  0  0  0
  -29.1708  -27.0685   18.7803 O   0  0  0  0  0  0  0  0  0  0  0  0
  -25.5440  -15.1075   20.3503 O   0  0  0  0  0  0  0  0  0  0  0  0
  -27.7844  -12.5947   18.6586 O   0  0  0  0  0  0  0  0  0  0  0  0
  -31.7429  -14.7805   20.0986 O   0  0  0  0  0  0  0  0  0  0  0  0
  -22.8483  -19.9600   21.3378 O   0  0  0  0  0  0  0  0  0  0  0  0
  -24.2598  -32.1306   22.0731 O   0  0  0  0  0  0  0  0  0  0  0  0
  -28.7249  -20.8828   20.1692 O   0  0  0  0  0  0  0  0  0  1  0  0
  -27.9044  -34.8580   25.1849 F   0  0  0  0  0  0  0  0  0  0  0  0
  -23.6457  -32.8573   24.6688 F   0  0  0  0  0  0  0  0  0  0  0  0
  1  2  1  0  0  0  0
  1  5  2  0  0  0  0
  2  6  2  0  0  0  0
  3  9  2  0  0  0  0
  3 17  1  0  0  0  0
  4 10  1  0  0  0  0
  4 17  2  0  0  0  0
  5 19  1  0  0  0  0
  6 21  1  0  0  0  0
  7 11  2  0  0  0  0
  7 20  1  0  0  0  0
  8 14  2  0  0  0  0
  8 23  1  0  0  0  0
  9 24  1  0  0  0  0
 10 24  2  0  0  0  0
 11 25  1  0  0  0  0
 12 13  2  0  0  0  0
 12 26  1  0  0  0  0
 13 27  1  0  0  0  0
 14 30  1  0  0  0  0
 15 22  1  0  0  0  0
 15 25  2  0  0  0  0
 16 27  2  0  0  0  0
 16 28  1  0  0  0  0
 17 29  1  0  0  0  0
 18 29  1  0  0  0  0
 18 32  2  0  0  0  0
 18 33  1  0  0  0  0
 19 21  2  0  0  0  0
 19 38  1  0  0  0  0
 20 22  2  0  0  0  0
 20 39  1  0  0  0  0
 21 47  1  0  0  0  0
 22 40  1  0  0  0  0
 23 31  2  0  0  0  0
 23 58  1  0  0  0  0
 24 83  1  0  0  0  0
 25 84  1  0  0  0  0
 26 28  2  0  0  0  0
 26 83  1  0  0  0  0
 27 85  1  0  0  0  0
 28 86  1  0  0  0  0
 29 67  2  0  0  0  0
 30 59  1  0  0  0  0
 30 68  2  0  0  0  0
 31 60  1  0  0  0  0
 31 68  1  0  0  0  0
 32 69  1  0  0  0  0
 32 72  1  0  0  0  0
 33 73  1  0  0  0  0
 33 78  2  0  0  0  0
 34 48  1  0  0  0  0
 34 74  1  0  0  0  0
 34 79  2  0  0  0  0
 35 63  1  0  0  0  0
 35 70  1  0  0  0  0
 35 80  2  0  0  0  0
 36 64  1  0  0  0  0
 36 75  1  0  0  0  0
 36 81  2  0  0  0  0
 37 71  1  0  0  0  0
 37 76  1  0  0  0  0
 37 82  2  0  0  0  0
 38 41  1  0  0  0  0
 39 48  1  0  0  0  0
 40 70  1  0  0  0  0
 41 43  1  0  0  0  0
 42 44  1  0  0  0  0
 42 45  1  0  0  0  0
 43 47  1  0  0  0  0
 44 49  1  0  0  0  0
 45 71  1  0  0  0  0
 46 49  1  0  0  0  0
 46 71  1  0  0  0  0
 47 74  1  0  0  0  0
 48 70  1  0  0  0  0
 49 69  1  0  0  0  0
 50 64  1  0  0  0  0
 51 65  1  0  0  0  0
 52 65  1  0  0  0  0
 53 65  1  0  0  0  0
 54 66  1  0  0  0  0
 55 66  1  0  0  0  0
 56 66  1  0  0  0  0
 57 77  1  0  0  0  0
 58 65  1  0  0  0  0
 59 61  1  0  0  0  0
 60 76  1  0  0  0  0
 61 62  1  0  0  0  0
 62 84  1  0  0  0  0
 63 66  1  0  0  0  0
 63 75  1  0  0  0  0
 64 77  1  0  0  0  0
 67 69  1  0  0  0  0
M  CHG  1  77   1
M  ISO  4  37 100  62 101  76 100  84 101
M  END
> <Batch ID>
0111

> <Smiles>
CNC(C)C(=O)NC(C(=O)N1Cc2cc([101O:1][101CH2:1]CCc3ccc(CC(C)(C)C)c(C[100NH:0][100C:0](=O)N4CCCC(n5nc(-c6ccc(Oc7ccc(F)cc7F)cc6)c(C(N)=O)c5N)C4)n3)ccc2CC1C(=O)NC1CCCc2ccccc21)C(C)(C)C

> <Shape>
0.195

> <Color>
0.065

> <Negative vol penalty>
0.000

$$$$

  -OEChem-04052320013D

 83 91  0     1  0  0  0  0  0999 V2000
  -28.1252  -17.2822   14.5239 C   0  0  0  0  0  0  0  0  0  0  0  0
  -28.3326  -17.0745   15.8838 C   0  0  0  0  0  0  0  0  0  0  0  0
  -23.1668   -9.8498   19.9094 C   0  0  0  0  0  0  0  0  0  0  0  0
  -23.8342   -9.8969   22.2309 C   0  0  0  0  0  0  0  0  0  0  0  0
  -28.9552  -18.1523   13.8183 C   0  0  0  0  0  0  0  0  0  0  0  0
  -29.3709  -17.7360   16.5386 C   0  0  0  0  0  0  0  0  0  0  0  0
  -31.0554  -20.5613   22.9023 C   0  0  0  0  0  0  0  0  0  0  0  0
  -22.4426   -8.6805   20.1413 C   0  0  0  0  0  0  0  0  0  0  0  0
  -23.1100   -8.7276   22.4628 C   0  0  0  0  0  0  0  0  0  0  0  0
  -32.0581  -20.5150   23.8699 C   0  0  0  0  0  0  0  0  0  0  0  0
  -19.4597   -7.8224   21.4825 C   0  0  0  0  0  0  0  0  0  0  0  0
  -18.1748   -7.7386   20.9464 C   0  0  0  0  0  0  0  0  0  0  0  0
  -33.3792  -22.0555   22.5658 C   0  0  0  0  0  0  0  0  0  0  0  0
  -18.8352   -5.7984   19.6670 C   0  0  0  0  0  0  0  0  0  0  0  0
  -23.8626  -10.4581   20.9542 C   0  0  0  0  0  0  0  0  0  0  0  0
  -24.1456  -12.9899   20.8224 C   0  0  0  0  0  0  0  0  0  0  0  0
  -29.9982  -18.8321   14.4668 C   0  0  0  0  0  0  0  0  0  0  0  0
  -31.2120  -21.3479   21.7520 C   0  0  0  0  0  0  0  0  0  0  0  0
  -30.2165  -18.6150   15.8407 C   0  0  0  0  0  0  0  0  0  0  0  0
  -32.3759  -22.1121   21.5864 C   0  0  0  0  0  0  0  0  0  0  0  0
  -22.4142   -8.1193   21.4180 C   0  0  0  0  0  0  0  0  0  0  0  0
  -33.2215  -21.2599   23.7004 C   0  0  0  0  0  0  0  0  0  0  0  0
  -20.4325   -6.8943   21.1109 C   0  0  0  0  0  0  0  0  0  0  0  0
  -17.8625   -6.7266   20.0386 C   0  0  0  0  0  0  0  0  0  0  0  0
  -20.1202   -5.8823   20.2031 C   0  0  0  0  0  0  0  0  0  0  0  0
  -24.6113  -11.6657   20.7152 C   0  0  0  0  0  0  0  0  0  0  0  0
  -25.2323  -13.7636   20.4952 C   0  0  0  0  0  0  0  0  0  0  0  0
  -22.8469  -13.4770   21.1854 C   0  0  0  0  0  0  0  0  0  0  0  0
  -31.3454  -20.7571   18.6317 C   0  0  0  0  0  0  0  0  0  0  0  0
  -31.3608  -23.9936   18.4150 C   0  0  0  0  0  0  0  0  0  0  0  0
  -32.0308  -26.9935   19.8979 C   0  0  0  0  0  0  0  0  0  0  0  0
  -30.5407  -14.9602   20.9964 C   0  0  0  0  0  0  0  0  0  0  0  0
  -30.8988  -19.7265   13.6521 C   0  0  0  0  0  0  0  0  0  0  0  0
  -30.1096  -21.4078   20.7305 C   0  0  0  0  0  0  0  0  0  0  0  0
  -32.5842  -22.9883   20.3792 C   0  0  0  0  0  0  0  0  0  0  0  0
  -31.7426  -20.6756   14.4992 C   0  0  0  0  0  0  0  0  0  0  0  0
  -29.6983  -12.4912   18.4896 C   0  0  0  0  0  0  0  0  0  0  0  0
  -32.3834  -19.9259   15.6629 C   0  0  0  0  0  0  0  0  0  0  0  0
  -28.2499  -12.1670   18.8595 C   0  0  0  0  0  0  0  0  0  0  0  0
  -30.5499  -12.7207   19.7350 C   0  0  0  0  0  0  0  0  0  0  0  0
  -28.5808  -13.4474   21.0244 C   0  0  0  0  0  0  0  0  0  0  0  0
  -34.0831  -16.3756   20.5347 C   0  0  0  0  0  0  0  0  0  0  0  0
  -33.0565  -16.4948   22.3479 C   0  0  0  0  0  0  0  0  0  0  0  0
  -31.3168  -19.3331   16.5915 C   0  0  1  0  0  0  0  0  0  0  0  0
  -30.5959  -21.8424   19.3514 C   0  0  1  0  0  0  0  0  0  0  0  0
  -27.6631  -13.2291   19.8078 C   0  0  2  0  0  0  0  0  0  0  0  0
  -32.5849  -16.4147   20.8850 C   0  0  0  0  0  0  0  0  0  0  0  0
  -31.9779  -29.4636   19.4585 C   0  0  0  0  0  0  0  0  0  0  0  0
  -33.8833  -23.7431   16.7168 C   0  0  0  0  0  0  0  0  0  0  0  0
  -34.3054  -26.1795   17.1091 C   0  0  0  0  0  0  0  0  0  0  0  0
  -32.2453  -25.4503   15.9062 C   0  0  0  0  0  0  0  0  0  0  0  0
  -30.0955  -27.4591   22.0880 C   0  0  0  0  0  0  0  0  0  0  0  0
  -37.2359  -20.6747   27.5224 C   0  0  0  0  0  0  0  0  0  0  0  0
  -35.9849  -18.5642   23.7858 C   0  0  0  0  0  0  0  0  0  0  0  0
  -35.7345  -17.0556   23.8851 C   0  0  0  0  0  0  0  0  0  0  0  0
  -36.2277  -19.1756   25.1710 C   0  0  0  0  0  0  0  0  0  0  0  0
  -35.4964  -16.3903   22.5351 C   0  0  0  0  0  0  0  0  0  0  0  0
  -35.5432  -21.4067   24.1943 C   0  0  0  0  0  0  0  0  0  1  0  0
  -32.4303  -25.0589   18.3972 C   0  0  1  0  0  0  0  0  0  0  0  0
  -31.2138  -28.2683   20.0064 C   0  0  2  0  0  0  0  0  0  0  0  0
  -36.5035  -20.6828   25.1345 C   0  0  1  0  0  0  0  0  0  0  0  0
  -33.2133  -25.0900   17.0543 C   0  0  0  0  0  0  0  0  0  0  0  0
  -25.8938  -11.5983   20.3483 N   0  0  0  0  0  0  0  0  0  0  0  0
  -26.2433  -12.8898   20.2221 N   0  0  0  0  0  0  0  0  0  0  0  0
  -31.4802  -23.0084   19.4054 N   0  0  0  0  0  0  0  0  0  0  0  0
  -29.9461  -13.7566   20.5854 N   0  0  0  0  0  0  0  0  0  0  0  0
  -25.4120  -15.0992   20.4171 N   0  0  0  0  0  0  0  0  0  0  0  0
  -21.8455  -12.5455   21.4915 N   0  0  0  0  0  0  0  0  0  0  0  0
  -30.7604  -20.3619   17.4438 N   0  0  0  0  0  0  0  0  0  0  0  0
  -31.7629  -26.3130   18.7289 N   0  0  0  0  0  0  0  0  0  0  0  0
  -31.8346  -15.1894   20.5405 N   0  0  0  0  0  0  0  0  0  0  0  0
  -34.3432  -17.0104   21.8414 N   0  3  0  0  0  0  0  0  0  0  0  0
  -30.8693  -28.5432   21.4300 N   0  3  0  0  0  0  0  0  0  0  0  0
  -36.3293  -21.2573   26.5015 N   0  3  0  0  0  0  0  0  0  0  0  0
  -22.5779  -14.7017   21.2209 O   0  0  0  0  0  0  0  0  0  0  0  0
  -32.3788  -20.3122   19.1173 O   0  0  0  0  0  0  0  0  0  0  0  0
  -30.4489  -24.0383   17.5855 O   0  0  0  0  0  0  0  0  0  0  0  0
  -32.8298  -26.6388   20.7619 O   0  0  0  0  0  0  0  0  0  0  0  0
  -29.9622  -15.7824   21.7155 O   0  0  0  0  0  0  0  0  0  0  0  0
  -21.7075   -6.9784   21.6447 O   0  0  0  0  0  0  0  0  0  0  0  0
  -34.2020  -21.2161   24.6429 O   0  0  0  0  0  0  0  0  0  1  0  0
  -16.6281   -6.6453   19.5250 F   0  0  0  0  0  0  0  0  0  0  0  0
  -21.0502   -4.9871   19.8432 F   0  0  0  0  0  0  0  0  0  0  0  0
  1  2  1  0  0  0  0
  1  5  2  0  0  0  0
  2  6  2  0  0  0  0
  3  8  2  0  0  0  0
  3 15  1  0  0  0  0
  4  9  1  0  0  0  0
  4 15  2  0  0  0  0
  5 17  1  0  0  0  0
  6 19  1  0  0  0  0
  7 10  2  0  0  0  0
  7 18  1  0  0  0  0
  8 21  1  0  0  0  0
  9 21  2  0  0  0  0
 10 22  1  0  0  0  0
 11 12  2  0  0  0  0
 11 23  1  0  0  0  0
 12 24  1  0  0  0  0
 13 20  1  0  0  0  0
 13 22  2  0  0  0  0
 14 24  2  0  0  0  0
 14 25  1  0  0  0  0
 15 26  1  0  0  0  0
 16 26  1  0  0  0  0
 16 27  2  0  0  0  0
 16 28  1  0  0  0  0
 17 19  2  0  0  0  0
 17 33  1  0  0  0  0
 18 20  2  0  0  0  0
 18 34  1  0  0  0  0
 19 44  1  0  0  0  0
 20 35  1  0  0  0  0
 21 80  1  0  0  0  0
 22 81  1  0  0  0  0
 23 25  2  0  0  0  0
 23 80  1  0  0  0  0
 24 82  1  0  0  0  0
 25 83  1  0  0  0  0
 26 63  2  0  0  0  0
 27 64  1  0  0  0  0
 27 67  1  0  0  0  0
 28 68  1  0  0  0  0
 28 75  2  0  0  0  0
 29 45  1  0  0  0  0
 29 69  1  0  0  0  0
 29 76  2  0  0  0  0
 30 59  1  0  0  0  0
 30 65  1  0  0  0  0
 30 77  2  0  0  0  0
 31 60  1  0  0  0  0
 31 70  1  0  0  0  0
 31 78  2  0  0  0  0
 32 66  1  0  0  0  0
 32 71  1  0  0  0  0
 32 79  2  0  0  0  0
 33 36  1  0  0  0  0
 34 45  1  0  0  0  0
 35 65  1  0  0  0  0
 36 38  1  0  0  0  0
 37 39  1  0  0  0  0
 37 40  1  0  0  0  0
 38 44  1  0  0  0  0
 39 46  1  0  0  0  0
 40 66  1  0  0  0  0
 41 46  1  0  0  0  0
 41 66  1  0  0  0  0
 42 47  1  0  0  0  0
 42 72  1  0  0  0  0
 43 47  1  0  0  0  0
 43 72  1  0  0  0  0
 44 69  1  0  0  0  0
 45 65  1  0  0  0  0
 46 64  1  0  0  0  0
 47 71  1  0  0  0  0
 48 60  1  0  0  0  0
 49 62  1  0  0  0  0
 50 62  1  0  0  0  0
 51 62  1  0  0  0  0
 52 73  1  0  0  0  0
 53 74  1  0  0  0  0
 54 55  1  0  0  0  0
 54 56  1  0  0  0  0
 55 57  1  0  0  0  0
 56 61  1  0  0  0  0
 57 72  1  0  0  0  0
 58 61  1  0  0  0  0
 58 81  1  0  0  0  0
 59 62  1  0  0  0  0
 59 70  1  0  0  0  0
 60 73  1  0  0  0  0
 61 74  1  0  0  0  0
 63 64  1  0  0  0  0
M  CHG  3  72   1  73   1  74   1
M  ISO  4  32 100  58 101  71 100  81 101
M  END
> <Batch ID>
0111

> <Smiles>
CNC(C)C(=O)NC(C(=O)N1Cc2cc([101O:1][101CH2:1]C(CCCCN3CC([100NH:0][100C:0](=O)N4CCCC(n5nc(-c6ccc(Oc7ccc(F)cc7F)cc6)c(C(N)=O)c5N)C4)C3)NC)ccc2CC1C(=O)NC1CCCc2ccccc21)C(C)(C)C

> <Shape>
0.186

> <Color>
0.164

> <Negative vol penalty>
0.000

$$$$

  -OEChem-04052320013D

 85 92  0     1  0  0  0  0  0999 V2000
  -28.1629  -24.2423   17.1198 C   0  0  0  0  0  0  0  0  0  0  0  0
  -26.9729  -24.4753   17.8018 C   0  0  0  0  0  0  0  0  0  0  0  0
  -26.4017  -13.7245   20.6725 C   0  0  0  0  0  0  0  0  0  0  0  0
  -24.1304  -13.6555   19.8518 C   0  0  0  0  0  0  0  0  0  0  0  0
  -29.3576  -24.7745   17.6029 C   0  0  0  0  0  0  0  0  0  0  0  0
  -26.9771  -25.2399   18.9679 C   0  0  0  0  0  0  0  0  0  0  0  0
  -23.2077  -28.6196   19.0886 C   0  0  0  0  0  0  0  0  0  0  0  0
  -26.1393  -12.6261   21.4911 C   0  0  0  0  0  0  0  0  0  0  0  0
  -23.8680  -12.5570   20.6704 C   0  0  0  0  0  0  0  0  0  0  0  0
  -21.9374  -28.1452   19.4128 C   0  0  0  0  0  0  0  0  0  0  0  0
  -22.7033   -9.5102   22.2762 C   0  0  0  0  0  0  0  0  0  0  0  0
  -22.0076   -8.4371   21.7195 C   0  0  0  0  0  0  0  0  0  0  0  0
  -22.2250  -28.9374   21.6730 C   0  0  0  0  0  0  0  0  0  0  0  0
  -23.7583   -8.1535   20.0787 C   0  0  0  0  0  0  0  0  0  0  0  0
  -25.3972  -14.2393   19.8528 C   0  0  0  0  0  0  0  0  0  0  0  0
  -26.1462  -15.3535   17.6837 C   0  0  0  0  0  0  0  0  0  0  0  0
  -29.3750  -25.5541   18.7702 C   0  0  0  0  0  0  0  0  0  0  0  0
  -24.0019  -29.2477   20.0586 C   0  0  0  0  0  0  0  0  0  0  0  0
  -28.1734  -25.7820   19.4677 C   0  0  0  0  0  0  0  0  0  0  0  0
  -23.5040  -29.4211   21.3580 C   0  0  0  0  0  0  0  0  0  0  0  0
  -24.8725  -12.0423   21.4901 C   0  0  0  0  0  0  0  0  0  0  0  0
  -21.4470  -28.3015   20.7059 C   0  0  0  0  0  0  0  0  0  0  0  0
  -23.9264   -9.9051   21.7342 C   0  0  0  0  0  0  0  0  0  0  0  0
  -22.5351   -7.7587   20.6208 C   0  0  0  0  0  0  0  0  0  0  0  0
  -24.4539   -9.2267   20.6355 C   0  0  0  0  0  0  0  0  0  0  0  0
  -25.6675  -15.3743   19.0074 C   0  0  0  0  0  0  0  0  0  0  0  0
  -26.2332  -16.6776   17.3292 C   0  0  0  0  0  0  0  0  0  0  0  0
  -26.4822  -14.2371   16.8492 C   0  0  0  0  0  0  0  0  0  0  0  0
  -26.8215  -28.6327   21.3910 C   0  0  0  0  0  0  0  0  0  0  0  0
  -26.3628  -31.5311   22.7734 C   0  0  0  0  0  0  0  0  0  0  0  0
  -19.8314  -25.2142   24.4827 C   0  0  0  0  0  0  0  0  0  0  0  0
  -24.1719  -33.9432   23.7875 C   0  0  0  0  0  0  0  0  0  0  0  0
  -23.4217  -21.4578   19.0180 C   0  0  0  0  0  0  0  0  0  0  0  0
  -30.6979  -26.0688   19.2798 C   0  0  0  0  0  0  0  0  0  0  0  0
  -25.3594  -29.7777   19.6860 C   0  0  0  0  0  0  0  0  0  0  0  0
  -24.3089  -30.1066   22.4307 C   0  0  0  0  0  0  0  0  0  0  0  0
  -30.5604  -27.1808   20.3165 C   0  0  0  0  0  0  0  0  0  0  0  0
  -26.9224  -21.0235   19.1864 C   0  0  0  0  0  0  0  0  0  0  0  0
  -29.5149  -26.8087   21.3630 C   0  0  0  0  0  0  0  0  0  0  0  0
  -27.0468  -19.5078   19.0378 C   0  0  0  0  0  0  0  0  0  0  0  0
  -25.7337  -21.4193   20.0643 C   0  0  0  0  0  0  0  0  0  0  0  0
  -24.5714  -19.3141   19.4814 C   0  0  0  0  0  0  0  0  0  0  0  0
  -28.1335  -26.6270   20.7225 C   0  0  1  0  0  0  0  0  0  0  0  0
  -26.2864  -29.9428   20.8863 C   0  0  1  0  0  0  0  0  0  0  0  0
  -25.7222  -18.8918   18.5550 C   0  0  2  0  0  0  0  0  0  0  0  0
  -17.9254  -26.8530   24.7053 C   0  0  0  0  0  0  0  0  0  0  0  0
  -24.0915  -36.1814   24.9194 C   0  0  0  0  0  0  0  0  0  0  0  0
  -22.9251  -23.8304   17.2408 C   0  0  0  0  0  0  0  0  0  0  0  0
  -20.9316  -23.0719   18.5727 C   0  0  0  0  0  0  0  0  0  0  0  0
  -26.8470  -30.1833   25.4676 C   0  0  0  0  0  0  0  0  0  0  0  0
  -25.8370  -32.1893   26.5740 C   0  0  0  0  0  0  0  0  0  0  0  0
  -27.9168  -32.4299   25.2179 C   0  0  0  0  0  0  0  0  0  0  0  0
  -22.9617  -35.2302   21.4130 C   0  0  0  0  0  0  0  0  0  0  0  0
  -22.7500  -23.6380   23.1575 C   0  0  0  0  0  0  0  0  0  0  0  0
  -22.3903  -23.1279   21.7568 C   0  0  0  0  0  0  0  0  0  0  0  0
  -18.9096  -26.3485   22.4105 C   0  0  0  0  0  0  0  0  0  0  0  0
  -21.5970  -23.4890   24.1460 C   0  0  0  0  0  0  0  0  0  0  0  0
  -23.5383  -23.2857   20.7644 C   0  0  0  0  0  0  0  0  0  0  0  0
  -19.9991  -27.4169   22.3723 C   0  0  0  0  0  0  0  0  0  1  0  0
  -25.7144  -32.0176   24.0469 C   0  0  1  0  0  0  0  0  0  0  0  0
  -18.5889  -25.8045   23.8129 C   0  0  1  0  0  0  0  0  0  0  0  0
  -24.1681  -35.4482   23.5892 C   0  0  2  0  0  0  0  0  0  0  0  0
  -22.3429  -23.6415   18.6360 C   0  0  0  0  0  0  0  0  0  0  0  0
  -26.5642  -31.6904   25.3071 C   0  0  0  0  0  0  0  0  0  0  0  0
  -25.4647  -16.6134   19.4630 N   0  0  0  0  0  0  0  0  0  0  0  0
  -25.8178  -17.3835   18.4197 N   0  0  0  0  0  0  0  0  0  0  0  0
  -25.6328  -30.6019   22.0189 N   0  0  0  0  0  0  0  0  0  0  0  0
  -24.4997  -20.7726   19.5974 N   0  0  0  0  0  0  0  0  0  0  0  0
  -26.6238  -17.2953   16.1942 N   0  0  0  0  0  0  0  0  0  0  0  0
  -26.3339  -12.9446   17.3706 N   0  0  0  0  0  0  0  0  0  0  0  0
  -27.5306  -27.9137   20.4478 N   0  0  0  0  0  0  0  0  0  0  0  0
  -20.4122  -24.2043   23.7300 N   0  0  0  0  0  0  0  0  0  0  0  0
  -25.4540  -33.4402   23.8547 N   0  0  0  0  0  0  0  0  0  0  0  0
  -23.2014  -22.7790   19.4355 N   0  0  0  0  0  0  0  0  0  0  0  0
  -23.0006  -35.8583   22.7587 N   0  3  0  0  0  0  0  0  0  0  0  0
  -26.9171  -14.3819   15.6815 O   0  0  0  0  0  0  0  0  0  0  0  0
  -26.6081  -28.2994   22.5508 O   0  0  0  0  0  0  0  0  0  0  0  0
  -27.4730  -31.9652   22.4560 O   0  0  0  0  0  0  0  0  0  0  0  0
  -20.2495  -25.6093   25.5691 O   0  0  0  0  0  0  0  0  0  0  0  0
  -23.1407  -33.2806   23.8777 O   0  0  0  0  0  0  0  0  0  0  0  0
  -22.6898  -20.9171   18.1789 O   0  0  0  0  0  0  0  0  0  0  0  0
  -24.6162  -10.9703   22.2886 O   0  0  0  0  0  0  0  0  0  0  0  0
  -20.2077  -27.8389   21.0252 O   0  0  0  0  0  0  0  0  0  1  0  0
  -21.8677   -6.7271   20.0872 F   0  0  0  0  0  0  0  0  0  0  0  0
  -25.6290   -9.6007   20.1111 F   0  0  0  0  0  0  0  0  0  0  0  0
  1  2  1  0  0  0  0
  1  5  2  0  0  0  0
  2  6  2  0  0  0  0
  3  8  2  0  0  0  0
  3 15  1  0  0  0  0
  4  9  1  0  0  0  0
  4 15  2  0  0  0  0
  5 17  1  0  0  0  0
  6 19  1  0  0  0  0
  7 10  2  0  0  0  0
  7 18  1  0  0  0  0
  8 21  1  0  0  0  0
  9 21  2  0  0  0  0
 10 22  1  0  0  0  0
 11 12  2  0  0  0  0
 11 23  1  0  0  0  0
 12 24  1  0  0  0  0
 13 20  1  0  0  0  0
 13 22  2  0  0  0  0
 14 24  2  0  0  0  0
 14 25  1  0  0  0  0
 15 26  1  0  0  0  0
 16 26  1  0  0  0  0
 16 27  2  0  0  0  0
 16 28  1  0  0  0  0
 17 19  2  0  0  0  0
 17 34  1  0  0  0  0
 18 20  2  0  0  0  0
 18 35  1  0  0  0  0
 19 43  1  0  0  0  0
 20 36  1  0  0  0  0
 21 82  1  0  0  0  0
 22 83  1  0  0  0  0
 23 25  2  0  0  0  0
 23 82  1  0  0  0  0
 24 84  1  0  0  0  0
 25 85  1  0  0  0  0
 26 65  2  0  0  0  0
 27 66  1  0  0  0  0
 27 69  1  0  0  0  0
 28 70  1  0  0  0  0
 28 76  2  0  0  0  0
 29 44  1  0  0  0  0
 29 71  1  0  0  0  0
 29 77  2  0  0  0  0
 30 60  1  0  0  0  0
 30 67  1  0  0  0  0
 30 78  2  0  0  0  0
 31 61  1  0  0  0  0
 31 72  1  0  0  0  0
 31 79  2  0  0  0  0
 32 62  1  0  0  0  0
 32 73  1  0  0  0  0
 32 80  2  0  0  0  0
 33 68  1  0  0  0  0
 33 74  1  0  0  0  0
 33 81  2  0  0  0  0
 34 37  1  0  0  0  0
 35 44  1  0  0  0  0
 36 67  1  0  0  0  0
 37 39  1  0  0  0  0
 38 40  1  0  0  0  0
 38 41  1  0  0  0  0
 39 43  1  0  0  0  0
 40 45  1  0  0  0  0
 41 68  1  0  0  0  0
 42 45  1  0  0  0  0
 42 68  1  0  0  0  0
 43 71  1  0  0  0  0
 44 67  1  0  0  0  0
 45 66  1  0  0  0  0
 46 61  1  0  0  0  0
 47 62  1  0  0  0  0
 48 63  1  0  0  0  0
 49 63  1  0  0  0  0
 50 64  1  0  0  0  0
 51 64  1  0  0  0  0
 52 64  1  0  0  0  0
 53 75  1  0  0  0  0
 54 55  1  0  0  0  0
 54 57  1  0  0  0  0
 55 58  1  0  0  0  0
 56 59  1  0  0  0  0
 56 61  1  0  0  0  0
 57 72  1  0  0  0  0
 58 74  1  0  0  0  0
 59 83  1  0  0  0  0
 60 64  1  0  0  0  0
 60 73  1  0  0  0  0
 62 75  1  0  0  0  0
 63 74  1  0  0  0  0
 65 66  1  0  0  0  0
M  CHG  1  75   1
M  ISO  4  33 100  59 101  74 100  83 101
M  END
> <Batch ID>
0111

> <Smiles>
CNC(C)C(=O)NC(C(=O)N1Cc2cc([101O:1][101CH2:1]CC(C)C(=O)NCCCC[100N:0](C(C)C)[100C:0](=O)N3CCCC(n4nc(-c5ccc(Oc6ccc(F)cc6F)cc5)c(C(N)=O)c4N)C3)ccc2CC1C(=O)NC1CCCc2ccccc21)C(C)(C)C

> <Shape>
0.275

> <Color>
0.086

> <Negative vol penalty>
0.000

$$$$

  -OEChem-04052320013D

 81 89  0     1  0  0  0  0  0999 V2000
  -23.5157  -30.6099   21.5405 C   0  0  0  0  0  0  0  0  0  0  0  0
  -23.1963  -29.9146   20.3785 C   0  0  0  0  0  0  0  0  0  0  0  0
  -23.7102  -16.4104   22.1807 C   0  0  0  0  0  0  0  0  0  0  0  0
  -22.8260  -16.0856   19.9559 C   0  0  0  0  0  0  0  0  0  0  0  0
  -24.7881  -30.4874   22.0972 C   0  0  0  0  0  0  0  0  0  0  0  0
  -24.1495  -29.0974   19.7720 C   0  0  0  0  0  0  0  0  0  0  0  0
  -24.7175  -23.0337   16.0004 C   0  0  0  0  0  0  0  0  0  0  0  0
  -27.6725  -18.4807   12.0634 C   0  0  0  0  0  0  0  0  0  0  0  0
  -22.8620  -17.5034   22.3582 C   0  0  0  0  0  0  0  0  0  0  0  0
  -21.9778  -17.1786   20.1334 C   0  0  0  0  0  0  0  0  0  0  0  0
  -25.2742  -22.5491   14.8176 C   0  0  0  0  0  0  0  0  0  0  0  0
  -21.1842  -20.6003   23.2625 C   0  0  0  0  0  0  0  0  0  0  0  0
  -21.7227  -21.7559   23.8282 C   0  0  0  0  0  0  0  0  0  0  0  0
  -27.7018  -19.8586   12.2474 C   0  0  0  0  0  0  0  0  0  0  0  0
  -27.4146  -22.3522   15.9127 C   0  0  0  0  0  0  0  0  0  0  0  0
  -23.3009  -21.9127   22.0057 C   0  0  0  0  0  0  0  0  0  0  0  0
  -26.5797  -18.2755   14.1661 C   0  0  0  0  0  0  0  0  0  0  0  0
  -23.6923  -15.7015   20.9795 C   0  0  0  0  0  0  0  0  0  0  0  0
  -24.2955  -13.2258   21.1003 C   0  0  0  0  0  0  0  0  0  0  0  0
  -25.7543  -29.6607   21.5026 C   0  0  0  0  0  0  0  0  0  0  0  0
  -25.5090  -23.1917   17.1471 C   0  0  0  0  0  0  0  0  0  0  0  0
  -25.4364  -28.9648   20.3206 C   0  0  0  0  0  0  0  0  0  0  0  0
  -26.8649  -22.8366   17.1095 C   0  0  0  0  0  0  0  0  0  0  0  0
  -27.1021  -17.6671   13.0361 C   0  0  0  0  0  0  0  0  0  0  0  0
  -21.9958  -17.8875   21.3346 C   0  0  0  0  0  0  0  0  0  0  0  0
  -26.6236  -22.2110   14.7728 C   0  0  0  0  0  0  0  0  0  0  0  0
  -21.7041  -20.1008   22.0684 C   0  0  0  0  0  0  0  0  0  0  0  0
  -22.7811  -22.4121   23.1998 C   0  0  0  0  0  0  0  0  0  0  0  0
  -22.7624  -20.7570   21.4399 C   0  0  0  0  0  0  0  0  0  0  0  0
  -24.5686  -14.5728   20.7953 C   0  0  0  0  0  0  0  0  0  0  0  0
  -27.1523  -20.3692   13.4124 C   0  0  0  0  0  0  0  0  0  1  0  0
  -25.4391  -12.5542   20.7430 C   0  0  0  0  0  0  0  0  0  0  0  0
  -23.1138  -12.6346   21.6567 C   0  0  0  0  0  0  0  0  0  0  0  0
  -26.3683  -25.6595   18.9569 C   0  0  0  0  0  0  0  0  0  0  0  0
  -27.6766  -23.3428   20.8127 C   0  0  0  0  0  0  0  0  0  0  0  0
  -28.9392  -20.1803   21.0388 C   0  0  0  0  0  0  0  0  0  0  0  0
  -29.8083  -13.7398   16.8244 C   0  0  0  0  0  0  0  0  0  0  0  0
  -27.1312  -29.5970   22.1147 C   0  0  0  0  0  0  0  0  0  0  0  0
  -24.8873  -23.6904   18.4227 C   0  0  0  0  0  0  0  0  0  0  0  0
  -27.7530  -22.9684   18.3188 C   0  0  0  0  0  0  0  0  0  0  0  0
  -27.9644  -28.4179   21.6188 C   0  0  0  0  0  0  0  0  0  0  0  0
  -30.1651  -13.1683   20.3205 C   0  0  0  0  0  0  0  0  0  0  0  0
  -27.8780  -28.3045   20.1000 C   0  0  0  0  0  0  0  0  0  0  0  0
  -28.7466  -13.3419   20.8661 C   0  0  0  0  0  0  0  0  0  0  0  0
  -30.4549  -14.1433   19.1814 C   0  0  0  0  0  0  0  0  0  0  0  0
  -28.0588  -14.2877   18.6231 C   0  0  0  0  0  0  0  0  0  0  0  0
  -26.4354  -28.0490   19.6471 C   0  0  1  0  0  0  0  0  0  0  0  0
  -25.9035  -24.2964   19.3857 C   0  0  1  0  0  0  0  0  0  0  0  0
  -27.7007  -13.2882   19.7363 C   0  0  2  0  0  0  0  0  0  0  0  0
  -29.8651  -18.1147   22.1221 C   0  0  0  0  0  0  0  0  0  0  0  0
  -30.3070  -24.8816   20.6613 C   0  0  0  0  0  0  0  0  0  0  0  0
  -31.4778  -22.8226   21.4724 C   0  0  0  0  0  0  0  0  0  0  0  0
  -29.7779  -23.9394   22.9167 C   0  0  0  0  0  0  0  0  0  0  0  0
  -26.2349  -19.0718   21.5042 C   0  0  0  0  0  0  0  0  0  0  0  0
  -27.0551  -16.1903   12.8688 C   0  0  0  0  0  0  0  0  0  0  0  0
  -29.0043  -13.3468   14.5095 C   0  0  0  0  0  0  0  0  0  0  0  0
  -27.9711  -13.9844   13.5995 C   0  0  0  0  0  0  0  0  0  0  0  0
  -29.0187  -22.6545   20.8760 C   0  0  1  0  0  0  0  0  0  0  0  0
  -28.6770  -19.0594   22.0284 C   0  0  2  0  0  0  0  0  0  0  0  0
  -30.1293  -23.5738   21.4581 C   0  0  0  0  0  0  0  0  0  0  0  0
  -26.5905  -19.6104   14.3800 N   0  0  0  0  0  0  0  0  0  0  0  0
  -25.7899  -14.7482   20.2838 N   0  0  0  0  0  0  0  0  0  0  0  0
  -26.2944  -13.5028   20.2646 N   0  0  0  0  0  0  0  0  0  0  0  0
  -27.1000  -23.4666   19.5407 N   0  0  0  0  0  0  0  0  0  0  0  0
  -29.4273  -14.0411   18.1423 N   0  0  0  0  0  0  0  0  0  0  0  0
  -25.7864  -11.2507   20.7945 N   0  0  0  0  0  0  0  0  0  0  0  0
  -22.0312  -13.4693   21.9659 N   0  0  0  0  0  0  0  0  0  0  0  0
  -26.0765  -26.6634   19.8606 N   0  0  0  0  0  0  0  0  0  0  0  0
  -28.8098  -21.4210   21.6264 N   0  0  0  0  0  0  0  0  0  0  0  0
  -28.7717  -13.6553   15.9029 N   0  0  0  0  0  0  0  0  0  0  0  0
  -27.4818  -18.2716   21.6139 N   0  3  0  0  0  0  0  0  0  0  0  0
  -28.0452  -15.4636   13.7138 N   0  3  0  0  0  0  0  0  0  0  0  0
  -23.0267  -11.4049   21.8886 O   0  0  0  0  0  0  0  0  0  0  0  0
  -26.9499  -25.7904   17.8863 O   0  0  0  0  0  0  0  0  0  0  0  0
  -27.1557  -23.7492   21.8544 O   0  0  0  0  0  0  0  0  0  0  0  0
  -29.2334  -19.9757   19.8632 O   0  0  0  0  0  0  0  0  0  0  0  0
  -30.9846  -13.5543   16.4944 O   0  0  0  0  0  0  0  0  0  0  0  0
  -21.1678  -18.9538   21.5076 O   0  0  0  0  0  0  0  0  0  0  0  0
  -27.1697  -21.7385   13.6194 O   0  0  0  0  0  0  0  0  0  1  0  0
  -23.2971  -23.5228   23.7424 F   0  0  0  0  0  0  0  0  0  0  0  0
  -23.2652  -20.2825   20.2920 F   0  0  0  0  0  0  0  0  0  0  0  0
  1  2  1  0  0  0  0
  1  5  2  0  0  0  0
  2  6  2  0  0  0  0
  3  9  2  0  0  0  0
  3 18  1  0  0  0  0
  4 10  1  0  0  0  0
  4 18  2  0  0  0  0
  5 20  1  0  0  0  0
  6 22  1  0  0  0  0
  7 11  2  0  0  0  0
  7 21  1  0  0  0  0
  8 14  2  0  0  0  0
  8 24  1  0  0  0  0
  9 25  1  0  0  0  0
 10 25  2  0  0  0  0
 11 26  1  0  0  0  0
 12 13  2  0  0  0  0
 12 27  1  0  0  0  0
 13 28  1  0  0  0  0
 14 31  1  0  0  0  0
 15 23  1  0  0  0  0
 15 26  2  0  0  0  0
 16 28  2  0  0  0  0
 16 29  1  0  0  0  0
 17 24  2  0  0  0  0
 17 61  1  0  0  0  0
 18 30  1  0  0  0  0
 19 30  1  0  0  0  0
 19 32  2  0  0  0  0
 19 33  1  0  0  0  0
 20 22  2  0  0  0  0
 20 38  1  0  0  0  0
 21 23  2  0  0  0  0
 21 39  1  0  0  0  0
 22 47  1  0  0  0  0
 23 40  1  0  0  0  0
 24 55  1  0  0  0  0
 25 78  1  0  0  0  0
 26 79  1  0  0  0  0
 27 29  2  0  0  0  0
 27 78  1  0  0  0  0
 28 80  1  0  0  0  0
 29 81  1  0  0  0  0
 30 62  2  0  0  0  0
 31 61  2  0  0  0  0
 31 79  1  0  0  0  0
 32 63  1  0  0  0  0
 32 66  1  0  0  0  0
 33 67  1  0  0  0  0
 33 73  2  0  0  0  0
 34 48  1  0  0  0  0
 34 68  1  0  0  0  0
 34 74  2  0  0  0  0
 35 58  1  0  0  0  0
 35 64  1  0  0  0  0
 35 75  2  0  0  0  0
 36 59  1  0  0  0  0
 36 69  1  0  0  0  0
 36 76  2  0  0  0  0
 37 65  1  0  0  0  0
 37 70  1  0  0  0  0
 37 77  2  0  0  0  0
 38 41  1  0  0  0  0
 39 48  1  0  0  0  0
 40 64  1  0  0  0  0
 41 43  1  0  0  0  0
 42 44  1  0  0  0  0
 42 45  1  0  0  0  0
 43 47  1  0  0  0  0
 44 49  1  0  0  0  0
 45 65  1  0  0  0  0
 46 49  1  0  0  0  0
 46 65  1  0  0  0  0
 47 68  1  0  0  0  0
 48 64  1  0  0  0  0
 49 63  1  0  0  0  0
 50 59  1  0  0  0  0
 51 60  1  0  0  0  0
 52 60  1  0  0  0  0
 53 60  1  0  0  0  0
 54 71  1  0  0  0  0
 55 72  1  0  0  0  0
 56 57  1  0  0  0  0
 56 70  1  0  0  0  0
 57 72  1  0  0  0  0
 58 60  1  0  0  0  0
 58 69  1  0  0  0  0
 59 71  1  0  0  0  0
 62 63  1  0  0  0  0
M  CHG  2  71   1  72   1
M  ISO  4  31 101  37 100  70 100  79 101
M  END
> <Batch ID>
0111

> <Smiles>
CNC(C)C(=O)NC(C(=O)N1Cc2cc([101O:1][101c:1]3ccc(CNCC[100NH:0][100C:0](=O)N4CCCC(n5nc(-c6ccc(Oc7ccc(F)cc7F)cc6)c(C(N)=O)c5N)C4)cn3)ccc2CC1C(=O)NC1CCCc2ccccc21)C(C)(C)C

> <Shape>
0.197

> <Color>
0.090

> <Negative vol penalty>
0.000

$$$$

  -OEChem-04052320013D

 77 84  0     1  0  0  0  0  0999 V2000
  -16.7668  -29.9796   24.4561 C   0  0  0  0  0  0  0  0  0  0  0  0
  -16.8380  -28.7824   23.7509 C   0  0  0  0  0  0  0  0  0  0  0  0
  -26.5139  -14.6557   22.6440 C   0  0  0  0  0  0  0  0  0  0  0  0
  -25.8670  -14.2683   20.3487 C   0  0  0  0  0  0  0  0  0  0  0  0
  -17.6714  -31.0042   24.1808 C   0  0  0  0  0  0  0  0  0  0  0  0
  -17.8132  -28.6097   22.7693 C   0  0  0  0  0  0  0  0  0  0  0  0
  -21.9535  -23.5492   19.8425 C   0  0  0  0  0  0  0  0  0  0  0  0
  -25.6110  -13.6787   23.0634 C   0  0  0  0  0  0  0  0  0  0  0  0
  -24.9641  -13.2912   20.7681 C   0  0  0  0  0  0  0  0  0  0  0  0
  -22.2924  -23.0221   18.5971 C   0  0  0  0  0  0  0  0  0  0  0  0
  -25.0722  -10.0600   21.7521 C   0  0  0  0  0  0  0  0  0  0  0  0
  -25.0440   -8.8589   21.0436 C   0  0  0  0  0  0  0  0  0  0  0  0
  -23.8518  -24.8318   18.2622 C   0  0  0  0  0  0  0  0  0  0  0  0
  -22.7223   -9.2381   20.4930 C   0  0  0  0  0  0  0  0  0  0  0  0
  -26.6418  -14.9505   21.2866 C   0  0  0  0  0  0  0  0  0  0  0  0
  -28.9250  -15.7756   20.5030 C   0  0  0  0  0  0  0  0  0  0  0  0
  -18.6642  -30.8404   23.2020 C   0  0  0  0  0  0  0  0  0  0  0  0
  -22.5543  -24.7296   20.3032 C   0  0  0  0  0  0  0  0  0  0  0  0
  -18.7310  -29.6336   22.4797 C   0  0  0  0  0  0  0  0  0  0  0  0
  -23.5207  -25.3705   19.5149 C   0  0  0  0  0  0  0  0  0  0  0  0
  -24.8361  -12.9964   22.1254 C   0  0  0  0  0  0  0  0  0  0  0  0
  -23.2395  -23.6650   17.8055 C   0  0  0  0  0  0  0  0  0  0  0  0
  -23.9254  -10.8502   21.8312 C   0  0  0  0  0  0  0  0  0  0  0  0
  -23.8691   -8.4479   20.4140 C   0  0  0  0  0  0  0  0  0  0  0  0
  -22.7505  -10.4393   21.2016 C   0  0  0  0  0  0  0  0  0  0  0  0
  -27.5739  -15.9600   20.8528 C   0  0  0  0  0  0  0  0  0  0  0  0
  -29.3668  -17.0315   20.1656 C   0  0  0  0  0  0  0  0  0  0  0  0
  -29.7103  -14.5762   20.4845 C   0  0  0  0  0  0  0  0  0  0  0  0
  -21.5015  -27.6248   21.0862 C   0  0  0  0  0  0  0  0  0  0  0  0
  -24.5786  -28.0670   22.0125 C   0  0  0  0  0  0  0  0  0  0  0  0
  -27.8548  -27.1615   21.7071 C   0  0  0  0  0  0  0  0  0  0  0  0
  -26.5723  -21.9396   18.1773 C   0  0  0  0  0  0  0  0  0  0  0  0
  -19.5899  -31.9939   22.9067 C   0  0  0  0  0  0  0  0  0  0  0  0
  -22.1974  -25.2707   21.6605 C   0  0  0  0  0  0  0  0  0  0  0  0
  -24.2097  -26.6292   19.9724 C   0  0  0  0  0  0  0  0  0  0  0  0
  -20.8297  -31.5919   22.1120 C   0  0  0  0  0  0  0  0  0  0  0  0
  -28.5785  -21.6561   21.1050 C   0  0  0  0  0  0  0  0  0  0  0  0
  -20.4445  -30.6977   20.9378 C   0  0  0  0  0  0  0  0  0  0  0  0
  -28.6704  -20.1475   21.3408 C   0  0  0  0  0  0  0  0  0  0  0  0
  -27.2072  -22.0610   20.5687 C   0  0  0  0  0  0  0  0  0  0  0  0
  -26.8648  -19.8210   19.5996 C   0  0  0  0  0  0  0  0  0  0  0  0
  -19.7903  -29.3991   21.4247 C   0  0  1  0  0  0  0  0  0  0  0  0
  -22.4958  -26.7596   21.8075 C   0  0  1  0  0  0  0  0  0  0  0  0
  -28.2480  -19.3573   20.0876 C   0  0  2  0  0  0  0  0  0  0  0  0
  -30.3131  -27.1112   22.2086 C   0  0  0  0  0  0  0  0  0  0  0  0
  -27.0166  -19.7165   14.4584 C   0  0  0  0  0  0  0  0  0  0  0  0
  -28.3882  -21.7227   15.0732 C   0  0  0  0  0  0  0  0  0  0  0  0
  -24.6203  -30.5567   20.2492 C   0  0  0  0  0  0  0  0  0  0  0  0
  -27.1199  -30.5278   20.3874 C   0  0  0  0  0  0  0  0  0  0  0  0
  -25.7613  -30.8239   22.4585 C   0  0  0  0  0  0  0  0  0  0  0  0
  -27.5155  -25.0330   23.7353 C   0  0  0  0  0  0  0  0  0  0  0  0
  -24.5083  -21.2905   15.3974 C   0  0  0  0  0  0  0  0  0  0  0  0
  -23.4804  -21.7374   16.4335 C   0  0  0  0  0  0  0  0  0  1  0  0
  -25.8376  -28.5580   21.3396 C   0  0  1  0  0  0  0  0  0  0  0  0
  -28.9153  -26.8509   22.7480 C   0  0  2  0  0  0  0  0  0  0  0  0
  -26.9816  -21.2253   14.7199 C   0  0  0  0  0  0  0  0  0  0  0  0
  -25.9476  -21.6552   15.7923 C   0  0  2  0  0  0  0  0  0  0  0  0
  -25.8206  -30.0940   21.0989 C   0  0  0  0  0  0  0  0  0  0  0  0
  -27.1832  -17.2329   20.7476 N   0  0  0  0  0  0  0  0  0  0  0  0
  -28.2954  -17.8597   20.3278 N   0  0  0  0  0  0  0  0  0  0  0  0
  -23.8221  -27.1226   21.3042 N   0  0  0  0  0  0  0  0  0  0  0  0
  -26.8672  -21.2758   19.3796 N   0  0  0  0  0  0  0  0  0  0  0  0
  -30.5635  -17.4973   19.7489 N   0  0  0  0  0  0  0  0  0  0  0  0
  -29.0998  -13.3720   20.8606 N   0  0  0  0  0  0  0  0  0  0  0  0
  -20.7953  -28.4787   21.9118 N   0  0  0  0  0  0  0  0  0  0  0  0
  -26.9484  -28.0947   22.1641 N   0  0  0  0  0  0  0  0  0  0  0  0
  -26.2666  -21.1204   17.0973 N   0  0  0  0  0  0  0  0  0  0  0  0
  -28.8303  -25.4223   23.1637 N   0  3  0  0  0  0  0  0  0  0  0  0
  -30.9221  -14.5751   20.1604 O   0  0  0  0  0  0  0  0  0  0  0  0
  -21.3847  -27.5261   19.8703 O   0  0  0  0  0  0  0  0  0  0  0  0
  -24.2812  -28.4999   23.1286 O   0  0  0  0  0  0  0  0  0  0  0  0
  -27.8348  -26.6322   20.5981 O   0  0  0  0  0  0  0  0  0  0  0  0
  -26.5860  -23.1707   18.0726 O   0  0  0  0  0  0  0  0  0  0  0  0
  -23.9552  -12.0429   22.5343 O   0  0  0  0  0  0  0  0  0  0  0  0
  -23.5716  -23.1530   16.5891 O   0  0  0  0  0  0  0  0  0  1  0  0
  -23.8426   -7.2952   19.7324 F   0  0  0  0  0  0  0  0  0  0  0  0
  -21.6460  -11.1947   21.2730 F   0  0  0  0  0  0  0  0  0  0  0  0
  1  2  1  0  0  0  0
  1  5  2  0  0  0  0
  2  6  2  0  0  0  0
  3  8  2  0  0  0  0
  3 15  1  0  0  0  0
  4  9  1  0  0  0  0
  4 15  2  0  0  0  0
  5 17  1  0  0  0  0
  6 19  1  0  0  0  0
  7 10  2  0  0  0  0
  7 18  1  0  0  0  0
  8 21  1  0  0  0  0
  9 21  2  0  0  0  0
 10 22  1  0  0  0  0
 11 12  2  0  0  0  0
 11 23  1  0  0  0  0
 12 24  1  0  0  0  0
 13 20  1  0  0  0  0
 13 22  2  0  0  0  0
 14 24  2  0  0  0  0
 14 25  1  0  0  0  0
 15 26  1  0  0  0  0
 16 26  1  0  0  0  0
 16 27  2  0  0  0  0
 16 28  1  0  0  0  0
 17 19  2  0  0  0  0
 17 33  1  0  0  0  0
 18 20  2  0  0  0  0
 18 34  1  0  0  0  0
 19 42  1  0  0  0  0
 20 35  1  0  0  0  0
 21 74  1  0  0  0  0
 22 75  1  0  0  0  0
 23 25  2  0  0  0  0
 23 74  1  0  0  0  0
 24 76  1  0  0  0  0
 25 77  1  0  0  0  0
 26 59  2  0  0  0  0
 27 60  1  0  0  0  0
 27 63  1  0  0  0  0
 28 64  1  0  0  0  0
 28 69  2  0  0  0  0
 29 43  1  0  0  0  0
 29 65  1  0  0  0  0
 29 70  2  0  0  0  0
 30 54  1  0  0  0  0
 30 61  1  0  0  0  0
 30 71  2  0  0  0  0
 31 55  1  0  0  0  0
 31 66  1  0  0  0  0
 31 72  2  0  0  0  0
 32 62  1  0  0  0  0
 32 67  1  0  0  0  0
 32 73  2  0  0  0  0
 33 36  1  0  0  0  0
 34 43  1  0  0  0  0
 35 61  1  0  0  0  0
 36 38  1  0  0  0  0
 37 39  1  0  0  0  0
 37 40  1  0  0  0  0
 38 42  1  0  0  0  0
 39 44  1  0  0  0  0
 40 62  1  0  0  0  0
 41 44  1  0  0  0  0
 41 62  1  0  0  0  0
 42 65  1  0  0  0  0
 43 61  1  0  0  0  0
 44 60  1  0  0  0  0
 45 55  1  0  0  0  0
 46 56  1  0  0  0  0
 47 56  1  0  0  0  0
 48 58  1  0  0  0  0
 49 58  1  0  0  0  0
 50 58  1  0  0  0  0
 51 68  1  0  0  0  0
 52 53  1  0  0  0  0
 52 57  1  0  0  0  0
 53 75  1  0  0  0  0
 54 58  1  0  0  0  0
 54 66  1  0  0  0  0
 55 68  1  0  0  0  0
 56 57  1  0  0  0  0
 57 67  1  0  0  0  0
 59 60  1  0  0  0  0
M  CHG  1  68   1
M  ISO  4  32 100  53 101  67 100  75 101
M  END
> <Batch ID>
0111

> <Smiles>
CNC(C)C(=O)NC(C(=O)N1Cc2cc([101O:1][101CH2:1]CC([100NH:0][100C:0](=O)N3CCCC(n4nc(-c5ccc(Oc6ccc(F)cc6F)cc5)c(C(N)=O)c4N)C3)C(C)C)ccc2CC1C(=O)NC1CCCc2ccccc21)C(C)(C)C

> <Shape>
0.221

> <Color>
0.078

> <Negative vol penalty>
0.000

$$$$

  -OEChem-04052320013D

 83 91  0     1  0  0  0  0  0999 V2000
  -40.3485  -23.2539   31.3462 C   0  0  0  0  0  0  0  0  0  0  0  0
  -39.1756  -23.2228   30.5986 C   0  0  0  0  0  0  0  0  0  0  0  0
  -23.1621   -9.8500   19.9143 C   0  0  0  0  0  0  0  0  0  0  0  0
  -23.8330   -9.8996   22.2348 C   0  0  0  0  0  0  0  0  0  0  0  0
  -41.5842  -23.2850   30.7014 C   0  0  0  0  0  0  0  0  0  0  0  0
  -39.2379  -23.2239   29.2056 C   0  0  0  0  0  0  0  0  0  0  0  0
  -35.4472  -20.3496   25.3488 C   0  0  0  0  0  0  0  0  0  0  0  0
  -22.4345   -8.6834   20.1496 C   0  0  0  0  0  0  0  0  0  0  0  0
  -23.1054   -8.7331   22.4701 C   0  0  0  0  0  0  0  0  0  0  0  0
  -34.3479  -20.7889   24.6124 C   0  0  0  0  0  0  0  0  0  0  0  0
  -19.8746   -7.8703   22.9585 C   0  0  0  0  0  0  0  0  0  0  0  0
  -19.0743   -7.8267   24.1001 C   0  0  0  0  0  0  0  0  0  0  0  0
  -35.7703  -21.1065   22.6901 C   0  0  0  0  0  0  0  0  0  0  0  0
  -20.3285   -5.9258   24.9067 C   0  0  0  0  0  0  0  0  0  0  0  0
  -33.5746  -18.6307   18.7971 C   0  0  0  0  0  0  0  0  0  0  0  0
  -23.8614  -10.4581   20.9569 C   0  0  0  0  0  0  0  0  0  0  0  0
  -24.1524  -12.9887   20.8195 C   0  0  0  0  0  0  0  0  0  0  0  0
  -41.6619  -23.2768   29.2998 C   0  0  0  0  0  0  0  0  0  0  0  0
  -36.7204  -20.2957   24.7636 C   0  0  0  0  0  0  0  0  0  0  0  0
  -40.4758  -23.2563   28.5414 C   0  0  0  0  0  0  0  0  0  0  0  0
  -36.8836  -20.6637   23.4205 C   0  0  0  0  0  0  0  0  0  0  0  0
  -22.4061   -8.1250   21.4275 C   0  0  0  0  0  0  0  0  0  0  0  0
  -34.5099  -21.1702   23.2836 C   0  0  0  0  0  0  0  0  0  0  0  0
  -20.9019   -6.9417   22.7910 C   0  0  0  0  0  0  0  0  0  0  0  0
  -19.3013   -6.8545   25.0742 C   0  0  0  0  0  0  0  0  0  0  0  0
  -21.1288   -5.9694   23.7651 C   0  0  0  0  0  0  0  0  0  0  0  0
  -24.6136  -11.6628   20.7143 C   0  0  0  0  0  0  0  0  0  0  0  0
  -32.8158  -18.2057   19.8509 C   0  0  0  0  0  0  0  0  0  0  0  0
  -25.2410  -13.7582   20.4892 C   0  0  0  0  0  0  0  0  0  0  0  0
  -34.3093  -16.6334   19.4065 C   0  0  0  0  0  0  0  0  0  0  0  0
  -22.8558  -13.4807   21.1834 C   0  0  0  0  0  0  0  0  0  0  0  0
  -39.5096  -21.7125   25.3264 C   0  0  0  0  0  0  0  0  0  0  0  0
  -40.5603  -19.6896   23.0185 C   0  0  0  0  0  0  0  0  0  0  0  0
  -39.8243  -17.7659   20.2974 C   0  0  0  0  0  0  0  0  0  0  0  0
  -30.6067  -14.8479   21.1741 C   0  0  0  0  0  0  0  0  0  0  0  0
  -43.0192  -23.3590   28.6474 C   0  0  0  0  0  0  0  0  0  0  0  0
  -37.8912  -19.7940   25.5637 C   0  0  0  0  0  0  0  0  0  0  0  0
  -38.2258  -20.6049   22.7396 C   0  0  0  0  0  0  0  0  0  0  0  0
  -43.0084  -22.9794   27.1689 C   0  0  0  0  0  0  0  0  0  0  0  0
  -29.6811  -12.5091   18.4615 C   0  0  0  0  0  0  0  0  0  0  0  0
  -41.8536  -23.6688   26.4492 C   0  0  0  0  0  0  0  0  0  0  0  0
  -28.2541  -12.1479   18.8617 C   0  0  0  0  0  0  0  0  0  0  0  0
  -30.5715  -12.7651   19.6766 C   0  0  0  0  0  0  0  0  0  0  0  0
  -28.5880  -13.4257   21.0123 C   0  0  0  0  0  0  0  0  0  0  0  0
  -40.5028  -23.2314   27.0285 C   0  0  1  0  0  0  0  0  0  0  0  0
  -39.2347  -20.2678   25.0180 C   0  0  1  0  0  0  0  0  0  0  0  0
  -27.6694  -13.2146   19.7994 C   0  0  2  0  0  0  0  0  0  0  0  0
  -35.1050  -15.3814   19.4503 C   0  0  0  0  0  0  0  0  0  0  0  0
  -33.4607  -22.9589   20.0140 C   0  0  0  0  0  0  0  0  0  0  0  0
  -40.1960  -16.1190   18.4409 C   0  0  0  0  0  0  0  0  0  0  0  0
  -41.6879  -22.1273   21.5705 C   0  0  0  0  0  0  0  0  0  0  0  0
  -41.8824  -20.7242   19.5061 C   0  0  0  0  0  0  0  0  0  0  0  0
  -43.1788  -20.1195   21.5498 C   0  0  0  0  0  0  0  0  0  0  0  0
  -39.1260  -15.4738   22.0346 C   0  0  0  0  0  0  0  0  0  0  0  0
  -31.6654  -18.8748   20.5598 C   0  0  0  0  0  0  0  0  0  0  0  0
  -32.5082  -21.8211   20.3587 C   0  0  0  0  0  0  0  0  0  0  0  0
  -32.0933  -19.7534   21.7443 C   0  0  0  0  0  0  0  0  0  0  0  0
  -32.7585  -16.1114   21.3238 C   0  0  0  0  0  0  0  0  0  0  0  0
  -40.6777  -19.7519   21.5147 C   0  0  1  0  0  0  0  0  0  0  0  0
  -40.1913  -16.3354   19.9462 C   0  0  2  0  0  0  0  0  0  0  0  0
  -33.1033  -20.8566   21.3918 C   0  0  2  0  0  0  0  0  0  1  0  0
  -41.8316  -20.6838   21.0484 C   0  0  0  0  0  0  0  0  0  0  0  0
  -25.8954  -11.5905   20.3458 N   0  0  0  0  0  0  0  0  0  0  0  0
  -33.2920  -16.9670   20.2073 N   0  0  0  0  0  0  0  0  0  0  0  0
  -26.2488  -12.8806   20.2165 N   0  0  0  0  0  0  0  0  0  0  0  0
  -34.4908  -17.6384   18.5438 N   0  3  0  0  0  0  0  0  0  0  0  0
  -39.3410  -20.1136   23.5657 N   0  0  0  0  0  0  0  0  0  0  0  0
  -29.9638  -13.7336   20.6029 N   0  0  0  0  0  0  0  0  0  0  0  0
  -25.4250  -15.0931   20.4081 N   0  0  0  0  0  0  0  0  0  0  0  0
  -21.8517  -12.5531   21.4927 N   0  0  0  0  0  0  0  0  0  0  0  0
  -40.1433  -21.9186   26.5370 N   0  0  0  0  0  0  0  0  0  0  0  0
  -40.8020  -18.3721   21.0575 N   0  0  0  0  0  0  0  0  0  0  0  0
  -31.9402  -15.0197   20.8198 N   0  0  0  0  0  0  0  0  0  0  0  0
  -39.2165  -15.3862   20.5544 N   0  3  0  0  0  0  0  0  0  0  0  0
  -22.5907  -14.7064   21.2168 O   0  0  0  0  0  0  0  0  0  0  0  0
  -39.1731  -22.5761   24.5248 O   0  0  0  0  0  0  0  0  0  0  0  0
  -41.5128  -19.2733   23.6826 O   0  0  0  0  0  0  0  0  0  0  0  0
  -38.7768  -18.2940   19.9309 O   0  0  0  0  0  0  0  0  0  0  0  0
  -30.0353  -15.6239   21.9474 O   0  0  0  0  0  0  0  0  0  0  0  0
  -21.6961   -6.9868   21.6575 O   0  0  0  0  0  0  0  0  0  0  0  0
  -33.4387  -21.6001   22.5627 O   0  0  0  0  0  0  0  0  0  1  0  0
  -18.5336   -6.8136   26.1711 F   0  0  0  0  0  0  0  0  0  0  0  0
  -22.1149   -5.0753   23.6103 F   0  0  0  0  0  0  0  0  0  0  0  0
  1  2  1  0  0  0  0
  1  5  2  0  0  0  0
  2  6  2  0  0  0  0
  3  8  2  0  0  0  0
  3 16  1  0  0  0  0
  4  9  1  0  0  0  0
  4 16  2  0  0  0  0
  5 18  1  0  0  0  0
  6 20  1  0  0  0  0
  7 10  2  0  0  0  0
  7 19  1  0  0  0  0
  8 22  1  0  0  0  0
  9 22  2  0  0  0  0
 10 23  1  0  0  0  0
 11 12  2  0  0  0  0
 11 24  1  0  0  0  0
 12 25  1  0  0  0  0
 13 21  1  0  0  0  0
 13 23  2  0  0  0  0
 14 25  2  0  0  0  0
 14 26  1  0  0  0  0
 15 28  2  0  0  0  0
 15 66  1  0  0  0  0
 16 27  1  0  0  0  0
 17 27  1  0  0  0  0
 17 29  2  0  0  0  0
 17 31  1  0  0  0  0
 18 20  2  0  0  0  0
 18 36  1  0  0  0  0
 19 21  2  0  0  0  0
 19 37  1  0  0  0  0
 20 45  1  0  0  0  0
 21 38  1  0  0  0  0
 22 80  1  0  0  0  0
 23 81  1  0  0  0  0
 24 26  2  0  0  0  0
 24 80  1  0  0  0  0
 25 82  1  0  0  0  0
 26 83  1  0  0  0  0
 27 63  2  0  0  0  0
 28 55  1  0  0  0  0
 28 64  1  0  0  0  0
 29 65  1  0  0  0  0
 29 69  1  0  0  0  0
 30 48  1  0  0  0  0
 30 64  1  0  0  0  0
 30 66  2  0  0  0  0
 31 70  1  0  0  0  0
 31 75  2  0  0  0  0
 32 46  1  0  0  0  0
 32 71  1  0  0  0  0
 32 76  2  0  0  0  0
 33 59  1  0  0  0  0
 33 67  1  0  0  0  0
 33 77  2  0  0  0  0
 34 60  1  0  0  0  0
 34 72  1  0  0  0  0
 34 78  2  0  0  0  0
 35 68  1  0  0  0  0
 35 73  1  0  0  0  0
 35 79  2  0  0  0  0
 36 39  1  0  0  0  0
 37 46  1  0  0  0  0
 38 67  1  0  0  0  0
 39 41  1  0  0  0  0
 40 42  1  0  0  0  0
 40 43  1  0  0  0  0
 41 45  1  0  0  0  0
 42 47  1  0  0  0  0
 43 68  1  0  0  0  0
 44 47  1  0  0  0  0
 44 68  1  0  0  0  0
 45 71  1  0  0  0  0
 46 67  1  0  0  0  0
 47 65  1  0  0  0  0
 49 56  1  0  0  0  0
 50 60  1  0  0  0  0
 51 62  1  0  0  0  0
 52 62  1  0  0  0  0
 53 62  1  0  0  0  0
 54 74  1  0  0  0  0
 55 57  1  0  0  0  0
 56 61  1  0  0  0  0
 57 61  1  0  0  0  0
 58 64  1  0  0  0  0
 58 73  1  0  0  0  0
 59 62  1  0  0  0  0
 59 72  1  0  0  0  0
 60 74  1  0  0  0  0
 61 81  1  0  0  0  0
 63 65  1  0  0  0  0
M  CHG  2  66   1  74   1
M  ISO  4  35 100  61 101  73 100  81 101
M  END
> <Batch ID>
0111

> <Smiles>
CC[101CH:1](CCc1cnc(C)n1C[100NH:0][100C:0](=O)N1CCCC(n2nc(-c3ccc(Oc4ccc(F)cc4F)cc3)c(C(N)=O)c2N)C1)[101O:1]c1ccc2c(c1)CN(C(=O)C(NC(=O)C(C)NC)C(C)(C)C)C(C(=O)NC1CCCc3ccccc31)C2

> <Shape>
0.155

> <Color>
0.167

> <Negative vol penalty>
0.000

$$$$

  -OEChem-04052320013D

 84 92  0     1  0  0  0  0  0999 V2000
  -25.7034  -15.7841   14.0981 C   0  0  0  0  0  0  0  0  0  0  0  0
  -25.6355  -16.0151   15.4683 C   0  0  0  0  0  0  0  0  0  0  0  0
  -24.0304  -15.8858   22.5108 C   0  0  0  0  0  0  0  0  0  0  0  0
  -23.3578  -15.8866   20.1903 C   0  0  0  0  0  0  0  0  0  0  0  0
  -26.6075  -16.5009   13.3154 C   0  0  0  0  0  0  0  0  0  0  0  0
  -26.4725  -16.9625   16.0568 C   0  0  0  0  0  0  0  0  0  0  0  0
  -25.1437  -20.6155   20.7892 C   0  0  0  0  0  0  0  0  0  0  0  0
  -23.3099  -17.0616   22.7201 C   0  0  0  0  0  0  0  0  0  0  0  0
  -22.6372  -17.0625   20.3996 C   0  0  0  0  0  0  0  0  0  0  0  0
  -25.4298  -20.5280   22.1509 C   0  0  0  0  0  0  0  0  0  0  0  0
  -19.6602  -17.9548   21.7268 C   0  0  0  0  0  0  0  0  0  0  0  0
  -18.3749  -18.0298   21.1902 C   0  0  0  0  0  0  0  0  0  0  0  0
  -27.3550  -21.9460   21.8313 C   0  0  0  0  0  0  0  0  0  0  0  0
  -31.4694  -15.7254   21.2940 C   0  0  0  0  0  0  0  0  0  0  0  0
  -30.3827  -15.6379   23.4378 C   0  0  0  0  0  0  0  0  0  0  0  0
  -19.0375  -19.9419   19.8703 C   0  0  0  0  0  0  0  0  0  0  0  0
  -24.0544  -15.2983   21.2458 C   0  0  0  0  0  0  0  0  0  0  0  0
  -24.3298  -12.7635   21.1642 C   0  0  0  0  0  0  0  0  0  0  0  0
  -27.4493  -17.4644   13.8931 C   0  0  0  0  0  0  0  0  0  0  0  0
  -25.9687  -21.3613   19.9350 C   0  0  0  0  0  0  0  0  0  0  0  0
  -27.3897  -17.6920   15.2813 C   0  0  0  0  0  0  0  0  0  0  0  0
  -27.0757  -22.0435   20.4596 C   0  0  0  0  0  0  0  0  0  0  0  0
  -30.9997  -14.9876   22.3749 C   0  0  0  0  0  0  0  0  0  0  0  0
  -22.6133  -17.6500   21.6645 C   0  0  0  0  0  0  0  0  0  0  0  0
  -26.5372  -21.1910   22.6717 C   0  0  0  0  0  0  0  0  0  0  0  0
  -20.6342  -18.8735   21.3353 C   0  0  0  0  0  0  0  0  0  0  0  0
  -18.0636  -19.0232   20.2619 C   0  0  0  0  0  0  0  0  0  0  0  0
  -20.3228  -19.8669   20.4070 C   0  0  0  0  0  0  0  0  0  0  0  0
  -24.7989  -14.0839   21.0289 C   0  0  0  0  0  0  0  0  0  0  0  0
  -31.2991  -17.1001   21.3241 C   0  0  0  0  0  0  0  0  0  0  0  0
  -30.2612  -17.0165   23.3720 C   0  0  0  0  0  0  0  0  0  0  0  0
  -25.4132  -11.9803   20.8490 C   0  0  0  0  0  0  0  0  0  0  0  0
  -23.0309  -12.2875   21.5409 C   0  0  0  0  0  0  0  0  0  0  0  0
  -27.7802  -20.6853   17.4121 C   0  0  0  0  0  0  0  0  0  0  0  0
  -28.1341  -23.9075   17.2921 C   0  0  0  0  0  0  0  0  0  0  0  0
  -28.0649  -26.8933   18.9435 C   0  0  0  0  0  0  0  0  0  0  0  0
  -31.1683  -12.8017   21.1981 C   0  0  0  0  0  0  0  0  0  0  0  0
  -28.4435  -18.1807   13.0138 C   0  0  0  0  0  0  0  0  0  0  0  0
  -25.6312  -21.4675   18.4731 C   0  0  0  0  0  0  0  0  0  0  0  0
  -27.9813  -22.8738   19.5885 C   0  0  0  0  0  0  0  0  0  0  0  0
  -29.0330  -19.4337   13.6563 C   0  0  0  0  0  0  0  0  0  0  0  0
  -29.4038  -11.9763   18.2235 C   0  0  0  0  0  0  0  0  0  0  0  0
  -29.4621  -19.1462   15.0916 C   0  0  0  0  0  0  0  0  0  0  0  0
  -27.9661  -12.3086   18.6214 C   0  0  0  0  0  0  0  0  0  0  0  0
  -30.4009  -12.9946   18.7772 C   0  0  0  0  0  0  0  0  0  0  0  0
  -28.8617  -13.5327   20.6389 C   0  0  0  0  0  0  0  0  0  0  0  0
  -28.2637  -18.7290   15.9526 C   0  0  1  0  0  0  0  0  0  0  0  0
  -26.8326  -21.8349   17.6077 C   0  0  1  0  0  0  0  0  0  0  0  0
  -27.8433  -12.4938   20.1441 C   0  0  1  0  0  0  0  0  0  0  0  0
  -31.7914  -17.9235   20.1812 C   0  0  0  0  0  0  0  0  0  0  0  0
  -28.4345  -29.3498   18.5885 C   0  0  0  0  0  0  0  0  0  0  0  0
  -25.4177  -20.2376   25.7588 C   0  0  0  0  0  0  0  0  0  0  0  0
  -31.1509  -23.4506   17.2882 C   0  0  0  0  0  0  0  0  0  0  0  0
  -31.4469  -25.8633   17.8878 C   0  0  0  0  0  0  0  0  0  0  0  0
  -30.3649  -25.2403   15.7282 C   0  0  0  0  0  0  0  0  0  0  0  0
  -31.5353  -12.9053   23.6536 C   0  0  0  0  0  0  0  0  0  0  0  0
  -25.2738  -27.5387   19.6867 C   0  0  0  0  0  0  0  0  0  0  0  0
  -29.6010  -17.7516   24.5011 C   0  0  0  0  0  0  0  0  0  0  0  0
  -27.6840  -19.2011   25.1812 C   0  0  0  0  0  0  0  0  0  0  0  0
  -29.1011  -24.8999   17.8913 C   0  0  1  0  0  0  0  0  0  0  0  0
  -27.4155  -28.2210   18.5974 C   0  0  2  0  0  0  0  0  0  0  0  0
  -26.4323  -19.9083   24.6716 C   0  0  2  0  0  0  0  0  0  1  0  0
  -30.5002  -24.8464   17.2152 C   0  0  0  0  0  0  0  0  0  0  0  0
  -26.0805  -14.1403   20.6569 N   0  0  0  0  0  0  0  0  0  0  0  0
  -30.7050  -17.7671   22.3389 N   0  0  0  0  0  0  0  0  0  0  0  0
  -26.4260  -12.8455   20.5558 N   0  0  0  0  0  0  0  0  0  0  0  0
  -27.6131  -22.9416   18.1646 N   0  0  0  0  0  0  0  0  0  0  0  0
  -30.2189  -13.1678   20.2253 N   0  0  0  0  0  0  0  0  0  0  0  0
  -25.5888  -10.6428   20.7968 N   0  0  0  0  0  0  0  0  0  0  0  0
  -22.0331  -13.2278   21.8313 N   0  0  0  0  0  0  0  0  0  0  0  0
  -27.4805  -19.8879   16.3241 N   0  0  0  0  0  0  0  0  0  0  0  0
  -28.4494  -26.2028   17.8136 N   0  0  0  0  0  0  0  0  0  0  0  0
  -31.1526  -13.5518   22.3937 N   0  0  0  0  0  0  0  0  0  0  0  0
  -26.3548  -28.5532   19.5901 N   0  3  0  0  0  0  0  0  0  0  0  0
  -28.3946  -18.5118   24.0755 N   0  3  0  0  0  0  0  0  0  0  0  0
  -22.7677  -11.0645   21.6338 O   0  0  0  0  0  0  0  0  0  0  0  0
  -28.7151  -20.5339   18.1898 O   0  0  0  0  0  0  0  0  0  0  0  0
  -27.8460  -23.9909   16.0955 O   0  0  0  0  0  0  0  0  0  0  0  0
  -28.2193  -26.5089   20.1006 O   0  0  0  0  0  0  0  0  0  0  0  0
  -31.9518  -11.8608   21.0230 O   0  0  0  0  0  0  0  0  0  0  0  0
  -21.9100  -18.7973   21.8684 O   0  0  0  0  0  0  0  0  0  0  0  0
  -26.8191  -21.1067   24.0003 O   0  0  0  0  0  0  0  0  0  1  0  0
  -16.8297  -19.0941   19.7455 F   0  0  0  0  0  0  0  0  0  0  0  0
  -21.2546  -20.7515   20.0261 F   0  0  0  0  0  0  0  0  0  0  0  0
  1  2  1  0  0  0  0
  1  5  2  0  0  0  0
  2  6  2  0  0  0  0
  3  8  2  0  0  0  0
  3 17  1  0  0  0  0
  4  9  1  0  0  0  0
  4 17  2  0  0  0  0
  5 19  1  0  0  0  0
  6 21  1  0  0  0  0
  7 10  2  0  0  0  0
  7 20  1  0  0  0  0
  8 24  1  0  0  0  0
  9 24  2  0  0  0  0
 10 25  1  0  0  0  0
 11 12  2  0  0  0  0
 11 26  1  0  0  0  0
 12 27  1  0  0  0  0
 13 22  1  0  0  0  0
 13 25  2  0  0  0  0
 14 23  1  0  0  0  0
 14 30  2  0  0  0  0
 15 23  2  0  0  0  0
 15 31  1  0  0  0  0
 16 27  2  0  0  0  0
 16 28  1  0  0  0  0
 17 29  1  0  0  0  0
 18 29  1  0  0  0  0
 18 32  2  0  0  0  0
 18 33  1  0  0  0  0
 19 21  2  0  0  0  0
 19 38  1  0  0  0  0
 20 22  2  0  0  0  0
 20 39  1  0  0  0  0
 21 47  1  0  0  0  0
 22 40  1  0  0  0  0
 23 73  1  0  0  0  0
 24 81  1  0  0  0  0
 25 82  1  0  0  0  0
 26 28  2  0  0  0  0
 26 81  1  0  0  0  0
 27 83  1  0  0  0  0
 28 84  1  0  0  0  0
 29 64  2  0  0  0  0
 30 50  1  0  0  0  0
 30 65  1  0  0  0  0
 31 58  1  0  0  0  0
 31 65  2  0  0  0  0
 32 66  1  0  0  0  0
 32 69  1  0  0  0  0
 33 70  1  0  0  0  0
 33 76  2  0  0  0  0
 34 48  1  0  0  0  0
 34 71  1  0  0  0  0
 34 77  2  0  0  0  0
 35 60  1  0  0  0  0
 35 67  1  0  0  0  0
 35 78  2  0  0  0  0
 36 61  1  0  0  0  0
 36 72  1  0  0  0  0
 36 79  2  0  0  0  0
 37 68  1  0  0  0  0
 37 73  1  0  0  0  0
 37 80  2  0  0  0  0
 38 41  1  0  0  0  0
 39 48  1  0  0  0  0
 40 67  1  0  0  0  0
 41 43  1  0  0  0  0
 42 44  1  0  0  0  0
 42 45  1  0  0  0  0
 43 47  1  0  0  0  0
 44 49  1  0  0  0  0
 45 68  1  0  0  0  0
 46 49  1  0  0  0  0
 46 68  1  0  0  0  0
 47 71  1  0  0  0  0
 48 67  1  0  0  0  0
 49 66  1  0  0  0  0
 51 61  1  0  0  0  0
 52 62  1  0  0  0  0
 53 63  1  0  0  0  0
 54 63  1  0  0  0  0
 55 63  1  0  0  0  0
 56 73  1  0  0  0  0
 57 74  1  0  0  0  0
 58 75  1  0  0  0  0
 59 62  1  0  0  0  0
 59 75  1  0  0  0  0
 60 63  1  0  0  0  0
 60 72  1  0  0  0  0
 61 74  1  0  0  0  0
 62 82  1  0  0  0  0
 64 66  1  0  0  0  0
M  CHG  2  74   1  75   1
M  ISO  4  37 100  62 101  73 100  82 101
M  END
> <Batch ID>
0111

> <Smiles>
CNC(C)C(=O)NC(C(=O)N1Cc2cc([101O:1][101CH:1](C)CNCc3cc([100N:0](C)[100C:0](=O)N4CCCC(n5nc(-c6ccc(Oc7ccc(F)cc7F)cc6)c(C(N)=O)c5N)C4)cc(C)n3)ccc2CC1C(=O)NC1CCCc2ccccc21)C(C)(C)C

> <Shape>
0.180

> <Color>
0.076

> <Negative vol penalty>
0.000

$$$$

  -OEChem-04052320013D

 79 87  0     1  0  0  0  0  0999 V2000
  -23.9791  -10.6342   20.6527 C   0  0  0  0  0  0  0  0  0  0  0  0
  -25.3224  -10.9952   20.6240 C   0  0  0  0  0  0  0  0  0  0  0  0
  -22.2672  -28.1572   20.9575 C   0  0  0  0  0  0  0  0  0  0  0  0
  -23.5189  -27.5631   22.9368 C   0  0  0  0  0  0  0  0  0  0  0  0
  -23.0022  -11.5580   20.2837 C   0  0  0  0  0  0  0  0  0  0  0  0
  -25.6895  -12.2800   20.2252 C   0  0  0  0  0  0  0  0  0  0  0  0
  -29.9178  -17.6671   23.9838 C   0  0  0  0  0  0  0  0  0  0  0  0
  -21.0746  -27.9865   21.6604 C   0  0  0  0  0  0  0  0  0  0  0  0
  -22.3262  -27.3924   23.6397 C   0  0  0  0  0  0  0  0  0  0  0  0
  -30.5179  -18.7573   24.6143 C   0  0  0  0  0  0  0  0  0  0  0  0
  -19.2299  -29.7272   23.8964 C   0  0  0  0  0  0  0  0  0  0  0  0
  -18.2447  -30.7034   23.7483 C   0  0  0  0  0  0  0  0  0  0  0  0
  -31.6293  -22.4010   20.5304 C   0  0  0  0  0  0  0  0  0  0  0  0
  -29.2238  -20.2744   23.2462 C   0  0  0  0  0  0  0  0  0  0  0  0
  -16.7228  -29.0367   22.8863 C   0  0  0  0  0  0  0  0  0  0  0  0
  -32.4337  -22.0500   21.5920 C   0  0  0  0  0  0  0  0  0  0  0  0
  -30.8381  -23.4079   22.3825 C   0  0  0  0  0  0  0  0  0  0  0  0
  -23.4894  -27.9455   21.5957 C   0  0  0  0  0  0  0  0  0  0  0  0
  -25.4755  -29.3039   20.7485 C   0  0  0  0  0  0  0  0  0  0  0  0
  -23.3569  -12.8577   19.8894 C   0  0  0  0  0  0  0  0  0  0  0  0
  -28.9560  -17.8767   22.9917 C   0  0  0  0  0  0  0  0  0  0  0  0
  -24.7164  -13.2216   19.8493 C   0  0  0  0  0  0  0  0  0  0  0  0
  -28.6102  -19.1863   22.6199 C   0  0  0  0  0  0  0  0  0  0  0  0
  -30.6198  -23.2599   21.0305 C   0  0  0  0  0  0  0  0  0  0  0  0
  -21.1041  -27.6041   23.0015 C   0  0  0  0  0  0  0  0  0  0  0  0
  -30.1719  -20.0577   24.2462 C   0  0  0  0  0  0  0  0  0  0  0  0
  -18.9616  -28.4057   23.5394 C   0  0  0  0  0  0  0  0  0  0  0  0
  -16.9911  -30.3582   23.2433 C   0  0  0  0  0  0  0  0  0  0  0  0
  -17.7080  -28.0605   23.0344 C   0  0  0  0  0  0  0  0  0  0  0  0
  -24.7217  -28.1212   20.8700 C   0  0  0  0  0  0  0  0  0  0  0  0
  -26.5469  -28.9493   19.9656 C   0  0  0  0  0  0  0  0  0  0  0  0
  -25.2294  -30.6065   21.2947 C   0  0  0  0  0  0  0  0  0  0  0  0
  -26.5597  -16.3480   20.5429 C   0  0  0  0  0  0  0  0  0  0  0  0
  -25.1398  -18.7652   21.7884 C   0  0  0  0  0  0  0  0  0  0  0  0
  -23.7813  -21.2422   23.7005 C   0  0  0  0  0  0  0  0  0  0  0  0
  -29.3080  -23.7510   18.9366 C   0  0  0  0  0  0  0  0  0  0  0  0
  -22.2685  -13.8067   19.4541 C   0  0  0  0  0  0  0  0  0  0  0  0
  -28.3286  -16.7324   22.2428 C   0  0  0  0  0  0  0  0  0  0  0  0
  -27.5958  -19.3639   21.5234 C   0  0  0  0  0  0  0  0  0  0  0  0
  -22.7166  -15.2651   19.4029 C   0  0  0  0  0  0  0  0  0  0  0  0
  -27.8077  -25.8820   16.5107 C   0  0  0  0  0  0  0  0  0  0  0  0
  -24.0620  -15.3857   18.6942 C   0  0  0  0  0  0  0  0  0  0  0  0
  -26.9194  -26.8097   17.3428 C   0  0  0  0  0  0  0  0  0  0  0  0
  -27.8270  -24.4614   17.0719 C   0  0  0  0  0  0  0  0  0  0  0  0
  -27.2835  -25.2886   19.3279 C   0  0  0  0  0  0  0  0  0  0  0  0
  -25.1527  -14.6134   19.4462 C   0  0  1  0  0  0  0  0  0  0  0  0
  -26.8593  -16.9920   21.8645 C   0  0  1  0  0  0  0  0  0  0  0  0
  -27.2838  -26.7462   18.8391 C   0  0  2  0  0  0  0  0  0  0  0  0
  -21.6639  -22.5523   24.0131 C   0  0  0  0  0  0  0  0  0  0  0  0
  -32.7658  -21.1464   26.1748 C   0  0  0  0  0  0  0  0  0  0  0  0
  -25.7898  -20.4028   19.2985 C   0  0  0  0  0  0  0  0  0  0  0  0
  -24.2794  -22.1985   20.1719 C   0  0  0  0  0  0  0  0  0  0  0  0
  -23.3552  -19.9435   19.6393 C   0  0  0  0  0  0  0  0  0  0  0  0
  -23.4537  -20.2716   26.4770 C   0  0  0  0  0  0  0  0  0  0  0  0
  -32.5322  -22.5535   24.0990 C   0  0  0  0  0  0  0  0  0  0  0  0
  -24.8148  -20.2337   21.6832 C   0  0  1  0  0  0  0  0  0  0  0  0
  -22.4612  -21.3313   24.4447 C   0  0  2  0  0  0  0  0  0  0  0  0
  -32.1781  -21.2226   24.7712 C   0  0  2  0  0  0  0  0  0  1  0  0
  -24.5817  -20.6853   20.2138 C   0  0  0  0  0  0  0  0  0  0  0  0
  -25.2677  -27.0923   20.2164 N   0  0  0  0  0  0  0  0  0  0  0  0
  -31.9435  -22.6681   22.7127 N   0  0  0  0  0  0  0  0  0  0  0  0
  -26.3761  -27.6274   19.6767 N   0  0  0  0  0  0  0  0  0  0  0  0
  -26.4911  -18.4087   21.7015 N   0  0  0  0  0  0  0  0  0  0  0  0
  -28.1841  -24.4792   18.4921 N   0  0  0  0  0  0  0  0  0  0  0  0
  -27.6089  -29.6425   19.5030 N   0  0  0  0  0  0  0  0  0  0  0  0
  -24.0820  -30.7973   22.0766 N   0  0  0  0  0  0  0  0  0  0  0  0
  -29.5688  -23.8695   20.3014 N   0  0  0  0  0  0  0  0  0  0  0  0
  -25.5944  -15.3611   20.6039 N   0  0  0  0  0  0  0  0  0  0  0  0
  -23.6770  -20.4643   22.5668 N   0  0  0  0  0  0  0  0  0  0  0  0
  -22.6993  -21.4204   25.9131 N   0  3  0  0  0  0  0  0  0  0  0  0
  -25.9954  -31.5768   21.0816 O   0  0  0  0  0  0  0  0  0  0  0  0
  -27.1585  -16.7193   19.5402 O   0  0  0  0  0  0  0  0  0  0  0  0
  -24.2222  -17.9535   21.9379 O   0  0  0  0  0  0  0  0  0  0  0  0
  -24.8019  -21.8093   24.0843 O   0  0  0  0  0  0  0  0  0  0  0  0
  -30.0048  -23.0943   18.1588 O   0  0  0  0  0  0  0  0  0  0  0  0
  -19.9405  -27.4376   23.6878 O   0  0  0  0  0  0  0  0  0  0  0  0
  -30.7584  -21.1174   24.8689 O   0  0  0  0  0  0  0  0  0  1  0  0
  -16.0446  -31.2955   23.1026 F   0  0  0  0  0  0  0  0  0  0  0  0
  -17.4440  -26.7924   22.6909 F   0  0  0  0  0  0  0  0  0  0  0  0
  1  2  1  0  0  0  0
  1  5  2  0  0  0  0
  2  6  2  0  0  0  0
  3  8  2  0  0  0  0
  3 18  1  0  0  0  0
  4  9  1  0  0  0  0
  4 18  2  0  0  0  0
  5 20  1  0  0  0  0
  6 22  1  0  0  0  0
  7 10  2  0  0  0  0
  7 21  1  0  0  0  0
  8 25  1  0  0  0  0
  9 25  2  0  0  0  0
 10 26  1  0  0  0  0
 11 12  2  0  0  0  0
 11 27  1  0  0  0  0
 12 28  1  0  0  0  0
 13 16  2  0  0  0  0
 13 24  1  0  0  0  0
 14 23  1  0  0  0  0
 14 26  2  0  0  0  0
 15 28  2  0  0  0  0
 15 29  1  0  0  0  0
 16 61  1  0  0  0  0
 17 24  2  0  0  0  0
 17 61  1  0  0  0  0
 18 30  1  0  0  0  0
 19 30  1  0  0  0  0
 19 31  2  0  0  0  0
 19 32  1  0  0  0  0
 20 22  2  0  0  0  0
 20 37  1  0  0  0  0
 21 23  2  0  0  0  0
 21 38  1  0  0  0  0
 22 46  1  0  0  0  0
 23 39  1  0  0  0  0
 24 67  1  0  0  0  0
 25 76  1  0  0  0  0
 26 77  1  0  0  0  0
 27 29  2  0  0  0  0
 27 76  1  0  0  0  0
 28 78  1  0  0  0  0
 29 79  1  0  0  0  0
 30 60  2  0  0  0  0
 31 62  1  0  0  0  0
 31 65  1  0  0  0  0
 32 66  1  0  0  0  0
 32 71  2  0  0  0  0
 33 47  1  0  0  0  0
 33 68  1  0  0  0  0
 33 72  2  0  0  0  0
 34 56  1  0  0  0  0
 34 63  1  0  0  0  0
 34 73  2  0  0  0  0
 35 57  1  0  0  0  0
 35 69  1  0  0  0  0
 35 74  2  0  0  0  0
 36 64  1  0  0  0  0
 36 67  1  0  0  0  0
 36 75  2  0  0  0  0
 37 40  1  0  0  0  0
 38 47  1  0  0  0  0
 39 63  1  0  0  0  0
 40 42  1  0  0  0  0
 41 43  1  0  0  0  0
 41 44  1  0  0  0  0
 42 46  1  0  0  0  0
 43 48  1  0  0  0  0
 44 64  1  0  0  0  0
 45 48  1  0  0  0  0
 45 64  1  0  0  0  0
 46 68  1  0  0  0  0
 47 63  1  0  0  0  0
 48 62  1  0  0  0  0
 49 57  1  0  0  0  0
 50 58  1  0  0  0  0
 51 59  1  0  0  0  0
 52 59  1  0  0  0  0
 53 59  1  0  0  0  0
 54 70  1  0  0  0  0
 55 58  1  0  0  0  0
 55 61  1  0  0  0  0
 56 59  1  0  0  0  0
 56 69  1  0  0  0  0
 57 70  1  0  0  0  0
 58 77  1  0  0  0  0
 60 62  1  0  0  0  0
M  CHG  1  70   1
M  ISO  4  36 100  58 101  67 100  77 101
M  END
> <Batch ID>
0111

> <Smiles>
CNC(C)C(=O)NC(C(=O)N1Cc2cc([101O:1][101CH:1](C)Cn3ccc([100NH:0][100C:0](=O)N4CCCC(n5nc(-c6ccc(Oc7ccc(F)cc7F)cc6)c(C(N)=O)c5N)C4)c3)ccc2CC1C(=O)NC1CCCc2ccccc21)C(C)(C)C

> <Shape>
0.206

> <Color>
0.062

> <Negative vol penalty>
0.000

$$$$

  -OEChem-04052320013D

 85 94  0     1  0  0  0  0  0999 V2000
  -28.6228  -24.8186   16.5559 C   0  0  0  0  0  0  0  0  0  0  0  0
  -27.4214  -24.9254   17.2493 C   0  0  0  0  0  0  0  0  0  0  0  0
  -25.5281  -15.0253   21.9150 C   0  0  0  0  0  0  0  0  0  0  0  0
  -23.2327  -14.5278   21.3487 C   0  0  0  0  0  0  0  0  0  0  0  0
  -29.7826  -25.3863   17.0817 C   0  0  0  0  0  0  0  0  0  0  0  0
  -27.3794  -25.5992   18.4694 C   0  0  0  0  0  0  0  0  0  0  0  0
  -23.4071  -28.7194   18.8300 C   0  0  0  0  0  0  0  0  0  0  0  0
  -22.2801  -24.6362   20.5828 C   0  0  0  0  0  0  0  0  0  0  0  0
  -25.9143  -13.7662   21.4556 C   0  0  0  0  0  0  0  0  0  0  0  0
  -23.6189  -13.2687   20.8893 C   0  0  0  0  0  0  0  0  0  0  0  0
  -22.1692  -28.1440   19.1133 C   0  0  0  0  0  0  0  0  0  0  0  0
  -24.4113  -10.2650   22.2237 C   0  0  0  0  0  0  0  0  0  0  0  0
  -23.6364   -9.1699   22.6058 C   0  0  0  0  0  0  0  0  0  0  0  0
  -23.1679  -23.8886   21.3485 C   0  0  0  0  0  0  0  0  0  0  0  0
  -22.4097  -28.7808   21.4276 C   0  0  0  0  0  0  0  0  0  0  0  0
  -23.1710   -8.6892   20.2843 C   0  0  0  0  0  0  0  0  0  0  0  0
  -21.2479  -25.3743   22.5943 C   0  0  0  0  0  0  0  0  0  0  0  0
  -24.1872  -15.4061   21.8616 C   0  0  0  0  0  0  0  0  0  0  0  0
  -23.7131  -17.8979   21.5905 C   0  0  0  0  0  0  0  0  0  0  0  0
  -29.7529  -26.0757   18.3042 C   0  0  0  0  0  0  0  0  0  0  0  0
  -24.1618  -29.3211   19.8472 C   0  0  0  0  0  0  0  0  0  0  0  0
  -28.5402  -26.1755   19.0126 C   0  0  0  0  0  0  0  0  0  0  0  0
  -23.6557  -29.3653   21.1541 C   0  0  0  0  0  0  0  0  0  0  0  0
  -21.2989  -25.3959   21.2099 C   0  0  0  0  0  0  0  0  0  0  0  0
  -24.9597  -12.8879   20.9427 C   0  0  0  0  0  0  0  0  0  0  0  0
  -21.6716  -28.1721   20.4128 C   0  0  0  0  0  0  0  0  0  0  0  0
  -24.5660  -10.5722   20.8719 C   0  0  0  0  0  0  0  0  0  0  0  0
  -23.0163   -8.3820   21.6361 C   0  0  0  0  0  0  0  0  0  0  0  0
  -23.9459   -9.7843   19.9022 C   0  0  0  0  0  0  0  0  0  0  0  0
  -23.7875  -16.7064   22.3365 C   0  0  0  0  0  0  0  0  0  0  0  0
  -23.0334  -23.9347   22.7267 C   0  0  0  0  0  0  0  0  0  0  0  0
  -23.2853  -18.8414   22.4923 C   0  0  0  0  0  0  0  0  0  0  0  0
  -24.0046  -18.1311   20.2062 C   0  0  0  0  0  0  0  0  0  0  0  0
  -27.0159  -28.7843   21.1395 C   0  0  0  0  0  0  0  0  0  0  0  0
  -26.3794  -31.5368   22.7335 C   0  0  0  0  0  0  0  0  0  0  0  0
  -24.0437  -33.7252   23.9179 C   0  0  0  0  0  0  0  0  0  0  0  0
  -24.0191  -20.9957   27.7038 C   0  0  0  0  0  0  0  0  0  0  0  0
  -31.0418  -26.6320   18.8554 C   0  0  0  0  0  0  0  0  0  0  0  0
  -25.4832  -29.9609   19.5200 C   0  0  0  0  0  0  0  0  0  0  0  0
  -24.4177  -30.0171   22.2779 C   0  0  0  0  0  0  0  0  0  0  0  0
  -30.8366  -27.6524   19.9721 C   0  0  0  0  0  0  0  0  0  0  0  0
  -21.4670  -18.3614   27.1771 C   0  0  0  0  0  0  0  0  0  0  0  0
  -24.6800  -24.3228   27.0042 C   0  0  0  0  0  0  0  0  0  0  0  0
  -29.8175  -27.1385   20.9842 C   0  0  0  0  0  0  0  0  0  0  0  0
  -21.8925  -17.7506   25.8430 C   0  0  0  0  0  0  0  0  0  0  0  0
  -24.5665  -24.3987   25.4817 C   0  0  0  0  0  0  0  0  0  0  0  0
  -22.6526  -18.9529   27.9330 C   0  0  0  0  0  0  0  0  0  0  0  0
  -25.3870  -23.0426   27.4357 C   0  0  0  0  0  0  0  0  0  0  0  0
  -23.8603  -19.3349   25.8074 C   0  0  0  0  0  0  0  0  0  0  0  0
  -24.6231  -21.8647   25.3988 C   0  0  0  0  0  0  0  0  0  0  0  0
  -28.4493  -26.9199   20.3271 C   0  0  1  0  0  0  0  0  0  0  0  0
  -26.3997  -30.0929   20.7325 C   0  0  1  0  0  0  0  0  0  0  0  0
  -22.6813  -18.7688   25.0015 C   0  0  1  0  0  0  0  0  0  0  0  0
  -23.9096  -23.1353   24.9206 C   0  0  2  0  0  0  0  0  0  0  0  0
  -18.8742  -25.8148   20.6728 C   0  0  0  0  0  0  0  0  0  0  0  0
  -23.8256  -35.8629   25.2141 C   0  0  0  0  0  0  0  0  0  0  0  0
  -26.9497  -30.0234   25.3208 C   0  0  0  0  0  0  0  0  0  0  0  0
  -25.8182  -31.8741   26.5710 C   0  0  0  0  0  0  0  0  0  0  0  0
  -27.8774  -32.3446   25.2439 C   0  0  0  0  0  0  0  0  0  0  0  0
  -22.7529  -35.1089   21.6424 C   0  0  0  0  0  0  0  0  0  0  0  0
  -20.3342  -26.2055   20.4184 C   0  0  1  0  0  0  0  0  0  1  0  0
  -25.7034  -31.8852   24.0376 C   0  0  1  0  0  0  0  0  0  0  0  0
  -23.9460  -35.2377   23.8330 C   0  0  2  0  0  0  0  0  0  0  0  0
  -26.5734  -31.5178   25.2727 C   0  0  0  0  0  0  0  0  0  0  0  0
  -22.0929  -24.6607   23.3717 N   0  0  0  0  0  0  0  0  0  0  0  0
  -23.4353  -16.8749   23.6138 N   0  0  0  0  0  0  0  0  0  0  0  0
  -23.1356  -18.1834   23.6775 N   0  0  0  0  0  0  0  0  0  0  0  0
  -25.7076  -30.6232   21.9090 N   0  0  0  0  0  0  0  0  0  0  0  0
  -23.4139  -19.8821   27.0978 N   0  0  0  0  0  0  0  0  0  0  0  0
  -24.7364  -21.8625   26.8656 N   0  0  0  0  0  0  0  0  0  0  0  0
  -23.0263  -20.1615   22.3792 N   0  0  0  0  0  0  0  0  0  0  0  0
  -24.4328  -17.0509   19.4225 N   0  0  0  0  0  0  0  0  0  0  0  0
  -23.9243  -23.1862   23.4746 N   0  0  0  0  0  0  0  0  0  0  0  0
  -27.7672  -28.1836   20.1475 N   0  0  0  0  0  0  0  0  0  0  0  0
  -25.3547  -33.2992   23.9517 N   0  0  0  0  0  0  0  0  0  0  0  0
  -22.7542  -35.6355   23.0315 N   0  3  0  0  0  0  0  0  0  0  0  0
  -23.9045  -19.2671   19.6837 O   0  0  0  0  0  0  0  0  0  0  0  0
  -26.8250  -28.3524   22.2703 O   0  0  0  0  0  0  0  0  0  0  0  0
  -27.4600  -32.0616   22.4534 O   0  0  0  0  0  0  0  0  0  0  0  0
  -23.0559  -32.9948   23.9547 O   0  0  0  0  0  0  0  0  0  0  0  0
  -23.9210  -21.2033   28.9197 O   0  0  0  0  0  0  0  0  0  0  0  0
  -25.3363  -11.6592   20.4941 O   0  0  0  0  0  0  0  0  0  0  0  0
  -20.4610  -27.6093   20.6929 O   0  0  0  0  0  0  0  0  0  1  0  0
  -22.2734   -7.3296   22.0031 F   0  0  0  0  0  0  0  0  0  0  0  0
  -24.0919  -10.0738   18.6019 F   0  0  0  0  0  0  0  0  0  0  0  0
  1  2  1  0  0  0  0
  1  5  2  0  0  0  0
  2  6  2  0  0  0  0
  3  9  2  0  0  0  0
  3 18  1  0  0  0  0
  4 10  1  0  0  0  0
  4 18  2  0  0  0  0
  5 20  1  0  0  0  0
  6 22  1  0  0  0  0
  7 11  2  0  0  0  0
  7 21  1  0  0  0  0
  8 14  2  0  0  0  0
  8 24  1  0  0  0  0
  9 25  1  0  0  0  0
 10 25  2  0  0  0  0
 11 26  1  0  0  0  0
 12 13  2  0  0  0  0
 12 27  1  0  0  0  0
 13 28  1  0  0  0  0
 14 31  1  0  0  0  0
 15 23  1  0  0  0  0
 15 26  2  0  0  0  0
 16 28  2  0  0  0  0
 16 29  1  0  0  0  0
 17 24  2  0  0  0  0
 17 65  1  0  0  0  0
 18 30  1  0  0  0  0
 19 30  1  0  0  0  0
 19 32  2  0  0  0  0
 19 33  1  0  0  0  0
 20 22  2  0  0  0  0
 20 38  1  0  0  0  0
 21 23  2  0  0  0  0
 21 39  1  0  0  0  0
 22 51  1  0  0  0  0
 23 40  1  0  0  0  0
 24 61  1  0  0  0  0
 25 82  1  0  0  0  0
 26 83  1  0  0  0  0
 27 29  2  0  0  0  0
 27 82  1  0  0  0  0
 28 84  1  0  0  0  0
 29 85  1  0  0  0  0
 30 66  2  0  0  0  0
 31 65  2  0  0  0  0
 31 73  1  0  0  0  0
 32 67  1  0  0  0  0
 32 71  1  0  0  0  0
 33 72  1  0  0  0  0
 33 77  2  0  0  0  0
 34 52  1  0  0  0  0
 34 74  1  0  0  0  0
 34 78  2  0  0  0  0
 35 62  1  0  0  0  0
 35 68  1  0  0  0  0
 35 79  2  0  0  0  0
 36 63  1  0  0  0  0
 36 75  1  0  0  0  0
 36 80  2  0  0  0  0
 37 69  1  0  0  0  0
 37 70  1  0  0  0  0
 37 81  2  0  0  0  0
 38 41  1  0  0  0  0
 39 52  1  0  0  0  0
 40 68  1  0  0  0  0
 41 44  1  0  0  0  0
 42 45  1  0  0  0  0
 42 47  1  0  0  0  0
 43 46  1  0  0  0  0
 43 48  1  0  0  0  0
 44 51  1  0  0  0  0
 45 53  1  0  0  0  0
 46 54  1  0  0  0  0
 47 69  1  0  0  0  0
 48 70  1  0  0  0  0
 49 53  1  0  0  0  0
 49 69  1  0  0  0  0
 50 54  1  0  0  0  0
 50 70  1  0  0  0  0
 51 74  1  0  0  0  0
 52 68  1  0  0  0  0
 53 67  1  0  0  0  0
 54 73  1  0  0  0  0
 55 61  1  0  0  0  0
 56 63  1  0  0  0  0
 57 64  1  0  0  0  0
 58 64  1  0  0  0  0
 59 64  1  0  0  0  0
 60 76  1  0  0  0  0
 61 83  1  0  0  0  0
 62 64  1  0  0  0  0
 62 75  1  0  0  0  0
 63 76  1  0  0  0  0
 66 67  1  0  0  0  0
M  CHG  1  76   1
M  ISO  4  37 100  61 101  70 100  83 101
M  END
> <Batch ID>
0111

> <Smiles>
CNC(C)C(=O)NC(C(=O)N1Cc2cc([101O:1][101CH:1](C)c3ccc(NC4CCC[100N:0]([100C:0](=O)N5CCCC(n6nc(-c7ccc(Oc8ccc(F)cc8F)cc7)c(C(N)=O)c6N)C5)C4)nc3)ccc2CC1C(=O)NC1CCCc2ccccc21)C(C)(C)C

> <Shape>
0.247

> <Color>
0.081

> <Negative vol penalty>
0.000

$$$$

  -OEChem-04052320013D

 85 93  0     1  0  0  0  0  0999 V2000
  -17.0449  -27.8035   21.0718 C   0  0  0  0  0  0  0  0  0  0  0  0
  -18.1962  -27.0264   20.9932 C   0  0  0  0  0  0  0  0  0  0  0  0
  -28.4548  -18.4367   25.8399 C   0  0  0  0  0  0  0  0  0  0  0  0
  -24.1600   -9.5805   22.1006 C   0  0  0  0  0  0  0  0  0  0  0  0
  -24.3297  -11.2117   23.8747 C   0  0  0  0  0  0  0  0  0  0  0  0
  -17.1261  -29.1259   21.5060 C   0  0  0  0  0  0  0  0  0  0  0  0
  -19.4296  -27.5718   21.3477 C   0  0  0  0  0  0  0  0  0  0  0  0
  -22.1734  -24.4518   24.2429 C   0  0  0  0  0  0  0  0  0  0  0  0
  -23.7430   -8.6208   23.0229 C   0  0  0  0  0  0  0  0  0  0  0  0
  -23.9126  -10.2520   24.7970 C   0  0  0  0  0  0  0  0  0  0  0  0
  -22.8298  -23.4016   23.6027 C   0  0  0  0  0  0  0  0  0  0  0  0
  -22.2870   -5.8384   24.8541 C   0  0  0  0  0  0  0  0  0  0  0  0
  -21.2017   -5.0338   24.5070 C   0  0  0  0  0  0  0  0  0  0  0  0
  -29.3526  -18.5577   24.7507 C   0  0  0  0  0  0  0  0  0  0  0  0
  -24.8860  -24.6619   23.6567 C   0  0  0  0  0  0  0  0  0  0  0  0
  -19.8096   -6.9982   24.3061 C   0  0  0  0  0  0  0  0  0  0  0  0
  -27.2183  -18.1221   25.3208 C   0  0  0  0  0  0  0  0  0  0  0  0
  -24.4534  -10.8760   22.5265 C   0  0  0  0  0  0  0  0  0  0  0  0
  -24.0715  -12.7514   20.8399 C   0  0  0  0  0  0  0  0  0  0  0  0
  -18.3598  -29.6848   21.8751 C   0  0  0  0  0  0  0  0  0  0  0  0
  -22.8670  -25.6214   24.5856 C   0  0  0  0  0  0  0  0  0  0  0  0
  -19.5276  -28.9034   21.7859 C   0  0  0  0  0  0  0  0  0  0  0  0
  -24.2367  -25.7245   24.3035 C   0  0  0  0  0  0  0  0  0  0  0  0
  -23.6193   -8.9565   24.3711 C   0  0  0  0  0  0  0  0  0  0  0  0
  -24.1857  -23.5077   23.3069 C   0  0  0  0  0  0  0  0  0  0  0  0
  -22.1336   -7.2229   24.9273 C   0  0  0  0  0  0  0  0  0  0  0  0
  -19.9631   -5.6137   24.2330 C   0  0  0  0  0  0  0  0  0  0  0  0
  -20.8949   -7.8028   24.6533 C   0  0  0  0  0  0  0  0  0  0  0  0
  -24.8847  -11.8677   21.5744 C   0  0  0  0  0  0  0  0  0  0  0  0
  -28.6373  -18.3136   23.5990 C   0  0  0  0  0  0  0  0  0  0  0  0
  -24.9546  -13.4829   20.0840 C   0  0  0  0  0  0  0  0  0  0  0  0
  -22.6452  -12.8980   20.8409 C   0  0  0  0  0  0  0  0  0  0  0  0
  -22.6313  -28.6870   23.7792 C   0  0  0  0  0  0  0  0  0  0  0  0
  -24.9164  -29.0578   26.0514 C   0  0  0  0  0  0  0  0  0  0  0  0
  -27.4570  -27.6703   27.8590 C   0  0  0  0  0  0  0  0  0  0  0  0
  -30.7382  -14.8701   20.7749 C   0  0  0  0  0  0  0  0  0  0  0  0
  -18.4046  -31.1332   22.2932 C   0  0  0  0  0  0  0  0  0  0  0  0
  -22.1505  -26.7344   25.2998 C   0  0  0  0  0  0  0  0  0  0  0  0
  -25.0314  -26.9507   24.6687 C   0  0  0  0  0  0  0  0  0  0  0  0
  -19.6967  -31.5214   23.0074 C   0  0  0  0  0  0  0  0  0  0  0  0
  -29.2572  -13.1794   18.0136 C   0  0  0  0  0  0  0  0  0  0  0  0
  -20.9071  -30.9834   22.2509 C   0  0  0  0  0  0  0  0  0  0  0  0
  -27.8953  -12.7312   18.5468 C   0  0  0  0  0  0  0  0  0  0  0  0
  -30.3384  -13.0996   19.0891 C   0  0  0  0  0  0  0  0  0  0  0  0
  -28.6593  -13.3651   20.8734 C   0  0  0  0  0  0  0  0  0  0  0  0
  -20.8804  -29.4516   22.1852 C   0  0  1  0  0  0  0  0  0  0  0  0
  -22.8385  -28.0867   25.1410 C   0  0  1  0  0  0  0  0  0  0  0  0
  -27.5252  -13.4812   19.8406 C   0  0  2  0  0  0  0  0  0  0  0  0
  -29.1622  -28.2316   29.6124 C   0  0  0  0  0  0  0  0  0  0  0  0
  -25.6778  -16.3075   23.2612 C   0  0  0  0  0  0  0  0  0  0  0  0
  -26.5842  -30.5219   23.9573 C   0  0  0  0  0  0  0  0  0  0  0  0
  -28.5822  -30.2135   25.4341 C   0  0  0  0  0  0  0  0  0  0  0  0
  -26.6348  -31.5501   26.2365 C   0  0  0  0  0  0  0  0  0  0  0  0
  -26.3454  -25.6773   29.7435 C   0  0  0  0  0  0  0  0  0  0  0  0
  -25.5045  -20.1868   22.8376 C   0  0  0  0  0  0  0  0  0  0  0  0
  -25.0454  -18.7454   23.0738 C   0  0  0  0  0  0  0  0  0  0  0  0
  -30.5845  -17.9719   21.9670 C   0  0  0  0  0  0  0  0  0  0  0  0
  -30.9922  -16.6089   22.5274 C   0  0  0  0  0  0  0  0  0  0  0  0
  -24.3410  -21.1655   22.9248 C   0  0  0  0  0  0  0  0  0  1  0  0
  -29.0822  -18.3100   22.1903 C   0  0  2  0  0  0  0  0  0  0  0  0
  -26.4258  -29.0364   26.0631 C   0  0  1  0  0  0  0  0  0  0  0  0
  -27.7652  -27.6933   29.3452 C   0  0  2  0  0  0  0  0  0  0  0  0
  -26.2024  -17.7259   23.0061 C   0  0  1  0  0  0  0  0  0  0  0  0
  -27.0416  -30.3080   25.4140 C   0  0  0  0  0  0  0  0  0  0  0  0
  -26.1846  -12.0219   21.3089 N   0  0  0  0  0  0  0  0  0  0  0  0
  -27.3412  -18.0502   23.9577 N   0  0  0  0  0  0  0  0  0  0  0  0
  -26.1949  -13.0110   20.3991 N   0  0  0  0  0  0  0  0  0  0  0  0
  -24.2845  -28.0144   25.3602 N   0  0  0  0  0  0  0  0  0  0  0  0
  -29.9261  -13.8321   20.2888 N   0  0  0  0  0  0  0  0  0  0  0  0
  -24.7835  -14.4772   19.1871 N   0  0  0  0  0  0  0  0  0  0  0  0
  -21.8886  -12.0659   21.6773 N   0  0  0  0  0  0  0  0  0  0  0  0
  -21.3045  -28.8841   23.4472 N   0  0  0  0  0  0  0  0  0  0  0  0
  -26.8203  -28.8235   27.4515 N   0  0  0  0  0  0  0  0  0  0  0  0
  -30.2710  -15.5168   21.9125 N   0  0  0  0  0  0  0  0  0  0  0  0
  -28.8416  -19.6311   21.4913 N   0  3  0  0  0  0  0  0  0  0  0  0
  -27.6743  -26.3190   29.9144 N   0  3  0  0  0  0  0  0  0  0  0  0
  -22.0579  -13.7306   20.1093 O   0  0  0  0  0  0  0  0  0  0  0  0
  -23.6033  -28.9529   23.0819 O   0  0  0  0  0  0  0  0  0  0  0  0
  -24.3199  -29.9629   26.6401 O   0  0  0  0  0  0  0  0  0  0  0  0
  -27.7548  -26.7255   27.1315 O   0  0  0  0  0  0  0  0  0  0  0  0
  -31.7981  -15.1997   20.2320 O   0  0  0  0  0  0  0  0  0  0  0  0
  -23.2122   -8.0203   25.2713 O   0  0  0  0  0  0  0  0  0  0  0  0
  -24.8287  -22.4843   22.6815 O   0  0  0  0  0  0  0  0  0  1  0  0
  -18.9214   -4.8411   23.8981 F   0  0  0  0  0  0  0  0  0  0  0  0
  -20.7417   -9.1324   24.7209 F   0  0  0  0  0  0  0  0  0  0  0  0
  1  2  1  0  0  0  0
  1  6  2  0  0  0  0
  2  7  2  0  0  0  0
  3 14  1  0  0  0  0
  3 17  2  0  0  0  0
  4  9  2  0  0  0  0
  4 18  1  0  0  0  0
  5 10  1  0  0  0  0
  5 18  2  0  0  0  0
  6 20  1  0  0  0  0
  7 22  1  0  0  0  0
  8 11  2  0  0  0  0
  8 21  1  0  0  0  0
  9 24  1  0  0  0  0
 10 24  2  0  0  0  0
 11 25  1  0  0  0  0
 12 13  2  0  0  0  0
 12 26  1  0  0  0  0
 13 27  1  0  0  0  0
 14 30  2  0  0  0  0
 15 23  1  0  0  0  0
 15 25  2  0  0  0  0
 16 27  2  0  0  0  0
 16 28  1  0  0  0  0
 17 66  1  0  0  0  0
 18 29  1  0  0  0  0
 19 29  1  0  0  0  0
 19 31  2  0  0  0  0
 19 32  1  0  0  0  0
 20 22  2  0  0  0  0
 20 37  1  0  0  0  0
 21 23  2  0  0  0  0
 21 38  1  0  0  0  0
 22 46  1  0  0  0  0
 23 39  1  0  0  0  0
 24 82  1  0  0  0  0
 25 83  1  0  0  0  0
 26 28  2  0  0  0  0
 26 82  1  0  0  0  0
 27 84  1  0  0  0  0
 28 85  1  0  0  0  0
 29 65  2  0  0  0  0
 30 60  1  0  0  0  0
 30 66  1  0  0  0  0
 31 67  1  0  0  0  0
 31 70  1  0  0  0  0
 32 71  1  0  0  0  0
 32 77  2  0  0  0  0
 33 47  1  0  0  0  0
 33 72  1  0  0  0  0
 33 78  2  0  0  0  0
 34 61  1  0  0  0  0
 34 68  1  0  0  0  0
 34 79  2  0  0  0  0
 35 62  1  0  0  0  0
 35 73  1  0  0  0  0
 35 80  2  0  0  0  0
 36 69  1  0  0  0  0
 36 74  1  0  0  0  0
 36 81  2  0  0  0  0
 37 40  1  0  0  0  0
 38 47  1  0  0  0  0
 39 68  1  0  0  0  0
 40 42  1  0  0  0  0
 41 43  1  0  0  0  0
 41 44  1  0  0  0  0
 42 46  1  0  0  0  0
 43 48  1  0  0  0  0
 44 69  1  0  0  0  0
 45 48  1  0  0  0  0
 45 69  1  0  0  0  0
 46 72  1  0  0  0  0
 47 68  1  0  0  0  0
 48 67  1  0  0  0  0
 49 62  1  0  0  0  0
 50 63  1  0  0  0  0
 51 64  1  0  0  0  0
 52 64  1  0  0  0  0
 53 64  1  0  0  0  0
 54 76  1  0  0  0  0
 55 56  1  0  0  0  0
 55 59  1  0  0  0  0
 56 63  1  0  0  0  0
 57 58  1  0  0  0  0
 57 60  1  0  0  0  0
 58 74  1  0  0  0  0
 59 83  1  0  0  0  0
 60 75  1  0  0  0  0
 61 64  1  0  0  0  0
 61 73  1  0  0  0  0
 62 76  1  0  0  0  0
 63 66  1  0  0  0  0
 65 67  1  0  0  0  0
M  CHG  2  75   1  76   1
M  ISO  4  36 100  59 101  74 100  83 101
M  END
> <Batch ID>
0111

> <Smiles>
CNC(C)C(=O)NC(C(=O)N1Cc2cc([101O:1][101CH2:1]CCC(C)n3cccc3C(N)CC[100NH:0][100C:0](=O)N3CCCC(n4nc(-c5ccc(Oc6ccc(F)cc6F)cc5)c(C(N)=O)c4N)C3)ccc2CC1C(=O)NC1CCCc2ccccc21)C(C)(C)C

> <Shape>
0.227

> <Color>
0.112

> <Negative vol penalty>
0.000

$$$$

  -OEChem-04052320013D

 85 93  0     1  0  0  0  0  0999 V2000
  -26.3320  -19.6671   26.7428 C   0  0  0  0  0  0  0  0  0  0  0  0
  -26.7176  -20.8341   26.0929 C   0  0  0  0  0  0  0  0  0  0  0  0
  -24.3812  -13.4747   21.5637 C   0  0  0  0  0  0  0  0  0  0  0  0
  -26.4278  -13.6439   20.2911 C   0  0  0  0  0  0  0  0  0  0  0  0
  -25.0036  -19.2504   26.6892 C   0  0  0  0  0  0  0  0  0  0  0  0
  -25.7728  -21.5910   25.3992 C   0  0  0  0  0  0  0  0  0  0  0  0
  -27.2529  -25.9358   23.6285 C   0  0  0  0  0  0  0  0  0  0  0  0
  -24.3006  -12.1171   21.2537 C   0  0  0  0  0  0  0  0  0  0  0  0
  -26.3473  -12.2863   19.9811 C   0  0  0  0  0  0  0  0  0  0  0  0
  -28.1153  -26.0515   22.5392 C   0  0  0  0  0  0  0  0  0  0  0  0
  -23.3512  -10.2147   18.6262 C   0  0  0  0  0  0  0  0  0  0  0  0
  -22.1125   -9.7148   18.2247 C   0  0  0  0  0  0  0  0  0  0  0  0
  -26.2477  -26.6413   21.1309 C   0  0  0  0  0  0  0  0  0  0  0  0
  -29.6974  -22.9968   18.2726 C   0  0  0  0  0  0  0  0  0  0  0  0
  -22.1233   -8.1860   20.0955 C   0  0  0  0  0  0  0  0  0  0  0  0
  -27.4684  -23.6782   16.8538 C   0  0  0  0  0  0  0  0  0  0  0  0
  -25.4448  -14.2381   21.0824 C   0  0  0  0  0  0  0  0  0  0  0  0
  -26.1701  -16.2231   22.5111 C   0  0  0  0  0  0  0  0  0  0  0  0
  -24.0451  -19.9965   25.9838 C   0  0  0  0  0  0  0  0  0  0  0  0
  -25.8775  -26.1617   23.4745 C   0  0  0  0  0  0  0  0  0  0  0  0
  -24.4224  -21.1997   25.3535 C   0  0  0  0  0  0  0  0  0  0  0  0
  -25.3703  -26.5303   22.2203 C   0  0  0  0  0  0  0  0  0  0  0  0
  -28.9481  -21.9993   17.6589 C   0  0  0  0  0  0  0  0  0  0  0  0
  -27.8109  -22.3381   16.9341 C   0  0  0  0  0  0  0  0  0  0  0  0
  -25.2837  -11.5229   20.4624 C   0  0  0  0  0  0  0  0  0  0  0  0
  -27.6124  -26.4014   21.2895 C   0  0  0  0  0  0  0  0  0  0  0  0
  -23.9761   -9.7002   19.7622 C   0  0  0  0  0  0  0  0  0  0  0  0
  -21.4985   -8.7004   18.9594 C   0  0  0  0  0  0  0  0  0  0  0  0
  -23.3621   -8.6859   20.4969 C   0  0  0  0  0  0  0  0  0  0  0  0
  -25.5282  -15.6406   21.4018 C   0  0  0  0  0  0  0  0  0  0  0  0
  -29.2705  -24.3075   18.1323 C   0  0  0  0  0  0  0  0  0  0  0  0
  -25.9640  -17.5724   22.3575 C   0  0  0  0  0  0  0  0  0  0  0  0
  -26.8884  -15.6003   23.5843 C   0  0  0  0  0  0  0  0  0  0  0  0
  -23.2597  -24.3957   23.8381 C   0  0  0  0  0  0  0  0  0  0  0  0
  -21.7527  -27.2094   23.2597 C   0  0  0  0  0  0  0  0  0  0  0  0
  -21.8679  -30.3267   21.8755 C   0  0  0  0  0  0  0  0  0  0  0  0
  -24.8913  -21.0153   17.5777 C   0  0  0  0  0  0  0  0  0  0  0  0
  -22.6197  -19.5035   25.9648 C   0  0  0  0  0  0  0  0  0  0  0  0
  -24.9643  -26.0589   24.6653 C   0  0  0  0  0  0  0  0  0  0  0  0
  -23.9046  -26.8033   22.0067 C   0  0  0  0  0  0  0  0  0  0  0  0
  -21.7906  -20.1249   24.8456 C   0  0  0  0  0  0  0  0  0  0  0  0
  -22.8621  -20.6974   20.4859 C   0  0  0  0  0  0  0  0  0  0  0  0
  -21.9610  -21.6367   24.8505 C   0  0  0  0  0  0  0  0  0  0  0  0
  -23.3732  -19.4180   21.1505 C   0  0  0  0  0  0  0  0  0  0  0  0
  -22.8823  -20.5891   18.9628 C   0  0  0  0  0  0  0  0  0  0  0  0
  -24.6944  -18.9210   19.0514 C   0  0  0  0  0  0  0  0  0  0  0  0
  -23.4182  -22.0229   24.5672 C   0  0  1  0  0  0  0  0  0  0  0  0
  -23.5088  -25.8094   24.2822 C   0  0  1  0  0  0  0  0  0  0  0  0
  -24.7454  -19.0028   20.5866 C   0  0  2  0  0  0  0  0  0  0  0  0
  -20.4699  -32.3820   21.5310 C   0  0  0  0  0  0  0  0  0  0  0  0
  -29.5806  -20.1168   20.2785 C   0  0  0  0  0  0  0  0  0  0  0  0
  -20.2006  -25.7811   21.0550 C   0  0  0  0  0  0  0  0  0  0  0  0
  -19.5570  -28.0252   20.1503 C   0  0  0  0  0  0  0  0  0  0  0  0
  -18.8358  -27.3524   22.4416 C   0  0  0  0  0  0  0  0  0  0  0  0
  -23.7589  -32.0109   23.4074 C   0  0  0  0  0  0  0  0  0  0  0  0
  -29.3815  -20.5769   17.7908 C   0  0  0  0  0  0  0  0  0  0  0  0
  -26.9722  -21.3100   16.2576 C   0  0  0  0  0  0  0  0  0  0  0  0
  -29.6148  -25.6874   20.2235 C   0  0  0  0  0  0  0  0  0  1  0  0
  -30.0607  -25.4193   18.7866 C   0  0  1  0  0  0  0  0  0  0  0  0
  -21.2626  -27.9255   22.0244 C   0  0  1  0  0  0  0  0  0  0  0  0
  -21.4846  -31.6883   22.4265 C   0  0  2  0  0  0  0  0  0  0  0  0
  -28.7850  -19.8487   19.0076 C   0  0  1  0  0  0  0  0  0  0  0  0
  -19.9914  -27.2641   21.4211 C   0  0  0  0  0  0  0  0  0  0  0  0
  -28.1714  -24.6753   17.4363 N   0  0  0  0  0  0  0  0  0  0  0  0
  -24.9571  -16.5457   20.6026 N   0  0  0  0  0  0  0  0  0  0  0  0
  -25.2393  -17.7106   21.2104 N   0  0  0  0  0  0  0  0  0  0  0  0
  -23.0511  -26.6837   23.2004 N   0  0  0  0  0  0  0  0  0  0  0  0
  -24.2121  -20.1937   18.4924 N   0  0  0  0  0  0  0  0  0  0  0  0
  -26.3339  -18.6422   23.0932 N   0  0  0  0  0  0  0  0  0  0  0  0
  -27.0053  -14.2036   23.5881 N   0  0  0  0  0  0  0  0  0  0  0  0
  -23.5813  -23.4432   24.7862 N   0  0  0  0  0  0  0  0  0  0  0  0
  -21.0857  -29.3225   22.4056 N   0  0  0  0  0  0  0  0  0  0  0  0
  -26.1488  -20.5705   17.1882 N   0  0  0  0  0  0  0  0  0  0  0  0
  -28.8005  -18.3774   18.7617 N   0  3  0  0  0  0  0  0  0  0  0  0
  -22.6882  -32.5602   22.5363 N   0  3  0  0  0  0  0  0  0  0  0  0
  -27.3969  -16.2615   24.5211 O   0  0  0  0  0  0  0  0  0  0  0  0
  -22.8077  -24.1848   22.7188 O   0  0  0  0  0  0  0  0  0  0  0  0
  -21.0134  -27.1259   24.2436 O   0  0  0  0  0  0  0  0  0  0  0  0
  -22.7686  -30.1700   21.0541 O   0  0  0  0  0  0  0  0  0  0  0  0
  -24.4149  -22.0699   17.1445 O   0  0  0  0  0  0  0  0  0  0  0  0
  -31.4422  -25.0655   18.7759 O   0  0  0  0  0  0  0  0  0  0  0  0
  -25.2055  -10.1982   20.1599 O   0  0  0  0  0  0  0  0  0  0  0  0
  -28.4519  -26.5144   20.2244 O   0  0  0  0  0  0  0  0  0  1  0  0
  -20.3082   -8.2215   18.5746 F   0  0  0  0  0  0  0  0  0  0  0  0
  -23.9569   -8.1885   21.5899 F   0  0  0  0  0  0  0  0  0  0  0  0
  1  2  1  0  0  0  0
  1  5  2  0  0  0  0
  2  6  2  0  0  0  0
  3  8  2  0  0  0  0
  3 17  1  0  0  0  0
  4  9  1  0  0  0  0
  4 17  2  0  0  0  0
  5 19  1  0  0  0  0
  6 21  1  0  0  0  0
  7 10  2  0  0  0  0
  7 20  1  0  0  0  0
  8 25  1  0  0  0  0
  9 25  2  0  0  0  0
 10 26  1  0  0  0  0
 11 12  2  0  0  0  0
 11 27  1  0  0  0  0
 12 28  1  0  0  0  0
 13 22  1  0  0  0  0
 13 26  2  0  0  0  0
 14 23  2  0  0  0  0
 14 31  1  0  0  0  0
 15 28  2  0  0  0  0
 15 29  1  0  0  0  0
 16 24  2  0  0  0  0
 16 64  1  0  0  0  0
 17 30  1  0  0  0  0
 18 30  1  0  0  0  0
 18 32  2  0  0  0  0
 18 33  1  0  0  0  0
 19 21  2  0  0  0  0
 19 38  1  0  0  0  0
 20 22  2  0  0  0  0
 20 39  1  0  0  0  0
 21 47  1  0  0  0  0
 22 40  1  0  0  0  0
 23 24  1  0  0  0  0
 23 56  1  0  0  0  0
 24 57  1  0  0  0  0
 25 82  1  0  0  0  0
 26 83  1  0  0  0  0
 27 29  2  0  0  0  0
 27 82  1  0  0  0  0
 28 84  1  0  0  0  0
 29 85  1  0  0  0  0
 30 65  2  0  0  0  0
 31 59  1  0  0  0  0
 31 64  2  0  0  0  0
 32 66  1  0  0  0  0
 32 69  1  0  0  0  0
 33 70  1  0  0  0  0
 33 76  2  0  0  0  0
 34 48  1  0  0  0  0
 34 71  1  0  0  0  0
 34 77  2  0  0  0  0
 35 60  1  0  0  0  0
 35 67  1  0  0  0  0
 35 78  2  0  0  0  0
 36 61  1  0  0  0  0
 36 72  1  0  0  0  0
 36 79  2  0  0  0  0
 37 68  1  0  0  0  0
 37 73  1  0  0  0  0
 37 80  2  0  0  0  0
 38 41  1  0  0  0  0
 39 48  1  0  0  0  0
 40 67  1  0  0  0  0
 41 43  1  0  0  0  0
 42 44  1  0  0  0  0
 42 45  1  0  0  0  0
 43 47  1  0  0  0  0
 44 49  1  0  0  0  0
 45 68  1  0  0  0  0
 46 49  1  0  0  0  0
 46 68  1  0  0  0  0
 47 71  1  0  0  0  0
 48 67  1  0  0  0  0
 49 66  1  0  0  0  0
 50 61  1  0  0  0  0
 51 62  1  0  0  0  0
 52 63  1  0  0  0  0
 53 63  1  0  0  0  0
 54 63  1  0  0  0  0
 55 75  1  0  0  0  0
 56 62  1  0  0  0  0
 57 73  1  0  0  0  0
 58 59  1  0  0  0  0
 58 83  1  0  0  0  0
 59 81  1  0  0  0  0
 60 63  1  0  0  0  0
 60 72  1  0  0  0  0
 61 75  1  0  0  0  0
 62 74  1  0  0  0  0
 65 66  1  0  0  0  0
M  CHG  2  74   1  75   1
M  ISO  4  37 100  58 101  73 100  83 101
M  END
> <Batch ID>
0111

> <Smiles>
CNC(C)C(=O)NC(C(=O)N1Cc2cc([101O:1][101CH2:1]C(O)c3cc(CC(C)N)c(C[100NH:0][100C:0](=O)N4CCCC(n5nc(-c6ccc(Oc7ccc(F)cc7F)cc6)c(C(N)=O)c5N)C4)cn3)ccc2CC1C(=O)NC1CCCc2ccccc21)C(C)(C)C

> <Shape>
0.184

> <Color>
0.060

> <Negative vol penalty>
0.000

$$$$

  -OEChem-04052320013D

 88 97  0     1  0  0  0  0  0999 V2000
  -24.0937  -35.3388   15.5193 C   0  0  0  0  0  0  0  0  0  0  0  0
  -24.3950  -33.9815   15.5680 C   0  0  0  0  0  0  0  0  0  0  0  0
  -24.5604   -8.6777   21.3205 C   0  0  0  0  0  0  0  0  0  0  0  0
  -23.2538  -10.6341   21.8704 C   0  0  0  0  0  0  0  0  0  0  0  0
  -24.3922  -36.1575   16.6077 C   0  0  0  0  0  0  0  0  0  0  0  0
  -24.9960  -33.4423   16.7049 C   0  0  0  0  0  0  0  0  0  0  0  0
  -24.0879  -27.8594   19.0526 C   0  0  0  0  0  0  0  0  0  0  0  0
  -29.3604  -23.5810   20.1419 C   0  0  0  0  0  0  0  0  0  0  0  0
  -30.0035  -22.3730   19.8611 C   0  0  0  0  0  0  0  0  0  0  0  0
  -23.9019   -7.9577   22.3173 C   0  0  0  0  0  0  0  0  0  0  0  0
  -22.5953   -9.9141   22.8672 C   0  0  0  0  0  0  0  0  0  0  0  0
  -24.8085  -26.6702   18.9502 C   0  0  0  0  0  0  0  0  0  0  0  0
  -20.9226   -6.4092   22.7163 C   0  0  0  0  0  0  0  0  0  0  0  0
  -20.4790   -5.1246   22.4024 C   0  0  0  0  0  0  0  0  0  0  0  0
  -27.3767  -22.3711   20.7564 C   0  0  0  0  0  0  0  0  0  0  0  0
  -25.9150  -27.1683   21.0352 C   0  0  0  0  0  0  0  0  0  0  0  0
  -28.0410  -18.7420   20.3454 C   0  0  0  0  0  0  0  0  0  0  0  0
  -21.8650   -4.2164   24.1607 C   0  0  0  0  0  0  0  0  0  0  0  0
  -28.0238  -21.1561   20.4740 C   0  0  0  0  0  0  0  0  0  0  0  0
  -24.2364  -10.0159   21.0971 C   0  0  0  0  0  0  0  0  0  0  0  0
  -24.5372  -10.8866   18.7182 C   0  0  0  0  0  0  0  0  0  0  0  0
  -24.9884  -35.6263   17.7622 C   0  0  0  0  0  0  0  0  0  0  0  0
  -24.2838  -28.7187   20.1433 C   0  0  0  0  0  0  0  0  0  0  0  0
  -25.3041  -34.2549   17.8092 C   0  0  0  0  0  0  0  0  0  0  0  0
  -25.1938  -28.3665   21.1503 C   0  0  0  0  0  0  0  0  0  0  0  0
  -28.0453  -23.5805   20.5901 C   0  0  0  0  0  0  0  0  0  0  0  0
  -27.3744  -19.9244   20.6326 C   0  0  0  0  0  0  0  0  0  0  0  0
  -29.3589  -21.1491   20.0187 C   0  0  0  0  0  0  0  0  0  0  0  0
  -22.9193   -8.5759   23.0906 C   0  0  0  0  0  0  0  0  0  0  0  0
  -25.7243  -26.3259   19.9401 C   0  0  0  0  0  0  0  0  0  0  0  0
  -21.8375   -6.5975   23.7523 C   0  0  0  0  0  0  0  0  0  0  0  0
  -20.9501   -4.0282   23.1246 C   0  0  0  0  0  0  0  0  0  0  0  0
  -22.3086   -5.5011   24.4745 C   0  0  0  0  0  0  0  0  0  0  0  0
  -24.9167  -10.7604   20.0679 C   0  0  0  0  0  0  0  0  0  0  0  0
  -29.3458  -18.8356   19.9055 C   0  0  0  0  0  0  0  0  0  0  0  0
  -25.5038  -11.6892   18.1633 C   0  0  0  0  0  0  0  0  0  0  0  0
  -23.4114  -10.3283   18.0277 C   0  0  0  0  0  0  0  0  0  0  0  0
  -25.3027  -31.7098   20.4878 C   0  0  0  0  0  0  0  0  0  0  0  0
  -24.4659  -31.2256   23.5842 C   0  0  0  0  0  0  0  0  0  0  0  0
  -23.9074  -29.0139   26.1226 C   0  0  0  0  0  0  0  0  0  0  0  0
  -28.7042  -16.0156   18.1800 C   0  0  0  0  0  0  0  0  0  0  0  0
  -25.3356  -36.5595   18.8950 C   0  0  0  0  0  0  0  0  0  0  0  0
  -23.4792  -29.9848   20.2525 C   0  0  0  0  0  0  0  0  0  0  0  0
  -25.4261  -29.2446   22.3517 C   0  0  0  0  0  0  0  0  0  0  0  0
  -25.6305  -35.8397   20.2085 C   0  0  0  0  0  0  0  0  0  0  0  0
  -29.9503  -13.2446   19.9802 C   0  0  0  0  0  0  0  0  0  0  0  0
  -26.5697  -34.6612   19.9723 C   0  0  0  0  0  0  0  0  0  0  0  0
  -28.7103  -12.3556   20.0637 C   0  0  0  0  0  0  0  0  0  0  0  0
  -29.6102  -14.7242   20.1683 C   0  0  0  0  0  0  0  0  0  0  0  0
  -27.3130  -14.3265   19.3392 C   0  0  0  0  0  0  0  0  0  0  0  0
  -25.9336  -33.6282   19.0344 C   0  0  1  0  0  0  0  0  0  0  0  0
  -24.1338  -31.0335   21.1466 C   0  0  1  0  0  0  0  0  0  0  0  0
  -27.6191  -12.8409   19.0938 C   0  0  2  0  0  0  0  0  0  0  0  0
  -25.9596  -19.8239   21.1096 C   0  0  0  0  0  0  0  0  0  0  0  0
  -23.2727  -28.9189   28.5486 C   0  0  0  0  0  0  0  0  0  0  0  0
  -27.2827  -32.1112   24.3533 C   0  0  0  0  0  0  0  0  0  0  0  0
  -26.9053  -31.1075   26.6157 C   0  0  0  0  0  0  0  0  0  0  0  0
  -25.4709  -32.9930   25.8347 C   0  0  0  0  0  0  0  0  0  0  0  0
  -21.4626  -27.4506   25.5413 C   0  0  0  0  0  0  0  0  0  0  0  0
  -27.3509  -24.8758   20.8925 C   0  0  0  0  0  0  0  0  0  1  0  0
  -30.1020  -17.5898   19.5847 C   0  0  0  0  0  0  0  0  0  0  0  0
  -31.6462  -17.5219   16.8793 C   0  0  0  0  0  0  0  0  0  0  0  0
  -30.1520  -17.7070   17.1210 C   0  0  0  0  0  0  0  0  0  0  0  0
  -32.0194  -16.0609   16.6633 C   0  0  0  0  0  0  0  0  0  0  0  0
  -25.1695  -30.7004   24.8123 C   0  0  1  0  0  0  0  0  0  0  0  0
  -22.7658  -28.8871   27.1152 C   0  0  2  0  0  0  0  0  0  0  0  0
  -26.2044  -31.7122   25.3805 C   0  0  0  0  0  0  0  0  0  0  0  0
  -30.0083  -20.0032   19.7391 N   0  0  0  0  0  0  0  0  0  0  0  0
  -26.0372  -11.4291   20.3532 N   0  0  0  0  0  0  0  0  0  0  0  0
  -26.3701  -11.9831   19.1750 N   0  0  0  0  0  0  0  0  0  0  0  0
  -24.6199  -30.4752   22.4100 N   0  0  0  0  0  0  0  0  0  0  0  0
  -28.5327  -15.1338   19.2572 N   0  0  0  0  0  0  0  0  0  0  0  0
  -25.6890  -12.1650   16.9136 N   0  0  0  0  0  0  0  0  0  0  0  0
  -22.5158   -9.5267   18.7486 N   0  0  0  0  0  0  0  0  0  0  0  0
  -24.9630  -32.8269   19.7488 N   0  0  0  0  0  0  0  0  0  0  0  0
  -24.1208  -30.3255   25.7546 N   0  0  0  0  0  0  0  0  0  0  0  0
  -29.6914  -17.0040   18.3101 N   0  0  0  0  0  0  0  0  0  0  0  0
  -33.4740  -15.9685   16.3878 N   0  3  0  0  0  0  0  0  0  0  0  0
  -22.0353  -27.6055   26.9033 N   0  3  0  0  0  0  0  0  0  0  0  0
  -23.2147  -10.5209   16.8039 O   0  0  0  0  0  0  0  0  0  0  0  0
  -26.4295  -31.2529   20.6400 O   0  0  0  0  0  0  0  0  0  0  0  0
  -23.7981  -32.2596   23.6656 O   0  0  0  0  0  0  0  0  0  0  0  0
  -24.5483  -28.0467   25.7173 O   0  0  0  0  0  0  0  0  0  0  0  0
  -28.0083  -15.9308   17.1599 O   0  0  0  0  0  0  0  0  0  0  0  0
  -22.2764   -7.8736   24.0632 O   0  0  0  0  0  0  0  0  0  0  0  0
  -26.4294  -25.1661   19.8424 O   0  0  0  0  0  0  0  0  0  1  0  0
  -20.5229   -2.7948   22.8241 F   0  0  0  0  0  0  0  0  0  0  0  0
  -23.1867   -5.6758   25.4716 F   0  0  0  0  0  0  0  0  0  0  0  0
  1  2  1  0  0  0  0
  1  5  2  0  0  0  0
  2  6  2  0  0  0  0
  3 10  2  0  0  0  0
  3 20  1  0  0  0  0
  4 11  1  0  0  0  0
  4 20  2  0  0  0  0
  5 22  1  0  0  0  0
  6 24  1  0  0  0  0
  7 12  2  0  0  0  0
  7 23  1  0  0  0  0
  8  9  2  0  0  0  0
  8 26  1  0  0  0  0
  9 28  1  0  0  0  0
 10 29  1  0  0  0  0
 11 29  2  0  0  0  0
 12 30  1  0  0  0  0
 13 14  2  0  0  0  0
 13 31  1  0  0  0  0
 14 32  1  0  0  0  0
 15 19  1  0  0  0  0
 15 26  2  0  0  0  0
 16 25  1  0  0  0  0
 16 30  2  0  0  0  0
 17 27  2  0  0  0  0
 17 35  1  0  0  0  0
 18 32  2  0  0  0  0
 18 33  1  0  0  0  0
 19 27  1  0  0  0  0
 19 28  2  0  0  0  0
 20 34  1  0  0  0  0
 21 34  1  0  0  0  0
 21 36  2  0  0  0  0
 21 37  1  0  0  0  0
 22 24  2  0  0  0  0
 22 42  1  0  0  0  0
 23 25  2  0  0  0  0
 23 43  1  0  0  0  0
 24 51  1  0  0  0  0
 25 44  1  0  0  0  0
 26 60  1  0  0  0  0
 27 54  1  0  0  0  0
 28 68  1  0  0  0  0
 29 85  1  0  0  0  0
 30 86  1  0  0  0  0
 31 33  2  0  0  0  0
 31 85  1  0  0  0  0
 32 87  1  0  0  0  0
 33 88  1  0  0  0  0
 34 69  2  0  0  0  0
 35 61  1  0  0  0  0
 35 68  2  0  0  0  0
 36 70  1  0  0  0  0
 36 73  1  0  0  0  0
 37 74  1  0  0  0  0
 37 80  2  0  0  0  0
 38 52  1  0  0  0  0
 38 75  1  0  0  0  0
 38 81  2  0  0  0  0
 39 65  1  0  0  0  0
 39 71  1  0  0  0  0
 39 82  2  0  0  0  0
 40 66  1  0  0  0  0
 40 76  1  0  0  0  0
 40 83  2  0  0  0  0
 41 72  1  0  0  0  0
 41 77  1  0  0  0  0
 41 84  2  0  0  0  0
 42 45  1  0  0  0  0
 43 52  1  0  0  0  0
 44 71  1  0  0  0  0
 45 47  1  0  0  0  0
 46 48  1  0  0  0  0
 46 49  1  0  0  0  0
 47 51  1  0  0  0  0
 48 53  1  0  0  0  0
 49 72  1  0  0  0  0
 50 53  1  0  0  0  0
 50 72  1  0  0  0  0
 51 75  1  0  0  0  0
 52 71  1  0  0  0  0
 53 70  1  0  0  0  0
 55 66  1  0  0  0  0
 56 67  1  0  0  0  0
 57 67  1  0  0  0  0
 58 67  1  0  0  0  0
 59 79  1  0  0  0  0
 60 86  1  0  0  0  0
 61 77  1  0  0  0  0
 62 63  1  0  0  0  0
 62 64  1  0  0  0  0
 63 77  1  0  0  0  0
 64 78  1  0  0  0  0
 65 67  1  0  0  0  0
 65 76  1  0  0  0  0
 66 79  1  0  0  0  0
 69 70  1  0  0  0  0
M  CHG  2  78   1  79   1
M  ISO  4  41 100  60 101  77 100  86 101
M  END
> <Batch ID>
0111

> <Smiles>
CNC(C)C(=O)NC(C(=O)N1Cc2cc([101O:1][101CH2:1]c3ccc4nc(C[100N:0](CCCN)[100C:0](=O)N5CCCC(n6nc(-c7ccc(Oc8ccc(F)cc8F)cc7)c(C(N)=O)c6N)C5)cc(C)c4c3)ccc2CC1C(=O)NC1CCCc2ccccc21)C(C)(C)C

> <Shape>
0.280

> <Color>
0.108

> <Negative vol penalty>
0.000

$$$$

  -OEChem-04052320013D

 87 95  0     1  0  0  0  0  0999 V2000
  -29.0411  -32.7516   25.1755 C   0  0  0  0  0  0  0  0  0  0  0  0
  -28.8913  -31.4981   24.5909 C   0  0  0  0  0  0  0  0  0  0  0  0
  -26.8874  -13.0515   20.5179 C   0  0  0  0  0  0  0  0  0  0  0  0
  -25.5375  -14.8422   19.6187 C   0  0  0  0  0  0  0  0  0  0  0  0
  -27.9269  -33.4236   25.6764 C   0  0  0  0  0  0  0  0  0  0  0  0
  -27.6272  -30.9154   24.5079 C   0  0  0  0  0  0  0  0  0  0  0  0
  -26.7257  -28.8696   19.9640 C   0  0  0  0  0  0  0  0  0  0  0  0
  -29.5298  -21.6666   19.6473 C   0  0  0  0  0  0  0  0  0  0  0  0
  -25.8762  -12.1387   20.2181 C   0  0  0  0  0  0  0  0  0  0  0  0
  -24.5263  -13.9293   19.3189 C   0  0  0  0  0  0  0  0  0  0  0  0
  -27.3064  -27.6306   19.6970 C   0  0  0  0  0  0  0  0  0  0  0  0
  -23.5025   -9.3913   20.0169 C   0  0  0  0  0  0  0  0  0  0  0  0
  -23.1680   -8.4491   20.9895 C   0  0  0  0  0  0  0  0  0  0  0  0
  -29.6795  -21.2848   18.3187 C   0  0  0  0  0  0  0  0  0  0  0  0
  -25.2082  -26.5475   20.1903 C   0  0  0  0  0  0  0  0  0  0  0  0
  -22.5828  -10.2300   22.5136 C   0  0  0  0  0  0  0  0  0  0  0  0
  -26.7180  -14.4033   20.2182 C   0  0  0  0  0  0  0  0  0  0  0  0
  -28.8303  -15.7357   19.6980 C   0  0  0  0  0  0  0  0  0  0  0  0
  -26.6472  -32.8530   25.5908 C   0  0  0  0  0  0  0  0  0  0  0  0
  -25.3825  -28.9561   20.3574 C   0  0  0  0  0  0  0  0  0  0  0  0
  -26.4950  -31.5798   25.0094 C   0  0  0  0  0  0  0  0  0  0  0  0
  -24.6120  -27.7890   20.4593 C   0  0  0  0  0  0  0  0  0  0  0  0
  -29.1395  -22.9659   19.9516 C   0  0  0  0  0  0  0  0  0  0  0  0
  -24.6957  -12.5776   19.6186 C   0  0  0  0  0  0  0  0  0  0  0  0
  -26.5485  -26.4691   19.8129 C   0  0  0  0  0  0  0  0  0  0  0  0
  -23.3772  -10.7529   20.2927 C   0  0  0  0  0  0  0  0  0  0  0  0
  -22.7082   -8.8684   22.2378 C   0  0  0  0  0  0  0  0  0  0  0  0
  -22.9173  -11.1722   21.5410 C   0  0  0  0  0  0  0  0  0  0  0  0
  -27.7619  -15.3468   20.5282 C   0  0  0  0  0  0  0  0  0  0  0  0
  -29.4287  -22.2323   17.3394 C   0  0  0  0  0  0  0  0  0  0  0  0
  -28.9131  -23.8383   18.8992 C   0  0  0  0  0  0  0  0  0  0  0  0
  -29.5350  -16.6449   20.4485 C   0  0  0  0  0  0  0  0  0  0  0  0
  -29.1565  -15.3128   18.3674 C   0  0  0  0  0  0  0  0  0  0  0  0
  -23.8674  -29.9935   22.9521 C   0  0  0  0  0  0  0  0  0  0  0  0
  -21.2236  -29.4175   21.1630 C   0  0  0  0  0  0  0  0  0  0  0  0
  -19.7910  -27.7154   18.5751 C   0  0  0  0  0  0  0  0  0  0  0  0
  -28.0040  -20.2580   24.9710 C   0  0  0  0  0  0  0  0  0  0  0  0
  -25.4793  -33.5967   26.1888 C   0  0  0  0  0  0  0  0  0  0  0  0
  -24.7635  -30.3024   20.6160 C   0  0  0  0  0  0  0  0  0  0  0  0
  -23.1603  -27.8294   20.8585 C   0  0  0  0  0  0  0  0  0  0  0  0
  -24.1222  -33.0741   25.7246 C   0  0  0  0  0  0  0  0  0  0  0  0
  -30.5496  -17.7688   24.9870 C   0  0  0  0  0  0  0  0  0  0  0  0
  -24.0826  -31.5511   25.7999 C   0  0  0  0  0  0  0  0  0  0  0  0
  -30.2202  -16.9009   23.7712 C   0  0  0  0  0  0  0  0  0  0  0  0
  -29.2854  -18.2626   25.6871 C   0  0  0  0  0  0  0  0  0  0  0  0
  -27.9941  -18.0893   23.5951 C   0  0  0  0  0  0  0  0  0  0  0  0
  -25.1367  -30.9255   24.8785 C   0  0  1  0  0  0  0  0  0  0  0  0
  -23.5278  -30.2306   21.5078 C   0  0  1  0  0  0  0  0  0  0  0  0
  -29.2369  -17.6136   22.8234 C   0  0  2  0  0  0  0  0  0  0  0  0
  -29.5780  -21.8562   15.9029 C   0  0  0  0  0  0  0  0  0  0  0  0
  -17.6049  -27.4272   17.3772 C   0  0  0  0  0  0  0  0  0  0  0  0
  -26.3229  -26.5921   25.0533 C   0  0  0  0  0  0  0  0  0  0  0  0
  -28.1545  -25.0612   25.8018 C   0  0  0  0  0  0  0  0  0  0  0  0
  -20.1876  -27.7100   23.4698 C   0  0  0  0  0  0  0  0  0  0  0  0
  -18.5207  -26.7121   21.8906 C   0  0  0  0  0  0  0  0  0  0  0  0
  -18.4599  -29.1565   22.3846 C   0  0  0  0  0  0  0  0  0  0  0  0
  -20.9326  -28.6748   16.0186 C   0  0  0  0  0  0  0  0  0  0  0  0
  -28.9787  -23.3812   21.3730 C   0  0  0  0  0  0  0  0  0  0  0  0
  -28.4868  -25.2517   19.1673 C   0  0  0  0  0  0  0  0  0  1  0  0
  -27.0688  -24.6459   23.5735 C   0  0  0  0  0  0  0  0  0  0  0  0
  -26.6819  -22.1766   24.1165 C   0  0  0  0  0  0  0  0  0  0  0  0
  -20.3191  -28.2289   20.9440 C   0  0  1  0  0  0  0  0  0  0  0  0
  -18.9242  -28.1823   17.4196 C   0  0  2  0  0  0  0  0  0  0  0  0
  -26.8445  -25.1555   25.0132 C   0  0  0  0  0  0  0  0  0  0  0  0
  -27.5937  -23.2069   23.4443 C   0  0  1  0  0  0  0  0  0  0  0  0
  -19.3997  -27.9506   22.1666 C   0  0  0  0  0  0  0  0  0  0  0  0
  -27.7821  -15.9588   21.7152 N   0  0  0  0  0  0  0  0  0  0  0  0
  -29.0480  -23.5037   17.5963 N   0  0  0  0  0  0  0  0  0  0  0  0
  -28.8719  -16.7414   21.6364 N   0  0  0  0  0  0  0  0  0  0  0  0
  -22.6024  -29.1690   21.1069 N   0  0  0  0  0  0  0  0  0  0  0  0
  -28.3963  -18.9303   24.7334 N   0  0  0  0  0  0  0  0  0  0  0  0
  -30.6510  -17.3632   20.2016 N   0  0  0  0  0  0  0  0  0  0  0  0
  -28.3262  -14.3722   17.7428 N   0  0  0  0  0  0  0  0  0  0  0  0
  -24.6890  -30.9585   23.5027 N   0  0  0  0  0  0  0  0  0  0  0  0
  -19.5993  -28.4871   19.7016 N   0  0  0  0  0  0  0  0  0  0  0  0
  -27.1656  -20.8178   24.0146 N   0  0  0  0  0  0  0  0  0  0  0  0
  -19.6294  -27.9694   16.1241 N   0  3  0  0  0  0  0  0  0  0  0  0
  -27.7413  -22.8493   22.0098 N   0  3  0  0  0  0  0  0  0  0  0  0
  -30.1640  -15.7437   17.7568 O   0  0  0  0  0  0  0  0  0  0  0  0
  -23.4162  -29.0087   23.5250 O   0  0  0  0  0  0  0  0  0  0  0  0
  -20.7252  -30.5269   21.3690 O   0  0  0  0  0  0  0  0  0  0  0  0
  -20.5584  -26.7594   18.4882 O   0  0  0  0  0  0  0  0  0  0  0  0
  -28.3777  -20.8988   25.9592 O   0  0  0  0  0  0  0  0  0  0  0  0
  -23.7089  -11.6871   19.3257 O   0  0  0  0  0  0  0  0  0  0  0  0
  -27.1131  -25.2584   19.5535 O   0  0  0  0  0  0  0  0  0  1  0  0
  -22.3856   -7.9635   23.1712 F   0  0  0  0  0  0  0  0  0  0  0  0
  -22.7938  -12.4789   21.8113 F   0  0  0  0  0  0  0  0  0  0  0  0
  1  2  1  0  0  0  0
  1  5  2  0  0  0  0
  2  6  2  0  0  0  0
  3  9  2  0  0  0  0
  3 17  1  0  0  0  0
  4 10  1  0  0  0  0
  4 17  2  0  0  0  0
  5 19  1  0  0  0  0
  6 21  1  0  0  0  0
  7 11  2  0  0  0  0
  7 20  1  0  0  0  0
  8 14  2  0  0  0  0
  8 23  1  0  0  0  0
  9 24  1  0  0  0  0
 10 24  2  0  0  0  0
 11 25  1  0  0  0  0
 12 13  2  0  0  0  0
 12 26  1  0  0  0  0
 13 27  1  0  0  0  0
 14 30  1  0  0  0  0
 15 22  1  0  0  0  0
 15 25  2  0  0  0  0
 16 27  2  0  0  0  0
 16 28  1  0  0  0  0
 17 29  1  0  0  0  0
 18 29  1  0  0  0  0
 18 32  2  0  0  0  0
 18 33  1  0  0  0  0
 19 21  2  0  0  0  0
 19 38  1  0  0  0  0
 20 22  2  0  0  0  0
 20 39  1  0  0  0  0
 21 47  1  0  0  0  0
 22 40  1  0  0  0  0
 23 31  2  0  0  0  0
 23 58  1  0  0  0  0
 24 84  1  0  0  0  0
 25 85  1  0  0  0  0
 26 28  2  0  0  0  0
 26 84  1  0  0  0  0
 27 86  1  0  0  0  0
 28 87  1  0  0  0  0
 29 67  2  0  0  0  0
 30 50  1  0  0  0  0
 30 68  2  0  0  0  0
 31 59  1  0  0  0  0
 31 68  1  0  0  0  0
 32 69  1  0  0  0  0
 32 72  1  0  0  0  0
 33 73  1  0  0  0  0
 33 79  2  0  0  0  0
 34 48  1  0  0  0  0
 34 74  1  0  0  0  0
 34 80  2  0  0  0  0
 35 62  1  0  0  0  0
 35 70  1  0  0  0  0
 35 81  2  0  0  0  0
 36 63  1  0  0  0  0
 36 75  1  0  0  0  0
 36 82  2  0  0  0  0
 37 71  1  0  0  0  0
 37 76  1  0  0  0  0
 37 83  2  0  0  0  0
 38 41  1  0  0  0  0
 39 48  1  0  0  0  0
 40 70  1  0  0  0  0
 41 43  1  0  0  0  0
 42 44  1  0  0  0  0
 42 45  1  0  0  0  0
 43 47  1  0  0  0  0
 44 49  1  0  0  0  0
 45 71  1  0  0  0  0
 46 49  1  0  0  0  0
 46 71  1  0  0  0  0
 47 74  1  0  0  0  0
 48 70  1  0  0  0  0
 49 69  1  0  0  0  0
 51 63  1  0  0  0  0
 52 64  1  0  0  0  0
 53 64  1  0  0  0  0
 54 66  1  0  0  0  0
 55 66  1  0  0  0  0
 56 66  1  0  0  0  0
 57 77  1  0  0  0  0
 58 78  1  0  0  0  0
 59 85  1  0  0  0  0
 60 64  1  0  0  0  0
 60 65  1  0  0  0  0
 61 65  1  0  0  0  0
 61 76  1  0  0  0  0
 62 66  1  0  0  0  0
 62 75  1  0  0  0  0
 63 77  1  0  0  0  0
 65 78  1  0  0  0  0
 67 69  1  0  0  0  0
M  CHG  2  77   1  78   1
M  ISO  4  37 100  59 101  76 100  85 101
M  END
> <Batch ID>
0111

> <Smiles>
CNC(C)C(=O)NC(C(=O)N1Cc2cc([101O:1][101CH2:1]c3nc(C)ccc3CNC(C[100NH:0][100C:0](=O)N3CCCC(n4nc(-c5ccc(Oc6ccc(F)cc6F)cc5)c(C(N)=O)c4N)C3)CC(C)C)ccc2CC1C(=O)NC1CCCc2ccccc21)C(C)(C)C

> <Shape>
0.295

> <Color>
0.069

> <Negative vol penalty>
0.000

$$$$

  -OEChem-04052320013D

 84 92  0     1  0  0  0  0  0999 V2000
  -36.6317  -17.6224   21.0361 C   0  0  0  0  0  0  0  0  0  0  0  0
  -35.7776  -18.6169   21.5017 C   0  0  0  0  0  0  0  0  0  0  0  0
  -23.0020   -9.8913   19.9825 C   0  0  0  0  0  0  0  0  0  0  0  0
  -23.7308   -9.9442   22.2854 C   0  0  0  0  0  0  0  0  0  0  0  0
  -37.9167  -17.9529   20.6080 C   0  0  0  0  0  0  0  0  0  0  0  0
  -36.2085  -19.9425   21.5405 C   0  0  0  0  0  0  0  0  0  0  0  0
  -32.7297  -23.1687   19.7699 C   0  0  0  0  0  0  0  0  0  0  0  0
  -22.2380   -8.7555   20.2504 C   0  0  0  0  0  0  0  0  0  0  0  0
  -22.9667   -8.8084   22.5533 C   0  0  0  0  0  0  0  0  0  0  0  0
  -31.6731  -23.4949   20.6191 C   0  0  0  0  0  0  0  0  0  0  0  0
  -23.2163   -5.4698   22.0818 C   0  0  0  0  0  0  0  0  0  0  0  0
  -23.8069   -4.4538   22.8332 C   0  0  0  0  0  0  0  0  0  0  0  0
  -32.7726  -25.5672   21.1811 C   0  0  0  0  0  0  0  0  0  0  0  0
  -22.0853   -4.6940   24.5111 C   0  0  0  0  0  0  0  0  0  0  0  0
  -23.7485  -10.4857   21.0001 C   0  0  0  0  0  0  0  0  0  0  0  0
  -24.1290  -13.0019   20.8228 C   0  0  0  0  0  0  0  0  0  0  0  0
  -38.3603  -19.2845   20.6325 C   0  0  0  0  0  0  0  0  0  0  0  0
  -33.8226  -24.0358   19.6281 C   0  0  0  0  0  0  0  0  0  0  0  0
  -37.5012  -20.2910   21.1135 C   0  0  0  0  0  0  0  0  0  0  0  0
  -33.8405  -25.2509   20.3276 C   0  0  0  0  0  0  0  0  0  0  0  0
  -22.2203   -8.2141   21.5357 C   0  0  0  0  0  0  0  0  0  0  0  0
  -31.6958  -24.6929   21.3271 C   0  0  0  0  0  0  0  0  0  0  0  0
  -22.0602   -6.0979   22.5450 C   0  0  0  0  0  0  0  0  0  0  0  0
  -23.2414   -4.0659   24.0478 C   0  0  0  0  0  0  0  0  0  0  0  0
  -21.4947   -5.7100   23.7597 C   0  0  0  0  0  0  0  0  0  0  0  0
  -24.5384  -11.6586   20.7239 C   0  0  0  0  0  0  0  0  0  0  0  0
  -25.2369  -13.7264   20.4565 C   0  0  0  0  0  0  0  0  0  0  0  0
  -22.8607  -13.5461   21.2112 C   0  0  0  0  0  0  0  0  0  0  0  0
  -36.9392  -23.8316   20.2185 C   0  0  0  0  0  0  0  0  0  0  0  0
  -37.0062  -26.7383   18.7800 C   0  0  0  0  0  0  0  0  0  0  0  0
  -35.3309  -29.5844   17.9198 C   0  0  0  0  0  0  0  0  0  0  0  0
  -30.7319  -14.6710   20.6960 C   0  0  0  0  0  0  0  0  0  0  0  0
  -39.7744  -19.5867   20.2038 C   0  0  0  0  0  0  0  0  0  0  0  0
  -34.9418  -23.6816   18.6876 C   0  0  0  0  0  0  0  0  0  0  0  0
  -34.9810  -26.2256   20.1947 C   0  0  0  0  0  0  0  0  0  0  0  0
  -40.0233  -21.0668   19.9255 C   0  0  0  0  0  0  0  0  0  0  0  0
  -29.5919  -12.2447   18.3529 C   0  0  0  0  0  0  0  0  0  0  0  0
  -39.4426  -21.9255   21.0444 C   0  0  0  0  0  0  0  0  0  0  0  0
  -30.7531  -21.9316   21.6789 C   0  0  0  0  0  0  0  0  0  0  0  0
  -31.6530  -20.8031   23.7511 C   0  0  0  0  0  0  0  0  0  0  0  0
  -30.0742  -20.6277   21.2637 C   0  0  0  0  0  0  0  0  0  0  0  0
  -30.9737  -19.4993   23.3358 C   0  0  0  0  0  0  0  0  0  0  0  0
  -28.1445  -11.9824   18.7729 C   0  0  0  0  0  0  0  0  0  0  0  0
  -30.4958  -12.4820   19.5606 C   0  0  0  0  0  0  0  0  0  0  0  0
  -28.5864  -13.2744   20.9023 C   0  0  0  0  0  0  0  0  0  0  0  0
  -37.9234  -21.7438   21.1476 C   0  0  1  0  0  0  0  0  0  0  0  0
  -36.2465  -24.4020   19.0134 C   0  0  1  0  0  0  0  0  0  0  0  0
  -30.9118  -22.0285   23.2017 C   0  0  0  0  0  0  0  0  0  0  0  0
  -30.8157  -19.4024   21.8132 C   0  0  0  0  0  0  0  0  0  0  0  0
  -27.6258  -13.0847   19.7159 C   0  0  2  0  0  0  0  0  0  0  0  0
  -35.6608  -31.7968   16.7824 C   0  0  0  0  0  0  0  0  0  0  0  0
  -38.4632  -27.7867   21.2474 C   0  0  0  0  0  0  0  0  0  0  0  0
  -37.9218  -30.1119   20.4933 C   0  0  0  0  0  0  0  0  0  0  0  0
  -39.3493  -28.6418   19.0707 C   0  0  0  0  0  0  0  0  0  0  0  0
  -29.3488  -24.3514   24.0298 C   0  0  0  0  0  0  0  0  0  0  0  0
  -31.4285  -25.7157   24.3144 C   0  0  0  0  0  0  0  0  0  0  0  0
  -33.3185  -28.9489   15.8449 C   0  0  0  0  0  0  0  0  0  0  0  0
  -31.6382  -23.3155   23.5875 C   0  0  0  0  0  0  0  0  0  0  0  0
  -30.8126  -16.8503   21.8805 C   0  0  0  0  0  0  0  0  0  0  0  0
  -36.8725  -28.1668   19.2495 C   0  0  1  0  0  0  0  0  0  0  0  0
  -35.2438  -30.3447   16.6087 C   0  0  2  0  0  0  0  0  0  0  0  0
  -30.0905  -18.1148   21.4269 C   0  0  2  0  0  0  0  0  0  0  0  0
  -38.1310  -28.6578   20.0194 C   0  0  0  0  0  0  0  0  0  0  0  0
  -30.7696  -24.5869   23.5149 C   0  0  0  0  0  0  0  0  0  1  0  0
  -25.8073  -11.5343   20.3257 N   0  0  0  0  0  0  0  0  0  0  0  0
  -26.2047  -12.8088   20.1711 N   0  0  0  0  0  0  0  0  0  0  0  0
  -36.0547  -25.8313   19.2678 N   0  0  0  0  0  0  0  0  0  0  0  0
  -29.9484  -13.5399   20.4134 N   0  0  0  0  0  0  0  0  0  0  0  0
  -25.4678  -15.0525   20.3537 N   0  0  0  0  0  0  0  0  0  0  0  0
  -21.8310  -12.6602   21.5566 N   0  0  0  0  0  0  0  0  0  0  0  0
  -37.2531  -22.4907   20.1049 N   0  0  0  0  0  0  0  0  0  0  0  0
  -36.5499  -28.9569   18.0663 N   0  0  0  0  0  0  0  0  0  0  0  0
  -30.1351  -15.6289   21.5065 N   0  0  0  0  0  0  0  0  0  0  0  0
  -29.9333  -18.0928   19.9475 N   0  3  0  0  0  0  0  0  0  0  0  0
  -33.8490  -30.3156   16.0848 N   0  3  0  0  0  0  0  0  0  0  0  0
  -22.6418  -14.7810   21.2350 O   0  0  0  0  0  0  0  0  0  0  0  0
  -37.1730  -24.5549   21.1797 O   0  0  0  0  0  0  0  0  0  0  0  0
  -37.9168  -26.4396   18.0034 O   0  0  0  0  0  0  0  0  0  0  0  0
  -34.4110  -29.5535   18.7342 O   0  0  0  0  0  0  0  0  0  0  0  0
  -31.8764  -14.8188   20.2540 O   0  0  0  0  0  0  0  0  0  0  0  0
  -21.4747   -7.1059   21.7975 O   0  0  0  0  0  0  0  0  0  0  0  0
  -30.6662  -25.0135   22.1571 O   0  0  0  0  0  0  0  0  0  1  0  0
  -23.8077   -3.0892   24.7686 F   0  0  0  0  0  0  0  0  0  0  0  0
  -20.3834   -6.3090   24.2093 F   0  0  0  0  0  0  0  0  0  0  0  0
  1  2  1  0  0  0  0
  1  5  2  0  0  0  0
  2  6  2  0  0  0  0
  3  8  2  0  0  0  0
  3 15  1  0  0  0  0
  4  9  1  0  0  0  0
  4 15  2  0  0  0  0
  5 17  1  0  0  0  0
  6 19  1  0  0  0  0
  7 10  2  0  0  0  0
  7 18  1  0  0  0  0
  8 21  1  0  0  0  0
  9 21  2  0  0  0  0
 10 22  1  0  0  0  0
 11 12  2  0  0  0  0
 11 23  1  0  0  0  0
 12 24  1  0  0  0  0
 13 20  1  0  0  0  0
 13 22  2  0  0  0  0
 14 24  2  0  0  0  0
 14 25  1  0  0  0  0
 15 26  1  0  0  0  0
 16 26  1  0  0  0  0
 16 27  2  0  0  0  0
 16 28  1  0  0  0  0
 17 19  2  0  0  0  0
 17 33  1  0  0  0  0
 18 20  2  0  0  0  0
 18 34  1  0  0  0  0
 19 46  1  0  0  0  0
 20 35  1  0  0  0  0
 21 81  1  0  0  0  0
 22 82  1  0  0  0  0
 23 25  2  0  0  0  0
 23 81  1  0  0  0  0
 24 83  1  0  0  0  0
 25 84  1  0  0  0  0
 26 65  2  0  0  0  0
 27 66  1  0  0  0  0
 27 69  1  0  0  0  0
 28 70  1  0  0  0  0
 28 76  2  0  0  0  0
 29 47  1  0  0  0  0
 29 71  1  0  0  0  0
 29 77  2  0  0  0  0
 30 60  1  0  0  0  0
 30 67  1  0  0  0  0
 30 78  2  0  0  0  0
 31 61  1  0  0  0  0
 31 72  1  0  0  0  0
 31 79  2  0  0  0  0
 32 68  1  0  0  0  0
 32 73  1  0  0  0  0
 32 80  2  0  0  0  0
 33 36  1  0  0  0  0
 34 47  1  0  0  0  0
 35 67  1  0  0  0  0
 36 38  1  0  0  0  0
 37 43  1  0  0  0  0
 37 44  1  0  0  0  0
 38 46  1  0  0  0  0
 39 41  1  0  0  0  0
 39 48  1  0  0  0  0
 40 42  1  0  0  0  0
 40 48  1  0  0  0  0
 41 49  1  0  0  0  0
 42 49  1  0  0  0  0
 43 50  1  0  0  0  0
 44 68  1  0  0  0  0
 45 50  1  0  0  0  0
 45 68  1  0  0  0  0
 46 71  1  0  0  0  0
 47 67  1  0  0  0  0
 48 58  1  0  0  0  0
 49 62  1  0  0  0  0
 50 66  1  0  0  0  0
 51 61  1  0  0  0  0
 52 63  1  0  0  0  0
 53 63  1  0  0  0  0
 54 63  1  0  0  0  0
 55 64  1  0  0  0  0
 56 64  1  0  0  0  0
 57 75  1  0  0  0  0
 58 64  1  0  0  0  0
 59 62  1  0  0  0  0
 59 73  1  0  0  0  0
 60 63  1  0  0  0  0
 60 72  1  0  0  0  0
 61 75  1  0  0  0  0
 62 74  1  0  0  0  0
 64 82  1  0  0  0  0
 65 66  1  0  0  0  0
M  CHG  2  74   1  75   1
M  ISO  4  32 100  64 101  73 100  82 101
M  END
> <Batch ID>
0111

> <Smiles>
CNC(C)C(=O)NC(C(=O)N1Cc2cc([101O:1][101C:1](C)(C)CC3CCC(C(N)C[100NH:0][100C:0](=O)N4CCCC(n5nc(-c6ccc(Oc7ccc(F)cc7F)cc6)c(C(N)=O)c5N)C4)CC3)ccc2CC1C(=O)NC1CCCc2ccccc21)C(C)(C)C

> <Shape>
0.191

> <Color>
0.193

> <Negative vol penalty>
0.000

$$$$

  -OEChem-04052320013D

 86 94  0     1  0  0  0  0  0999 V2000
  -25.7093  -35.2842   22.5202 C   0  0  0  0  0  0  0  0  0  0  0  0
  -26.3233  -34.0434   22.3828 C   0  0  0  0  0  0  0  0  0  0  0  0
  -22.1574  -10.9780   21.3777 C   0  0  0  0  0  0  0  0  0  0  0  0
  -24.5039  -10.4048   21.4237 C   0  0  0  0  0  0  0  0  0  0  0  0
  -24.4217  -35.3689   23.0482 C   0  0  0  0  0  0  0  0  0  0  0  0
  -25.6504  -32.8866   22.7746 C   0  0  0  0  0  0  0  0  0  0  0  0
  -26.0674  -29.1525   19.3794 C   0  0  0  0  0  0  0  0  0  0  0  0
  -21.8293   -9.6265   21.2709 C   0  0  0  0  0  0  0  0  0  0  0  0
  -24.1759   -9.0533   21.3170 C   0  0  0  0  0  0  0  0  0  0  0  0
  -27.2657  -28.4402   19.3602 C   0  0  0  0  0  0  0  0  0  0  0  0
  -21.5965   -6.9501   23.3241 C   0  0  0  0  0  0  0  0  0  0  0  0
  -20.5653   -6.4677   24.1300 C   0  0  0  0  0  0  0  0  0  0  0  0
  -26.2274  -26.6708   20.6292 C   0  0  0  0  0  0  0  0  0  0  0  0
  -29.0320  -19.1066   22.0872 C   0  0  0  0  0  0  0  0  0  0  0  0
  -19.3286   -5.8183   22.1587 C   0  0  0  0  0  0  0  0  0  0  0  0
  -29.6399  -21.2921   20.5707 C   0  0  0  0  0  0  0  0  0  0  0  0
  -23.4947  -11.3672   21.4540 C   0  0  0  0  0  0  0  0  0  0  0  0
  -23.9934  -13.5089   22.7471 C   0  0  0  0  0  0  0  0  0  0  0  0
  -23.7289  -34.2117   23.4377 C   0  0  0  0  0  0  0  0  0  0  0  0
  -24.9412  -28.6333   20.0340 C   0  0  0  0  0  0  0  0  0  0  0  0
  -24.3528  -32.9560   23.3096 C   0  0  0  0  0  0  0  0  0  0  0  0
  -25.0152  -27.3773   20.6530 C   0  0  0  0  0  0  0  0  0  0  0  0
  -29.8436  -20.1021   22.6198 C   0  0  0  0  0  0  0  0  0  0  0  0
  -30.1581  -21.2189   21.8537 C   0  0  0  0  0  0  0  0  0  0  0  0
  -22.8385   -8.6642   21.2407 C   0  0  0  0  0  0  0  0  0  0  0  0
  -27.3467  -27.2005   19.9876 C   0  0  0  0  0  0  0  0  0  0  0  0
  -21.4938   -6.8666   21.9355 C   0  0  0  0  0  0  0  0  0  0  0  0
  -19.4313   -5.9018   23.5473 C   0  0  0  0  0  0  0  0  0  0  0  0
  -20.3598   -6.3007   21.3528 C   0  0  0  0  0  0  0  0  0  0  0  0
  -23.8342  -12.7632   21.5637 C   0  0  0  0  0  0  0  0  0  0  0  0
  -28.5640  -19.2745   20.7939 C   0  0  0  0  0  0  0  0  0  0  0  0
  -24.3116  -14.7735   22.3158 C   0  0  0  0  0  0  0  0  0  0  0  0
  -23.8651  -13.0955   24.1139 C   0  0  0  0  0  0  0  0  0  0  0  0
  -23.1470  -29.5613   22.4883 C   0  0  0  0  0  0  0  0  0  0  0  0
  -21.3329  -27.0155   21.6219 C   0  0  0  0  0  0  0  0  0  0  0  0
  -21.1493  -23.9856   20.0622 C   0  0  0  0  0  0  0  0  0  0  0  0
  -27.1609  -18.2129   18.9909 C   0  0  0  0  0  0  0  0  0  0  0  0
  -22.3571  -34.3575   24.0472 C   0  0  0  0  0  0  0  0  0  0  0  0
  -23.6483  -29.4019   20.0227 C   0  0  0  0  0  0  0  0  0  0  0  0
  -23.8291  -26.7666   21.3521 C   0  0  0  0  0  0  0  0  0  0  0  0
  -21.5677  -33.0516   24.0900 C   0  0  0  0  0  0  0  0  0  0  0  0
  -24.1611  -16.8094   17.6839 C   0  0  0  0  0  0  0  0  0  0  0  0
  -22.4406  -31.9172   24.6173 C   0  0  0  0  0  0  0  0  0  0  0  0
  -23.8217  -15.6929   18.6741 C   0  0  0  0  0  0  0  0  0  0  0  0
  -25.6680  -16.9373   17.4681 C   0  0  0  0  0  0  0  0  0  0  0  0
  -26.1216  -15.9651   19.6858 C   0  0  0  0  0  0  0  0  0  0  0  0
  -23.6457  -31.6763   23.7002 C   0  0  1  0  0  0  0  0  0  0  0  0
  -22.7104  -29.0103   21.1603 C   0  0  1  0  0  0  0  0  0  0  0  0
  -24.6187  -15.8409   19.9850 C   0  0  2  0  0  0  0  0  0  0  0  0
  -30.3638  -19.9523   24.0110 C   0  0  0  0  0  0  0  0  0  0  0  0
  -19.5421  -22.1273   19.5511 C   0  0  0  0  0  0  0  0  0  0  0  0
  -21.5483  -26.0397   24.5048 C   0  0  0  0  0  0  0  0  0  0  0  0
  -20.7741  -23.7892   23.7275 C   0  0  0  0  0  0  0  0  0  0  0  0
  -19.2827  -25.7734   23.4798 C   0  0  0  0  0  0  0  0  0  0  0  0
  -21.4588  -24.3644   17.1434 C   0  0  0  0  0  0  0  0  0  0  0  0
  -32.8043  -26.1738   23.0651 C   0  0  0  0  0  0  0  0  0  0  0  0
  -31.0335  -22.3275   22.3813 C   0  0  0  0  0  0  0  0  0  0  0  0
  -30.3017  -23.3108   23.3043 C   0  0  0  0  0  0  0  0  0  0  0  0
  -30.8251  -26.4717   20.6171 C   0  0  0  0  0  0  0  0  0  0  0  0
  -31.1407  -24.4789   23.8136 C   0  0  0  0  0  0  0  0  0  0  0  0
  -30.5208  -26.1470   22.0718 C   0  0  0  0  0  0  0  0  0  0  0  0
  -29.7232  -27.2618   19.9218 C   0  0  0  0  0  0  0  0  0  1  0  0
  -21.3067  -25.5496   21.9815 C   0  0  1  0  0  0  0  0  0  0  0  0
  -20.1566  -23.4281   19.0581 C   0  0  2  0  0  0  0  0  0  0  0  0
  -20.7510  -25.3001   23.4120 C   0  0  0  0  0  0  0  0  0  0  0  0
  -28.8481  -20.3453   20.0191 N   0  0  0  0  0  0  0  0  0  0  0  0
  -24.0347  -13.4932   20.4633 N   0  0  0  0  0  0  0  0  0  0  0  0
  -24.3229  -14.7109   20.9534 N   0  0  0  0  0  0  0  0  0  0  0  0
  -22.5891  -27.5597   21.3190 N   0  0  0  0  0  0  0  0  0  0  0  0
  -26.3568  -17.0783   18.7528 N   0  0  0  0  0  0  0  0  0  0  0  0
  -24.5799  -15.9219   22.9729 N   0  0  0  0  0  0  0  0  0  0  0  0
  -23.5329  -11.7600   24.3796 N   0  0  0  0  0  0  0  0  0  0  0  0
  -27.7390  -18.2540   20.2593 N   0  0  0  0  0  0  0  0  0  0  0  0
  -23.2443  -30.9393   22.5212 N   0  0  0  0  0  0  0  0  0  0  0  0
  -20.5548  -24.8832   20.9237 N   0  0  0  0  0  0  0  0  0  0  0  0
  -20.8302  -23.1654   17.7549 N   0  3  0  0  0  0  0  0  0  0  0  0
  -31.6116  -25.3387   22.6653 N   0  3  1  0  0  0  0  0  0  0  0  0
  -24.0238  -13.8907   25.0710 O   0  0  0  0  0  0  0  0  0  0  0  0
  -23.3771  -28.7931   23.4150 O   0  0  0  0  0  0  0  0  0  0  0  0
  -20.2768  -27.6526   21.6033 O   0  0  0  0  0  0  0  0  0  0  0  0
  -22.3328  -23.6549   20.0828 O   0  0  0  0  0  0  0  0  0  0  0  0
  -27.3027  -19.0974   18.1426 O   0  0  0  0  0  0  0  0  0  0  0  0
  -22.5188   -7.3452   21.1368 O   0  0  0  0  0  0  0  0  0  0  0  0
  -28.5154  -26.5035   19.9710 O   0  0  0  0  0  0  0  0  0  1  0  0
  -18.4418   -5.4373   24.3214 F   0  0  0  0  0  0  0  0  0  0  0  0
  -20.2559   -6.2167   20.0194 F   0  0  0  0  0  0  0  0  0  0  0  0
  1  2  1  0  0  0  0
  1  5  2  0  0  0  0
  2  6  2  0  0  0  0
  3  8  2  0  0  0  0
  3 17  1  0  0  0  0
  4  9  1  0  0  0  0
  4 17  2  0  0  0  0
  5 19  1  0  0  0  0
  6 21  1  0  0  0  0
  7 10  2  0  0  0  0
  7 20  1  0  0  0  0
  8 25  1  0  0  0  0
  9 25  2  0  0  0  0
 10 26  1  0  0  0  0
 11 12  2  0  0  0  0
 11 27  1  0  0  0  0
 12 28  1  0  0  0  0
 13 22  1  0  0  0  0
 13 26  2  0  0  0  0
 14 23  1  0  0  0  0
 14 31  2  0  0  0  0
 15 28  2  0  0  0  0
 15 29  1  0  0  0  0
 16 24  1  0  0  0  0
 16 66  2  0  0  0  0
 17 30  1  0  0  0  0
 18 30  1  0  0  0  0
 18 32  2  0  0  0  0
 18 33  1  0  0  0  0
 19 21  2  0  0  0  0
 19 38  1  0  0  0  0
 20 22  2  0  0  0  0
 20 39  1  0  0  0  0
 21 47  1  0  0  0  0
 22 40  1  0  0  0  0
 23 24  2  0  0  0  0
 23 50  1  0  0  0  0
 24 57  1  0  0  0  0
 25 83  1  0  0  0  0
 26 84  1  0  0  0  0
 27 29  2  0  0  0  0
 27 83  1  0  0  0  0
 28 85  1  0  0  0  0
 29 86  1  0  0  0  0
 30 67  2  0  0  0  0
 31 66  1  0  0  0  0
 31 73  1  0  0  0  0
 32 68  1  0  0  0  0
 32 71  1  0  0  0  0
 33 72  1  0  0  0  0
 33 78  2  0  0  0  0
 34 48  1  0  0  0  0
 34 74  1  0  0  0  0
 34 79  2  0  0  0  0
 35 63  1  0  0  0  0
 35 69  1  0  0  0  0
 35 80  2  0  0  0  0
 36 64  1  0  0  0  0
 36 75  1  0  0  0  0
 36 81  2  0  0  0  0
 37 70  1  0  0  0  0
 37 73  1  0  0  0  0
 37 82  2  0  0  0  0
 38 41  1  0  0  0  0
 39 48  1  0  0  0  0
 40 69  1  0  0  0  0
 41 43  1  0  0  0  0
 42 44  1  0  0  0  0
 42 45  1  0  0  0  0
 43 47  1  0  0  0  0
 44 49  1  0  0  0  0
 45 70  1  0  0  0  0
 46 49  1  0  0  0  0
 46 70  1  0  0  0  0
 47 74  1  0  0  0  0
 48 69  1  0  0  0  0
 49 68  1  0  0  0  0
 51 64  1  0  0  0  0
 52 65  1  0  0  0  0
 53 65  1  0  0  0  0
 54 65  1  0  0  0  0
 55 76  1  0  0  0  0
 56 77  1  0  0  0  0
 57 58  1  0  0  0  0
 58 60  1  0  0  0  0
 59 61  1  0  0  0  0
 59 62  1  0  0  0  0
 60 77  1  0  0  0  0
 61 77  1  0  0  0  0
 62 84  1  0  0  0  0
 63 65  1  0  0  0  0
 63 75  1  0  0  0  0
 64 76  1  0  0  0  0
 67 68  1  0  0  0  0
M  CHG  2  76   1  77   1
M  ISO  4  37 100  62 101  73 100  84 101
M  END
> <Batch ID>
0111

> <Smiles>
CNC(C)C(=O)NC(C(=O)N1Cc2cc([101O:1][101CH2:1]CCN(C)CCCc3cnc([100NH:0][100C:0](=O)N4CCCC(n5nc(-c6ccc(Oc7ccc(F)cc7F)cc6)c(C(N)=O)c5N)C4)cc3C)ccc2CC1C(=O)NC1CCCc2ccccc21)C(C)(C)C

> <Shape>
0.247

> <Color>
0.086

> <Negative vol penalty>
0.000

$$$$

  -OEChem-04052320013D

 80 88  0     1  0  0  0  0  0999 V2000
  -17.0551  -30.2305   23.4881 C   0  0  0  0  0  0  0  0  0  0  0  0
  -18.3306  -30.7524   23.2975 C   0  0  0  0  0  0  0  0  0  0  0  0
  -24.1944  -18.1207   20.1683 C   0  0  0  0  0  0  0  0  0  0  0  0
  -25.1083  -17.0121   22.1107 C   0  0  0  0  0  0  0  0  0  0  0  0
  -16.8615  -28.8498   23.4918 C   0  0  0  0  0  0  0  0  0  0  0  0
  -19.4134  -29.8937   23.1115 C   0  0  0  0  0  0  0  0  0  0  0  0
  -25.6692  -29.4665   19.6477 C   0  0  0  0  0  0  0  0  0  0  0  0
  -23.3382  -17.0405   19.9546 C   0  0  0  0  0  0  0  0  0  0  0  0
  -24.2520  -15.9319   21.8970 C   0  0  0  0  0  0  0  0  0  0  0  0
  -27.0165  -29.1991   19.8865 C   0  0  0  0  0  0  0  0  0  0  0  0
  -24.1068  -13.2315   19.8679 C   0  0  0  0  0  0  0  0  0  0  0  0
  -24.6449  -11.9484   19.9673 C   0  0  0  0  0  0  0  0  0  0  0  0
  -26.5502  -26.8330   19.8329 C   0  0  0  0  0  0  0  0  0  0  0  0
  -23.0997  -11.4387   21.7532 C   0  0  0  0  0  0  0  0  0  0  0  0
  -25.0795  -18.1065   21.2463 C   0  0  0  0  0  0  0  0  0  0  0  0
  -25.7095  -20.3690   22.2423 C   0  0  0  0  0  0  0  0  0  0  0  0
  -17.9409  -27.9739   23.2962 C   0  0  0  0  0  0  0  0  0  0  0  0
  -24.7489  -28.4175   19.5103 C   0  0  0  0  0  0  0  0  0  0  0  0
  -19.2342  -28.4999   23.1140 C   0  0  0  0  0  0  0  0  0  0  0  0
  -25.1922  -27.0897   19.5899 C   0  0  0  0  0  0  0  0  0  0  0  0
  -23.3670  -15.9462   20.8189 C   0  0  0  0  0  0  0  0  0  0  0  0
  -27.4567  -27.8822   19.9821 C   0  0  0  0  0  0  0  0  0  0  0  0
  -23.0652  -13.6182   20.7113 C   0  0  0  0  0  0  0  0  0  0  0  0
  -24.1413  -11.0520   20.9099 C   0  0  0  0  0  0  0  0  0  0  0  0
  -22.5616  -12.7218   21.6539 C   0  0  0  0  0  0  0  0  0  0  0  0
  -25.9646  -19.2218   21.4673 C   0  0  0  0  0  0  0  0  0  0  0  0
  -26.8548  -21.1191   22.1327 C   0  0  0  0  0  0  0  0  0  0  0  0
  -24.5417  -20.7247   22.9942 C   0  0  0  0  0  0  0  0  0  0  0  0
  -22.1601  -27.4821   21.1000 C   0  0  0  0  0  0  0  0  0  0  0  0
  -30.4568  -25.5319   18.6063 C   0  0  0  0  0  0  0  0  0  0  0  0
  -21.9130  -25.3508   18.6671 C   0  0  0  0  0  0  0  0  0  0  0  0
  -23.4638  -23.5915   16.1879 C   0  0  0  0  0  0  0  0  0  0  0  0
  -30.9565  -22.4757   18.3383 C   0  0  0  0  0  0  0  0  0  0  0  0
  -17.6900  -26.4879   23.3554 C   0  0  0  0  0  0  0  0  0  0  0  0
  -23.3036  -28.7223   19.2264 C   0  0  0  0  0  0  0  0  0  0  0  0
  -24.2479  -25.9274   19.4295 C   0  0  0  0  0  0  0  0  0  0  0  0
  -18.8306  -25.6541   22.7776 C   0  0  0  0  0  0  0  0  0  0  0  0
  -28.3644  -23.8044   16.2122 C   0  0  0  0  0  0  0  0  0  0  0  0
  -31.5449  -20.1890   20.9330 C   0  0  0  0  0  0  0  0  0  0  0  0
  -20.1738  -26.1490   23.3044 C   0  0  0  0  0  0  0  0  0  0  0  0
  -29.0466  -25.1148   16.5841 C   0  0  0  0  0  0  0  0  0  0  0  0
  -30.1480  -19.7944   21.4071 C   0  0  0  0  0  0  0  0  0  0  0  0
  -31.5808  -20.3404   19.4177 C   0  0  0  0  0  0  0  0  0  0  0  0
  -28.6208  -22.9253   17.4250 C   0  0  0  0  0  0  0  0  0  0  0  0
  -29.1849  -20.9661   19.3613 C   0  0  0  0  0  0  0  0  0  0  0  0
  -20.4300  -27.6013   22.8842 C   0  0  1  0  0  0  0  0  0  0  0  0
  -22.3653  -27.5839   19.6150 C   0  0  1  0  0  0  0  0  0  0  0  0
  -30.2615  -24.6746   17.3960 C   0  0  2  0  0  0  0  0  0  0  0  0
  -29.0948  -20.7883   20.8908 C   0  0  1  0  0  0  0  0  0  0  0  0
  -23.0072  -21.9014   14.3900 C   0  0  0  0  0  0  0  0  0  0  0  0
  -21.7688  -23.1502   20.7757 C   0  0  0  0  0  0  0  0  0  0  0  0
  -22.2703  -21.4865   18.9733 C   0  0  0  0  0  0  0  0  0  0  0  0
  -20.1918  -22.8609   18.8564 C   0  0  0  0  0  0  0  0  0  0  0  0
  -24.3278  -25.4540   14.0564 C   0  0  0  0  0  0  0  0  0  0  0  0
  -31.0026  -27.8443   19.3396 C   0  0  0  0  0  0  0  0  0  0  0  0
  -29.7212  -28.5618   19.7244 C   0  0  0  0  0  0  0  0  0  1  0  0
  -22.4276  -23.9547   18.4125 C   0  0  1  0  0  0  0  0  0  0  0  0
  -23.1069  -23.3809   14.7275 C   0  0  2  0  0  0  0  0  0  0  0  0
  -21.6823  -22.8848   19.2595 C   0  0  0  0  0  0  0  0  0  0  0  0
  -27.1768  -19.2374   20.9066 N   0  0  0  0  0  0  0  0  0  0  0  0
  -27.6935  -20.4037   21.3296 N   0  0  0  0  0  0  0  0  0  0  0  0
  -22.8434  -26.2769   19.1595 N   0  0  0  0  0  0  0  0  0  0  0  0
  -30.5600  -21.2779   18.9472 N   0  0  0  0  0  0  0  0  0  0  0  0
  -29.9498  -23.3313   17.8818 N   0  0  0  0  0  0  0  0  0  0  0  0
  -27.2162  -22.3144   22.6457 N   0  0  0  0  0  0  0  0  0  0  0  0
  -23.4550  -19.8395   22.9993 N   0  0  0  0  0  0  0  0  0  0  0  0
  -20.8497  -27.6605   21.5004 N   0  0  0  0  0  0  0  0  0  0  0  0
  -30.7738  -26.8460   18.3197 N   0  0  0  0  0  0  0  0  0  0  0  0
  -22.3396  -23.7436   16.9716 N   0  0  0  0  0  0  0  0  0  0  0  0
  -24.1413  -23.9950   13.8478 N   0  3  0  0  0  0  0  0  0  0  0  0
  -24.4578  -21.8034   23.6290 O   0  0  0  0  0  0  0  0  0  0  0  0
  -23.1194  -27.2568   21.8285 O   0  0  0  0  0  0  0  0  0  0  0  0
  -30.3285  -25.0408   19.7217 O   0  0  0  0  0  0  0  0  0  0  0  0
  -20.7308  -25.6121   18.4308 O   0  0  0  0  0  0  0  0  0  0  0  0
  -24.6238  -23.6147   16.5935 O   0  0  0  0  0  0  0  0  0  0  0  0
  -32.1526  -22.7580   18.1897 O   0  0  0  0  0  0  0  0  0  0  0  0
  -22.5315  -14.8920   20.6108 O   0  0  0  0  0  0  0  0  0  0  0  0
  -28.7804  -27.6166   20.2174 O   0  0  0  0  0  0  0  0  0  1  0  0
  -24.6571   -9.8195   21.0042 F   0  0  0  0  0  0  0  0  0  0  0  0
  -21.5602  -13.0871   22.4660 F   0  0  0  0  0  0  0  0  0  0  0  0
  1  2  1  0  0  0  0
  1  5  2  0  0  0  0
  2  6  2  0  0  0  0
  3  8  2  0  0  0  0
  3 15  1  0  0  0  0
  4  9  1  0  0  0  0
  4 15  2  0  0  0  0
  5 17  1  0  0  0  0
  6 19  1  0  0  0  0
  7 10  2  0  0  0  0
  7 18  1  0  0  0  0
  8 21  1  0  0  0  0
  9 21  2  0  0  0  0
 10 22  1  0  0  0  0
 11 12  2  0  0  0  0
 11 23  1  0  0  0  0
 12 24  1  0  0  0  0
 13 20  1  0  0  0  0
 13 22  2  0  0  0  0
 14 24  2  0  0  0  0
 14 25  1  0  0  0  0
 15 26  1  0  0  0  0
 16 26  1  0  0  0  0
 16 27  2  0  0  0  0
 16 28  1  0  0  0  0
 17 19  2  0  0  0  0
 17 34  1  0  0  0  0
 18 20  2  0  0  0  0
 18 35  1  0  0  0  0
 19 46  1  0  0  0  0
 20 36  1  0  0  0  0
 21 77  1  0  0  0  0
 22 78  1  0  0  0  0
 23 25  2  0  0  0  0
 23 77  1  0  0  0  0
 24 79  1  0  0  0  0
 25 80  1  0  0  0  0
 26 60  2  0  0  0  0
 27 61  1  0  0  0  0
 27 65  1  0  0  0  0
 28 66  1  0  0  0  0
 28 71  2  0  0  0  0
 29 47  1  0  0  0  0
 29 67  1  0  0  0  0
 29 72  2  0  0  0  0
 30 48  1  0  0  0  0
 30 68  1  0  0  0  0
 30 73  2  0  0  0  0
 31 57  1  0  0  0  0
 31 62  1  0  0  0  0
 31 74  2  0  0  0  0
 32 58  1  0  0  0  0
 32 69  1  0  0  0  0
 32 75  2  0  0  0  0
 33 63  1  0  0  0  0
 33 64  1  0  0  0  0
 33 76  2  0  0  0  0
 34 37  1  0  0  0  0
 35 47  1  0  0  0  0
 36 62  1  0  0  0  0
 37 40  1  0  0  0  0
 38 41  1  0  0  0  0
 38 44  1  0  0  0  0
 39 42  1  0  0  0  0
 39 43  1  0  0  0  0
 40 46  1  0  0  0  0
 41 48  1  0  0  0  0
 42 49  1  0  0  0  0
 43 63  1  0  0  0  0
 44 64  1  0  0  0  0
 45 49  1  0  0  0  0
 45 63  1  0  0  0  0
 46 67  1  0  0  0  0
 47 62  1  0  0  0  0
 48 64  1  0  0  0  0
 49 61  1  0  0  0  0
 50 58  1  0  0  0  0
 51 59  1  0  0  0  0
 52 59  1  0  0  0  0
 53 59  1  0  0  0  0
 54 70  1  0  0  0  0
 55 56  1  0  0  0  0
 55 68  1  0  0  0  0
 56 78  1  0  0  0  0
 57 59  1  0  0  0  0
 57 69  1  0  0  0  0
 58 70  1  0  0  0  0
 60 61  1  0  0  0  0
M  CHG  1  70   1
M  ISO  4  33 100  56 101  64 100  78 101
M  END
> <Batch ID>
0111

> <Smiles>
CNC(C)C(=O)NC(C(=O)N1Cc2cc([101O:1][101CH2:1]CNC(=O)C3CCC[100N:0]3[100C:0](=O)N3CCCC(n4nc(-c5ccc(Oc6ccc(F)cc6F)cc5)c(C(N)=O)c4N)C3)ccc2CC1C(=O)NC1CCCc2ccccc21)C(C)(C)C

> <Shape>
0.231

> <Color>
0.085

> <Negative vol penalty>
0.000

$$$$

  -OEChem-04052320013D

 83 91  0     1  0  0  0  0  0999 V2000
  -22.2080  -26.8973   25.6551 C   0  0  0  0  0  0  0  0  0  0  0  0
  -23.0197  -25.8105   25.3462 C   0  0  0  0  0  0  0  0  0  0  0  0
  -23.0756   -9.8578   19.9590 C   0  0  0  0  0  0  0  0  0  0  0  0
  -23.8373   -9.8912   22.2516 C   0  0  0  0  0  0  0  0  0  0  0  0
  -22.7830  -28.1151   26.0159 C   0  0  0  0  0  0  0  0  0  0  0  0
  -24.4070  -25.9413   25.3967 C   0  0  0  0  0  0  0  0  0  0  0  0
  -26.6443  -22.0281   27.7048 C   0  0  0  0  0  0  0  0  0  0  0  0
  -22.3330   -8.7068   20.2225 C   0  0  0  0  0  0  0  0  0  0  0  0
  -23.0946   -8.7402   22.5151 C   0  0  0  0  0  0  0  0  0  0  0  0
  -26.7891  -20.8529   26.9689 C   0  0  0  0  0  0  0  0  0  0  0  0
  -19.8677   -7.9462   23.1290 C   0  0  0  0  0  0  0  0  0  0  0  0
  -19.1117   -7.9188   24.3009 C   0  0  0  0  0  0  0  0  0  0  0  0
  -29.0888  -21.4253   26.5186 C   0  0  0  0  0  0  0  0  0  0  0  0
  -29.0601  -18.0906   23.1547 C   0  0  0  0  0  0  0  0  0  0  0  0
  -20.3555   -5.9908   25.0581 C   0  0  0  0  0  0  0  0  0  0  0  0
  -28.9458  -19.9890   21.1980 C   0  0  0  0  0  0  0  0  0  0  0  0
  -23.8278  -10.4500   20.9736 C   0  0  0  0  0  0  0  0  0  0  0  0
  -24.1672  -12.9739   20.8249 C   0  0  0  0  0  0  0  0  0  0  0  0
  -24.1781  -28.2581   26.0803 C   0  0  0  0  0  0  0  0  0  0  0  0
  -27.7194  -22.9176   27.8442 C   0  0  0  0  0  0  0  0  0  0  0  0
  -25.0013  -27.1625   25.7574 C   0  0  0  0  0  0  0  0  0  0  0  0
  -28.9558  -22.6099   27.2589 C   0  0  0  0  0  0  0  0  0  0  0  0
  -28.1791  -19.1577   23.2902 C   0  0  0  0  0  0  0  0  0  0  0  0
  -28.1147  -20.1293   22.2977 C   0  0  0  0  0  0  0  0  0  0  0  0
  -22.3425   -8.1481   21.5005 C   0  0  0  0  0  0  0  0  0  0  0  0
  -28.0106  -20.5527   26.3732 C   0  0  0  0  0  0  0  0  0  0  0  0
  -20.8676   -6.9960   22.9216 C   0  0  0  0  0  0  0  0  0  0  0  0
  -19.3556   -6.9411   25.2654 C   0  0  0  0  0  0  0  0  0  0  0  0
  -21.1115   -6.0183   23.8861 C   0  0  0  0  0  0  0  0  0  0  0  0
  -24.5956  -11.6386   20.7019 C   0  0  0  0  0  0  0  0  0  0  0  0
  -29.8488  -18.0415   22.0165 C   0  0  0  0  0  0  0  0  0  0  0  0
  -25.2584  -13.7203   20.4524 C   0  0  0  0  0  0  0  0  0  0  0  0
  -22.8966  -13.4932   21.2390 C   0  0  0  0  0  0  0  0  0  0  0  0
  -28.2546  -25.9378   27.0100 C   0  0  0  0  0  0  0  0  0  0  0  0
  -30.9912  -25.5105   28.6984 C   0  0  0  0  0  0  0  0  0  0  0  0
  -33.3249  -23.3492   29.9352 C   0  0  0  0  0  0  0  0  0  0  0  0
  -30.7413  -14.7464   20.6251 C   0  0  0  0  0  0  0  0  0  0  0  0
  -24.7541  -29.6075   26.4294 C   0  0  0  0  0  0  0  0  0  0  0  0
  -27.5546  -24.1682   28.6636 C   0  0  0  0  0  0  0  0  0  0  0  0
  -30.1468  -23.5217   27.3957 C   0  0  0  0  0  0  0  0  0  0  0  0
  -26.2283  -29.5573   26.8224 C   0  0  0  0  0  0  0  0  0  0  0  0
  -29.6041  -12.3343   18.2661 C   0  0  0  0  0  0  0  0  0  0  0  0
  -27.0161  -28.7055   25.8320 C   0  0  0  0  0  0  0  0  0  0  0  0
  -28.1672  -12.0441   18.7034 C   0  0  0  0  0  0  0  0  0  0  0  0
  -30.5219  -12.5694   19.4637 C   0  0  0  0  0  0  0  0  0  0  0  0
  -28.6206  -13.3142   20.8435 C   0  0  0  0  0  0  0  0  0  0  0  0
  -26.5101  -27.2580   25.8248 C   0  0  1  0  0  0  0  0  0  0  0  0
  -28.5681  -25.2522   28.3098 C   0  0  1  0  0  0  0  0  0  0  0  0
  -27.6457  -13.1255   19.6687 C   0  0  2  0  0  0  0  0  0  0  0  0
  -27.1899  -21.2928   22.3926 C   0  0  0  0  0  0  0  0  0  0  0  0
  -24.6348  -16.4855   23.8045 C   0  0  0  0  0  0  0  0  0  0  0  0
  -35.4667  -23.2991   31.2420 C   0  0  0  0  0  0  0  0  0  0  0  0
  -32.5132  -26.4758   26.2363 C   0  0  0  0  0  0  0  0  0  0  0  0
  -34.5993  -25.5191   27.2368 C   0  0  0  0  0  0  0  0  0  0  0  0
  -33.3827  -27.3534   28.4107 C   0  0  0  0  0  0  0  0  0  0  0  0
  -32.1099  -21.7192   32.0860 C   0  0  0  0  0  0  0  0  0  0  0  0
  -30.8061  -16.9108   21.8377 C   0  0  0  0  0  0  0  0  0  0  0  0
  -25.4760  -17.7288   23.5606 C   0  0  0  0  0  0  0  0  0  0  0  0
  -26.4160  -18.0058   24.7355 C   0  0  0  0  0  0  0  0  0  0  0  0
  -27.3045  -19.2406   24.5197 C   0  0  1  0  0  0  0  0  0  1  0  0
  -32.3849  -25.0307   28.3721 C   0  0  1  0  0  0  0  0  0  0  0  0
  -33.9495  -23.2215   31.3129 C   0  0  2  0  0  0  0  0  0  0  0  0
  -33.1972  -26.0783   27.5596 C   0  0  0  0  0  0  0  0  0  0  0  0
  -29.8143  -18.9665   21.0312 N   0  0  0  0  0  0  0  0  0  0  0  0
  -25.8602  -11.5392   20.2837 N   0  0  0  0  0  0  0  0  0  0  0  0
  -26.2358  -12.8216   20.1407 N   0  0  0  0  0  0  0  0  0  0  0  0
  -29.9339  -24.7354   28.2014 N   0  0  0  0  0  0  0  0  0  0  0  0
  -29.9711  -13.6073   20.3385 N   0  0  0  0  0  0  0  0  0  0  0  0
  -25.4675  -15.0510   20.3643 N   0  0  0  0  0  0  0  0  0  0  0  0
  -21.8857  -12.5870   21.5873 N   0  0  0  0  0  0  0  0  0  0  0  0
  -27.0120  -26.5414   26.9777 N   0  0  0  0  0  0  0  0  0  0  0  0
  -32.9956  -24.6559   29.6429 N   0  0  0  0  0  0  0  0  0  0  0  0
  -30.1419  -15.6841   21.4571 N   0  0  0  0  0  0  0  0  0  0  0  0
  -33.5740  -21.9196   31.9332 N   0  3  0  0  0  0  0  0  0  0  0  0
  -22.6592  -14.7242   21.2828 O   0  0  0  0  0  0  0  0  0  0  0  0
  -29.0797  -25.9216   26.1041 O   0  0  0  0  0  0  0  0  0  0  0  0
  -30.8462  -26.5313   29.3755 O   0  0  0  0  0  0  0  0  0  0  0  0
  -33.1502  -22.3867   29.1912 O   0  0  0  0  0  0  0  0  0  0  0  0
  -31.8767  -14.9179   20.1686 O   0  0  0  0  0  0  0  0  0  0  0  0
  -21.6178   -7.0251   21.7580 O   0  0  0  0  0  0  0  0  0  0  0  0
  -28.1545  -19.4066   25.6539 O   0  0  0  0  0  0  0  0  0  1  0  0
  -18.6305   -6.9157   26.3914 F   0  0  0  0  0  0  0  0  0  0  0  0
  -22.0715   -5.1035   23.6930 F   0  0  0  0  0  0  0  0  0  0  0  0
  1  2  1  0  0  0  0
  1  5  2  0  0  0  0
  2  6  2  0  0  0  0
  3  8  2  0  0  0  0
  3 17  1  0  0  0  0
  4  9  1  0  0  0  0
  4 17  2  0  0  0  0
  5 19  1  0  0  0  0
  6 21  1  0  0  0  0
  7 10  2  0  0  0  0
  7 20  1  0  0  0  0
  8 25  1  0  0  0  0
  9 25  2  0  0  0  0
 10 26  1  0  0  0  0
 11 12  2  0  0  0  0
 11 27  1  0  0  0  0
 12 28  1  0  0  0  0
 13 22  1  0  0  0  0
 13 26  2  0  0  0  0
 14 23  1  0  0  0  0
 14 31  2  0  0  0  0
 15 28  2  0  0  0  0
 15 29  1  0  0  0  0
 16 24  1  0  0  0  0
 16 64  2  0  0  0  0
 17 30  1  0  0  0  0
 18 30  1  0  0  0  0
 18 32  2  0  0  0  0
 18 33  1  0  0  0  0
 19 21  2  0  0  0  0
 19 38  1  0  0  0  0
 20 22  2  0  0  0  0
 20 39  1  0  0  0  0
 21 47  1  0  0  0  0
 22 40  1  0  0  0  0
 23 24  2  0  0  0  0
 23 60  1  0  0  0  0
 24 50  1  0  0  0  0
 25 80  1  0  0  0  0
 26 81  1  0  0  0  0
 27 29  2  0  0  0  0
 27 80  1  0  0  0  0
 28 82  1  0  0  0  0
 29 83  1  0  0  0  0
 30 65  2  0  0  0  0
 31 57  1  0  0  0  0
 31 64  1  0  0  0  0
 32 66  1  0  0  0  0
 32 69  1  0  0  0  0
 33 70  1  0  0  0  0
 33 75  2  0  0  0  0
 34 48  1  0  0  0  0
 34 71  1  0  0  0  0
 34 76  2  0  0  0  0
 35 61  1  0  0  0  0
 35 67  1  0  0  0  0
 35 77  2  0  0  0  0
 36 62  1  0  0  0  0
 36 72  1  0  0  0  0
 36 78  2  0  0  0  0
 37 68  1  0  0  0  0
 37 73  1  0  0  0  0
 37 79  2  0  0  0  0
 38 41  1  0  0  0  0
 39 48  1  0  0  0  0
 40 67  1  0  0  0  0
 41 43  1  0  0  0  0
 42 44  1  0  0  0  0
 42 45  1  0  0  0  0
 43 47  1  0  0  0  0
 44 49  1  0  0  0  0
 45 68  1  0  0  0  0
 46 49  1  0  0  0  0
 46 68  1  0  0  0  0
 47 71  1  0  0  0  0
 48 67  1  0  0  0  0
 49 66  1  0  0  0  0
 51 58  1  0  0  0  0
 52 62  1  0  0  0  0
 53 63  1  0  0  0  0
 54 63  1  0  0  0  0
 55 63  1  0  0  0  0
 56 74  1  0  0  0  0
 57 73  1  0  0  0  0
 58 59  1  0  0  0  0
 59 60  1  0  0  0  0
 60 81  1  0  0  0  0
 61 63  1  0  0  0  0
 61 72  1  0  0  0  0
 62 74  1  0  0  0  0
 65 66  1  0  0  0  0
M  CHG  1  74   1
M  ISO  4  37 100  60 101  73 100  81 101
M  END
> <Batch ID>
0111

> <Smiles>
CCC[101CH:1](c1cc(C[100NH:0][100C:0](=O)N2CCCC(n3nc(-c4ccc(Oc5ccc(F)cc5F)cc4)c(C(N)=O)c3N)C2)ncc1C)[101O:1]c1ccc2c(c1)CN(C(=O)C(NC(=O)C(C)NC)C(C)(C)C)C(C(=O)NC1CCCc3ccccc31)C2

> <Shape>
0.189

> <Color>
0.193

> <Negative vol penalty>
0.000

$$$$

  -OEChem-04052320013D

 84 92  0     1  0  0  0  0  0999 V2000
  -32.4954  -13.3266   20.9787 C   0  0  0  0  0  0  0  0  0  0  0  0
  -31.8313  -14.5338   21.1717 C   0  0  0  0  0  0  0  0  0  0  0  0
  -27.9167  -29.5766   19.6115 C   0  0  0  0  0  0  0  0  0  0  0  0
  -27.1238  -27.9482   21.2105 C   0  0  0  0  0  0  0  0  0  0  0  0
  -31.8299  -12.2527   20.3892 C   0  0  0  0  0  0  0  0  0  0  0  0
  -30.5015  -14.6680   20.7741 C   0  0  0  0  0  0  0  0  0  0  0  0
  -26.1505  -17.9789   23.5331 C   0  0  0  0  0  0  0  0  0  0  0  0
  -29.1026  -28.8568   19.4664 C   0  0  0  0  0  0  0  0  0  0  0  0
  -28.3097  -27.2283   21.0654 C   0  0  0  0  0  0  0  0  0  0  0  0
  -25.6346  -19.2487   23.2777 C   0  0  0  0  0  0  0  0  0  0  0  0
  -30.9783  -24.7690   20.8458 C   0  0  0  0  0  0  0  0  0  0  0  0
  -30.8845  -23.3840   20.7091 C   0  0  0  0  0  0  0  0  0  0  0  0
  -23.8289  -18.2562   22.0233 C   0  0  0  0  0  0  0  0  0  0  0  0
  -29.5570  -23.6711   18.7110 C   0  0  0  0  0  0  0  0  0  0  0  0
  -26.9273  -29.1224   20.4836 C   0  0  0  0  0  0  0  0  0  0  0  0
  -25.5638  -31.1961   21.0736 C   0  0  0  0  0  0  0  0  0  0  0  0
  -30.4883  -12.3708   19.9930 C   0  0  0  0  0  0  0  0  0  0  0  0
  -25.5144  -16.8369   23.0254 C   0  0  0  0  0  0  0  0  0  0  0  0
  -29.8178  -13.5950   20.1775 C   0  0  0  0  0  0  0  0  0  0  0  0
  -24.3373  -16.9729   22.2758 C   0  0  0  0  0  0  0  0  0  0  0  0
  -29.2991  -27.6826   20.1933 C   0  0  0  0  0  0  0  0  0  0  0  0
  -24.4752  -19.3877   22.5203 C   0  0  0  0  0  0  0  0  0  0  0  0
  -30.3614  -25.6050   19.9152 C   0  0  0  0  0  0  0  0  0  0  0  0
  -30.1739  -22.8351   19.6417 C   0  0  0  0  0  0  0  0  0  0  0  0
  -29.6508  -25.0561   18.8477 C   0  0  0  0  0  0  0  0  0  0  0  0
  -25.7023  -29.8659   20.6343 C   0  0  0  0  0  0  0  0  0  0  0  0
  -24.2107  -31.4295   21.0408 C   0  0  0  0  0  0  0  0  0  0  0  0
  -26.5685  -32.1369   21.4753 C   0  0  0  0  0  0  0  0  0  0  0  0
  -26.3391  -14.5169   21.0152 C   0  0  0  0  0  0  0  0  0  0  0  0
  -23.4820  -13.2638   21.9033 C   0  0  0  0  0  0  0  0  0  0  0  0
  -20.3485  -13.7908   23.1485 C   0  0  0  0  0  0  0  0  0  0  0  0
  -22.5068  -27.8237   23.0932 C   0  0  0  0  0  0  0  0  0  0  0  0
  -29.8251  -11.1970   19.3169 C   0  0  0  0  0  0  0  0  0  0  0  0
  -26.0687  -15.4728   23.3323 C   0  0  0  0  0  0  0  0  0  0  0  0
  -23.6053  -15.7774   21.7250 C   0  0  0  0  0  0  0  0  0  0  0  0
  -28.3031  -11.3039   19.2656 C   0  0  0  0  0  0  0  0  0  0  0  0
  -21.9181  -27.5355   19.6356 C   0  0  0  0  0  0  0  0  0  0  0  0
  -27.8809  -12.6953   18.8046 C   0  0  0  0  0  0  0  0  0  0  0  0
  -21.7801  -29.0122   19.2522 C   0  0  0  0  0  0  0  0  0  0  0  0
  -23.6687  -24.3975   23.9186 C   0  0  0  0  0  0  0  0  0  0  0  0
  -21.1600  -24.3764   23.6837 C   0  0  0  0  0  0  0  0  0  0  0  0
  -21.2563  -27.2109   20.9723 C   0  0  0  0  0  0  0  0  0  0  0  0
  -23.6144  -25.9022   24.1716 C   0  0  0  0  0  0  0  0  0  0  0  0
  -21.1505  -25.8790   23.9481 C   0  0  0  0  0  0  0  0  0  0  0  0
  -21.4447  -29.5641   21.6839 C   0  0  0  0  0  0  0  0  0  0  0  0
  -28.3678  -13.7718   19.7822 C   0  0  1  0  0  0  0  0  0  0  0  0
  -25.6252  -14.4089   22.3329 C   0  0  1  0  0  0  0  0  0  0  0  0
  -22.1586  -29.9931   20.3849 C   0  0  1  0  0  0  0  0  0  0  0  0
  -22.3689  -23.7108   24.3502 C   0  0  0  0  0  0  0  0  0  0  0  0
  -19.7757  -21.2417   27.3492 C   0  0  0  0  0  0  0  0  0  0  0  0
  -18.2282  -12.5786   23.7250 C   0  0  0  0  0  0  0  0  0  0  0  0
  -22.7788  -13.0891   18.9393 C   0  0  0  0  0  0  0  0  0  0  0  0
  -20.3816  -12.7908   19.5970 C   0  0  0  0  0  0  0  0  0  0  0  0
  -22.0835  -11.1059   20.2951 C   0  0  0  0  0  0  0  0  0  0  0  0
  -20.5430  -14.5665   25.9979 C   0  0  0  0  0  0  0  0  0  0  0  0
  -21.1131  -20.5443   27.1387 C   0  0  0  0  0  0  0  0  0  0  0  0
  -22.1010  -22.0977   22.5909 C   0  0  0  0  0  0  0  0  0  0  0  0
  -21.4822  -21.5337   24.8429 C   0  0  0  0  0  0  0  0  0  0  0  0
  -22.5575  -20.7311   22.1037 C   0  0  0  0  0  0  0  0  0  1  0  0
  -22.0623  -13.3785   21.4028 C   0  0  1  0  0  0  0  0  0  0  0  0
  -19.5666  -13.0839   24.2409 C   0  0  2  0  0  0  0  0  0  0  0  0
  -22.0760  -21.3217   26.2345 C   0  0  2  0  0  0  0  0  0  0  0  0
  -21.8412  -12.6139   20.0672 C   0  0  0  0  0  0  0  0  0  0  0  0
  -24.5306  -29.2941   20.3439 N   0  0  0  0  0  0  0  0  0  0  0  0
  -23.6430  -30.2698   20.6013 N   0  0  0  0  0  0  0  0  0  0  0  0
  -24.1902  -14.4652   22.0470 N   0  0  0  0  0  0  0  0  0  0  0  0
  -21.6859  -28.1578   22.0060 N   0  0  0  0  0  0  0  0  0  0  0  0
  -22.4251  -26.5051   23.5699 N   0  0  0  0  0  0  0  0  0  0  0  0
  -23.4629  -32.5114   21.3453 N   0  0  0  0  0  0  0  0  0  0  0  0
  -26.9406  -32.1811   22.8258 N   0  0  0  0  0  0  0  0  0  0  0  0
  -27.5231  -13.8069   20.9569 N   0  0  0  0  0  0  0  0  0  0  0  0
  -21.2066  -12.9308   22.4963 N   0  0  0  0  0  0  0  0  0  0  0  0
  -22.4128  -22.2915   24.0067 N   0  0  2  0  0  0  0  0  0  0  0  0
  -23.3504  -20.5583   26.0920 N   0  3  0  0  0  0  0  0  0  0  0  0
  -19.3117  -14.0118   25.3788 N   0  3  0  0  0  0  0  0  0  0  0  0
  -27.1082  -32.9265   20.6636 O   0  0  0  0  0  0  0  0  0  0  0  0
  -25.8510  -15.1931   20.1173 O   0  0  0  0  0  0  0  0  0  0  0  0
  -23.9431  -12.1498   22.1641 O   0  0  0  0  0  0  0  0  0  0  0  0
  -20.2091  -14.9856   22.8962 O   0  0  0  0  0  0  0  0  0  0  0  0
  -23.2727  -28.6482   23.6078 O   0  0  0  0  0  0  0  0  0  0  0  0
  -30.4560  -26.9798   20.0518 O   0  0  0  0  0  0  0  0  0  0  0  0
  -23.9663  -20.6349   22.2672 O   0  0  0  0  0  0  0  0  0  1  0  0
  -30.0853  -21.5051   19.5097 F   0  0  0  0  0  0  0  0  0  0  0  0
  -29.0570  -25.8542   17.9498 F   0  0  0  0  0  0  0  0  0  0  0  0
  1  2  1  0  0  0  0
  1  5  2  0  0  0  0
  2  6  2  0  0  0  0
  3  8  2  0  0  0  0
  3 15  1  0  0  0  0
  4  9  1  0  0  0  0
  4 15  2  0  0  0  0
  5 17  1  0  0  0  0
  6 19  1  0  0  0  0
  7 10  2  0  0  0  0
  7 18  1  0  0  0  0
  8 21  1  0  0  0  0
  9 21  2  0  0  0  0
 10 22  1  0  0  0  0
 11 12  2  0  0  0  0
 11 23  1  0  0  0  0
 12 24  1  0  0  0  0
 13 20  1  0  0  0  0
 13 22  2  0  0  0  0
 14 24  2  0  0  0  0
 14 25  1  0  0  0  0
 15 26  1  0  0  0  0
 16 26  1  0  0  0  0
 16 27  2  0  0  0  0
 16 28  1  0  0  0  0
 17 19  2  0  0  0  0
 17 33  1  0  0  0  0
 18 20  2  0  0  0  0
 18 34  1  0  0  0  0
 19 46  1  0  0  0  0
 20 35  1  0  0  0  0
 21 81  1  0  0  0  0
 22 82  1  0  0  0  0
 23 25  2  0  0  0  0
 23 81  1  0  0  0  0
 24 83  1  0  0  0  0
 25 84  1  0  0  0  0
 26 64  2  0  0  0  0
 27 65  1  0  0  0  0
 27 69  1  0  0  0  0
 28 70  1  0  0  0  0
 28 76  2  0  0  0  0
 29 47  1  0  0  0  0
 29 71  1  0  0  0  0
 29 77  2  0  0  0  0
 30 60  1  0  0  0  0
 30 66  1  0  0  0  0
 30 78  2  0  0  0  0
 31 61  1  0  0  0  0
 31 72  1  0  0  0  0
 31 79  2  0  0  0  0
 32 67  1  0  0  0  0
 32 68  1  0  0  0  0
 32 80  2  0  0  0  0
 33 36  1  0  0  0  0
 34 47  1  0  0  0  0
 35 66  1  0  0  0  0
 36 38  1  0  0  0  0
 37 39  1  0  0  0  0
 37 42  1  0  0  0  0
 38 46  1  0  0  0  0
 39 48  1  0  0  0  0
 40 43  1  0  0  0  0
 40 49  1  0  0  0  0
 41 44  1  0  0  0  0
 41 49  1  0  0  0  0
 42 67  1  0  0  0  0
 43 68  1  0  0  0  0
 44 68  1  0  0  0  0
 45 48  1  0  0  0  0
 45 67  1  0  0  0  0
 46 71  1  0  0  0  0
 47 66  1  0  0  0  0
 48 65  1  0  0  0  0
 49 73  1  0  0  0  0
 50 56  1  0  0  0  0
 51 61  1  0  0  0  0
 52 63  1  0  0  0  0
 53 63  1  0  0  0  0
 54 63  1  0  0  0  0
 55 75  1  0  0  0  0
 56 62  1  0  0  0  0
 57 59  1  0  0  0  0
 57 73  1  0  0  0  0
 58 62  1  0  0  0  0
 58 73  1  0  0  0  0
 59 82  1  0  0  0  0
 60 63  1  0  0  0  0
 60 72  1  0  0  0  0
 61 75  1  0  0  0  0
 62 74  1  0  0  0  0
 64 65  1  0  0  0  0
M  CHG  2  74   1  75   1
M  ISO  4  32 100  59 101  68 100  82 101
M  END
> <Batch ID>
0111

> <Smiles>
CCC(N)CN(C[101CH2:1][101O:1]c1ccc2c(c1)CN(C(=O)C(NC(=O)C(C)NC)C(C)(C)C)C(C(=O)NC1CCCc3ccccc31)C2)C1CC[100N:0]([100C:0](=O)N2CCCC(n3nc(-c4ccc(Oc5ccc(F)cc5F)cc4)c(C(N)=O)c3N)C2)CC1

> <Shape>
0.248

> <Color>
0.072

> <Negative vol penalty>
0.000

$$$$

  -OEChem-04052320013D

 82 90  0     1  0  0  0  0  0999 V2000
  -24.5892  -11.3445   20.1836 C   0  0  0  0  0  0  0  0  0  0  0  0
  -24.1736  -12.5021   19.5335 C   0  0  0  0  0  0  0  0  0  0  0  0
  -26.0917  -27.4231   21.8165 C   0  0  0  0  0  0  0  0  0  0  0  0
  -25.3844  -28.0012   19.5799 C   0  0  0  0  0  0  0  0  0  0  0  0
  -25.4592  -11.4304   21.2697 C   0  0  0  0  0  0  0  0  0  0  0  0
  -24.6270  -13.7465   19.9699 C   0  0  0  0  0  0  0  0  0  0  0  0
  -26.0625  -16.7411   16.1467 C   0  0  0  0  0  0  0  0  0  0  0  0
  -27.3952  -27.2368   21.3562 C   0  0  0  0  0  0  0  0  0  0  0  0
  -26.6879  -27.8150   19.1196 C   0  0  0  0  0  0  0  0  0  0  0  0
  -25.0545  -17.3717   15.4188 C   0  0  0  0  0  0  0  0  0  0  0  0
  -30.0460  -29.1677   20.5331 C   0  0  0  0  0  0  0  0  0  0  0  0
  -31.0842  -29.7138   21.2877 C   0  0  0  0  0  0  0  0  0  0  0  0
  -25.4341  -19.4026   16.6641 C   0  0  0  0  0  0  0  0  0  0  0  0
  -18.8344  -23.3506   16.8153 C   0  0  0  0  0  0  0  0  0  0  0  0
  -32.0227  -27.5085   21.5926 C   0  0  0  0  0  0  0  0  0  0  0  0
  -17.2987  -22.6086   15.3453 C   0  0  0  0  0  0  0  0  0  0  0  0
  -25.0863  -27.8053   20.9283 C   0  0  0  0  0  0  0  0  0  0  0  0
  -23.1720  -29.1898   21.8906 C   0  0  0  0  0  0  0  0  0  0  0  0
  -25.9311  -12.6758   21.7136 C   0  0  0  0  0  0  0  0  0  0  0  0
  -26.7577  -17.4345   17.1480 C   0  0  0  0  0  0  0  0  0  0  0  0
  -25.5031  -13.8492   21.0638 C   0  0  0  0  0  0  0  0  0  0  0  0
  -26.4522  -18.7793   17.4015 C   0  0  0  0  0  0  0  0  0  0  0  0
  -27.6933  -27.4328   20.0078 C   0  0  0  0  0  0  0  0  0  0  0  0
  -24.7381  -18.7018   15.6794 C   0  0  0  0  0  0  0  0  0  0  0  0
  -29.9961  -27.7919   20.3083 C   0  0  0  0  0  0  0  0  0  0  0  0
  -18.6030  -22.4401   15.7549 C   0  0  0  0  0  0  0  0  0  0  0  0
  -32.0726  -28.8843   21.8174 C   0  0  0  0  0  0  0  0  0  0  0  0
  -30.9845  -26.9623   20.8380 C   0  0  0  0  0  0  0  0  0  0  0  0
  -23.7395  -27.9973   21.4031 C   0  0  0  0  0  0  0  0  0  0  0  0
  -17.6643  -24.0476   17.0217 C   0  0  0  0  0  0  0  0  0  0  0  0
  -21.8802  -28.8496   22.2103 C   0  0  0  0  0  0  0  0  0  0  0  0
  -23.7598  -30.4888   22.0410 C   0  0  0  0  0  0  0  0  0  0  0  0
  -27.1074  -17.0861   20.2880 C   0  0  0  0  0  0  0  0  0  0  0  0
  -29.2277  -19.5145   19.9283 C   0  0  0  0  0  0  0  0  0  0  0  0
  -30.2753  -22.1990   18.0999 C   0  0  0  0  0  0  0  0  0  0  0  0
  -18.1959  -24.5492   20.2652 C   0  0  0  0  0  0  0  0  0  0  0  0
  -26.8330  -12.7218   22.9215 C   0  0  0  0  0  0  0  0  0  0  0  0
  -27.8606  -16.7478   17.9059 C   0  0  0  0  0  0  0  0  0  0  0  0
  -27.1826  -19.5739   18.4520 C   0  0  0  0  0  0  0  0  0  0  0  0
  -27.5628  -14.0523   23.0864 C   0  0  0  0  0  0  0  0  0  0  0  0
  -19.2290  -25.1260   23.6233 C   0  0  0  0  0  0  0  0  0  0  0  0
  -26.5963  -15.2179   22.9016 C   0  0  0  0  0  0  0  0  0  0  0  0
  -20.4510  -26.0349   23.4791 C   0  0  0  0  0  0  0  0  0  0  0  0
  -19.1590  -24.0923   22.5014 C   0  0  0  0  0  0  0  0  0  0  0  0
  -20.4409  -25.5616   20.9942 C   0  0  0  0  0  0  0  0  0  0  0  0
  -25.9925  -15.2157   21.4920 C   0  0  1  0  0  0  0  0  0  0  0  0
  -28.1530  -17.3977   19.2549 C   0  0  1  0  0  0  0  0  0  0  0  0
  -20.5244  -26.6565   22.0714 C   0  0  2  0  0  0  0  0  0  0  0  0
  -32.0125  -24.0098   18.0770 C   0  0  0  0  0  0  0  0  0  0  0  0
  -27.6978  -21.0065   22.1061 C   0  0  0  0  0  0  0  0  0  0  0  0
  -28.8512  -23.1067   21.3804 C   0  0  0  0  0  0  0  0  0  0  0  0
  -30.1866  -21.1942   22.2644 C   0  0  0  0  0  0  0  0  0  0  0  0
  -15.3739  -24.0535   15.9989 C   0  0  0  0  0  0  0  0  0  0  0  0
  -31.3898  -21.2574   15.5250 C   0  0  0  0  0  0  0  0  0  0  0  0
  -17.3544  -25.1110   17.9991 C   0  0  0  0  0  0  0  0  0  0  0  0
  -21.6167  -20.4341   15.0735 C   0  0  0  0  0  0  0  0  0  0  0  0
  -23.0282  -20.3541   15.6334 C   0  0  0  0  0  0  0  0  0  1  0  0
  -20.7921  -21.5108   15.7613 C   0  0  0  0  0  0  0  0  0  0  0  0
  -29.1442  -21.0213   19.9675 C   0  0  1  0  0  0  0  0  0  0  0  0
  -31.6524  -22.6081   17.6095 C   0  0  2  0  0  0  0  0  0  0  0  0
  -28.9547  -21.5669   21.4111 C   0  0  0  0  0  0  0  0  0  0  0  0
  -22.8789  -26.9759   21.4107 N   0  0  0  0  0  0  0  0  0  0  0  0
  -16.7377  -23.5880   16.1226 N   0  0  0  0  0  0  0  0  0  0  0  0
  -21.7575  -27.5256   21.9069 N   0  0  0  0  0  0  0  0  0  0  0  0
  -28.2486  -18.8564   19.1706 N   0  0  0  0  0  0  0  0  0  0  0  0
  -19.2319  -24.7470   21.1929 N   0  0  0  0  0  0  0  0  0  0  0  0
  -20.8488  -29.5569   22.7185 N   0  0  0  0  0  0  0  0  0  0  0  0
  -25.0982  -30.6643   21.6639 N   0  0  0  0  0  0  0  0  0  0  0  0
  -26.9441  -15.7361   20.5338 N   0  0  0  0  0  0  0  0  0  0  0  0
  -30.3413  -21.5142   19.2949 N   0  0  0  0  0  0  0  0  0  0  0  0
  -18.3403  -25.2111   19.0520 N   0  0  0  0  0  0  0  0  0  0  0  0
  -31.7007  -22.5825   16.1202 N   0  3  0  0  0  0  0  0  0  0  0  0
  -23.1221  -31.4611   22.5116 O   0  0  0  0  0  0  0  0  0  0  0  0
  -26.4953  -18.0026   20.8237 O   0  0  0  0  0  0  0  0  0  0  0  0
  -30.1328  -18.9428   20.5412 O   0  0  0  0  0  0  0  0  0  0  0  0
  -29.2438  -22.4639   17.4863 O   0  0  0  0  0  0  0  0  0  0  0  0
  -17.2124  -23.8398   20.5026 O   0  0  0  0  0  0  0  0  0  0  0  0
  -28.9651  -27.2513   19.5583 O   0  0  0  0  0  0  0  0  0  0  0  0
  -23.7542  -19.3195   14.9708 O   0  0  0  0  0  0  0  0  0  1  0  0
  -19.4834  -21.5433   15.2079 O   0  0  0  0  0  0  0  0  0  0  0  0
  -33.0704  -29.4091   22.5407 F   0  0  0  0  0  0  0  0  0  0  0  0
  -30.9425  -25.6401   20.6244 F   0  0  0  0  0  0  0  0  0  0  0  0
  1  2  1  0  0  0  0
  1  5  2  0  0  0  0
  2  6  2  0  0  0  0
  3  8  2  0  0  0  0
  3 17  1  0  0  0  0
  4  9  1  0  0  0  0
  4 17  2  0  0  0  0
  5 19  1  0  0  0  0
  6 21  1  0  0  0  0
  7 10  2  0  0  0  0
  7 20  1  0  0  0  0
  8 23  1  0  0  0  0
  9 23  2  0  0  0  0
 10 24  1  0  0  0  0
 11 12  2  0  0  0  0
 11 25  1  0  0  0  0
 12 27  1  0  0  0  0
 13 22  1  0  0  0  0
 13 24  2  0  0  0  0
 14 26  1  0  0  0  0
 14 30  2  0  0  0  0
 15 27  2  0  0  0  0
 15 28  1  0  0  0  0
 16 26  2  0  0  0  0
 16 63  1  0  0  0  0
 17 29  1  0  0  0  0
 18 29  1  0  0  0  0
 18 31  2  0  0  0  0
 18 32  1  0  0  0  0
 19 21  2  0  0  0  0
 19 37  1  0  0  0  0
 20 22  2  0  0  0  0
 20 38  1  0  0  0  0
 21 46  1  0  0  0  0
 22 39  1  0  0  0  0
 23 78  1  0  0  0  0
 24 79  1  0  0  0  0
 25 28  2  0  0  0  0
 25 78  1  0  0  0  0
 26 80  1  0  0  0  0
 27 81  1  0  0  0  0
 28 82  1  0  0  0  0
 29 62  2  0  0  0  0
 30 55  1  0  0  0  0
 30 63  1  0  0  0  0
 31 64  1  0  0  0  0
 31 67  1  0  0  0  0
 32 68  1  0  0  0  0
 32 73  2  0  0  0  0
 33 47  1  0  0  0  0
 33 69  1  0  0  0  0
 33 74  2  0  0  0  0
 34 59  1  0  0  0  0
 34 65  1  0  0  0  0
 34 75  2  0  0  0  0
 35 60  1  0  0  0  0
 35 70  1  0  0  0  0
 35 76  2  0  0  0  0
 36 66  1  0  0  0  0
 36 71  1  0  0  0  0
 36 77  2  0  0  0  0
 37 40  1  0  0  0  0
 38 47  1  0  0  0  0
 39 65  1  0  0  0  0
 40 42  1  0  0  0  0
 41 43  1  0  0  0  0
 41 44  1  0  0  0  0
 42 46  1  0  0  0  0
 43 48  1  0  0  0  0
 44 66  1  0  0  0  0
 45 48  1  0  0  0  0
 45 66  1  0  0  0  0
 46 69  1  0  0  0  0
 47 65  1  0  0  0  0
 48 64  1  0  0  0  0
 49 60  1  0  0  0  0
 50 61  1  0  0  0  0
 51 61  1  0  0  0  0
 52 61  1  0  0  0  0
 53 63  1  0  0  0  0
 54 72  1  0  0  0  0
 55 71  1  0  0  0  0
 56 57  1  0  0  0  0
 56 58  1  0  0  0  0
 57 79  1  0  0  0  0
 58 80  1  0  0  0  0
 59 61  1  0  0  0  0
 59 70  1  0  0  0  0
 60 72  1  0  0  0  0
 62 64  1  0  0  0  0
M  CHG  1  72   1
M  ISO  4  36 100  57 101  71 100  79 101
M  END
> <Batch ID>
0111

> <Smiles>
CNC(C)C(=O)NC(C(=O)N1Cc2cc([101O:1][101CH2:1]CCOc3cc(C[100NH:0][100C:0](=O)N4CCCC(n5nc(-c6ccc(Oc7ccc(F)cc7F)cc6)c(C(N)=O)c5N)C4)n(C)c3)ccc2CC1C(=O)NC1CCCc2ccccc21)C(C)(C)C

> <Shape>
0.211

> <Color>
0.058

> <Negative vol penalty>
0.000

$$$$

  -OEChem-04052320013D

 79 86  0     1  0  0  0  0  0999 V2000
  -16.7313  -28.9634   20.3336 C   0  0  0  0  0  0  0  0  0  0  0  0
  -17.9277  -29.1829   19.6585 C   0  0  0  0  0  0  0  0  0  0  0  0
  -26.5843  -12.6710   21.7066 C   0  0  0  0  0  0  0  0  0  0  0  0
  -25.9028  -14.0751   19.8623 C   0  0  0  0  0  0  0  0  0  0  0  0
  -16.7384  -28.3231   21.5721 C   0  0  0  0  0  0  0  0  0  0  0  0
  -19.1321  -28.7631   20.2220 C   0  0  0  0  0  0  0  0  0  0  0  0
  -25.5857  -26.2594   18.3784 C   0  0  0  0  0  0  0  0  0  0  0  0
  -25.3165  -12.0899   21.7326 C   0  0  0  0  0  0  0  0  0  0  0  0
  -24.6350  -13.4939   19.8884 C   0  0  0  0  0  0  0  0  0  0  0  0
  -26.9402  -26.5132   18.5900 C   0  0  0  0  0  0  0  0  0  0  0  0
  -23.6149   -9.7451   19.9893 C   0  0  0  0  0  0  0  0  0  0  0  0
  -23.5404   -8.3568   20.1020 C   0  0  0  0  0  0  0  0  0  0  0  0
  -26.8232  -25.3466   20.6982 C   0  0  0  0  0  0  0  0  0  0  0  0
  -22.2972   -8.5906   22.1604 C   0  0  0  0  0  0  0  0  0  0  0  0
  -26.8774  -13.6637   20.7715 C   0  0  0  0  0  0  0  0  0  0  0  0
  -29.3042  -13.8350   20.0041 C   0  0  0  0  0  0  0  0  0  0  0  0
  -17.9425  -27.8866   22.1467 C   0  0  0  0  0  0  0  0  0  0  0  0
  -24.8360  -25.5555   19.3317 C   0  0  0  0  0  0  0  0  0  0  0  0
  -19.1555  -28.1175   21.4700 C   0  0  0  0  0  0  0  0  0  0  0  0
  -25.4600  -25.0829   20.4951 C   0  0  0  0  0  0  0  0  0  0  0  0
  -24.3419  -12.5013   20.8235 C   0  0  0  0  0  0  0  0  0  0  0  0
  -27.5584  -26.0593   19.7514 C   0  0  0  0  0  0  0  0  0  0  0  0
  -23.0306  -10.5562   20.9622 C   0  0  0  0  0  0  0  0  0  0  0  0
  -22.8815   -7.7796   21.1875 C   0  0  0  0  0  0  0  0  0  0  0  0
  -22.3718   -9.9789   22.0477 C   0  0  0  0  0  0  0  0  0  0  0  0
  -28.1866  -14.2648   20.7444 C   0  0  0  0  0  0  0  0  0  0  0  0
  -30.2929  -14.7339   20.3219 C   0  0  0  0  0  0  0  0  0  0  0  0
  -29.4368  -12.7229   19.1090 C   0  0  0  0  0  0  0  0  0  0  0  0
  -22.3158  -26.2304   21.1474 C   0  0  0  0  0  0  0  0  0  0  0  0
  -22.5280  -23.0895   21.9297 C   0  0  0  0  0  0  0  0  0  0  0  0
  -24.4655  -20.2915   22.1836 C   0  0  0  0  0  0  0  0  0  0  0  0
  -30.1848  -20.4007   22.2525 C   0  0  0  0  0  0  0  0  0  0  0  0
  -17.9047  -27.2413   23.5093 C   0  0  0  0  0  0  0  0  0  0  0  0
  -23.3821  -25.2668   19.0761 C   0  0  0  0  0  0  0  0  0  0  0  0
  -24.7043  -24.3050   21.5402 C   0  0  0  0  0  0  0  0  0  0  0  0
  -19.1868  -26.4927   23.8645 C   0  0  0  0  0  0  0  0  0  0  0  0
  -31.7329  -17.6228   23.8535 C   0  0  0  0  0  0  0  0  0  0  0  0
  -20.4099  -27.3435   23.5371 C   0  0  0  0  0  0  0  0  0  0  0  0
  -31.1004  -16.4084   23.1714 C   0  0  0  0  0  0  0  0  0  0  0  0
  -30.7282  -18.7596   24.0268 C   0  0  0  0  0  0  0  0  0  0  0  0
  -29.4071  -17.9572   22.1072 C   0  0  0  0  0  0  0  0  0  0  0  0
  -20.4799  -27.6547   22.0372 C   0  0  1  0  0  0  0  0  0  0  0  0
  -22.5952  -24.9863   20.3526 C   0  0  1  0  0  0  0  0  0  0  0  0
  -30.3963  -16.8054   21.8600 C   0  0  2  0  0  0  0  0  0  0  0  0
  -24.3683  -17.8856   22.8905 C   0  0  0  0  0  0  0  0  0  0  0  0
  -32.0526  -26.0340   17.9262 C   0  0  0  0  0  0  0  0  0  0  0  0
  -30.8239  -21.1391   18.3055 C   0  0  0  0  0  0  0  0  0  0  0  0
  -22.5723  -23.9502   24.8567 C   0  0  0  0  0  0  0  0  0  0  0  0
  -23.4179  -21.6677   25.4427 C   0  0  0  0  0  0  0  0  0  0  0  0
  -21.1745  -21.9310   24.3841 C   0  0  0  0  0  0  0  0  0  0  0  0
  -25.1822  -19.3454   19.4725 C   0  0  0  0  0  0  0  0  0  0  0  0
  -29.5741  -21.9223   20.3894 C   0  0  0  0  0  0  0  0  0  0  0  0
  -31.1645  -24.5745   19.8106 C   0  0  0  0  0  0  0  0  0  0  0  0
  -29.7125  -26.4094   18.8062 C   0  0  0  0  0  0  0  0  0  1  0  0
  -23.2527  -22.2990   22.9922 C   0  0  1  0  0  0  0  0  0  0  0  0
  -24.2332  -18.8610   21.7316 C   0  0  2  0  0  0  0  0  0  0  0  0
  -31.1371  -25.9591   19.1533 C   0  0  2  0  0  0  0  0  0  0  0  0
  -30.7639  -22.1347   19.4560 C   0  0  2  0  0  0  0  0  0  0  0  0
  -22.6184  -22.4783   24.4003 C   0  0  0  0  0  0  0  0  0  0  0  0
  -28.4408  -15.3519   21.4776 N   0  0  0  0  0  0  0  0  0  0  0  0
  -29.7295  -15.6129   21.1995 N   0  0  0  0  0  0  0  0  0  0  0  0
  -23.2835  -24.0536   21.2474 N   0  0  0  0  0  0  0  0  0  0  0  0
  -30.0972  -19.0886   22.7463 N   0  0  0  0  0  0  0  0  0  0  0  0
  -31.5806  -14.8501   19.9337 N   0  0  0  0  0  0  0  0  0  0  0  0
  -28.3221  -11.9004   18.8956 N   0  0  0  0  0  0  0  0  0  0  0  0
  -20.9711  -26.5069   21.3053 N   0  0  0  0  0  0  0  0  0  0  0  0
  -23.2849  -20.9180   22.5228 N   0  0  0  0  0  0  0  0  0  0  0  0
  -29.5649  -20.6257   21.0294 N   0  0  0  0  0  0  0  0  0  0  0  0
  -25.2207  -18.4829   20.6814 N   0  3  0  0  0  0  0  0  0  0  0  0
  -30.7041  -23.5097   18.8879 N   0  3  0  0  0  0  0  0  0  0  0  0
  -30.5164  -12.4564   18.5286 O   0  0  0  0  0  0  0  0  0  0  0  0
  -23.2508  -26.8897   21.5863 O   0  0  0  0  0  0  0  0  0  0  0  0
  -21.3374  -22.8551   21.7082 O   0  0  0  0  0  0  0  0  0  0  0  0
  -25.5828  -20.8009   22.2345 O   0  0  0  0  0  0  0  0  0  0  0  0
  -30.7766  -21.3033   22.8541 O   0  0  0  0  0  0  0  0  0  0  0  0
  -23.1048  -11.9343   20.8485 O   0  0  0  0  0  0  0  0  0  0  0  0
  -28.8802  -26.3062   19.9607 O   0  0  0  0  0  0  0  0  0  1  0  0
  -22.8087   -6.4464   21.2948 F   0  0  0  0  0  0  0  0  0  0  0  0
  -21.8075  -10.7530   22.9849 F   0  0  0  0  0  0  0  0  0  0  0  0
  1  2  1  0  0  0  0
  1  5  2  0  0  0  0
  2  6  2  0  0  0  0
  3  8  2  0  0  0  0
  3 15  1  0  0  0  0
  4  9  1  0  0  0  0
  4 15  2  0  0  0  0
  5 17  1  0  0  0  0
  6 19  1  0  0  0  0
  7 10  2  0  0  0  0
  7 18  1  0  0  0  0
  8 21  1  0  0  0  0
  9 21  2  0  0  0  0
 10 22  1  0  0  0  0
 11 12  2  0  0  0  0
 11 23  1  0  0  0  0
 12 24  1  0  0  0  0
 13 20  1  0  0  0  0
 13 22  2  0  0  0  0
 14 24  2  0  0  0  0
 14 25  1  0  0  0  0
 15 26  1  0  0  0  0
 16 26  1  0  0  0  0
 16 27  2  0  0  0  0
 16 28  1  0  0  0  0
 17 19  2  0  0  0  0
 17 33  1  0  0  0  0
 18 20  2  0  0  0  0
 18 34  1  0  0  0  0
 19 42  1  0  0  0  0
 20 35  1  0  0  0  0
 21 76  1  0  0  0  0
 22 77  1  0  0  0  0
 23 25  2  0  0  0  0
 23 76  1  0  0  0  0
 24 78  1  0  0  0  0
 25 79  1  0  0  0  0
 26 60  2  0  0  0  0
 27 61  1  0  0  0  0
 27 64  1  0  0  0  0
 28 65  1  0  0  0  0
 28 71  2  0  0  0  0
 29 43  1  0  0  0  0
 29 66  1  0  0  0  0
 29 72  2  0  0  0  0
 30 55  1  0  0  0  0
 30 62  1  0  0  0  0
 30 73  2  0  0  0  0
 31 56  1  0  0  0  0
 31 67  1  0  0  0  0
 31 74  2  0  0  0  0
 32 63  1  0  0  0  0
 32 68  1  0  0  0  0
 32 75  2  0  0  0  0
 33 36  1  0  0  0  0
 34 43  1  0  0  0  0
 35 62  1  0  0  0  0
 36 38  1  0  0  0  0
 37 39  1  0  0  0  0
 37 40  1  0  0  0  0
 38 42  1  0  0  0  0
 39 44  1  0  0  0  0
 40 63  1  0  0  0  0
 41 44  1  0  0  0  0
 41 63  1  0  0  0  0
 42 66  1  0  0  0  0
 43 62  1  0  0  0  0
 44 61  1  0  0  0  0
 45 56  1  0  0  0  0
 46 57  1  0  0  0  0
 47 58  1  0  0  0  0
 48 59  1  0  0  0  0
 49 59  1  0  0  0  0
 50 59  1  0  0  0  0
 51 69  1  0  0  0  0
 52 58  1  0  0  0  0
 52 68  1  0  0  0  0
 53 57  1  0  0  0  0
 53 70  1  0  0  0  0
 54 57  1  0  0  0  0
 54 77  1  0  0  0  0
 55 59  1  0  0  0  0
 55 67  1  0  0  0  0
 56 69  1  0  0  0  0
 58 70  1  0  0  0  0
 60 61  1  0  0  0  0
M  CHG  2  69   1  70   1
M  ISO  4  32 100  54 101  68 100  77 101
M  END
> <Batch ID>
0111

> <Smiles>
CNC(C)C(=O)NC(C(=O)N1Cc2cc([101O:1][101CH2:1]C(C)CNC(C)C[100NH:0][100C:0](=O)N3CCCC(n4nc(-c5ccc(Oc6ccc(F)cc6F)cc5)c(C(N)=O)c4N)C3)ccc2CC1C(=O)NC1CCCc2ccccc21)C(C)(C)C

> <Shape>
0.240

> <Color>
0.080

> <Negative vol penalty>
0.000

$$$$

  -OEChem-04052320013D

 85 93  0     1  0  0  0  0  0999 V2000
  -25.0420  -29.1203   19.4814 C   0  0  0  0  0  0  0  0  0  0  0  0
  -25.1306  -28.0441   18.6043 C   0  0  0  0  0  0  0  0  0  0  0  0
  -19.2645  -22.4955   19.8122 C   0  0  0  0  0  0  0  0  0  0  0  0
  -21.3377  -23.2645   20.7856 C   0  0  0  0  0  0  0  0  0  0  0  0
  -25.9475  -29.2354   20.5354 C   0  0  0  0  0  0  0  0  0  0  0  0
  -26.1254  -27.0829   18.7800 C   0  0  0  0  0  0  0  0  0  0  0  0
  -27.3372  -20.0774   17.9023 C   0  0  0  0  0  0  0  0  0  0  0  0
  -18.5518  -23.3424   20.6610 C   0  0  0  0  0  0  0  0  0  0  0  0
  -20.6250  -24.1114   21.6344 C   0  0  0  0  0  0  0  0  0  0  0  0
  -28.2544  -19.2085   17.3128 C   0  0  0  0  0  0  0  0  0  0  0  0
  -19.3705  -26.7414   23.8086 C   0  0  0  0  0  0  0  0  0  0  0  0
  -19.8330  -28.0486   23.9595 C   0  0  0  0  0  0  0  0  0  0  0  0
  -29.7142  -19.4683   19.2156 C   0  0  0  0  0  0  0  0  0  0  0  0
  -19.5478  -28.4231   21.5898 C   0  0  0  0  0  0  0  0  0  0  0  0
  -28.8323  -15.0674   19.6635 C   0  0  0  0  0  0  0  0  0  0  0  0
  -28.6940  -13.7746   17.8402 C   0  0  0  0  0  0  0  0  0  0  0  0
  -20.6574  -22.4564   19.8745 C   0  0  0  0  0  0  0  0  0  0  0  0
  -21.8860  -21.8817   17.7140 C   0  0  0  0  0  0  0  0  0  0  0  0
  -26.9479  -28.2701   20.7298 C   0  0  0  0  0  0  0  0  0  0  0  0
  -27.6069  -20.6577   19.1501 C   0  0  0  0  0  0  0  0  0  0  0  0
  -27.0460  -27.1860   19.8367 C   0  0  0  0  0  0  0  0  0  0  0  0
  -28.7976  -20.3422   19.8200 C   0  0  0  0  0  0  0  0  0  0  0  0
  -27.6321  -14.3945   19.7265 C   0  0  0  0  0  0  0  0  0  0  0  0
  -27.5445  -13.5767   18.5730 C   0  0  0  0  0  0  0  0  0  0  0  0
  -19.2321  -24.1504   21.5721 C   0  0  0  0  0  0  0  0  0  0  0  0
  -29.4445  -18.9061   17.9681 C   0  0  0  0  0  0  0  0  0  0  0  0
  -18.9967  -26.2749   22.5483 C   0  0  0  0  0  0  0  0  0  0  0  0
  -19.9216  -28.8895   22.8501 C   0  0  0  0  0  0  0  0  0  0  0  0
  -19.0853  -27.1158   21.4389 C   0  0  0  0  0  0  0  0  0  0  0  0
  -21.3941  -21.5814   18.9984 C   0  0  0  0  0  0  0  0  0  0  0  0
  -22.5071  -20.7268   17.3055 C   0  0  0  0  0  0  0  0  0  0  0  0
  -21.7900  -23.0960   16.9578 C   0  0  0  0  0  0  0  0  0  0  0  0
  -27.9866  -23.6318   20.2056 C   0  0  0  0  0  0  0  0  0  0  0  0
  -28.0932  -22.1752   23.1021 C   0  0  0  0  0  0  0  0  0  0  0  0
  -28.7051  -19.3382   24.8975 C   0  0  0  0  0  0  0  0  0  0  0  0
  -24.9830  -16.3078   20.3383 C   0  0  0  0  0  0  0  0  0  0  0  0
  -27.9333  -28.4623   21.8552 C   0  0  0  0  0  0  0  0  0  0  0  0
  -26.5951  -21.5721   19.7847 C   0  0  0  0  0  0  0  0  0  0  0  0
  -29.1255  -20.9229   21.1704 C   0  0  0  0  0  0  0  0  0  0  0  0
  -28.7248  -27.2017   22.1938 C   0  0  0  0  0  0  0  0  0  0  0  0
  -22.3417  -15.9789   17.8862 C   0  0  0  0  0  0  0  0  0  0  0  0
  -29.2493  -26.5430   20.9219 C   0  0  0  0  0  0  0  0  0  0  0  0
  -21.8475  -17.4224   17.7759 C   0  0  0  0  0  0  0  0  0  0  0  0
  -22.7233  -15.6334   19.3226 C   0  0  0  0  0  0  0  0  0  0  0  0
  -23.2394  -17.9913   19.8202 C   0  0  0  0  0  0  0  0  0  0  0  0
  -28.0958  -26.1098   20.0090 C   0  0  1  0  0  0  0  0  0  0  0  0
  -27.2044  -22.5078   20.8241 C   0  0  1  0  0  0  0  0  0  0  0  0
  -22.8592  -18.4093   18.3881 C   0  0  2  0  0  0  0  0  0  0  0  0
  -26.8584  -11.1907   18.1369 C   0  0  0  0  0  0  0  0  0  0  0  0
  -25.7382  -13.0727   16.8885 C   0  0  0  0  0  0  0  0  0  0  0  0
  -28.7450  -18.4661   27.2502 C   0  0  0  0  0  0  0  0  0  0  0  0
  -32.2573  -16.1761   16.2622 C   0  0  0  0  0  0  0  0  0  0  0  0
  -30.7422  -23.6099   23.5864 C   0  0  0  0  0  0  0  0  0  0  0  0
  -31.1852  -22.0112   25.4615 C   0  0  0  0  0  0  0  0  0  0  0  0
  -29.2166  -23.5395   25.5668 C   0  0  0  0  0  0  0  0  0  0  0  0
  -26.6050  -17.3361   24.3143 C   0  0  0  0  0  0  0  0  0  0  0  0
  -26.6297  -14.5111   20.8042 C   0  0  0  0  0  0  0  0  0  0  0  0
  -30.8193  -15.1804   18.0574 C   0  0  0  0  0  0  0  0  0  0  0  0
  -26.4326  -12.6754   18.2118 C   0  0  0  0  0  0  0  0  0  0  0  0
  -29.1844  -21.5856   23.9627 C   0  0  1  0  0  0  0  0  0  0  0  0
  -27.9110  -18.6476   25.9915 C   0  0  2  0  0  0  0  0  0  0  0  0
  -30.8157  -15.8039   16.6430 C   0  0  1  0  0  0  0  0  0  0  0  0
  -29.8643  -17.0220   16.5285 C   0  0  2  0  0  0  0  0  0  1  0  0
  -30.0771  -22.6770   24.6181 C   0  0  0  0  0  0  0  0  0  0  0  0
  -21.6782  -20.3335   19.3805 N   0  0  0  0  0  0  0  0  0  0  0  0
  -29.4695  -14.6825   18.5128 N   0  0  0  0  0  0  0  0  0  0  0  0
  -22.3552  -19.8394   18.3300 N   0  0  0  0  0  0  0  0  0  0  0  0
  -28.1073  -21.8165   21.7467 N   0  0  0  0  0  0  0  0  0  0  0  0
  -23.7026  -16.5997   19.8395 N   0  0  0  0  0  0  0  0  0  0  0  0
  -23.1629  -20.3939   16.1734 N   0  0  0  0  0  0  0  0  0  0  0  0
  -21.1176  -24.1862   17.5269 N   0  0  0  0  0  0  0  0  0  0  0  0
  -27.4938  -24.8888   20.5001 N   0  0  0  0  0  0  0  0  0  0  0  0
  -28.5202  -20.7045   24.9171 N   0  0  0  0  0  0  0  0  0  0  0  0
  -25.3422  -14.9656   20.3282 N   0  0  0  0  0  0  0  0  0  0  0  0
  -27.4553  -17.3051   25.5321 N   0  3  0  0  0  0  0  0  0  0  0  0
  -22.2717  -23.2058   15.8047 O   0  0  0  0  0  0  0  0  0  0  0  0
  -28.9655  -23.3776   19.5138 O   0  0  0  0  0  0  0  0  0  0  0  0
  -27.2549  -22.9208   23.6150 O   0  0  0  0  0  0  0  0  0  0  0  0
  -29.4210  -18.7272   24.1072 O   0  0  0  0  0  0  0  0  0  0  0  0
  -25.7519  -17.1799   20.7571 O   0  0  0  0  0  0  0  0  0  0  0  0
  -29.8400  -17.4380   15.1638 O   0  0  0  0  0  0  0  0  0  0  0  0
  -18.5370  -24.9771   22.4003 O   0  0  0  0  0  0  0  0  0  0  0  0
  -30.3418  -18.0589   17.3947 O   0  0  0  0  0  0  0  0  0  1  0  0
  -20.3643  -30.1453   22.9954 F   0  0  0  0  0  0  0  0  0  0  0  0
  -18.7265  -26.6737   20.2258 F   0  0  0  0  0  0  0  0  0  0  0  0
  1  2  1  0  0  0  0
  1  5  2  0  0  0  0
  2  6  2  0  0  0  0
  3  8  2  0  0  0  0
  3 17  1  0  0  0  0
  4  9  1  0  0  0  0
  4 17  2  0  0  0  0
  5 19  1  0  0  0  0
  6 21  1  0  0  0  0
  7 10  2  0  0  0  0
  7 20  1  0  0  0  0
  8 25  1  0  0  0  0
  9 25  2  0  0  0  0
 10 26  1  0  0  0  0
 11 12  2  0  0  0  0
 11 27  1  0  0  0  0
 12 28  1  0  0  0  0
 13 22  1  0  0  0  0
 13 26  2  0  0  0  0
 14 28  2  0  0  0  0
 14 29  1  0  0  0  0
 15 23  2  0  0  0  0
 15 66  1  0  0  0  0
 16 24  2  0  0  0  0
 16 66  1  0  0  0  0
 17 30  1  0  0  0  0
 18 30  1  0  0  0  0
 18 31  2  0  0  0  0
 18 32  1  0  0  0  0
 19 21  2  0  0  0  0
 19 37  1  0  0  0  0
 20 22  2  0  0  0  0
 20 38  1  0  0  0  0
 21 46  1  0  0  0  0
 22 39  1  0  0  0  0
 23 24  1  0  0  0  0
 23 57  1  0  0  0  0
 24 59  1  0  0  0  0
 25 82  1  0  0  0  0
 26 83  1  0  0  0  0
 27 29  2  0  0  0  0
 27 82  1  0  0  0  0
 28 84  1  0  0  0  0
 29 85  1  0  0  0  0
 30 65  2  0  0  0  0
 31 67  1  0  0  0  0
 31 70  1  0  0  0  0
 32 71  1  0  0  0  0
 32 76  2  0  0  0  0
 33 47  1  0  0  0  0
 33 72  1  0  0  0  0
 33 77  2  0  0  0  0
 34 60  1  0  0  0  0
 34 68  1  0  0  0  0
 34 78  2  0  0  0  0
 35 61  1  0  0  0  0
 35 73  1  0  0  0  0
 35 79  2  0  0  0  0
 36 69  1  0  0  0  0
 36 74  1  0  0  0  0
 36 80  2  0  0  0  0
 37 40  1  0  0  0  0
 38 47  1  0  0  0  0
 39 68  1  0  0  0  0
 40 42  1  0  0  0  0
 41 43  1  0  0  0  0
 41 44  1  0  0  0  0
 42 46  1  0  0  0  0
 43 48  1  0  0  0  0
 44 69  1  0  0  0  0
 45 48  1  0  0  0  0
 45 69  1  0  0  0  0
 46 72  1  0  0  0  0
 47 68  1  0  0  0  0
 48 67  1  0  0  0  0
 49 59  1  0  0  0  0
 50 59  1  0  0  0  0
 51 61  1  0  0  0  0
 52 62  1  0  0  0  0
 53 64  1  0  0  0  0
 54 64  1  0  0  0  0
 55 64  1  0  0  0  0
 56 75  1  0  0  0  0
 57 74  1  0  0  0  0
 58 62  1  0  0  0  0
 58 66  1  0  0  0  0
 60 64  1  0  0  0  0
 60 73  1  0  0  0  0
 61 75  1  0  0  0  0
 62 63  1  0  0  0  0
 63 81  1  0  0  0  0
 63 83  1  0  0  0  0
 65 67  1  0  0  0  0
M  CHG  1  75   1
M  ISO  4  36 100  63 101  74 100  83 101
M  END
> <Batch ID>
0111

> <Smiles>
CNC(C)C(=O)NC(C(=O)N1Cc2cc([101O:1][101CH:1](O)C(C)Cn3cc(C[100NH:0][100C:0](=O)N4CCCC(n5nc(-c6ccc(Oc7ccc(F)cc7F)cc6)c(C(N)=O)c5N)C4)c(C(C)C)c3)ccc2CC1C(=O)NC1CCCc2ccccc21)C(C)(C)C

> <Shape>
0.178

> <Color>
0.061

> <Negative vol penalty>
0.000

$$$$

  -OEChem-04052320013D

 81 89  0     1  0  0  0  0  0999 V2000
  -25.6833  -20.5984   25.4431 C   0  0  0  0  0  0  0  0  0  0  0  0
  -26.6015  -21.6300   25.2830 C   0  0  0  0  0  0  0  0  0  0  0  0
  -26.5351  -12.3060   21.5742 C   0  0  0  0  0  0  0  0  0  0  0  0
  -25.6880  -13.7641   19.8440 C   0  0  0  0  0  0  0  0  0  0  0  0
  -24.4798  -20.6266   24.7417 C   0  0  0  0  0  0  0  0  0  0  0  0
  -26.3115  -22.6960   24.4307 C   0  0  0  0  0  0  0  0  0  0  0  0
  -29.7038  -27.4783   22.7727 C   0  0  0  0  0  0  0  0  0  0  0  0
  -25.3181  -11.6247   21.5958 C   0  0  0  0  0  0  0  0  0  0  0  0
  -24.4710  -13.0828   19.8656 C   0  0  0  0  0  0  0  0  0  0  0  0
  -30.5931  -27.8039   21.7495 C   0  0  0  0  0  0  0  0  0  0  0  0
  -23.7510   -9.2653   19.7490 C   0  0  0  0  0  0  0  0  0  0  0  0
  -23.7889   -7.8712   19.7730 C   0  0  0  0  0  0  0  0  0  0  0  0
  -28.8036  -28.8855   20.5466 C   0  0  0  0  0  0  0  0  0  0  0  0
  -22.5968   -7.8749   21.8744 C   0  0  0  0  0  0  0  0  0  0  0  0
  -26.7200  -13.3757   20.6983 C   0  0  0  0  0  0  0  0  0  0  0  0
  -29.2462  -13.5451   20.3865 C   0  0  0  0  0  0  0  0  0  0  0  0
  -24.1810  -21.6876   23.8711 C   0  0  0  0  0  0  0  0  0  0  0  0
  -28.3531  -27.8450   22.6853 C   0  0  0  0  0  0  0  0  0  0  0  0
  -25.0919  -22.7546   23.7324 C   0  0  0  0  0  0  0  0  0  0  0  0
  -27.8997  -28.5656   21.5712 C   0  0  0  0  0  0  0  0  0  0  0  0
  -24.2861  -12.0131   20.7416 C   0  0  0  0  0  0  0  0  0  0  0  0
  -30.1424  -28.5051   20.6349 C   0  0  0  0  0  0  0  0  0  0  0  0
  -23.1360   -9.9643   20.7878 C   0  0  0  0  0  0  0  0  0  0  0  0
  -23.2118   -7.1760   20.8356 C   0  0  0  0  0  0  0  0  0  0  0  0
  -22.5589   -9.2690   21.8505 C   0  0  0  0  0  0  0  0  0  0  0  0
  -27.9767  -14.0802   20.6758 C   0  0  0  0  0  0  0  0  0  0  0  0
  -30.1024  -14.6134   20.4968 C   0  0  0  0  0  0  0  0  0  0  0  0
  -29.6182  -12.2025   20.0480 C   0  0  0  0  0  0  0  0  0  0  0  0
  -25.6005  -26.2588   22.5814 C   0  0  0  0  0  0  0  0  0  0  0  0
  -24.3263  -29.2367   22.7579 C   0  0  0  0  0  0  0  0  0  0  0  0
  -24.7079  -32.5871   22.2325 C   0  0  0  0  0  0  0  0  0  0  0  0
  -29.2496  -20.4202   19.8567 C   0  0  0  0  0  0  0  0  0  0  0  0
  -22.8602  -21.6716   23.1427 C   0  0  0  0  0  0  0  0  0  0  0  0
  -27.4123  -27.5095   23.8099 C   0  0  0  0  0  0  0  0  0  0  0  0
  -26.4638  -29.0002   21.4386 C   0  0  0  0  0  0  0  0  0  0  0  0
  -22.8350  -22.6051   21.9368 C   0  0  0  0  0  0  0  0  0  0  0  0
  -30.6083  -18.7860   22.7861 C   0  0  0  0  0  0  0  0  0  0  0  0
  -23.3476  -23.9813   22.3340 C   0  0  0  0  0  0  0  0  0  0  0  0
  -30.2010  -17.3322   22.5398 C   0  0  0  0  0  0  0  0  0  0  0  0
  -28.9049  -23.9175   19.5548 C   0  0  0  0  0  0  0  0  0  0  0  0
  -31.2804  -23.1992   19.1070 C   0  0  0  0  0  0  0  0  0  0  0  0
  -29.5219  -19.7510   22.3206 C   0  0  0  0  0  0  0  0  0  0  0  0
  -28.7127  -18.1332   20.6468 C   0  0  0  0  0  0  0  0  0  0  0  0
  -29.0709  -25.0621   18.5638 C   0  0  0  0  0  0  0  0  0  0  0  0
  -31.4348  -24.3483   18.1193 C   0  0  0  0  0  0  0  0  0  0  0  0
  -24.8112  -23.9090   22.7874 C   0  0  1  0  0  0  0  0  0  0  0  0
  -25.9494  -27.4843   23.3777 C   0  0  1  0  0  0  0  0  0  0  0  0
  -29.7791  -17.1089   21.0754 C   0  0  2  0  0  0  0  0  0  0  0  0
  -29.8252  -22.7441   19.2168 C   0  0  0  0  0  0  0  0  0  0  0  0
  -24.1471  -35.0323   22.2936 C   0  0  0  0  0  0  0  0  0  0  0  0
  -33.4049  -28.6932   19.6493 C   0  0  0  0  0  0  0  0  0  0  0  0
  -22.7107  -28.5576   20.2602 C   0  0  0  0  0  0  0  0  0  0  0  0
  -22.2595  -31.0033   19.9719 C   0  0  0  0  0  0  0  0  0  0  0  0
  -21.4451  -29.8184   22.0104 C   0  0  0  0  0  0  0  0  0  0  0  0
  -25.9457  -32.9229   24.8997 C   0  0  0  0  0  0  0  0  0  0  0  0
  -32.0319  -27.3899   17.9854 C   0  0  0  0  0  0  0  0  0  0  0  0
  -30.7204  -26.6887   17.6427 C   0  0  0  0  0  0  0  0  0  0  0  0
  -23.9164  -30.2854   21.7524 C   0  0  1  0  0  0  0  0  0  0  0  0
  -24.4203  -33.7849   23.1196 C   0  0  2  0  0  0  0  0  0  0  0  0
  -32.1037  -27.9355   19.4163 C   0  0  2  0  0  0  0  0  0  1  0  0
  -22.6096  -29.9064   21.0000 C   0  0  0  0  0  0  0  0  0  0  0  0
  -28.0181  -15.3869   20.9497 N   0  0  0  0  0  0  0  0  0  0  0  0
  -29.3240  -15.6818   20.8329 N   0  0  0  0  0  0  0  0  0  0  0  0
  -25.5812  -28.6430   22.5615 N   0  0  0  0  0  0  0  0  0  0  0  0
  -29.1795  -19.4978   20.9139 N   0  0  0  0  0  0  0  0  0  0  0  0
  -31.4376  -14.7337   20.3384 N   0  0  0  0  0  0  0  0  0  0  0  0
  -29.9562  -11.3214   21.0843 N   0  0  0  0  0  0  0  0  0  0  0  0
  -25.1945  -25.1849   23.3505 N   0  0  0  0  0  0  0  0  0  0  0  0
  -23.8405  -31.5452   22.4844 N   0  0  0  0  0  0  0  0  0  0  0  0
  -29.6948  -21.6922   20.1951 N   0  0  0  0  0  0  0  0  0  0  0  0
  -30.5205  -25.4817   18.5177 N   0  3  0  0  0  0  0  0  0  0  0  0
  -25.5811  -34.0581   24.0134 N   0  3  0  0  0  0  0  0  0  0  0  0
  -29.6660  -11.8007   18.8607 O   0  0  0  0  0  0  0  0  0  0  0  0
  -25.6913  -26.2860   21.3597 O   0  0  0  0  0  0  0  0  0  0  0  0
  -23.5642  -28.9597   23.6875 O   0  0  0  0  0  0  0  0  0  0  0  0
  -25.6092  -32.5780   21.3970 O   0  0  0  0  0  0  0  0  0  0  0  0
  -28.9431  -20.1300   18.6953 O   0  0  0  0  0  0  0  0  0  0  0  0
  -23.0986  -11.3483   20.7623 O   0  0  0  0  0  0  0  0  0  0  0  0
  -31.0082  -28.8236   19.6345 O   0  0  0  0  0  0  0  0  0  1  0  0
  -23.2469   -5.8372   20.8576 F   0  0  0  0  0  0  0  0  0  0  0  0
  -21.9657   -9.9349   22.8507 F   0  0  0  0  0  0  0  0  0  0  0  0
  1  2  1  0  0  0  0
  1  5  2  0  0  0  0
  2  6  2  0  0  0  0
  3  8  2  0  0  0  0
  3 15  1  0  0  0  0
  4  9  1  0  0  0  0
  4 15  2  0  0  0  0
  5 17  1  0  0  0  0
  6 19  1  0  0  0  0
  7 10  2  0  0  0  0
  7 18  1  0  0  0  0
  8 21  1  0  0  0  0
  9 21  2  0  0  0  0
 10 22  1  0  0  0  0
 11 12  2  0  0  0  0
 11 23  1  0  0  0  0
 12 24  1  0  0  0  0
 13 20  1  0  0  0  0
 13 22  2  0  0  0  0
 14 24  2  0  0  0  0
 14 25  1  0  0  0  0
 15 26  1  0  0  0  0
 16 26  1  0  0  0  0
 16 27  2  0  0  0  0
 16 28  1  0  0  0  0
 17 19  2  0  0  0  0
 17 33  1  0  0  0  0
 18 20  2  0  0  0  0
 18 34  1  0  0  0  0
 19 46  1  0  0  0  0
 20 35  1  0  0  0  0
 21 78  1  0  0  0  0
 22 79  1  0  0  0  0
 23 25  2  0  0  0  0
 23 78  1  0  0  0  0
 24 80  1  0  0  0  0
 25 81  1  0  0  0  0
 26 62  2  0  0  0  0
 27 63  1  0  0  0  0
 27 66  1  0  0  0  0
 28 67  1  0  0  0  0
 28 73  2  0  0  0  0
 29 47  1  0  0  0  0
 29 68  1  0  0  0  0
 29 74  2  0  0  0  0
 30 58  1  0  0  0  0
 30 64  1  0  0  0  0
 30 75  2  0  0  0  0
 31 59  1  0  0  0  0
 31 69  1  0  0  0  0
 31 76  2  0  0  0  0
 32 65  1  0  0  0  0
 32 70  1  0  0  0  0
 32 77  2  0  0  0  0
 33 36  1  0  0  0  0
 34 47  1  0  0  0  0
 35 64  1  0  0  0  0
 36 38  1  0  0  0  0
 37 39  1  0  0  0  0
 37 42  1  0  0  0  0
 38 46  1  0  0  0  0
 39 48  1  0  0  0  0
 40 44  1  0  0  0  0
 40 49  1  0  0  0  0
 41 45  1  0  0  0  0
 41 49  1  0  0  0  0
 42 65  1  0  0  0  0
 43 48  1  0  0  0  0
 43 65  1  0  0  0  0
 44 71  1  0  0  0  0
 45 71  1  0  0  0  0
 46 68  1  0  0  0  0
 47 64  1  0  0  0  0
 48 63  1  0  0  0  0
 49 70  1  0  0  0  0
 50 59  1  0  0  0  0
 51 60  1  0  0  0  0
 52 61  1  0  0  0  0
 53 61  1  0  0  0  0
 54 61  1  0  0  0  0
 55 72  1  0  0  0  0
 56 57  1  0  0  0  0
 56 60  1  0  0  0  0
 57 71  1  0  0  0  0
 58 61  1  0  0  0  0
 58 69  1  0  0  0  0
 59 72  1  0  0  0  0
 60 79  1  0  0  0  0
 62 63  1  0  0  0  0
M  CHG  2  71   1  72   1
M  ISO  4  32 100  60 101  70 100  79 101
M  END
> <Batch ID>
0111

> <Smiles>
CNC(C)C(=O)NC(C(=O)N1Cc2cc([101O:1][101CH:1](C)CCN3CCC([100NH:0][100C:0](=O)N4CCCC(n5nc(-c6ccc(Oc7ccc(F)cc7F)cc6)c(C(N)=O)c5N)C4)CC3)ccc2CC1C(=O)NC1CCCc2ccccc21)C(C)(C)C

> <Shape>
0.293

> <Color>
0.082

> <Negative vol penalty>
0.000

$$$$

  -OEChem-04052320013D

 84 92  0     1  0  0  0  0  0999 V2000
  -16.7716  -29.0393   24.1911 C   0  0  0  0  0  0  0  0  0  0  0  0
  -17.6531  -27.9965   23.9246 C   0  0  0  0  0  0  0  0  0  0  0  0
  -24.1614   -9.7030   22.1902 C   0  0  0  0  0  0  0  0  0  0  0  0
  -24.5260  -11.3619   23.9085 C   0  0  0  0  0  0  0  0  0  0  0  0
  -17.0167  -30.3085   23.6686 C   0  0  0  0  0  0  0  0  0  0  0  0
  -18.7796  -28.2220   23.1344 C   0  0  0  0  0  0  0  0  0  0  0  0
  -24.2839  -25.6061   23.7385 C   0  0  0  0  0  0  0  0  0  0  0  0
  -26.1202  -20.4271   20.3240 C   0  0  0  0  0  0  0  0  0  0  0  0
  -26.8308  -19.4930   19.5703 C   0  0  0  0  0  0  0  0  0  0  0  0
  -23.7806   -8.7790   23.1632 C   0  0  0  0  0  0  0  0  0  0  0  0
  -24.1451  -10.4378   24.8814 C   0  0  0  0  0  0  0  0  0  0  0  0
  -24.8900  -24.5344   23.0844 C   0  0  0  0  0  0  0  0  0  0  0  0
  -21.0377   -8.1078   25.0231 C   0  0  0  0  0  0  0  0  0  0  0  0
  -19.8980   -7.3417   24.7786 C   0  0  0  0  0  0  0  0  0  0  0  0
  -25.9883  -26.0760   21.5890 C   0  0  0  0  0  0  0  0  0  0  0  0
  -28.1966  -21.4596   21.0019 C   0  0  0  0  0  0  0  0  0  0  0  0
  -21.2228   -5.3262   24.9183 C   0  0  0  0  0  0  0  0  0  0  0  0
  -24.5342  -10.9945   22.5629 C   0  0  0  0  0  0  0  0  0  0  0  0
  -24.0948  -12.8489   20.8671 C   0  0  0  0  0  0  0  0  0  0  0  0
  -18.1520  -30.5520   22.8795 C   0  0  0  0  0  0  0  0  0  0  0  0
  -24.5174  -26.9224   23.3152 C   0  0  0  0  0  0  0  0  0  0  0  0
  -19.0394  -29.4953   22.5997 C   0  0  0  0  0  0  0  0  0  0  0  0
  -25.3860  -27.1628   22.2411 C   0  0  0  0  0  0  0  0  0  0  0  0
  -26.8031  -21.4105   21.0398 C   0  0  0  0  0  0  0  0  0  0  0  0
  -28.2243  -19.5422   19.5324 C   0  0  0  0  0  0  0  0  0  0  0  0
  -28.9072  -20.5255   20.2482 C   0  0  0  0  0  0  0  0  0  0  0  0
  -23.7724   -9.1463   24.5087 C   0  0  0  0  0  0  0  0  0  0  0  0
  -25.7401  -24.7691   22.0077 C   0  0  0  0  0  0  0  0  0  0  0  0
  -22.2701   -7.4831   25.2150 C   0  0  0  0  0  0  0  0  0  0  0  0
  -19.9905   -5.9509   24.7263 C   0  0  0  0  0  0  0  0  0  0  0  0
  -22.3626   -6.0922   25.1626 C   0  0  0  0  0  0  0  0  0  0  0  0
  -24.9283  -11.9494   21.5584 C   0  0  0  0  0  0  0  0  0  0  0  0
  -24.9444  -13.5303   20.0302 C   0  0  0  0  0  0  0  0  0  0  0  0
  -22.6792  -13.0506   20.9721 C   0  0  0  0  0  0  0  0  0  0  0  0
  -22.7015  -29.2642   22.1652 C   0  0  0  0  0  0  0  0  0  0  0  0
  -25.4411  -30.9833   22.4130 C   0  0  0  0  0  0  0  0  0  0  0  0
  -28.8514  -30.9967   22.5424 C   0  0  0  0  0  0  0  0  0  0  0  0
  -29.7519  -16.2092   19.1045 C   0  0  0  0  0  0  0  0  0  0  0  0
  -18.3498  -31.9293   22.2976 C   0  0  0  0  0  0  0  0  0  0  0  0
  -23.8769  -28.0691   24.0483 C   0  0  0  0  0  0  0  0  0  0  0  0
  -25.6855  -28.5585   21.7604 C   0  0  0  0  0  0  0  0  0  0  0  0
  -19.7646  -32.1742   21.7795 C   0  0  0  0  0  0  0  0  0  0  0  0
  -29.7798  -12.6597   18.8269 C   0  0  0  0  0  0  0  0  0  0  0  0
  -20.2359  -30.9939   20.9359 C   0  0  0  0  0  0  0  0  0  0  0  0
  -28.4548  -12.2328   19.4611 C   0  0  0  0  0  0  0  0  0  0  0  0
  -30.3914  -13.8578   19.5499 C   0  0  0  0  0  0  0  0  0  0  0  0
  -28.1701  -14.5939   20.3232 C   0  0  0  0  0  0  0  0  0  0  0  0
  -20.2855  -29.7064   21.7673 C   0  0  1  0  0  0  0  0  0  0  0  0
  -23.7820  -29.3380   23.2066 C   0  0  1  0  0  0  0  0  0  0  0  0
  -27.4872  -13.4241   19.5940 C   0  0  2  0  0  0  0  0  0  0  0  0
  -28.5993  -18.5846   17.2293 C   0  0  0  0  0  0  0  0  0  0  0  0
  -30.8103  -32.5564   22.7080 C   0  0  0  0  0  0  0  0  0  0  0  0
  -25.0864  -31.7365   19.4776 C   0  0  0  0  0  0  0  0  0  0  0  0
  -27.4814  -32.4655   19.4473 C   0  0  0  0  0  0  0  0  0  0  0  0
  -25.8506  -33.6081   20.9498 C   0  0  0  0  0  0  0  0  0  0  0  0
  -29.7408  -29.7945   25.0963 C   0  0  0  0  0  0  0  0  0  0  0  0
  -26.0385  -22.4149   21.8509 C   0  0  0  0  0  0  0  0  0  1  0  0
  -28.9635  -18.5307   18.7193 C   0  0  2  0  0  0  0  0  0  0  0  0
  -26.6139  -31.2625   21.5044 C   0  0  1  0  0  0  0  0  0  0  0  0
  -29.8211  -31.6955   23.4782 C   0  0  2  0  0  0  0  0  0  0  0  0
  -30.3988  -20.5975   20.2229 C   0  0  0  0  0  0  0  0  0  0  0  0
  -26.2511  -32.2416   20.3524 C   0  0  0  0  0  0  0  0  0  0  0  0
  -26.2091  -12.0478   21.1923 N   0  0  0  0  0  0  0  0  0  0  0  0
  -26.1867  -13.0172   20.2618 N   0  0  0  0  0  0  0  0  0  0  0  0
  -25.0303  -29.6460   22.5057 N   0  0  0  0  0  0  0  0  0  0  0  0
  -29.4231  -14.9533   19.6409 N   0  0  0  0  0  0  0  0  0  0  0  0
  -24.7425  -14.5122   19.1260 N   0  0  0  0  0  0  0  0  0  0  0  0
  -21.9581  -12.2655   21.8820 N   0  0  0  0  0  0  0  0  0  0  0  0
  -21.4641  -29.6921   22.6070 N   0  0  0  0  0  0  0  0  0  0  0  0
  -27.6957  -31.7278   22.3656 N   0  0  0  0  0  0  0  0  0  0  0  0
  -28.7754  -17.1901   19.2274 N   0  0  0  0  0  0  0  0  0  0  0  0
  -30.5881  -30.6939   24.2716 N   0  3  0  0  0  0  0  0  0  0  0  0
  -22.0692  -13.8904   20.2677 O   0  0  0  0  0  0  0  0  0  0  0  0
  -22.9708  -28.8511   21.0433 O   0  0  0  0  0  0  0  0  0  0  0  0
  -24.9136  -31.9163   23.0237 O   0  0  0  0  0  0  0  0  0  0  0  0
  -29.0962  -29.9126   22.0177 O   0  0  0  0  0  0  0  0  0  0  0  0
  -30.8333  -16.4379   18.5520 O   0  0  0  0  0  0  0  0  0  0  0  0
  -23.4005   -8.2449   25.4584 O   0  0  0  0  0  0  0  0  0  0  0  0
  -26.3324  -23.7248   21.3671 O   0  0  0  0  0  0  0  0  0  1  0  0
  -18.8957   -5.2153   24.4931 F   0  0  0  0  0  0  0  0  0  0  0  0
  -23.5435   -5.4863   25.3475 F   0  0  0  0  0  0  0  0  0  0  0  0
  -30.9085  -21.6161   20.9754 F   0  0  0  0  0  0  0  0  0  0  0  0
  -31.0066  -19.4682   20.6906 F   0  0  0  0  0  0  0  0  0  0  0  0
  -30.8920  -20.7869   18.9653 F   0  0  0  0  0  0  0  0  0  0  0  0
  1  2  1  0  0  0  0
  1  5  2  0  0  0  0
  2  6  2  0  0  0  0
  3 10  2  0  0  0  0
  3 18  1  0  0  0  0
  4 11  1  0  0  0  0
  4 18  2  0  0  0  0
  5 20  1  0  0  0  0
  6 22  1  0  0  0  0
  7 12  2  0  0  0  0
  7 21  1  0  0  0  0
  8  9  2  0  0  0  0
  8 24  1  0  0  0  0
  9 25  1  0  0  0  0
 10 27  1  0  0  0  0
 11 27  2  0  0  0  0
 12 28  1  0  0  0  0
 13 14  2  0  0  0  0
 13 29  1  0  0  0  0
 14 30  1  0  0  0  0
 15 23  1  0  0  0  0
 15 28  2  0  0  0  0
 16 24  2  0  0  0  0
 16 26  1  0  0  0  0
 17 30  2  0  0  0  0
 17 31  1  0  0  0  0
 18 32  1  0  0  0  0
 19 32  1  0  0  0  0
 19 33  2  0  0  0  0
 19 34  1  0  0  0  0
 20 22  2  0  0  0  0
 20 39  1  0  0  0  0
 21 23  2  0  0  0  0
 21 40  1  0  0  0  0
 22 48  1  0  0  0  0
 23 41  1  0  0  0  0
 24 57  1  0  0  0  0
 25 26  2  0  0  0  0
 25 58  1  0  0  0  0
 26 61  1  0  0  0  0
 27 78  1  0  0  0  0
 28 79  1  0  0  0  0
 29 31  2  0  0  0  0
 29 78  1  0  0  0  0
 30 80  1  0  0  0  0
 31 81  1  0  0  0  0
 32 63  2  0  0  0  0
 33 64  1  0  0  0  0
 33 67  1  0  0  0  0
 34 68  1  0  0  0  0
 34 73  2  0  0  0  0
 35 49  1  0  0  0  0
 35 69  1  0  0  0  0
 35 74  2  0  0  0  0
 36 59  1  0  0  0  0
 36 65  1  0  0  0  0
 36 75  2  0  0  0  0
 37 60  1  0  0  0  0
 37 70  1  0  0  0  0
 37 76  2  0  0  0  0
 38 66  1  0  0  0  0
 38 71  1  0  0  0  0
 38 77  2  0  0  0  0
 39 42  1  0  0  0  0
 40 49  1  0  0  0  0
 41 65  1  0  0  0  0
 42 44  1  0  0  0  0
 43 45  1  0  0  0  0
 43 46  1  0  0  0  0
 44 48  1  0  0  0  0
 45 50  1  0  0  0  0
 46 66  1  0  0  0  0
 47 50  1  0  0  0  0
 47 66  1  0  0  0  0
 48 69  1  0  0  0  0
 49 65  1  0  0  0  0
 50 64  1  0  0  0  0
 51 58  1  0  0  0  0
 52 60  1  0  0  0  0
 53 62  1  0  0  0  0
 54 62  1  0  0  0  0
 55 62  1  0  0  0  0
 56 72  1  0  0  0  0
 57 79  1  0  0  0  0
 58 71  1  0  0  0  0
 59 62  1  0  0  0  0
 59 70  1  0  0  0  0
 60 72  1  0  0  0  0
 61 82  1  0  0  0  0
 61 83  1  0  0  0  0
 61 84  1  0  0  0  0
 63 64  1  0  0  0  0
M  CHG  1  72   1
M  ISO  4  38 100  57 101  71 100  79 101
M  END
> <Batch ID>
0111

> <Smiles>
CNC(C)C(=O)NC(C(=O)N1Cc2cc([101O:1][101CH2:1]c3ccc(C(C)[100NH:0][100C:0](=O)N4CCCC(n5nc(-c6ccc(Oc7ccc(F)cc7F)cc6)c(C(N)=O)c5N)C4)c(C(F)(F)F)c3)ccc2CC1C(=O)NC1CCCc2ccccc21)C(C)(C)C

> <Shape>
0.261

> <Color>
0.110

> <Negative vol penalty>
0.000

$$$$

  -OEChem-04052320013D

 82 89  0     1  0  0  0  0  0999 V2000
  -26.8324  -18.7352   24.1417 C   0  0  0  0  0  0  0  0  0  0  0  0
  -26.8907  -19.9115   24.8806 C   0  0  0  0  0  0  0  0  0  0  0  0
  -26.9300  -15.2088   21.7880 C   0  0  0  0  0  0  0  0  0  0  0  0
  -26.7111  -15.7211   19.4371 C   0  0  0  0  0  0  0  0  0  0  0  0
  -26.0927  -18.6938   22.9618 C   0  0  0  0  0  0  0  0  0  0  0  0
  -26.1997  -21.0431   24.4462 C   0  0  0  0  0  0  0  0  0  0  0  0
  -26.0480  -26.7009   26.7031 C   0  0  0  0  0  0  0  0  0  0  0  0
  -25.7624  -14.4479   21.7309 C   0  0  0  0  0  0  0  0  0  0  0  0
  -25.5435  -14.9601   19.3800 C   0  0  0  0  0  0  0  0  0  0  0  0
  -26.7353  -27.9002   26.5212 C   0  0  0  0  0  0  0  0  0  0  0  0
  -24.8464  -11.3660   20.6842 C   0  0  0  0  0  0  0  0  0  0  0  0
  -24.8548  -10.1181   21.3075 C   0  0  0  0  0  0  0  0  0  0  0  0
  -25.0126  -28.6511   25.0087 C   0  0  0  0  0  0  0  0  0  0  0  0
  -23.0452  -10.8238   22.7444 C   0  0  0  0  0  0  0  0  0  0  0  0
  -27.4043  -15.8455   20.6411 C   0  0  0  0  0  0  0  0  0  0  0  0
  -29.9273  -16.1867   20.4797 C   0  0  0  0  0  0  0  0  0  0  0  0
  -25.4027  -19.8296   22.5069 C   0  0  0  0  0  0  0  0  0  0  0  0
  -24.8413  -26.4629   26.0296 C   0  0  0  0  0  0  0  0  0  0  0  0
  -25.4281  -21.0144   23.2704 C   0  0  0  0  0  0  0  0  0  0  0  0
  -24.3106  -27.4490   25.1858 C   0  0  0  0  0  0  0  0  0  0  0  0
  -25.0692  -14.3235   20.5269 C   0  0  0  0  0  0  0  0  0  0  0  0
  -26.2192  -28.8743   25.6717 C   0  0  0  0  0  0  0  0  0  0  0  0
  -23.9375  -12.3428   21.0911 C   0  0  0  0  0  0  0  0  0  0  0  0
  -23.9542   -9.8470   22.3375 C   0  0  0  0  0  0  0  0  0  0  0  0
  -23.0369  -12.0716   22.1212 C   0  0  0  0  0  0  0  0  0  0  0  0
  -28.6101  -16.6322   20.6996 C   0  0  0  0  0  0  0  0  0  0  0  0
  -30.7020  -17.3078   20.6510 C   0  0  0  0  0  0  0  0  0  0  0  0
  -30.4075  -14.8766   20.1500 C   0  0  0  0  0  0  0  0  0  0  0  0
  -23.8465  -24.3263   23.8967 C   0  0  0  0  0  0  0  0  0  0  0  0
  -28.5904  -26.0658   19.3238 C   0  0  0  0  0  0  0  0  0  0  0  0
  -20.9761  -25.7579   24.3801 C   0  0  0  0  0  0  0  0  0  0  0  0
  -19.2522  -28.5354   25.3603 C   0  0  0  0  0  0  0  0  0  0  0  0
  -29.4998  -23.0536   20.0213 C   0  0  0  0  0  0  0  0  0  0  0  0
  -24.6110  -19.7269   21.2271 C   0  0  0  0  0  0  0  0  0  0  0  0
  -24.0985  -25.1749   26.2573 C   0  0  0  0  0  0  0  0  0  0  0  0
  -23.0085  -27.2508   24.4552 C   0  0  0  0  0  0  0  0  0  0  0  0
  -24.2818  -21.0872   20.6208 C   0  0  0  0  0  0  0  0  0  0  0  0
  -30.7935  -21.4721   23.0085 C   0  0  0  0  0  0  0  0  0  0  0  0
  -23.6922  -22.0013   21.6845 C   0  0  0  0  0  0  0  0  0  0  0  0
  -30.4996  -19.9981   22.7239 C   0  0  0  0  0  0  0  0  0  0  0  0
  -29.6735  -22.3693   22.4900 C   0  0  0  0  0  0  0  0  0  0  0  0
  -29.0728  -20.7251   20.7552 C   0  0  0  0  0  0  0  0  0  0  0  0
  -24.7095  -22.2666   22.8015 C   0  0  1  0  0  0  0  0  0  0  0  0
  -23.1388  -24.8300   25.1227 C   0  0  1  0  0  0  0  0  0  0  0  0
  -30.1790  -19.7679   21.2351 C   0  0  2  0  0  0  0  0  0  0  0  0
  -27.6553  -25.5031   18.2785 C   0  0  0  0  0  0  0  0  0  0  0  0
  -16.9164  -29.4179   25.6104 C   0  0  0  0  0  0  0  0  0  0  0  0
  -20.8025  -26.1477   21.3589 C   0  0  0  0  0  0  0  0  0  0  0  0
  -18.9846  -27.8242   21.7497 C   0  0  0  0  0  0  0  0  0  0  0  0
  -18.6606  -25.4507   22.4456 C   0  0  0  0  0  0  0  0  0  0  0  0
  -19.5847  -28.9180   28.2761 C   0  0  0  0  0  0  0  0  0  0  0  0
  -28.6374  -31.9103   22.3630 C   0  0  0  0  0  0  0  0  0  0  0  0
  -29.9544  -25.4220   19.4377 C   0  0  0  0  0  0  0  0  0  0  0  0
  -28.3593  -28.8453   21.6765 C   0  0  0  0  0  0  0  0  0  0  0  0
  -29.0467  -27.6520   21.0228 C   0  0  0  0  0  0  0  0  0  0  0  0
  -29.2459  -29.5213   22.7144 C   0  0  0  0  0  0  0  0  0  0  0  0
  -28.9259  -31.0255   24.6729 C   0  0  0  0  0  0  0  0  0  0  0  0
  -28.3098  -30.0063   25.6109 C   0  0  0  0  0  0  0  0  0  1  0  0
  -20.2436  -26.9219   23.7577 C   0  0  1  0  0  0  0  0  0  0  0  0
  -18.0723  -28.7093   26.2994 C   0  0  2  0  0  0  0  0  0  0  0  0
  -19.6984  -26.5894   22.3401 C   0  0  0  0  0  0  0  0  0  0  0  0
  -28.5478  -17.9347   20.9887 N   0  0  0  0  0  0  0  0  0  0  0  0
  -28.1651  -27.0622   20.0141 N   0  0  0  0  0  0  0  0  0  0  0  0
  -29.8356  -18.3173   20.9517 N   0  0  0  0  0  0  0  0  0  0  0  0
  -22.3229  -25.9723   24.7057 N   0  0  0  0  0  0  0  0  0  0  0  0
  -29.4308  -22.1137   21.0632 N   0  0  0  0  0  0  0  0  0  0  0  0
  -32.0331  -17.5187   20.5723 N   0  0  0  0  0  0  0  0  0  0  0  0
  -29.4759  -13.8388   20.0113 N   0  0  0  0  0  0  0  0  0  0  0  0
  -24.0497  -22.9596   23.8861 N   0  0  0  0  0  0  0  0  0  0  0  0
  -19.2165  -27.3172   24.7154 N   0  0  0  0  0  0  0  0  0  0  0  0
  -29.8383  -24.3474   20.3983 N   0  0  0  0  0  0  0  0  0  0  0  0
  -18.4719  -29.5108   27.4905 N   0  3  0  0  0  0  0  0  0  0  0  0
  -28.5193  -30.7171   23.2787 N   0  3  1  0  0  0  0  0  0  0  0  0
  -31.6282  -14.6300   19.9994 O   0  0  0  0  0  0  0  0  0  0  0  0
  -24.1820  -25.1188   23.0243 O   0  0  0  0  0  0  0  0  0  0  0  0
  -20.3734  -24.6997   24.5770 O   0  0  0  0  0  0  0  0  0  0  0  0
  -20.1170  -29.3958   25.2108 O   0  0  0  0  0  0  0  0  0  0  0  0
  -29.2812  -22.7602   18.8410 O   0  0  0  0  0  0  0  0  0  0  0  0
  -23.9300  -13.5808   20.4708 O   0  0  0  0  0  0  0  0  0  0  0  0
  -26.8883  -30.0455   25.4918 O   0  0  0  0  0  0  0  0  0  1  0  0
  -23.9613   -8.6482   22.9349 F   0  0  0  0  0  0  0  0  0  0  0  0
  -22.1606  -13.0056   22.5156 F   0  0  0  0  0  0  0  0  0  0  0  0
  1  2  1  0  0  0  0
  1  5  2  0  0  0  0
  2  6  2  0  0  0  0
  3  8  2  0  0  0  0
  3 15  1  0  0  0  0
  4  9  1  0  0  0  0
  4 15  2  0  0  0  0
  5 17  1  0  0  0  0
  6 19  1  0  0  0  0
  7 10  2  0  0  0  0
  7 18  1  0  0  0  0
  8 21  1  0  0  0  0
  9 21  2  0  0  0  0
 10 22  1  0  0  0  0
 11 12  2  0  0  0  0
 11 23  1  0  0  0  0
 12 24  1  0  0  0  0
 13 20  1  0  0  0  0
 13 22  2  0  0  0  0
 14 24  2  0  0  0  0
 14 25  1  0  0  0  0
 15 26  1  0  0  0  0
 16 26  1  0  0  0  0
 16 27  2  0  0  0  0
 16 28  1  0  0  0  0
 17 19  2  0  0  0  0
 17 34  1  0  0  0  0
 18 20  2  0  0  0  0
 18 35  1  0  0  0  0
 19 43  1  0  0  0  0
 20 36  1  0  0  0  0
 21 79  1  0  0  0  0
 22 80  1  0  0  0  0
 23 25  2  0  0  0  0
 23 79  1  0  0  0  0
 24 81  1  0  0  0  0
 25 82  1  0  0  0  0
 26 62  2  0  0  0  0
 27 64  1  0  0  0  0
 27 67  1  0  0  0  0
 28 68  1  0  0  0  0
 28 74  2  0  0  0  0
 29 44  1  0  0  0  0
 29 69  1  0  0  0  0
 29 75  2  0  0  0  0
 30 46  1  0  0  0  0
 30 53  1  0  0  0  0
 30 63  2  0  0  0  0
 31 59  1  0  0  0  0
 31 65  1  0  0  0  0
 31 76  2  0  0  0  0
 32 60  1  0  0  0  0
 32 70  1  0  0  0  0
 32 77  2  0  0  0  0
 33 66  1  0  0  0  0
 33 71  1  0  0  0  0
 33 78  2  0  0  0  0
 34 37  1  0  0  0  0
 35 44  1  0  0  0  0
 36 65  1  0  0  0  0
 37 39  1  0  0  0  0
 38 40  1  0  0  0  0
 38 41  1  0  0  0  0
 39 43  1  0  0  0  0
 40 45  1  0  0  0  0
 41 66  1  0  0  0  0
 42 45  1  0  0  0  0
 42 66  1  0  0  0  0
 43 69  1  0  0  0  0
 44 65  1  0  0  0  0
 45 64  1  0  0  0  0
 47 60  1  0  0  0  0
 48 61  1  0  0  0  0
 49 61  1  0  0  0  0
 50 61  1  0  0  0  0
 51 72  1  0  0  0  0
 52 73  1  0  0  0  0
 53 71  1  0  0  0  0
 54 55  1  0  0  0  0
 54 56  1  0  0  0  0
 55 63  1  0  0  0  0
 56 73  1  0  0  0  0
 57 58  1  0  0  0  0
 57 73  1  0  0  0  0
 58 80  1  0  0  0  0
 59 61  1  0  0  0  0
 59 70  1  0  0  0  0
 60 72  1  0  0  0  0
 62 64  1  0  0  0  0
M  CHG  2  72   1  73   1
M  ISO  4  33 100  58 101  71 100  80 101
M  END
> <Batch ID>
0111

> <Smiles>
C=C(C[100NH:0][100C:0](=O)N1CCCC(n2nc(-c3ccc(Oc4ccc(F)cc4F)cc3)c(C(N)=O)c2N)C1)NCCCN(C)C[101CH2:1][101O:1]c1ccc2c(c1)CN(C(=O)C(NC(=O)C(C)NC)C(C)(C)C)C(C(=O)NC1CCCc3ccccc31)C2

> <Shape>
0.222

> <Color>
0.053

> <Negative vol penalty>
0.000

$$$$

  -OEChem-04052320013D

 87 96  0     1  0  0  0  0  0999 V2000
  -24.1966   -6.7436   24.2762 C   0  0  0  0  0  0  0  0  0  0  0  0
  -25.3795   -7.4385   24.0454 C   0  0  0  0  0  0  0  0  0  0  0  0
  -30.0062  -17.3676   16.7420 C   0  0  0  0  0  0  0  0  0  0  0  0
  -24.8800  -30.1789   23.0123 C   0  0  0  0  0  0  0  0  0  0  0  0
  -27.2239  -30.7231   22.7954 C   0  0  0  0  0  0  0  0  0  0  0  0
  -23.0868   -6.9694   23.4630 C   0  0  0  0  0  0  0  0  0  0  0  0
  -25.4537   -8.3589   23.0005 C   0  0  0  0  0  0  0  0  0  0  0  0
  -28.6364  -13.5905   22.9215 C   0  0  0  0  0  0  0  0  0  0  0  0
  -24.8312  -30.8712   24.2223 C   0  0  0  0  0  0  0  0  0  0  0  0
  -27.1751  -31.4155   24.0054 C   0  0  0  0  0  0  0  0  0  0  0  0
  -29.8800  -13.9238   22.3866 C   0  0  0  0  0  0  0  0  0  0  0  0
  -24.0020  -32.8007   27.1895 C   0  0  0  0  0  0  0  0  0  0  0  0
  -22.9218  -33.6568   27.4037 C   0  0  0  0  0  0  0  0  0  0  0  0
  -30.3417  -16.1420   17.3145 C   0  0  0  0  0  0  0  0  0  0  0  0
  -30.1215  -19.9277   17.2699 C   0  0  0  0  0  0  0  0  0  0  0  0
  -28.7946  -14.7663   20.4038 C   0  0  0  0  0  0  0  0  0  0  0  0
  -23.5573  -34.9448   25.4609 C   0  0  0  0  0  0  0  0  0  0  0  0
  -30.2909  -18.5325   17.4727 C   0  0  0  0  0  0  0  0  0  0  0  0
  -26.0764  -30.1048   22.2989 C   0  0  0  0  0  0  0  0  0  0  0  0
  -25.8883  -29.9077   19.7625 C   0  0  0  0  0  0  0  0  0  0  0  0
  -23.1444   -7.9001   22.4136 C   0  0  0  0  0  0  0  0  0  0  0  0
  -27.4613  -13.8329   22.1958 C   0  0  0  0  0  0  0  0  0  0  0  0
  -24.3440   -8.5964   22.1716 C   0  0  0  0  0  0  0  0  0  0  0  0
  -27.5372  -14.4374   20.9328 C   0  0  0  0  0  0  0  0  0  0  0  0
  -25.9787  -31.4895   24.7188 C   0  0  0  0  0  0  0  0  0  0  0  0
  -29.9594  -14.5092   21.1264 C   0  0  0  0  0  0  0  0  0  0  0  0
  -24.8599  -33.0167   26.1110 C   0  0  0  0  0  0  0  0  0  0  0  0
  -22.6994  -34.7288   26.5394 C   0  0  0  0  0  0  0  0  0  0  0  0
  -24.6375  -34.0887   25.2467 C   0  0  0  0  0  0  0  0  0  0  0  0
  -26.1276  -29.3894   21.0493 C   0  0  0  0  0  0  0  0  0  0  0  0
  -30.9364  -16.1314   18.5690 C   0  0  0  0  0  0  0  0  0  0  0  0
  -30.6147  -20.5732   18.3832 C   0  0  0  0  0  0  0  0  0  0  0  0
  -30.8896  -18.3761   18.7194 C   0  0  0  0  0  0  0  0  0  0  0  0
  -26.0606  -28.8347   18.9226 C   0  0  0  0  0  0  0  0  0  0  0  0
  -25.5415  -31.2401   19.3622 C   0  0  0  0  0  0  0  0  0  0  0  0
  -25.1412  -12.0122   21.0101 C   0  0  0  0  0  0  0  0  0  0  0  0
  -23.7909  -14.8744   20.2981 C   0  0  0  0  0  0  0  0  0  0  0  0
  -24.2145  -18.2037   19.6789 C   0  0  0  0  0  0  0  0  0  0  0  0
  -29.2553  -23.8983   19.4522 C   0  0  0  0  0  0  0  0  0  0  0  0
  -21.9336   -8.0757   21.5317 C   0  0  0  0  0  0  0  0  0  0  0  0
  -26.1259  -13.4919   22.7981 C   0  0  0  0  0  0  0  0  0  0  0  0
  -26.3040  -14.7372   20.1218 C   0  0  0  0  0  0  0  0  0  0  0  0
  -21.9788   -9.3416   20.6799 C   0  0  0  0  0  0  0  0  0  0  0  0
  -25.6959  -24.0636   18.8192 C   0  0  0  0  0  0  0  0  0  0  0  0
  -23.3440   -9.4896   20.0157 C   0  0  0  0  0  0  0  0  0  0  0  0
  -25.3858  -25.5118   19.2023 C   0  0  0  0  0  0  0  0  0  0  0  0
  -26.7432  -23.4580   19.7491 C   0  0  0  0  0  0  0  0  0  0  0  0
  -27.7075  -25.6780   20.2133 C   0  0  0  0  0  0  0  0  0  0  0  0
  -24.4560   -9.6209   21.0635 C   0  0  1  0  0  0  0  0  0  0  0  0
  -25.0279  -13.3127   21.7542 C   0  0  1  0  0  0  0  0  0  0  0  0
  -26.6718  -26.3541   19.2966 C   0  0  2  0  0  0  0  0  0  0  0  0
  -32.7155  -14.3680   18.8303 C   0  0  0  0  0  0  0  0  0  0  0  0
  -22.9291  -20.2771   19.0906 C   0  0  0  0  0  0  0  0  0  0  0  0
  -31.3282  -20.4815   22.9980 C   0  0  0  0  0  0  0  0  0  0  0  0
  -29.6701  -19.0429   21.7951 C   0  0  0  0  0  0  0  0  0  0  0  0
  -23.5365  -13.8969   17.4189 C   0  0  0  0  0  0  0  0  0  0  0  0
  -23.1546  -16.2706   16.7203 C   0  0  0  0  0  0  0  0  0  0  0  0
  -21.5513  -15.1558   18.2724 C   0  0  0  0  0  0  0  0  0  0  0  0
  -25.0471  -19.5667   22.1705 C   0  0  0  0  0  0  0  0  0  0  0  0
  -30.6814  -22.0183   18.6847 C   0  0  0  0  0  0  0  0  0  0  0  0
  -31.6758  -19.8896   20.5466 C   0  0  0  0  0  0  0  0  0  0  0  0
  -31.2963  -14.7967   19.1806 C   0  0  1  0  0  0  0  0  0  1  0  0
  -23.8402  -15.8160   19.1191 C   0  0  1  0  0  0  0  0  0  0  0  0
  -23.4962  -19.4278   20.2175 C   0  0  2  0  0  0  0  0  0  0  0  0
  -30.6533  -20.2064   21.6524 C   0  0  0  0  0  0  0  0  0  0  0  0
  -23.0442  -15.2775   17.8969 C   0  0  0  0  0  0  0  0  0  0  0  0
  -26.4287  -28.0882   21.0333 N   0  0  0  0  0  0  0  0  0  0  0  0
  -31.2335  -17.2195   19.3168 N   0  0  0  0  0  0  0  0  0  0  0  0
  -31.0782  -19.6227   19.2555 N   0  0  0  0  0  0  0  0  0  0  0  0
  -26.3798  -27.7799   19.7261 N   0  0  0  0  0  0  0  0  0  0  0  0
  -25.0220  -14.3795   20.7511 N   0  0  0  0  0  0  0  0  0  0  0  0
  -27.9489  -24.2979   19.7794 N   0  0  0  0  0  0  0  0  0  0  0  0
  -25.9686  -28.7000   17.5825 N   0  0  0  0  0  0  0  0  0  0  0  0
  -25.4046  -32.2213   20.3536 N   0  0  0  0  0  0  0  0  0  0  0  0
  -24.4780  -10.9600   21.6121 N   0  0  0  0  0  0  0  0  0  0  0  0
  -23.3780  -17.1097   19.6103 N   0  0  0  0  0  0  0  0  0  0  0  0
  -29.3995  -22.5738   19.0577 N   0  0  0  0  0  0  0  0  0  0  0  0
  -24.4330  -20.2693   21.0144 N   0  3  0  0  0  0  0  0  0  0  0  0
  -25.3423  -31.5475   18.1625 O   0  0  0  0  0  0  0  0  0  0  0  0
  -25.7816  -11.9672   19.9663 O   0  0  0  0  0  0  0  0  0  0  0  0
  -22.7009  -14.5942   20.8030 O   0  0  0  0  0  0  0  0  0  0  0  0
  -25.3982  -18.2177   19.3483 O   0  0  0  0  0  0  0  0  0  0  0  0
  -30.2217  -24.6668   19.5027 O   0  0  0  0  0  0  0  0  0  0  0  0
  -25.9314  -32.1654   25.8993 O   0  0  0  0  0  0  0  0  0  0  0  0
  -31.1720  -14.8350   20.6017 O   0  0  0  0  0  0  0  0  0  1  0  0
  -21.6612  -35.5499   26.7443 F   0  0  0  0  0  0  0  0  0  0  0  0
  -25.4576  -34.3005   24.2083 F   0  0  0  0  0  0  0  0  0  0  0  0
  1  2  1  0  0  0  0
  1  6  2  0  0  0  0
  2  7  2  0  0  0  0
  3 14  2  0  0  0  0
  3 18  1  0  0  0  0
  4  9  2  0  0  0  0
  4 19  1  0  0  0  0
  5 10  1  0  0  0  0
  5 19  2  0  0  0  0
  6 21  1  0  0  0  0
  7 23  1  0  0  0  0
  8 11  2  0  0  0  0
  8 22  1  0  0  0  0
  9 25  1  0  0  0  0
 10 25  2  0  0  0  0
 11 26  1  0  0  0  0
 12 13  2  0  0  0  0
 12 27  1  0  0  0  0
 13 28  1  0  0  0  0
 14 31  1  0  0  0  0
 15 18  1  0  0  0  0
 15 32  2  0  0  0  0
 16 24  1  0  0  0  0
 16 26  2  0  0  0  0
 17 28  2  0  0  0  0
 17 29  1  0  0  0  0
 18 33  2  0  0  0  0
 19 30  1  0  0  0  0
 20 30  1  0  0  0  0
 20 34  2  0  0  0  0
 20 35  1  0  0  0  0
 21 23  2  0  0  0  0
 21 40  1  0  0  0  0
 22 24  2  0  0  0  0
 22 41  1  0  0  0  0
 23 49  1  0  0  0  0
 24 42  1  0  0  0  0
 25 84  1  0  0  0  0
 26 85  1  0  0  0  0
 27 29  2  0  0  0  0
 27 84  1  0  0  0  0
 28 86  1  0  0  0  0
 29 87  1  0  0  0  0
 30 67  2  0  0  0  0
 31 62  1  0  0  0  0
 31 68  2  0  0  0  0
 32 60  1  0  0  0  0
 32 69  1  0  0  0  0
 33 68  1  0  0  0  0
 33 69  1  0  0  0  0
 34 70  1  0  0  0  0
 34 73  1  0  0  0  0
 35 74  1  0  0  0  0
 35 79  2  0  0  0  0
 36 50  1  0  0  0  0
 36 75  1  0  0  0  0
 36 80  2  0  0  0  0
 37 63  1  0  0  0  0
 37 71  1  0  0  0  0
 37 81  2  0  0  0  0
 38 64  1  0  0  0  0
 38 76  1  0  0  0  0
 38 82  2  0  0  0  0
 39 72  1  0  0  0  0
 39 77  1  0  0  0  0
 39 83  2  0  0  0  0
 40 43  1  0  0  0  0
 41 50  1  0  0  0  0
 42 71  1  0  0  0  0
 43 45  1  0  0  0  0
 44 46  1  0  0  0  0
 44 47  1  0  0  0  0
 45 49  1  0  0  0  0
 46 51  1  0  0  0  0
 47 72  1  0  0  0  0
 48 51  1  0  0  0  0
 48 72  1  0  0  0  0
 49 75  1  0  0  0  0
 50 71  1  0  0  0  0
 51 70  1  0  0  0  0
 52 62  1  0  0  0  0
 53 64  1  0  0  0  0
 54 65  1  0  0  0  0
 55 65  1  0  0  0  0
 56 66  1  0  0  0  0
 57 66  1  0  0  0  0
 58 66  1  0  0  0  0
 59 78  1  0  0  0  0
 60 77  1  0  0  0  0
 61 65  1  0  0  0  0
 61 69  1  0  0  0  0
 62 85  1  0  0  0  0
 63 66  1  0  0  0  0
 63 76  1  0  0  0  0
 64 78  1  0  0  0  0
 67 70  1  0  0  0  0
M  CHG  1  78   1
M  ISO  4  39 100  62 101  77 100  85 101
M  END
> <Batch ID>
0111

> <Smiles>
CNC(C)C(=O)NC(C(=O)N1Cc2cc([101O:1][101CH:1](C)c3ccc4cc(C[100NH:0][100C:0](=O)N5CCCC(n6nc(-c7ccc(Oc8ccc(F)cc8F)cc7)c(C(N)=O)c6N)C5)n(CC(C)C)c4n3)ccc2CC1C(=O)NC1CCCc2ccccc21)C(C)(C)C

> <Shape>
0.250

> <Color>
0.082

> <Negative vol penalty>
0.000

$$$$

  -OEChem-04052320013D

 81 89  0     1  0  0  0  0  0999 V2000
  -31.7693  -33.9923   21.5712 C   0  0  0  0  0  0  0  0  0  0  0  0
  -31.5776  -32.7531   20.9687 C   0  0  0  0  0  0  0  0  0  0  0  0
  -23.7591  -10.4119   23.1648 C   0  0  0  0  0  0  0  0  0  0  0  0
  -23.6771  -12.1310   24.8604 C   0  0  0  0  0  0  0  0  0  0  0  0
  -31.0238  -34.3419   22.6963 C   0  0  0  0  0  0  0  0  0  0  0  0
  -30.6409  -31.8623   21.4916 C   0  0  0  0  0  0  0  0  0  0  0  0
  -27.1332  -27.9449   18.3522 C   0  0  0  0  0  0  0  0  0  0  0  0
  -23.0631   -9.5464   24.0086 C   0  0  0  0  0  0  0  0  0  0  0  0
  -22.9809  -11.2656   25.7042 C   0  0  0  0  0  0  0  0  0  0  0  0
  -27.2569  -26.5822   18.0845 C   0  0  0  0  0  0  0  0  0  0  0  0
  -19.8633   -9.0588   24.9865 C   0  0  0  0  0  0  0  0  0  0  0  0
  -18.8119   -8.3247   24.4378 C   0  0  0  0  0  0  0  0  0  0  0  0
  -25.8159  -26.0900   19.9555 C   0  0  0  0  0  0  0  0  0  0  0  0
  -30.8078  -19.4695   20.6037 C   0  0  0  0  0  0  0  0  0  0  0  0
  -19.9374   -6.2704   25.0295 C   0  0  0  0  0  0  0  0  0  0  0  0
  -28.5877  -19.8201   20.7382 C   0  0  0  0  0  0  0  0  0  0  0  0
  -24.0662  -11.7042   23.5907 C   0  0  0  0  0  0  0  0  0  0  0  0
  -24.2387  -13.4963   21.7834 C   0  0  0  0  0  0  0  0  0  0  0  0
  -30.0706  -33.4588   23.2275 C   0  0  0  0  0  0  0  0  0  0  0  0
  -26.3574  -28.3906   19.4320 C   0  0  0  0  0  0  0  0  0  0  0  0
  -29.8828  -32.1999   22.6257 C   0  0  0  0  0  0  0  0  0  0  0  0
  -25.6818  -27.4590   20.2332 C   0  0  0  0  0  0  0  0  0  0  0  0
  -29.5684  -18.8760   20.9483 C   0  0  0  0  0  0  0  0  0  0  0  0
  -22.6740   -9.9732   25.2783 C   0  0  0  0  0  0  0  0  0  0  0  0
  -26.6006  -25.6544   18.8880 C   0  0  0  0  0  0  0  0  0  0  0  0
  -20.9518   -8.3987   25.5567 C   0  0  0  0  0  0  0  0  0  0  0  0
  -18.8489   -6.9305   24.4592 C   0  0  0  0  0  0  0  0  0  0  0  0
  -20.9889   -7.0045   25.5782 C   0  0  0  0  0  0  0  0  0  0  0  0
  -24.7857  -12.5986   22.7198 C   0  0  0  0  0  0  0  0  0  0  0  0
  -30.5467  -20.7584   20.1937 C   0  0  0  0  0  0  0  0  0  0  0  0
  -25.3299  -14.1085   21.2167 C   0  0  0  0  0  0  0  0  0  0  0  0
  -22.8670  -13.7538   21.4552 C   0  0  0  0  0  0  0  0  0  0  0  0
  -26.9479  -30.0180   22.0978 C   0  0  0  0  0  0  0  0  0  0  0  0
  -23.7210  -29.9157   22.4121 C   0  0  0  0  0  0  0  0  0  0  0  0
  -20.7837  -28.3549   21.6487 C   0  0  0  0  0  0  0  0  0  0  0  0
  -30.3047  -16.5714   21.6505 C   0  0  0  0  0  0  0  0  0  0  0  0
  -29.3222  -33.8621   24.4733 C   0  0  0  0  0  0  0  0  0  0  0  0
  -26.2124  -29.8651   19.6912 C   0  0  0  0  0  0  0  0  0  0  0  0
  -24.8204  -27.8868   21.3921 C   0  0  0  0  0  0  0  0  0  0  0  0
  -28.0834  -33.0115   24.7419 C   0  0  0  0  0  0  0  0  0  0  0  0
  -30.2608  -13.0128   21.5441 C   0  0  0  0  0  0  0  0  0  0  0  0
  -28.4081  -31.5298   24.5806 C   0  0  0  0  0  0  0  0  0  0  0  0
  -28.7875  -12.6616   21.7635 C   0  0  0  0  0  0  0  0  0  0  0  0
  -30.6846  -14.2243   22.3727 C   0  0  0  0  0  0  0  0  0  0  0  0
  -28.3694  -15.0647   22.4250 C   0  0  0  0  0  0  0  0  0  0  0  0
  -28.8585  -31.2164   23.1487 C   0  0  1  0  0  0  0  0  0  0  0  0
  -25.8116  -30.1825   21.1285 C   0  0  1  0  0  0  0  0  0  0  0  0
  -27.8793  -13.8905   21.5620 C   0  0  2  0  0  0  0  0  0  0  0  0
  -31.4731  -21.8106   19.7279 C   0  0  0  0  0  0  0  0  0  0  0  0
  -18.3154  -28.4803   22.0833 C   0  0  0  0  0  0  0  0  0  0  0  0
  -27.1071  -21.5098   17.9488 C   0  0  0  0  0  0  0  0  0  0  0  0
  -24.1547  -28.7490   25.1979 C   0  0  0  0  0  0  0  0  0  0  0  0
  -21.7577  -28.0260   25.1923 C   0  0  0  0  0  0  0  0  0  0  0  0
  -22.3277  -30.4506   25.0524 C   0  0  0  0  0  0  0  0  0  0  0  0
  -20.1808  -28.7488   18.7781 C   0  0  0  0  0  0  0  0  0  0  0  0
  -28.4651  -22.2345   19.9286 C   0  0  0  0  0  0  0  0  0  0  0  0
  -27.9399  -23.8852   18.0325 C   0  0  0  0  0  0  0  0  0  1  0  0
  -22.7386  -28.9631   23.0497 C   0  0  1  0  0  0  0  0  0  0  0  0
  -19.4517  -28.8969   21.1625 C   0  0  2  0  0  0  0  0  0  0  0  0
  -28.2437  -22.4281   18.4131 C   0  0  2  0  0  0  0  0  0  0  0  0
  -22.7624  -29.0387   24.6025 C   0  0  0  0  0  0  0  0  0  0  0  0
  -26.1205  -12.6340   22.7492 N   0  0  0  0  0  0  0  0  0  0  0  0
  -29.1940  -20.9606   20.2799 N   0  0  0  0  0  0  0  0  0  0  0  0
  -26.4216  -13.5613   21.8242 N   0  0  0  0  0  0  0  0  0  0  0  0
  -24.7152  -29.3392   21.6089 N   0  0  0  0  0  0  0  0  0  0  0  0
  -29.7815  -15.3508   22.1271 N   0  0  0  0  0  0  0  0  0  0  0  0
  -25.4525  -15.0560   20.2630 N   0  0  0  0  0  0  0  0  0  0  0  0
  -21.8718  -13.0367   22.1331 N   0  0  0  0  0  0  0  0  0  0  0  0
  -29.3472  -17.5594   21.4230 N   0  0  0  0  0  0  0  0  0  0  0  0
  -27.7166  -31.1545   22.2618 N   0  0  0  0  0  0  0  0  0  0  0  0
  -21.4390  -29.2597   22.4568 N   0  0  0  0  0  0  0  0  0  0  0  0
  -19.1558  -28.3912   19.7922 N   0  3  0  0  0  0  0  0  0  0  0  0
  -22.5342  -14.5832   20.5749 O   0  0  0  0  0  0  0  0  0  0  0  0
  -27.1141  -28.9401   22.6566 O   0  0  0  0  0  0  0  0  0  0  0  0
  -23.6061  -31.1273   22.6134 O   0  0  0  0  0  0  0  0  0  0  0  0
  -21.1995  -27.2388   21.3452 O   0  0  0  0  0  0  0  0  0  0  0  0
  -31.5098  -16.7199   21.4325 O   0  0  0  0  0  0  0  0  0  0  0  0
  -21.9945   -9.1290   26.1018 O   0  0  0  0  0  0  0  0  0  0  0  0
  -26.7201  -24.3238   18.6293 O   0  0  0  0  0  0  0  0  0  1  0  0
  -17.8384   -6.2256   23.9336 F   0  0  0  0  0  0  0  0  0  0  0  0
  -22.0314   -6.3648   26.1256 F   0  0  0  0  0  0  0  0  0  0  0  0
  1  2  1  0  0  0  0
  1  5  2  0  0  0  0
  2  6  2  0  0  0  0
  3  8  2  0  0  0  0
  3 17  1  0  0  0  0
  4  9  1  0  0  0  0
  4 17  2  0  0  0  0
  5 19  1  0  0  0  0
  6 21  1  0  0  0  0
  7 10  2  0  0  0  0
  7 20  1  0  0  0  0
  8 24  1  0  0  0  0
  9 24  2  0  0  0  0
 10 25  1  0  0  0  0
 11 12  2  0  0  0  0
 11 26  1  0  0  0  0
 12 27  1  0  0  0  0
 13 22  1  0  0  0  0
 13 25  2  0  0  0  0
 14 23  1  0  0  0  0
 14 30  2  0  0  0  0
 15 27  2  0  0  0  0
 15 28  1  0  0  0  0
 16 23  2  0  0  0  0
 16 63  1  0  0  0  0
 17 29  1  0  0  0  0
 18 29  1  0  0  0  0
 18 31  2  0  0  0  0
 18 32  1  0  0  0  0
 19 21  2  0  0  0  0
 19 37  1  0  0  0  0
 20 22  2  0  0  0  0
 20 38  1  0  0  0  0
 21 46  1  0  0  0  0
 22 39  1  0  0  0  0
 23 69  1  0  0  0  0
 24 78  1  0  0  0  0
 25 79  1  0  0  0  0
 26 28  2  0  0  0  0
 26 78  1  0  0  0  0
 27 80  1  0  0  0  0
 28 81  1  0  0  0  0
 29 62  2  0  0  0  0
 30 49  1  0  0  0  0
 30 63  1  0  0  0  0
 31 64  1  0  0  0  0
 31 67  1  0  0  0  0
 32 68  1  0  0  0  0
 32 73  2  0  0  0  0
 33 47  1  0  0  0  0
 33 70  1  0  0  0  0
 33 74  2  0  0  0  0
 34 58  1  0  0  0  0
 34 65  1  0  0  0  0
 34 75  2  0  0  0  0
 35 59  1  0  0  0  0
 35 71  1  0  0  0  0
 35 76  2  0  0  0  0
 36 66  1  0  0  0  0
 36 69  1  0  0  0  0
 36 77  2  0  0  0  0
 37 40  1  0  0  0  0
 38 47  1  0  0  0  0
 39 65  1  0  0  0  0
 40 42  1  0  0  0  0
 41 43  1  0  0  0  0
 41 44  1  0  0  0  0
 42 46  1  0  0  0  0
 43 48  1  0  0  0  0
 44 66  1  0  0  0  0
 45 48  1  0  0  0  0
 45 66  1  0  0  0  0
 46 70  1  0  0  0  0
 47 65  1  0  0  0  0
 48 64  1  0  0  0  0
 50 59  1  0  0  0  0
 51 60  1  0  0  0  0
 52 61  1  0  0  0  0
 53 61  1  0  0  0  0
 54 61  1  0  0  0  0
 55 72  1  0  0  0  0
 56 60  1  0  0  0  0
 56 63  1  0  0  0  0
 57 60  1  0  0  0  0
 57 79  1  0  0  0  0
 58 61  1  0  0  0  0
 58 71  1  0  0  0  0
 59 72  1  0  0  0  0
 62 64  1  0  0  0  0
M  CHG  1  72   1
M  ISO  4  36 100  57 101  69 100  79 101
M  END
> <Batch ID>
0111

> <Smiles>
CNC(C)C(=O)NC(C(=O)N1Cc2cc([101O:1][101CH2:1]C(C)Cn3cc([100NH:0][100C:0](=O)N4CCCC(n5nc(-c6ccc(Oc7ccc(F)cc7F)cc6)c(C(N)=O)c5N)C4)cc3C)ccc2CC1C(=O)NC1CCCc2ccccc21)C(C)(C)C

> <Shape>
0.234

> <Color>
0.113

> <Negative vol penalty>
0.000

$$$$

  -OEChem-04052320013D

 90 98  0     1  0  0  0  0  0999 V2000
  -20.9902  -27.1067   25.9180 C   0  0  0  0  0  0  0  0  0  0  0  0
  -21.0081  -25.7947   25.4556 C   0  0  0  0  0  0  0  0  0  0  0  0
  -26.9815  -23.4591   20.8370 C   0  0  0  0  0  0  0  0  0  0  0  0
  -28.4534  -23.2636   18.9311 C   0  0  0  0  0  0  0  0  0  0  0  0
  -20.5635  -28.1348   25.0785 C   0  0  0  0  0  0  0  0  0  0  0  0
  -20.5982  -25.5100   24.1535 C   0  0  0  0  0  0  0  0  0  0  0  0
  -23.7252  -22.3038   21.7897 C   0  0  0  0  0  0  0  0  0  0  0  0
  -27.1955  -24.8372   20.8609 C   0  0  0  0  0  0  0  0  0  0  0  0
  -28.6673  -24.6418   18.9550 C   0  0  0  0  0  0  0  0  0  0  0  0
  -23.6143  -20.9520   22.1125 C   0  0  0  0  0  0  0  0  0  0  0  0
  -26.1061  -27.5569   19.1727 C   0  0  0  0  0  0  0  0  0  0  0  0
  -24.9938  -28.3829   19.3341 C   0  0  0  0  0  0  0  0  0  0  0  0
  -22.3212  -20.5858   20.1093 C   0  0  0  0  0  0  0  0  0  0  0  0
  -25.9557  -29.2823   21.3597 C   0  0  0  0  0  0  0  0  0  0  0  0
  -26.0894  -12.7372   21.6306 C   0  0  0  0  0  0  0  0  0  0  0  0
  -27.6105  -22.6723   19.8721 C   0  0  0  0  0  0  0  0  0  0  0  0
  -26.3871  -20.5557   19.1434 C   0  0  0  0  0  0  0  0  0  0  0  0
  -20.1573  -27.8637   23.7624 C   0  0  0  0  0  0  0  0  0  0  0  0
  -23.1246  -22.8097   20.6279 C   0  0  0  0  0  0  0  0  0  0  0  0
  -20.1644  -26.5353   23.2960 C   0  0  0  0  0  0  0  0  0  0  0  0
  -22.4281  -21.9439   19.7727 C   0  0  0  0  0  0  0  0  0  0  0  0
  -24.7483  -12.4268   21.5836 C   0  0  0  0  0  0  0  0  0  0  0  0
  -24.4289  -12.1330   20.2350 C   0  0  0  0  0  0  0  0  0  0  0  0
  -28.0384  -25.4286   19.9199 C   0  0  0  0  0  0  0  0  0  0  0  0
  -22.9098  -20.0934   21.2738 C   0  0  0  0  0  0  0  0  0  0  0  0
  -27.1432  -27.5935   20.1049 C   0  0  0  0  0  0  0  0  0  0  0  0
  -24.9186  -29.2456   20.4276 C   0  0  0  0  0  0  0  0  0  0  0  0
  -27.0680  -28.4562   21.1983 C   0  0  0  0  0  0  0  0  0  0  0  0
  -27.3903  -21.2486   19.8472 C   0  0  0  0  0  0  0  0  0  0  0  0
  -25.5848  -12.2727   19.4988 C   0  0  0  0  0  0  0  0  0  0  0  0
  -26.6055  -19.2340   19.4465 C   0  0  0  0  0  0  0  0  0  0  0  0
  -25.3507  -21.0616   18.2916 C   0  0  0  0  0  0  0  0  0  0  0  0
  -20.8675  -24.9653   20.0259 C   0  0  0  0  0  0  0  0  0  0  0  0
  -21.7106  -24.4143   16.9424 C   0  0  0  0  0  0  0  0  0  0  0  0
  -22.6834  -22.2704   14.2084 C   0  0  0  0  0  0  0  0  0  0  0  0
  -30.4950  -15.1120   19.8917 C   0  0  0  0  0  0  0  0  0  0  0  0
  -19.6593  -29.0020   22.9074 C   0  0  0  0  0  0  0  0  0  0  0  0
  -23.2761  -24.2652   20.2801 C   0  0  0  0  0  0  0  0  0  0  0  0
  -21.7823  -22.4333   18.5031 C   0  0  0  0  0  0  0  0  0  0  0  0
  -19.5964  -28.6643   21.4200 C   0  0  0  0  0  0  0  0  0  0  0  0
  -29.5982  -17.0798   22.8959 C   0  0  0  0  0  0  0  0  0  0  0  0
  -18.9401  -27.3036   21.2088 C   0  0  0  0  0  0  0  0  0  0  0  0
  -28.9257  -18.3140   22.2971 C   0  0  0  0  0  0  0  0  0  0  0  0
  -30.6267  -16.4764   21.9442 C   0  0  0  0  0  0  0  0  0  0  0  0
  -29.4134  -17.3951   19.9953 C   0  0  0  0  0  0  0  0  0  0  0  0
  -19.7508  -26.1896   21.8819 C   0  0  1  0  0  0  0  0  0  0  0  0
  -22.1886  -24.7704   19.3370 C   0  0  1  0  0  0  0  0  0  0  0  0
  -28.3381  -18.0001   20.9103 C   0  0  2  0  0  0  0  0  0  0  0  0
  -23.1019  -11.7478   19.7119 C   0  0  0  0  0  0  0  0  0  0  0  0
  -25.0078  -13.0688   17.1779 C   0  0  0  0  0  0  0  0  0  0  0  0
  -25.5562  -10.6410   17.5777 C   0  0  0  0  0  0  0  0  0  0  0  0
  -23.2866  -22.8235   11.8362 C   0  0  0  0  0  0  0  0  0  0  0  0
  -21.1361  -14.2170   21.9481 C   0  0  0  0  0  0  0  0  0  0  0  0
  -18.7666  -23.8546   16.3686 C   0  0  0  0  0  0  0  0  0  0  0  0
  -19.4627  -22.7739   14.2201 C   0  0  0  0  0  0  0  0  0  0  0  0
  -19.9364  -25.1920   14.6087 C   0  0  0  0  0  0  0  0  0  0  0  0
  -30.0616  -13.8395   17.8247 C   0  0  0  0  0  0  0  0  0  0  0  0
  -25.2915  -20.8888   14.4272 C   0  0  0  0  0  0  0  0  0  0  0  0
  -23.8030  -12.4073   22.7594 C   0  0  0  0  0  0  0  0  0  0  0  0
  -23.3121  -13.8043   23.1658 C   0  0  0  0  0  0  0  0  0  0  0  0
  -27.9652  -12.8911   19.9948 C   0  0  0  0  0  0  0  0  0  0  0  0
  -28.1732  -14.2613   19.3550 C   0  0  0  0  0  0  0  0  0  0  0  0
  -23.9536  -16.7078   22.0149 C   0  0  0  0  0  0  0  0  0  0  0  0
  -23.8719  -18.1894   22.3252 C   0  0  0  0  0  0  0  0  0  1  0  0
  -25.8221  -12.0879   18.0515 C   0  0  0  0  0  0  0  0  0  0  0  0
  -21.2671  -23.4502   15.8687 C   0  0  1  0  0  0  0  0  0  0  0  0
  -23.8163  -22.5075   13.2263 C   0  0  2  0  0  0  0  0  0  0  0  0
  -22.6047  -14.6062   22.0651 C   0  0  2  0  0  0  0  0  0  0  0  0
  -19.8686  -23.8085   15.2914 C   0  0  0  0  0  0  0  0  0  0  0  0
  -28.1866  -20.4344   20.5451 N   0  0  0  0  0  0  0  0  0  0  0  0
  -26.5877  -12.6399   20.3576 N   0  0  0  0  0  0  0  0  0  0  0  0
  -27.6839  -19.2163   20.2813 N   0  0  0  0  0  0  0  0  0  0  0  0
  -21.9530  -23.8659   18.2098 N   0  0  0  0  0  0  0  0  0  0  0  0
  -30.0533  -16.2281   20.6210 N   0  0  0  0  0  0  0  0  0  0  0  0
  -25.9783  -18.0968   19.0778 N   0  0  0  0  0  0  0  0  0  0  0  0
  -25.2695  -22.4458   18.0878 N   0  0  0  0  0  0  0  0  0  0  0  0
  -20.9099  -25.8545   21.0827 N   0  0  0  0  0  0  0  0  0  0  0  0
  -22.3353  -23.4259   14.8753 N   0  0  0  0  0  0  0  0  0  0  0  0
  -29.5735  -14.5118   19.0204 N   0  0  0  0  0  0  0  0  0  0  0  0
  -24.6842  -21.2995   13.1351 N   0  3  0  0  0  0  0  0  0  0  0  0
  -22.6681  -16.0596   22.3776 N   0  3  0  0  0  0  0  0  0  0  0  0
  -24.5110  -20.3097   17.7409 O   0  0  0  0  0  0  0  0  0  0  0  0
  -19.8824  -24.3552   19.6271 O   0  0  0  0  0  0  0  0  0  0  0  0
  -21.8442  -25.6088   16.6649 O   0  0  0  0  0  0  0  0  0  0  0  0
  -22.1571  -21.1708   14.3654 O   0  0  0  0  0  0  0  0  0  0  0  0
  -31.6444  -14.6711   20.0196 O   0  0  0  0  0  0  0  0  0  0  0  0
  -28.2472  -26.7734   19.9428 O   0  0  0  0  0  0  0  0  0  0  0  0
  -22.7996  -18.7736   21.5868 O   0  0  0  0  0  0  0  0  0  1  0  0
  -23.8511  -30.0399   20.5817 F   0  0  0  0  0  0  0  0  0  0  0  0
  -28.0617  -28.4967   22.0965 F   0  0  0  0  0  0  0  0  0  0  0  0
  1  2  1  0  0  0  0
  1  5  2  0  0  0  0
  2  6  2  0  0  0  0
  3  8  2  0  0  0  0
  3 16  1  0  0  0  0
  4  9  1  0  0  0  0
  4 16  2  0  0  0  0
  5 18  1  0  0  0  0
  6 20  1  0  0  0  0
  7 10  2  0  0  0  0
  7 19  1  0  0  0  0
  8 24  1  0  0  0  0
  9 24  2  0  0  0  0
 10 25  1  0  0  0  0
 11 12  2  0  0  0  0
 11 26  1  0  0  0  0
 12 27  1  0  0  0  0
 13 21  1  0  0  0  0
 13 25  2  0  0  0  0
 14 27  2  0  0  0  0
 14 28  1  0  0  0  0
 15 22  2  0  0  0  0
 15 71  1  0  0  0  0
 16 29  1  0  0  0  0
 17 29  1  0  0  0  0
 17 31  2  0  0  0  0
 17 32  1  0  0  0  0
 18 20  2  0  0  0  0
 18 37  1  0  0  0  0
 19 21  2  0  0  0  0
 19 38  1  0  0  0  0
 20 46  1  0  0  0  0
 21 39  1  0  0  0  0
 22 23  1  0  0  0  0
 22 59  1  0  0  0  0
 23 30  2  0  0  0  0
 23 49  1  0  0  0  0
 24 87  1  0  0  0  0
 25 88  1  0  0  0  0
 26 28  2  0  0  0  0
 26 87  1  0  0  0  0
 27 89  1  0  0  0  0
 28 90  1  0  0  0  0
 29 70  2  0  0  0  0
 30 65  1  0  0  0  0
 30 71  1  0  0  0  0
 31 72  1  0  0  0  0
 31 75  1  0  0  0  0
 32 76  1  0  0  0  0
 32 82  2  0  0  0  0
 33 47  1  0  0  0  0
 33 77  1  0  0  0  0
 33 83  2  0  0  0  0
 34 66  1  0  0  0  0
 34 73  1  0  0  0  0
 34 84  2  0  0  0  0
 35 67  1  0  0  0  0
 35 78  1  0  0  0  0
 35 85  2  0  0  0  0
 36 74  1  0  0  0  0
 36 79  1  0  0  0  0
 36 86  2  0  0  0  0
 37 40  1  0  0  0  0
 38 47  1  0  0  0  0
 39 73  1  0  0  0  0
 40 42  1  0  0  0  0
 41 43  1  0  0  0  0
 41 44  1  0  0  0  0
 42 46  1  0  0  0  0
 43 48  1  0  0  0  0
 44 74  1  0  0  0  0
 45 48  1  0  0  0  0
 45 74  1  0  0  0  0
 46 77  1  0  0  0  0
 47 73  1  0  0  0  0
 48 72  1  0  0  0  0
 50 65  1  0  0  0  0
 51 65  1  0  0  0  0
 52 67  1  0  0  0  0
 53 68  1  0  0  0  0
 54 69  1  0  0  0  0
 55 69  1  0  0  0  0
 56 69  1  0  0  0  0
 57 79  1  0  0  0  0
 58 80  1  0  0  0  0
 59 60  1  0  0  0  0
 60 68  1  0  0  0  0
 61 62  1  0  0  0  0
 61 71  1  0  0  0  0
 62 79  1  0  0  0  0
 63 64  1  0  0  0  0
 63 81  1  0  0  0  0
 64 88  1  0  0  0  0
 66 69  1  0  0  0  0
 66 78  1  0  0  0  0
 67 80  1  0  0  0  0
 68 81  1  0  0  0  0
 70 72  1  0  0  0  0
M  CHG  2  80   1  81   1
M  ISO  4  36 100  64 101  79 100  88 101
M  END
> <Batch ID>
0111

> <Smiles>
CNC(C)C(=O)NC(C(=O)N1Cc2cc([101O:1][101CH2:1]CNC(C)CCc3cn(CC[100N:0](C)[100C:0](=O)N4CCCC(n5nc(-c6ccc(Oc7ccc(F)cc7F)cc6)c(C(N)=O)c5N)C4)c(C(C)C)c3C)ccc2CC1C(=O)NC1CCCc2ccccc21)C(C)(C)C

> <Shape>
0.212

> <Color>
0.095

> <Negative vol penalty>
0.000

$$$$

  -OEChem-04052320013D

 87 95  0     1  0  0  0  0  0999 V2000
  -23.5734  -26.0899   22.6067 C   0  0  0  0  0  0  0  0  0  0  0  0
  -23.9866  -24.7772   22.4029 C   0  0  0  0  0  0  0  0  0  0  0  0
  -19.5644  -22.7763   23.6197 C   0  0  0  0  0  0  0  0  0  0  0  0
  -18.6266  -21.9973   21.5339 C   0  0  0  0  0  0  0  0  0  0  0  0
  -24.1811  -27.1282   21.9020 C   0  0  0  0  0  0  0  0  0  0  0  0
  -25.0070  -24.5019   21.4933 C   0  0  0  0  0  0  0  0  0  0  0  0
  -29.2598  -20.1186   21.9473 C   0  0  0  0  0  0  0  0  0  0  0  0
  -19.0004  -24.0336   23.4037 C   0  0  0  0  0  0  0  0  0  0  0  0
  -18.0625  -23.2546   21.3179 C   0  0  0  0  0  0  0  0  0  0  0  0
  -29.3572  -18.8448   21.3890 C   0  0  0  0  0  0  0  0  0  0  0  0
  -18.1074  -27.5542   23.2261 C   0  0  0  0  0  0  0  0  0  0  0  0
  -18.9056  -28.6737   23.4608 C   0  0  0  0  0  0  0  0  0  0  0  0
  -30.7250  -19.7348   19.6124 C   0  0  0  0  0  0  0  0  0  0  0  0
  -20.4744  -27.9050   21.7919 C   0  0  0  0  0  0  0  0  0  0  0  0
  -29.1963  -13.2373   20.4281 C   0  0  0  0  0  0  0  0  0  0  0  0
  -19.3776  -21.7581   22.6847 C   0  0  0  0  0  0  0  0  0  0  0  0
  -19.3753  -19.3684   23.5772 C   0  0  0  0  0  0  0  0  0  0  0  0
  -25.2161  -26.8665   20.9905 C   0  0  0  0  0  0  0  0  0  0  0  0
  -29.8862  -21.2138   21.3353 C   0  0  0  0  0  0  0  0  0  0  0  0
  -25.6282  -25.5376   20.7748 C   0  0  0  0  0  0  0  0  0  0  0  0
  -30.6361  -21.0210   20.1663 C   0  0  0  0  0  0  0  0  0  0  0  0
  -27.9495  -13.6328   19.9710 C   0  0  0  0  0  0  0  0  0  0  0  0
  -26.8283  -13.1341   20.6248 C   0  0  0  0  0  0  0  0  0  0  0  0
  -26.9859  -12.2674   21.7005 C   0  0  0  0  0  0  0  0  0  0  0  0
  -18.2494  -24.2728   22.2529 C   0  0  0  0  0  0  0  0  0  0  0  0
  -30.0875  -18.6532   20.2197 C   0  0  0  0  0  0  0  0  0  0  0  0
  -18.4927  -26.6100   22.2744 C   0  0  0  0  0  0  0  0  0  0  0  0
  -20.0891  -28.8492   22.7437 C   0  0  0  0  0  0  0  0  0  0  0  0
  -19.6761  -26.7855   21.5572 C   0  0  0  0  0  0  0  0  0  0  0  0
  -19.9604  -20.4593   22.9069 C   0  0  0  0  0  0  0  0  0  0  0  0
  -28.2758  -11.9329   22.0801 C   0  0  0  0  0  0  0  0  0  0  0  0
  -20.3262  -18.3790   23.5182 C   0  0  0  0  0  0  0  0  0  0  0  0
  -18.0874  -19.2590   24.1977 C   0  0  0  0  0  0  0  0  0  0  0  0
  -28.8823  -23.9432   20.0522 C   0  0  0  0  0  0  0  0  0  0  0  0
  -32.0601  -24.5546   19.8282 C   0  0  0  0  0  0  0  0  0  0  0  0
  -35.2407  -23.3300   19.6526 C   0  0  0  0  0  0  0  0  0  0  0  0
  -23.9758  -15.4526   20.6785 C   0  0  0  0  0  0  0  0  0  0  0  0
  -25.8105  -28.0168   20.2171 C   0  0  0  0  0  0  0  0  0  0  0  0
  -29.7937  -22.5767   21.9649 C   0  0  0  0  0  0  0  0  0  0  0  0
  -31.3444  -22.1602   19.4815 C   0  0  0  0  0  0  0  0  0  0  0  0
  -27.1403  -27.6785   19.5481 C   0  0  0  0  0  0  0  0  0  0  0  0
  -25.1796  -18.5545   22.1022 C   0  0  0  0  0  0  0  0  0  0  0  0
  -27.0499  -26.3364   18.8289 C   0  0  0  0  0  0  0  0  0  0  0  0
  -23.8686  -19.2377   22.4952 C   0  0  0  0  0  0  0  0  0  0  0  0
  -25.0328  -17.7899   20.7899 C   0  0  0  0  0  0  0  0  0  0  0  0
  -22.6199  -17.4672   21.1739 C   0  0  0  0  0  0  0  0  0  0  0  0
  -26.7488  -25.2013   19.8149 C   0  0  1  0  0  0  0  0  0  0  0  0
  -30.0449  -23.7103   20.9752 C   0  0  1  0  0  0  0  0  0  0  0  0
  -22.6966  -18.2385   22.5041 C   0  0  2  0  0  0  0  0  0  0  0  0
  -25.8028  -11.7168   22.4237 C   0  0  0  0  0  0  0  0  0  0  0  0
  -28.5080  -11.0054   23.2279 C   0  0  0  0  0  0  0  0  0  0  0  0
  -37.6282  -24.0722   19.4374 C   0  0  0  0  0  0  0  0  0  0  0  0
  -24.8523  -11.4788   16.8703 C   0  0  0  0  0  0  0  0  0  0  0  0
  -24.1841  -10.8772   19.2042 C   0  0  0  0  0  0  0  0  0  0  0  0
  -31.6158  -25.1159   16.8622 C   0  0  0  0  0  0  0  0  0  0  0  0
  -34.0881  -24.9112   16.5245 C   0  0  0  0  0  0  0  0  0  0  0  0
  -33.1769  -26.7029   18.0018 C   0  0  0  0  0  0  0  0  0  0  0  0
  -35.9720  -22.1225   22.2538 C   0  0  0  0  0  0  0  0  0  0  0  0
  -27.8396  -14.5753   18.7991 C   0  0  0  0  0  0  0  0  0  0  0  0
  -29.0006  -15.5667   18.6951 C   0  0  0  0  0  0  0  0  0  0  0  0
  -25.1510  -13.1846   18.6918 C   0  0  0  0  0  0  0  0  0  0  0  0
  -29.0854  -16.5236   19.8785 C   0  0  0  0  0  0  0  0  0  1  0  0
  -25.4596  -13.5297   20.1709 C   0  0  2  0  0  0  0  0  0  0  0  0
  -33.1270  -24.3014   18.7906 C   0  0  1  0  0  0  0  0  0  0  0  0
  -36.5078  -23.7070   20.3987 C   0  0  2  0  0  0  0  0  0  0  0  0
  -25.1714  -11.6788   18.3548 C   0  0  0  0  0  0  0  0  0  0  0  0
  -32.9871  -25.2365   17.5564 C   0  0  0  0  0  0  0  0  0  0  0  0
  -29.3890  -12.3972   21.4696 N   0  0  0  0  0  0  0  0  0  0  0  0
  -21.1880  -20.1888   22.4554 N   0  0  0  0  0  0  0  0  0  0  0  0
  -21.3821  -18.9167   22.8427 N   0  0  0  0  0  0  0  0  0  0  0  0
  -31.2188  -23.4749   20.1322 N   0  0  0  0  0  0  0  0  0  0  0  0
  -23.9120  -16.8427   20.8710 N   0  0  0  0  0  0  0  0  0  0  0  0
  -20.3538  -17.1103   23.9787 N   0  0  0  0  0  0  0  0  0  0  0  0
  -17.2344  -20.3707   24.1669 N   0  0  0  0  0  0  0  0  0  0  0  0
  -27.9448  -24.8326   20.5416 N   0  0  0  0  0  0  0  0  0  0  0  0
  -34.4056  -24.4142   19.4839 N   0  0  0  0  0  0  0  0  0  0  0  0
  -25.2349  -14.9415   20.3887 N   0  0  0  0  0  0  0  0  0  0  0  0
  -36.9675  -22.5705   21.2461 N   0  3  0  0  0  0  0  0  0  0  0  0
  -17.7108  -18.2121   24.7769 O   0  0  0  0  0  0  0  0  0  0  0  0
  -28.8397  -23.3603   18.9752 O   0  0  0  0  0  0  0  0  0  0  0  0
  -31.9808  -25.6672   20.3550 O   0  0  0  0  0  0  0  0  0  0  0  0
  -35.0160  -22.1888   19.2555 O   0  0  0  0  0  0  0  0  0  0  0  0
  -22.9844  -14.7199   20.7639 O   0  0  0  0  0  0  0  0  0  0  0  0
  -17.6987  -25.4995   22.0420 O   0  0  0  0  0  0  0  0  0  0  0  0
  -30.1837  -17.4111   19.6723 O   0  0  0  0  0  0  0  0  0  1  0  0
  -20.8547  -29.9251   22.9680 F   0  0  0  0  0  0  0  0  0  0  0  0
  -20.0509  -25.8824   20.6408 F   0  0  0  0  0  0  0  0  0  0  0  0
  1  2  1  0  0  0  0
  1  5  2  0  0  0  0
  2  6  2  0  0  0  0
  3  8  2  0  0  0  0
  3 16  1  0  0  0  0
  4  9  1  0  0  0  0
  4 16  2  0  0  0  0
  5 18  1  0  0  0  0
  6 20  1  0  0  0  0
  7 10  2  0  0  0  0
  7 19  1  0  0  0  0
  8 25  1  0  0  0  0
  9 25  2  0  0  0  0
 10 26  1  0  0  0  0
 11 12  2  0  0  0  0
 11 27  1  0  0  0  0
 12 28  1  0  0  0  0
 13 21  1  0  0  0  0
 13 26  2  0  0  0  0
 14 28  2  0  0  0  0
 14 29  1  0  0  0  0
 15 22  1  0  0  0  0
 15 68  2  0  0  0  0
 16 30  1  0  0  0  0
 17 30  1  0  0  0  0
 17 32  2  0  0  0  0
 17 33  1  0  0  0  0
 18 20  2  0  0  0  0
 18 38  1  0  0  0  0
 19 21  2  0  0  0  0
 19 39  1  0  0  0  0
 20 47  1  0  0  0  0
 21 40  1  0  0  0  0
 22 23  2  0  0  0  0
 22 59  1  0  0  0  0
 23 24  1  0  0  0  0
 23 63  1  0  0  0  0
 24 31  2  0  0  0  0
 24 50  1  0  0  0  0
 25 84  1  0  0  0  0
 26 85  1  0  0  0  0
 27 29  2  0  0  0  0
 27 84  1  0  0  0  0
 28 86  1  0  0  0  0
 29 87  1  0  0  0  0
 30 69  2  0  0  0  0
 31 51  1  0  0  0  0
 31 68  1  0  0  0  0
 32 70  1  0  0  0  0
 32 73  1  0  0  0  0
 33 74  1  0  0  0  0
 33 79  2  0  0  0  0
 34 48  1  0  0  0  0
 34 75  1  0  0  0  0
 34 80  2  0  0  0  0
 35 64  1  0  0  0  0
 35 71  1  0  0  0  0
 35 81  2  0  0  0  0
 36 65  1  0  0  0  0
 36 76  1  0  0  0  0
 36 82  2  0  0  0  0
 37 72  1  0  0  0  0
 37 77  1  0  0  0  0
 37 83  2  0  0  0  0
 38 41  1  0  0  0  0
 39 48  1  0  0  0  0
 40 71  1  0  0  0  0
 41 43  1  0  0  0  0
 42 44  1  0  0  0  0
 42 45  1  0  0  0  0
 43 47  1  0  0  0  0
 44 49  1  0  0  0  0
 45 72  1  0  0  0  0
 46 49  1  0  0  0  0
 46 72  1  0  0  0  0
 47 75  1  0  0  0  0
 48 71  1  0  0  0  0
 49 70  1  0  0  0  0
 52 65  1  0  0  0  0
 53 66  1  0  0  0  0
 54 66  1  0  0  0  0
 55 67  1  0  0  0  0
 56 67  1  0  0  0  0
 57 67  1  0  0  0  0
 58 78  1  0  0  0  0
 59 60  1  0  0  0  0
 60 62  1  0  0  0  0
 61 63  1  0  0  0  0
 61 66  1  0  0  0  0
 62 85  1  0  0  0  0
 63 77  1  0  0  0  0
 64 67  1  0  0  0  0
 64 76  1  0  0  0  0
 65 78  1  0  0  0  0
 69 70  1  0  0  0  0
M  CHG  1  78   1
M  ISO  4  37 100  62 101  77 100  85 101
M  END
> <Batch ID>
0111

> <Smiles>
CNC(C)C(=O)NC(C(=O)N1Cc2cc([101O:1][101CH2:1]CCc3cnc(C)c(C)c3C(CC(C)C)[100NH:0][100C:0](=O)N3CCCC(n4nc(-c5ccc(Oc6ccc(F)cc6F)cc5)c(C(N)=O)c4N)C3)ccc2CC1C(=O)NC1CCCc2ccccc21)C(C)(C)C

> <Shape>
0.191

> <Color>
0.087

> <Negative vol penalty>
0.000

$$$$

  -OEChem-04052320013D

 81 90  0     1  0  0  0  0  0999 V2000
  -30.2552  -25.4215   17.6957 C   0  0  0  0  0  0  0  0  0  0  0  0
  -28.8661  -25.4817   17.7424 C   0  0  0  0  0  0  0  0  0  0  0  0
  -23.8584  -14.0212   21.4275 C   0  0  0  0  0  0  0  0  0  0  0  0
  -25.8950  -14.0580   22.7268 C   0  0  0  0  0  0  0  0  0  0  0  0
  -31.0086  -25.8843   18.7737 C   0  0  0  0  0  0  0  0  0  0  0  0
  -28.2295  -26.0039   18.8678 C   0  0  0  0  0  0  0  0  0  0  0  0
  -23.0335  -29.2432   18.9871 C   0  0  0  0  0  0  0  0  0  0  0  0
  -24.3370  -12.9261   20.7084 C   0  0  0  0  0  0  0  0  0  0  0  0
  -26.3735  -12.9628   22.0077 C   0  0  0  0  0  0  0  0  0  0  0  0
  -21.7125  -28.8876   19.2561 C   0  0  0  0  0  0  0  0  0  0  0  0
  -28.2829  -10.4025   20.2731 C   0  0  0  0  0  0  0  0  0  0  0  0
  -29.6040  -10.4465   19.8276 C   0  0  0  0  0  0  0  0  0  0  0  0
  -21.9938  -29.5971   21.5445 C   0  0  0  0  0  0  0  0  0  0  0  0
  -29.1047  -12.4307   18.5429 C   0  0  0  0  0  0  0  0  0  0  0  0
  -24.6374  -14.5873   22.4367 C   0  0  0  0  0  0  0  0  0  0  0  0
  -23.3874  -15.6924   24.3664 C   0  0  0  0  0  0  0  0  0  0  0  0
  -30.3812  -26.4214   19.9088 C   0  0  0  0  0  0  0  0  0  0  0  0
  -23.8492  -29.7691   19.9993 C   0  0  0  0  0  0  0  0  0  0  0  0
  -28.9752  -26.4732   19.9626 C   0  0  0  0  0  0  0  0  0  0  0  0
  -23.3240  -29.9609   21.2851 C   0  0  0  0  0  0  0  0  0  0  0  0
  -25.5945  -12.3968   20.9985 C   0  0  0  0  0  0  0  0  0  0  0  0
  -21.1933  -29.0619   20.5356 C   0  0  0  0  0  0  0  0  0  0  0  0
  -27.3727  -11.3726   19.8534 C   0  0  0  0  0  0  0  0  0  0  0  0
  -30.0149  -11.4606   18.9625 C   0  0  0  0  0  0  0  0  0  0  0  0
  -27.7836  -12.3867   18.9883 C   0  0  0  0  0  0  0  0  0  0  0  0
  -24.1439  -15.7190   23.1795 C   0  0  0  0  0  0  0  0  0  0  0  0
  -23.1729  -17.0154   24.6666 C   0  0  0  0  0  0  0  0  0  0  0  0
  -22.9203  -14.5719   25.1293 C   0  0  0  0  0  0  0  0  0  0  0  0
  -26.5465  -28.8526   21.4093 C   0  0  0  0  0  0  0  0  0  0  0  0
  -26.3205  -31.7502   22.8499 C   0  0  0  0  0  0  0  0  0  0  0  0
  -24.3376  -34.3408   23.8517 C   0  0  0  0  0  0  0  0  0  0  0  0
  -21.8514  -22.0556   23.3745 C   0  0  0  0  0  0  0  0  0  0  0  0
  -31.2363  -26.8657   21.0690 C   0  0  0  0  0  0  0  0  0  0  0  0
  -25.2640  -30.1725   19.6863 C   0  0  0  0  0  0  0  0  0  0  0  0
  -24.1522  -30.5405   22.4017 C   0  0  0  0  0  0  0  0  0  0  0  0
  -30.4950  -27.7495   22.0687 C   0  0  0  0  0  0  0  0  0  0  0  0
  -25.2001  -21.2147   22.7245 C   0  0  0  0  0  0  0  0  0  0  0  0
  -29.1333  -27.1496   22.4046 C   0  0  0  0  0  0  0  0  0  0  0  0
  -25.1666  -19.6946   22.8798 C   0  0  0  0  0  0  0  0  0  0  0  0
  -17.0593  -27.8455   21.9613 C   0  0  0  0  0  0  0  0  0  0  0  0
  -17.5247  -27.2500   23.2593 C   0  0  0  0  0  0  0  0  0  0  0  0
  -23.9600  -21.7448   22.0025 C   0  0  0  0  0  0  0  0  0  0  0  0
  -21.9683  -23.8894   21.6286 C   0  0  0  0  0  0  0  0  0  0  0  0
  -21.1247  -24.3636   23.8983 C   0  0  0  0  0  0  0  0  0  0  0  0
  -22.6480  -19.7911   22.7644 C   0  0  0  0  0  0  0  0  0  0  0  0
  -20.6627  -24.3990   21.0267 C   0  0  0  0  0  0  0  0  0  0  0  0
  -19.8013  -24.8550   23.3347 C   0  0  0  0  0  0  0  0  0  0  0  0
  -28.2487  -27.0556   21.1555 C   0  0  1  0  0  0  0  0  0  0  0  0
  -26.1589  -30.2196   20.9209 C   0  0  1  0  0  0  0  0  0  0  0  0
  -23.8535  -19.2356   23.5383 C   0  0  1  0  0  0  0  0  0  0  0  0
  -18.4640  -27.3013   22.0771 C   0  0  0  0  0  0  0  0  0  0  0  0
  -24.4330  -36.5502   25.0377 C   0  0  0  0  0  0  0  0  0  0  0  0
  -26.5750  -30.3015   25.5231 C   0  0  0  0  0  0  0  0  0  0  0  0
  -25.7243  -32.3709   26.6464 C   0  0  0  0  0  0  0  0  0  0  0  0
  -27.8651  -32.4383   25.3676 C   0  0  0  0  0  0  0  0  0  0  0  0
  -23.3435  -35.7924   21.4719 C   0  0  0  0  0  0  0  0  0  0  0  0
  -18.7829  -26.0037   21.3674 C   0  0  0  0  0  0  0  0  0  0  0  0
  -19.6002  -28.2857   22.1217 C   0  0  0  0  0  0  0  0  0  1  0  0
  -25.6766  -32.2688   24.1130 C   0  0  1  0  0  0  0  0  0  0  0  0
  -24.4862  -35.8431   23.6924 C   0  0  2  0  0  0  0  0  0  0  0  0
  -26.4450  -31.8321   25.3922 C   0  0  0  0  0  0  0  0  0  0  0  0
  -24.3931  -16.9605   22.7546 N   0  0  0  0  0  0  0  0  0  0  0  0
  -23.7897  -17.7263   23.6796 N   0  0  0  0  0  0  0  0  0  0  0  0
  -25.5317  -30.9136   22.0475 N   0  0  0  0  0  0  0  0  0  0  0  0
  -22.7334  -21.2478   22.6412 N   0  0  0  0  0  0  0  0  0  0  0  0
  -21.7604  -23.4039   22.9982 N   0  0  0  0  0  0  0  0  0  0  0  0
  -22.5187  -17.6283   25.6760 N   0  0  0  0  0  0  0  0  0  0  0  0
  -23.2300  -13.2813   24.6791 N   0  0  0  0  0  0  0  0  0  0  0  0
  -27.6964  -28.3527   20.8285 N   0  0  0  0  0  0  0  0  0  0  0  0
  -25.5618  -33.7139   23.9490 N   0  0  0  0  0  0  0  0  0  0  0  0
  -20.0367  -25.4152   21.9513 N   0  3  0  0  0  0  0  0  0  0  0  0
  -23.3944  -36.3835   22.8340 N   0  3  0  0  0  0  0  0  0  0  0  0
  -22.2343  -14.7108   26.1703 O   0  0  0  0  0  0  0  0  0  0  0  0
  -25.8544  -28.2933   22.2519 O   0  0  0  0  0  0  0  0  0  0  0  0
  -27.4781  -32.0810   22.5813 O   0  0  0  0  0  0  0  0  0  0  0  0
  -23.2447  -33.7799   23.8901 O   0  0  0  0  0  0  0  0  0  0  0  0
  -21.1834  -21.5985   24.3106 O   0  0  0  0  0  0  0  0  0  0  0  0
  -26.0617  -11.3280   20.2971 O   0  0  0  0  0  0  0  0  0  0  0  0
  -19.8929  -28.7120   20.8034 O   0  0  0  0  0  0  0  0  0  1  0  0
  -31.2839  -11.5036   18.5361 F   0  0  0  0  0  0  0  0  0  0  0  0
  -26.9140  -13.3221   18.5826 F   0  0  0  0  0  0  0  0  0  0  0  0
  1  2  1  0  0  0  0
  1  5  2  0  0  0  0
  2  6  2  0  0  0  0
  3  8  2  0  0  0  0
  3 15  1  0  0  0  0
  4  9  1  0  0  0  0
  4 15  2  0  0  0  0
  5 17  1  0  0  0  0
  6 19  1  0  0  0  0
  7 10  2  0  0  0  0
  7 18  1  0  0  0  0
  8 21  1  0  0  0  0
  9 21  2  0  0  0  0
 10 22  1  0  0  0  0
 11 12  2  0  0  0  0
 11 23  1  0  0  0  0
 12 24  1  0  0  0  0
 13 20  1  0  0  0  0
 13 22  2  0  0  0  0
 14 24  2  0  0  0  0
 14 25  1  0  0  0  0
 15 26  1  0  0  0  0
 16 26  1  0  0  0  0
 16 27  2  0  0  0  0
 16 28  1  0  0  0  0
 17 19  2  0  0  0  0
 17 33  1  0  0  0  0
 18 20  2  0  0  0  0
 18 34  1  0  0  0  0
 19 48  1  0  0  0  0
 20 35  1  0  0  0  0
 21 78  1  0  0  0  0
 22 79  1  0  0  0  0
 23 25  2  0  0  0  0
 23 78  1  0  0  0  0
 24 80  1  0  0  0  0
 25 81  1  0  0  0  0
 26 62  2  0  0  0  0
 27 63  1  0  0  0  0
 27 67  1  0  0  0  0
 28 68  1  0  0  0  0
 28 73  2  0  0  0  0
 29 49  1  0  0  0  0
 29 69  1  0  0  0  0
 29 74  2  0  0  0  0
 30 59  1  0  0  0  0
 30 64  1  0  0  0  0
 30 75  2  0  0  0  0
 31 60  1  0  0  0  0
 31 70  1  0  0  0  0
 31 76  2  0  0  0  0
 32 65  1  0  0  0  0
 32 66  1  0  0  0  0
 32 77  2  0  0  0  0
 33 36  1  0  0  0  0
 34 49  1  0  0  0  0
 35 64  1  0  0  0  0
 36 38  1  0  0  0  0
 37 39  1  0  0  0  0
 37 42  1  0  0  0  0
 38 48  1  0  0  0  0
 39 50  1  0  0  0  0
 40 41  1  0  0  0  0
 40 51  1  0  0  0  0
 41 51  1  0  0  0  0
 42 65  1  0  0  0  0
 43 46  1  0  0  0  0
 43 66  1  0  0  0  0
 44 47  1  0  0  0  0
 44 66  1  0  0  0  0
 45 50  1  0  0  0  0
 45 65  1  0  0  0  0
 46 71  1  0  0  0  0
 47 71  1  0  0  0  0
 48 69  1  0  0  0  0
 49 64  1  0  0  0  0
 50 63  1  0  0  0  0
 51 57  1  0  0  0  0
 51 58  1  0  0  0  0
 52 60  1  0  0  0  0
 53 61  1  0  0  0  0
 54 61  1  0  0  0  0
 55 61  1  0  0  0  0
 56 72  1  0  0  0  0
 57 71  1  0  0  0  0
 58 79  1  0  0  0  0
 59 61  1  0  0  0  0
 59 70  1  0  0  0  0
 60 72  1  0  0  0  0
 62 63  1  0  0  0  0
M  CHG  2  71   1  72   1
M  ISO  4  32 100  58 101  66 100  79 101
M  END
> <Batch ID>
0111

> <Smiles>
CNC(C)C(=O)NC(C(=O)N1Cc2cc([101O:1][101CH2:1]C3(CN4CC[100N:0]([100C:0](=O)N5CCCC(n6nc(-c7ccc(Oc8ccc(F)cc8F)cc7)c(C(N)=O)c6N)C5)CC4)CC3)ccc2CC1C(=O)NC1CCCc2ccccc21)C(C)(C)C

> <Shape>
0.294

> <Color>
0.075

> <Negative vol penalty>
0.000

$$$$

  -OEChem-04052320013D

 82 91  0     1  0  0  0  0  0999 V2000
  -16.8993  -30.0097   24.5868 C   0  0  0  0  0  0  0  0  0  0  0  0
  -18.1832  -30.4217   24.9257 C   0  0  0  0  0  0  0  0  0  0  0  0
  -26.6797  -14.3062   17.8349 C   0  0  0  0  0  0  0  0  0  0  0  0
  -26.6913  -15.5589   19.9008 C   0  0  0  0  0  0  0  0  0  0  0  0
  -16.7191  -29.0487   23.5942 C   0  0  0  0  0  0  0  0  0  0  0  0
  -19.2865  -29.8817   24.2640 C   0  0  0  0  0  0  0  0  0  0  0  0
  -26.9952  -28.7702   22.4397 C   0  0  0  0  0  0  0  0  0  0  0  0
  -26.3986  -13.1386   18.5445 C   0  0  0  0  0  0  0  0  0  0  0  0
  -26.4102  -14.3913   20.6103 C   0  0  0  0  0  0  0  0  0  0  0  0
  -27.8886  -27.9045   21.8102 C   0  0  0  0  0  0  0  0  0  0  0  0
  -23.7107  -12.4685   21.2703 C   0  0  0  0  0  0  0  0  0  0  0  0
  -22.7279  -12.5330   22.2580 C   0  0  0  0  0  0  0  0  0  0  0  0
  -31.7082  -25.5850   19.1591 C   0  0  0  0  0  0  0  0  0  0  0  0
  -32.0883  -24.4056   18.4723 C   0  0  0  0  0  0  0  0  0  0  0  0
  -26.5352  -27.9686   19.8146 C   0  0  0  0  0  0  0  0  0  0  0  0
  -24.3532  -11.8704   23.9183 C   0  0  0  0  0  0  0  0  0  0  0  0
  -26.8261  -15.5163   18.5131 C   0  0  0  0  0  0  0  0  0  0  0  0
  -26.1896  -17.6306   17.2356 C   0  0  0  0  0  0  0  0  0  0  0  0
  -17.8220  -28.4880   22.9292 C   0  0  0  0  0  0  0  0  0  0  0  0
  -25.8574  -29.2345   21.7640 C   0  0  0  0  0  0  0  0  0  0  0  0
  -19.1240  -28.9281   23.2427 C   0  0  0  0  0  0  0  0  0  0  0  0
  -25.6316  -28.8438   20.4362 C   0  0  0  0  0  0  0  0  0  0  0  0
  -26.2639  -13.1812   19.9322 C   0  0  0  0  0  0  0  0  0  0  0  0
  -27.6575  -27.5019   20.4983 C   0  0  0  0  0  0  0  0  0  0  0  0
  -25.0147  -12.1049   21.6065 C   0  0  0  0  0  0  0  0  0  0  0  0
  -23.0492  -12.2340   23.5820 C   0  0  0  0  0  0  0  0  0  0  0  0
  -25.3360  -11.8059   22.9305 C   0  0  0  0  0  0  0  0  0  0  0  0
  -27.1170  -16.7226   17.7807 C   0  0  0  0  0  0  0  0  0  0  0  0
  -30.5059  -25.3295   19.7808 C   0  0  0  0  0  0  0  0  0  0  0  0
  -31.1066  -23.4654   18.6951 C   0  0  0  0  0  0  0  0  0  0  0  0
  -26.9640  -18.5991   16.6449 C   0  0  0  0  0  0  0  0  0  0  0  0
  -24.7564  -17.6014   17.2609 C   0  0  0  0  0  0  0  0  0  0  0  0
  -22.6872  -29.0611   22.1709 C   0  0  0  0  0  0  0  0  0  0  0  0
  -22.7629  -31.1194   19.5611 C   0  0  0  0  0  0  0  0  0  0  0  0
  -20.0978  -32.9788   20.6002 C   0  0  0  0  0  0  0  0  0  0  0  0
  -31.9256  -21.4524   17.4209 C   0  0  0  0  0  0  0  0  0  0  0  0
  -17.5691  -27.4571   21.8575 C   0  0  0  0  0  0  0  0  0  0  0  0
  -24.9219  -30.1921   22.4512 C   0  0  0  0  0  0  0  0  0  0  0  0
  -24.4279  -29.3170   19.6669 C   0  0  0  0  0  0  0  0  0  0  0  0
  -18.8050  -26.6262   21.5283 C   0  0  0  0  0  0  0  0  0  0  0  0
  -27.8112  -21.4405   20.8326 C   0  0  0  0  0  0  0  0  0  0  0  0
  -27.0652  -21.9200   19.5855 C   0  0  0  0  0  0  0  0  0  0  0  0
  -31.6381  -18.8235   15.0369 C   0  0  0  0  0  0  0  0  0  0  0  0
  -19.9975  -27.5404   21.2898 C   0  0  0  0  0  0  0  0  0  0  0  0
  -29.1716  -22.1317   20.8142 C   0  0  0  0  0  0  0  0  0  0  0  0
  -28.0107  -22.8708   18.8576 C   0  0  0  0  0  0  0  0  0  0  0  0
  -30.3525  -18.1015   15.4467 C   0  0  0  0  0  0  0  0  0  0  0  0
  -32.4229  -19.3172   16.2510 C   0  0  0  0  0  0  0  0  0  0  0  0
  -30.3680  -19.4140   17.6063 C   0  0  0  0  0  0  0  0  0  0  0  0
  -20.3407  -28.3324   22.5578 C   0  0  1  0  0  0  0  0  0  0  0  0
  -23.5340  -30.2506   21.8164 C   0  0  1  0  0  0  0  0  0  0  0  0
  -28.9402  -23.3795   19.9604 C   0  0  0  0  0  0  0  0  0  0  0  0
  -29.5108  -18.9553   16.4153 C   0  0  2  0  0  0  0  0  0  0  0  0
  -18.1934  -34.6060   20.4491 C   0  0  0  0  0  0  0  0  0  0  0  0
  -24.9676  -33.1815   20.0003 C   0  0  0  0  0  0  0  0  0  0  0  0
  -23.1929  -34.9397   20.1656 C   0  0  0  0  0  0  0  0  0  0  0  0
  -23.4747  -33.6495   18.0493 C   0  0  0  0  0  0  0  0  0  0  0  0
  -18.2126  -30.8699   19.7302 C   0  0  0  0  0  0  0  0  0  0  0  0
  -29.6578  -26.2230   20.6374 C   0  0  0  0  0  0  0  0  0  1  0  0
  -22.4759  -32.5090   20.0726 C   0  0  1  0  0  0  0  0  0  0  0  0
  -18.7702  -33.2958   19.9358 C   0  0  2  0  0  0  0  0  0  0  0  0
  -23.5274  -33.5473   19.5892 C   0  0  0  0  0  0  0  0  0  0  0  0
  -28.3837  -17.0820   17.5562 N   0  0  0  0  0  0  0  0  0  0  0  0
  -30.1497  -24.0381   19.4916 N   0  0  0  0  0  0  0  0  0  0  0  0
  -28.2577  -18.2266   16.8633 N   0  0  0  0  0  0  0  0  0  0  0  0
  -23.5933  -30.3136   20.3505 N   0  0  0  0  0  0  0  0  0  0  0  0
  -31.5628  -20.1223   17.1210 N   0  0  0  0  0  0  0  0  0  0  0  0
  -26.6576  -19.7245   15.9650 N   0  0  0  0  0  0  0  0  0  0  0  0
  -24.1213  -16.5342   17.9107 N   0  0  0  0  0  0  0  0  0  0  0  0
  -31.0146  -22.1298   18.2307 N   0  0  0  0  0  0  0  0  0  0  0  0
  -21.3339  -29.3330   22.2351 N   0  0  0  0  0  0  0  0  0  0  0  0
  -21.1064  -32.8158   19.6742 N   0  0  0  0  0  0  0  0  0  0  0  0
  -17.7844  -32.2110   20.2045 N   0  3  0  0  0  0  0  0  0  0  0  0
  -24.0595  -18.4864   16.7090 O   0  0  0  0  0  0  0  0  0  0  0  0
  -23.2219  -27.9766   22.3699 O   0  0  0  0  0  0  0  0  0  0  0  0
  -22.2719  -30.7586   18.4879 O   0  0  0  0  0  0  0  0  0  0  0  0
  -20.2280  -32.8887   21.8190 O   0  0  0  0  0  0  0  0  0  0  0  0
  -32.9540  -21.9622   16.9688 O   0  0  0  0  0  0  0  0  0  0  0  0
  -25.9894  -12.0422   20.6248 O   0  0  0  0  0  0  0  0  0  0  0  0
  -28.5282  -26.6574   19.8813 O   0  0  0  0  0  0  0  0  0  1  0  0
  -22.1058  -12.2974   24.5307 F   0  0  0  0  0  0  0  0  0  0  0  0
  -26.5873  -11.4572   23.2598 F   0  0  0  0  0  0  0  0  0  0  0  0
  1  2  1  0  0  0  0
  1  5  2  0  0  0  0
  2  6  2  0  0  0  0
  3  8  2  0  0  0  0
  3 17  1  0  0  0  0
  4  9  1  0  0  0  0
  4 17  2  0  0  0  0
  5 19  1  0  0  0  0
  6 21  1  0  0  0  0
  7 10  2  0  0  0  0
  7 20  1  0  0  0  0
  8 23  1  0  0  0  0
  9 23  2  0  0  0  0
 10 24  1  0  0  0  0
 11 12  2  0  0  0  0
 11 25  1  0  0  0  0
 12 26  1  0  0  0  0
 13 14  1  0  0  0  0
 13 29  2  0  0  0  0
 14 30  2  0  0  0  0
 15 22  1  0  0  0  0
 15 24  2  0  0  0  0
 16 26  2  0  0  0  0
 16 27  1  0  0  0  0
 17 28  1  0  0  0  0
 18 28  1  0  0  0  0
 18 31  2  0  0  0  0
 18 32  1  0  0  0  0
 19 21  2  0  0  0  0
 19 37  1  0  0  0  0
 20 22  2  0  0  0  0
 20 38  1  0  0  0  0
 21 50  1  0  0  0  0
 22 39  1  0  0  0  0
 23 79  1  0  0  0  0
 24 80  1  0  0  0  0
 25 27  2  0  0  0  0
 25 79  1  0  0  0  0
 26 81  1  0  0  0  0
 27 82  1  0  0  0  0
 28 63  2  0  0  0  0
 29 59  1  0  0  0  0
 29 64  1  0  0  0  0
 30 64  1  0  0  0  0
 30 70  1  0  0  0  0
 31 65  1  0  0  0  0
 31 68  1  0  0  0  0
 32 69  1  0  0  0  0
 32 74  2  0  0  0  0
 33 51  1  0  0  0  0
 33 71  1  0  0  0  0
 33 75  2  0  0  0  0
 34 60  1  0  0  0  0
 34 66  1  0  0  0  0
 34 76  2  0  0  0  0
 35 61  1  0  0  0  0
 35 72  1  0  0  0  0
 35 77  2  0  0  0  0
 36 67  1  0  0  0  0
 36 70  1  0  0  0  0
 36 78  2  0  0  0  0
 37 40  1  0  0  0  0
 38 51  1  0  0  0  0
 39 66  1  0  0  0  0
 40 44  1  0  0  0  0
 41 42  1  0  0  0  0
 41 45  1  0  0  0  0
 42 46  1  0  0  0  0
 43 47  1  0  0  0  0
 43 48  1  0  0  0  0
 44 50  1  0  0  0  0
 45 52  1  0  0  0  0
 46 52  1  0  0  0  0
 47 53  1  0  0  0  0
 48 67  1  0  0  0  0
 49 53  1  0  0  0  0
 49 67  1  0  0  0  0
 50 71  1  0  0  0  0
 51 66  1  0  0  0  0
 52 64  1  0  0  0  0
 53 65  1  0  0  0  0
 54 61  1  0  0  0  0
 55 62  1  0  0  0  0
 56 62  1  0  0  0  0
 57 62  1  0  0  0  0
 58 73  1  0  0  0  0
 59 80  1  0  0  0  0
 60 62  1  0  0  0  0
 60 72  1  0  0  0  0
 61 73  1  0  0  0  0
 63 65  1  0  0  0  0
M  CHG  1  73   1
M  ISO  4  36 100  59 101  70 100  80 101
M  END
> <Batch ID>
0111

> <Smiles>
CNC(C)C(=O)NC(C(=O)N1Cc2cc([101O:1][101CH2:1]c3ccc([100NH:0][100C:0](=O)N4CCCC(n5nc(-c6ccc(Oc7ccc(F)cc7F)cc6)c(C(N)=O)c5N)C4)n3C3CCCC3)ccc2CC1C(=O)NC1CCCc2ccccc21)C(C)(C)C

> <Shape>
0.242

> <Color>
0.112

> <Negative vol penalty>
0.000

$$$$

  -OEChem-04052320013D

 91100  0     1  0  0  0  0  0999 V2000
  -29.5287  -33.7402   25.2778 C   0  0  0  0  0  0  0  0  0  0  0  0
  -29.8522  -33.3067   23.9961 C   0  0  0  0  0  0  0  0  0  0  0  0
  -23.0620   -9.8755   19.8735 C   0  0  0  0  0  0  0  0  0  0  0  0
  -23.9589   -9.6818   22.1085 C   0  0  0  0  0  0  0  0  0  0  0  0
  -28.8758  -32.8798   26.1594 C   0  0  0  0  0  0  0  0  0  0  0  0
  -29.5239  -32.0121   23.5956 C   0  0  0  0  0  0  0  0  0  0  0  0
  -27.5713  -28.2887   17.7955 C   0  0  0  0  0  0  0  0  0  0  0  0
  -22.3635   -8.6811   20.0502 C   0  0  0  0  0  0  0  0  0  0  0  0
  -23.2604   -8.4874   22.2853 C   0  0  0  0  0  0  0  0  0  0  0  0
  -27.9308  -27.1507   17.0748 C   0  0  0  0  0  0  0  0  0  0  0  0
  -20.0955   -7.5358   22.9911 C   0  0  0  0  0  0  0  0  0  0  0  0
  -19.4120   -7.3584   24.1940 C   0  0  0  0  0  0  0  0  0  0  0  0
  -26.7325  -25.7783   18.6559 C   0  0  0  0  0  0  0  0  0  0  0  0
  -29.1797  -18.7092   21.3358 C   0  0  0  0  0  0  0  0  0  0  0  0
  -20.7435   -5.3974   24.6614 C   0  0  0  0  0  0  0  0  0  0  0  0
  -23.8597  -10.3758   20.9026 C   0  0  0  0  0  0  0  0  0  0  0  0
  -24.1307  -12.9099   21.0144 C   0  0  0  0  0  0  0  0  0  0  0  0
  -28.5306  -31.5771   25.7662 C   0  0  0  0  0  0  0  0  0  0  0  0
  -26.7976  -28.1790   18.9598 C   0  0  0  0  0  0  0  0  0  0  0  0
  -28.8669  -31.1329   24.4732 C   0  0  0  0  0  0  0  0  0  0  0  0
  -26.3624  -26.9167   19.3881 C   0  0  0  0  0  0  0  0  0  0  0  0
  -28.9264  -19.8146   20.5314 C   0  0  0  0  0  0  0  0  0  0  0  0
  -29.9057  -20.2685   19.6548 C   0  0  0  0  0  0  0  0  0  0  0  0
  -22.4627   -7.9871   21.2561 C   0  0  0  0  0  0  0  0  0  0  0  0
  -27.5138  -25.8950   17.5066 C   0  0  0  0  0  0  0  0  0  0  0  0
  -21.1029   -6.6439   22.6232 C   0  0  0  0  0  0  0  0  0  0  0  0
  -19.7360   -6.2893   25.0292 C   0  0  0  0  0  0  0  0  0  0  0  0
  -21.4270   -5.5747   23.4584 C   0  0  0  0  0  0  0  0  0  0  0  0
  -24.5819  -11.6092   20.7204 C   0  0  0  0  0  0  0  0  0  0  0  0
  -30.4183  -18.0979   21.2269 C   0  0  0  0  0  0  0  0  0  0  0  0
  -31.1119  -19.5875   19.6213 C   0  0  0  0  0  0  0  0  0  0  0  0
  -25.1799  -13.7245   20.6649 C   0  0  0  0  0  0  0  0  0  0  0  0
  -22.8755  -13.3430   21.5552 C   0  0  0  0  0  0  0  0  0  0  0  0
  -27.2446  -28.8902   22.0255 C   0  0  0  0  0  0  0  0  0  0  0  0
  -24.1216  -28.0491   22.2734 C   0  0  0  0  0  0  0  0  0  0  0  0
  -21.4859  -26.2890   21.0078 C   0  0  0  0  0  0  0  0  0  0  0  0
  -30.6379  -14.8883   20.6363 C   0  0  0  0  0  0  0  0  0  0  0  0
  -27.8675  -30.6675   26.7700 C   0  0  0  0  0  0  0  0  0  0  0  0
  -26.3959  -29.4186   19.7111 C   0  0  0  0  0  0  0  0  0  0  0  0
  -25.5132  -26.7467   20.6204 C   0  0  0  0  0  0  0  0  0  0  0  0
  -27.2203  -29.4360   26.1417 C   0  0  0  0  0  0  0  0  0  0  0  0
  -29.4176  -12.7144   18.0943 C   0  0  0  0  0  0  0  0  0  0  0  0
  -28.1709  -28.7848   25.1421 C   0  0  0  0  0  0  0  0  0  0  0  0
  -28.0168  -12.3358   18.5782 C   0  0  0  0  0  0  0  0  0  0  0  0
  -26.4729  -19.5176   20.2502 C   0  0  0  0  0  0  0  0  0  0  0  0
  -27.3840  -21.0373   22.0522 C   0  0  0  0  0  0  0  0  0  0  0  0
  -30.4000  -12.8450   19.2561 C   0  0  0  0  0  0  0  0  0  0  0  0
  -28.5681  -13.3784   20.8160 C   0  0  0  0  0  0  0  0  0  0  0  0
  -25.0997  -20.1545   20.4209 C   0  0  0  0  0  0  0  0  0  0  0  0
  -26.0039  -21.6628   22.2089 C   0  0  0  0  0  0  0  0  0  0  0  0
  -27.5992  -20.4927   20.6305 C   0  0  0  0  0  0  0  0  0  0  0  0
  -28.5053  -29.7440   23.9933 C   0  0  1  0  0  0  0  0  0  0  0  0
  -26.0370  -29.1442   21.1683 C   0  0  1  0  0  0  0  0  0  0  0  0
  -27.5290  -13.2898   19.6852 C   0  0  2  0  0  0  0  0  0  0  0  0
  -32.2049  -20.0273   18.7017 C   0  0  0  0  0  0  0  0  0  0  0  0
  -19.0714  -25.7672   21.4499 C   0  0  0  0  0  0  0  0  0  0  0  0
  -30.3979  -23.3264   16.7265 C   0  0  0  0  0  0  0  0  0  0  0  0
  -24.9468  -26.1186   24.4876 C   0  0  0  0  0  0  0  0  0  0  0  0
  -22.7327  -24.9798   24.2241 C   0  0  0  0  0  0  0  0  0  0  0  0
  -22.8275  -27.3702   24.9310 C   0  0  0  0  0  0  0  0  0  0  0  0
  -23.5620  -21.1730   22.0981 C   0  0  0  0  0  0  0  0  0  0  0  0
  -20.6343  -27.5038   18.4469 C   0  0  0  0  0  0  0  0  0  0  0  0
  -30.7250  -16.9087   22.0748 C   0  0  0  0  0  0  0  0  0  0  0  0
  -29.1168  -21.2800   17.5147 C   0  0  0  0  0  0  0  0  0  0  0  0
  -28.0136  -23.5702   17.5430 C   0  0  0  0  0  0  0  0  0  1  0  0
  -23.3789  -26.7620   22.5398 C   0  0  1  0  0  0  0  0  0  0  0  0
  -20.0471  -26.6878   20.7334 C   0  0  2  0  0  0  0  0  0  0  0  0
  -29.0243  -22.6557   16.8397 C   0  0  1  0  0  0  0  0  0  0  0  0
  -23.4891  -26.3104   24.0234 C   0  0  0  0  0  0  0  0  0  0  0  0
  -25.8211  -11.5936   20.2223 N   0  0  0  0  0  0  0  0  0  0  0  0
  -31.3945  -18.5100   20.3873 N   0  0  0  0  0  0  0  0  0  0  0  0
  -26.1575  -12.8945   20.2005 N   0  0  0  0  0  0  0  0  0  0  0  0
  -25.1518  -27.9882   21.3243 N   0  0  0  0  0  0  0  0  0  0  0  0
  -29.8786  -13.7647   20.2702 N   0  0  0  0  0  0  0  0  0  0  0  0
  -25.3523  -15.0625   20.7124 N   0  0  0  0  0  0  0  0  0  0  0  0
  -21.9088  -12.3746   21.8584 N   0  0  0  0  0  0  0  0  0  0  0  0
  -29.6794  -21.3674   18.8417 N   0  0  0  0  0  0  0  0  0  0  0  0
  -27.4100  -29.8033   23.0493 N   0  0  0  0  0  0  0  0  0  0  0  0
  -22.0110  -26.9776   22.0808 N   0  0  0  0  0  0  0  0  0  0  0  0
  -30.0679  -15.7116   21.5996 N   0  0  0  0  0  0  0  0  0  0  0  0
  -24.9478  -20.6488   21.8395 N   0  3  0  0  0  0  0  0  0  0  0  0
  -19.7627  -26.6280   19.2717 N   0  3  0  0  0  0  0  0  0  0  0  0
  -22.6126  -14.5543   21.7480 O   0  0  0  0  0  0  0  0  0  0  0  0
  -27.9717  -27.9354   21.7773 O   0  0  0  0  0  0  0  0  0  0  0  0
  -23.7948  -29.0724   22.8797 O   0  0  0  0  0  0  0  0  0  0  0  0
  -22.0830  -25.4478   20.3396 O   0  0  0  0  0  0  0  0  0  0  0  0
  -31.7396  -15.1420   20.1375 O   0  0  0  0  0  0  0  0  0  0  0  0
  -21.7811   -6.8217   21.4290 O   0  0  0  0  0  0  0  0  0  0  0  0
  -27.8638  -24.7825   16.8053 O   0  0  0  0  0  0  0  0  0  1  0  0
  -19.0807   -6.1200   26.1850 F   0  0  0  0  0  0  0  0  0  0  0  0
  -22.3947   -4.7153   23.1110 F   0  0  0  0  0  0  0  0  0  0  0  0
  1  2  1  0  0  0  0
  1  5  2  0  0  0  0
  2  6  2  0  0  0  0
  3  8  2  0  0  0  0
  3 16  1  0  0  0  0
  4  9  1  0  0  0  0
  4 16  2  0  0  0  0
  5 18  1  0  0  0  0
  6 20  1  0  0  0  0
  7 10  2  0  0  0  0
  7 19  1  0  0  0  0
  8 24  1  0  0  0  0
  9 24  2  0  0  0  0
 10 25  1  0  0  0  0
 11 12  2  0  0  0  0
 11 26  1  0  0  0  0
 12 27  1  0  0  0  0
 13 21  1  0  0  0  0
 13 25  2  0  0  0  0
 14 22  2  0  0  0  0
 14 30  1  0  0  0  0
 15 27  2  0  0  0  0
 15 28  1  0  0  0  0
 16 29  1  0  0  0  0
 17 29  1  0  0  0  0
 17 32  2  0  0  0  0
 17 33  1  0  0  0  0
 18 20  2  0  0  0  0
 18 38  1  0  0  0  0
 19 21  2  0  0  0  0
 19 39  1  0  0  0  0
 20 52  1  0  0  0  0
 21 40  1  0  0  0  0
 22 23  1  0  0  0  0
 22 51  1  0  0  0  0
 23 31  2  0  0  0  0
 23 77  1  0  0  0  0
 24 88  1  0  0  0  0
 25 89  1  0  0  0  0
 26 28  2  0  0  0  0
 26 88  1  0  0  0  0
 27 90  1  0  0  0  0
 28 91  1  0  0  0  0
 29 70  2  0  0  0  0
 30 63  1  0  0  0  0
 30 71  2  0  0  0  0
 31 55  1  0  0  0  0
 31 71  1  0  0  0  0
 32 72  1  0  0  0  0
 32 75  1  0  0  0  0
 33 76  1  0  0  0  0
 33 83  2  0  0  0  0
 34 53  1  0  0  0  0
 34 78  1  0  0  0  0
 34 84  2  0  0  0  0
 35 66  1  0  0  0  0
 35 73  1  0  0  0  0
 35 85  2  0  0  0  0
 36 67  1  0  0  0  0
 36 79  1  0  0  0  0
 36 86  2  0  0  0  0
 37 74  1  0  0  0  0
 37 80  1  0  0  0  0
 37 87  2  0  0  0  0
 38 41  1  0  0  0  0
 39 53  1  0  0  0  0
 40 73  1  0  0  0  0
 41 43  1  0  0  0  0
 42 44  1  0  0  0  0
 42 47  1  0  0  0  0
 43 52  1  0  0  0  0
 44 54  1  0  0  0  0
 45 49  1  0  0  0  0
 45 51  1  0  0  0  0
 46 50  1  0  0  0  0
 46 51  1  0  0  0  0
 47 74  1  0  0  0  0
 48 54  1  0  0  0  0
 48 74  1  0  0  0  0
 49 81  1  0  0  0  0
 50 81  1  0  0  0  0
 52 78  1  0  0  0  0
 53 73  1  0  0  0  0
 54 72  1  0  0  0  0
 56 67  1  0  0  0  0
 57 68  1  0  0  0  0
 58 69  1  0  0  0  0
 59 69  1  0  0  0  0
 60 69  1  0  0  0  0
 61 81  1  0  0  0  0
 62 82  1  0  0  0  0
 63 80  1  0  0  0  0
 64 68  1  0  0  0  0
 64 77  1  0  0  0  0
 65 68  1  0  0  0  0
 65 89  1  0  0  0  0
 66 69  1  0  0  0  0
 66 79  1  0  0  0  0
 67 82  1  0  0  0  0
 70 72  1  0  0  0  0
M  CHG  2  81   1  82   1
M  ISO  4  37 100  65 101  80 100  89 101
M  END
> <Batch ID>
0111

> <Smiles>
CNC(C)C(=O)NC(C(=O)N1Cc2cc([101O:1][101CH2:1]C(C)CNc3c(C4CCN(C)CC4)cc(C[100NH:0][100C:0](=O)N4CCCC(n5nc(-c6ccc(Oc7ccc(F)cc7F)cc6)c(C(N)=O)c5N)C4)nc3C)ccc2CC1C(=O)NC1CCCc2ccccc21)C(C)(C)C

> <Shape>
0.327

> <Color>
0.205

> <Negative vol penalty>
0.000

$$$$

  -OEChem-04052320013D

 87 95  0     1  0  0  0  0  0999 V2000
  -36.1650  -15.1754   23.5355 C   0  0  0  0  0  0  0  0  0  0  0  0
  -35.6191  -16.4420   23.3534 C   0  0  0  0  0  0  0  0  0  0  0  0
  -20.4649  -26.9314   22.0694 C   0  0  0  0  0  0  0  0  0  0  0  0
  -19.8970  -28.5744   23.7473 C   0  0  0  0  0  0  0  0  0  0  0  0
  -35.6573  -14.0897   22.8232 C   0  0  0  0  0  0  0  0  0  0  0  0
  -34.5658  -16.6238   22.4579 C   0  0  0  0  0  0  0  0  0  0  0  0
  -29.8975  -20.5487   23.0131 C   0  0  0  0  0  0  0  0  0  0  0  0
  -19.1095  -26.7238   21.8139 C   0  0  0  0  0  0  0  0  0  0  0  0
  -18.5416  -28.3669   23.4917 C   0  0  0  0  0  0  0  0  0  0  0  0
  -29.6656  -21.8129   22.4728 C   0  0  0  0  0  0  0  0  0  0  0  0
  -16.1780  -26.0829   24.2844 C   0  0  0  0  0  0  0  0  0  0  0  0
  -15.3247  -25.9517   25.3799 C   0  0  0  0  0  0  0  0  0  0  0  0
  -28.3745  -20.8110   20.6984 C   0  0  0  0  0  0  0  0  0  0  0  0
  -14.0700  -27.8766   24.6331 C   0  0  0  0  0  0  0  0  0  0  0  0
  -20.8587  -27.8566   23.0362 C   0  0  0  0  0  0  0  0  0  0  0  0
  -23.1957  -27.1184   23.7440 C   0  0  0  0  0  0  0  0  0  0  0  0
  -34.5908  -14.2566   21.9257 C   0  0  0  0  0  0  0  0  0  0  0  0
  -29.3779  -19.4033   22.3930 C   0  0  0  0  0  0  0  0  0  0  0  0
  -34.0442  -15.5395   21.7319 C   0  0  0  0  0  0  0  0  0  0  0  0
  -28.5992  -19.5337   21.2343 C   0  0  0  0  0  0  0  0  0  0  0  0
  -18.1478  -27.4416   22.5250 C   0  0  0  0  0  0  0  0  0  0  0  0
  -28.9064  -21.9439   21.3137 C   0  0  0  0  0  0  0  0  0  0  0  0
  -15.9775  -27.1111   23.3632 C   0  0  0  0  0  0  0  0  0  0  0  0
  -14.2706  -26.8485   25.5542 C   0  0  0  0  0  0  0  0  0  0  0  0
  -14.9234  -28.0079   23.5376 C   0  0  0  0  0  0  0  0  0  0  0  0
  -22.2587  -28.0710   23.3010 C   0  0  0  0  0  0  0  0  0  0  0  0
  -24.3748  -27.8161   23.8416 C   0  0  0  0  0  0  0  0  0  0  0  0
  -23.0164  -25.7272   24.0407 C   0  0  0  0  0  0  0  0  0  0  0  0
  -30.6377  -16.8054   21.0635 C   0  0  0  0  0  0  0  0  0  0  0  0
  -29.9079  -28.3825   19.8793 C   0  0  0  0  0  0  0  0  0  0  0  0
  -27.5356  -15.8786   20.8635 C   0  0  0  0  0  0  0  0  0  0  0  0
  -24.1376  -15.6239   20.6758 C   0  0  0  0  0  0  0  0  0  0  0  0
  -26.4195  -32.7628   21.1582 C   0  0  0  0  0  0  0  0  0  0  0  0
  -34.1069  -13.0616   21.1431 C   0  0  0  0  0  0  0  0  0  0  0  0
  -29.6148  -18.0491   23.0033 C   0  0  0  0  0  0  0  0  0  0  0  0
  -28.0019  -18.3371   20.5415 C   0  0  0  0  0  0  0  0  0  0  0  0
  -32.7422  -13.2718   20.4921 C   0  0  0  0  0  0  0  0  0  0  0  0
  -30.4876  -30.9956   17.5138 C   0  0  0  0  0  0  0  0  0  0  0  0
  -26.0650  -32.2168   24.6586 C   0  0  0  0  0  0  0  0  0  0  0  0
  -32.6884  -14.6249   19.7899 C   0  0  0  0  0  0  0  0  0  0  0  0
  -29.1904  -31.8035   17.5471 C   0  0  0  0  0  0  0  0  0  0  0  0
  -25.1338  -31.0064   24.7476 C   0  0  0  0  0  0  0  0  0  0  0  0
  -30.2143  -29.5060   17.6968 C   0  0  0  0  0  0  0  0  0  0  0  0
  -25.6897  -33.1334   23.4962 C   0  0  0  0  0  0  0  0  0  0  0  0
  -28.1583  -29.9941   18.9744 C   0  0  0  0  0  0  0  0  0  0  0  0
  -24.6659  -31.2540   22.2740 C   0  0  0  0  0  0  0  0  0  0  0  0
  -32.8845  -15.7725   20.7879 C   0  0  1  0  0  0  0  0  0  0  0  0
  -29.4682  -16.9082   22.0012 C   0  0  1  0  0  0  0  0  0  0  0  0
  -28.3872  -31.5047   18.8226 C   0  0  2  0  0  0  0  0  0  0  0  0
  -25.0392  -30.2713   23.3970 C   0  0  2  0  0  0  0  0  0  0  0  0
  -26.3649  -25.5484   21.3912 C   0  0  0  0  0  0  0  0  0  0  0  0
  -29.4111  -29.2776   22.1109 C   0  0  0  0  0  0  0  0  0  0  0  0
  -22.3182  -14.0941   19.8713 C   0  0  0  0  0  0  0  0  0  0  0  0
  -28.0955  -16.7292   17.9872 C   0  0  0  0  0  0  0  0  0  0  0  0
  -25.7784  -15.9914   17.3915 C   0  0  0  0  0  0  0  0  0  0  0  0
  -27.4298  -14.3335   18.2558 C   0  0  0  0  0  0  0  0  0  0  0  0
  -23.0242  -15.3248   23.4016 C   0  0  0  0  0  0  0  0  0  0  0  0
  -27.0586  -32.2564   18.8142 C   0  0  0  0  0  0  0  0  0  0  0  0
  -27.4125  -25.6316   20.2896 C   0  0  0  0  0  0  0  0  0  0  0  0
  -29.2540  -26.7955   21.7032 C   0  0  0  0  0  0  0  0  0  0  0  0
  -29.2484  -24.2924   21.4673 C   0  0  0  0  0  0  0  0  0  1  0  0
  -29.0460  -28.1924   21.1020 C   0  0  2  0  0  0  0  0  0  0  0  0
  -26.4369  -16.0353   19.8401 C   0  0  1  0  0  0  0  0  0  0  0  0
  -23.1895  -14.4989   21.0501 C   0  0  2  0  0  0  0  0  0  0  0  0
  -28.8787  -25.6169   20.7757 C   0  0  1  0  0  0  0  0  0  0  0  0
  -26.9394  -15.7918   18.3890 C   0  0  0  0  0  0  0  0  0  0  0  0
  -22.7961  -29.2817   23.1292 N   0  0  0  0  0  0  0  0  0  0  0  0
  -24.0836  -29.0945   23.4661 N   0  0  0  0  0  0  0  0  0  0  0  0
  -28.2669  -17.0340   21.1733 N   0  0  0  0  0  0  0  0  0  0  0  0
  -29.4328  -29.2663   18.9110 N   0  0  0  0  0  0  0  0  0  0  0  0
  -25.6184  -32.3750   22.2449 N   0  0  0  0  0  0  0  0  0  0  0  0
  -25.6218  -27.4546   24.2111 N   0  0  0  0  0  0  0  0  0  0  0  0
  -22.6682  -25.3623   25.3483 N   0  0  0  0  0  0  0  0  0  0  0  0
  -31.6658  -16.0094   21.5316 N   0  0  0  0  0  0  0  0  0  0  0  0
  -25.3603  -15.1434   20.2572 N   0  0  0  0  0  0  0  0  0  0  0  0
  -26.2956  -31.9865   20.0124 N   0  0  0  0  0  0  0  0  0  0  0  0
  -22.3001  -14.9217   22.1687 N   0  3  0  0  0  0  0  0  0  0  0  0
  -23.1767  -24.8328   23.1758 O   0  0  0  0  0  0  0  0  0  0  0  0
  -30.6089  -17.4028   19.9940 O   0  0  0  0  0  0  0  0  0  0  0  0
  -30.9721  -27.7649   19.7904 O   0  0  0  0  0  0  0  0  0  0  0  0
  -27.7329  -14.7733   21.3745 O   0  0  0  0  0  0  0  0  0  0  0  0
  -23.8234  -16.8102   20.7440 O   0  0  0  0  0  0  0  0  0  0  0  0
  -27.1920  -33.7259   21.2072 O   0  0  0  0  0  0  0  0  0  0  0  0
  -16.8251  -27.2395   22.2757 O   0  0  0  0  0  0  0  0  0  0  0  0
  -28.6791  -23.1766   20.7839 O   0  0  0  0  0  0  0  0  0  1  0  0
  -13.4503  -26.7215   26.6054 F   0  0  0  0  0  0  0  0  0  0  0  0
  -14.7250  -28.9968   22.6553 F   0  0  0  0  0  0  0  0  0  0  0  0
  1  2  1  0  0  0  0
  1  5  2  0  0  0  0
  2  6  2  0  0  0  0
  3  8  2  0  0  0  0
  3 15  1  0  0  0  0
  4  9  1  0  0  0  0
  4 15  2  0  0  0  0
  5 17  1  0  0  0  0
  6 19  1  0  0  0  0
  7 10  2  0  0  0  0
  7 18  1  0  0  0  0
  8 21  1  0  0  0  0
  9 21  2  0  0  0  0
 10 22  1  0  0  0  0
 11 12  2  0  0  0  0
 11 23  1  0  0  0  0
 12 24  1  0  0  0  0
 13 20  1  0  0  0  0
 13 22  2  0  0  0  0
 14 24  2  0  0  0  0
 14 25  1  0  0  0  0
 15 26  1  0  0  0  0
 16 26  1  0  0  0  0
 16 27  2  0  0  0  0
 16 28  1  0  0  0  0
 17 19  2  0  0  0  0
 17 34  1  0  0  0  0
 18 20  2  0  0  0  0
 18 35  1  0  0  0  0
 19 47  1  0  0  0  0
 20 36  1  0  0  0  0
 21 84  1  0  0  0  0
 22 85  1  0  0  0  0
 23 25  2  0  0  0  0
 23 84  1  0  0  0  0
 24 86  1  0  0  0  0
 25 87  1  0  0  0  0
 26 67  2  0  0  0  0
 27 68  1  0  0  0  0
 27 72  1  0  0  0  0
 28 73  1  0  0  0  0
 28 78  2  0  0  0  0
 29 48  1  0  0  0  0
 29 74  1  0  0  0  0
 29 79  2  0  0  0  0
 30 62  1  0  0  0  0
 30 70  1  0  0  0  0
 30 80  2  0  0  0  0
 31 63  1  0  0  0  0
 31 69  1  0  0  0  0
 31 81  2  0  0  0  0
 32 64  1  0  0  0  0
 32 75  1  0  0  0  0
 32 82  2  0  0  0  0
 33 71  1  0  0  0  0
 33 76  1  0  0  0  0
 33 83  2  0  0  0  0
 34 37  1  0  0  0  0
 35 48  1  0  0  0  0
 36 69  1  0  0  0  0
 37 40  1  0  0  0  0
 38 41  1  0  0  0  0
 38 43  1  0  0  0  0
 39 42  1  0  0  0  0
 39 44  1  0  0  0  0
 40 47  1  0  0  0  0
 41 49  1  0  0  0  0
 42 50  1  0  0  0  0
 43 70  1  0  0  0  0
 44 71  1  0  0  0  0
 45 49  1  0  0  0  0
 45 70  1  0  0  0  0
 46 50  1  0  0  0  0
 46 71  1  0  0  0  0
 47 74  1  0  0  0  0
 48 69  1  0  0  0  0
 49 58  1  0  0  0  0
 50 68  1  0  0  0  0
 51 59  1  0  0  0  0
 52 62  1  0  0  0  0
 53 64  1  0  0  0  0
 54 66  1  0  0  0  0
 55 66  1  0  0  0  0
 56 66  1  0  0  0  0
 57 77  1  0  0  0  0
 58 76  1  0  0  0  0
 59 65  1  0  0  0  0
 60 62  1  0  0  0  0
 60 65  1  0  0  0  0
 61 65  1  0  0  0  0
 61 85  1  0  0  0  0
 63 66  1  0  0  0  0
 63 75  1  0  0  0  0
 64 77  1  0  0  0  0
 67 68  1  0  0  0  0
M  CHG  1  77   1
M  ISO  4  33 100  61 101  76 100  85 101
M  END
> <Batch ID>
0111

> <Smiles>
CCC(CC(C)C(=O)N1CCCC(C[100NH:0][100C:0](=O)N2CCCC(n3nc(-c4ccc(Oc5ccc(F)cc5F)cc4)c(C(N)=O)c3N)C2)C1)[101CH2:1][101O:1]c1ccc2c(c1)CN(C(=O)C(NC(=O)C(C)NC)C(C)(C)C)C(C(=O)NC1CCCc3ccccc31)C2

> <Shape>
0.232

> <Color>
0.062

> <Negative vol penalty>
0.000

$$$$

  -OEChem-04052320013D

 83 91  0     1  0  0  0  0  0999 V2000
  -16.8369  -30.1216   23.8820 C   0  0  0  0  0  0  0  0  0  0  0  0
  -17.7085  -29.4814   24.7571 C   0  0  0  0  0  0  0  0  0  0  0  0
  -25.3012  -11.1740   21.1957 C   0  0  0  0  0  0  0  0  0  0  0  0
  -25.3931  -12.2251   23.3691 C   0  0  0  0  0  0  0  0  0  0  0  0
  -17.0516  -30.0459   22.5064 C   0  0  0  0  0  0  0  0  0  0  0  0
  -18.7948  -28.7641   24.2570 C   0  0  0  0  0  0  0  0  0  0  0  0
  -24.3320  -28.2102   26.8139 C   0  0  0  0  0  0  0  0  0  0  0  0
  -25.3309   -9.9181   21.8018 C   0  0  0  0  0  0  0  0  0  0  0  0
  -25.4228  -10.9692   23.9753 C   0  0  0  0  0  0  0  0  0  0  0  0
  -24.9100  -27.2078   27.5916 C   0  0  0  0  0  0  0  0  0  0  0  0
  -23.1609   -7.8643   23.3849 C   0  0  0  0  0  0  0  0  0  0  0  0
  -22.2675   -6.8991   22.9203 C   0  0  0  0  0  0  0  0  0  0  0  0
  -25.9289  -26.2709   25.6160 C   0  0  0  0  0  0  0  0  0  0  0  0
  -24.1217   -5.4678   22.3283 C   0  0  0  0  0  0  0  0  0  0  0  0
  -25.3324  -12.3276   21.9794 C   0  0  0  0  0  0  0  0  0  0  0  0
  -24.1635  -14.3882   21.0332 C   0  0  0  0  0  0  0  0  0  0  0  0
  -18.1465  -29.3355   21.9897 C   0  0  0  0  0  0  0  0  0  0  0  0
  -24.5396  -28.2442   25.4275 C   0  0  0  0  0  0  0  0  0  0  0  0
  -19.0235  -28.6778   22.8732 C   0  0  0  0  0  0  0  0  0  0  0  0
  -25.3545  -27.2763   24.8233 C   0  0  0  0  0  0  0  0  0  0  0  0
  -25.3916   -9.8157   23.1916 C   0  0  0  0  0  0  0  0  0  0  0  0
  -25.7063  -26.2363   26.9923 C   0  0  0  0  0  0  0  0  0  0  0  0
  -24.5347   -7.6314   23.3210 C   0  0  0  0  0  0  0  0  0  0  0  0
  -22.7479   -5.7009   22.3921 C   0  0  0  0  0  0  0  0  0  0  0  0
  -25.0151   -6.4331   22.7928 C   0  0  0  0  0  0  0  0  0  0  0  0
  -25.3023  -13.6252   21.3538 C   0  0  0  0  0  0  0  0  0  0  0  0
  -24.6660  -15.5309   20.4603 C   0  0  0  0  0  0  0  0  0  0  0  0
  -22.7756  -14.0907   21.2353 C   0  0  0  0  0  0  0  0  0  0  0  0
  -22.6612  -28.0298   22.8722 C   0  0  0  0  0  0  0  0  0  0  0  0
  -25.4029  -28.7202   21.2819 C   0  0  0  0  0  0  0  0  0  0  0  0
  -28.8153  -28.6961   21.2449 C   0  0  0  0  0  0  0  0  0  0  0  0
  -28.3399  -19.7313   20.3928 C   0  0  0  0  0  0  0  0  0  0  0  0
  -18.3106  -29.2424   20.4933 C   0  0  0  0  0  0  0  0  0  0  0  0
  -23.9308  -29.3477   24.6064 C   0  0  0  0  0  0  0  0  0  0  0  0
  -25.6250  -27.2802   23.3416 C   0  0  0  0  0  0  0  0  0  0  0  0
  -19.6979  -28.7749   20.0606 C   0  0  0  0  0  0  0  0  0  0  0  0
  -29.3497  -16.6536   18.9146 C   0  0  0  0  0  0  0  0  0  0  0  0
  -20.1325  -27.5637   20.8796 C   0  0  0  0  0  0  0  0  0  0  0  0
  -28.2968  -15.6538   19.3960 C   0  0  0  0  0  0  0  0  0  0  0  0
  -24.5705  -21.4979   24.6116 C   0  0  0  0  0  0  0  0  0  0  0  0
  -26.8259  -21.1606   25.7076 C   0  0  0  0  0  0  0  0  0  0  0  0
  -29.6796  -17.6871   19.9894 C   0  0  0  0  0  0  0  0  0  0  0  0
  -27.4601  -17.4018   21.0218 C   0  0  0  0  0  0  0  0  0  0  0  0
  -25.2473  -22.2547   23.4746 C   0  0  0  0  0  0  0  0  0  0  0  0
  -27.4850  -21.9200   24.5619 C   0  0  0  0  0  0  0  0  0  0  0  0
  -20.2272  -27.9107   22.3703 C   0  0  1  0  0  0  0  0  0  0  0  0
  -23.7904  -28.9867   23.1308 C   0  0  1  0  0  0  0  0  0  0  0  0
  -27.0534  -16.3733   19.9526 C   0  0  2  0  0  0  0  0  0  0  0  0
  -25.3614  -21.5407   25.9178 C   0  0  0  0  0  0  0  0  0  0  0  0
  -30.7738  -29.2899   19.7927 C   0  0  0  0  0  0  0  0  0  0  0  0
  -25.6454  -24.5538   29.9685 C   0  0  0  0  0  0  0  0  0  0  0  0
  -24.9041  -26.2276   19.5943 C   0  0  0  0  0  0  0  0  0  0  0  0
  -27.2920  -26.3387   18.8500 C   0  0  0  0  0  0  0  0  0  0  0  0
  -25.7311  -28.2082   18.3106 C   0  0  0  0  0  0  0  0  0  0  0  0
  -29.8316  -30.6552   23.2167 C   0  0  0  0  0  0  0  0  0  0  0  0
  -26.8752  -21.6828   20.8460 C   0  0  0  0  0  0  0  0  0  0  0  0
  -27.3339  -22.3758   22.1155 C   0  0  0  0  0  0  0  0  0  0  0  0
  -25.5352  -22.9784   27.9560 C   0  0  0  0  0  0  0  0  0  0  0  0
  -26.5294  -27.9076   20.6906 C   0  0  1  0  0  0  0  0  0  0  0  0
  -29.8264  -29.7686   20.8816 C   0  0  2  0  0  0  0  0  0  0  0  0
  -25.3858  -24.4048   28.4751 C   0  0  2  0  0  0  0  0  0  1  0  0
  -26.1077  -27.1690   19.3890 C   0  0  0  0  0  0  0  0  0  0  0  0
  -26.4423  -14.2320   21.0127 N   0  0  0  0  0  0  0  0  0  0  0  0
  -26.0223  -15.3883   20.4718 N   0  0  0  0  0  0  0  0  0  0  0  0
  -25.0022  -28.3759   22.5807 N   0  0  0  0  0  0  0  0  0  0  0  0
  -28.4579  -18.3340   20.4739 N   0  0  0  0  0  0  0  0  0  0  0  0
  -24.0755  -16.6337   19.9527 N   0  0  0  0  0  0  0  0  0  0  0  0
  -22.4344  -12.8723   21.8382 N   0  0  0  0  0  0  0  0  0  0  0  0
  -21.4449  -28.6439   22.6422 N   0  0  0  0  0  0  0  0  0  0  0  0
  -27.6497  -28.8265   20.5200 N   0  0  0  0  0  0  0  0  0  0  0  0
  -27.1473  -20.2629   20.8682 N   0  0  0  0  0  0  0  0  0  0  0  0
  -26.6613  -21.7517   23.3074 N   0  3  0  0  0  0  0  0  0  0  0  0
  -25.2865  -22.9139   26.4943 N   0  3  0  0  0  0  0  0  0  0  0  0
  -30.6346  -30.1444   22.0760 N   0  3  0  0  0  0  0  0  0  0  0  0
  -21.8644  -14.8746   20.8766 O   0  0  0  0  0  0  0  0  0  0  0  0
  -22.8777  -26.8237   22.8793 O   0  0  0  0  0  0  0  0  0  0  0  0
  -24.9018  -29.6316   20.6187 O   0  0  0  0  0  0  0  0  0  0  0  0
  -29.0388  -27.8271   22.0849 O   0  0  0  0  0  0  0  0  0  0  0  0
  -29.2291  -20.4513   19.9260 O   0  0  0  0  0  0  0  0  0  0  0  0
  -25.4203   -8.5903   23.7834 O   0  0  0  0  0  0  0  0  0  0  0  0
  -26.2711  -25.2563   27.7490 O   0  0  0  0  0  0  0  0  0  1  0  0
  -21.8898   -4.7734   21.9475 F   0  0  0  0  0  0  0  0  0  0  0  0
  -26.3338   -6.2031   22.7300 F   0  0  0  0  0  0  0  0  0  0  0  0
  1  2  1  0  0  0  0
  1  5  2  0  0  0  0
  2  6  2  0  0  0  0
  3  8  2  0  0  0  0
  3 15  1  0  0  0  0
  4  9  1  0  0  0  0
  4 15  2  0  0  0  0
  5 17  1  0  0  0  0
  6 19  1  0  0  0  0
  7 10  2  0  0  0  0
  7 18  1  0  0  0  0
  8 21  1  0  0  0  0
  9 21  2  0  0  0  0
 10 22  1  0  0  0  0
 11 12  2  0  0  0  0
 11 23  1  0  0  0  0
 12 24  1  0  0  0  0
 13 20  1  0  0  0  0
 13 22  2  0  0  0  0
 14 24  2  0  0  0  0
 14 25  1  0  0  0  0
 15 26  1  0  0  0  0
 16 26  1  0  0  0  0
 16 27  2  0  0  0  0
 16 28  1  0  0  0  0
 17 19  2  0  0  0  0
 17 33  1  0  0  0  0
 18 20  2  0  0  0  0
 18 34  1  0  0  0  0
 19 46  1  0  0  0  0
 20 35  1  0  0  0  0
 21 80  1  0  0  0  0
 22 81  1  0  0  0  0
 23 25  2  0  0  0  0
 23 80  1  0  0  0  0
 24 82  1  0  0  0  0
 25 83  1  0  0  0  0
 26 63  2  0  0  0  0
 27 64  1  0  0  0  0
 27 67  1  0  0  0  0
 28 68  1  0  0  0  0
 28 75  2  0  0  0  0
 29 47  1  0  0  0  0
 29 69  1  0  0  0  0
 29 76  2  0  0  0  0
 30 59  1  0  0  0  0
 30 65  1  0  0  0  0
 30 77  2  0  0  0  0
 31 60  1  0  0  0  0
 31 70  1  0  0  0  0
 31 78  2  0  0  0  0
 32 66  1  0  0  0  0
 32 71  1  0  0  0  0
 32 79  2  0  0  0  0
 33 36  1  0  0  0  0
 34 47  1  0  0  0  0
 35 65  1  0  0  0  0
 36 38  1  0  0  0  0
 37 39  1  0  0  0  0
 37 42  1  0  0  0  0
 38 46  1  0  0  0  0
 39 48  1  0  0  0  0
 40 44  1  0  0  0  0
 40 49  1  0  0  0  0
 41 45  1  0  0  0  0
 41 49  1  0  0  0  0
 42 66  1  0  0  0  0
 43 48  1  0  0  0  0
 43 66  1  0  0  0  0
 44 72  1  0  0  0  0
 45 72  1  0  0  0  0
 46 69  1  0  0  0  0
 47 65  1  0  0  0  0
 48 64  1  0  0  0  0
 49 73  1  0  0  0  0
 50 60  1  0  0  0  0
 51 61  1  0  0  0  0
 52 62  1  0  0  0  0
 53 62  1  0  0  0  0
 54 62  1  0  0  0  0
 55 74  1  0  0  0  0
 56 57  1  0  0  0  0
 56 71  1  0  0  0  0
 57 72  1  0  0  0  0
 58 61  1  0  0  0  0
 58 73  1  0  0  0  0
 59 62  1  0  0  0  0
 59 70  1  0  0  0  0
 60 74  1  0  0  0  0
 61 81  1  0  0  0  0
 63 64  1  0  0  0  0
M  CHG  3  72   1  73   1  74   1
M  ISO  4  32 100  61 101  71 100  81 101
M  END
> <Batch ID>
0111

> <Smiles>
CNC(C)C(=O)NC(C(=O)N1Cc2cc([101O:1][101CH:1](C)CNC3CCN(CC[100NH:0][100C:0](=O)N4CCCC(n5nc(-c6ccc(Oc7ccc(F)cc7F)cc6)c(C(N)=O)c5N)C4)CC3)ccc2CC1C(=O)NC1CCCc2ccccc21)C(C)(C)C

> <Shape>
0.225

> <Color>
0.080

> <Negative vol penalty>
0.000

$$$$

  -OEChem-04052320013D

 80 88  0     1  0  0  0  0  0999 V2000
  -17.3905  -30.1558   24.3581 C   0  0  0  0  0  0  0  0  0  0  0  0
  -18.7666  -30.3157   24.4854 C   0  0  0  0  0  0  0  0  0  0  0  0
  -25.9879  -16.2666   21.1483 C   0  0  0  0  0  0  0  0  0  0  0  0
  -27.0764  -15.5452   19.1156 C   0  0  0  0  0  0  0  0  0  0  0  0
  -16.8794  -29.1174   23.5806 C   0  0  0  0  0  0  0  0  0  0  0  0
  -19.6325  -29.4364   23.8361 C   0  0  0  0  0  0  0  0  0  0  0  0
  -26.0627  -29.2424   20.6847 C   0  0  0  0  0  0  0  0  0  0  0  0
  -25.5217  -14.9690   21.3592 C   0  0  0  0  0  0  0  0  0  0  0  0
  -26.6103  -14.2476   19.3265 C   0  0  0  0  0  0  0  0  0  0  0  0
  -27.2573  -28.5243   20.7181 C   0  0  0  0  0  0  0  0  0  0  0  0
  -23.7208  -12.5408   18.9163 C   0  0  0  0  0  0  0  0  0  0  0  0
  -23.1731  -11.8638   17.8267 C   0  0  0  0  0  0  0  0  0  0  0  0
  -26.2615  -26.8150   19.3376 C   0  0  0  0  0  0  0  0  0  0  0  0
  -30.5236  -26.6187   15.8999 C   0  0  0  0  0  0  0  0  0  0  0  0
  -24.8568  -10.1453   18.0483 C   0  0  0  0  0  0  0  0  0  0  0  0
  -30.2772  -25.1234   17.5652 C   0  0  0  0  0  0  0  0  0  0  0  0
  -26.7652  -16.5548   20.0264 C   0  0  0  0  0  0  0  0  0  0  0  0
  -28.4594  -18.4474   20.2610 C   0  0  0  0  0  0  0  0  0  0  0  0
  -17.7396  -28.2308   22.9137 C   0  0  0  0  0  0  0  0  0  0  0  0
  -24.9532  -28.7460   19.9853 C   0  0  0  0  0  0  0  0  0  0  0  0
  -19.1325  -28.3843   23.0501 C   0  0  0  0  0  0  0  0  0  0  0  0
  -25.0547  -27.5299   19.2947 C   0  0  0  0  0  0  0  0  0  0  0  0
  -30.1828  -25.2766   16.1996 C   0  0  0  0  0  0  0  0  0  0  0  0
  -25.8330  -13.9595   20.4484 C   0  0  0  0  0  0  0  0  0  0  0  0
  -27.3559  -27.3091   20.0469 C   0  0  0  0  0  0  0  0  0  0  0  0
  -24.8365  -12.0201   19.5719 C   0  0  0  0  0  0  0  0  0  0  0  0
  -23.7411  -10.6660   17.3927 C   0  0  0  0  0  0  0  0  0  0  0  0
  -25.4044  -10.8224   19.1379 C   0  0  0  0  0  0  0  0  0  0  0  0
  -27.2465  -17.8951   19.8077 C   0  0  0  0  0  0  0  0  0  0  0  0
  -30.8159  -27.2448   17.0916 C   0  0  0  0  0  0  0  0  0  0  0  0
  -28.4446  -19.7389   19.7937 C   0  0  0  0  0  0  0  0  0  0  0  0
  -29.5060  -17.8467   21.0352 C   0  0  0  0  0  0  0  0  0  0  0  0
  -22.0072  -27.8626   20.7881 C   0  0  0  0  0  0  0  0  0  0  0  0
  -21.6371  -27.5767   17.5782 C   0  0  0  0  0  0  0  0  0  0  0  0
  -23.0877  -27.1074   14.5250 C   0  0  0  0  0  0  0  0  0  0  0  0
  -27.5010  -23.4274   15.7133 C   0  0  0  0  0  0  0  0  0  0  0  0
  -17.1403  -27.0949   22.1229 C   0  0  0  0  0  0  0  0  0  0  0  0
  -23.6801  -29.5456   19.9368 C   0  0  0  0  0  0  0  0  0  0  0  0
  -23.8991  -26.9633   18.5125 C   0  0  0  0  0  0  0  0  0  0  0  0
  -18.1269  -26.4331   21.1643 C   0  0  0  0  0  0  0  0  0  0  0  0
  -24.7156  -22.4393   17.6987 C   0  0  0  0  0  0  0  0  0  0  0  0
  -19.4532  -26.1610   21.8669 C   0  0  0  0  0  0  0  0  0  0  0  0
  -25.2238  -21.2115   18.4565 C   0  0  0  0  0  0  0  0  0  0  0  0
  -25.2756  -22.4980   16.2792 C   0  0  0  0  0  0  0  0  0  0  0  0
  -27.2536  -21.1885   16.9472 C   0  0  0  0  0  0  0  0  0  0  0  0
  -20.1041  -27.4660   22.3411 C   0  0  1  0  0  0  0  0  0  0  0  0
  -22.4529  -28.6964   19.6203 C   0  0  1  0  0  0  0  0  0  0  0  0
  -26.7604  -21.1155   18.4024 C   0  0  2  0  0  0  0  0  0  0  0  0
  -31.2273  -28.6395   17.3537 C   0  0  0  0  0  0  0  0  0  0  0  0
  -22.5241  -26.8818   12.0900 C   0  0  0  0  0  0  0  0  0  0  0  0
  -20.6624  -24.7275   18.0703 C   0  0  0  0  0  0  0  0  0  0  0  0
  -21.0256  -24.2575   15.6381 C   0  0  0  0  0  0  0  0  0  0  0  0
  -19.3707  -25.9876   16.3388 C   0  0  0  0  0  0  0  0  0  0  0  0
  -24.6776  -29.5009   13.8161 C   0  0  0  0  0  0  0  0  0  0  0  0
  -29.7974  -24.2344   15.2291 C   0  0  0  0  0  0  0  0  0  0  0  0
  -30.8809  -26.5813   19.5686 C   0  0  0  0  0  0  0  0  0  0  0  0
  -29.7288  -27.3554   20.1997 C   0  0  0  0  0  0  0  0  0  1  0  0
  -21.8416  -26.4692   16.5729 C   0  0  1  0  0  0  0  0  0  0  0  0
  -22.9166  -27.8382   13.2054 C   0  0  2  0  0  0  0  0  0  0  0  0
  -20.7464  -25.3699   16.6713 C   0  0  0  0  0  0  0  0  0  0  0  0
  -26.5143  -18.7647   19.1064 N   0  0  0  0  0  0  0  0  0  0  0  0
  -30.6631  -26.3262   18.0970 N   0  0  0  0  0  0  0  0  0  0  0  0
  -27.2692  -19.8764   19.1156 N   0  0  0  0  0  0  0  0  0  0  0  0
  -22.6737  -27.7793   18.5004 N   0  0  0  0  0  0  0  0  0  0  0  0
  -26.7374  -22.4038   16.2981 N   0  0  0  0  0  0  0  0  0  0  0  0
  -29.3223  -20.7589   19.9009 N   0  0  0  0  0  0  0  0  0  0  0  0
  -29.3606  -16.5105   21.4324 N   0  0  0  0  0  0  0  0  0  0  0  0
  -20.7304  -28.1510   21.2307 N   0  0  0  0  0  0  0  0  0  0  0  0
  -21.9255  -27.1138   15.2668 N   0  0  0  0  0  0  0  0  0  0  0  0
  -28.8792  -23.2630   15.7804 N   0  0  0  0  0  0  0  0  0  0  0  0
  -24.1871  -28.5146   12.8193 N   0  3  0  0  0  0  0  0  0  0  0  0
  -30.5321  -18.4811   21.3790 O   0  0  0  0  0  0  0  0  0  0  0  0
  -22.7651  -27.0188   21.2523 O   0  0  0  0  0  0  0  0  0  0  0  0
  -20.5992  -28.2423   17.5420 O   0  0  0  0  0  0  0  0  0  0  0  0
  -24.1455  -26.5802   14.8621 O   0  0  0  0  0  0  0  0  0  0  0  0
  -26.9925  -24.4173   15.1762 O   0  0  0  0  0  0  0  0  0  0  0  0
  -25.3785  -12.6931   20.6540 O   0  0  0  0  0  0  0  0  0  0  0  0
  -28.5205  -26.6059   20.0784 O   0  0  0  0  0  0  0  0  0  1  0  0
  -23.2141  -10.0152   16.3473 F   0  0  0  0  0  0  0  0  0  0  0  0
  -26.4756  -10.3166   19.7645 F   0  0  0  0  0  0  0  0  0  0  0  0
  1  2  1  0  0  0  0
  1  5  2  0  0  0  0
  2  6  2  0  0  0  0
  3  8  2  0  0  0  0
  3 17  1  0  0  0  0
  4  9  1  0  0  0  0
  4 17  2  0  0  0  0
  5 19  1  0  0  0  0
  6 21  1  0  0  0  0
  7 10  2  0  0  0  0
  7 20  1  0  0  0  0
  8 24  1  0  0  0  0
  9 24  2  0  0  0  0
 10 25  1  0  0  0  0
 11 12  2  0  0  0  0
 11 26  1  0  0  0  0
 12 27  1  0  0  0  0
 13 22  1  0  0  0  0
 13 25  2  0  0  0  0
 14 23  1  0  0  0  0
 14 30  2  0  0  0  0
 15 27  2  0  0  0  0
 15 28  1  0  0  0  0
 16 23  2  0  0  0  0
 16 62  1  0  0  0  0
 17 29  1  0  0  0  0
 18 29  1  0  0  0  0
 18 31  2  0  0  0  0
 18 32  1  0  0  0  0
 19 21  2  0  0  0  0
 19 37  1  0  0  0  0
 20 22  2  0  0  0  0
 20 38  1  0  0  0  0
 21 46  1  0  0  0  0
 22 39  1  0  0  0  0
 23 55  1  0  0  0  0
 24 77  1  0  0  0  0
 25 78  1  0  0  0  0
 26 28  2  0  0  0  0
 26 77  1  0  0  0  0
 27 79  1  0  0  0  0
 28 80  1  0  0  0  0
 29 61  2  0  0  0  0
 30 49  1  0  0  0  0
 30 62  1  0  0  0  0
 31 63  1  0  0  0  0
 31 66  1  0  0  0  0
 32 67  1  0  0  0  0
 32 72  2  0  0  0  0
 33 47  1  0  0  0  0
 33 68  1  0  0  0  0
 33 73  2  0  0  0  0
 34 58  1  0  0  0  0
 34 64  1  0  0  0  0
 34 74  2  0  0  0  0
 35 59  1  0  0  0  0
 35 69  1  0  0  0  0
 35 75  2  0  0  0  0
 36 65  1  0  0  0  0
 36 70  1  0  0  0  0
 36 76  2  0  0  0  0
 37 40  1  0  0  0  0
 38 47  1  0  0  0  0
 39 64  1  0  0  0  0
 40 42  1  0  0  0  0
 41 43  1  0  0  0  0
 41 44  1  0  0  0  0
 42 46  1  0  0  0  0
 43 48  1  0  0  0  0
 44 65  1  0  0  0  0
 45 48  1  0  0  0  0
 45 65  1  0  0  0  0
 46 68  1  0  0  0  0
 47 64  1  0  0  0  0
 48 63  1  0  0  0  0
 50 59  1  0  0  0  0
 51 60  1  0  0  0  0
 52 60  1  0  0  0  0
 53 60  1  0  0  0  0
 54 71  1  0  0  0  0
 55 70  1  0  0  0  0
 56 57  1  0  0  0  0
 56 62  1  0  0  0  0
 57 78  1  0  0  0  0
 58 60  1  0  0  0  0
 58 69  1  0  0  0  0
 59 71  1  0  0  0  0
 61 63  1  0  0  0  0
M  CHG  1  71   1
M  ISO  4  36 100  57 101  70 100  78 101
M  END
> <Batch ID>
0111

> <Smiles>
CNC(C)C(=O)NC(C(=O)N1Cc2cc([101O:1][101CH2:1]Cn3cc(C[100NH:0][100C:0](=O)N4CCCC(n5nc(-c6ccc(Oc7ccc(F)cc7F)cc6)c(C(N)=O)c5N)C4)cc3C)ccc2CC1C(=O)NC1CCCc2ccccc21)C(C)(C)C

> <Shape>
0.233

> <Color>
0.089

> <Negative vol penalty>
0.000

$$$$

  -OEChem-04052320013D

 82 90  0     1  0  0  0  0  0999 V2000
  -23.6528   -8.7857   20.5194 C   0  0  0  0  0  0  0  0  0  0  0  0
  -24.5666   -9.5045   21.2834 C   0  0  0  0  0  0  0  0  0  0  0  0
  -26.4421  -28.3081   18.9612 C   0  0  0  0  0  0  0  0  0  0  0  0
  -26.0858  -27.2369   21.0973 C   0  0  0  0  0  0  0  0  0  0  0  0
  -23.0047   -9.4005   19.4489 C   0  0  0  0  0  0  0  0  0  0  0  0
  -24.8337  -10.8383   20.9767 C   0  0  0  0  0  0  0  0  0  0  0  0
  -26.1069  -15.3408   24.9279 C   0  0  0  0  0  0  0  0  0  0  0  0
  -25.4279  -29.2211   19.2499 C   0  0  0  0  0  0  0  0  0  0  0  0
  -25.0716  -28.1500   21.3860 C   0  0  0  0  0  0  0  0  0  0  0  0
  -27.3087  -15.9135   25.3418 C   0  0  0  0  0  0  0  0  0  0  0  0
  -21.8232  -28.6064   20.5672 C   0  0  0  0  0  0  0  0  0  0  0  0
  -20.6369  -28.1084   21.1061 C   0  0  0  0  0  0  0  0  0  0  0  0
  -27.0259  -17.6698   23.7124 C   0  0  0  0  0  0  0  0  0  0  0  0
  -29.8651  -17.4664   20.6244 C   0  0  0  0  0  0  0  0  0  0  0  0
  -20.9561  -29.4755   23.0724 C   0  0  0  0  0  0  0  0  0  0  0  0
  -30.0749  -18.9965   22.2629 C   0  0  0  0  0  0  0  0  0  0  0  0
  -26.7710  -27.3159   19.8849 C   0  0  0  0  0  0  0  0  0  0  0  0
  -29.1888  -26.5022   19.8811 C   0  0  0  0  0  0  0  0  0  0  0  0
  -23.2567  -10.7453   19.1349 C   0  0  0  0  0  0  0  0  0  0  0  0
  -25.3597  -15.9232   23.8940 C   0  0  0  0  0  0  0  0  0  0  0  0
  -24.1893  -11.4712   19.9002 C   0  0  0  0  0  0  0  0  0  0  0  0
  -25.8136  -17.1039   23.2890 C   0  0  0  0  0  0  0  0  0  0  0  0
  -29.6437  -18.8233   20.9662 C   0  0  0  0  0  0  0  0  0  0  0  0
  -24.7426  -29.1421   20.4622 C   0  0  0  0  0  0  0  0  0  0  0  0
  -27.7698  -17.0766   24.7320 C   0  0  0  0  0  0  0  0  0  0  0  0
  -22.5760  -29.5389   21.2810 C   0  0  0  0  0  0  0  0  0  0  0  0
  -20.2034  -28.5429   22.3586 C   0  0  0  0  0  0  0  0  0  0  0  0
  -22.1424  -29.9734   22.5336 C   0  0  0  0  0  0  0  0  0  0  0  0
  -27.8182  -26.3721   19.5870 C   0  0  0  0  0  0  0  0  0  0  0  0
  -30.4247  -16.8516   21.7227 C   0  0  0  0  0  0  0  0  0  0  0  0
  -29.7548  -25.3479   19.3976 C   0  0  0  0  0  0  0  0  0  0  0  0
  -29.8878  -27.5709   20.5331 C   0  0  0  0  0  0  0  0  0  0  0  0
  -24.4217  -14.9899   21.0038 C   0  0  0  0  0  0  0  0  0  0  0  0
  -22.7826  -17.7886   21.0591 C   0  0  0  0  0  0  0  0  0  0  0  0
  -22.4811  -20.9451   22.3210 C   0  0  0  0  0  0  0  0  0  0  0  0
  -28.6356  -19.7096   18.8344 C   0  0  0  0  0  0  0  0  0  0  0  0
  -22.5671  -11.3531   17.9392 C   0  0  0  0  0  0  0  0  0  0  0  0
  -24.0520  -15.3078   23.4773 C   0  0  0  0  0  0  0  0  0  0  0  0
  -25.0387  -17.7796   22.1884 C   0  0  0  0  0  0  0  0  0  0  0  0
  -22.6269  -12.8782   17.9117 C   0  0  0  0  0  0  0  0  0  0  0  0
  -28.4180  -21.9405   16.0680 C   0  0  0  0  0  0  0  0  0  0  0  0
  -24.0416  -13.3625   18.2129 C   0  0  0  0  0  0  0  0  0  0  0  0
  -28.3751  -23.3242   16.7206 C   0  0  0  0  0  0  0  0  0  0  0  0
  -27.6539  -20.9027   16.8882 C   0  0  0  0  0  0  0  0  0  0  0  0
  -28.0033  -22.1999   18.9532 C   0  0  0  0  0  0  0  0  0  0  0  0
  -24.4872  -12.9271   19.6141 C   0  0  1  0  0  0  0  0  0  0  0  0
  -23.6299  -15.7005   22.0649 C   0  0  1  0  0  0  0  0  0  0  0  0
  -28.8141  -23.2648   18.1968 C   0  0  2  0  0  0  0  0  0  0  0  0
  -31.9864  -15.0320   20.9456 C   0  0  0  0  0  0  0  0  0  0  0  0
  -29.6850  -14.4428   21.7889 C   0  0  0  0  0  0  0  0  0  0  0  0
  -21.0642  -23.0090   22.1473 C   0  0  0  0  0  0  0  0  0  0  0  0
  -30.7100  -16.6360   26.4029 C   0  0  0  0  0  0  0  0  0  0  0  0
  -24.1161  -18.4776   18.4026 C   0  0  0  0  0  0  0  0  0  0  0  0
  -23.4328  -20.8599   18.7572 C   0  0  0  0  0  0  0  0  0  0  0  0
  -21.6939  -19.0843   18.5423 C   0  0  0  0  0  0  0  0  0  0  0  0
  -21.7030  -20.7914   25.1723 C   0  0  0  0  0  0  0  0  0  0  0  0
  -31.1137  -17.5553   24.0931 C   0  0  0  0  0  0  0  0  0  0  0  0
  -30.8518  -15.4498   21.9089 C   0  0  0  0  0  0  0  0  0  0  0  0
  -23.0819  -19.2110   20.6517 C   0  0  1  0  0  0  0  0  0  0  0  0
  -21.2867  -21.6959   22.8816 C   0  0  2  0  0  0  0  0  0  0  0  0
  -30.1194  -16.8388   25.0131 C   0  0  2  0  0  0  0  0  0  1  0  0
  -23.0970  -19.3946   19.1078 C   0  0  0  0  0  0  0  0  0  0  0  0
  -27.5309  -25.2257   18.9648 N   0  0  0  0  0  0  0  0  0  0  0  0
  -30.5474  -17.7912   22.7127 N   0  0  0  0  0  0  0  0  0  0  0  0
  -28.7288  -24.6249   18.8638 N   0  0  0  0  0  0  0  0  0  0  0  0
  -23.7692  -17.1361   21.8119 N   0  0  0  0  0  0  0  0  0  0  0  0
  -28.1261  -20.9003   18.2745 N   0  0  0  0  0  0  0  0  0  0  0  0
  -31.0250  -24.8911   19.3812 N   0  0  0  0  0  0  0  0  0  0  0  0
  -29.1533  -28.6828   20.9673 N   0  0  0  0  0  0  0  0  0  0  0  0
  -29.0849  -19.8366   20.1484 N   0  0  0  0  0  0  0  0  0  0  0  0
  -23.8864  -13.7746   20.6216 N   0  0  0  0  0  0  0  0  0  0  0  0
  -22.1070  -20.0475   21.3434 N   0  0  0  0  0  0  0  0  0  0  0  0
  -21.4947  -21.9950   24.3267 N   0  3  0  0  0  0  0  0  0  0  0  0
  -31.1294  -27.5480   20.7103 O   0  0  0  0  0  0  0  0  0  0  0  0
  -25.4418  -15.5066   20.5634 O   0  0  0  0  0  0  0  0  0  0  0  0
  -21.7098  -17.2776   20.7279 O   0  0  0  0  0  0  0  0  0  0  0  0
  -23.6312  -21.1383   22.7087 O   0  0  0  0  0  0  0  0  0  0  0  0
  -28.6959  -18.6617   18.1863 O   0  0  0  0  0  0  0  0  0  0  0  0
  -23.7531  -30.0330   20.7444 O   0  0  0  0  0  0  0  0  0  0  0  0
  -28.9429  -17.6374   25.1336 O   0  0  0  0  0  0  0  0  0  1  0  0
  -19.0634  -28.0658   22.8753 F   0  0  0  0  0  0  0  0  0  0  0  0
  -22.8608  -30.8700   23.2234 F   0  0  0  0  0  0  0  0  0  0  0  0
  1  2  1  0  0  0  0
  1  5  2  0  0  0  0
  2  6  2  0  0  0  0
  3  8  2  0  0  0  0
  3 17  1  0  0  0  0
  4  9  1  0  0  0  0
  4 17  2  0  0  0  0
  5 19  1  0  0  0  0
  6 21  1  0  0  0  0
  7 10  2  0  0  0  0
  7 20  1  0  0  0  0
  8 24  1  0  0  0  0
  9 24  2  0  0  0  0
 10 25  1  0  0  0  0
 11 12  2  0  0  0  0
 11 26  1  0  0  0  0
 12 27  1  0  0  0  0
 13 22  1  0  0  0  0
 13 25  2  0  0  0  0
 14 23  1  0  0  0  0
 14 30  2  0  0  0  0
 15 27  2  0  0  0  0
 15 28  1  0  0  0  0
 16 23  2  0  0  0  0
 16 64  1  0  0  0  0
 17 29  1  0  0  0  0
 18 29  1  0  0  0  0
 18 31  2  0  0  0  0
 18 32  1  0  0  0  0
 19 21  2  0  0  0  0
 19 37  1  0  0  0  0
 20 22  2  0  0  0  0
 20 38  1  0  0  0  0
 21 46  1  0  0  0  0
 22 39  1  0  0  0  0
 23 70  1  0  0  0  0
 24 79  1  0  0  0  0
 25 80  1  0  0  0  0
 26 28  2  0  0  0  0
 26 79  1  0  0  0  0
 27 81  1  0  0  0  0
 28 82  1  0  0  0  0
 29 63  2  0  0  0  0
 30 58  1  0  0  0  0
 30 64  1  0  0  0  0
 31 65  1  0  0  0  0
 31 68  1  0  0  0  0
 32 69  1  0  0  0  0
 32 74  2  0  0  0  0
 33 47  1  0  0  0  0
 33 71  1  0  0  0  0
 33 75  2  0  0  0  0
 34 59  1  0  0  0  0
 34 66  1  0  0  0  0
 34 76  2  0  0  0  0
 35 60  1  0  0  0  0
 35 72  1  0  0  0  0
 35 77  2  0  0  0  0
 36 67  1  0  0  0  0
 36 70  1  0  0  0  0
 36 78  2  0  0  0  0
 37 40  1  0  0  0  0
 38 47  1  0  0  0  0
 39 66  1  0  0  0  0
 40 42  1  0  0  0  0
 41 43  1  0  0  0  0
 41 44  1  0  0  0  0
 42 46  1  0  0  0  0
 43 48  1  0  0  0  0
 44 67  1  0  0  0  0
 45 48  1  0  0  0  0
 45 67  1  0  0  0  0
 46 71  1  0  0  0  0
 47 66  1  0  0  0  0
 48 65  1  0  0  0  0
 49 58  1  0  0  0  0
 50 58  1  0  0  0  0
 51 60  1  0  0  0  0
 52 61  1  0  0  0  0
 53 62  1  0  0  0  0
 54 62  1  0  0  0  0
 55 62  1  0  0  0  0
 56 73  1  0  0  0  0
 57 61  1  0  0  0  0
 57 64  1  0  0  0  0
 59 62  1  0  0  0  0
 59 72  1  0  0  0  0
 60 73  1  0  0  0  0
 61 80  1  0  0  0  0
 63 65  1  0  0  0  0
M  CHG  1  73   1
M  ISO  4  36 100  61 101  70 100  80 101
M  END
> <Batch ID>
0111

> <Smiles>
CNC(C)C(=O)NC(C(=O)N1Cc2cc([101O:1][101CH:1](C)Cn3cc([100NH:0][100C:0](=O)N4CCCC(n5nc(-c6ccc(Oc7ccc(F)cc7F)cc6)c(C(N)=O)c5N)C4)cc3C(C)C)ccc2CC1C(=O)NC1CCCc2ccccc21)C(C)(C)C

> <Shape>
0.232

> <Color>
0.052

> <Negative vol penalty>
0.000

$$$$

  -OEChem-04052320013D

 86 94  0     1  0  0  0  0  0999 V2000
  -29.3198  -32.9324   25.6685 C   0  0  0  0  0  0  0  0  0  0  0  0
  -29.1397  -31.6947   25.0592 C   0  0  0  0  0  0  0  0  0  0  0  0
  -22.2859  -12.1286   19.3425 C   0  0  0  0  0  0  0  0  0  0  0  0
  -23.9265  -11.7697   17.6057 C   0  0  0  0  0  0  0  0  0  0  0  0
  -28.2124  -33.6760   26.0742 C   0  0  0  0  0  0  0  0  0  0  0  0
  -27.8521  -31.1995   24.8563 C   0  0  0  0  0  0  0  0  0  0  0  0
  -27.2309  -29.2413   20.2276 C   0  0  0  0  0  0  0  0  0  0  0  0
  -29.4171  -23.6558   18.0047 C   0  0  0  0  0  0  0  0  0  0  0  0
  -21.2668  -11.8055   18.4467 C   0  0  0  0  0  0  0  0  0  0  0  0
  -22.9074  -11.4466   16.7098 C   0  0  0  0  0  0  0  0  0  0  0  0
  -27.7490  -27.9670   20.0005 C   0  0  0  0  0  0  0  0  0  0  0  0
  -29.7470  -22.3238   17.7546 C   0  0  0  0  0  0  0  0  0  0  0  0
  -18.2592  -10.7250   16.7140 C   0  0  0  0  0  0  0  0  0  0  0  0
  -17.2537   -9.8663   17.1578 C   0  0  0  0  0  0  0  0  0  0  0  0
  -25.5467  -27.0264   20.2909 C   0  0  0  0  0  0  0  0  0  0  0  0
  -29.5685  -21.8366   20.1143 C   0  0  0  0  0  0  0  0  0  0  0  0
  -18.9018   -8.1474   17.5659 C   0  0  0  0  0  0  0  0  0  0  0  0
  -23.6158  -12.1107   18.9220 C   0  0  0  0  0  0  0  0  0  0  0  0
  -25.3703  -11.5633   20.6912 C   0  0  0  0  0  0  0  0  0  0  0  0
  -26.9102  -33.1940   25.8674 C   0  0  0  0  0  0  0  0  0  0  0  0
  -25.8664  -29.4168   20.4993 C   0  0  0  0  0  0  0  0  0  0  0  0
  -26.7263  -31.9368   25.2608 C   0  0  0  0  0  0  0  0  0  0  0  0
  -25.0133  -28.3042   20.5186 C   0  0  0  0  0  0  0  0  0  0  0  0
  -29.1630  -24.0782   19.3095 C   0  0  0  0  0  0  0  0  0  0  0  0
  -29.2387  -23.1687   20.3643 C   0  0  0  0  0  0  0  0  0  0  0  0
  -21.5775  -11.4646   17.1303 C   0  0  0  0  0  0  0  0  0  0  0  0
  -26.9074  -26.8590   20.0350 C   0  0  0  0  0  0  0  0  0  0  0  0
  -29.8226  -21.4142   18.8094 C   0  0  0  0  0  0  0  0  0  0  0  0
  -19.5861  -10.2950   16.6961 C   0  0  0  0  0  0  0  0  0  0  0  0
  -17.5749   -8.5775   17.5838 C   0  0  0  0  0  0  0  0  0  0  0  0
  -19.9073   -9.0062   17.1221 C   0  0  0  0  0  0  0  0  0  0  0  0
  -24.6690  -12.4449   19.8468 C   0  0  0  0  0  0  0  0  0  0  0  0
  -26.2590  -12.3661   21.3636 C   0  0  0  0  0  0  0  0  0  0  0  0
  -25.2309  -10.1456   20.8531 C   0  0  0  0  0  0  0  0  0  0  0  0
  -24.1954  -30.5422   22.9580 C   0  0  0  0  0  0  0  0  0  0  0  0
  -21.6920  -30.1555   20.9317 C   0  0  0  0  0  0  0  0  0  0  0  0
  -20.3889  -28.5669   18.2068 C   0  0  0  0  0  0  0  0  0  0  0  0
  -28.6772  -17.6839   19.7530 C   0  0  0  0  0  0  0  0  0  0  0  0
  -25.7455  -34.0124   26.3658 C   0  0  0  0  0  0  0  0  0  0  0  0
  -25.3184  -30.8008   20.7156 C   0  0  0  0  0  0  0  0  0  0  0  0
  -23.5373  -28.4411   20.7857 C   0  0  0  0  0  0  0  0  0  0  0  0
  -24.4041  -33.5852   25.7755 C   0  0  0  0  0  0  0  0  0  0  0  0
  -26.3726  -17.0392   22.6622 C   0  0  0  0  0  0  0  0  0  0  0  0
  -24.2556  -32.0681   25.8303 C   0  0  0  0  0  0  0  0  0  0  0  0
  -26.1156  -15.5351   22.5610 C   0  0  0  0  0  0  0  0  0  0  0  0
  -27.6723  -17.4475   21.9855 C   0  0  0  0  0  0  0  0  0  0  0  0
  -26.8985  -15.9116   20.1694 C   0  0  0  0  0  0  0  0  0  0  0  0
  -25.3446  -31.3768   25.0009 C   0  0  1  0  0  0  0  0  0  0  0  0
  -24.0049  -30.8088   21.4916 C   0  0  1  0  0  0  0  0  0  0  0  0
  -26.7665  -14.8977   21.3190 C   0  0  2  0  0  0  0  0  0  0  0  0
  -27.8206  -22.8300   22.4301 C   0  0  0  0  0  0  0  0  0  0  0  0
  -18.3060  -28.4333   16.8136 C   0  0  0  0  0  0  0  0  0  0  0  0
  -20.3388  -28.5113   23.1170 C   0  0  0  0  0  0  0  0  0  0  0  0
  -18.7587  -27.6363   21.3833 C   0  0  0  0  0  0  0  0  0  0  0  0
  -18.8177  -30.0767   21.8963 C   0  0  0  0  0  0  0  0  0  0  0  0
  -27.0241  -18.0981   17.8798 C   0  0  0  0  0  0  0  0  0  0  0  0
  -31.3290  -24.2830   22.2321 C   0  0  0  0  0  0  0  0  0  0  0  0
  -21.8194  -29.4588   15.7743 C   0  0  0  0  0  0  0  0  0  0  0  0
  -28.8101  -25.5160   19.5535 C   0  0  0  0  0  0  0  0  0  1  0  0
  -29.4528  -18.0997   17.4515 C   0  0  0  0  0  0  0  0  0  0  0  0
  -29.7649  -19.5777   17.2995 C   0  0  0  0  0  0  0  0  0  0  0  0
  -28.9719  -23.5983   21.7695 C   0  0  1  0  0  0  0  0  0  0  0  0
  -20.7333  -29.0320   20.6191 C   0  0  1  0  0  0  0  0  0  0  0  0
  -19.6638  -29.0970   16.9830 C   0  0  2  0  0  0  0  0  0  0  0  0
  -19.6903  -28.8110   21.7508 C   0  0  0  0  0  0  0  0  0  0  0  0
  -25.0769  -13.7107   19.9699 N   0  0  0  0  0  0  0  0  0  0  0  0
  -26.0441  -13.6305   20.8995 N   0  0  0  0  0  0  0  0  0  0  0  0
  -23.0504  -29.8143   20.9973 N   0  0  0  0  0  0  0  0  0  0  0  0
  -27.7025  -17.0813   20.5667 N   0  0  0  0  0  0  0  0  0  0  0  0
  -27.1955  -12.1068   22.3007 N   0  0  0  0  0  0  0  0  0  0  0  0
  -24.2691   -9.4766   20.0838 N   0  0  0  0  0  0  0  0  0  0  0  0
  -25.0267  -31.4467   23.5908 N   0  0  0  0  0  0  0  0  0  0  0  0
  -20.1481  -29.3444   19.3198 N   0  0  0  0  0  0  0  0  0  0  0  0
  -28.3700  -17.8696   18.3979 N   0  0  0  0  0  0  0  0  0  0  0  0
  -30.1694  -23.4718   22.6679 N   0  3  0  0  0  0  0  0  0  0  0  0
  -20.4676  -28.8429   15.7541 N   0  3  0  0  0  0  0  0  0  0  0  0
  -25.9271   -9.4938   21.6680 O   0  0  0  0  0  0  0  0  0  0  0  0
  -23.6290  -29.5876   23.4771 O   0  0  0  0  0  0  0  0  0  0  0  0
  -21.2526  -31.2951   21.1040 O   0  0  0  0  0  0  0  0  0  0  0  0
  -21.0951  -27.5614   18.1791 O   0  0  0  0  0  0  0  0  0  0  0  0
  -29.7721  -18.0303   20.2168 O   0  0  0  0  0  0  0  0  0  0  0  0
  -20.5833  -11.1490   16.2559 O   0  0  0  0  0  0  0  0  0  0  0  0
  -27.4106  -25.6141   19.8144 O   0  0  0  0  0  0  0  0  0  1  0  0
  -30.1450  -20.1145   18.5656 O   0  0  0  0  0  0  0  0  0  0  0  0
  -16.6094   -7.7534   18.0115 F   0  0  0  0  0  0  0  0  0  0  0  0
  -21.1803   -8.5879   17.1082 F   0  0  0  0  0  0  0  0  0  0  0  0
  1  2  1  0  0  0  0
  1  5  2  0  0  0  0
  2  6  2  0  0  0  0
  3  9  2  0  0  0  0
  3 18  1  0  0  0  0
  4 10  1  0  0  0  0
  4 18  2  0  0  0  0
  5 20  1  0  0  0  0
  6 22  1  0  0  0  0
  7 11  2  0  0  0  0
  7 21  1  0  0  0  0
  8 12  2  0  0  0  0
  8 24  1  0  0  0  0
  9 26  1  0  0  0  0
 10 26  2  0  0  0  0
 11 27  1  0  0  0  0
 12 28  1  0  0  0  0
 13 14  2  0  0  0  0
 13 29  1  0  0  0  0
 14 30  1  0  0  0  0
 15 23  1  0  0  0  0
 15 27  2  0  0  0  0
 16 25  1  0  0  0  0
 16 28  2  0  0  0  0
 17 30  2  0  0  0  0
 17 31  1  0  0  0  0
 18 32  1  0  0  0  0
 19 32  1  0  0  0  0
 19 33  2  0  0  0  0
 19 34  1  0  0  0  0
 20 22  2  0  0  0  0
 20 39  1  0  0  0  0
 21 23  2  0  0  0  0
 21 40  1  0  0  0  0
 22 48  1  0  0  0  0
 23 41  1  0  0  0  0
 24 25  2  0  0  0  0
 24 59  1  0  0  0  0
 25 62  1  0  0  0  0
 26 82  1  0  0  0  0
 27 83  1  0  0  0  0
 28 84  1  0  0  0  0
 29 31  2  0  0  0  0
 29 82  1  0  0  0  0
 30 85  1  0  0  0  0
 31 86  1  0  0  0  0
 32 66  2  0  0  0  0
 33 67  1  0  0  0  0
 33 70  1  0  0  0  0
 34 71  1  0  0  0  0
 34 77  2  0  0  0  0
 35 49  1  0  0  0  0
 35 72  1  0  0  0  0
 35 78  2  0  0  0  0
 36 63  1  0  0  0  0
 36 68  1  0  0  0  0
 36 79  2  0  0  0  0
 37 64  1  0  0  0  0
 37 73  1  0  0  0  0
 37 80  2  0  0  0  0
 38 69  1  0  0  0  0
 38 74  1  0  0  0  0
 38 81  2  0  0  0  0
 39 42  1  0  0  0  0
 40 49  1  0  0  0  0
 41 68  1  0  0  0  0
 42 44  1  0  0  0  0
 43 45  1  0  0  0  0
 43 46  1  0  0  0  0
 44 48  1  0  0  0  0
 45 50  1  0  0  0  0
 46 69  1  0  0  0  0
 47 50  1  0  0  0  0
 47 69  1  0  0  0  0
 48 72  1  0  0  0  0
 49 68  1  0  0  0  0
 50 67  1  0  0  0  0
 51 62  1  0  0  0  0
 52 64  1  0  0  0  0
 53 65  1  0  0  0  0
 54 65  1  0  0  0  0
 55 65  1  0  0  0  0
 56 74  1  0  0  0  0
 57 75  1  0  0  0  0
 58 76  1  0  0  0  0
 59 83  1  0  0  0  0
 60 61  1  0  0  0  0
 60 74  1  0  0  0  0
 61 84  1  0  0  0  0
 62 75  1  0  0  0  0
 63 65  1  0  0  0  0
 63 73  1  0  0  0  0
 64 76  1  0  0  0  0
 66 67  1  0  0  0  0
M  CHG  2  75   1  76   1
M  ISO  4  38 100  59 101  74 100  83 101
M  END
> <Batch ID>
0111

> <Smiles>
CNC(C)C(=O)NC(C(=O)N1Cc2cc([101O:1][101CH2:1]c3ccc(OCC[100N:0](C)[100C:0](=O)N4CCCC(n5nc(-c6ccc(Oc7ccc(F)cc7F)cc6)c(C(N)=O)c5N)C4)cc3C(C)NC)ccc2CC1C(=O)NC1CCCc2ccccc21)C(C)(C)C

> <Shape>
0.266

> <Color>
0.074

> <Negative vol penalty>
0.000

$$$$

  -OEChem-04052320013D

 84 92  0     1  0  0  0  0  0999 V2000
  -24.7161  -31.3093   24.4485 C   0  0  0  0  0  0  0  0  0  0  0  0
  -25.3778  -30.1171   24.7246 C   0  0  0  0  0  0  0  0  0  0  0  0
  -23.5944  -15.6524   20.0296 C   0  0  0  0  0  0  0  0  0  0  0  0
  -23.1498  -13.7622   18.5921 C   0  0  0  0  0  0  0  0  0  0  0  0
  -24.2696  -31.5739   23.1544 C   0  0  0  0  0  0  0  0  0  0  0  0
  -25.5924  -29.1882   23.7069 C   0  0  0  0  0  0  0  0  0  0  0  0
  -30.3209  -24.2552   21.5569 C   0  0  0  0  0  0  0  0  0  0  0  0
  -22.6893  -16.4215   19.2983 C   0  0  0  0  0  0  0  0  0  0  0  0
  -22.2447  -14.5313   17.8608 C   0  0  0  0  0  0  0  0  0  0  0  0
  -30.3820  -22.9150   21.1774 C   0  0  0  0  0  0  0  0  0  0  0  0
  -22.6458  -18.0943   16.3615 C   0  0  0  0  0  0  0  0  0  0  0  0
  -23.0320  -19.3874   16.0089 C   0  0  0  0  0  0  0  0  0  0  0  0
  -29.6364  -23.5144   18.9629 C   0  0  0  0  0  0  0  0  0  0  0  0
  -21.1518  -20.2829   17.2337 C   0  0  0  0  0  0  0  0  0  0  0  0
  -23.8247  -14.3228   19.6765 C   0  0  0  0  0  0  0  0  0  0  0  0
  -24.4836  -12.7340   21.5605 C   0  0  0  0  0  0  0  0  0  0  0  0
  -24.4874  -30.6521   22.1183 C   0  0  0  0  0  0  0  0  0  0  0  0
  -29.9060  -25.2353   20.6439 C   0  0  0  0  0  0  0  0  0  0  0  0
  -25.1472  -29.4402   22.3981 C   0  0  0  0  0  0  0  0  0  0  0  0
  -29.5734  -24.8666   19.3325 C   0  0  0  0  0  0  0  0  0  0  0  0
  -22.0144  -15.8610   18.2139 C   0  0  0  0  0  0  0  0  0  0  0  0
  -30.0369  -22.5441   19.8811 C   0  0  0  0  0  0  0  0  0  0  0  0
  -21.5126  -17.8954   17.1502 C   0  0  0  0  0  0  0  0  0  0  0  0
  -22.2850  -20.4817   16.4450 C   0  0  0  0  0  0  0  0  0  0  0  0
  -20.7656  -18.9897   17.5863 C   0  0  0  0  0  0  0  0  0  0  0  0
  -24.7600  -13.5280   20.4313 C   0  0  0  0  0  0  0  0  0  0  0  0
  -25.6969  -12.1881   21.9016 C   0  0  0  0  0  0  0  0  0  0  0  0
  -23.2413  -12.5099   22.2402 C   0  0  0  0  0  0  0  0  0  0  0  0
  -27.4897  -27.2961   20.5090 C   0  0  0  0  0  0  0  0  0  0  0  0
  -29.0615  -28.3683   17.8818 C   0  0  0  0  0  0  0  0  0  0  0  0
  -31.2580  -27.7162   15.3526 C   0  0  0  0  0  0  0  0  0  0  0  0
  -28.6709  -14.7324   18.1808 C   0  0  0  0  0  0  0  0  0  0  0  0
  -23.9446  -30.9613   20.7456 C   0  0  0  0  0  0  0  0  0  0  0  0
  -29.8712  -26.6800   21.0610 C   0  0  0  0  0  0  0  0  0  0  0  0
  -29.1411  -25.8830   18.3085 C   0  0  0  0  0  0  0  0  0  0  0  0
  -24.5428  -30.0905   19.6437 C   0  0  0  0  0  0  0  0  0  0  0  0
  -28.4739  -11.2543   18.6477 C   0  0  0  0  0  0  0  0  0  0  0  0
  -24.5536  -28.6253   20.0680 C   0  0  0  0  0  0  0  0  0  0  0  0
  -28.3804  -11.0680   20.1597 C   0  0  0  0  0  0  0  0  0  0  0  0
  -29.4337  -12.3820   18.2974 C   0  0  0  0  0  0  0  0  0  0  0  0
  -30.0480  -16.3135   19.5975 C   0  0  0  0  0  0  0  0  0  0  0  0
  -28.9426  -13.5577   20.4246 C   0  0  0  0  0  0  0  0  0  0  0  0
  -30.9933  -17.3353   18.9797 C   0  0  0  0  0  0  0  0  0  0  0  0
  -29.1288  -18.2000   17.5672 C   0  0  0  0  0  0  0  0  0  0  0  0
  -25.4209  -28.4187   21.3156 C   0  0  1  0  0  0  0  0  0  0  0  0
  -28.9414  -27.5286   20.1991 C   0  0  1  0  0  0  0  0  0  0  0  0
  -28.0836  -12.3725   20.9200 C   0  0  1  0  0  0  0  0  0  0  0  0
  -28.1781  -17.1675   18.1749 C   0  0  2  0  0  0  0  0  0  0  0  0
  -27.2650  -17.7641   19.2503 C   0  0  0  0  0  0  0  0  0  0  0  0
  -32.3143  -28.7768   13.3385 C   0  0  0  0  0  0  0  0  0  0  0  0
  -26.4557  -28.0181   16.3337 C   0  0  0  0  0  0  0  0  0  0  0  0
  -27.7775  -28.1640   14.2125 C   0  0  0  0  0  0  0  0  0  0  0  0
  -27.7245  -30.1016   15.7827 C   0  0  0  0  0  0  0  0  0  0  0  0
  -33.9797  -27.4058   16.4726 C   0  0  0  0  0  0  0  0  0  0  0  0
  -34.3836  -19.0095   16.8320 C   0  0  0  0  0  0  0  0  0  0  0  0
  -34.7000  -21.3636   16.0845 C   0  0  0  0  0  0  0  0  0  0  0  0
  -31.4858  -19.3211   16.5621 C   0  0  0  0  0  0  0  0  0  0  0  0
  -32.4616  -20.2885   15.8981 C   0  0  0  0  0  0  0  0  0  0  0  0
  -30.3835  -20.9640   18.1378 C   0  0  0  0  0  0  0  0  0  1  0  0
  -29.0364  -28.0334   16.4100 C   0  0  1  0  0  0  0  0  0  0  0  0
  -32.4495  -28.4963   14.8270 C   0  0  2  0  0  0  0  0  0  0  0  0
  -31.1196  -19.6312   18.0190 C   0  0  1  0  0  0  0  0  0  0  0  0
  -27.7548  -28.5596   15.7043 C   0  0  0  0  0  0  0  0  0  0  0  0
  -26.0478  -13.4926   20.0787 N   0  0  0  0  0  0  0  0  0  0  0  0
  -26.5915  -12.6698   20.9917 N   0  0  0  0  0  0  0  0  0  0  0  0
  -29.1171  -27.2820   18.7665 N   0  0  0  0  0  0  0  0  0  0  0  0
  -29.0572  -13.6295   18.9602 N   0  0  0  0  0  0  0  0  0  0  0  0
  -28.9174  -16.0100   18.7081 N   0  0  0  0  0  0  0  0  0  0  0  0
  -26.0752  -11.3479   22.8882 N   0  0  0  0  0  0  0  0  0  0  0  0
  -22.0909  -13.1485   21.7574 N   0  0  0  0  0  0  0  0  0  0  0  0
  -26.8241  -28.4193   20.9615 N   0  0  0  0  0  0  0  0  0  0  0  0
  -30.2810  -28.5512   15.8522 N   0  0  0  0  0  0  0  0  0  0  0  0
  -30.2164  -18.5529   18.5509 N   0  3  2  0  0  0  0  0  0  0  0  0
  -33.7085  -27.7303   15.0485 N   0  3  0  0  0  0  0  0  0  0  0  0
  -33.7298  -20.3597   16.6601 N   0  3  0  0  0  0  0  0  0  0  0  0
  -23.1569  -11.7783   23.2557 O   0  0  0  0  0  0  0  0  0  0  0  0
  -27.0086  -26.1806   20.3480 O   0  0  0  0  0  0  0  0  0  0  0  0
  -29.0401  -29.5505   18.2335 O   0  0  0  0  0  0  0  0  0  0  0  0
  -31.1981  -26.4891   15.3195 O   0  0  0  0  0  0  0  0  0  0  0  0
  -28.1202  -14.5833   17.0825 O   0  0  0  0  0  0  0  0  0  0  0  0
  -21.1310  -16.6111   17.5001 O   0  0  0  0  0  0  0  0  0  0  0  0
  -30.0953  -21.2277   19.5057 O   0  0  0  0  0  0  0  0  0  1  0  0
  -22.6568  -21.7235   16.1075 F   0  0  0  0  0  0  0  0  0  0  0  0
  -19.6767  -18.8050   18.3452 F   0  0  0  0  0  0  0  0  0  0  0  0
  1  2  1  0  0  0  0
  1  5  2  0  0  0  0
  2  6  2  0  0  0  0
  3  8  2  0  0  0  0
  3 15  1  0  0  0  0
  4  9  1  0  0  0  0
  4 15  2  0  0  0  0
  5 17  1  0  0  0  0
  6 19  1  0  0  0  0
  7 10  2  0  0  0  0
  7 18  1  0  0  0  0
  8 21  1  0  0  0  0
  9 21  2  0  0  0  0
 10 22  1  0  0  0  0
 11 12  2  0  0  0  0
 11 23  1  0  0  0  0
 12 24  1  0  0  0  0
 13 20  1  0  0  0  0
 13 22  2  0  0  0  0
 14 24  2  0  0  0  0
 14 25  1  0  0  0  0
 15 26  1  0  0  0  0
 16 26  1  0  0  0  0
 16 27  2  0  0  0  0
 16 28  1  0  0  0  0
 17 19  2  0  0  0  0
 17 33  1  0  0  0  0
 18 20  2  0  0  0  0
 18 34  1  0  0  0  0
 19 45  1  0  0  0  0
 20 35  1  0  0  0  0
 21 81  1  0  0  0  0
 22 82  1  0  0  0  0
 23 25  2  0  0  0  0
 23 81  1  0  0  0  0
 24 83  1  0  0  0  0
 25 84  1  0  0  0  0
 26 64  2  0  0  0  0
 27 65  1  0  0  0  0
 27 69  1  0  0  0  0
 28 70  1  0  0  0  0
 28 76  2  0  0  0  0
 29 46  1  0  0  0  0
 29 71  1  0  0  0  0
 29 77  2  0  0  0  0
 30 60  1  0  0  0  0
 30 66  1  0  0  0  0
 30 78  2  0  0  0  0
 31 61  1  0  0  0  0
 31 72  1  0  0  0  0
 31 79  2  0  0  0  0
 32 67  1  0  0  0  0
 32 68  1  0  0  0  0
 32 80  2  0  0  0  0
 33 36  1  0  0  0  0
 34 46  1  0  0  0  0
 35 66  1  0  0  0  0
 36 38  1  0  0  0  0
 37 39  1  0  0  0  0
 37 40  1  0  0  0  0
 38 45  1  0  0  0  0
 39 47  1  0  0  0  0
 40 67  1  0  0  0  0
 41 43  1  0  0  0  0
 41 68  1  0  0  0  0
 42 47  1  0  0  0  0
 42 67  1  0  0  0  0
 43 73  1  0  0  0  0
 44 48  1  0  0  0  0
 44 73  1  0  0  0  0
 45 71  1  0  0  0  0
 46 66  1  0  0  0  0
 47 65  1  0  0  0  0
 48 49  1  0  0  0  0
 48 68  1  0  0  0  0
 50 61  1  0  0  0  0
 51 63  1  0  0  0  0
 52 63  1  0  0  0  0
 53 63  1  0  0  0  0
 54 74  1  0  0  0  0
 55 75  1  0  0  0  0
 56 75  1  0  0  0  0
 57 58  1  0  0  0  0
 57 62  1  0  0  0  0
 58 75  1  0  0  0  0
 59 62  1  0  0  0  0
 59 82  1  0  0  0  0
 60 63  1  0  0  0  0
 60 72  1  0  0  0  0
 61 74  1  0  0  0  0
 62 73  1  0  0  0  0
 64 65  1  0  0  0  0
M  CHG  3  73   1  74   1  75   1
M  ISO  4  32 100  59 101  68 100  82 101
M  END
> <Batch ID>
0111

> <Smiles>
CNC(C)C(=O)NC(C(=O)N1Cc2cc([101O:1][101CH2:1]C(CCN(C)C)N3CC[100N:0]([100C:0](=O)N4CCCC(n5nc(-c6ccc(Oc7ccc(F)cc7F)cc6)c(C(N)=O)c5N)C4)C(C)C3)ccc2CC1C(=O)NC1CCCc2ccccc21)C(C)(C)C

> <Shape>
0.217

> <Color>
0.068

> <Negative vol penalty>
0.000

$$$$

  -OEChem-04052320013D

 83 91  0     1  0  0  0  0  0999 V2000
  -20.1625  -34.5103   24.1929 C   0  0  0  0  0  0  0  0  0  0  0  0
  -21.4365  -34.1795   23.7424 C   0  0  0  0  0  0  0  0  0  0  0  0
  -26.6166  -12.2879   21.7373 C   0  0  0  0  0  0  0  0  0  0  0  0
  -26.0148  -13.6346   19.8238 C   0  0  0  0  0  0  0  0  0  0  0  0
  -19.2986  -33.5089   24.6343 C   0  0  0  0  0  0  0  0  0  0  0  0
  -21.8477  -32.8471   23.7340 C   0  0  0  0  0  0  0  0  0  0  0  0
  -25.5251  -30.1548   19.6433 C   0  0  0  0  0  0  0  0  0  0  0  0
  -25.3412  -11.7233   21.7411 C   0  0  0  0  0  0  0  0  0  0  0  0
  -24.7394  -13.0700   19.8276 C   0  0  0  0  0  0  0  0  0  0  0  0
  -26.8867  -29.8560   19.6598 C   0  0  0  0  0  0  0  0  0  0  0  0
  -23.6673   -9.3394   20.0240 C   0  0  0  0  0  0  0  0  0  0  0  0
  -23.5709   -7.9569   20.1821 C   0  0  0  0  0  0  0  0  0  0  0  0
  -29.2332  -25.5784   19.0866 C   0  0  0  0  0  0  0  0  0  0  0  0
  -26.3805  -27.6186   20.4061 C   0  0  0  0  0  0  0  0  0  0  0  0
  -22.2637   -8.2776   22.1885 C   0  0  0  0  0  0  0  0  0  0  0  0
  -29.0856  -24.2124   18.9900 C   0  0  0  0  0  0  0  0  0  0  0  0
  -26.9534  -13.2436   20.7787 C   0  0  0  0  0  0  0  0  0  0  0  0
  -29.4063  -13.3589   20.0873 C   0  0  0  0  0  0  0  0  0  0  0  0
  -19.6960  -32.1626   24.6223 C   0  0  0  0  0  0  0  0  0  0  0  0
  -24.5799  -29.1895   20.0191 C   0  0  0  0  0  0  0  0  0  0  0  0
  -20.9888  -31.8269   24.1769 C   0  0  0  0  0  0  0  0  0  0  0  0
  -25.0073  -27.9069   20.3910 C   0  0  0  0  0  0  0  0  0  0  0  0
  -29.0210  -25.9322   20.4419 C   0  0  0  0  0  0  0  0  0  0  0  0
  -24.4026  -12.1143   20.7862 C   0  0  0  0  0  0  0  0  0  0  0  0
  -27.3148  -28.5886   20.0440 C   0  0  0  0  0  0  0  0  0  0  0  0
  -23.0620  -10.1910   20.9482 C   0  0  0  0  0  0  0  0  0  0  0  0
  -22.8690   -7.4260   21.2643 C   0  0  0  0  0  0  0  0  0  0  0  0
  -22.3601   -9.6601   22.0304 C   0  0  0  0  0  0  0  0  0  0  0  0
  -28.2706  -13.8277   20.7746 C   0  0  0  0  0  0  0  0  0  0  0  0
  -28.7503  -24.7714   21.1324 C   0  0  0  0  0  0  0  0  0  0  0  0
  -30.3957  -14.2564   20.4068 C   0  0  0  0  0  0  0  0  0  0  0  0
  -29.5536  -12.2146   19.2362 C   0  0  0  0  0  0  0  0  0  0  0  0
  -22.4027  -28.9600   22.3236 C   0  0  0  0  0  0  0  0  0  0  0  0
  -21.5754  -26.2543   20.7371 C   0  0  0  0  0  0  0  0  0  0  0  0
  -22.4951  -23.7425   18.6177 C   0  0  0  0  0  0  0  0  0  0  0  0
  -30.2984  -19.9882   22.1353 C   0  0  0  0  0  0  0  0  0  0  0  0
  -18.7443  -31.1200   25.1535 C   0  0  0  0  0  0  0  0  0  0  0  0
  -23.1132  -29.5193   19.9703 C   0  0  0  0  0  0  0  0  0  0  0  0
  -24.0317  -26.8288   20.7840 C   0  0  0  0  0  0  0  0  0  0  0  0
  -19.1220  -29.6941   24.7608 C   0  0  0  0  0  0  0  0  0  0  0  0
  -31.7563  -17.2498   23.8823 C   0  0  0  0  0  0  0  0  0  0  0  0
  -20.6102  -29.4528   24.9931 C   0  0  0  0  0  0  0  0  0  0  0  0
  -31.1307  -16.0199   23.2220 C   0  0  0  0  0  0  0  0  0  0  0  0
  -30.7614  -18.4039   23.9825 C   0  0  0  0  0  0  0  0  0  0  0  0
  -29.4939  -17.5507   22.0488 C   0  0  0  0  0  0  0  0  0  0  0  0
  -21.4624  -30.3904   24.1294 C   0  0  1  0  0  0  0  0  0  0  0  0
  -22.2682  -28.6192   20.8664 C   0  0  1  0  0  0  0  0  0  0  0  0
  -30.4755  -16.3791   21.8748 C   0  0  2  0  0  0  0  0  0  0  0  0
  -28.4550  -24.5613   22.5657 C   0  0  0  0  0  0  0  0  0  0  0  0
  -30.4874  -27.7023   21.4712 C   0  0  0  0  0  0  0  0  0  0  0  0
  -21.6150  -21.6556   17.5371 C   0  0  0  0  0  0  0  0  0  0  0  0
  -21.8751  -24.7616   23.3814 C   0  0  0  0  0  0  0  0  0  0  0  0
  -21.9275  -22.6197   22.0862 C   0  0  0  0  0  0  0  0  0  0  0  0
  -19.9000  -24.0709   22.0116 C   0  0  0  0  0  0  0  0  0  0  0  0
  -22.8856  -24.8462   15.8996 C   0  0  0  0  0  0  0  0  0  0  0  0
  -26.0560  -22.4117   20.1486 C   0  0  0  0  0  0  0  0  0  0  0  0
  -29.7695  -21.4509   20.2014 C   0  0  0  0  0  0  0  0  0  0  0  0
  -29.0822  -27.3290   21.0164 C   0  0  1  0  0  0  0  0  0  1  0  0
  -21.9954  -24.8057   20.8027 C   0  0  1  0  0  0  0  0  0  0  0  0
  -21.8134  -23.1566   17.3943 C   0  0  2  0  0  0  0  0  0  0  0  0
  -28.5651  -22.3381   20.5500 C   0  0  1  0  0  0  0  0  0  0  0  0
  -21.4433  -24.0852   22.0650 C   0  0  0  0  0  0  0  0  0  0  0  0
  -28.5148  -14.9367   21.4778 N   0  0  0  0  0  0  0  0  0  0  0  0
  -28.7925  -23.7324   20.2398 N   0  0  0  0  0  0  0  0  0  0  0  0
  -29.8152  -15.1723   21.2340 N   0  0  0  0  0  0  0  0  0  0  0  0
  -22.6087  -27.2020   20.7262 N   0  0  0  0  0  0  0  0  0  0  0  0
  -30.1773  -18.6955   22.6711 N   0  0  0  0  0  0  0  0  0  0  0  0
  -31.6969  -14.3436   20.0580 N   0  0  0  0  0  0  0  0  0  0  0  0
  -28.4359  -11.3986   19.0143 N   0  0  0  0  0  0  0  0  0  0  0  0
  -21.5076  -29.9169   22.7626 N   0  0  0  0  0  0  0  0  0  0  0  0
  -21.5801  -24.2028   19.5408 N   0  0  0  0  0  0  0  0  0  0  0  0
  -29.7222  -20.1777   20.8853 N   0  0  0  0  0  0  0  0  0  0  0  0
  -22.6321  -23.4085   16.1748 N   0  3  0  0  0  0  0  0  0  0  0  0
  -27.3581  -21.7534   19.8441 N   0  3  0  0  0  0  0  0  0  0  0  0
  -30.6482  -11.9151   18.7017 O   0  0  0  0  0  0  0  0  0  0  0  0
  -23.2545  -28.3955   23.0000 O   0  0  0  0  0  0  0  0  0  0  0  0
  -20.3750  -26.5343   20.6899 O   0  0  0  0  0  0  0  0  0  0  0  0
  -23.7169  -23.7841   18.7435 O   0  0  0  0  0  0  0  0  0  0  0  0
  -30.8819  -20.9042   22.7249 O   0  0  0  0  0  0  0  0  0  0  0  0
  -23.1580  -11.5633   20.7894 O   0  0  0  0  0  0  0  0  0  0  0  0
  -28.6434  -28.2945   20.0616 O   0  0  0  0  0  0  0  0  0  1  0  0
  -22.7752   -6.0984   21.4152 F   0  0  0  0  0  0  0  0  0  0  0  0
  -21.7755  -10.4732   22.9209 F   0  0  0  0  0  0  0  0  0  0  0  0
  1  2  1  0  0  0  0
  1  5  2  0  0  0  0
  2  6  2  0  0  0  0
  3  8  2  0  0  0  0
  3 17  1  0  0  0  0
  4  9  1  0  0  0  0
  4 17  2  0  0  0  0
  5 19  1  0  0  0  0
  6 21  1  0  0  0  0
  7 10  2  0  0  0  0
  7 20  1  0  0  0  0
  8 24  1  0  0  0  0
  9 24  2  0  0  0  0
 10 25  1  0  0  0  0
 11 12  2  0  0  0  0
 11 26  1  0  0  0  0
 12 27  1  0  0  0  0
 13 16  2  0  0  0  0
 13 23  1  0  0  0  0
 14 22  1  0  0  0  0
 14 25  2  0  0  0  0
 15 27  2  0  0  0  0
 15 28  1  0  0  0  0
 16 64  1  0  0  0  0
 17 29  1  0  0  0  0
 18 29  1  0  0  0  0
 18 31  2  0  0  0  0
 18 32  1  0  0  0  0
 19 21  2  0  0  0  0
 19 37  1  0  0  0  0
 20 22  2  0  0  0  0
 20 38  1  0  0  0  0
 21 46  1  0  0  0  0
 22 39  1  0  0  0  0
 23 30  2  0  0  0  0
 23 58  1  0  0  0  0
 24 80  1  0  0  0  0
 25 81  1  0  0  0  0
 26 28  2  0  0  0  0
 26 80  1  0  0  0  0
 27 82  1  0  0  0  0
 28 83  1  0  0  0  0
 29 63  2  0  0  0  0
 30 49  1  0  0  0  0
 30 64  1  0  0  0  0
 31 65  1  0  0  0  0
 31 68  1  0  0  0  0
 32 69  1  0  0  0  0
 32 75  2  0  0  0  0
 33 47  1  0  0  0  0
 33 70  1  0  0  0  0
 33 76  2  0  0  0  0
 34 59  1  0  0  0  0
 34 66  1  0  0  0  0
 34 77  2  0  0  0  0
 35 60  1  0  0  0  0
 35 71  1  0  0  0  0
 35 78  2  0  0  0  0
 36 67  1  0  0  0  0
 36 72  1  0  0  0  0
 36 79  2  0  0  0  0
 37 40  1  0  0  0  0
 38 47  1  0  0  0  0
 39 66  1  0  0  0  0
 40 42  1  0  0  0  0
 41 43  1  0  0  0  0
 41 44  1  0  0  0  0
 42 46  1  0  0  0  0
 43 48  1  0  0  0  0
 44 67  1  0  0  0  0
 45 48  1  0  0  0  0
 45 67  1  0  0  0  0
 46 70  1  0  0  0  0
 47 66  1  0  0  0  0
 48 65  1  0  0  0  0
 50 58  1  0  0  0  0
 51 60  1  0  0  0  0
 52 62  1  0  0  0  0
 53 62  1  0  0  0  0
 54 62  1  0  0  0  0
 55 73  1  0  0  0  0
 56 74  1  0  0  0  0
 57 61  1  0  0  0  0
 57 72  1  0  0  0  0
 58 81  1  0  0  0  0
 59 62  1  0  0  0  0
 59 71  1  0  0  0  0
 60 73  1  0  0  0  0
 61 64  1  0  0  0  0
 61 74  1  0  0  0  0
 63 65  1  0  0  0  0
M  CHG  2  73   1  74   1
M  ISO  4  36 100  58 101  72 100  81 101
M  END
> <Batch ID>
0111

> <Smiles>
CNC(C)C(=O)NC(C(=O)N1Cc2cc([101O:1][101CH:1](C)c3ccn(C(C[100NH:0][100C:0](=O)N4CCCC(n5nc(-c6ccc(Oc7ccc(F)cc7F)cc6)c(C(N)=O)c5N)C4)NC)c3C)ccc2CC1C(=O)NC1CCCc2ccccc21)C(C)(C)C

> <Shape>
0.284

> <Color>
0.088

> <Negative vol penalty>
0.000

$$$$

  -OEChem-04052320013D

 87 95  0     1  0  0  0  0  0999 V2000
  -29.8001  -25.2181   17.1639 C   0  0  0  0  0  0  0  0  0  0  0  0
  -28.5923  -25.1920   17.8538 C   0  0  0  0  0  0  0  0  0  0  0  0
  -27.9275  -14.5378   21.2927 C   0  0  0  0  0  0  0  0  0  0  0  0
  -25.9710  -15.0900   19.9873 C   0  0  0  0  0  0  0  0  0  0  0  0
  -30.8591  -25.9877   17.6436 C   0  0  0  0  0  0  0  0  0  0  0  0
  -28.4432  -25.9347   19.0245 C   0  0  0  0  0  0  0  0  0  0  0  0
  -24.0474  -28.4438   19.1866 C   0  0  0  0  0  0  0  0  0  0  0  0
  -27.5829  -13.1873   21.2380 C   0  0  0  0  0  0  0  0  0  0  0  0
  -25.6263  -13.7395   19.9325 C   0  0  0  0  0  0  0  0  0  0  0  0
  -22.9077  -27.7110   19.5150 C   0  0  0  0  0  0  0  0  0  0  0  0
  -24.1801  -11.4533   21.9605 C   0  0  0  0  0  0  0  0  0  0  0  0
  -22.8483  -11.1142   22.1989 C   0  0  0  0  0  0  0  0  0  0  0  0
  -23.0371  -28.5351   21.7784 C   0  0  0  0  0  0  0  0  0  0  0  0
  -22.7028  -10.1358   19.9947 C   0  0  0  0  0  0  0  0  0  0  0  0
  -27.1216  -15.4892   20.6674 C   0  0  0  0  0  0  0  0  0  0  0  0
  -28.2837  -17.5938   19.8143 C   0  0  0  0  0  0  0  0  0  0  0  0
  -30.7197  -26.7479   18.8155 C   0  0  0  0  0  0  0  0  0  0  0  0
  -24.6979  -29.2205   20.1561 C   0  0  0  0  0  0  0  0  0  0  0  0
  -29.5017  -26.7142   19.5211 C   0  0  0  0  0  0  0  0  0  0  0  0
  -24.1834  -29.2789   21.4592 C   0  0  0  0  0  0  0  0  0  0  0  0
  -26.4323  -12.7882   20.5579 C   0  0  0  0  0  0  0  0  0  0  0  0
  -22.4040  -27.7543   20.8117 C   0  0  0  0  0  0  0  0  0  0  0  0
  -24.7733  -11.1337   20.7391 C   0  0  0  0  0  0  0  0  0  0  0  0
  -22.1096  -10.4554   21.2161 C   0  0  0  0  0  0  0  0  0  0  0  0
  -24.0346  -10.4750   19.7562 C   0  0  0  0  0  0  0  0  0  0  0  0
  -27.4767  -16.8844   20.7240 C   0  0  0  0  0  0  0  0  0  0  0  0
  -21.1131  -24.0685   22.1346 C   0  0  0  0  0  0  0  0  0  0  0  0
  -20.9048  -23.2181   21.0745 C   0  0  0  0  0  0  0  0  0  0  0  0
  -28.3142  -18.8748   20.3090 C   0  0  0  0  0  0  0  0  0  0  0  0
  -22.6349  -22.5880   22.2854 C   0  0  0  0  0  0  0  0  0  0  0  0
  -28.9463  -17.1358   18.6282 C   0  0  0  0  0  0  0  0  0  0  0  0
  -27.5927  -29.2069   21.4691 C   0  0  0  0  0  0  0  0  0  0  0  0
  -26.5431  -31.9370   22.8716 C   0  0  0  0  0  0  0  0  0  0  0  0
  -23.9000  -33.8286   23.9124 C   0  0  0  0  0  0  0  0  0  0  0  0
  -24.5827  -22.0032   23.7722 C   0  0  0  0  0  0  0  0  0  0  0  0
  -31.9079  -27.5273   19.3209 C   0  0  0  0  0  0  0  0  0  0  0  0
  -25.9108  -30.0263   19.7792 C   0  0  0  0  0  0  0  0  0  0  0  0
  -24.8330  -30.1134   22.5316 C   0  0  0  0  0  0  0  0  0  0  0  0
  -31.5462  -28.5804   20.3650 C   0  0  0  0  0  0  0  0  0  0  0  0
  -28.0138  -21.3089   24.4222 C   0  0  0  0  0  0  0  0  0  0  0  0
  -30.6096  -27.9914   21.4151 C   0  0  0  0  0  0  0  0  0  0  0  0
  -28.3405  -20.1641   23.4605 C   0  0  0  0  0  0  0  0  0  0  0  0
  -26.5968  -21.1930   24.9813 C   0  0  0  0  0  0  0  0  0  0  0  0
  -25.8670  -19.9094   23.0092 C   0  0  0  0  0  0  0  0  0  0  0  0
  -29.2932  -27.5258   20.7812 C   0  0  1  0  0  0  0  0  0  0  0  0
  -26.7903  -30.3773   20.9753 C   0  0  1  0  0  0  0  0  0  0  0  0
  -27.2610  -20.0186   22.3701 C   0  0  2  0  0  0  0  0  0  0  0  0
  -19.6735  -25.1401   23.8985 C   0  0  0  0  0  0  0  0  0  0  0  0
  -19.9664  -24.4684   19.0972 C   0  0  0  0  0  0  0  0  0  0  0  0
  -18.4492  -23.0536   20.5295 C   0  0  0  0  0  0  0  0  0  0  0  0
  -23.3576  -35.9942   25.0583 C   0  0  0  0  0  0  0  0  0  0  0  0
  -27.3182  -30.7086   25.5548 C   0  0  0  0  0  0  0  0  0  0  0  0
  -25.9159  -32.4515   26.6790 C   0  0  0  0  0  0  0  0  0  0  0  0
  -27.8892  -33.1314   25.3128 C   0  0  0  0  0  0  0  0  0  0  0  0
  -22.4301  -34.8430   21.5525 C   0  0  0  0  0  0  0  0  0  0  0  0
  -23.4119  -20.6742   16.7305 C   0  0  0  0  0  0  0  0  0  0  0  0
  -23.6282  -19.2224   18.7420 C   0  0  0  0  0  0  0  0  0  0  0  0
  -22.0927  -21.1534   20.2950 C   0  0  0  0  0  0  0  0  0  0  0  0
  -22.7321  -21.5348   18.9663 C   0  0  0  0  0  0  0  0  0  0  0  0
  -21.1861  -26.5765   22.4807 C   0  0  0  0  0  0  0  0  0  1  0  0
  -20.3225  -25.3084   22.5218 C   0  0  1  0  0  0  0  0  0  0  0  0
  -19.8945  -23.2149   20.0014 C   0  0  0  0  0  0  0  0  0  0  0  0
  -25.8152  -32.2699   24.1516 C   0  0  1  0  0  0  0  0  0  0  0  0
  -23.5780  -35.2999   23.7234 C   0  0  2  0  0  0  0  0  0  0  0  0
  -26.7233  -32.1230   25.4051 C   0  0  0  0  0  0  0  0  0  0  0  0
  -27.0272  -17.6511   21.7211 N   0  0  0  0  0  0  0  0  0  0  0  0
  -22.1917  -23.6710   22.8844 N   0  0  0  0  0  0  0  0  0  0  0  0
  -21.8877  -22.2751   21.1840 N   0  0  0  0  0  0  0  0  0  0  0  0
  -27.5536  -18.8555   21.4409 N   0  0  0  0  0  0  0  0  0  0  0  0
  -26.0201  -30.8785   22.1155 N   0  0  0  0  0  0  0  0  0  0  0  0
  -25.6278  -21.0628   23.8909 N   0  0  0  0  0  0  0  0  0  0  0  0
  -28.9172  -20.0045   19.8818 N   0  0  0  0  0  0  0  0  0  0  0  0
  -28.8100  -15.7892   18.2644 N   0  0  0  0  0  0  0  0  0  0  0  0
  -23.7427  -21.7968   22.6784 N   0  0  0  0  0  0  0  0  0  0  0  0
  -28.4310  -28.6579   20.5176 N   0  0  0  0  0  0  0  0  0  0  0  0
  -25.2597  -33.6066   23.9695 N   0  0  0  0  0  0  0  0  0  0  0  0
  -22.3448  -35.4588   22.9018 N   0  3  0  0  0  0  0  0  0  0  0  0
  -22.8526  -20.3422   18.0923 N   0  3  0  0  0  0  0  0  0  0  0  0
  -29.6523  -17.8943   17.9213 O   0  0  0  0  0  0  0  0  0  0  0  0
  -27.4620  -28.8306   22.6280 O   0  0  0  0  0  0  0  0  0  0  0  0
  -27.5348  -32.5967   22.5507 O   0  0  0  0  0  0  0  0  0  0  0  0
  -23.0322  -32.9632   24.0043 O   0  0  0  0  0  0  0  0  0  0  0  0
  -24.4592  -22.9398   24.5657 O   0  0  0  0  0  0  0  0  0  0  0  0
  -26.0958  -11.4704   20.5041 O   0  0  0  0  0  0  0  0  0  0  0  0
  -21.2921  -27.0394   21.1350 O   0  0  0  0  0  0  0  0  0  1  0  0
  -20.8312  -10.1284   21.4458 F   0  0  0  0  0  0  0  0  0  0  0  0
  -24.5993  -10.1643   18.5813 F   0  0  0  0  0  0  0  0  0  0  0  0
  1  2  1  0  0  0  0
  1  5  2  0  0  0  0
  2  6  2  0  0  0  0
  3  8  2  0  0  0  0
  3 15  1  0  0  0  0
  4  9  1  0  0  0  0
  4 15  2  0  0  0  0
  5 17  1  0  0  0  0
  6 19  1  0  0  0  0
  7 10  2  0  0  0  0
  7 18  1  0  0  0  0
  8 21  1  0  0  0  0
  9 21  2  0  0  0  0
 10 22  1  0  0  0  0
 11 12  2  0  0  0  0
 11 23  1  0  0  0  0
 12 24  1  0  0  0  0
 13 20  1  0  0  0  0
 13 22  2  0  0  0  0
 14 24  2  0  0  0  0
 14 25  1  0  0  0  0
 15 26  1  0  0  0  0
 16 26  1  0  0  0  0
 16 29  2  0  0  0  0
 16 31  1  0  0  0  0
 17 19  2  0  0  0  0
 17 36  1  0  0  0  0
 18 20  2  0  0  0  0
 18 37  1  0  0  0  0
 19 45  1  0  0  0  0
 20 38  1  0  0  0  0
 21 84  1  0  0  0  0
 22 85  1  0  0  0  0
 23 25  2  0  0  0  0
 23 84  1  0  0  0  0
 24 86  1  0  0  0  0
 25 87  1  0  0  0  0
 26 66  2  0  0  0  0
 27 28  2  0  0  0  0
 27 61  1  0  0  0  0
 27 67  1  0  0  0  0
 28 62  1  0  0  0  0
 28 68  1  0  0  0  0
 29 69  1  0  0  0  0
 29 72  1  0  0  0  0
 30 67  2  0  0  0  0
 30 68  1  0  0  0  0
 30 74  1  0  0  0  0
 31 73  1  0  0  0  0
 31 79  2  0  0  0  0
 32 46  1  0  0  0  0
 32 75  1  0  0  0  0
 32 80  2  0  0  0  0
 33 63  1  0  0  0  0
 33 70  1  0  0  0  0
 33 81  2  0  0  0  0
 34 64  1  0  0  0  0
 34 76  1  0  0  0  0
 34 82  2  0  0  0  0
 35 71  1  0  0  0  0
 35 74  1  0  0  0  0
 35 83  2  0  0  0  0
 36 39  1  0  0  0  0
 37 46  1  0  0  0  0
 38 70  1  0  0  0  0
 39 41  1  0  0  0  0
 40 42  1  0  0  0  0
 40 43  1  0  0  0  0
 41 45  1  0  0  0  0
 42 47  1  0  0  0  0
 43 71  1  0  0  0  0
 44 47  1  0  0  0  0
 44 71  1  0  0  0  0
 45 75  1  0  0  0  0
 46 70  1  0  0  0  0
 47 69  1  0  0  0  0
 48 61  1  0  0  0  0
 49 62  1  0  0  0  0
 50 62  1  0  0  0  0
 51 64  1  0  0  0  0
 52 65  1  0  0  0  0
 53 65  1  0  0  0  0
 54 65  1  0  0  0  0
 55 77  1  0  0  0  0
 56 78  1  0  0  0  0
 57 78  1  0  0  0  0
 58 59  1  0  0  0  0
 58 68  1  0  0  0  0
 59 78  1  0  0  0  0
 60 61  1  0  0  0  0
 60 85  1  0  0  0  0
 63 65  1  0  0  0  0
 63 76  1  0  0  0  0
 64 77  1  0  0  0  0
 66 69  1  0  0  0  0
M  CHG  2  77   1  78   1
M  ISO  4  35 100  60 101  74 100  85 101
M  END
> <Batch ID>
0111

> <Smiles>
CNC(C)C(=O)NC(C(=O)N1Cc2cc([101O:1][101CH2:1]C(C)c3nc([100NH:0][100C:0](=O)N4CCCC(n5nc(-c6ccc(Oc7ccc(F)cc7F)cc6)c(C(N)=O)c5N)C4)n(CCN(C)C)c3C(C)C)ccc2CC1C(=O)NC1CCCc2ccccc21)C(C)(C)C

> <Shape>
0.277

> <Color>
0.071

> <Negative vol penalty>
0.000

$$$$

  -OEChem-04052320013D

 88 96  0     1  0  0  0  0  0999 V2000
  -17.6007  -13.8423   19.9093 C   0  0  0  0  0  0  0  0  0  0  0  0
  -17.3013  -15.0584   20.5149 C   0  0  0  0  0  0  0  0  0  0  0  0
  -29.0063  -17.5861   19.5450 C   0  0  0  0  0  0  0  0  0  0  0  0
  -30.5245  -17.9918   21.3802 C   0  0  0  0  0  0  0  0  0  0  0  0
  -18.9076  -13.5672   19.5092 C   0  0  0  0  0  0  0  0  0  0  0  0
  -18.3090  -15.9998   20.7217 C   0  0  0  0  0  0  0  0  0  0  0  0
  -19.3773  -23.0802   20.9288 C   0  0  0  0  0  0  0  0  0  0  0  0
  -28.4402  -29.7797   23.2154 C   0  0  0  0  0  0  0  0  0  0  0  0
  -29.5884  -29.0884   22.8289 C   0  0  0  0  0  0  0  0  0  0  0  0
  -29.5793  -16.3296   19.3488 C   0  0  0  0  0  0  0  0  0  0  0  0
  -31.0975  -16.7353   21.1840 C   0  0  0  0  0  0  0  0  0  0  0  0
  -19.9206  -24.0638   21.7541 C   0  0  0  0  0  0  0  0  0  0  0  0
  -30.4014  -12.8694   18.5961 C   0  0  0  0  0  0  0  0  0  0  0  0
  -29.5423  -11.7892   18.3946 C   0  0  0  0  0  0  0  0  0  0  0  0
  -22.1269  -23.5114   20.9500 C   0  0  0  0  0  0  0  0  0  0  0  0
  -27.8504  -27.9689   24.7021 C   0  0  0  0  0  0  0  0  0  0  0  0
  -28.5421  -12.1810   20.5587 C   0  0  0  0  0  0  0  0  0  0  0  0
  -29.4790  -18.4172   20.5607 C   0  0  0  0  0  0  0  0  0  0  0  0
  -27.7975  -20.0325   21.5957 C   0  0  0  0  0  0  0  0  0  0  0  0
  -19.9300  -14.5095   19.7024 C   0  0  0  0  0  0  0  0  0  0  0  0
  -20.2072  -22.2961   20.1146 C   0  0  0  0  0  0  0  0  0  0  0  0
  -19.6311  -15.7365   20.3250 C   0  0  0  0  0  0  0  0  0  0  0  0
  -21.5914  -22.5202   20.1134 C   0  0  0  0  0  0  0  0  0  0  0  0
  -27.5713  -29.2200   24.1521 C   0  0  0  0  0  0  0  0  0  0  0  0
  -29.8675  -27.8373   23.3789 C   0  0  0  0  0  0  0  0  0  0  0  0
  -28.9986  -27.2776   24.3156 C   0  0  0  0  0  0  0  0  0  0  0  0
  -30.6249  -15.9042   20.1683 C   0  0  0  0  0  0  0  0  0  0  0  0
  -21.2959  -24.2776   21.7670 C   0  0  0  0  0  0  0  0  0  0  0  0
  -30.3310  -13.6054   19.7790 C   0  0  0  0  0  0  0  0  0  0  0  0
  -28.6127  -11.4450   19.3758 C   0  0  0  0  0  0  0  0  0  0  0  0
  -29.4013  -13.2612   20.7602 C   0  0  0  0  0  0  0  0  0  0  0  0
  -28.8879  -19.7155   20.7635 C   0  0  0  0  0  0  0  0  0  0  0  0
  -27.6276  -21.3863   21.4381 C   0  0  0  0  0  0  0  0  0  0  0  0
  -27.0089  -19.1796   22.4361 C   0  0  0  0  0  0  0  0  0  0  0  0
  -20.8689  -19.1936   19.9136 C   0  0  0  0  0  0  0  0  0  0  0  0
  -22.5425  -20.1181   17.2931 C   0  0  0  0  0  0  0  0  0  0  0  0
  -24.1799  -22.6089   15.6312 C   0  0  0  0  0  0  0  0  0  0  0  0
  -30.7199  -26.2192   20.6664 C   0  0  0  0  0  0  0  0  0  0  0  0
  -21.3367  -14.1481   19.2961 C   0  0  0  0  0  0  0  0  0  0  0  0
  -19.6030  -21.2573   19.2101 C   0  0  0  0  0  0  0  0  0  0  0  0
  -22.5237  -21.7192   19.2430 C   0  0  0  0  0  0  0  0  0  0  0  0
  -22.2742  -15.3499   19.2117 C   0  0  0  0  0  0  0  0  0  0  0  0
  -28.9350  -24.6846   17.9950 C   0  0  0  0  0  0  0  0  0  0  0  0
  -22.1174  -16.2367   20.4428 C   0  0  0  0  0  0  0  0  0  0  0  0
  -28.6395  -23.2762   18.5140 C   0  0  0  0  0  0  0  0  0  0  0  0
  -30.3037  -25.1804   18.4563 C   0  0  0  0  0  0  0  0  0  0  0  0
  -30.2313  -23.7086   20.4318 C   0  0  0  0  0  0  0  0  0  0  0  0
  -20.6921  -16.7932   20.5440 C   0  0  1  0  0  0  0  0  0  0  0  0
  -20.5927  -20.1694   18.8048 C   0  0  1  0  0  0  0  0  0  0  0  0
  -28.8383  -23.1874   20.0391 C   0  0  2  0  0  0  0  0  0  0  0  0
  -29.2767  -25.9394   24.9177 C   0  0  0  0  0  0  0  0  0  0  0  0
  -26.6816  -31.2886   25.2760 C   0  0  0  0  0  0  0  0  0  0  0  0
  -25.4780  -23.0526   13.5299 C   0  0  0  0  0  0  0  0  0  0  0  0
  -24.3319  -29.5522   20.7267 C   0  0  0  0  0  0  0  0  0  0  0  0
  -24.9606  -18.6921   18.4887 C   0  0  0  0  0  0  0  0  0  0  0  0
  -26.4093  -19.9459   16.8770 C   0  0  0  0  0  0  0  0  0  0  0  0
  -24.6726  -18.3707   16.0253 C   0  0  0  0  0  0  0  0  0  0  0  0
  -22.2201  -24.6254   14.7083 C   0  0  0  0  0  0  0  0  0  0  0  0
  -31.1023  -27.1155   22.9488 C   0  0  0  0  0  0  0  0  0  0  0  0
  -21.8928  -27.6004   23.0763 C   0  0  0  0  0  0  0  0  0  0  0  0
  -22.7347  -27.9390   21.8389 C   0  0  0  0  0  0  0  0  0  0  0  0
  -25.3629  -30.2463   23.4030 C   0  0  0  0  0  0  0  0  0  0  0  0
  -21.0145  -26.3739   22.8543 C   0  0  0  0  0  0  0  0  0  1  0  0
  -26.3166  -29.9754   24.5738 C   0  0  1  0  0  0  0  0  0  0  0  0
  -23.9578  -20.5756   17.0350 C   0  0  1  0  0  0  0  0  0  0  0  0
  -24.1071  -23.0739   14.1880 C   0  0  2  0  0  0  0  0  0  0  0  0
  -23.5716  -29.2131   22.0021 C   0  0  1  0  0  0  0  0  0  0  0  0
  -24.9830  -19.4100   17.1245 C   0  0  0  0  0  0  0  0  0  0  0  0
  -29.3760  -20.7820   20.1245 N   0  0  0  0  0  0  0  0  0  0  0  0
  -28.5887  -21.7824   20.5552 N   0  0  0  0  0  0  0  0  0  0  0  0
  -21.8854  -20.7108   18.3807 N   0  0  0  0  0  0  0  0  0  0  0  0
  -30.4271  -25.0710   19.9119 N   0  0  0  0  0  0  0  0  0  0  0  0
  -26.7511  -22.2646   21.9699 N   0  0  0  0  0  0  0  0  0  0  0  0
  -27.3191  -17.8135   22.4805 N   0  0  0  0  0  0  0  0  0  0  0  0
  -20.5115  -17.8916   19.6192 N   0  0  0  0  0  0  0  0  0  0  0  0
  -23.9380  -21.2562   15.7448 N   0  0  0  0  0  0  0  0  0  0  0  0
  -30.8131  -26.0289   22.0396 N   0  0  0  0  0  0  0  0  0  0  0  0
  -23.5737  -24.4637   14.1179 N   0  3  0  0  0  0  0  0  0  0  0  0
  -24.5675  -29.0297   23.0946 N   0  3  0  0  0  0  0  0  0  0  0  0
  -26.0470  -19.6131   23.1145 O   0  0  0  0  0  0  0  0  0  0  0  0
  -21.3705  -19.5922   20.9582 O   0  0  0  0  0  0  0  0  0  0  0  0
  -22.0361  -19.2715   16.5526 O   0  0  0  0  0  0  0  0  0  0  0  0
  -24.4302  -23.3689   16.5641 O   0  0  0  0  0  0  0  0  0  0  0  0
  -30.8806  -27.3323   20.1546 O   0  0  0  0  0  0  0  0  0  0  0  0
  -31.1841  -14.6781   19.9772 O   0  0  0  0  0  0  0  0  0  0  0  0
  -21.8288  -25.2365   22.5721 O   0  0  0  0  0  0  0  0  0  1  0  0
  -27.7867  -10.4086   19.1815 F   0  0  0  0  0  0  0  0  0  0  0  0
  -29.3281  -13.9652   21.8981 F   0  0  0  0  0  0  0  0  0  0  0  0
  1  2  1  0  0  0  0
  1  5  2  0  0  0  0
  2  6  2  0  0  0  0
  3 10  2  0  0  0  0
  3 18  1  0  0  0  0
  4 11  1  0  0  0  0
  4 18  2  0  0  0  0
  5 20  1  0  0  0  0
  6 22  1  0  0  0  0
  7 12  2  0  0  0  0
  7 21  1  0  0  0  0
  8  9  2  0  0  0  0
  8 24  1  0  0  0  0
  9 25  1  0  0  0  0
 10 27  1  0  0  0  0
 11 27  2  0  0  0  0
 12 28  1  0  0  0  0
 13 14  2  0  0  0  0
 13 29  1  0  0  0  0
 14 30  1  0  0  0  0
 15 23  1  0  0  0  0
 15 28  2  0  0  0  0
 16 24  2  0  0  0  0
 16 26  1  0  0  0  0
 17 30  2  0  0  0  0
 17 31  1  0  0  0  0
 18 32  1  0  0  0  0
 19 32  1  0  0  0  0
 19 33  2  0  0  0  0
 19 34  1  0  0  0  0
 20 22  2  0  0  0  0
 20 39  1  0  0  0  0
 21 23  2  0  0  0  0
 21 40  1  0  0  0  0
 22 48  1  0  0  0  0
 23 41  1  0  0  0  0
 24 64  1  0  0  0  0
 25 26  2  0  0  0  0
 25 59  1  0  0  0  0
 26 51  1  0  0  0  0
 27 85  1  0  0  0  0
 28 86  1  0  0  0  0
 29 31  2  0  0  0  0
 29 85  1  0  0  0  0
 30 87  1  0  0  0  0
 31 88  1  0  0  0  0
 32 69  2  0  0  0  0
 33 70  1  0  0  0  0
 33 73  1  0  0  0  0
 34 74  1  0  0  0  0
 34 80  2  0  0  0  0
 35 49  1  0  0  0  0
 35 75  1  0  0  0  0
 35 81  2  0  0  0  0
 36 65  1  0  0  0  0
 36 71  1  0  0  0  0
 36 82  2  0  0  0  0
 37 66  1  0  0  0  0
 37 76  1  0  0  0  0
 37 83  2  0  0  0  0
 38 72  1  0  0  0  0
 38 77  1  0  0  0  0
 38 84  2  0  0  0  0
 39 42  1  0  0  0  0
 40 49  1  0  0  0  0
 41 71  1  0  0  0  0
 42 44  1  0  0  0  0
 43 45  1  0  0  0  0
 43 46  1  0  0  0  0
 44 48  1  0  0  0  0
 45 50  1  0  0  0  0
 46 72  1  0  0  0  0
 47 50  1  0  0  0  0
 47 72  1  0  0  0  0
 48 75  1  0  0  0  0
 49 71  1  0  0  0  0
 50 70  1  0  0  0  0
 52 64  1  0  0  0  0
 53 66  1  0  0  0  0
 54 67  1  0  0  0  0
 55 68  1  0  0  0  0
 56 68  1  0  0  0  0
 57 68  1  0  0  0  0
 58 78  1  0  0  0  0
 59 77  1  0  0  0  0
 60 61  1  0  0  0  0
 60 63  1  0  0  0  0
 61 67  1  0  0  0  0
 62 64  1  0  0  0  0
 62 79  1  0  0  0  0
 63 86  1  0  0  0  0
 65 68  1  0  0  0  0
 65 76  1  0  0  0  0
 66 78  1  0  0  0  0
 67 79  1  0  0  0  0
 69 70  1  0  0  0  0
M  CHG  2  78   1  79   1
M  ISO  4  38 100  63 101  77 100  86 101
M  END
> <Batch ID>
0111

> <Smiles>
CNC(C)C(=O)NC(C(=O)N1Cc2cc([101O:1][101CH2:1]CCC(C)NCC(C)c3ccc(C[100NH:0][100C:0](=O)N4CCCC(n5nc(-c6ccc(Oc7ccc(F)cc7F)cc6)c(C(N)=O)c5N)C4)c(C)c3)ccc2CC1C(=O)NC1CCCc2ccccc21)C(C)(C)C

> <Shape>
0.204

> <Color>
0.062

> <Negative vol penalty>
0.000

$$$$

  -OEChem-04052320013D

 79 87  0     1  0  0  0  0  0999 V2000
  -20.1542  -15.0345   26.0813 C   0  0  0  0  0  0  0  0  0  0  0  0
  -21.0339  -16.0260   25.6590 C   0  0  0  0  0  0  0  0  0  0  0  0
  -23.6240  -29.9020   23.1455 C   0  0  0  0  0  0  0  0  0  0  0  0
  -23.6779  -30.8032   20.9045 C   0  0  0  0  0  0  0  0  0  0  0  0
  -20.5772  -13.7072   26.1389 C   0  0  0  0  0  0  0  0  0  0  0  0
  -22.3376  -15.6910   25.2952 C   0  0  0  0  0  0  0  0  0  0  0  0
  -25.7223  -18.3023   20.9098 C   0  0  0  0  0  0  0  0  0  0  0  0
  -22.2365  -29.7839   23.0647 C   0  0  0  0  0  0  0  0  0  0  0  0
  -22.2903  -30.6850   20.8237 C   0  0  0  0  0  0  0  0  0  0  0  0
  -26.7185  -19.2769   20.9491 C   0  0  0  0  0  0  0  0  0  0  0  0
  -19.9934  -27.6683   21.6771 C   0  0  0  0  0  0  0  0  0  0  0  0
  -19.4168  -26.4799   22.1252 C   0  0  0  0  0  0  0  0  0  0  0  0
  -28.4008  -17.5480   20.9651 C   0  0  0  0  0  0  0  0  0  0  0  0
  -18.1395  -27.7166   23.7612 C   0  0  0  0  0  0  0  0  0  0  0  0
  -24.3447  -30.4117   22.0655 C   0  0  0  0  0  0  0  0  0  0  0  0
  -26.5135  -31.2958   23.0766 C   0  0  0  0  0  0  0  0  0  0  0  0
  -21.8839  -13.3544   25.7664 C   0  0  0  0  0  0  0  0  0  0  0  0
  -26.0582  -16.9408   20.9089 C   0  0  0  0  0  0  0  0  0  0  0  0
  -22.7790  -14.3579   25.3491 C   0  0  0  0  0  0  0  0  0  0  0  0
  -27.4071  -16.5582   20.9232 C   0  0  0  0  0  0  0  0  0  0  0  0
  -21.5697  -30.1753   21.9038 C   0  0  0  0  0  0  0  0  0  0  0  0
  -28.0579  -18.8998   20.9797 C   0  0  0  0  0  0  0  0  0  0  0  0
  -19.6431  -28.8809   22.2710 C   0  0  0  0  0  0  0  0  0  0  0  0
  -18.4898  -26.5040   23.1673 C   0  0  0  0  0  0  0  0  0  0  0  0
  -18.7162  -28.9050   23.3131 C   0  0  0  0  0  0  0  0  0  0  0  0
  -25.7779  -30.5346   22.1486 C   0  0  0  0  0  0  0  0  0  0  0  0
  -27.8260  -31.0788   22.7351 C   0  0  0  0  0  0  0  0  0  0  0  0
  -26.0516  -32.1249   24.1513 C   0  0  0  0  0  0  0  0  0  0  0  0
  -25.5069  -14.4931   22.8605 C   0  0  0  0  0  0  0  0  0  0  0  0
  -26.9220  -12.7891   20.4907 C   0  0  0  0  0  0  0  0  0  0  0  0
  -29.0363  -12.7551   17.8120 C   0  0  0  0  0  0  0  0  0  0  0  0
  -30.6998  -26.7207   20.0102 C   0  0  0  0  0  0  0  0  0  0  0  0
  -22.3099  -11.9130   25.8904 C   0  0  0  0  0  0  0  0  0  0  0  0
  -24.9725  -15.9021   20.8393 C   0  0  0  0  0  0  0  0  0  0  0  0
  -27.8209  -15.1101   20.9032 C   0  0  0  0  0  0  0  0  0  0  0  0
  -23.5937  -11.5897   25.1302 C   0  0  0  0  0  0  0  0  0  0  0  0
  -31.8611  -22.7639   22.4718 C   0  0  0  0  0  0  0  0  0  0  0  0
  -30.6096  -30.0361   18.9970 C   0  0  0  0  0  0  0  0  0  0  0  0
  -24.6564  -12.6497   25.4022 C   0  0  0  0  0  0  0  0  0  0  0  0
  -30.6507  -21.8401   22.3626 C   0  0  0  0  0  0  0  0  0  0  0  0
  -29.4319  -30.6253   19.7722 C   0  0  0  0  0  0  0  0  0  0  0  0
  -31.4582  -24.2338   22.3821 C   0  0  0  0  0  0  0  0  0  0  0  0
  -29.4373  -23.5929   21.0023 C   0  0  0  0  0  0  0  0  0  0  0  0
  -30.2845  -28.6340   18.4958 C   0  0  0  0  0  0  0  0  0  0  0  0
  -28.7115  -28.2583   20.3682 C   0  0  0  0  0  0  0  0  0  0  0  0
  -24.1936  -14.0307   24.9226 C   0  0  1  0  0  0  0  0  0  0  0  0
  -25.4154  -14.5388   21.3614 C   0  0  1  0  0  0  0  0  0  0  0  0
  -29.8428  -22.1136   21.0872 C   0  0  2  0  0  0  0  0  0  0  0  0
  -28.9866  -29.6794   20.9012 C   0  0  2  0  0  0  0  0  0  0  0  0
  -30.6552  -24.5149   21.1102 C   0  0  1  0  0  0  0  0  0  0  0  0
  -30.0231  -11.2073   16.1008 C   0  0  0  0  0  0  0  0  0  0  0  0
  -28.8276  -11.6775   22.5985 C   0  0  0  0  0  0  0  0  0  0  0  0
  -30.3301  -10.9247   20.7427 C   0  0  0  0  0  0  0  0  0  0  0  0
  -28.0220   -9.9972   20.9306 C   0  0  0  0  0  0  0  0  0  0  0  0
  -29.1542  -26.2767   21.9643 C   0  0  0  0  0  0  0  0  0  0  0  0
  -27.8113  -14.2584   15.5763 C   0  0  0  0  0  0  0  0  0  0  0  0
  -28.6108  -21.2124   21.0262 C   0  0  0  0  0  0  0  0  0  1  0  0
  -28.3395  -12.3854   20.1640 C   0  0  1  0  0  0  0  0  0  0  0  0
  -28.8886  -12.1687   16.4196 C   0  0  2  0  0  0  0  0  0  0  0  0
  -28.8723  -11.2735   21.1113 C   0  0  0  0  0  0  0  0  0  0  0  0
  -26.5583  -29.8828   21.2824 N   0  0  0  0  0  0  0  0  0  0  0  0
  -27.7979  -30.2340   21.6647 N   0  0  0  0  0  0  0  0  0  0  0  0
  -26.7224  -14.1318   20.8413 N   0  0  0  0  0  0  0  0  0  0  0  0
  -29.8603  -27.7643   19.5934 N   0  0  0  0  0  0  0  0  0  0  0  0
  -28.9899  -31.5302   23.2489 N   0  0  0  0  0  0  0  0  0  0  0  0
  -25.7978  -33.4782   23.8896 N   0  0  0  0  0  0  0  0  0  0  0  0
  -24.3269  -14.1374   23.4855 N   0  0  0  0  0  0  0  0  0  0  0  0
  -28.3448  -12.0201   18.7516 N   0  0  0  0  0  0  0  0  0  0  0  0
  -30.2431  -25.9104   21.0606 N   0  0  0  0  0  0  0  0  0  0  0  0
  -28.8908  -13.2535   15.3977 N   0  3  0  0  0  0  0  0  0  0  0  0
  -25.8851  -31.6825   25.3133 O   0  0  0  0  0  0  0  0  0  0  0  0
  -26.5697  -14.7593   23.4094 O   0  0  0  0  0  0  0  0  0  0  0  0
  -26.0238  -11.9458   20.4298 O   0  0  0  0  0  0  0  0  0  0  0  0
  -29.7018  -13.7621   18.0435 O   0  0  0  0  0  0  0  0  0  0  0  0
  -31.7945  -26.5180   19.4692 O   0  0  0  0  0  0  0  0  0  0  0  0
  -20.2158  -30.0599   21.8245 O   0  0  0  0  0  0  0  0  0  0  0  0
  -29.0322  -19.8490   21.0187 O   0  0  0  0  0  0  0  0  0  1  0  0
  -17.9351  -25.3629   23.5965 F   0  0  0  0  0  0  0  0  0  0  0  0
  -18.3748  -30.0669   23.8868 F   0  0  0  0  0  0  0  0  0  0  0  0
  1  2  1  0  0  0  0
  1  5  2  0  0  0  0
  2  6  2  0  0  0  0
  3  8  2  0  0  0  0
  3 15  1  0  0  0  0
  4  9  1  0  0  0  0
  4 15  2  0  0  0  0
  5 17  1  0  0  0  0
  6 19  1  0  0  0  0
  7 10  2  0  0  0  0
  7 18  1  0  0  0  0
  8 21  1  0  0  0  0
  9 21  2  0  0  0  0
 10 22  1  0  0  0  0
 11 12  2  0  0  0  0
 11 23  1  0  0  0  0
 12 24  1  0  0  0  0
 13 20  1  0  0  0  0
 13 22  2  0  0  0  0
 14 24  2  0  0  0  0
 14 25  1  0  0  0  0
 15 26  1  0  0  0  0
 16 26  1  0  0  0  0
 16 27  2  0  0  0  0
 16 28  1  0  0  0  0
 17 19  2  0  0  0  0
 17 33  1  0  0  0  0
 18 20  2  0  0  0  0
 18 34  1  0  0  0  0
 19 46  1  0  0  0  0
 20 35  1  0  0  0  0
 21 76  1  0  0  0  0
 22 77  1  0  0  0  0
 23 25  2  0  0  0  0
 23 76  1  0  0  0  0
 24 78  1  0  0  0  0
 25 79  1  0  0  0  0
 26 61  2  0  0  0  0
 27 62  1  0  0  0  0
 27 65  1  0  0  0  0
 28 66  1  0  0  0  0
 28 71  2  0  0  0  0
 29 47  1  0  0  0  0
 29 67  1  0  0  0  0
 29 72  2  0  0  0  0
 30 58  1  0  0  0  0
 30 63  1  0  0  0  0
 30 73  2  0  0  0  0
 31 59  1  0  0  0  0
 31 68  1  0  0  0  0
 31 74  2  0  0  0  0
 32 64  1  0  0  0  0
 32 69  1  0  0  0  0
 32 75  2  0  0  0  0
 33 36  1  0  0  0  0
 34 47  1  0  0  0  0
 35 63  1  0  0  0  0
 36 39  1  0  0  0  0
 37 40  1  0  0  0  0
 37 42  1  0  0  0  0
 38 41  1  0  0  0  0
 38 44  1  0  0  0  0
 39 46  1  0  0  0  0
 40 48  1  0  0  0  0
 41 49  1  0  0  0  0
 42 50  1  0  0  0  0
 43 48  1  0  0  0  0
 43 50  1  0  0  0  0
 44 64  1  0  0  0  0
 45 49  1  0  0  0  0
 45 64  1  0  0  0  0
 46 67  1  0  0  0  0
 47 63  1  0  0  0  0
 48 57  1  0  0  0  0
 49 62  1  0  0  0  0
 50 69  1  0  0  0  0
 51 59  1  0  0  0  0
 52 60  1  0  0  0  0
 53 60  1  0  0  0  0
 54 60  1  0  0  0  0
 55 69  1  0  0  0  0
 56 70  1  0  0  0  0
 57 77  1  0  0  0  0
 58 60  1  0  0  0  0
 58 68  1  0  0  0  0
 59 70  1  0  0  0  0
 61 62  1  0  0  0  0
M  CHG  1  70   1
M  ISO  4  32 100  57 101  69 100  77 101
M  END
> <Batch ID>
0111

> <Smiles>
CNC(C)C(=O)NC(C(=O)N1Cc2cc([101O:1][101CH2:1]C3CCCC([100N:0](C)[100C:0](=O)N4CCCC(n5nc(-c6ccc(Oc7ccc(F)cc7F)cc6)c(C(N)=O)c5N)C4)C3)ccc2CC1C(=O)NC1CCCc2ccccc21)C(C)(C)C

> <Shape>
0.277

> <Color>
0.056

> <Negative vol penalty>
0.000

$$$$

  -OEChem-04052320013D

 86 94  0     1  0  0  0  0  0999 V2000
  -19.2220  -28.9059   23.0063 C   0  0  0  0  0  0  0  0  0  0  0  0
  -20.5733  -28.6072   22.8643 C   0  0  0  0  0  0  0  0  0  0  0  0
  -25.3319  -13.5783   21.6751 C   0  0  0  0  0  0  0  0  0  0  0  0
  -26.7677  -13.2980   19.7523 C   0  0  0  0  0  0  0  0  0  0  0  0
  -18.2606  -27.9435   22.7006 C   0  0  0  0  0  0  0  0  0  0  0  0
  -20.9640  -27.3454   22.4174 C   0  0  0  0  0  0  0  0  0  0  0  0
  -24.6080  -27.5698   18.9080 C   0  0  0  0  0  0  0  0  0  0  0  0
  -24.4715  -12.6010   21.1750 C   0  0  0  0  0  0  0  0  0  0  0  0
  -25.9073  -12.3207   19.2522 C   0  0  0  0  0  0  0  0  0  0  0  0
  -25.9076  -27.8064   19.3538 C   0  0  0  0  0  0  0  0  0  0  0  0
  -24.3582   -9.2252   21.0194 C   0  0  0  0  0  0  0  0  0  0  0  0
  -23.8917   -8.2562   21.9077 C   0  0  0  0  0  0  0  0  0  0  0  0
  -26.3918  -25.4500   19.1742 C   0  0  0  0  0  0  0  0  0  0  0  0
  -31.8212  -24.8630   18.4491 C   0  0  0  0  0  0  0  0  0  0  0  0
  -21.6191   -8.9513   21.4724 C   0  0  0  0  0  0  0  0  0  0  0  0
  -32.5933  -25.8603   20.4013 C   0  0  0  0  0  0  0  0  0  0  0  0
  -26.4800  -13.9269   20.9637 C   0  0  0  0  0  0  0  0  0  0  0  0
  -28.4726  -14.7430   22.3316 C   0  0  0  0  0  0  0  0  0  0  0  0
  -18.6394  -26.6725   22.2405 C   0  0  0  0  0  0  0  0  0  0  0  0
  -24.1865  -26.2679   18.6018 C   0  0  0  0  0  0  0  0  0  0  0  0
  -20.0068  -26.3647   22.1065 C   0  0  0  0  0  0  0  0  0  0  0  0
  -25.0870  -25.1999   18.7223 C   0  0  0  0  0  0  0  0  0  0  0  0
  -31.6063  -25.8635   19.4405 C   0  0  0  0  0  0  0  0  0  0  0  0
  -24.7592  -11.9721   19.9636 C   0  0  0  0  0  0  0  0  0  0  0  0
  -26.7988  -26.7460   19.4898 C   0  0  0  0  0  0  0  0  0  0  0  0
  -23.4552  -10.0573   20.3576 C   0  0  0  0  0  0  0  0  0  0  0  0
  -22.5222   -8.1193   22.1342 C   0  0  0  0  0  0  0  0  0  0  0  0
  -22.0857   -9.9203   20.5841 C   0  0  0  0  0  0  0  0  0  0  0  0
  -27.3690  -14.9368   21.4795 C   0  0  0  0  0  0  0  0  0  0  0  0
  -32.9647  -24.1333   18.6899 C   0  0  0  0  0  0  0  0  0  0  0  0
  -28.9813  -16.0038   22.5267 C   0  0  0  0  0  0  0  0  0  0  0  0
  -28.9916  -13.5316   22.8963 C   0  0  0  0  0  0  0  0  0  0  0  0
  -21.9555  -24.3076   19.7350 C   0  0  0  0  0  0  0  0  0  0  0  0
  -22.8833  -22.4435   17.2477 C   0  0  0  0  0  0  0  0  0  0  0  0
  -25.3186  -21.5981   15.0113 C   0  0  0  0  0  0  0  0  0  0  0  0
  -28.7850  -21.0344   19.3171 C   0  0  0  0  0  0  0  0  0  0  0  0
  -17.5655  -25.6494   21.9677 C   0  0  0  0  0  0  0  0  0  0  0  0
  -22.7894  -26.0329   18.0966 C   0  0  0  0  0  0  0  0  0  0  0  0
  -24.6901  -23.7862   18.3871 C   0  0  0  0  0  0  0  0  0  0  0  0
  -18.0521  -24.4608   21.1426 C   0  0  0  0  0  0  0  0  0  0  0  0
  -27.6506  -20.6011   22.6495 C   0  0  0  0  0  0  0  0  0  0  0  0
  -19.3789  -23.9408   21.6866 C   0  0  0  0  0  0  0  0  0  0  0  0
  -27.5555  -19.0824   22.8094 C   0  0  0  0  0  0  0  0  0  0  0  0
  -27.2352  -21.0483   21.2495 C   0  0  0  0  0  0  0  0  0  0  0  0
  -27.8470  -18.8568   20.3069 C   0  0  0  0  0  0  0  0  0  0  0  0
  -20.4694  -25.0154   21.6009 C   0  0  1  0  0  0  0  0  0  0  0  0
  -22.3120  -24.5989   18.3047 C   0  0  1  0  0  0  0  0  0  0  0  0
  -28.3109  -18.3503   21.6833 C   0  0  2  0  0  0  0  0  0  0  0  0
  -25.7978  -20.0118   13.1268 C   0  0  0  0  0  0  0  0  0  0  0  0
  -34.5237  -23.5392   16.7981 C   0  0  0  0  0  0  0  0  0  0  0  0
  -34.3850  -21.9710   18.7090 C   0  0  0  0  0  0  0  0  0  0  0  0
  -23.2960  -20.1847   19.2572 C   0  0  0  0  0  0  0  0  0  0  0  0
  -24.6413  -18.9810   17.5224 C   0  0  0  0  0  0  0  0  0  0  0  0
  -22.2342  -19.4844   17.1040 C   0  0  0  0  0  0  0  0  0  0  0  0
  -31.6470  -28.6061   18.1936 C   0  0  0  0  0  0  0  0  0  0  0  0
  -25.6958  -23.8150   13.0872 C   0  0  0  0  0  0  0  0  0  0  0  0
  -32.4412  -22.1837   17.1160 C   0  0  0  0  0  0  0  0  0  0  0  0
  -29.0848  -26.0910   19.4532 C   0  0  0  0  0  0  0  0  0  1  0  0
  -30.3472  -20.8449   17.3890 C   0  0  0  0  0  0  0  0  0  0  0  0
  -30.4559  -26.7967   19.4370 C   0  0  2  0  0  0  0  0  0  0  0  0
  -23.9218  -21.3661   17.0483 C   0  0  1  0  0  0  0  0  0  0  0  0
  -25.2772  -21.3888   13.5083 C   0  0  2  0  0  0  0  0  0  0  0  0
  -33.5524  -22.9694   17.8656 C   0  0  0  0  0  0  0  0  0  0  0  0
  -23.5305  -20.0303   17.7412 C   0  0  0  0  0  0  0  0  0  0  0  0
  -27.1865  -16.2197   21.1556 N   0  0  0  0  0  0  0  0  0  0  0  0
  -28.1824  -16.8435   21.8078 N   0  0  0  0  0  0  0  0  0  0  0  0
  -23.3113  -23.6067   17.9032 N   0  0  0  0  0  0  0  0  0  0  0  0
  -27.9961  -20.3184   20.2326 N   0  0  0  0  0  0  0  0  0  0  0  0
  -30.0296  -16.4650   23.2414 N   0  0  0  0  0  0  0  0  0  0  0  0
  -28.3484  -12.3239   22.5930 N   0  0  0  0  0  0  0  0  0  0  0  0
  -20.9654  -25.1252   20.2457 N   0  0  0  0  0  0  0  0  0  0  0  0
  -24.1236  -21.2552   15.6077 N   0  0  0  0  0  0  0  0  0  0  0  0
  -29.4823  -20.2647   18.3930 N   0  0  0  0  0  0  0  0  0  0  0  0
  -30.4534  -27.7371   18.2558 N   0  3  0  0  0  0  0  0  0  0  0  0
  -26.1112  -22.4140   12.8195 N   0  3  0  0  0  0  0  0  0  0  0  0
  -31.4630  -21.5740   18.0545 N   0  3  0  0  0  0  0  0  0  0  0  0
  -29.9861  -13.5224   23.6608 O   0  0  0  0  0  0  0  0  0  0  0  0
  -22.5347  -23.4068   20.3306 O   0  0  0  0  0  0  0  0  0  0  0  0
  -21.7366  -22.2626   16.8308 O   0  0  0  0  0  0  0  0  0  0  0  0
  -26.3128  -22.0197   15.5980 O   0  0  0  0  0  0  0  0  0  0  0  0
  -28.8686  -22.2672   19.3292 O   0  0  0  0  0  0  0  0  0  0  0  0
  -23.9199  -11.0182   19.4754 O   0  0  0  0  0  0  0  0  0  0  0  0
  -28.0761  -26.9756   19.9282 O   0  0  0  0  0  0  0  0  0  1  0  0
  -22.0742   -7.1877   22.9861 F   0  0  0  0  0  0  0  0  0  0  0  0
  -21.2133  -10.7160   19.9503 F   0  0  0  0  0  0  0  0  0  0  0  0
  -33.7732  -24.6548   20.1064 S   0  0  0  0  0  0  0  0  0  0  0  0
  1  2  1  0  0  0  0
  1  5  2  0  0  0  0
  2  6  2  0  0  0  0
  3  8  2  0  0  0  0
  3 17  1  0  0  0  0
  4  9  1  0  0  0  0
  4 17  2  0  0  0  0
  5 19  1  0  0  0  0
  6 21  1  0  0  0  0
  7 10  2  0  0  0  0
  7 20  1  0  0  0  0
  8 24  1  0  0  0  0
  9 24  2  0  0  0  0
 10 25  1  0  0  0  0
 11 12  2  0  0  0  0
 11 26  1  0  0  0  0
 12 27  1  0  0  0  0
 13 22  1  0  0  0  0
 13 25  2  0  0  0  0
 14 23  1  0  0  0  0
 14 30  2  0  0  0  0
 15 27  2  0  0  0  0
 15 28  1  0  0  0  0
 16 23  2  0  0  0  0
 16 86  1  0  0  0  0
 17 29  1  0  0  0  0
 18 29  1  0  0  0  0
 18 31  2  0  0  0  0
 18 32  1  0  0  0  0
 19 21  2  0  0  0  0
 19 37  1  0  0  0  0
 20 22  2  0  0  0  0
 20 38  1  0  0  0  0
 21 46  1  0  0  0  0
 22 39  1  0  0  0  0
 23 60  1  0  0  0  0
 24 82  1  0  0  0  0
 25 83  1  0  0  0  0
 26 28  2  0  0  0  0
 26 82  1  0  0  0  0
 27 84  1  0  0  0  0
 28 85  1  0  0  0  0
 29 65  2  0  0  0  0
 30 63  1  0  0  0  0
 30 86  1  0  0  0  0
 31 66  1  0  0  0  0
 31 69  1  0  0  0  0
 32 70  1  0  0  0  0
 32 77  2  0  0  0  0
 33 47  1  0  0  0  0
 33 71  1  0  0  0  0
 33 78  2  0  0  0  0
 34 61  1  0  0  0  0
 34 67  1  0  0  0  0
 34 79  2  0  0  0  0
 35 62  1  0  0  0  0
 35 72  1  0  0  0  0
 35 80  2  0  0  0  0
 36 68  1  0  0  0  0
 36 73  1  0  0  0  0
 36 81  2  0  0  0  0
 37 40  1  0  0  0  0
 38 47  1  0  0  0  0
 39 67  1  0  0  0  0
 40 42  1  0  0  0  0
 41 43  1  0  0  0  0
 41 44  1  0  0  0  0
 42 46  1  0  0  0  0
 43 48  1  0  0  0  0
 44 68  1  0  0  0  0
 45 48  1  0  0  0  0
 45 68  1  0  0  0  0
 46 71  1  0  0  0  0
 47 67  1  0  0  0  0
 48 66  1  0  0  0  0
 49 62  1  0  0  0  0
 50 63  1  0  0  0  0
 51 63  1  0  0  0  0
 52 64  1  0  0  0  0
 53 64  1  0  0  0  0
 54 64  1  0  0  0  0
 55 74  1  0  0  0  0
 56 75  1  0  0  0  0
 57 63  1  0  0  0  0
 57 76  1  0  0  0  0
 58 60  1  0  0  0  0
 58 83  1  0  0  0  0
 59 73  1  0  0  0  0
 59 76  1  0  0  0  0
 60 74  1  0  0  0  0
 61 64  1  0  0  0  0
 61 72  1  0  0  0  0
 62 75  1  0  0  0  0
 65 66  1  0  0  0  0
M  CHG  3  74   1  75   1  76   1
M  ISO  4  36 100  58 101  73 100  83 101
M  END
> <Batch ID>
0111

> <Smiles>
CNC(C)C(=O)NC(C(=O)N1Cc2cc([101O:1][101CH2:1]C(NC)c3csc(C(C)(C)CNC[100NH:0][100C:0](=O)N4CCCC(n5nc(-c6ccc(Oc7ccc(F)cc7F)cc6)c(C(N)=O)c5N)C4)c3)ccc2CC1C(=O)NC1CCCc2ccccc21)C(C)(C)C

> <Shape>
0.225

> <Color>
0.073

> <Negative vol penalty>
0.000

$$$$

  -OEChem-04052320013D

 80 88  0     1  0  0  0  0  0999 V2000
  -17.6151  -26.7493   22.2568 C   0  0  0  0  0  0  0  0  0  0  0  0
  -18.5289  -26.9491   21.2270 C   0  0  0  0  0  0  0  0  0  0  0  0
  -25.5712  -16.4213   21.7645 C   0  0  0  0  0  0  0  0  0  0  0  0
  -24.8301  -17.3765   19.6728 C   0  0  0  0  0  0  0  0  0  0  0  0
  -17.7804  -27.4121   23.4722 C   0  0  0  0  0  0  0  0  0  0  0  0
  -19.6081  -27.8127   21.4117 C   0  0  0  0  0  0  0  0  0  0  0  0
  -25.2440  -27.2107   19.0922 C   0  0  0  0  0  0  0  0  0  0  0  0
  -24.4744  -15.5595   21.7596 C   0  0  0  0  0  0  0  0  0  0  0  0
  -23.7333  -16.5147   19.6679 C   0  0  0  0  0  0  0  0  0  0  0  0
  -25.8670  -27.7790   17.9820 C   0  0  0  0  0  0  0  0  0  0  0  0
  -23.5806  -12.6738   20.2409 C   0  0  0  0  0  0  0  0  0  0  0  0
  -23.8075  -11.3340   20.5556 C   0  0  0  0  0  0  0  0  0  0  0  0
  -26.8284  -29.4782   19.3988 C   0  0  0  0  0  0  0  0  0  0  0  0
  -30.3808  -27.4431   17.8624 C   0  0  0  0  0  0  0  0  0  0  0  0
  -22.2929  -11.5176   22.4290 C   0  0  0  0  0  0  0  0  0  0  0  0
  -29.6545  -25.5542   16.7192 C   0  0  0  0  0  0  0  0  0  0  0  0
  -25.7490  -17.3298   20.7211 C   0  0  0  0  0  0  0  0  0  0  0  0
  -28.1518  -17.9837   20.1674 C   0  0  0  0  0  0  0  0  0  0  0  0
  -18.8675  -28.2768   23.6753 C   0  0  0  0  0  0  0  0  0  0  0  0
  -25.4000  -27.7793   20.3646 C   0  0  0  0  0  0  0  0  0  0  0  0
  -19.7873  -28.4887   22.6306 C   0  0  0  0  0  0  0  0  0  0  0  0
  -26.2084  -28.9138   20.5240 C   0  0  0  0  0  0  0  0  0  0  0  0
  -30.3234  -26.0198   17.8297 C   0  0  0  0  0  0  0  0  0  0  0  0
  -23.5554  -15.6062   20.7113 C   0  0  0  0  0  0  0  0  0  0  0  0
  -26.6570  -28.9146   18.1347 C   0  0  0  0  0  0  0  0  0  0  0  0
  -22.7099  -13.4355   21.0203 C   0  0  0  0  0  0  0  0  0  0  0  0
  -23.1636  -10.7559   21.6496 C   0  0  0  0  0  0  0  0  0  0  0  0
  -22.0661  -12.8574   22.1143 C   0  0  0  0  0  0  0  0  0  0  0  0
  -26.8815  -18.2206   20.7259 C   0  0  0  0  0  0  0  0  0  0  0  0
  -29.7535  -28.0112   16.7753 C   0  0  0  0  0  0  0  0  0  0  0  0
  -28.8638  -19.1270   20.4364 C   0  0  0  0  0  0  0  0  0  0  0  0
  -28.6442  -16.8330   19.4680 C   0  0  0  0  0  0  0  0  0  0  0  0
  -23.4330  -29.0757   22.4986 C   0  0  0  0  0  0  0  0  0  0  0  0
  -26.1024  -29.1420   24.3404 C   0  0  0  0  0  0  0  0  0  0  0  0
  -29.5111  -29.1818   24.5011 C   0  0  0  0  0  0  0  0  0  0  0  0
  -29.2387  -24.6914   20.6426 C   0  0  0  0  0  0  0  0  0  0  0  0
  -18.9782  -29.0075   24.9900 C   0  0  0  0  0  0  0  0  0  0  0  0
  -24.7429  -27.1386   21.5563 C   0  0  0  0  0  0  0  0  0  0  0  0
  -26.4243  -29.5507   21.8716 C   0  0  0  0  0  0  0  0  0  0  0  0
  -20.3563  -29.6169   25.2341 C   0  0  0  0  0  0  0  0  0  0  0  0
  -27.7836  -23.0470   23.4452 C   0  0  0  0  0  0  0  0  0  0  0  0
  -20.8412  -30.3556   23.9907 C   0  0  0  0  0  0  0  0  0  0  0  0
  -27.5184  -21.6278   22.9396 C   0  0  0  0  0  0  0  0  0  0  0  0
  -27.5510  -24.0881   22.3525 C   0  0  0  0  0  0  0  0  0  0  0  0
  -28.0261  -22.4279   20.5942 C   0  0  0  0  0  0  0  0  0  0  0  0
  -20.9845  -29.3985   22.8012 C   0  0  1  0  0  0  0  0  0  0  0  0
  -24.5546  -28.1017   22.7244 C   0  0  1  0  0  0  0  0  0  0  0  0
  -28.3014  -21.3385   21.6448 C   0  0  2  0  0  0  0  0  0  0  0  0
  -31.7939  -29.1261   25.5419 C   0  0  0  0  0  0  0  0  0  0  0  0
  -28.3330  -31.6090   16.8858 C   0  0  0  0  0  0  0  0  0  0  0  0
  -25.5843  -32.1188   24.7647 C   0  0  0  0  0  0  0  0  0  0  0  0
  -27.9410  -32.3417   25.5797 C   0  0  0  0  0  0  0  0  0  0  0  0
  -26.3300  -30.8878   26.8099 C   0  0  0  0  0  0  0  0  0  0  0  0
  -29.6076  -26.2253   24.4100 C   0  0  0  0  0  0  0  0  0  0  0  0
  -30.9142  -25.1449   18.8688 C   0  0  0  0  0  0  0  0  0  0  0  0
  -29.5952  -29.4756   16.4404 C   0  0  0  0  0  0  0  0  0  0  0  0
  -27.2201  -30.1310   24.5678 C   0  0  1  0  0  0  0  0  0  0  0  0
  -30.4899  -28.3722   25.3324 C   0  0  2  0  0  0  0  0  0  0  0  0
  -28.5023  -30.1469   17.2790 C   0  0  2  0  0  0  0  0  0  1  0  0
  -26.7634  -31.3592   25.4047 C   0  0  0  0  0  0  0  0  0  0  0  0
  -26.7888  -19.4202   21.3060 N   0  0  0  0  0  0  0  0  0  0  0  0
  -28.0100  -19.9472   21.1135 N   0  0  0  0  0  0  0  0  0  0  0  0
  -25.7556  -28.8910   23.0053 N   0  0  0  0  0  0  0  0  0  0  0  0
  -28.3231  -23.7563   21.1526 N   0  0  0  0  0  0  0  0  0  0  0  0
  -30.1307  -19.5007   20.1574 N   0  0  0  0  0  0  0  0  0  0  0  0
  -27.7801  -15.7459   19.2786 N   0  0  0  0  0  0  0  0  0  0  0  0
  -22.1989  -28.6205   22.9219 N   0  0  0  0  0  0  0  0  0  0  0  0
  -28.3176  -29.3768   25.1635 N   0  0  0  0  0  0  0  0  0  0  0  0
  -29.9337  -24.2948   19.5066 N   0  0  0  0  0  0  0  0  0  0  0  0
  -30.7975  -27.0797   24.6574 N   0  3  0  0  0  0  0  0  0  0  0  0
  -29.8208  -16.7641   19.0386 O   0  0  0  0  0  0  0  0  0  0  0  0
  -23.6700  -30.1604   21.9802 O   0  0  0  0  0  0  0  0  0  0  0  0
  -25.5620  -28.6063   25.3113 O   0  0  0  0  0  0  0  0  0  0  0  0
  -29.7800  -29.6026   23.3781 O   0  0  0  0  0  0  0  0  0  0  0  0
  -29.4271  -25.7957   21.1642 O   0  0  0  0  0  0  0  0  0  0  0  0
  -22.4852  -14.7654   20.7060 O   0  0  0  0  0  0  0  0  0  0  0  0
  -27.2657  -29.4717   17.0525 O   0  0  0  0  0  0  0  0  0  1  0  0
  -23.3803   -9.4688   21.9508 F   0  0  0  0  0  0  0  0  0  0  0  0
  -21.2276  -13.5839   22.8660 F   0  0  0  0  0  0  0  0  0  0  0  0
  -29.0991  -26.8306   15.7217 S   0  0  0  0  0  0  0  0  0  0  0  0
  1  2  1  0  0  0  0
  1  5  2  0  0  0  0
  2  6  2  0  0  0  0
  3  8  2  0  0  0  0
  3 17  1  0  0  0  0
  4  9  1  0  0  0  0
  4 17  2  0  0  0  0
  5 19  1  0  0  0  0
  6 21  1  0  0  0  0
  7 10  2  0  0  0  0
  7 20  1  0  0  0  0
  8 24  1  0  0  0  0
  9 24  2  0  0  0  0
 10 25  1  0  0  0  0
 11 12  2  0  0  0  0
 11 26  1  0  0  0  0
 12 27  1  0  0  0  0
 13 22  1  0  0  0  0
 13 25  2  0  0  0  0
 14 23  1  0  0  0  0
 14 30  2  0  0  0  0
 15 27  2  0  0  0  0
 15 28  1  0  0  0  0
 16 23  2  0  0  0  0
 16 80  1  0  0  0  0
 17 29  1  0  0  0  0
 18 29  1  0  0  0  0
 18 31  2  0  0  0  0
 18 32  1  0  0  0  0
 19 21  2  0  0  0  0
 19 37  1  0  0  0  0
 20 22  2  0  0  0  0
 20 38  1  0  0  0  0
 21 46  1  0  0  0  0
 22 39  1  0  0  0  0
 23 55  1  0  0  0  0
 24 76  1  0  0  0  0
 25 77  1  0  0  0  0
 26 28  2  0  0  0  0
 26 76  1  0  0  0  0
 27 78  1  0  0  0  0
 28 79  1  0  0  0  0
 29 61  2  0  0  0  0
 30 56  1  0  0  0  0
 30 80  1  0  0  0  0
 31 62  1  0  0  0  0
 31 65  1  0  0  0  0
 32 66  1  0  0  0  0
 32 71  2  0  0  0  0
 33 47  1  0  0  0  0
 33 67  1  0  0  0  0
 33 72  2  0  0  0  0
 34 57  1  0  0  0  0
 34 63  1  0  0  0  0
 34 73  2  0  0  0  0
 35 58  1  0  0  0  0
 35 68  1  0  0  0  0
 35 74  2  0  0  0  0
 36 64  1  0  0  0  0
 36 69  1  0  0  0  0
 36 75  2  0  0  0  0
 37 40  1  0  0  0  0
 38 47  1  0  0  0  0
 39 63  1  0  0  0  0
 40 42  1  0  0  0  0
 41 43  1  0  0  0  0
 41 44  1  0  0  0  0
 42 46  1  0  0  0  0
 43 48  1  0  0  0  0
 44 64  1  0  0  0  0
 45 48  1  0  0  0  0
 45 64  1  0  0  0  0
 46 67  1  0  0  0  0
 47 63  1  0  0  0  0
 48 62  1  0  0  0  0
 49 58  1  0  0  0  0
 50 59  1  0  0  0  0
 51 60  1  0  0  0  0
 52 60  1  0  0  0  0
 53 60  1  0  0  0  0
 54 70  1  0  0  0  0
 55 69  1  0  0  0  0
 56 59  1  0  0  0  0
 57 60  1  0  0  0  0
 57 68  1  0  0  0  0
 58 70  1  0  0  0  0
 59 77  1  0  0  0  0
 61 62  1  0  0  0  0
M  CHG  1  70   1
M  ISO  4  36 100  59 101  69 100  77 101
M  END
> <Batch ID>
0111

> <Smiles>
CNC(C)C(=O)NC(C(=O)N1Cc2cc([101O:1][101CH:1](C)Cc3cc(C[100NH:0][100C:0](=O)N4CCCC(n5nc(-c6ccc(Oc7ccc(F)cc7F)cc6)c(C(N)=O)c5N)C4)cs3)ccc2CC1C(=O)NC1CCCc2ccccc21)C(C)(C)C

> <Shape>
0.278

> <Color>
0.075

> <Negative vol penalty>
0.000

$$$$

  -OEChem-04052320013D

 86 94  0     1  0  0  0  0  0999 V2000
  -28.9875  -22.5250   20.0035 C   0  0  0  0  0  0  0  0  0  0  0  0
  -27.7093  -22.9900   19.7110 C   0  0  0  0  0  0  0  0  0  0  0  0
  -24.5050  -14.4741   23.0995 C   0  0  0  0  0  0  0  0  0  0  0  0
  -25.0977  -15.8206   21.1831 C   0  0  0  0  0  0  0  0  0  0  0  0
  -29.6716  -23.0209   21.1126 C   0  0  0  0  0  0  0  0  0  0  0  0
  -27.1141  -23.9504   20.5281 C   0  0  0  0  0  0  0  0  0  0  0  0
  -23.3479  -28.4510   18.7771 C   0  0  0  0  0  0  0  0  0  0  0  0
  -25.1133  -13.3663   22.5093 C   0  0  0  0  0  0  0  0  0  0  0  0
  -25.7060  -14.7128   20.5928 C   0  0  0  0  0  0  0  0  0  0  0  0
  -21.9591  -28.5723   18.7953 C   0  0  0  0  0  0  0  0  0  0  0  0
  -27.7304  -12.3277   18.7405 C   0  0  0  0  0  0  0  0  0  0  0  0
  -28.9829  -12.5101   18.1545 C   0  0  0  0  0  0  0  0  0  0  0  0
  -22.0954  -29.7501   20.8960 C   0  0  0  0  0  0  0  0  0  0  0  0
  -29.8779  -13.2117   20.2862 C   0  0  0  0  0  0  0  0  0  0  0  0
  -19.0576  -24.8254   23.1704 C   0  0  0  0  0  0  0  0  0  0  0  0
  -24.4972  -15.7013   22.4364 C   0  0  0  0  0  0  0  0  0  0  0  0
  -24.4689  -17.7930   23.8963 C   0  0  0  0  0  0  0  0  0  0  0  0
  -29.0882  -23.9949   21.9382 C   0  0  0  0  0  0  0  0  0  0  0  0
  -24.1214  -28.9697   19.8255 C   0  0  0  0  0  0  0  0  0  0  0  0
  -27.7905  -24.4588   21.6501 C   0  0  0  0  0  0  0  0  0  0  0  0
  -23.4940  -29.6364   20.8876 C   0  0  0  0  0  0  0  0  0  0  0  0
  -21.3027  -24.9120   23.3175 C   0  0  0  0  0  0  0  0  0  0  0  0
  -20.1957  -24.0517   23.1136 C   0  0  0  0  0  0  0  0  0  0  0  0
  -25.7137  -13.4856   21.2559 C   0  0  0  0  0  0  0  0  0  0  0  0
  -21.3324  -29.2193   19.8562 C   0  0  0  0  0  0  0  0  0  0  0  0
  -27.5515  -12.5873   20.0993 C   0  0  0  0  0  0  0  0  0  0  0  0
  -30.0567  -12.9521   18.9273 C   0  0  0  0  0  0  0  0  0  0  0  0
  -28.6253  -13.0293   20.8721 C   0  0  0  0  0  0  0  0  0  0  0  0
  -23.8685  -16.8458   23.0453 C   0  0  0  0  0  0  0  0  0  0  0  0
  -20.8073  -26.1853   23.4929 C   0  0  0  0  0  0  0  0  0  0  0  0
  -23.4578  -18.6716   24.1998 C   0  0  0  0  0  0  0  0  0  0  0  0
  -25.8199  -17.8717   24.3699 C   0  0  0  0  0  0  0  0  0  0  0  0
  -26.0990  -27.7271   21.9816 C   0  0  0  0  0  0  0  0  0  0  0  0
  -26.6282  -30.8414   22.7186 C   0  0  0  0  0  0  0  0  0  0  0  0
  -25.4918  -34.0593   22.6889 C   0  0  0  0  0  0  0  0  0  0  0  0
  -19.1183  -21.8150   22.6863 C   0  0  0  0  0  0  0  0  0  0  0  0
  -29.8477  -24.4663   23.1530 C   0  0  0  0  0  0  0  0  0  0  0  0
  -25.6203  -28.8542   19.7778 C   0  0  0  0  0  0  0  0  0  0  0  0
  -24.2805  -30.2286   22.0274 C   0  0  0  0  0  0  0  0  0  0  0  0
  -29.2957  -25.7566   23.7536 C   0  0  0  0  0  0  0  0  0  0  0  0
  -18.4753  -18.3779   23.3570 C   0  0  0  0  0  0  0  0  0  0  0  0
  -27.7769  -25.6820   23.8748 C   0  0  0  0  0  0  0  0  0  0  0  0
  -19.8705  -17.7508   23.4057 C   0  0  0  0  0  0  0  0  0  0  0  0
  -18.3827  -19.4736   22.2966 C   0  0  0  0  0  0  0  0  0  0  0  0
  -20.8066  -19.8903   22.4396 C   0  0  0  0  0  0  0  0  0  0  0  0
  -27.1211  -25.5182   22.4984 C   0  0  1  0  0  0  0  0  0  0  0  0
  -26.2724  -28.9680   21.1523 C   0  0  1  0  0  0  0  0  0  0  0  0
  -20.9672  -18.8258   23.5371 C   0  0  2  0  0  0  0  0  0  0  0  0
  -21.5160  -27.4590   23.7388 C   0  0  0  0  0  0  0  0  0  0  0  0
  -23.3853  -24.5330   21.9508 C   0  0  0  0  0  0  0  0  0  0  0  0
  -26.1305  -36.3805   23.3968 C   0  0  0  0  0  0  0  0  0  0  0  0
  -16.8522  -27.4825   18.9633 C   0  0  0  0  0  0  0  0  0  0  0  0
  -25.9583  -30.1407   25.6118 C   0  0  0  0  0  0  0  0  0  0  0  0
  -25.6810  -32.5870   26.0668 C   0  0  0  0  0  0  0  0  0  0  0  0
  -27.8951  -31.6991   25.3374 C   0  0  0  0  0  0  0  0  0  0  0  0
  -25.4291  -35.0517   19.9014 C   0  0  0  0  0  0  0  0  0  0  0  0
  -18.5212  -27.2456   23.5290 C   0  0  0  0  0  0  0  0  0  0  0  0
  -18.4716  -28.1379   22.2958 C   0  0  0  0  0  0  0  0  0  0  0  0
  -19.2246  -28.3078   19.2380 C   0  0  0  0  0  0  0  0  0  1  0  0
  -22.7277  -24.5201   23.3376 C   0  0  2  0  0  0  0  0  0  0  0  0
  -26.0033  -31.8370   23.6658 C   0  0  1  0  0  0  0  0  0  0  0  0
  -26.1566  -35.3585   22.2710 C   0  0  2  0  0  0  0  0  0  0  0  0
  -17.8469  -28.1789   19.8778 C   0  0  2  0  0  0  0  0  0  0  0  0
  -26.3692  -31.5532   25.1501 C   0  0  0  0  0  0  0  0  0  0  0  0
  -22.5760  -17.0988   22.8227 N   0  0  0  0  0  0  0  0  0  0  0  0
  -19.4414  -26.1206   23.4017 N   0  0  0  0  0  0  0  0  0  0  0  0
  -22.3560  -18.2148   23.5383 N   0  0  0  0  0  0  0  0  0  0  0  0
  -25.7429  -30.0843   21.9384 N   0  0  0  0  0  0  0  0  0  0  0  0
  -19.4501  -20.4582   22.4865 N   0  0  0  0  0  0  0  0  0  0  0  0
  -23.4125  -19.7825   24.9655 N   0  0  0  0  0  0  0  0  0  0  0  0
  -26.7298  -16.8874   23.9606 N   0  0  0  0  0  0  0  0  0  0  0  0
  -20.2145  -22.6529   22.8882 N   0  0  0  0  0  0  0  0  0  0  0  0
  -27.0926  -26.7845   21.7982 N   0  0  0  0  0  0  0  0  0  0  0  0
  -26.4049  -33.1576   23.1934 N   0  0  0  0  0  0  0  0  0  0  0  0
  -25.4582  -35.9414   21.0907 N   0  3  0  0  0  0  0  0  0  0  0  0
  -17.9776  -27.3703   21.1244 N   0  3  0  0  0  0  0  0  0  0  0  0
  -26.2046  -18.7785   25.1466 O   0  0  0  0  0  0  0  0  0  0  0  0
  -25.1359  -27.6325   22.7334 O   0  0  0  0  0  0  0  0  0  0  0  0
  -27.8569  -30.7443   22.6676 O   0  0  0  0  0  0  0  0  0  0  0  0
  -24.2829  -33.8652   22.5821 O   0  0  0  0  0  0  0  0  0  0  0  0
  -17.9465  -22.2004   22.7061 O   0  0  0  0  0  0  0  0  0  0  0  0
  -22.8538  -23.1908   23.8677 O   0  0  0  0  0  0  0  0  0  0  0  0
  -26.3076  -12.4049   20.6798 O   0  0  0  0  0  0  0  0  0  0  0  0
  -19.9770  -29.3385   19.8767 O   0  0  0  0  0  0  0  0  0  1  0  0
  -31.2599  -13.1258   18.3648 F   0  0  0  0  0  0  0  0  0  0  0  0
  -28.4600  -13.2792   22.1783 F   0  0  0  0  0  0  0  0  0  0  0  0
  1  2  1  0  0  0  0
  1  5  2  0  0  0  0
  2  6  2  0  0  0  0
  3  8  2  0  0  0  0
  3 16  1  0  0  0  0
  4  9  1  0  0  0  0
  4 16  2  0  0  0  0
  5 18  1  0  0  0  0
  6 20  1  0  0  0  0
  7 10  2  0  0  0  0
  7 19  1  0  0  0  0
  8 24  1  0  0  0  0
  9 24  2  0  0  0  0
 10 25  1  0  0  0  0
 11 12  2  0  0  0  0
 11 26  1  0  0  0  0
 12 27  1  0  0  0  0
 13 21  1  0  0  0  0
 13 25  2  0  0  0  0
 14 27  2  0  0  0  0
 14 28  1  0  0  0  0
 15 23  2  0  0  0  0
 15 66  1  0  0  0  0
 16 29  1  0  0  0  0
 17 29  1  0  0  0  0
 17 31  2  0  0  0  0
 17 32  1  0  0  0  0
 18 20  2  0  0  0  0
 18 37  1  0  0  0  0
 19 21  2  0  0  0  0
 19 38  1  0  0  0  0
 20 46  1  0  0  0  0
 21 39  1  0  0  0  0
 22 23  1  0  0  0  0
 22 30  2  0  0  0  0
 22 60  1  0  0  0  0
 23 72  1  0  0  0  0
 24 83  1  0  0  0  0
 25 84  1  0  0  0  0
 26 28  2  0  0  0  0
 26 83  1  0  0  0  0
 27 85  1  0  0  0  0
 28 86  1  0  0  0  0
 29 65  2  0  0  0  0
 30 49  1  0  0  0  0
 30 66  1  0  0  0  0
 31 67  1  0  0  0  0
 31 70  1  0  0  0  0
 32 71  1  0  0  0  0
 32 77  2  0  0  0  0
 33 47  1  0  0  0  0
 33 73  1  0  0  0  0
 33 78  2  0  0  0  0
 34 61  1  0  0  0  0
 34 68  1  0  0  0  0
 34 79  2  0  0  0  0
 35 62  1  0  0  0  0
 35 74  1  0  0  0  0
 35 80  2  0  0  0  0
 36 69  1  0  0  0  0
 36 72  1  0  0  0  0
 36 81  2  0  0  0  0
 37 40  1  0  0  0  0
 38 47  1  0  0  0  0
 39 68  1  0  0  0  0
 40 42  1  0  0  0  0
 41 43  1  0  0  0  0
 41 44  1  0  0  0  0
 42 46  1  0  0  0  0
 43 48  1  0  0  0  0
 44 69  1  0  0  0  0
 45 48  1  0  0  0  0
 45 69  1  0  0  0  0
 46 73  1  0  0  0  0
 47 68  1  0  0  0  0
 48 67  1  0  0  0  0
 50 60  1  0  0  0  0
 51 62  1  0  0  0  0
 52 63  1  0  0  0  0
 53 64  1  0  0  0  0
 54 64  1  0  0  0  0
 55 64  1  0  0  0  0
 56 75  1  0  0  0  0
 57 58  1  0  0  0  0
 57 66  1  0  0  0  0
 58 76  1  0  0  0  0
 59 63  1  0  0  0  0
 59 84  1  0  0  0  0
 60 82  1  0  0  0  0
 61 64  1  0  0  0  0
 61 74  1  0  0  0  0
 62 75  1  0  0  0  0
 63 76  1  0  0  0  0
 65 67  1  0  0  0  0
M  CHG  2  75   1  76   1
M  ISO  4  36 100  59 101  72 100  84 101
M  END
> <Batch ID>
0111

> <Smiles>
CNC(C)C(=O)NC(C(=O)N1Cc2cc([101O:1][101CH2:1]C(C)NCCn3cc([100NH:0][100C:0](=O)N4CCCC(n5nc(-c6ccc(Oc7ccc(F)cc7F)cc6)c(C(N)=O)c5N)C4)c(C(C)O)c3C)ccc2CC1C(=O)NC1CCCc2ccccc21)C(C)(C)C

> <Shape>
0.240

> <Color>
0.058

> <Negative vol penalty>
0.000

$$$$

  -OEChem-04052320013D

 88 96  0     1  0  0  0  0  0999 V2000
  -22.2750  -36.0005   16.0199 C   0  0  0  0  0  0  0  0  0  0  0  0
  -23.3656  -35.7412   16.8438 C   0  0  0  0  0  0  0  0  0  0  0  0
  -26.2303  -13.8391   22.0758 C   0  0  0  0  0  0  0  0  0  0  0  0
  -25.7719  -13.1649   19.8016 C   0  0  0  0  0  0  0  0  0  0  0  0
  -21.0108  -35.5278   16.3693 C   0  0  0  0  0  0  0  0  0  0  0  0
  -23.1923  -35.0098   18.0184 C   0  0  0  0  0  0  0  0  0  0  0  0
  -26.8050  -28.8787   19.1361 C   0  0  0  0  0  0  0  0  0  0  0  0
  -25.8965  -12.5605   22.5222 C   0  0  0  0  0  0  0  0  0  0  0  0
  -25.4381  -11.8862   20.2479 C   0  0  0  0  0  0  0  0  0  0  0  0
  -27.6155  -27.8086   19.5155 C   0  0  0  0  0  0  0  0  0  0  0  0
  -22.7923  -10.3683   21.7062 C   0  0  0  0  0  0  0  0  0  0  0  0
  -21.6389   -9.7809   21.1863 C   0  0  0  0  0  0  0  0  0  0  0  0
  -26.3857  -27.5978   21.5870 C   0  0  0  0  0  0  0  0  0  0  0  0
  -27.8699  -23.1971   19.4231 C   0  0  0  0  0  0  0  0  0  0  0  0
  -27.7288  -21.3715   21.5279 C   0  0  0  0  0  0  0  0  0  0  0  0
  -22.9623   -7.9613   20.3061 C   0  0  0  0  0  0  0  0  0  0  0  0
  -26.1680  -14.1413   20.7155 C   0  0  0  0  0  0  0  0  0  0  0  0
  -27.7838  -15.9209   19.8613 C   0  0  0  0  0  0  0  0  0  0  0  0
  -20.8236  -34.7819   17.5438 C   0  0  0  0  0  0  0  0  0  0  0  0
  -25.7706  -29.3030   19.9748 C   0  0  0  0  0  0  0  0  0  0  0  0
  -21.9241  -34.5278   18.3845 C   0  0  0  0  0  0  0  0  0  0  0  0
  -25.5626  -28.6611   21.2067 C   0  0  0  0  0  0  0  0  0  0  0  0
  -28.9722  -22.3993   19.7294 C   0  0  0  0  0  0  0  0  0  0  0  0
  -26.6969  -23.0822   20.1693 C   0  0  0  0  0  0  0  0  0  0  0  0
  -28.9017  -21.4865   20.7817 C   0  0  0  0  0  0  0  0  0  0  0  0
  -26.6264  -22.1694   21.2217 C   0  0  0  0  0  0  0  0  0  0  0  0
  -25.5004  -11.5840   21.6083 C   0  0  0  0  0  0  0  0  0  0  0  0
  -27.4066  -27.1699   20.7381 C   0  0  0  0  0  0  0  0  0  0  0  0
  -24.0307   -9.7522   21.5260 C   0  0  0  0  0  0  0  0  0  0  0  0
  -21.7239   -8.5774   20.4863 C   0  0  0  0  0  0  0  0  0  0  0  0
  -24.1157   -8.5487   20.8260 C   0  0  0  0  0  0  0  0  0  0  0  0
  -26.5121  -15.4621   20.2538 C   0  0  0  0  0  0  0  0  0  0  0  0
  -27.5824  -17.2338   19.5118 C   0  0  0  0  0  0  0  0  0  0  0  0
  -29.0353  -15.2227   19.8165 C   0  0  0  0  0  0  0  0  0  0  0  0
  -22.9211  -31.6819   20.5199 C   0  0  0  0  0  0  0  0  0  0  0  0
  -21.9940  -28.9357   21.5247 C   0  0  0  0  0  0  0  0  0  0  0  0
  -30.8247  -24.7470   19.9991 C   0  0  0  0  0  0  0  0  0  0  0  0
  -21.2131  -25.6704   22.1289 C   0  0  0  0  0  0  0  0  0  0  0  0
  -24.1806  -21.6648   21.4551 C   0  0  0  0  0  0  0  0  0  0  0  0
  -19.4298  -34.3323   17.9039 C   0  0  0  0  0  0  0  0  0  0  0  0
  -24.9121  -30.4908   19.6344 C   0  0  0  0  0  0  0  0  0  0  0  0
  -24.4601  -29.1739   22.0922 C   0  0  0  0  0  0  0  0  0  0  0  0
  -19.3981  -33.2449   18.9747 C   0  0  0  0  0  0  0  0  0  0  0  0
  -23.6878  -19.9671   18.2043 C   0  0  0  0  0  0  0  0  0  0  0  0
  -20.3271  -33.6057   20.1295 C   0  0  0  0  0  0  0  0  0  0  0  0
  -24.4149  -18.6383   18.4019 C   0  0  0  0  0  0  0  0  0  0  0  0
  -23.1488  -20.5189   19.5206 C   0  0  0  0  0  0  0  0  0  0  0  0
  -24.9228  -19.3300   20.7778 C   0  0  0  0  0  0  0  0  0  0  0  0
  -21.7808  -33.7168   19.6541 C   0  0  1  0  0  0  0  0  0  0  0  0
  -23.4569  -30.3406   20.1131 C   0  0  1  0  0  0  0  0  0  0  0  0
  -25.5103  -18.7733   19.4724 C   0  0  1  0  0  0  0  0  0  0  0  0
  -25.5315  -23.9494   19.8190 C   0  0  0  0  0  0  0  0  0  0  0  0
  -30.0693  -20.6220   21.1281 C   0  0  0  0  0  0  0  0  0  0  0  0
  -19.3419  -24.2110   22.9452 C   0  0  0  0  0  0  0  0  0  0  0  0
  -28.5309  -25.2002   23.3034 C   0  0  0  0  0  0  0  0  0  0  0  0
  -22.5621  -29.8160   24.3894 C   0  0  0  0  0  0  0  0  0  0  0  0
  -21.4191  -27.7338   25.1807 C   0  0  0  0  0  0  0  0  0  0  0  0
  -20.1446  -29.4348   23.8748 C   0  0  0  0  0  0  0  0  0  0  0  0
  -25.4337  -22.5539   23.3711 C   0  0  0  0  0  0  0  0  0  0  0  0
  -21.0852  -24.2005   19.5634 C   0  0  0  0  0  0  0  0  0  0  0  0
  -30.2285  -22.5414   18.9096 C   0  0  0  0  0  0  0  0  0  0  0  0
  -31.2962  -23.3473   19.6471 C   0  0  0  0  0  0  0  0  0  0  0  0
  -30.4420  -26.2177   21.9613 C   0  0  0  0  0  0  0  0  0  0  0  0
  -21.8589  -27.9973   22.6971 C   0  0  1  0  0  0  0  0  0  0  0  0
  -20.0131  -24.8309   21.7294 C   0  0  2  0  0  0  0  0  0  0  0  0
  -28.9544  -26.2670   22.3022 C   0  0  1  0  0  0  0  0  0  1  0  0
  -21.5183  -28.7440   24.0177 C   0  0  0  0  0  0  0  0  0  0  0  0
  -25.5724  -16.4069   20.1627 N   0  0  0  0  0  0  0  0  0  0  0  0
  -26.2541  -17.4724   19.7089 N   0  0  0  0  0  0  0  0  0  0  0  0
  -23.2656  -29.4711   21.2863 N   0  0  0  0  0  0  0  0  0  0  0  0
  -24.1892  -20.5854   20.5480 N   0  0  0  0  0  0  0  0  0  0  0  0
  -28.4137  -18.1960   19.0583 N   0  0  0  0  0  0  0  0  0  0  0  0
  -29.0646  -13.8779   20.2101 N   0  0  0  0  0  0  0  0  0  0  0  0
  -22.3584  -32.4010   19.4827 N   0  0  0  0  0  0  0  0  0  0  0  0
  -30.8447  -24.9687   21.3712 N   0  0  0  0  0  0  0  0  0  0  0  0
  -20.8735  -26.9950   22.3062 N   0  0  0  0  0  0  0  0  0  0  0  0
  -25.4226  -22.0354   22.0050 N   0  0  0  0  0  0  0  0  0  0  0  0
  -20.4311  -23.7329   20.8126 N   0  3  0  0  0  0  0  0  0  0  0  0
  -30.0993  -15.7797   19.4543 O   0  0  0  0  0  0  0  0  0  0  0  0
  -23.0095  -32.0386   21.6889 O   0  0  0  0  0  0  0  0  0  0  0  0
  -20.9995  -29.1933   20.8406 O   0  0  0  0  0  0  0  0  0  0  0  0
  -30.4706  -25.5703   19.1593 O   0  0  0  0  0  0  0  0  0  0  0  0
  -22.3384  -25.1977   22.2731 O   0  0  0  0  0  0  0  0  0  0  0  0
  -23.1314  -22.2250   21.7956 O   0  0  0  0  0  0  0  0  0  0  0  0
  -25.1748  -10.3361   22.0434 O   0  0  0  0  0  0  0  0  0  0  0  0
  -28.1987  -26.1230   21.1003 O   0  0  0  0  0  0  0  0  0  1  0  0
  -20.6160   -8.0127   19.9884 F   0  0  0  0  0  0  0  0  0  0  0  0
  -25.3025   -7.9515   20.6507 F   0  0  0  0  0  0  0  0  0  0  0  0
  1  2  1  0  0  0  0
  1  5  2  0  0  0  0
  2  6  2  0  0  0  0
  3  8  2  0  0  0  0
  3 17  1  0  0  0  0
  4  9  1  0  0  0  0
  4 17  2  0  0  0  0
  5 19  1  0  0  0  0
  6 21  1  0  0  0  0
  7 10  2  0  0  0  0
  7 20  1  0  0  0  0
  8 27  1  0  0  0  0
  9 27  2  0  0  0  0
 10 28  1  0  0  0  0
 11 12  2  0  0  0  0
 11 29  1  0  0  0  0
 12 30  1  0  0  0  0
 13 22  1  0  0  0  0
 13 28  2  0  0  0  0
 14 23  1  0  0  0  0
 14 24  2  0  0  0  0
 15 25  1  0  0  0  0
 15 26  2  0  0  0  0
 16 30  2  0  0  0  0
 16 31  1  0  0  0  0
 17 32  1  0  0  0  0
 18 32  1  0  0  0  0
 18 33  2  0  0  0  0
 18 34  1  0  0  0  0
 19 21  2  0  0  0  0
 19 40  1  0  0  0  0
 20 22  2  0  0  0  0
 20 41  1  0  0  0  0
 21 49  1  0  0  0  0
 22 42  1  0  0  0  0
 23 25  2  0  0  0  0
 23 61  1  0  0  0  0
 24 26  1  0  0  0  0
 24 52  1  0  0  0  0
 25 53  1  0  0  0  0
 26 77  1  0  0  0  0
 27 85  1  0  0  0  0
 28 86  1  0  0  0  0
 29 31  2  0  0  0  0
 29 85  1  0  0  0  0
 30 87  1  0  0  0  0
 31 88  1  0  0  0  0
 32 68  2  0  0  0  0
 33 69  1  0  0  0  0
 33 72  1  0  0  0  0
 34 73  1  0  0  0  0
 34 79  2  0  0  0  0
 35 50  1  0  0  0  0
 35 74  1  0  0  0  0
 35 80  2  0  0  0  0
 36 64  1  0  0  0  0
 36 70  1  0  0  0  0
 36 81  2  0  0  0  0
 37 62  1  0  0  0  0
 37 75  1  0  0  0  0
 37 82  2  0  0  0  0
 38 65  1  0  0  0  0
 38 76  1  0  0  0  0
 38 83  2  0  0  0  0
 39 71  1  0  0  0  0
 39 77  1  0  0  0  0
 39 84  2  0  0  0  0
 40 43  1  0  0  0  0
 41 50  1  0  0  0  0
 42 70  1  0  0  0  0
 43 45  1  0  0  0  0
 44 46  1  0  0  0  0
 44 47  1  0  0  0  0
 45 49  1  0  0  0  0
 46 51  1  0  0  0  0
 47 71  1  0  0  0  0
 48 51  1  0  0  0  0
 48 71  1  0  0  0  0
 49 74  1  0  0  0  0
 50 70  1  0  0  0  0
 51 69  1  0  0  0  0
 54 65  1  0  0  0  0
 55 66  1  0  0  0  0
 56 67  1  0  0  0  0
 57 67  1  0  0  0  0
 58 67  1  0  0  0  0
 59 77  1  0  0  0  0
 60 78  1  0  0  0  0
 61 62  1  0  0  0  0
 63 66  1  0  0  0  0
 63 75  1  0  0  0  0
 64 67  1  0  0  0  0
 64 76  1  0  0  0  0
 65 78  1  0  0  0  0
 66 86  1  0  0  0  0
 68 69  1  0  0  0  0
M  CHG  1  78   1
M  ISO  4  39 100  66 101  77 100  86 101
M  END
> <Batch ID>
0111

> <Smiles>
CNC(C)C(=O)NC(C(=O)N1Cc2cc([101O:1][101CH:1](C)CNC(=O)CCc3cc(C)c([100N:0](C)[100C:0](=O)N4CCCC(n5nc(-c6ccc(Oc7ccc(F)cc7F)cc6)c(C(N)=O)c5N)C4)cc3C)ccc2CC1C(=O)NC1CCCc2ccccc21)C(C)(C)C

> <Shape>
0.235

> <Color>
0.080

> <Negative vol penalty>
0.000

$$$$

  -OEChem-04052320013D

 82 90  0     1  0  0  0  0  0999 V2000
  -31.0441  -29.8463   15.1633 C   0  0  0  0  0  0  0  0  0  0  0  0
  -30.7920  -28.8290   16.0782 C   0  0  0  0  0  0  0  0  0  0  0  0
  -24.4520   -9.1006   21.4933 C   0  0  0  0  0  0  0  0  0  0  0  0
  -23.9116  -10.7888   23.1349 C   0  0  0  0  0  0  0  0  0  0  0  0
  -30.5633  -31.1329   15.4032 C   0  0  0  0  0  0  0  0  0  0  0  0
  -30.0599  -29.0979   17.2341 C   0  0  0  0  0  0  0  0  0  0  0  0
  -26.5672  -25.5577   18.1891 C   0  0  0  0  0  0  0  0  0  0  0  0
  -24.0435   -8.1059   22.3816 C   0  0  0  0  0  0  0  0  0  0  0  0
  -23.5030   -9.7940   24.0233 C   0  0  0  0  0  0  0  0  0  0  0  0
  -27.0097  -24.3632   18.7560 C   0  0  0  0  0  0  0  0  0  0  0  0
  -22.8042   -5.1428   24.0843 C   0  0  0  0  0  0  0  0  0  0  0  0
  -21.9991   -4.1187   23.5857 C   0  0  0  0  0  0  0  0  0  0  0  0
  -26.2888  -25.1328   20.9256 C   0  0  0  0  0  0  0  0  0  0  0  0
  -27.3165  -20.0808   21.2958 C   0  0  0  0  0  0  0  0  0  0  0  0
  -20.3242   -5.7420   22.9559 C   0  0  0  0  0  0  0  0  0  0  0  0
  -29.5854  -20.3755   20.6464 C   0  0  0  0  0  0  0  0  0  0  0  0
  -24.3861  -10.4421   21.8699 C   0  0  0  0  0  0  0  0  0  0  0  0
  -24.0148  -12.1401   20.0027 C   0  0  0  0  0  0  0  0  0  0  0  0
  -29.8167  -31.4155   16.5579 C   0  0  0  0  0  0  0  0  0  0  0  0
  -25.9911  -26.5548   18.9893 C   0  0  0  0  0  0  0  0  0  0  0  0
  -29.5698  -30.3898   17.4903 C   0  0  0  0  0  0  0  0  0  0  0  0
  -25.8374  -26.3379   20.3661 C   0  0  0  0  0  0  0  0  0  0  0  0
  -28.2704  -20.8089   20.5936 C   0  0  0  0  0  0  0  0  0  0  0  0
  -27.7012  -18.9574   22.0192 C   0  0  0  0  0  0  0  0  0  0  0  0
  -23.5690   -8.4526   23.6466 C   0  0  0  0  0  0  0  0  0  0  0  0
  -26.8731  -24.1518   20.1248 C   0  0  0  0  0  0  0  0  0  0  0  0
  -22.3693   -6.4665   24.0189 C   0  0  0  0  0  0  0  0  0  0  0  0
  -20.7592   -4.4183   23.0214 C   0  0  0  0  0  0  0  0  0  0  0  0
  -21.1293   -6.7661   23.4546 C   0  0  0  0  0  0  0  0  0  0  0  0
  -24.8085  -11.4700   20.9529 C   0  0  0  0  0  0  0  0  0  0  0  0
  -29.0417  -18.6068   22.0080 C   0  0  0  0  0  0  0  0  0  0  0  0
  -24.8783  -13.0144   19.3892 C   0  0  0  0  0  0  0  0  0  0  0  0
  -22.6215  -11.9861   19.7017 C   0  0  0  0  0  0  0  0  0  0  0  0
  -26.7311  -29.5618   19.7060 C   0  0  0  0  0  0  0  0  0  0  0  0
  -23.8583  -29.4998   21.2110 C   0  0  0  0  0  0  0  0  0  0  0  0
  -21.4065  -27.6502   22.6990 C   0  0  0  0  0  0  0  0  0  0  0  0
  -29.9888  -15.5988   21.1370 C   0  0  0  0  0  0  0  0  0  0  0  0
  -29.3582  -32.8322   16.7972 C   0  0  0  0  0  0  0  0  0  0  0  0
  -25.4945  -27.8267   18.3585 C   0  0  0  0  0  0  0  0  0  0  0  0
  -25.2072  -27.3684   21.2657 C   0  0  0  0  0  0  0  0  0  0  0  0
  -28.2709  -32.9489   17.8624 C   0  0  0  0  0  0  0  0  0  0  0  0
  -29.4992  -13.5466   18.2690 C   0  0  0  0  0  0  0  0  0  0  0  0
  -28.6381  -32.1249   19.0925 C   0  0  0  0  0  0  0  0  0  0  0  0
  -28.1699  -12.8422   18.5458 C   0  0  0  0  0  0  0  0  0  0  0  0
  -30.3176  -13.7294   19.5452 C   0  0  0  0  0  0  0  0  0  0  0  0
  -28.2752  -13.6975   20.9241 C   0  0  0  0  0  0  0  0  0  0  0  0
  -28.7584  -30.6365   18.7436 C   0  0  1  0  0  0  0  0  0  0  0  0
  -25.3914  -28.9836   19.3475 C   0  0  1  0  0  0  0  0  0  0  0  0
  -27.3899  -13.5406   19.6759 C   0  0  2  0  0  0  0  0  0  0  0  0
  -25.6108  -17.5582   21.8570 C   0  0  0  0  0  0  0  0  0  0  0  0
  -26.0081  -19.0004   23.8861 C   0  0  0  0  0  0  0  0  0  0  0  0
  -19.1984  -27.8832   23.8684 C   0  0  0  0  0  0  0  0  0  0  0  0
  -25.2935  -30.4715   23.7221 C   0  0  0  0  0  0  0  0  0  0  0  0
  -23.2873  -29.7814   25.0515 C   0  0  0  0  0  0  0  0  0  0  0  0
  -23.0759  -31.5497   23.3048 C   0  0  0  0  0  0  0  0  0  0  0  0
  -20.0178  -26.0308   20.6477 C   0  0  0  0  0  0  0  0  0  0  0  0
  -27.8879  -22.0252   19.8026 C   0  0  0  0  0  0  0  0  0  1  0  0
  -29.5125  -17.4090   22.7665 C   0  0  0  0  0  0  0  0  0  0  0  0
  -26.6845  -18.1738   22.7753 C   0  0  0  0  0  0  0  0  0  0  0  0
  -23.3863  -29.1418   22.5995 C   0  0  1  0  0  0  0  0  0  0  0  0
  -19.8972  -27.6611   22.5361 C   0  0  2  0  0  0  0  0  0  0  0  0
  -23.7744  -30.2173   23.6531 C   0  0  0  0  0  0  0  0  0  0  0  0
  -29.9971  -19.2893   21.3380 N   0  0  0  0  0  0  0  0  0  0  0  0
  -26.0787  -11.8831   20.9470 N   0  0  0  0  0  0  0  0  0  0  0  0
  -26.0897  -12.8221   19.9857 N   0  0  0  0  0  0  0  0  0  0  0  0
  -24.7431  -28.5982   20.6026 N   0  0  0  0  0  0  0  0  0  0  0  0
  -29.5210  -14.3989   20.5762 N   0  0  0  0  0  0  0  0  0  0  0  0
  -24.7121  -13.9212   18.4030 N   0  0  0  0  0  0  0  0  0  0  0  0
  -21.8815  -11.0426   20.4273 N   0  0  0  0  0  0  0  0  0  0  0  0
  -27.4463  -30.0378   18.6236 N   0  0  0  0  0  0  0  0  0  0  0  0
  -21.9515  -28.8999   22.4932 N   0  0  0  0  0  0  0  0  0  0  0  0
  -29.1699  -16.1710   22.1027 N   0  0  0  0  0  0  0  0  0  0  0  0
  -19.4280  -26.3651   21.9696 N   0  3  0  0  0  0  0  0  0  0  0  0
  -22.0533  -12.6535   18.8043 O   0  0  0  0  0  0  0  0  0  0  0  0
  -27.0889  -29.5765   20.8780 O   0  0  0  0  0  0  0  0  0  0  0  0
  -23.4511  -30.5375   20.6827 O   0  0  0  0  0  0  0  0  0  0  0  0
  -22.0383  -26.6353   22.9843 O   0  0  0  0  0  0  0  0  0  0  0  0
  -31.0547  -16.1241   20.7981 O   0  0  0  0  0  0  0  0  0  0  0  0
  -23.1700   -7.4822   24.5137 O   0  0  0  0  0  0  0  0  0  0  0  0
  -27.3048  -22.9871   20.6807 O   0  0  0  0  0  0  0  0  0  1  0  0
  -19.9869   -3.4349   22.5412 F   0  0  0  0  0  0  0  0  0  0  0  0
  -20.7066   -8.0360   23.3878 F   0  0  0  0  0  0  0  0  0  0  0  0
  1  2  1  0  0  0  0
  1  5  2  0  0  0  0
  2  6  2  0  0  0  0
  3  8  2  0  0  0  0
  3 17  1  0  0  0  0
  4  9  1  0  0  0  0
  4 17  2  0  0  0  0
  5 19  1  0  0  0  0
  6 21  1  0  0  0  0
  7 10  2  0  0  0  0
  7 20  1  0  0  0  0
  8 25  1  0  0  0  0
  9 25  2  0  0  0  0
 10 26  1  0  0  0  0
 11 12  2  0  0  0  0
 11 27  1  0  0  0  0
 12 28  1  0  0  0  0
 13 22  1  0  0  0  0
 13 26  2  0  0  0  0
 14 23  2  0  0  0  0
 14 24  1  0  0  0  0
 15 28  2  0  0  0  0
 15 29  1  0  0  0  0
 16 23  1  0  0  0  0
 16 63  2  0  0  0  0
 17 30  1  0  0  0  0
 18 30  1  0  0  0  0
 18 32  2  0  0  0  0
 18 33  1  0  0  0  0
 19 21  2  0  0  0  0
 19 38  1  0  0  0  0
 20 22  2  0  0  0  0
 20 39  1  0  0  0  0
 21 47  1  0  0  0  0
 22 40  1  0  0  0  0
 23 57  1  0  0  0  0
 24 31  2  0  0  0  0
 24 59  1  0  0  0  0
 25 79  1  0  0  0  0
 26 80  1  0  0  0  0
 27 29  2  0  0  0  0
 27 79  1  0  0  0  0
 28 81  1  0  0  0  0
 29 82  1  0  0  0  0
 30 64  2  0  0  0  0
 31 58  1  0  0  0  0
 31 63  1  0  0  0  0
 32 65  1  0  0  0  0
 32 68  1  0  0  0  0
 33 69  1  0  0  0  0
 33 74  2  0  0  0  0
 34 48  1  0  0  0  0
 34 70  1  0  0  0  0
 34 75  2  0  0  0  0
 35 60  1  0  0  0  0
 35 66  1  0  0  0  0
 35 76  2  0  0  0  0
 36 61  1  0  0  0  0
 36 71  1  0  0  0  0
 36 77  2  0  0  0  0
 37 67  1  0  0  0  0
 37 72  1  0  0  0  0
 37 78  2  0  0  0  0
 38 41  1  0  0  0  0
 39 48  1  0  0  0  0
 40 66  1  0  0  0  0
 41 43  1  0  0  0  0
 42 44  1  0  0  0  0
 42 45  1  0  0  0  0
 43 47  1  0  0  0  0
 44 49  1  0  0  0  0
 45 67  1  0  0  0  0
 46 49  1  0  0  0  0
 46 67  1  0  0  0  0
 47 70  1  0  0  0  0
 48 66  1  0  0  0  0
 49 65  1  0  0  0  0
 50 59  1  0  0  0  0
 51 59  1  0  0  0  0
 52 61  1  0  0  0  0
 53 62  1  0  0  0  0
 54 62  1  0  0  0  0
 55 62  1  0  0  0  0
 56 73  1  0  0  0  0
 57 80  1  0  0  0  0
 58 72  1  0  0  0  0
 60 62  1  0  0  0  0
 60 71  1  0  0  0  0
 61 73  1  0  0  0  0
 64 65  1  0  0  0  0
M  CHG  1  73   1
M  ISO  4  37 100  57 101  72 100  80 101
M  END
> <Batch ID>
0111

> <Smiles>
CNC(C)C(=O)NC(C(=O)N1Cc2cc([101O:1][101CH2:1]c3cnc(C[100NH:0][100C:0](=O)N4CCCC(n5nc(-c6ccc(Oc7ccc(F)cc7F)cc6)c(C(N)=O)c5N)C4)c(C(C)C)c3)ccc2CC1C(=O)NC1CCCc2ccccc21)C(C)(C)C

> <Shape>
0.286

> <Color>
0.080

> <Negative vol penalty>
0.000

$$$$

  -OEChem-04052320013D

 81 89  0     1  0  0  0  0  0999 V2000
  -23.1585  -18.1786   25.2758 C   0  0  0  0  0  0  0  0  0  0  0  0
  -24.0980  -18.8185   24.4738 C   0  0  0  0  0  0  0  0  0  0  0  0
  -26.8534  -12.9879   20.9540 C   0  0  0  0  0  0  0  0  0  0  0  0
  -27.0359  -13.0054   18.5450 C   0  0  0  0  0  0  0  0  0  0  0  0
  -21.9374  -18.7955   25.5448 C   0  0  0  0  0  0  0  0  0  0  0  0
  -23.8165  -20.0753   23.9393 C   0  0  0  0  0  0  0  0  0  0  0  0
  -27.7843  -24.6407   22.9800 C   0  0  0  0  0  0  0  0  0  0  0  0
  -26.3246  -11.6981   20.9046 C   0  0  0  0  0  0  0  0  0  0  0  0
  -26.5072  -11.7155   18.4956 C   0  0  0  0  0  0  0  0  0  0  0  0
  -28.4624  -25.0701   21.8401 C   0  0  0  0  0  0  0  0  0  0  0  0
  -23.3473  -10.2516   20.2206 C   0  0  0  0  0  0  0  0  0  0  0  0
  -22.2295   -9.9796   21.0094 C   0  0  0  0  0  0  0  0  0  0  0  0
  -26.7476  -26.7212   21.4493 C   0  0  0  0  0  0  0  0  0  0  0  0
  -29.7011  -24.4173   18.4223 C   0  0  0  0  0  0  0  0  0  0  0  0
  -23.4706   -8.2672   22.1775 C   0  0  0  0  0  0  0  0  0  0  0  0
  -31.5800  -24.4149   19.8805 C   0  0  0  0  0  0  0  0  0  0  0  0
  -27.2090  -13.6416   19.7742 C   0  0  0  0  0  0  0  0  0  0  0  0
  -29.1117  -15.3336   19.9298 C   0  0  0  0  0  0  0  0  0  0  0  0
  -21.6447  -20.0647   25.0213 C   0  0  0  0  0  0  0  0  0  0  0  0
  -26.5751  -25.2421   23.3578 C   0  0  0  0  0  0  0  0  0  0  0  0
  -22.5898  -20.7092   24.2005 C   0  0  0  0  0  0  0  0  0  0  0  0
  -26.0575  -26.2993   22.5960 C   0  0  0  0  0  0  0  0  0  0  0  0
  -30.4430  -25.0530   19.4116 C   0  0  0  0  0  0  0  0  0  0  0  0
  -30.1130  -23.1804   17.9390 C   0  0  0  0  0  0  0  0  0  0  0  0
  -26.1515  -11.0619   19.6754 C   0  0  0  0  0  0  0  0  0  0  0  0
  -27.9426  -26.1085   21.0729 C   0  0  0  0  0  0  0  0  0  0  0  0
  -24.5267   -9.5314   20.4102 C   0  0  0  0  0  0  0  0  0  0  0  0
  -22.2912   -8.9874   21.9879 C   0  0  0  0  0  0  0  0  0  0  0  0
  -24.5884   -8.5392   21.3887 C   0  0  0  0  0  0  0  0  0  0  0  0
  -27.7547  -14.9741   19.8246 C   0  0  0  0  0  0  0  0  0  0  0  0
  -31.2649  -22.6262   18.4736 C   0  0  0  0  0  0  0  0  0  0  0  0
  -29.1034  -16.7070   19.9383 C   0  0  0  0  0  0  0  0  0  0  0  0
  -30.2757  -14.5005   20.0124 C   0  0  0  0  0  0  0  0  0  0  0  0
  -23.5805  -24.2341   23.7039 C   0  0  0  0  0  0  0  0  0  0  0  0
  -23.1177  -27.2298   24.8588 C   0  0  0  0  0  0  0  0  0  0  0  0
  -24.1423  -30.4833   24.9675 C   0  0  0  0  0  0  0  0  0  0  0  0
  -27.2647  -21.5753   17.9223 C   0  0  0  0  0  0  0  0  0  0  0  0
  -20.2924  -20.6711   25.3011 C   0  0  0  0  0  0  0  0  0  0  0  0
  -25.8696  -24.7852   24.6051 C   0  0  0  0  0  0  0  0  0  0  0  0
  -24.7733  -26.9918   22.9699 C   0  0  0  0  0  0  0  0  0  0  0  0
  -20.2220  -22.1666   25.0033 C   0  0  0  0  0  0  0  0  0  0  0  0
  -25.2685  -19.9734   20.3973 C   0  0  0  0  0  0  0  0  0  0  0  0
  -20.8476  -22.4706   23.6456 C   0  0  0  0  0  0  0  0  0  0  0  0
  -25.8451  -18.5586   20.4729 C   0  0  0  0  0  0  0  0  0  0  0  0
  -25.2861  -20.5145   18.9694 C   0  0  0  0  0  0  0  0  0  0  0  0
  -27.1782  -19.0495   18.3799 C   0  0  0  0  0  0  0  0  0  0  0  0
  -22.3313  -22.0838   23.6228 C   0  0  1  0  0  0  0  0  0  0  0  0
  -24.3825  -25.1257   24.6092 C   0  0  1  0  0  0  0  0  0  0  0  0
  -27.2331  -18.4826   19.8088 C   0  0  2  0  0  0  0  0  0  0  0  0
  -31.7554  -21.2998   17.9922 C   0  0  0  0  0  0  0  0  0  0  0  0
  -30.6145  -27.5530   19.1591 C   0  0  0  0  0  0  0  0  0  0  0  0
  -23.5416  -32.7054   25.9669 C   0  0  0  0  0  0  0  0  0  0  0  0
  -20.8531  -27.5251   22.8353 C   0  0  0  0  0  0  0  0  0  0  0  0
  -20.9343  -29.9992   23.2101 C   0  0  0  0  0  0  0  0  0  0  0  0
  -20.3611  -28.4718   25.0972 C   0  0  0  0  0  0  0  0  0  0  0  0
  -26.7133  -30.6540   26.4234 C   0  0  0  0  0  0  0  0  0  0  0  0
  -29.3218  -22.4930   16.8803 C   0  0  0  0  0  0  0  0  0  0  0  0
  -30.0232  -26.3984   19.9579 C   0  0  1  0  0  0  0  0  0  1  0  0
  -22.7434  -28.5622   24.2556 C   0  0  1  0  0  0  0  0  0  0  0  0
  -24.3581  -31.4331   26.1319 C   0  0  2  0  0  0  0  0  0  0  0  0
  -21.2462  -28.6254   23.8412 C   0  0  0  0  0  0  0  0  0  0  0  0
  -32.0116  -23.2135   19.4354 N   0  0  0  0  0  0  0  0  0  0  0  0
  -26.9433  -16.0337   19.7703 N   0  0  0  0  0  0  0  0  0  0  0  0
  -27.7930  -17.0725   19.8418 N   0  0  0  0  0  0  0  0  0  0  0  0
  -24.1172  -26.5048   24.1946 N   0  0  0  0  0  0  0  0  0  0  0  0
  -26.6313  -20.4153   18.3979 N   0  0  0  0  0  0  0  0  0  0  0  0
  -30.0893  -17.6257   20.0190 N   0  0  0  0  0  0  0  0  0  0  0  0
  -30.1047  -13.1096   19.9901 N   0  0  0  0  0  0  0  0  0  0  0  0
  -23.1239  -23.0799   24.3112 N   0  0  0  0  0  0  0  0  0  0  0  0
  -23.1375  -29.5757   25.2282 N   0  0  0  0  0  0  0  0  0  0  0  0
  -28.5404  -21.3939   17.4023 N   0  0  0  0  0  0  0  0  0  0  0  0
  -25.7968  -31.8079   26.2348 N   0  3  0  0  0  0  0  0  0  0  0  0
  -31.4318  -14.9753   20.1199 O   0  0  0  0  0  0  0  0  0  0  0  0
  -23.3887  -24.5693   22.5409 O   0  0  0  0  0  0  0  0  0  0  0  0
  -22.5493  -26.8498   25.8855 O   0  0  0  0  0  0  0  0  0  0  0  0
  -24.7968  -30.5432   23.9289 O   0  0  0  0  0  0  0  0  0  0  0  0
  -26.7349  -22.6909   17.9632 O   0  0  0  0  0  0  0  0  0  0  0  0
  -25.6358   -9.8032   19.6268 O   0  0  0  0  0  0  0  0  0  0  0  0
  -28.6021  -26.5291   19.9593 O   0  0  0  0  0  0  0  0  0  1  0  0
  -21.2182   -8.7273   22.7463 F   0  0  0  0  0  0  0  0  0  0  0  0
  -25.7191   -7.8448   21.5763 F   0  0  0  0  0  0  0  0  0  0  0  0
  1  2  1  0  0  0  0
  1  5  2  0  0  0  0
  2  6  2  0  0  0  0
  3  8  2  0  0  0  0
  3 17  1  0  0  0  0
  4  9  1  0  0  0  0
  4 17  2  0  0  0  0
  5 19  1  0  0  0  0
  6 21  1  0  0  0  0
  7 10  2  0  0  0  0
  7 20  1  0  0  0  0
  8 25  1  0  0  0  0
  9 25  2  0  0  0  0
 10 26  1  0  0  0  0
 11 12  2  0  0  0  0
 11 27  1  0  0  0  0
 12 28  1  0  0  0  0
 13 22  1  0  0  0  0
 13 26  2  0  0  0  0
 14 23  2  0  0  0  0
 14 24  1  0  0  0  0
 15 28  2  0  0  0  0
 15 29  1  0  0  0  0
 16 23  1  0  0  0  0
 16 62  2  0  0  0  0
 17 30  1  0  0  0  0
 18 30  1  0  0  0  0
 18 32  2  0  0  0  0
 18 33  1  0  0  0  0
 19 21  2  0  0  0  0
 19 38  1  0  0  0  0
 20 22  2  0  0  0  0
 20 39  1  0  0  0  0
 21 47  1  0  0  0  0
 22 40  1  0  0  0  0
 23 58  1  0  0  0  0
 24 31  2  0  0  0  0
 24 57  1  0  0  0  0
 25 78  1  0  0  0  0
 26 79  1  0  0  0  0
 27 29  2  0  0  0  0
 27 78  1  0  0  0  0
 28 80  1  0  0  0  0
 29 81  1  0  0  0  0
 30 63  2  0  0  0  0
 31 50  1  0  0  0  0
 31 62  1  0  0  0  0
 32 64  1  0  0  0  0
 32 67  1  0  0  0  0
 33 68  1  0  0  0  0
 33 73  2  0  0  0  0
 34 48  1  0  0  0  0
 34 69  1  0  0  0  0
 34 74  2  0  0  0  0
 35 59  1  0  0  0  0
 35 65  1  0  0  0  0
 35 75  2  0  0  0  0
 36 60  1  0  0  0  0
 36 70  1  0  0  0  0
 36 76  2  0  0  0  0
 37 66  1  0  0  0  0
 37 71  1  0  0  0  0
 37 77  2  0  0  0  0
 38 41  1  0  0  0  0
 39 48  1  0  0  0  0
 40 65  1  0  0  0  0
 41 43  1  0  0  0  0
 42 44  1  0  0  0  0
 42 45  1  0  0  0  0
 43 47  1  0  0  0  0
 44 49  1  0  0  0  0
 45 66  1  0  0  0  0
 46 49  1  0  0  0  0
 46 66  1  0  0  0  0
 47 69  1  0  0  0  0
 48 65  1  0  0  0  0
 49 64  1  0  0  0  0
 51 58  1  0  0  0  0
 52 60  1  0  0  0  0
 53 61  1  0  0  0  0
 54 61  1  0  0  0  0
 55 61  1  0  0  0  0
 56 72  1  0  0  0  0
 57 71  1  0  0  0  0
 58 79  1  0  0  0  0
 59 61  1  0  0  0  0
 59 70  1  0  0  0  0
 60 72  1  0  0  0  0
 63 64  1  0  0  0  0
M  CHG  1  72   1
M  ISO  4  37 100  58 101  71 100  79 101
M  END
> <Batch ID>
0111

> <Smiles>
CNC(C)C(=O)NC(C(=O)N1Cc2cc([101O:1][101CH:1](C)c3cnc(C)c(C[100NH:0][100C:0](=O)N4CCCC(n5nc(-c6ccc(Oc7ccc(F)cc7F)cc6)c(C(N)=O)c5N)C4)c3)ccc2CC1C(=O)NC1CCCc2ccccc21)C(C)(C)C

> <Shape>
0.207

> <Color>
0.072

> <Negative vol penalty>
0.000

$$$$

  -OEChem-04052320013D

 89 99  0     1  0  0  0  0  0999 V2000
  -18.2806  -25.9813   23.9482 C   0  0  0  0  0  0  0  0  0  0  0  0
  -19.3021  -25.6707   23.0564 C   0  0  0  0  0  0  0  0  0  0  0  0
  -35.3016  -26.9377   16.9567 C   0  0  0  0  0  0  0  0  0  0  0  0
  -35.2435  -28.1932   16.3517 C   0  0  0  0  0  0  0  0  0  0  0  0
  -24.3585  -18.8755   23.1707 C   0  0  0  0  0  0  0  0  0  0  0  0
  -25.6548  -18.7351   21.1368 C   0  0  0  0  0  0  0  0  0  0  0  0
  -17.8778  -27.3061   24.1112 C   0  0  0  0  0  0  0  0  0  0  0  0
  -19.9208  -26.6848   22.3261 C   0  0  0  0  0  0  0  0  0  0  0  0
  -34.2905  -26.5368   17.8301 C   0  0  0  0  0  0  0  0  0  0  0  0
  -26.2705  -28.4793   19.5373 C   0  0  0  0  0  0  0  0  0  0  0  0
  -34.1744  -29.0479   16.6203 C   0  0  0  0  0  0  0  0  0  0  0  0
  -23.7159  -17.6815   22.8436 C   0  0  0  0  0  0  0  0  0  0  0  0
  -25.0123  -17.5409   20.8097 C   0  0  0  0  0  0  0  0  0  0  0  0
  -26.8418  -28.8837   18.3315 C   0  0  0  0  0  0  0  0  0  0  0  0
  -23.9712  -14.2684   19.6160 C   0  0  0  0  0  0  0  0  0  0  0  0
  -24.7576  -13.2139   19.1522 C   0  0  0  0  0  0  0  0  0  0  0  0
  -26.1169  -31.1454   18.7536 C   0  0  0  0  0  0  0  0  0  0  0  0
  -25.9983  -13.2272   21.2253 C   0  0  0  0  0  0  0  0  0  0  0  0
  -25.3279  -19.4024   22.3172 C   0  0  0  0  0  0  0  0  0  0  0  0
  -25.3949  -21.8956   22.8527 C   0  0  0  0  0  0  0  0  0  0  0  0
  -18.4984  -28.3381   23.3896 C   0  0  0  0  0  0  0  0  0  0  0  0
  -25.6076  -29.4044   20.3565 C   0  0  0  0  0  0  0  0  0  0  0  0
  -19.5250  -28.0245   22.4785 C   0  0  0  0  0  0  0  0  0  0  0  0
  -33.2214  -27.3916   18.0986 C   0  0  0  0  0  0  0  0  0  0  0  0
  -25.5403  -30.7508   19.9705 C   0  0  0  0  0  0  0  0  0  0  0  0
  -33.1633  -28.6471   17.4937 C   0  0  0  0  0  0  0  0  0  0  0  0
  -24.0429  -17.0141   21.6632 C   0  0  0  0  0  0  0  0  0  0  0  0
  -26.7625  -30.2163   17.9381 C   0  0  0  0  0  0  0  0  0  0  0  0
  -24.1984  -14.8024   20.8845 C   0  0  0  0  0  0  0  0  0  0  0  0
  -25.7711  -12.6933   19.9568 C   0  0  0  0  0  0  0  0  0  0  0  0
  -25.2119  -14.2818   21.6891 C   0  0  0  0  0  0  0  0  0  0  0  0
  -25.9915  -20.6361   22.6542 C   0  0  0  0  0  0  0  0  0  0  0  0
  -26.4448  -22.7300   23.1494 C   0  0  0  0  0  0  0  0  0  0  0  0
  -24.0150  -22.2773   22.7758 C   0  0  0  0  0  0  0  0  0  0  0  0
  -22.6310  -29.7259   21.4244 C   0  0  0  0  0  0  0  0  0  0  0  0
  -23.9231  -32.1585   23.1377 C   0  0  0  0  0  0  0  0  0  0  0  0
  -26.4088  -34.4745   23.4601 C   0  0  0  0  0  0  0  0  0  0  0  0
  -31.5348  -24.6040   22.3737 C   0  0  0  0  0  0  0  0  0  0  0  0
  -17.9967  -29.7496   23.5645 C   0  0  0  0  0  0  0  0  0  0  0  0
  -25.0199  -28.9574   21.6669 C   0  0  0  0  0  0  0  0  0  0  0  0
  -24.8574  -31.7871   20.8238 C   0  0  0  0  0  0  0  0  0  0  0  0
  -18.9578  -30.8082   23.0299 C   0  0  0  0  0  0  0  0  0  0  0  0
  -31.2692  -21.7070   24.2406 C   0  0  0  0  0  0  0  0  0  0  0  0
  -19.4607  -30.4210   21.6428 C   0  0  0  0  0  0  0  0  0  0  0  0
  -29.8233  -21.2633   24.0192 C   0  0  0  0  0  0  0  0  0  0  0  0
  -31.9053  -25.4130   18.9788 C   0  0  0  0  0  0  0  0  0  0  0  0
  -32.4116  -27.3724   20.5000 C   0  0  0  0  0  0  0  0  0  0  0  0
  -28.9224  -30.4638   14.9690 C   0  0  0  0  0  0  0  0  0  0  0  0
  -29.5843  -29.9952   17.3393 C   0  0  0  0  0  0  0  0  0  0  0  0
  -31.8867  -22.2206   22.9451 C   0  0  0  0  0  0  0  0  0  0  0  0
  -30.8282  -24.9535   19.9656 C   0  0  0  0  0  0  0  0  0  0  0  0
  -31.3088  -26.8833   21.4344 C   0  0  0  0  0  0  0  0  0  0  0  0
  -29.6720  -22.9078   22.0844 C   0  0  0  0  0  0  0  0  0  0  0  0
  -30.2443  -29.8406   14.5454 C   0  0  0  0  0  0  0  0  0  0  0  0
  -32.1329  -26.9337   19.0509 C   0  0  0  0  0  0  0  0  0  0  0  0
  -20.2373  -29.0995   21.6866 C   0  0  1  0  0  0  0  0  0  0  0  0
  -23.9218  -29.8856   22.1769 C   0  0  1  0  0  0  0  0  0  0  0  0
  -28.9946  -22.3843   23.3672 C   0  0  1  0  0  0  0  0  0  0  0  0
  -28.4631  -29.8940   16.3073 C   0  0  1  0  0  0  0  0  0  1  0  0
  -30.8759  -29.3867   16.7915 C   0  0  2  0  0  0  0  0  0  0  0  0
  -27.1752  -36.3483   24.9431 C   0  0  0  0  0  0  0  0  0  0  0  0
  -21.7568  -33.9637   21.9723 C   0  0  0  0  0  0  0  0  0  0  0  0
  -23.1084  -35.9403   22.7032 C   0  0  0  0  0  0  0  0  0  0  0  0
  -22.2304  -34.3359   24.3995 C   0  0  0  0  0  0  0  0  0  0  0  0
  -28.9564  -33.1000   24.0759 C   0  0  0  0  0  0  0  0  0  0  0  0
  -32.0291  -29.5798   17.7664 C   0  0  0  0  0  0  0  0  0  0  0  0
  -24.1426  -33.6334   22.9022 C   0  0  1  0  0  0  0  0  0  0  0  0
  -27.2783  -34.8610   24.6429 C   0  0  2  0  0  0  0  0  0  0  0  0
  -22.8208  -34.4487   22.9771 C   0  0  0  0  0  0  0  0  0  0  0  0
  -27.3176  -20.6632   22.8114 N   0  0  0  0  0  0  0  0  0  0  0  0
  -27.5630  -21.9499   23.1117 N   0  0  0  0  0  0  0  0  0  0  0  0
  -24.2928  -31.2996   22.0930 N   0  0  0  0  0  0  0  0  0  0  0  0
  -31.0691  -23.2806   22.3554 N   0  0  0  0  0  0  0  0  0  0  0  0
  -31.1259  -25.4365   21.3211 N   0  0  0  0  0  0  0  0  0  0  0  0
  -26.5114  -24.0474   23.4361 N   0  0  0  0  0  0  0  0  0  0  0  0
  -23.5088  -22.7088   21.5422 N   0  0  0  0  0  0  0  0  0  0  0  0
  -21.5702  -29.3137   22.2082 N   0  0  0  0  0  0  0  0  0  0  0  0
  -25.1587  -34.0531   23.8612 N   0  0  0  0  0  0  0  0  0  0  0  0
  -28.7057  -34.5355   24.3647 N   0  3  0  0  0  0  0  0  0  0  0  0
  -23.2576  -22.2526   23.7754 O   0  0  0  0  0  0  0  0  0  0  0  0
  -22.5995  -29.9608   20.2221 O   0  0  0  0  0  0  0  0  0  0  0  0
  -23.4479  -31.7818   24.2120 O   0  0  0  0  0  0  0  0  0  0  0  0
  -26.7982  -34.5434   22.2964 O   0  0  0  0  0  0  0  0  0  0  0  0
  -32.2718  -25.0182   23.2773 O   0  0  0  0  0  0  0  0  0  0  0  0
  -31.2351  -30.0193   15.5580 O   0  0  0  0  0  0  0  0  0  0  0  0
  -23.4163  -15.8488   21.3439 O   0  0  0  0  0  0  0  0  0  0  0  0
  -27.3226  -30.6164   16.7531 O   0  0  0  0  0  0  0  0  0  1  0  0
  -26.5252  -11.6796   19.5118 F   0  0  0  0  0  0  0  0  0  0  0  0
  -25.4341  -14.7899   22.9091 F   0  0  0  0  0  0  0  0  0  0  0  0
  1  2  1  0  0  0  0
  1  7  2  0  0  0  0
  2  8  2  0  0  0  0
  3  4  1  0  0  0  0
  3  9  2  0  0  0  0
  4 11  2  0  0  0  0
  5 12  2  0  0  0  0
  5 19  1  0  0  0  0
  6 13  1  0  0  0  0
  6 19  2  0  0  0  0
  7 21  1  0  0  0  0
  8 23  1  0  0  0  0
  9 24  1  0  0  0  0
 10 14  2  0  0  0  0
 10 22  1  0  0  0  0
 11 26  1  0  0  0  0
 12 27  1  0  0  0  0
 13 27  2  0  0  0  0
 14 28  1  0  0  0  0
 15 16  2  0  0  0  0
 15 29  1  0  0  0  0
 16 30  1  0  0  0  0
 17 25  1  0  0  0  0
 17 28  2  0  0  0  0
 18 30  2  0  0  0  0
 18 31  1  0  0  0  0
 19 32  1  0  0  0  0
 20 32  1  0  0  0  0
 20 33  2  0  0  0  0
 20 34  1  0  0  0  0
 21 23  2  0  0  0  0
 21 39  1  0  0  0  0
 22 25  2  0  0  0  0
 22 40  1  0  0  0  0
 23 56  1  0  0  0  0
 24 26  2  0  0  0  0
 24 55  1  0  0  0  0
 25 41  1  0  0  0  0
 26 66  1  0  0  0  0
 27 86  1  0  0  0  0
 28 87  1  0  0  0  0
 29 31  2  0  0  0  0
 29 86  1  0  0  0  0
 30 88  1  0  0  0  0
 31 89  1  0  0  0  0
 32 70  2  0  0  0  0
 33 71  1  0  0  0  0
 33 75  1  0  0  0  0
 34 76  1  0  0  0  0
 34 80  2  0  0  0  0
 35 57  1  0  0  0  0
 35 77  1  0  0  0  0
 35 81  2  0  0  0  0
 36 67  1  0  0  0  0
 36 72  1  0  0  0  0
 36 82  2  0  0  0  0
 37 68  1  0  0  0  0
 37 78  1  0  0  0  0
 37 83  2  0  0  0  0
 38 73  1  0  0  0  0
 38 74  1  0  0  0  0
 38 84  2  0  0  0  0
 39 42  1  0  0  0  0
 40 57  1  0  0  0  0
 41 72  1  0  0  0  0
 42 44  1  0  0  0  0
 43 45  1  0  0  0  0
 43 50  1  0  0  0  0
 44 56  1  0  0  0  0
 45 58  1  0  0  0  0
 46 51  1  0  0  0  0
 46 55  1  0  0  0  0
 47 52  1  0  0  0  0
 47 55  1  0  0  0  0
 48 54  1  0  0  0  0
 48 59  1  0  0  0  0
 49 59  1  0  0  0  0
 49 60  1  0  0  0  0
 50 73  1  0  0  0  0
 51 74  1  0  0  0  0
 52 74  1  0  0  0  0
 53 58  1  0  0  0  0
 53 73  1  0  0  0  0
 54 85  1  0  0  0  0
 56 77  1  0  0  0  0
 57 72  1  0  0  0  0
 58 71  1  0  0  0  0
 59 87  1  0  0  0  0
 60 66  1  0  0  0  0
 60 85  1  0  0  0  0
 61 68  1  0  0  0  0
 62 69  1  0  0  0  0
 63 69  1  0  0  0  0
 64 69  1  0  0  0  0
 65 79  1  0  0  0  0
 67 69  1  0  0  0  0
 67 78  1  0  0  0  0
 68 79  1  0  0  0  0
 70 71  1  0  0  0  0
M  CHG  1  79   1
M  ISO  4  38 100  59 101  74 100  87 101
M  END
> <Batch ID>
0111

> <Smiles>
CNC(C)C(=O)NC(C(=O)N1Cc2cc([101O:1][101CH:1]3CCOC(Cc4ccccc4C4CC[100N:0]([100C:0](=O)N5CCCC(n6nc(-c7ccc(Oc8ccc(F)cc8F)cc7)c(C(N)=O)c6N)C5)CC4)C3)ccc2CC1C(=O)NC1CCCc2ccccc21)C(C)(C)C

> <Shape>
0.187

> <Color>
0.097

> <Negative vol penalty>
0.000

$$$$

  -OEChem-04052320013D

 84 92  0     1  0  0  0  0  0999 V2000
  -18.9962  -22.0233   21.3518 C   0  0  0  0  0  0  0  0  0  0  0  0
  -19.5845  -21.8951   22.6059 C   0  0  0  0  0  0  0  0  0  0  0  0
  -22.8012  -10.1392   20.0956 C   0  0  0  0  0  0  0  0  0  0  0  0
  -24.1869   -9.5665   21.9900 C   0  0  0  0  0  0  0  0  0  0  0  0
  -19.6983  -21.6366   20.2110 C   0  0  0  0  0  0  0  0  0  0  0  0
  -20.8749  -21.3791   22.7201 C   0  0  0  0  0  0  0  0  0  0  0  0
  -26.7905  -21.9701   26.7166 C   0  0  0  0  0  0  0  0  0  0  0  0
  -22.0692   -8.9658   20.2762 C   0  0  0  0  0  0  0  0  0  0  0  0
  -23.4548   -8.3930   22.1707 C   0  0  0  0  0  0  0  0  0  0  0  0
  -27.6856  -21.1821   27.4389 C   0  0  0  0  0  0  0  0  0  0  0  0
  -22.1810   -5.0706   22.9113 C   0  0  0  0  0  0  0  0  0  0  0  0
  -22.8907   -3.8942   23.1519 C   0  0  0  0  0  0  0  0  0  0  0  0
  -28.8332  -20.6209   25.3926 C   0  0  0  0  0  0  0  0  0  0  0  0
  -24.0119   -4.1356   21.0255 C   0  0  0  0  0  0  0  0  0  0  0  0
  -23.8601  -10.4396   20.9524 C   0  0  0  0  0  0  0  0  0  0  0  0
  -24.1309  -12.9719   20.8055 C   0  0  0  0  0  0  0  0  0  0  0  0
  -21.0016  -21.1247   20.3104 C   0  0  0  0  0  0  0  0  0  0  0  0
  -26.9036  -22.0809   25.3233 C   0  0  0  0  0  0  0  0  0  0  0  0
  -21.5946  -20.9840   21.5796 C   0  0  0  0  0  0  0  0  0  0  0  0
  -27.9398  -21.4130   24.6553 C   0  0  0  0  0  0  0  0  0  0  0  0
  -22.3960   -8.0927   21.3138 C   0  0  0  0  0  0  0  0  0  0  0  0
  -28.7054  -20.5050   26.7765 C   0  0  0  0  0  0  0  0  0  0  0  0
  -22.3866   -5.7795   21.7276 C   0  0  0  0  0  0  0  0  0  0  0  0
  -23.8062   -3.4267   22.2091 C   0  0  0  0  0  0  0  0  0  0  0  0
  -23.3021   -5.3120   20.7848 C   0  0  0  0  0  0  0  0  0  0  0  0
  -24.6171  -11.6514   20.7660 C   0  0  0  0  0  0  0  0  0  0  0  0
  -25.2368  -13.7521   20.5711 C   0  0  0  0  0  0  0  0  0  0  0  0
  -22.7989  -13.4506   21.0339 C   0  0  0  0  0  0  0  0  0  0  0  0
  -25.0446  -21.3344   22.8555 C   0  0  0  0  0  0  0  0  0  0  0  0
  -27.3594  -22.8424   21.1556 C   0  0  0  0  0  0  0  0  0  0  0  0
  -30.6119  -23.8563   20.9556 C   0  0  0  0  0  0  0  0  0  0  0  0
  -31.1005  -12.8680   21.4000 C   0  0  0  0  0  0  0  0  0  0  0  0
  -21.7032  -20.6760   19.0529 C   0  0  0  0  0  0  0  0  0  0  0  0
  -25.9463  -22.9563   24.5620 C   0  0  0  0  0  0  0  0  0  0  0  0
  -28.1169  -21.5152   23.1631 C   0  0  0  0  0  0  0  0  0  0  0  0
  -23.2079  -20.4883   19.2288 C   0  0  0  0  0  0  0  0  0  0  0  0
  -29.4686  -13.6754   18.3403 C   0  0  0  0  0  0  0  0  0  0  0  0
  -23.5025  -19.7017   20.5021 C   0  0  0  0  0  0  0  0  0  0  0  0
  -27.9963  -13.3674   18.6186 C   0  0  0  0  0  0  0  0  0  0  0  0
  -30.3946  -12.6781   19.0331 C   0  0  0  0  0  0  0  0  0  0  0  0
  -28.6983  -12.2212   20.7615 C   0  0  0  0  0  0  0  0  0  0  0  0
  -32.6256  -14.7865   25.3587 C   0  0  0  0  0  0  0  0  0  0  0  0
  -30.1661  -16.2702   25.1372 C   0  0  0  0  0  0  0  0  0  0  0  0
  -23.0019  -20.4518   21.7423 C   0  0  1  0  0  0  0  0  0  0  0  0
  -25.8432  -22.5862   23.0856 C   0  0  1  0  0  0  0  0  0  0  0  0
  -27.7274  -13.2333   20.1295 C   0  0  2  0  0  0  0  0  0  0  0  0
  -31.1835  -16.5323   26.2566 C   0  0  2  0  0  0  0  0  0  0  0  0
  -31.6459  -14.4979   24.2203 C   0  0  1  0  0  0  0  0  0  0  0  0
  -32.2181  -25.0330   19.4282 C   0  0  0  0  0  0  0  0  0  0  0  0
  -34.9426  -16.1611   26.2547 C   0  0  0  0  0  0  0  0  0  0  0  0
  -33.2697  -15.5165   28.0243 C   0  0  0  0  0  0  0  0  0  0  0  0
  -29.2490  -17.5313   28.3704 C   0  0  0  0  0  0  0  0  0  0  0  0
  -27.5492  -20.3349   19.4274 C   0  0  0  0  0  0  0  0  0  0  0  0
  -29.7480  -21.1742   18.5736 C   0  0  0  0  0  0  0  0  0  0  0  0
  -27.6679  -22.4872   18.1594 C   0  0  0  0  0  0  0  0  0  0  0  0
  -31.0912  -26.0096   22.9285 C   0  0  0  0  0  0  0  0  0  0  0  0
  -31.0521  -18.0033   26.6753 C   0  0  0  0  0  0  0  0  0  0  0  0
  -31.6522  -13.0312   23.8141 C   0  0  0  0  0  0  0  0  0  0  0  0
  -28.6458  -22.4170   20.4898 C   0  0  1  0  0  0  0  0  0  0  0  0
  -31.2298  -25.1892   20.5734 C   0  0  2  0  0  0  0  0  0  0  0  0
  -33.5618  -16.4236   26.8381 C   0  0  0  0  0  0  0  0  0  0  0  0
  -29.6373  -18.3483   27.1455 C   0  0  2  0  0  0  0  0  0  1  0  0
  -28.3985  -21.5997   19.1905 C   0  0  0  0  0  0  0  0  0  0  0  0
  -25.9295  -11.5921   20.5252 N   0  0  0  0  0  0  0  0  0  0  0  0
  -26.2775  -12.8851   20.4113 N   0  0  0  0  0  0  0  0  0  0  0  0
  -27.1518  -22.3783   22.4622 N   0  0  0  0  0  0  0  0  0  0  0  0
  -30.0886  -12.5994   20.4635 N   0  0  0  0  0  0  0  0  0  0  0  0
  -32.5511  -16.1910   25.8025 N   0  0  1  0  0  0  0  0  0  0  0  0
  -25.4108  -15.0882   20.4881 N   0  0  0  0  0  0  0  0  0  0  0  0
  -22.4023  -13.7199   22.3509 N   0  0  0  0  0  0  0  0  0  0  0  0
  -23.9119  -21.5230   22.0867 N   0  0  0  0  0  0  0  0  0  0  0  0
  -29.4245  -23.6345   20.2907 N   0  0  0  0  0  0  0  0  0  0  0  0
  -30.7244  -12.7773   22.7346 N   0  0  0  0  0  0  0  0  0  0  0  0
  -30.2705  -14.8531   24.6879 N   0  3  0  0  0  0  0  0  0  0  0  0
  -31.9490  -25.7796   21.7376 N   0  3  0  0  0  0  0  0  0  0  0  0
  -21.9791  -13.6185   20.0993 O   0  0  0  0  0  0  0  0  0  0  0  0
  -25.4284  -20.2755   23.3383 O   0  0  0  0  0  0  0  0  0  0  0  0
  -26.5712  -23.5659   20.5416 O   0  0  0  0  0  0  0  0  0  0  0  0
  -31.1326  -23.0871   21.7604 O   0  0  0  0  0  0  0  0  0  0  0  0
  -32.2522  -13.1716   21.0711 O   0  0  0  0  0  0  0  0  0  0  0  0
  -21.6817   -6.9476   21.4905 O   0  0  0  0  0  0  0  0  0  0  0  0
  -29.5800  -19.7346   27.4790 O   0  0  0  0  0  0  0  0  0  1  0  0
  -24.4889   -2.2979   22.4410 F   0  0  0  0  0  0  0  0  0  0  0  0
  -23.5047   -5.9894   19.6464 F   0  0  0  0  0  0  0  0  0  0  0  0
  1  2  1  0  0  0  0
  1  5  2  0  0  0  0
  2  6  2  0  0  0  0
  3  8  2  0  0  0  0
  3 15  1  0  0  0  0
  4  9  1  0  0  0  0
  4 15  2  0  0  0  0
  5 17  1  0  0  0  0
  6 19  1  0  0  0  0
  7 10  2  0  0  0  0
  7 18  1  0  0  0  0
  8 21  1  0  0  0  0
  9 21  2  0  0  0  0
 10 22  1  0  0  0  0
 11 12  2  0  0  0  0
 11 23  1  0  0  0  0
 12 24  1  0  0  0  0
 13 20  1  0  0  0  0
 13 22  2  0  0  0  0
 14 24  2  0  0  0  0
 14 25  1  0  0  0  0
 15 26  1  0  0  0  0
 16 26  1  0  0  0  0
 16 27  2  0  0  0  0
 16 28  1  0  0  0  0
 17 19  2  0  0  0  0
 17 33  1  0  0  0  0
 18 20  2  0  0  0  0
 18 34  1  0  0  0  0
 19 44  1  0  0  0  0
 20 35  1  0  0  0  0
 21 81  1  0  0  0  0
 22 82  1  0  0  0  0
 23 25  2  0  0  0  0
 23 81  1  0  0  0  0
 24 83  1  0  0  0  0
 25 84  1  0  0  0  0
 26 64  2  0  0  0  0
 27 65  1  0  0  0  0
 27 69  1  0  0  0  0
 28 70  1  0  0  0  0
 28 76  2  0  0  0  0
 29 45  1  0  0  0  0
 29 71  1  0  0  0  0
 29 77  2  0  0  0  0
 30 59  1  0  0  0  0
 30 66  1  0  0  0  0
 30 78  2  0  0  0  0
 31 60  1  0  0  0  0
 31 72  1  0  0  0  0
 31 79  2  0  0  0  0
 32 67  1  0  0  0  0
 32 73  1  0  0  0  0
 32 80  2  0  0  0  0
 33 36  1  0  0  0  0
 34 45  1  0  0  0  0
 35 66  1  0  0  0  0
 36 38  1  0  0  0  0
 37 39  1  0  0  0  0
 37 40  1  0  0  0  0
 38 44  1  0  0  0  0
 39 46  1  0  0  0  0
 40 67  1  0  0  0  0
 41 46  1  0  0  0  0
 41 67  1  0  0  0  0
 42 48  1  0  0  0  0
 42 68  1  0  0  0  0
 43 47  1  0  0  0  0
 43 74  1  0  0  0  0
 44 71  1  0  0  0  0
 45 66  1  0  0  0  0
 46 65  1  0  0  0  0
 47 57  1  0  0  0  0
 47 68  1  0  0  0  0
 48 58  1  0  0  0  0
 48 74  1  0  0  0  0
 49 60  1  0  0  0  0
 50 61  1  0  0  0  0
 51 61  1  0  0  0  0
 52 62  1  0  0  0  0
 53 63  1  0  0  0  0
 54 63  1  0  0  0  0
 55 63  1  0  0  0  0
 56 75  1  0  0  0  0
 57 62  1  0  0  0  0
 58 73  1  0  0  0  0
 59 63  1  0  0  0  0
 59 72  1  0  0  0  0
 60 75  1  0  0  0  0
 61 68  1  0  0  0  0
 62 82  1  0  0  0  0
 64 65  1  0  0  0  0
M  CHG  2  74   1  75   1
M  ISO  4  32 100  62 101  73 100  82 101
M  END
> <Batch ID>
0111

> <Smiles>
CNC(C)C(=O)NC(C(=O)N1Cc2cc([101O:1][101CH:1](C)CC3CNC(C[100NH:0][100C:0](=O)N4CCCC(n5nc(-c6ccc(Oc7ccc(F)cc7F)cc6)c(C(N)=O)c5N)C4)CN3C(C)C)ccc2CC1C(=O)NC1CCCc2ccccc21)C(C)(C)C

> <Shape>
0.177

> <Color>
0.149

> <Negative vol penalty>
0.000

$$$$

  -OEChem-04052320013D

 87 95  0     1  0  0  0  0  0999 V2000
  -32.7760  -30.9684   23.1080 C   0  0  0  0  0  0  0  0  0  0  0  0
  -32.9261  -29.7622   22.4313 C   0  0  0  0  0  0  0  0  0  0  0  0
  -23.1911   -9.8184   19.9321 C   0  0  0  0  0  0  0  0  0  0  0  0
  -23.5692   -9.9996   22.3115 C   0  0  0  0  0  0  0  0  0  0  0  0
  -33.0393  -31.0367   24.4754 C   0  0  0  0  0  0  0  0  0  0  0  0
  -33.3408  -28.6237   23.1215 C   0  0  0  0  0  0  0  0  0  0  0  0
  -31.6032  -22.8456   22.0724 C   0  0  0  0  0  0  0  0  0  0  0  0
  -33.7436  -16.2899   21.8338 C   0  0  0  0  0  0  0  0  0  0  0  0
  -33.3376  -15.4740   22.8897 C   0  0  0  0  0  0  0  0  0  0  0  0
  -22.4253   -8.6715   20.1411 C   0  0  0  0  0  0  0  0  0  0  0  0
  -22.8033   -8.8527   22.5205 C   0  0  0  0  0  0  0  0  0  0  0  0
  -32.2018  -21.7984   21.3733 C   0  0  0  0  0  0  0  0  0  0  0  0
  -23.2059   -5.5061   22.2574 C   0  0  0  0  0  0  0  0  0  0  0  0
  -23.7047   -4.5452   23.1369 C   0  0  0  0  0  0  0  0  0  0  0  0
  -33.1223  -20.9548   23.4374 C   0  0  0  0  0  0  0  0  0  0  0  0
  -31.4440  -16.9099   21.4285 C   0  0  0  0  0  0  0  0  0  0  0  0
  -21.7479   -4.8048   24.5300 C   0  0  0  0  0  0  0  0  0  0  0  0
  -23.7631  -10.4825   21.0173 C   0  0  0  0  0  0  0  0  0  0  0  0
  -24.1007  -12.9992   20.7729 C   0  0  0  0  0  0  0  0  0  0  0  0
  -33.4480  -29.8962   25.1847 C   0  0  0  0  0  0  0  0  0  0  0  0
  -31.7689  -22.9617   23.4600 C   0  0  0  0  0  0  0  0  0  0  0  0
  -33.6110  -28.6771   24.4995 C   0  0  0  0  0  0  0  0  0  0  0  0
  -32.5226  -22.0030   24.1521 C   0  0  0  0  0  0  0  0  0  0  0  0
  -32.7968  -17.0079   21.1032 C   0  0  0  0  0  0  0  0  0  0  0  0
  -31.9847  -15.3760   23.2151 C   0  0  0  0  0  0  0  0  0  0  0  0
  -22.2314   -8.1886   21.4353 C   0  0  0  0  0  0  0  0  0  0  0  0
  -32.9639  -20.8544   22.0554 C   0  0  0  0  0  0  0  0  0  0  0  0
  -21.9782   -6.1164   22.5142 C   0  0  0  0  0  0  0  0  0  0  0  0
  -31.0379  -16.0940   22.4845 C   0  0  0  0  0  0  0  0  0  0  0  0
  -22.9757   -4.1945   24.2732 C   0  0  0  0  0  0  0  0  0  0  0  0
  -21.2492   -5.7657   23.6505 C   0  0  0  0  0  0  0  0  0  0  0  0
  -24.5547  -11.6670   20.8020 C   0  0  0  0  0  0  0  0  0  0  0  0
  -25.2315  -13.7423   20.5374 C   0  0  0  0  0  0  0  0  0  0  0  0
  -22.7752  -13.5186   20.9435 C   0  0  0  0  0  0  0  0  0  0  0  0
  -33.0527  -25.1352   25.3917 C   0  0  0  0  0  0  0  0  0  0  0  0
  -31.8397  -23.2211   27.7127 C   0  0  0  0  0  0  0  0  0  0  0  0
  -30.7808  -20.1139   28.6460 C   0  0  0  0  0  0  0  0  0  0  0  0
  -31.0467  -12.7552   21.5672 C   0  0  0  0  0  0  0  0  0  0  0  0
  -33.7665  -30.0299   26.6528 C   0  0  0  0  0  0  0  0  0  0  0  0
  -31.0946  -24.0821   24.2032 C   0  0  0  0  0  0  0  0  0  0  0  0
  -32.7144  -22.0712   25.6444 C   0  0  0  0  0  0  0  0  0  0  0  0
  -33.8404  -28.6920   27.3842 C   0  0  0  0  0  0  0  0  0  0  0  0
  -29.5192  -13.4711   18.4318 C   0  0  0  0  0  0  0  0  0  0  0  0
  -34.6708  -27.6922   26.5858 C   0  0  0  0  0  0  0  0  0  0  0  0
  -28.0327  -13.2101   18.6811 C   0  0  0  0  0  0  0  0  0  0  0  0
  -30.4009  -12.4823   19.1913 C   0  0  0  0  0  0  0  0  0  0  0  0
  -28.6474  -12.1392   20.8888 C   0  0  0  0  0  0  0  0  0  0  0  0
  -34.0350  -27.4146   25.2182 C   0  0  1  0  0  0  0  0  0  0  0  0
  -31.7550  -24.3932   25.5428 C   0  0  1  0  0  0  0  0  0  0  0  0
  -27.7195  -13.1464   20.1881 C   0  0  2  0  0  0  0  0  0  0  0  0
  -32.6512  -17.4146   18.6243 C   0  0  0  0  0  0  0  0  0  0  0  0
  -29.7697  -18.3388   30.1033 C   0  0  0  0  0  0  0  0  0  0  0  0
  -27.1951  -18.1993   24.5640 C   0  0  0  0  0  0  0  0  0  0  0  0
  -26.9398  -15.9224   23.5403 C   0  0  0  0  0  0  0  0  0  0  0  0
  -34.6340  -23.1446   28.9358 C   0  0  0  0  0  0  0  0  0  0  0  0
  -33.9108  -21.1676   30.2911 C   0  0  0  0  0  0  0  0  0  0  0  0
  -32.7752  -23.3679   30.5940 C   0  0  0  0  0  0  0  0  0  0  0  0
  -28.0551  -20.6775   27.6402 C   0  0  0  0  0  0  0  0  0  0  0  0
  -31.5683  -14.4968   24.3475 C   0  0  0  0  0  0  0  0  0  0  0  0
  -31.5366  -13.0073   23.9871 C   0  0  0  0  0  0  0  0  0  0  0  0
  -32.8883  -19.3715   20.1976 C   0  0  0  0  0  0  0  0  0  1  0  0
  -29.0553  -17.2212   23.1585 C   0  0  0  0  0  0  0  0  0  0  0  0
  -33.2401  -17.8978   19.9526 C   0  0  1  0  0  0  0  0  0  0  0  0
  -32.3473  -22.0313   28.4910 C   0  0  1  0  0  0  0  0  0  0  0  0
  -29.5316  -19.6520   29.3743 C   0  0  2  0  0  0  0  0  0  0  0  0
  -27.9241  -16.9207   24.1457 C   0  0  0  0  0  0  0  0  0  0  0  0
  -33.4150  -22.4274   29.5496 C   0  0  0  0  0  0  0  0  0  0  0  0
  -25.8713  -11.5664   20.6009 N   0  0  0  0  0  0  0  0  0  0  0  0
  -26.2543  -12.8449   20.4432 N   0  0  0  0  0  0  0  0  0  0  0  0
  -32.0403  -23.1889   26.3254 N   0  0  0  0  0  0  0  0  0  0  0  0
  -30.0543  -12.4714   20.6146 N   0  0  0  0  0  0  0  0  0  0  0  0
  -25.4409  -15.0692   20.4038 N   0  0  0  0  0  0  0  0  0  0  0  0
  -21.7289  -12.6159   21.1777 N   0  0  0  0  0  0  0  0  0  0  0  0
  -32.9142  -26.5096   25.3562 N   0  0  0  0  0  0  0  0  0  0  0  0
  -31.1693  -21.3746   29.0472 N   0  0  0  0  0  0  0  0  0  0  0  0
  -30.6324  -12.7300   22.8933 N   0  0  0  0  0  0  0  0  0  0  0  0
  -28.4118  -19.4582   28.4103 N   0  3  0  0  0  0  0  0  0  0  0  0
  -22.5235  -14.7455   20.8735 O   0  0  0  0  0  0  0  0  0  0  0  0
  -34.1023  -24.5073   25.3146 O   0  0  0  0  0  0  0  0  0  0  0  0
  -31.2792  -24.1417   28.3127 O   0  0  0  0  0  0  0  0  0  0  0  0
  -31.3567  -19.4237   27.8078 O   0  0  0  0  0  0  0  0  0  0  0  0
  -32.2142  -13.0173   21.2586 O   0  0  0  0  0  0  0  0  0  0  0  0
  -21.4840   -7.0696   21.6397 O   0  0  0  0  0  0  0  0  0  0  0  0
  -33.5498  -19.8315   21.3754 O   0  0  0  0  0  0  0  0  0  1  0  0
  -29.7127  -16.0106   22.7897 O   0  0  0  0  0  0  0  0  0  0  0  0
  -23.4540   -3.2707   25.1169 F   0  0  0  0  0  0  0  0  0  0  0  0
  -20.0686   -6.3477   23.9019 F   0  0  0  0  0  0  0  0  0  0  0  0
  1  2  1  0  0  0  0
  1  5  2  0  0  0  0
  2  6  2  0  0  0  0
  3 10  2  0  0  0  0
  3 18  1  0  0  0  0
  4 11  1  0  0  0  0
  4 18  2  0  0  0  0
  5 20  1  0  0  0  0
  6 22  1  0  0  0  0
  7 12  2  0  0  0  0
  7 21  1  0  0  0  0
  8  9  2  0  0  0  0
  8 24  1  0  0  0  0
  9 25  1  0  0  0  0
 10 26  1  0  0  0  0
 11 26  2  0  0  0  0
 12 27  1  0  0  0  0
 13 14  2  0  0  0  0
 13 28  1  0  0  0  0
 14 30  1  0  0  0  0
 15 23  1  0  0  0  0
 15 27  2  0  0  0  0
 16 24  2  0  0  0  0
 16 29  1  0  0  0  0
 17 30  2  0  0  0  0
 17 31  1  0  0  0  0
 18 32  1  0  0  0  0
 19 32  1  0  0  0  0
 19 33  2  0  0  0  0
 19 34  1  0  0  0  0
 20 22  2  0  0  0  0
 20 39  1  0  0  0  0
 21 23  2  0  0  0  0
 21 40  1  0  0  0  0
 22 48  1  0  0  0  0
 23 41  1  0  0  0  0
 24 63  1  0  0  0  0
 25 29  2  0  0  0  0
 25 59  1  0  0  0  0
 26 83  1  0  0  0  0
 27 84  1  0  0  0  0
 28 31  2  0  0  0  0
 28 83  1  0  0  0  0
 29 85  1  0  0  0  0
 30 86  1  0  0  0  0
 31 87  1  0  0  0  0
 32 68  2  0  0  0  0
 33 69  1  0  0  0  0
 33 72  1  0  0  0  0
 34 73  1  0  0  0  0
 34 78  2  0  0  0  0
 35 49  1  0  0  0  0
 35 74  1  0  0  0  0
 35 79  2  0  0  0  0
 36 64  1  0  0  0  0
 36 70  1  0  0  0  0
 36 80  2  0  0  0  0
 37 65  1  0  0  0  0
 37 75  1  0  0  0  0
 37 81  2  0  0  0  0
 38 71  1  0  0  0  0
 38 76  1  0  0  0  0
 38 82  2  0  0  0  0
 39 42  1  0  0  0  0
 40 49  1  0  0  0  0
 41 70  1  0  0  0  0
 42 44  1  0  0  0  0
 43 45  1  0  0  0  0
 43 46  1  0  0  0  0
 44 48  1  0  0  0  0
 45 50  1  0  0  0  0
 46 71  1  0  0  0  0
 47 50  1  0  0  0  0
 47 71  1  0  0  0  0
 48 74  1  0  0  0  0
 49 70  1  0  0  0  0
 50 69  1  0  0  0  0
 51 63  1  0  0  0  0
 52 65  1  0  0  0  0
 53 66  1  0  0  0  0
 54 66  1  0  0  0  0
 55 67  1  0  0  0  0
 56 67  1  0  0  0  0
 57 67  1  0  0  0  0
 58 77  1  0  0  0  0
 59 60  1  0  0  0  0
 60 76  1  0  0  0  0
 61 63  1  0  0  0  0
 61 84  1  0  0  0  0
 62 66  1  0  0  0  0
 62 85  1  0  0  0  0
 64 67  1  0  0  0  0
 64 75  1  0  0  0  0
 65 77  1  0  0  0  0
 68 69  1  0  0  0  0
M  CHG  1  77   1
M  ISO  4  38 100  61 101  76 100  84 101
M  END
> <Batch ID>
0111

> <Smiles>
CNC(C)C(=O)NC(C(=O)N1Cc2cc([101O:1][101CH2:1]C(C)c3ccc(CC[100NH:0][100C:0](=O)N4CCCC(n5nc(-c6ccc(Oc7ccc(F)cc7F)cc6)c(C(N)=O)c5N)C4)c(OCC(C)C)c3)ccc2CC1C(=O)NC1CCCc2ccccc21)C(C)(C)C

> <Shape>
0.162

> <Color>
0.178

> <Negative vol penalty>
0.000

$$$$

  -OEChem-04052320013D

 88 96  0     1  0  0  0  0  0999 V2000
  -30.2859  -22.7897   19.6300 C   0  0  0  0  0  0  0  0  0  0  0  0
  -29.3215  -23.3196   18.7787 C   0  0  0  0  0  0  0  0  0  0  0  0
  -24.3328   -9.4295   21.9549 C   0  0  0  0  0  0  0  0  0  0  0  0
  -22.9494  -10.1077   20.0938 C   0  0  0  0  0  0  0  0  0  0  0  0
  -29.9869  -22.5799   20.9755 C   0  0  0  0  0  0  0  0  0  0  0  0
  -28.0571  -23.6390   19.2724 C   0  0  0  0  0  0  0  0  0  0  0  0
  -26.4171  -28.1450   17.6439 C   0  0  0  0  0  0  0  0  0  0  0  0
  -23.5569   -8.2813   22.1133 C   0  0  0  0  0  0  0  0  0  0  0  0
  -22.1735   -8.9594   20.2522 C   0  0  0  0  0  0  0  0  0  0  0  0
  -25.9177  -28.2089   16.3437 C   0  0  0  0  0  0  0  0  0  0  0  0
  -20.5661   -7.4627   23.4584 C   0  0  0  0  0  0  0  0  0  0  0  0
  -20.1793   -7.1164   24.7530 C   0  0  0  0  0  0  0  0  0  0  0  0
  -23.6681  -28.1171   17.2097 C   0  0  0  0  0  0  0  0  0  0  0  0
  -21.3326   -5.0049   24.5327 C   0  0  0  0  0  0  0  0  0  0  0  0
  -24.0291  -10.3428   20.9452 C   0  0  0  0  0  0  0  0  0  0  0  0
  -25.9785  -11.6759   19.9807 C   0  0  0  0  0  0  0  0  0  0  0  0
  -28.7213  -22.9059   21.4880 C   0  0  0  0  0  0  0  0  0  0  0  0
  -25.5444  -28.0555   18.7379 C   0  0  0  0  0  0  0  0  0  0  0  0
  -27.7404  -23.4321   20.6257 C   0  0  0  0  0  0  0  0  0  0  0  0
  -24.1588  -28.0548   18.5229 C   0  0  0  0  0  0  0  0  0  0  0  0
  -22.4773   -8.0462   21.2620 C   0  0  0  0  0  0  0  0  0  0  0  0
  -24.5431  -28.1921   16.1263 C   0  0  0  0  0  0  0  0  0  0  0  0
  -21.3361   -6.5801   22.7009 C   0  0  0  0  0  0  0  0  0  0  0  0
  -20.5625   -5.8875   25.2902 C   0  0  0  0  0  0  0  0  0  0  0  0
  -21.7194   -5.3512   23.2381 C   0  0  0  0  0  0  0  0  0  0  0  0
  -24.8299  -11.5293   20.7814 C   0  0  0  0  0  0  0  0  0  0  0  0
  -26.3638  -12.9808   20.1687 C   0  0  0  0  0  0  0  0  0  0  0  0
  -26.6381  -10.7182   19.1420 C   0  0  0  0  0  0  0  0  0  0  0  0
  -23.2832  -20.6874   18.9273 C   0  0  0  0  0  0  0  0  0  0  0  0
  -22.9373  -19.3764   18.8910 C   0  0  0  0  0  0  0  0  0  0  0  0
  -25.0308  -25.9118   21.0280 C   0  0  0  0  0  0  0  0  0  0  0  0
  -23.0280  -28.1917   22.1740 C   0  0  0  0  0  0  0  0  0  0  0  0
  -21.0848  -30.9249   21.5413 C   0  0  0  0  0  0  0  0  0  0  0  0
  -23.3868  -17.9197   21.7796 C   0  0  0  0  0  0  0  0  0  0  0  0
  -28.4293  -22.6171   22.9392 C   0  0  0  0  0  0  0  0  0  0  0  0
  -26.0984  -28.0142   20.1357 C   0  0  0  0  0  0  0  0  0  0  0  0
  -23.1792  -27.9804   19.6645 C   0  0  0  0  0  0  0  0  0  0  0  0
  -27.1867  -23.3316   23.4644 C   0  0  0  0  0  0  0  0  0  0  0  0
  -26.2165  -16.4991   23.4077 C   0  0  0  0  0  0  0  0  0  0  0  0
  -26.0286  -23.1790   22.4835 C   0  0  0  0  0  0  0  0  0  0  0  0
  -26.2857  -15.0775   22.8470 C   0  0  0  0  0  0  0  0  0  0  0  0
  -24.7735  -16.9622   23.5952 C   0  0  0  0  0  0  0  0  0  0  0  0
  -24.4887  -24.6988   12.8944 C   0  0  0  0  0  0  0  0  0  0  0  0
  -23.9940  -15.4248   21.8338 C   0  0  0  0  0  0  0  0  0  0  0  0
  -23.3436  -24.5537   14.9570 C   0  0  0  0  0  0  0  0  0  0  0  0
  -26.3654  -23.8144   21.1291 C   0  0  1  0  0  0  0  0  0  0  0  0
  -25.1290  -27.4066   21.1449 C   0  0  1  0  0  0  0  0  0  0  0  0
  -25.0999  -23.5207   13.6441 C   0  0  1  0  0  0  0  0  0  0  0  0
  -25.4288  -14.9343   21.5747 C   0  0  2  0  0  0  0  0  0  0  0  0
  -24.0017  -23.2090   14.6539 C   0  0  1  0  0  0  0  0  0  0  0  0
  -22.7510  -21.6642   19.9497 C   0  0  0  0  0  0  0  0  0  0  0  0
  -23.4689  -18.3980   17.8688 C   0  0  0  0  0  0  0  0  0  0  0  0
  -25.4527  -22.3517   12.7391 C   0  0  0  0  0  0  0  0  0  0  0  0
  -19.5384  -32.5466   22.6708 C   0  0  0  0  0  0  0  0  0  0  0  0
  -21.8081  -28.6725   14.1822 C   0  0  0  0  0  0  0  0  0  0  0  0
  -20.8381  -26.0676   22.2201 C   0  0  0  0  0  0  0  0  0  0  0  0
  -19.1537  -27.9083   22.4268 C   0  0  0  0  0  0  0  0  0  0  0  0
  -20.8659  -27.5806   24.2112 C   0  0  0  0  0  0  0  0  0  0  0  0
  -22.8190  -33.2267   20.8677 C   0  0  0  0  0  0  0  0  0  0  0  0
  -24.2609  -21.3227   17.9543 C   0  0  0  0  0  0  0  0  0  0  0  0
  -22.0016  -18.7328   19.8877 C   0  0  0  0  0  0  0  0  0  0  0  0
  -23.0176  -26.5201   13.5526 C   0  0  0  0  0  0  0  0  0  0  0  0
  -23.5474  -21.9476   16.7623 C   0  0  0  0  0  0  0  0  0  0  0  0
  -21.5704  -28.5314   21.9770 C   0  0  1  0  0  0  0  0  0  0  0  0
  -20.9711  -32.2648   22.2457 C   0  0  2  0  0  0  0  0  0  0  0  0
  -22.8063  -27.6048   14.6115 C   0  0  1  0  0  0  0  0  0  1  0  0
  -20.6253  -27.5214   22.6869 C   0  0  0  0  0  0  0  0  0  0  0  0
  -24.5067  -12.6514   21.4298 N   0  0  0  0  0  0  0  0  0  0  0  0
  -25.4581  -13.5155   21.0370 N   0  0  0  0  0  0  0  0  0  0  0  0
  -23.7699  -27.9354   21.0123 N   0  0  0  0  0  0  0  0  0  0  0  0
  -24.0156  -16.8017   22.3519 N   0  0  0  0  0  0  0  0  0  0  0  0
  -23.9448  -25.4928   13.9988 N   0  0  2  0  0  0  0  0  0  0  0  0
  -27.3857  -13.7114   19.6744 N   0  0  0  0  0  0  0  0  0  0  0  0
  -26.1096   -9.4225   19.0637 N   0  0  0  0  0  0  0  0  0  0  0  0
  -26.2338  -25.2539   21.1994 N   0  0  0  0  0  0  0  0  0  0  0  0
  -21.4097  -29.9124   22.4191 N   0  0  0  0  0  0  0  0  0  0  0  0
  -22.6947  -17.6816   20.5984 N   0  0  0  0  0  0  0  0  0  0  0  0
  -24.5580  -22.5926   15.8744 N   0  3  0  0  0  0  0  0  0  0  0  0
  -21.4184  -33.3637   21.3439 N   0  3  0  0  0  0  0  0  0  0  0  0
  -27.6752  -10.9984   18.4944 O   0  0  0  0  0  0  0  0  0  0  0  0
  -23.9438  -25.3937   20.8008 O   0  0  0  0  0  0  0  0  0  0  0  0
  -23.4930  -28.1621   23.3162 O   0  0  0  0  0  0  0  0  0  0  0  0
  -20.9001  -30.7894   20.3338 O   0  0  0  0  0  0  0  0  0  0  0  0
  -23.4426  -19.0477   22.2810 O   0  0  0  0  0  0  0  0  0  0  0  0
  -21.7200   -6.9258   21.4161 O   0  0  0  0  0  0  0  0  0  0  0  0
  -24.0530  -28.2537   14.8583 O   0  0  0  0  0  0  0  0  0  1  0  0
  -20.1923   -5.5556   26.5340 F   0  0  0  0  0  0  0  0  0  0  0  0
  -22.4601   -4.4997   22.5156 F   0  0  0  0  0  0  0  0  0  0  0  0
  1  2  1  0  0  0  0
  1  5  2  0  0  0  0
  2  6  2  0  0  0  0
  3  8  2  0  0  0  0
  3 15  1  0  0  0  0
  4  9  1  0  0  0  0
  4 15  2  0  0  0  0
  5 17  1  0  0  0  0
  6 19  1  0  0  0  0
  7 10  2  0  0  0  0
  7 18  1  0  0  0  0
  8 21  1  0  0  0  0
  9 21  2  0  0  0  0
 10 22  1  0  0  0  0
 11 12  2  0  0  0  0
 11 23  1  0  0  0  0
 12 24  1  0  0  0  0
 13 20  1  0  0  0  0
 13 22  2  0  0  0  0
 14 24  2  0  0  0  0
 14 25  1  0  0  0  0
 15 26  1  0  0  0  0
 16 26  1  0  0  0  0
 16 27  2  0  0  0  0
 16 28  1  0  0  0  0
 17 19  2  0  0  0  0
 17 35  1  0  0  0  0
 18 20  2  0  0  0  0
 18 36  1  0  0  0  0
 19 46  1  0  0  0  0
 20 37  1  0  0  0  0
 21 85  1  0  0  0  0
 22 86  1  0  0  0  0
 23 25  2  0  0  0  0
 23 85  1  0  0  0  0
 24 87  1  0  0  0  0
 25 88  1  0  0  0  0
 26 68  2  0  0  0  0
 27 69  1  0  0  0  0
 27 73  1  0  0  0  0
 28 74  1  0  0  0  0
 28 80  2  0  0  0  0
 29 30  2  0  0  0  0
 29 51  1  0  0  0  0
 29 60  1  0  0  0  0
 30 52  1  0  0  0  0
 30 61  1  0  0  0  0
 31 47  1  0  0  0  0
 31 75  1  0  0  0  0
 31 81  2  0  0  0  0
 32 64  1  0  0  0  0
 32 70  1  0  0  0  0
 32 82  2  0  0  0  0
 33 65  1  0  0  0  0
 33 76  1  0  0  0  0
 33 83  2  0  0  0  0
 34 71  1  0  0  0  0
 34 77  1  0  0  0  0
 34 84  2  0  0  0  0
 35 38  1  0  0  0  0
 36 47  1  0  0  0  0
 37 70  1  0  0  0  0
 38 40  1  0  0  0  0
 39 41  1  0  0  0  0
 39 42  1  0  0  0  0
 40 46  1  0  0  0  0
 41 49  1  0  0  0  0
 42 71  1  0  0  0  0
 43 48  1  0  0  0  0
 43 72  1  0  0  0  0
 44 49  1  0  0  0  0
 44 71  1  0  0  0  0
 45 50  1  0  0  0  0
 45 72  1  0  0  0  0
 46 75  1  0  0  0  0
 47 70  1  0  0  0  0
 48 50  1  0  0  0  0
 48 53  1  0  0  0  0
 49 69  1  0  0  0  0
 50 78  1  0  0  0  0
 54 65  1  0  0  0  0
 55 66  1  0  0  0  0
 56 67  1  0  0  0  0
 57 67  1  0  0  0  0
 58 67  1  0  0  0  0
 59 79  1  0  0  0  0
 60 63  1  0  0  0  0
 61 77  1  0  0  0  0
 62 66  1  0  0  0  0
 62 72  1  0  0  0  0
 63 78  1  0  0  0  0
 64 67  1  0  0  0  0
 64 76  1  0  0  0  0
 65 79  1  0  0  0  0
 66 86  1  0  0  0  0
 68 69  1  0  0  0  0
M  CHG  2  78   1  79   1
M  ISO  4  34 100  66 101  77 100  86 101
M  END
> <Batch ID>
0111

> <Smiles>
CNC(C)C(=O)NC(C(=O)N1Cc2cc([101O:1][101CH:1](C)CN3CC(C)C(NCCC(C)=C(C)C[100NH:0][100C:0](=O)N4CCCC(n5nc(-c6ccc(Oc7ccc(F)cc7F)cc6)c(C(N)=O)c5N)C4)C3)ccc2CC1C(=O)NC1CCCc2ccccc21)C(C)(C)C

> <Shape>
0.211

> <Color>
0.085

> <Negative vol penalty>
0.000

$$$$

  -OEChem-04052320013D

 79 86  0     1  0  0  0  0  0999 V2000
  -16.7381  -29.0708   23.5020 C   0  0  0  0  0  0  0  0  0  0  0  0
  -17.3134  -28.0064   22.8152 C   0  0  0  0  0  0  0  0  0  0  0  0
  -26.0768  -13.6891   21.0978 C   0  0  0  0  0  0  0  0  0  0  0  0
  -25.7293  -14.0706   18.7376 C   0  0  0  0  0  0  0  0  0  0  0  0
  -17.5380  -30.1155   23.9628 C   0  0  0  0  0  0  0  0  0  0  0  0
  -18.6891  -27.9868   22.5880 C   0  0  0  0  0  0  0  0  0  0  0  0
  -22.3304  -23.0643   22.4652 C   0  0  0  0  0  0  0  0  0  0  0  0
  -24.9307  -12.8952   21.1383 C   0  0  0  0  0  0  0  0  0  0  0  0
  -24.5831  -13.2766   18.7780 C   0  0  0  0  0  0  0  0  0  0  0  0
  -22.8426  -22.3024   21.4159 C   0  0  0  0  0  0  0  0  0  0  0  0
  -24.0559   -9.7389   20.2984 C   0  0  0  0  0  0  0  0  0  0  0  0
  -24.1312   -8.5264   20.9837 C   0  0  0  0  0  0  0  0  0  0  0  0
  -24.8841  -23.5854   21.4889 C   0  0  0  0  0  0  0  0  0  0  0  0
  -22.3735   -9.2581   22.4711 C   0  0  0  0  0  0  0  0  0  0  0  0
  -26.4761  -14.2769   19.8975 C   0  0  0  0  0  0  0  0  0  0  0  0
  -28.9771  -14.6766   19.5929 C   0  0  0  0  0  0  0  0  0  0  0  0
  -18.9255  -30.1040   23.7496 C   0  0  0  0  0  0  0  0  0  0  0  0
  -23.0883  -24.1013   23.0279 C   0  0  0  0  0  0  0  0  0  0  0  0
  -19.5082  -29.0331   23.0453 C   0  0  0  0  0  0  0  0  0  0  0  0
  -24.3803  -24.3573   22.5469 C   0  0  0  0  0  0  0  0  0  0  0  0
  -24.1838  -12.6889   19.9784 C   0  0  0  0  0  0  0  0  0  0  0  0
  -24.1185  -22.5648   20.9257 C   0  0  0  0  0  0  0  0  0  0  0  0
  -23.1395  -10.7111   20.6994 C   0  0  0  0  0  0  0  0  0  0  0  0
  -23.2899   -8.2859   22.0700 C   0  0  0  0  0  0  0  0  0  0  0  0
  -22.2983  -10.4706   21.7857 C   0  0  0  0  0  0  0  0  0  0  0  0
  -27.6596  -15.0976   19.8552 C   0  0  0  0  0  0  0  0  0  0  0  0
  -29.7260  -15.8256   19.6675 C   0  0  0  0  0  0  0  0  0  0  0  0
  -29.4791  -13.3643   19.3074 C   0  0  0  0  0  0  0  0  0  0  0  0
  -22.7344  -27.2490   23.2934 C   0  0  0  0  0  0  0  0  0  0  0  0
  -25.4134  -27.0052   25.1062 C   0  0  0  0  0  0  0  0  0  0  0  0
  -28.2371  -25.2525   25.8818 C   0  0  0  0  0  0  0  0  0  0  0  0
  -28.3990  -21.6142   18.9046 C   0  0  0  0  0  0  0  0  0  0  0  0
  -19.7428  -31.2789   24.2252 C   0  0  0  0  0  0  0  0  0  0  0  0
  -22.5318  -24.8965   24.1770 C   0  0  0  0  0  0  0  0  0  0  0  0
  -25.2422  -25.4461   23.1300 C   0  0  0  0  0  0  0  0  0  0  0  0
  -21.2428  -30.9989   24.2706 C   0  0  0  0  0  0  0  0  0  0  0  0
  -29.8135  -20.1060   21.8031 C   0  0  0  0  0  0  0  0  0  0  0  0
  -21.6977  -30.3169   22.9843 C   0  0  0  0  0  0  0  0  0  0  0  0
  -29.5408  -18.6134   21.6089 C   0  0  0  0  0  0  0  0  0  0  0  0
  -28.6627  -20.9628   21.2800 C   0  0  0  0  0  0  0  0  0  0  0  0
  -28.0027  -19.2007   19.6884 C   0  0  0  0  0  0  0  0  0  0  0  0
  -21.0000  -28.9637   22.8008 C   0  0  1  0  0  0  0  0  0  0  0  0
  -23.1906  -26.2637   24.3320 C   0  0  1  0  0  0  0  0  0  0  0  0
  -29.1598  -18.2982   20.1499 C   0  0  2  0  0  0  0  0  0  0  0  0
  -30.2501  -25.3223   27.3786 C   0  0  0  0  0  0  0  0  0  0  0  0
  -29.5138  -22.1798   15.8999 C   0  0  0  0  0  0  0  0  0  0  0  0
  -23.7418  -19.7719   18.9892 C   0  0  0  0  0  0  0  0  0  0  0  0
  -26.6673  -29.1346   23.3164 C   0  0  0  0  0  0  0  0  0  0  0  0
  -28.9064  -28.4813   24.2262 C   0  0  0  0  0  0  0  0  0  0  0  0
  -27.1606  -29.3981   25.7540 C   0  0  0  0  0  0  0  0  0  0  0  0
  -27.4840  -22.7155   27.2067 C   0  0  0  0  0  0  0  0  0  0  0  0
  -27.0883  -21.6926   15.4219 C   0  0  0  0  0  0  0  0  0  0  0  0
  -25.6693  -22.1166   15.7842 C   0  0  0  0  0  0  0  0  0  0  0  0
  -23.9595  -21.9040   17.5925 C   0  0  0  0  0  0  0  0  0  0  0  0
  -26.8972  -27.0581   24.8335 C   0  0  1  0  0  0  0  0  0  0  0  0
  -28.8224  -24.8244   27.2154 C   0  0  2  0  0  0  0  0  0  0  0  0
  -28.1091  -22.1092   16.4901 C   0  0  1  0  0  0  0  0  0  0  0  0
  -23.6847  -21.2937   18.9630 C   0  0  2  0  0  0  0  0  0  1  0  0
  -27.3911  -28.4987   24.5200 C   0  0  0  0  0  0  0  0  0  0  0  0
  -27.5732  -16.4114   20.0797 N   0  0  0  0  0  0  0  0  0  0  0  0
  -28.8458  -16.8259   19.9589 N   0  0  0  0  0  0  0  0  0  0  0  0
  -24.6512  -26.2001   24.2478 N   0  0  0  0  0  0  0  0  0  0  0  0
  -28.3523  -20.6154   19.8912 N   0  0  0  0  0  0  0  0  0  0  0  0
  -31.0449  -16.0677   19.5117 N   0  0  0  0  0  0  0  0  0  0  0  0
  -28.5727  -12.2960   19.2689 N   0  0  0  0  0  0  0  0  0  0  0  0
  -21.6068  -27.9627   23.6520 N   0  0  0  0  0  0  0  0  0  0  0  0
  -27.5462  -26.4413   25.9853 N   0  0  0  0  0  0  0  0  0  0  0  0
  -28.0972  -21.1989   17.6134 N   0  0  0  0  0  0  0  0  0  0  0  0
  -28.8276  -23.3382   27.3256 N   0  3  0  0  0  0  0  0  0  0  0  0
  -25.3032  -21.5164   17.0957 N   0  3  0  0  0  0  0  0  0  0  0  0
  -30.6977  -13.1429   19.1089 O   0  0  0  0  0  0  0  0  0  0  0  0
  -23.3600  -27.3550   22.2450 O   0  0  0  0  0  0  0  0  0  0  0  0
  -24.9487  -27.6486   26.0505 O   0  0  0  0  0  0  0  0  0  0  0  0
  -28.3817  -24.5998   24.8505 O   0  0  0  0  0  0  0  0  0  0  0  0
  -28.6933  -22.7879   19.1550 O   0  0  0  0  0  0  0  0  0  0  0  0
  -23.0655  -11.9140   20.0175 O   0  0  0  0  0  0  0  0  0  0  0  0
  -24.6206  -21.8231   19.9012 O   0  0  0  0  0  0  0  0  0  1  0  0
  -23.3612   -7.1209   22.7271 F   0  0  0  0  0  0  0  0  0  0  0  0
  -21.4151  -11.4003   22.1749 F   0  0  0  0  0  0  0  0  0  0  0  0
  1  2  1  0  0  0  0
  1  5  2  0  0  0  0
  2  6  2  0  0  0  0
  3  8  2  0  0  0  0
  3 15  1  0  0  0  0
  4  9  1  0  0  0  0
  4 15  2  0  0  0  0
  5 17  1  0  0  0  0
  6 19  1  0  0  0  0
  7 10  2  0  0  0  0
  7 18  1  0  0  0  0
  8 21  1  0  0  0  0
  9 21  2  0  0  0  0
 10 22  1  0  0  0  0
 11 12  2  0  0  0  0
 11 23  1  0  0  0  0
 12 24  1  0  0  0  0
 13 20  1  0  0  0  0
 13 22  2  0  0  0  0
 14 24  2  0  0  0  0
 14 25  1  0  0  0  0
 15 26  1  0  0  0  0
 16 26  1  0  0  0  0
 16 27  2  0  0  0  0
 16 28  1  0  0  0  0
 17 19  2  0  0  0  0
 17 33  1  0  0  0  0
 18 20  2  0  0  0  0
 18 34  1  0  0  0  0
 19 42  1  0  0  0  0
 20 35  1  0  0  0  0
 21 76  1  0  0  0  0
 22 77  1  0  0  0  0
 23 25  2  0  0  0  0
 23 76  1  0  0  0  0
 24 78  1  0  0  0  0
 25 79  1  0  0  0  0
 26 60  2  0  0  0  0
 27 61  1  0  0  0  0
 27 64  1  0  0  0  0
 28 65  1  0  0  0  0
 28 71  2  0  0  0  0
 29 43  1  0  0  0  0
 29 66  1  0  0  0  0
 29 72  2  0  0  0  0
 30 55  1  0  0  0  0
 30 62  1  0  0  0  0
 30 73  2  0  0  0  0
 31 56  1  0  0  0  0
 31 67  1  0  0  0  0
 31 74  2  0  0  0  0
 32 63  1  0  0  0  0
 32 68  1  0  0  0  0
 32 75  2  0  0  0  0
 33 36  1  0  0  0  0
 34 43  1  0  0  0  0
 35 62  1  0  0  0  0
 36 38  1  0  0  0  0
 37 39  1  0  0  0  0
 37 40  1  0  0  0  0
 38 42  1  0  0  0  0
 39 44  1  0  0  0  0
 40 63  1  0  0  0  0
 41 44  1  0  0  0  0
 41 63  1  0  0  0  0
 42 66  1  0  0  0  0
 43 62  1  0  0  0  0
 44 61  1  0  0  0  0
 45 56  1  0  0  0  0
 46 57  1  0  0  0  0
 47 58  1  0  0  0  0
 48 59  1  0  0  0  0
 49 59  1  0  0  0  0
 50 59  1  0  0  0  0
 51 69  1  0  0  0  0
 52 53  1  0  0  0  0
 52 57  1  0  0  0  0
 53 70  1  0  0  0  0
 54 58  1  0  0  0  0
 54 70  1  0  0  0  0
 55 59  1  0  0  0  0
 55 67  1  0  0  0  0
 56 69  1  0  0  0  0
 57 68  1  0  0  0  0
 58 77  1  0  0  0  0
 60 61  1  0  0  0  0
M  CHG  2  69   1  70   1
M  ISO  4  32 100  58 101  68 100  77 101
M  END
> <Batch ID>
0111

> <Smiles>
CNC(C)C(=O)NC(C(=O)N1Cc2cc([101O:1][101CH:1](C)CNCCC(C)[100NH:0][100C:0](=O)N3CCCC(n4nc(-c5ccc(Oc6ccc(F)cc6F)cc5)c(C(N)=O)c4N)C3)ccc2CC1C(=O)NC1CCCc2ccccc21)C(C)(C)C

> <Shape>
0.213

> <Color>
0.057

> <Negative vol penalty>
0.000

$$$$

  -OEChem-04052320013D

 75 82  0     1  0  0  0  0  0999 V2000
  -16.8744  -27.0380   20.8115 C   0  0  0  0  0  0  0  0  0  0  0  0
  -18.1289  -27.0378   20.2100 C   0  0  0  0  0  0  0  0  0  0  0  0
  -25.6535  -15.9242   21.7397 C   0  0  0  0  0  0  0  0  0  0  0  0
  -25.0784  -16.6956   19.5236 C   0  0  0  0  0  0  0  0  0  0  0  0
  -16.6682  -27.7528   21.9907 C   0  0  0  0  0  0  0  0  0  0  0  0
  -19.1776  -27.7533   20.7868 C   0  0  0  0  0  0  0  0  0  0  0  0
  -23.4994  -25.1161   20.8973 C   0  0  0  0  0  0  0  0  0  0  0  0
  -24.3938  -15.3380   21.8626 C   0  0  0  0  0  0  0  0  0  0  0  0
  -23.8187  -16.1092   19.6464 C   0  0  0  0  0  0  0  0  0  0  0  0
  -24.2225  -25.0286   19.7085 C   0  0  0  0  0  0  0  0  0  0  0  0
  -21.4600  -13.3287   22.6182 C   0  0  0  0  0  0  0  0  0  0  0  0
  -21.3942  -12.0363   23.1386 C   0  0  0  0  0  0  0  0  0  0  0  0
  -25.6981  -26.7719   20.4848 C   0  0  0  0  0  0  0  0  0  0  0  0
  -22.7729  -11.2352   21.3235 C   0  0  0  0  0  0  0  0  0  0  0  0
  -25.9958  -16.6031   20.5702 C   0  0  0  0  0  0  0  0  0  0  0  0
  -28.4657  -16.6142   19.9322 C   0  0  0  0  0  0  0  0  0  0  0  0
  -17.7174  -28.4696   22.5874 C   0  0  0  0  0  0  0  0  0  0  0  0
  -23.8642  -26.0412   21.8859 C   0  0  0  0  0  0  0  0  0  0  0  0
  -18.9848  -28.4794   21.9743 C   0  0  0  0  0  0  0  0  0  0  0  0
  -24.9795  -26.8673   21.6864 C   0  0  0  0  0  0  0  0  0  0  0  0
  -23.4764  -15.4304   20.8159 C   0  0  0  0  0  0  0  0  0  0  0  0
  -25.3203  -25.8586   19.5009 C   0  0  0  0  0  0  0  0  0  0  0  0
  -22.1822  -13.5744   21.4503 C   0  0  0  0  0  0  0  0  0  0  0  0
  -22.0506  -10.9895   22.4913 C   0  0  0  0  0  0  0  0  0  0  0  0
  -22.8386  -12.5277   20.8030 C   0  0  0  0  0  0  0  0  0  0  0  0
  -27.2966  -17.2094   20.4430 C   0  0  0  0  0  0  0  0  0  0  0  0
  -29.4204  -17.5971   20.0257 C   0  0  0  0  0  0  0  0  0  0  0  0
  -28.6702  -15.2911   19.4192 C   0  0  0  0  0  0  0  0  0  0  0  0
  -22.4529  -28.5428   23.2475 C   0  0  0  0  0  0  0  0  0  0  0  0
  -25.0861  -28.5041   25.1415 C   0  0  0  0  0  0  0  0  0  0  0  0
  -28.3551  -27.6088   25.5404 C   0  0  0  0  0  0  0  0  0  0  0  0
  -29.1175  -23.5753   20.1680 C   0  0  0  0  0  0  0  0  0  0  0  0
  -17.4342  -29.2658   23.8366 C   0  0  0  0  0  0  0  0  0  0  0  0
  -23.0900  -26.1046   23.1739 C   0  0  0  0  0  0  0  0  0  0  0  0
  -25.4247  -27.8632   22.7249 C   0  0  0  0  0  0  0  0  0  0  0  0
  -18.6940  -29.6926   24.5855 C   0  0  0  0  0  0  0  0  0  0  0  0
  -30.5897  -21.4475   22.6137 C   0  0  0  0  0  0  0  0  0  0  0  0
  -19.7211  -30.2700   23.6167 C   0  0  0  0  0  0  0  0  0  0  0  0
  -30.0182  -20.0664   22.2887 C   0  0  0  0  0  0  0  0  0  0  0  0
  -29.5622  -22.5528   22.3800 C   0  0  0  0  0  0  0  0  0  0  0  0
  -28.3803  -21.1760   20.7123 C   0  0  0  0  0  0  0  0  0  0  0  0
  -20.1538  -29.2232   22.5830 C   0  0  1  0  0  0  0  0  0  0  0  0
  -23.2405  -27.4398   23.8964 C   0  0  1  0  0  0  0  0  0  0  0  0
  -29.3974  -20.0340   20.8791 C   0  0  2  0  0  0  0  0  0  0  0  0
  -30.2491  -27.7464   27.1809 C   0  0  0  0  0  0  0  0  0  0  0  0
  -29.9168  -24.3775   17.1147 C   0  0  0  0  0  0  0  0  0  0  0  0
  -25.4953  -31.4402   24.4191 C   0  0  0  0  0  0  0  0  0  0  0  0
  -27.8394  -31.2528   25.2783 C   0  0  0  0  0  0  0  0  0  0  0  0
  -25.9142  -30.8890   26.8222 C   0  0  0  0  0  0  0  0  0  0  0  0
  -28.5476  -24.6624   25.7422 C   0  0  0  0  0  0  0  0  0  0  0  0
  -27.4039  -24.3707   16.9650 C   0  0  0  0  0  0  0  0  0  0  0  0
  -26.0726  -24.5029   17.6975 C   0  0  0  0  0  0  0  0  0  1  0  0
  -26.4554  -29.1369   25.0817 C   0  0  1  0  0  0  0  0  0  0  0  0
  -29.0775  -26.9154   26.6814 C   0  0  2  0  0  0  0  0  0  0  0  0
  -28.6128  -24.4555   17.9031 C   0  0  1  0  0  0  0  0  0  0  0  0
  -26.4168  -30.6624   25.3798 C   0  0  0  0  0  0  0  0  0  0  0  0
  -27.4889  -18.4726   20.8322 N   0  0  0  0  0  0  0  0  0  0  0  0
  -28.7899  -18.6791   20.5660 N   0  0  0  0  0  0  0  0  0  0  0  0
  -24.6316  -27.8918   23.9649 N   0  0  0  0  0  0  0  0  0  0  0  0
  -29.0132  -22.4670   21.0246 N   0  0  0  0  0  0  0  0  0  0  0  0
  -30.7295  -17.6328   19.6977 N   0  0  0  0  0  0  0  0  0  0  0  0
  -27.5820  -14.4082   19.3951 N   0  0  0  0  0  0  0  0  0  0  0  0
  -21.0960  -28.2939   23.1686 N   0  0  0  0  0  0  0  0  0  0  0  0
  -27.2991  -28.3713   25.9929 N   0  0  0  0  0  0  0  0  0  0  0  0
  -28.5769  -23.4077   18.8990 N   0  0  0  0  0  0  0  0  0  0  0  0
  -29.5964  -25.5909   26.2370 N   0  3  0  0  0  0  0  0  0  0  0  0
  -29.7889  -14.8980   19.0099 O   0  0  0  0  0  0  0  0  0  0  0  0
  -23.0332  -29.5460   22.8494 O   0  0  0  0  0  0  0  0  0  0  0  0
  -24.4465  -28.5451   26.1954 O   0  0  0  0  0  0  0  0  0  0  0  0
  -28.6959  -27.4892   24.3657 O   0  0  0  0  0  0  0  0  0  0  0  0
  -29.6575  -24.6338   20.5071 O   0  0  0  0  0  0  0  0  0  0  0  0
  -22.2472  -14.8583   20.9354 O   0  0  0  0  0  0  0  0  0  0  0  0
  -26.0274  -25.7757   18.3412 O   0  0  0  0  0  0  0  0  0  1  0  0
  -21.9886   -9.7487   22.9920 F   0  0  0  0  0  0  0  0  0  0  0  0
  -23.5350  -12.7578   19.6814 F   0  0  0  0  0  0  0  0  0  0  0  0
  1  2  1  0  0  0  0
  1  5  2  0  0  0  0
  2  6  2  0  0  0  0
  3  8  2  0  0  0  0
  3 15  1  0  0  0  0
  4  9  1  0  0  0  0
  4 15  2  0  0  0  0
  5 17  1  0  0  0  0
  6 19  1  0  0  0  0
  7 10  2  0  0  0  0
  7 18  1  0  0  0  0
  8 21  1  0  0  0  0
  9 21  2  0  0  0  0
 10 22  1  0  0  0  0
 11 12  2  0  0  0  0
 11 23  1  0  0  0  0
 12 24  1  0  0  0  0
 13 20  1  0  0  0  0
 13 22  2  0  0  0  0
 14 24  2  0  0  0  0
 14 25  1  0  0  0  0
 15 26  1  0  0  0  0
 16 26  1  0  0  0  0
 16 27  2  0  0  0  0
 16 28  1  0  0  0  0
 17 19  2  0  0  0  0
 17 33  1  0  0  0  0
 18 20  2  0  0  0  0
 18 34  1  0  0  0  0
 19 42  1  0  0  0  0
 20 35  1  0  0  0  0
 21 72  1  0  0  0  0
 22 73  1  0  0  0  0
 23 25  2  0  0  0  0
 23 72  1  0  0  0  0
 24 74  1  0  0  0  0
 25 75  1  0  0  0  0
 26 57  2  0  0  0  0
 27 58  1  0  0  0  0
 27 61  1  0  0  0  0
 28 62  1  0  0  0  0
 28 67  2  0  0  0  0
 29 43  1  0  0  0  0
 29 63  1  0  0  0  0
 29 68  2  0  0  0  0
 30 53  1  0  0  0  0
 30 59  1  0  0  0  0
 30 69  2  0  0  0  0
 31 54  1  0  0  0  0
 31 64  1  0  0  0  0
 31 70  2  0  0  0  0
 32 60  1  0  0  0  0
 32 65  1  0  0  0  0
 32 71  2  0  0  0  0
 33 36  1  0  0  0  0
 34 43  1  0  0  0  0
 35 59  1  0  0  0  0
 36 38  1  0  0  0  0
 37 39  1  0  0  0  0
 37 40  1  0  0  0  0
 38 42  1  0  0  0  0
 39 44  1  0  0  0  0
 40 60  1  0  0  0  0
 41 44  1  0  0  0  0
 41 60  1  0  0  0  0
 42 63  1  0  0  0  0
 43 59  1  0  0  0  0
 44 58  1  0  0  0  0
 45 54  1  0  0  0  0
 46 55  1  0  0  0  0
 47 56  1  0  0  0  0
 48 56  1  0  0  0  0
 49 56  1  0  0  0  0
 50 66  1  0  0  0  0
 51 52  1  0  0  0  0
 51 55  1  0  0  0  0
 52 73  1  0  0  0  0
 53 56  1  0  0  0  0
 53 64  1  0  0  0  0
 54 66  1  0  0  0  0
 55 65  1  0  0  0  0
 57 58  1  0  0  0  0
M  CHG  1  66   1
M  ISO  4  32 100  52 101  65 100  73 101
M  END
> <Batch ID>
0111

> <Smiles>
CNC(C)C(=O)NC(C(=O)N1Cc2cc([101O:1][101CH2:1]CC(C)[100NH:0][100C:0](=O)N3CCCC(n4nc(-c5ccc(Oc6ccc(F)cc6F)cc5)c(C(N)=O)c4N)C3)ccc2CC1C(=O)NC1CCCc2ccccc21)C(C)(C)C

> <Shape>
0.243

> <Color>
0.072

> <Negative vol penalty>
0.000

$$$$

  -OEChem-04052320013D

 83 90  0     1  0  0  0  0  0999 V2000
  -24.5336  -23.7002   22.7272 C   0  0  0  0  0  0  0  0  0  0  0  0
  -24.0637  -22.5090   22.1835 C   0  0  0  0  0  0  0  0  0  0  0  0
  -24.4796  -30.0218   20.5078 C   0  0  0  0  0  0  0  0  0  0  0  0
  -24.3318  -28.5732   22.4357 C   0  0  0  0  0  0  0  0  0  0  0  0
  -25.8800  -24.0397   22.6006 C   0  0  0  0  0  0  0  0  0  0  0  0
  -24.9398  -21.6570   21.5119 C   0  0  0  0  0  0  0  0  0  0  0  0
  -24.3211  -16.8056   22.8257 C   0  0  0  0  0  0  0  0  0  0  0  0
  -24.2076  -31.1255   21.3162 C   0  0  0  0  0  0  0  0  0  0  0  0
  -24.0598  -29.6769   23.2441 C   0  0  0  0  0  0  0  0  0  0  0  0
  -23.2411  -16.1264   22.2635 C   0  0  0  0  0  0  0  0  0  0  0  0
  -23.6829  -32.1567   25.8761 C   0  0  0  0  0  0  0  0  0  0  0  0
  -24.3565  -32.2513   27.0938 C   0  0  0  0  0  0  0  0  0  0  0  0
  -24.7237  -15.1161   20.6509 C   0  0  0  0  0  0  0  0  0  0  0  0
  -26.4696  -32.2789   25.9228 C   0  0  0  0  0  0  0  0  0  0  0  0
  -24.5417  -28.7456   21.0676 C   0  0  0  0  0  0  0  0  0  0  0  0
  -26.0861  -27.0667   19.9257 C   0  0  0  0  0  0  0  0  0  0  0  0
  -26.7749  -23.1869   21.9355 C   0  0  0  0  0  0  0  0  0  0  0  0
  -25.6110  -16.6533   22.2970 C   0  0  0  0  0  0  0  0  0  0  0  0
  -26.2991  -21.9860   21.3752 C   0  0  0  0  0  0  0  0  0  0  0  0
  -25.8188  -15.7925   21.2099 C   0  0  0  0  0  0  0  0  0  0  0  0
  -23.9977  -30.9531   22.6843 C   0  0  0  0  0  0  0  0  0  0  0  0
  -23.4418  -15.2838   21.1742 C   0  0  0  0  0  0  0  0  0  0  0  0
  -24.4027  -32.1230   24.6817 C   0  0  0  0  0  0  0  0  0  0  0  0
  -25.7499  -32.3124   27.1172 C   0  0  0  0  0  0  0  0  0  0  0  0
  -25.7960  -32.1842   24.7051 C   0  0  0  0  0  0  0  0  0  0  0  0
  -24.8221  -27.6051   20.2330 C   0  0  0  0  0  0  0  0  0  0  0  0
  -25.8144  -25.9999   19.1044 C   0  0  0  0  0  0  0  0  0  0  0  0
  -27.3892  -27.4929   20.3453 C   0  0  0  0  0  0  0  0  0  0  0  0
  -27.7293  -18.6053   20.9531 C   0  0  0  0  0  0  0  0  0  0  0  0
  -18.4854  -20.2285   17.4555 C   0  0  0  0  0  0  0  0  0  0  0  0
  -29.6361  -15.9837   21.0691 C   0  0  0  0  0  0  0  0  0  0  0  0
  -29.8801  -12.5825   21.2088 C   0  0  0  0  0  0  0  0  0  0  0  0
  -21.0503  -22.5526   18.5799 C   0  0  0  0  0  0  0  0  0  0  0  0
  -28.2118  -23.6189   21.7828 C   0  0  0  0  0  0  0  0  0  0  0  0
  -26.7697  -17.3722   22.9317 C   0  0  0  0  0  0  0  0  0  0  0  0
  -27.1871  -15.5788   20.6178 C   0  0  0  0  0  0  0  0  0  0  0  0
  -29.1500  -22.4834   21.3819 C   0  0  0  0  0  0  0  0  0  0  0  0
  -22.5977  -24.4522   15.9162 C   0  0  0  0  0  0  0  0  0  0  0  0
  -28.5479  -21.6717   20.2394 C   0  0  0  0  0  0  0  0  0  0  0  0
  -23.4690  -25.4301   16.7065 C   0  0  0  0  0  0  0  0  0  0  0  0
  -21.2689  -24.2003   16.6228 C   0  0  0  0  0  0  0  0  0  0  0  0
  -22.2699  -24.6969   18.8194 C   0  0  0  0  0  0  0  0  0  0  0  0
  -27.2234  -21.0239   20.6610 C   0  0  1  0  0  0  0  0  0  0  0  0
  -27.9572  -17.5408   21.9888 C   0  0  1  0  0  0  0  0  0  0  0  0
  -23.6369  -24.9755   18.1685 C   0  0  2  0  0  0  0  0  0  0  0  0
  -17.2376  -20.2003   18.3004 C   0  0  0  0  0  0  0  0  0  0  0  0
  -31.5713  -10.7291   21.2532 C   0  0  0  0  0  0  0  0  0  0  0  0
  -30.1236  -16.3603   18.0807 C   0  0  0  0  0  0  0  0  0  0  0  0
  -31.0007  -14.0167   17.9993 C   0  0  0  0  0  0  0  0  0  0  0  0
  -32.1542  -15.7304   19.3977 C   0  0  0  0  0  0  0  0  0  0  0  0
  -21.1799  -13.9501   17.0965 C   0  0  0  0  0  0  0  0  0  0  0  0
  -20.2750  -13.1093   19.2681 C   0  0  0  0  0  0  0  0  0  0  0  0
  -28.9495  -11.6402   23.8555 C   0  0  0  0  0  0  0  0  0  0  0  0
  -20.2797  -15.6012   18.7461 C   0  0  0  0  0  0  0  0  0  0  0  0
  -20.9755  -16.8155   18.1387 C   0  0  0  0  0  0  0  0  0  0  0  0
  -20.7487  -19.2923   17.9100 C   0  0  0  0  0  0  0  0  0  0  0  0
  -22.4623  -14.3314   19.2275 C   0  0  0  0  0  0  0  0  0  1  0  0
  -19.7988  -20.4458   18.1903 C   0  0  1  0  0  0  0  0  0  0  0  0
  -29.9156  -14.8233   20.1448 C   0  0  1  0  0  0  0  0  0  0  0  0
  -30.7138  -11.6677   22.0877 C   0  0  2  0  0  0  0  0  0  0  0  0
  -30.7723  -15.2380   18.9153 C   0  0  0  0  0  0  0  0  0  0  0  0
  -21.0520  -14.2598   18.6034 C   0  0  0  0  0  0  0  0  0  0  0  0
  -23.8219  -26.9356   19.6539 N   0  0  0  0  0  0  0  0  0  0  0  0
  -24.4572  -25.9656   18.9744 N   0  0  0  0  0  0  0  0  0  0  0  0
  -28.2870  -16.3088   21.2694 N   0  0  0  0  0  0  0  0  0  0  0  0
  -21.4993  -23.7525   18.0036 N   0  0  0  0  0  0  0  0  0  0  0  0
  -26.6066  -25.0973   18.4878 N   0  0  0  0  0  0  0  0  0  0  0  0
  -27.4881  -28.6074   21.1893 N   0  0  0  0  0  0  0  0  0  0  0  0
  -27.4700  -19.8563   21.4797 N   0  0  0  0  0  0  0  0  0  0  0  0
  -30.5182  -13.7810   20.9688 N   0  0  0  0  0  0  0  0  0  0  0  0
  -20.3220  -21.7171   17.7420 N   0  0  0  0  0  0  0  0  0  0  0  0
  -29.8317  -10.8451   22.9630 N   0  3  0  0  0  0  0  0  0  0  0  0
  -20.1512  -18.0227   18.4037 N   0  3  0  0  0  0  0  0  0  0  0  0
  -28.4358  -26.9128   19.9692 O   0  0  0  0  0  0  0  0  0  0  0  0
  -27.7861  -18.3136   19.7643 O   0  0  0  0  0  0  0  0  0  0  0  0
  -18.4306  -20.0419   16.2396 O   0  0  0  0  0  0  0  0  0  0  0  0
  -30.5797  -16.5751   21.5996 O   0  0  0  0  0  0  0  0  0  0  0  0
  -28.7750  -12.2642   20.7753 O   0  0  0  0  0  0  0  0  0  0  0  0
  -21.2859  -22.2458   19.7536 O   0  0  0  0  0  0  0  0  0  0  0  0
  -23.7324  -32.0298   23.4735 O   0  0  0  0  0  0  0  0  0  0  0  0
  -22.3893  -14.6202   20.6231 O   0  0  0  0  0  0  0  0  0  1  0  0
  -26.3965  -32.4049   28.2866 F   0  0  0  0  0  0  0  0  0  0  0  0
  -26.4928  -32.1535   23.5608 F   0  0  0  0  0  0  0  0  0  0  0  0
  1  2  1  0  0  0  0
  1  5  2  0  0  0  0
  2  6  2  0  0  0  0
  3  8  2  0  0  0  0
  3 15  1  0  0  0  0
  4  9  1  0  0  0  0
  4 15  2  0  0  0  0
  5 17  1  0  0  0  0
  6 19  1  0  0  0  0
  7 10  2  0  0  0  0
  7 18  1  0  0  0  0
  8 21  1  0  0  0  0
  9 21  2  0  0  0  0
 10 22  1  0  0  0  0
 11 12  2  0  0  0  0
 11 23  1  0  0  0  0
 12 24  1  0  0  0  0
 13 20  1  0  0  0  0
 13 22  2  0  0  0  0
 14 24  2  0  0  0  0
 14 25  1  0  0  0  0
 15 26  1  0  0  0  0
 16 26  1  0  0  0  0
 16 27  2  0  0  0  0
 16 28  1  0  0  0  0
 17 19  2  0  0  0  0
 17 34  1  0  0  0  0
 18 20  2  0  0  0  0
 18 35  1  0  0  0  0
 19 43  1  0  0  0  0
 20 36  1  0  0  0  0
 21 80  1  0  0  0  0
 22 81  1  0  0  0  0
 23 25  2  0  0  0  0
 23 80  1  0  0  0  0
 24 82  1  0  0  0  0
 25 83  1  0  0  0  0
 26 63  2  0  0  0  0
 27 64  1  0  0  0  0
 27 67  1  0  0  0  0
 28 68  1  0  0  0  0
 28 74  2  0  0  0  0
 29 44  1  0  0  0  0
 29 69  1  0  0  0  0
 29 75  2  0  0  0  0
 30 46  1  0  0  0  0
 30 58  1  0  0  0  0
 30 76  2  0  0  0  0
 31 59  1  0  0  0  0
 31 65  1  0  0  0  0
 31 77  2  0  0  0  0
 32 60  1  0  0  0  0
 32 70  1  0  0  0  0
 32 78  2  0  0  0  0
 33 66  1  0  0  0  0
 33 71  1  0  0  0  0
 33 79  2  0  0  0  0
 34 37  1  0  0  0  0
 35 44  1  0  0  0  0
 36 65  1  0  0  0  0
 37 39  1  0  0  0  0
 38 40  1  0  0  0  0
 38 41  1  0  0  0  0
 39 43  1  0  0  0  0
 40 45  1  0  0  0  0
 41 66  1  0  0  0  0
 42 45  1  0  0  0  0
 42 66  1  0  0  0  0
 43 69  1  0  0  0  0
 44 65  1  0  0  0  0
 45 64  1  0  0  0  0
 47 60  1  0  0  0  0
 48 61  1  0  0  0  0
 49 61  1  0  0  0  0
 50 61  1  0  0  0  0
 51 62  1  0  0  0  0
 52 62  1  0  0  0  0
 53 72  1  0  0  0  0
 54 55  1  0  0  0  0
 54 62  1  0  0  0  0
 55 73  1  0  0  0  0
 56 58  1  0  0  0  0
 56 73  1  0  0  0  0
 57 62  1  0  0  0  0
 57 81  1  0  0  0  0
 58 71  1  0  0  0  0
 59 61  1  0  0  0  0
 59 70  1  0  0  0  0
 60 72  1  0  0  0  0
 63 64  1  0  0  0  0
M  CHG  2  72   1  73   1
M  ISO  4  33 100  57 101  71 100  81 101
M  END
> <Batch ID>
0111

> <Smiles>
CNC(C)C(=O)NC(C(=O)N1Cc2cc([101O:1][101CH2:1]C(C)(C)CCNCC([100NH:0][100C:0](=O)N3CCCC(n4nc(-c5ccc(Oc6ccc(F)cc6F)cc5)c(C(N)=O)c4N)C3)C(C)=O)ccc2CC1C(=O)NC1CCCc2ccccc21)C(C)(C)C

> <Shape>
0.202

> <Color>
0.060

> <Negative vol penalty>
0.000

$$$$

  -OEChem-04052320013D

 87 95  0     1  0  0  0  0  0999 V2000
  -28.6476  -11.0724   20.7988 C   0  0  0  0  0  0  0  0  0  0  0  0
  -29.1077  -12.3400   20.4568 C   0  0  0  0  0  0  0  0  0  0  0  0
  -20.1596  -27.4845   23.8035 C   0  0  0  0  0  0  0  0  0  0  0  0
  -20.2055  -28.6324   21.6781 C   0  0  0  0  0  0  0  0  0  0  0  0
  -27.2791  -10.8059   20.8010 C   0  0  0  0  0  0  0  0  0  0  0  0
  -28.1994  -13.3416   20.1157 C   0  0  0  0  0  0  0  0  0  0  0  0
  -28.7062  -19.3291   21.2981 C   0  0  0  0  0  0  0  0  0  0  0  0
  -18.7816  -27.6855   23.8823 C   0  0  0  0  0  0  0  0  0  0  0  0
  -18.8274  -28.8334   21.7569 C   0  0  0  0  0  0  0  0  0  0  0  0
  -29.1308  -20.4060   20.5211 C   0  0  0  0  0  0  0  0  0  0  0  0
  -15.1959  -27.5800   24.4711 C   0  0  0  0  0  0  0  0  0  0  0  0
  -14.4046  -26.5011   24.8652 C   0  0  0  0  0  0  0  0  0  0  0  0
  -26.8369  -20.8966   19.9583 C   0  0  0  0  0  0  0  0  0  0  0  0
  -29.2902  -28.7216   17.8712 C   0  0  0  0  0  0  0  0  0  0  0  0
  -15.1919  -25.2305   22.9671 C   0  0  0  0  0  0  0  0  0  0  0  0
  -20.8716  -27.9580   22.7014 C   0  0  0  0  0  0  0  0  0  0  0  0
  -22.9631  -26.6549   22.0418 C   0  0  0  0  0  0  0  0  0  0  0  0
  -26.3531  -11.8074   20.4691 C   0  0  0  0  0  0  0  0  0  0  0  0
  -27.3422  -19.0207   21.4025 C   0  0  0  0  0  0  0  0  0  0  0  0
  -26.8173  -13.0878   20.1122 C   0  0  0  0  0  0  0  0  0  0  0  0
  -26.3974  -19.8168   20.7393 C   0  0  0  0  0  0  0  0  0  0  0  0
  -29.4908  -27.5022   17.1784 C   0  0  0  0  0  0  0  0  0  0  0  0
  -18.1155  -28.3600   22.8590 C   0  0  0  0  0  0  0  0  0  0  0  0
  -28.1963  -21.1882   19.8487 C   0  0  0  0  0  0  0  0  0  0  0  0
  -15.9851  -27.4843   23.3250 C   0  0  0  0  0  0  0  0  0  0  0  0
  -14.4026  -25.3263   24.1132 C   0  0  0  0  0  0  0  0  0  0  0  0
  -15.9832  -26.3095   22.5730 C   0  0  0  0  0  0  0  0  0  0  0  0
  -22.2952  -27.7512   22.6196 C   0  0  0  0  0  0  0  0  0  0  0  0
  -30.1894  -26.6625   18.0175 C   0  0  0  0  0  0  0  0  0  0  0  0
  -29.8725  -28.5900   19.1125 C   0  0  0  0  0  0  0  0  0  0  0  0
  -24.2964  -26.9327   22.2196 C   0  0  0  0  0  0  0  0  0  0  0  0
  -22.4263  -25.4898   21.4014 C   0  0  0  0  0  0  0  0  0  0  0  0
  -30.6406  -25.2729   17.7483 C   0  0  0  0  0  0  0  0  0  0  0  0
  -25.5428  -16.5175   20.6280 C   0  0  0  0  0  0  0  0  0  0  0  0
  -23.2260  -18.2064   22.1455 C   0  0  0  0  0  0  0  0  0  0  0  0
  -22.0628  -21.2419   23.1843 C   0  0  0  0  0  0  0  0  0  0  0  0
  -28.5869  -30.4985   22.0709 C   0  0  0  0  0  0  0  0  0  0  0  0
  -24.8860  -11.4587   20.4397 C   0  0  0  0  0  0  0  0  0  0  0  0
  -26.8985  -17.8720   22.2661 C   0  0  0  0  0  0  0  0  0  0  0  0
  -24.9200  -19.5400   20.8350 C   0  0  0  0  0  0  0  0  0  0  0  0
  -23.9699  -12.6798   20.4293 C   0  0  0  0  0  0  0  0  0  0  0  0
  -26.5762  -30.4833   25.0092 C   0  0  0  0  0  0  0  0  0  0  0  0
  -24.4568  -13.7038   19.4090 C   0  0  0  0  0  0  0  0  0  0  0  0
  -25.3363  -29.6864   24.5999 C   0  0  0  0  0  0  0  0  0  0  0  0
  -27.0982  -31.3443   23.8611 C   0  0  0  0  0  0  0  0  0  0  0  0
  -26.1138  -29.8169   22.1963 C   0  0  0  0  0  0  0  0  0  0  0  0
  -25.8619  -14.2075   19.7603 C   0  0  1  0  0  0  0  0  0  0  0  0
  -25.5210  -17.3368   21.8873 C   0  0  1  0  0  0  0  0  0  0  0  0
  -25.5837  -28.8907   23.3042 C   0  0  2  0  0  0  0  0  0  0  0  0
  -29.0296  -27.2006   15.8080 C   0  0  0  0  0  0  0  0  0  0  0  0
  -20.1228  -22.3089   24.3656 C   0  0  0  0  0  0  0  0  0  0  0  0
  -30.9892  -25.7637   22.6563 C   0  0  0  0  0  0  0  0  0  0  0  0
  -29.2432  -25.2509   20.9375 C   0  0  0  0  0  0  0  0  0  0  0  0
  -21.5266  -17.8955   19.6305 C   0  0  0  0  0  0  0  0  0  0  0  0
  -20.0539  -19.7320   20.4828 C   0  0  0  0  0  0  0  0  0  0  0  0
  -20.2751  -17.6109   21.7769 C   0  0  0  0  0  0  0  0  0  0  0  0
  -23.7973  -22.2677   25.3518 C   0  0  0  0  0  0  0  0  0  0  0  0
  -29.9548  -29.5569   20.2266 C   0  0  0  0  0  0  0  0  0  0  0  0
  -31.1236  -26.8000   20.3350 C   0  0  0  0  0  0  0  0  0  0  0  0
  -29.9171  -22.9623   17.2063 C   0  0  0  0  0  0  0  0  0  0  0  0
  -29.8945  -22.1362   18.4799 C   0  0  0  0  0  0  0  0  0  1  0  0
  -22.2082  -19.2396   21.7268 C   0  0  1  0  0  0  0  0  0  0  0  0
  -21.5102  -21.7055   24.5201 C   0  0  2  0  0  0  0  0  0  0  0  0
  -30.2003  -26.3198   21.4688 C   0  0  0  0  0  0  0  0  0  0  0  0
  -21.0439  -18.6238   20.9007 C   0  0  0  0  0  0  0  0  0  0  0  0
  -23.1349  -28.6576   23.1268 N   0  0  0  0  0  0  0  0  0  0  0  0
  -30.4163  -27.3344   19.1902 N   0  0  0  0  0  0  0  0  0  0  0  0
  -24.3442  -28.1315   22.8682 N   0  0  0  0  0  0  0  0  0  0  0  0
  -24.5364  -18.4020   21.6867 N   0  0  0  0  0  0  0  0  0  0  0  0
  -27.3135  -30.5293   22.6631 N   0  0  0  0  0  0  0  0  0  0  0  0
  -25.4209  -26.2659   21.8829 N   0  0  0  0  0  0  0  0  0  0  0  0
  -21.0340  -25.3628   21.3036 N   0  0  0  0  0  0  0  0  0  0  0  0
  -29.6411  -24.3507   17.4644 N   0  0  0  0  0  0  0  0  0  0  0  0
  -25.7981  -15.1752   20.8345 N   0  0  0  0  0  0  0  0  0  0  0  0
  -21.7828  -19.9123   22.9495 N   0  0  0  0  0  0  0  0  0  0  0  0
  -28.7064  -29.6962   20.9427 N   0  0  0  0  0  0  0  0  0  0  0  0
  -22.4055  -22.7335   25.1223 N   0  3  0  0  0  0  0  0  0  0  0  0
  -23.1594  -24.5802   20.9445 O   0  0  0  0  0  0  0  0  0  0  0  0
  -31.8386  -25.0088   17.8082 O   0  0  0  0  0  0  0  0  0  0  0  0
  -25.3414  -17.0624   19.5491 O   0  0  0  0  0  0  0  0  0  0  0  0
  -22.8730  -17.2643   22.8594 O   0  0  0  0  0  0  0  0  0  0  0  0
  -22.6778  -21.9858   22.4235 O   0  0  0  0  0  0  0  0  0  0  0  0
  -29.5475  -31.1344   22.5178 O   0  0  0  0  0  0  0  0  0  0  0  0
  -16.7708  -28.5561   22.9355 O   0  0  0  0  0  0  0  0  0  0  0  0
  -28.6081  -22.2395   19.0891 O   0  0  0  0  0  0  0  0  0  1  0  0
  -13.6439  -24.2897   24.4926 F   0  0  0  0  0  0  0  0  0  0  0  0
  -16.7402  -26.2111   21.4716 F   0  0  0  0  0  0  0  0  0  0  0  0
  1  2  1  0  0  0  0
  1  5  2  0  0  0  0
  2  6  2  0  0  0  0
  3  8  2  0  0  0  0
  3 16  1  0  0  0  0
  4  9  1  0  0  0  0
  4 16  2  0  0  0  0
  5 18  1  0  0  0  0
  6 20  1  0  0  0  0
  7 10  2  0  0  0  0
  7 19  1  0  0  0  0
  8 23  1  0  0  0  0
  9 23  2  0  0  0  0
 10 24  1  0  0  0  0
 11 12  2  0  0  0  0
 11 25  1  0  0  0  0
 12 26  1  0  0  0  0
 13 21  1  0  0  0  0
 13 24  2  0  0  0  0
 14 22  1  0  0  0  0
 14 30  2  0  0  0  0
 15 26  2  0  0  0  0
 15 27  1  0  0  0  0
 16 28  1  0  0  0  0
 17 28  1  0  0  0  0
 17 31  2  0  0  0  0
 17 32  1  0  0  0  0
 18 20  2  0  0  0  0
 18 38  1  0  0  0  0
 19 21  2  0  0  0  0
 19 39  1  0  0  0  0
 20 47  1  0  0  0  0
 21 40  1  0  0  0  0
 22 29  2  0  0  0  0
 22 50  1  0  0  0  0
 23 84  1  0  0  0  0
 24 85  1  0  0  0  0
 25 27  2  0  0  0  0
 25 84  1  0  0  0  0
 26 86  1  0  0  0  0
 27 87  1  0  0  0  0
 28 66  2  0  0  0  0
 29 33  1  0  0  0  0
 29 67  1  0  0  0  0
 30 58  1  0  0  0  0
 30 67  1  0  0  0  0
 31 68  1  0  0  0  0
 31 71  1  0  0  0  0
 32 72  1  0  0  0  0
 32 78  2  0  0  0  0
 33 73  1  0  0  0  0
 33 79  2  0  0  0  0
 34 48  1  0  0  0  0
 34 74  1  0  0  0  0
 34 80  2  0  0  0  0
 35 62  1  0  0  0  0
 35 69  1  0  0  0  0
 35 81  2  0  0  0  0
 36 63  1  0  0  0  0
 36 75  1  0  0  0  0
 36 82  2  0  0  0  0
 37 70  1  0  0  0  0
 37 76  1  0  0  0  0
 37 83  2  0  0  0  0
 38 41  1  0  0  0  0
 39 48  1  0  0  0  0
 40 69  1  0  0  0  0
 41 43  1  0  0  0  0
 42 44  1  0  0  0  0
 42 45  1  0  0  0  0
 43 47  1  0  0  0  0
 44 49  1  0  0  0  0
 45 70  1  0  0  0  0
 46 49  1  0  0  0  0
 46 70  1  0  0  0  0
 47 74  1  0  0  0  0
 48 69  1  0  0  0  0
 49 68  1  0  0  0  0
 51 63  1  0  0  0  0
 52 64  1  0  0  0  0
 53 64  1  0  0  0  0
 54 65  1  0  0  0  0
 55 65  1  0  0  0  0
 56 65  1  0  0  0  0
 57 77  1  0  0  0  0
 58 76  1  0  0  0  0
 59 64  1  0  0  0  0
 59 67  1  0  0  0  0
 60 61  1  0  0  0  0
 60 73  1  0  0  0  0
 61 85  1  0  0  0  0
 62 65  1  0  0  0  0
 62 75  1  0  0  0  0
 63 77  1  0  0  0  0
 66 68  1  0  0  0  0
M  CHG  1  77   1
M  ISO  4  37 100  61 101  76 100  85 101
M  END
> <Batch ID>
0111

> <Smiles>
CNC(C)C(=O)NC(C(=O)N1Cc2cc([101O:1][101CH2:1]CNC(=O)c3c(C)cc(C[100NH:0][100C:0](=O)N4CCCC(n5nc(-c6ccc(Oc7ccc(F)cc7F)cc6)c(C(N)=O)c5N)C4)n3CC(C)C)ccc2CC1C(=O)NC1CCCc2ccccc21)C(C)(C)C

> <Shape>
0.230

> <Color>
0.067

> <Negative vol penalty>
0.000

$$$$

  -OEChem-04052320013D

 84 92  0     1  0  0  0  0  0999 V2000
  -19.2991   -8.8469   21.4072 C   0  0  0  0  0  0  0  0  0  0  0  0
  -20.1821   -9.5081   22.2550 C   0  0  0  0  0  0  0  0  0  0  0  0
  -26.0410  -27.6324   18.8730 C   0  0  0  0  0  0  0  0  0  0  0  0
  -26.4083  -27.3947   21.2491 C   0  0  0  0  0  0  0  0  0  0  0  0
  -19.7399   -8.3817   20.1690 C   0  0  0  0  0  0  0  0  0  0  0  0
  -21.5066   -9.7035   21.8654 C   0  0  0  0  0  0  0  0  0  0  0  0
  -23.1389  -14.4017   22.8183 C   0  0  0  0  0  0  0  0  0  0  0  0
  -25.5052  -28.9030   19.0829 C   0  0  0  0  0  0  0  0  0  0  0  0
  -25.8724  -28.6653   21.4590 C   0  0  0  0  0  0  0  0  0  0  0  0
  -23.4897  -14.6991   24.1345 C   0  0  0  0  0  0  0  0  0  0  0  0
  -26.8901  -31.8749   21.1695 C   0  0  0  0  0  0  0  0  0  0  0  0
  -27.5709  -32.7284   22.0376 C   0  0  0  0  0  0  0  0  0  0  0  0
  -25.8173  -14.4011   23.5750 C   0  0  0  0  0  0  0  0  0  0  0  0
  -25.6169  -32.8468   23.4536 C   0  0  0  0  0  0  0  0  0  0  0  0
  -26.4925  -26.8782   19.9561 C   0  0  0  0  0  0  0  0  0  0  0  0
  -28.3940  -25.2401   19.4992 C   0  0  0  0  0  0  0  0  0  0  0  0
  -21.0680   -8.5800   19.7599 C   0  0  0  0  0  0  0  0  0  0  0  0
  -24.1255  -14.0905   21.8717 C   0  0  0  0  0  0  0  0  0  0  0  0
  -21.9659   -9.2394   20.6210 C   0  0  0  0  0  0  0  0  0  0  0  0
  -25.4765  -14.1025   22.2469 C   0  0  0  0  0  0  0  0  0  0  0  0
  -25.4209  -29.4195   20.3758 C   0  0  0  0  0  0  0  0  0  0  0  0
  -24.8288  -14.6960   24.5137 C   0  0  0  0  0  0  0  0  0  0  0  0
  -25.5726  -31.5074   21.4434 C   0  0  0  0  0  0  0  0  0  0  0  0
  -26.9344  -33.2143   23.1797 C   0  0  0  0  0  0  0  0  0  0  0  0
  -24.9361  -31.9934   22.5855 C   0  0  0  0  0  0  0  0  0  0  0  0
  -27.0456  -25.5654   19.7400 C   0  0  0  0  0  0  0  0  0  0  0  0
  -28.3983  -23.8734   19.3627 C   0  0  0  0  0  0  0  0  0  0  0  0
  -29.5400  -26.0967   19.4073 C   0  0  0  0  0  0  0  0  0  0  0  0
  -24.8053  -11.5443   20.0944 C   0  0  0  0  0  0  0  0  0  0  0  0
  -27.0191  -13.5274   18.7947 C   0  0  0  0  0  0  0  0  0  0  0  0
  -29.5450  -16.0962   18.9903 C   0  0  0  0  0  0  0  0  0  0  0  0
  -25.8018  -19.1602   21.4976 C   0  0  0  0  0  0  0  0  0  0  0  0
  -21.5104   -8.0175   18.4323 C   0  0  0  0  0  0  0  0  0  0  0  0
  -23.7325  -13.7980   20.4496 C   0  0  0  0  0  0  0  0  0  0  0  0
  -26.5754  -13.7950   21.2639 C   0  0  0  0  0  0  0  0  0  0  0  0
  -22.8334   -8.5954   17.9364 C   0  0  0  0  0  0  0  0  0  0  0  0
  -24.9785  -20.4681   18.2901 C   0  0  0  0  0  0  0  0  0  0  0  0
  -29.2413  -17.6350   24.7115 C   0  0  0  0  0  0  0  0  0  0  0  0
  -23.8653   -8.6070   19.0597 C   0  0  0  0  0  0  0  0  0  0  0  0
  -25.5529  -21.8856   18.3146 C   0  0  0  0  0  0  0  0  0  0  0  0
  -28.7227  -18.6686   23.7163 C   0  0  0  0  0  0  0  0  0  0  0  0
  -24.4182  -20.0626   19.6516 C   0  0  0  0  0  0  0  0  0  0  0  0
  -25.9333  -21.6291   20.8022 C   0  0  0  0  0  0  0  0  0  0  0  0
  -28.3598  -17.5486   25.9481 C   0  0  0  0  0  0  0  0  0  0  0  0
  -26.3843  -18.3183   24.6025 C   0  0  0  0  0  0  0  0  0  0  0  0
  -23.4039   -9.4925   20.2235 C   0  0  1  0  0  0  0  0  0  0  0  0
  -24.7838  -12.9921   19.6928 C   0  0  1  0  0  0  0  0  0  0  0  0
  -26.5608  -22.0623   19.4662 C   0  0  2  0  0  0  0  0  0  0  0  0
  -27.2603  -18.4034   23.3553 C   0  0  1  0  0  0  0  0  0  0  0  0
  -30.8736  -17.2190   17.1816 C   0  0  0  0  0  0  0  0  0  0  0  0
  -24.3629  -14.7114   30.9080 C   0  0  0  0  0  0  0  0  0  0  0  0
  -22.5610  -13.8856   29.3442 C   0  0  0  0  0  0  0  0  0  0  0  0
  -29.1090  -11.3891   19.4030 C   0  0  0  0  0  0  0  0  0  0  0  0
  -30.8817  -13.1240   19.0627 C   0  0  0  0  0  0  0  0  0  0  0  0
  -29.3709  -12.5007   17.1781 C   0  0  0  0  0  0  0  0  0  0  0  0
  -28.6801  -18.7879   19.8655 C   0  0  0  0  0  0  0  0  0  0  0  0
  -26.0440  -17.0482   26.7229 C   0  0  0  0  0  0  0  0  0  0  0  0
  -23.8073  -16.0605   27.4371 C   0  0  0  0  0  0  0  0  0  0  0  0
  -28.4579  -13.8688   19.0982 C   0  0  1  0  0  0  0  0  0  0  0  0
  -29.6667  -17.3206   18.1013 C   0  0  2  0  0  0  0  0  0  0  0  0
  -23.5090  -15.0229   29.6895 C   0  0  0  0  0  0  0  0  0  0  0  0
  -24.8021  -16.2696   26.2967 C   0  0  2  0  0  0  0  0  0  1  0  0
  -29.4343  -12.7246   18.7048 C   0  0  0  0  0  0  0  0  0  0  0  0
  -26.2511  -24.4919   19.7559 N   0  0  0  0  0  0  0  0  0  0  0  0
  -27.1028  -23.4786   19.5234 N   0  0  0  0  0  0  0  0  0  0  0  0
  -26.1400  -13.5091   19.8868 N   0  0  0  0  0  0  0  0  0  0  0  0
  -25.4240  -20.2526   20.6995 N   0  0  0  0  0  0  0  0  0  0  0  0
  -29.3840  -22.9829   19.1220 N   0  0  0  0  0  0  0  0  0  0  0  0
  -29.3579  -27.4765   19.5728 N   0  0  0  0  0  0  0  0  0  0  0  0
  -23.6030  -10.8901   19.9051 N   0  0  0  0  0  0  0  0  0  0  0  0
  -28.7256  -15.1385   18.4313 N   0  0  0  0  0  0  0  0  0  0  0  0
  -26.7655  -19.4252   22.4629 N   0  0  0  0  0  0  0  0  0  0  0  0
  -26.9375  -17.2616   25.5318 N   0  3  2  0  0  0  0  0  0  0  0  0
  -29.8098  -18.5506   18.9304 N   0  3  0  0  0  0  0  0  0  0  0  0
  -24.4103  -15.2547   28.5286 N   0  3  0  0  0  0  0  0  0  0  0  0
  -30.6890  -25.6534   19.1688 O   0  0  0  0  0  0  0  0  0  0  0  0
  -25.8368  -11.0566   20.5414 O   0  0  0  0  0  0  0  0  0  0  0  0
  -26.6859  -13.2926   17.6304 O   0  0  0  0  0  0  0  0  0  0  0  0
  -30.1223  -15.9976   20.0709 O   0  0  0  0  0  0  0  0  0  0  0  0
  -25.3201  -18.0310   21.3566 O   0  0  0  0  0  0  0  0  0  0  0  0
  -24.8983  -30.6594   20.5810 O   0  0  0  0  0  0  0  0  0  0  0  0
  -25.1740  -14.9854   25.7979 O   0  0  0  0  0  0  0  0  0  1  0  0
  -27.5888  -34.0327   24.0140 F   0  0  0  0  0  0  0  0  0  0  0  0
  -23.6709  -31.6429   22.8545 F   0  0  0  0  0  0  0  0  0  0  0  0
  1  2  1  0  0  0  0
  1  5  2  0  0  0  0
  2  6  2  0  0  0  0
  3  8  2  0  0  0  0
  3 15  1  0  0  0  0
  4  9  1  0  0  0  0
  4 15  2  0  0  0  0
  5 17  1  0  0  0  0
  6 19  1  0  0  0  0
  7 10  2  0  0  0  0
  7 18  1  0  0  0  0
  8 21  1  0  0  0  0
  9 21  2  0  0  0  0
 10 22  1  0  0  0  0
 11 12  2  0  0  0  0
 11 23  1  0  0  0  0
 12 24  1  0  0  0  0
 13 20  1  0  0  0  0
 13 22  2  0  0  0  0
 14 24  2  0  0  0  0
 14 25  1  0  0  0  0
 15 26  1  0  0  0  0
 16 26  1  0  0  0  0
 16 27  2  0  0  0  0
 16 28  1  0  0  0  0
 17 19  2  0  0  0  0
 17 33  1  0  0  0  0
 18 20  2  0  0  0  0
 18 34  1  0  0  0  0
 19 46  1  0  0  0  0
 20 35  1  0  0  0  0
 21 81  1  0  0  0  0
 22 82  1  0  0  0  0
 23 25  2  0  0  0  0
 23 81  1  0  0  0  0
 24 83  1  0  0  0  0
 25 84  1  0  0  0  0
 26 64  2  0  0  0  0
 27 65  1  0  0  0  0
 27 68  1  0  0  0  0
 28 69  1  0  0  0  0
 28 76  2  0  0  0  0
 29 47  1  0  0  0  0
 29 70  1  0  0  0  0
 29 77  2  0  0  0  0
 30 59  1  0  0  0  0
 30 66  1  0  0  0  0
 30 78  2  0  0  0  0
 31 60  1  0  0  0  0
 31 71  1  0  0  0  0
 31 79  2  0  0  0  0
 32 67  1  0  0  0  0
 32 72  1  0  0  0  0
 32 80  2  0  0  0  0
 33 36  1  0  0  0  0
 34 47  1  0  0  0  0
 35 66  1  0  0  0  0
 36 39  1  0  0  0  0
 37 40  1  0  0  0  0
 37 42  1  0  0  0  0
 38 41  1  0  0  0  0
 38 44  1  0  0  0  0
 39 46  1  0  0  0  0
 40 48  1  0  0  0  0
 41 49  1  0  0  0  0
 42 67  1  0  0  0  0
 43 48  1  0  0  0  0
 43 67  1  0  0  0  0
 44 73  1  0  0  0  0
 45 49  1  0  0  0  0
 45 73  1  0  0  0  0
 46 70  1  0  0  0  0
 47 66  1  0  0  0  0
 48 65  1  0  0  0  0
 49 72  1  0  0  0  0
 50 60  1  0  0  0  0
 51 61  1  0  0  0  0
 52 61  1  0  0  0  0
 53 63  1  0  0  0  0
 54 63  1  0  0  0  0
 55 63  1  0  0  0  0
 56 74  1  0  0  0  0
 57 62  1  0  0  0  0
 57 73  1  0  0  0  0
 58 62  1  0  0  0  0
 58 75  1  0  0  0  0
 59 63  1  0  0  0  0
 59 71  1  0  0  0  0
 60 74  1  0  0  0  0
 61 75  1  0  0  0  0
 62 82  1  0  0  0  0
 64 65  1  0  0  0  0
M  CHG  3  73   1  74   1  75   1
M  ISO  4  32 100  62 101  72 100  82 101
M  END
> <Batch ID>
0111

> <Smiles>
CNC(C)C(=O)NC(C(=O)N1Cc2cc([101O:1][101CH:1](CNC(C)C)CN3CCCC([100NH:0][100C:0](=O)N4CCCC(n5nc(-c6ccc(Oc7ccc(F)cc7F)cc6)c(C(N)=O)c5N)C4)C3)ccc2CC1C(=O)NC1CCCc2ccccc21)C(C)(C)C

> <Shape>
0.227

> <Color>
0.066

> <Negative vol penalty>
0.000

$$$$

  -OEChem-04052320013D

 75 82  0     1  0  0  0  0  0999 V2000
  -20.5593  -18.1061   27.8988 C   0  0  0  0  0  0  0  0  0  0  0  0
  -21.9140  -18.1780   27.5901 C   0  0  0  0  0  0  0  0  0  0  0  0
  -23.1976   -9.8534   19.9553 C   0  0  0  0  0  0  0  0  0  0  0  0
  -23.9054   -9.9359   22.2638 C   0  0  0  0  0  0  0  0  0  0  0  0
  -20.0550  -16.9880   28.5616 C   0  0  0  0  0  0  0  0  0  0  0  0
  -22.7653  -17.1323   27.9452 C   0  0  0  0  0  0  0  0  0  0  0  0
  -25.9355  -15.8539   24.2088 C   0  0  0  0  0  0  0  0  0  0  0  0
  -22.5043   -8.6703   20.2101 C   0  0  0  0  0  0  0  0  0  0  0  0
  -23.2120   -8.7527   22.5186 C   0  0  0  0  0  0  0  0  0  0  0  0
  -27.0426  -16.6761   24.0039 C   0  0  0  0  0  0  0  0  0  0  0  0
  -20.2504   -5.8209   20.3370 C   0  0  0  0  0  0  0  0  0  0  0  0
  -18.9596   -5.7018   19.8220 C   0  0  0  0  0  0  0  0  0  0  0  0
  -28.4225  -15.1087   25.2116 C   0  0  0  0  0  0  0  0  0  0  0  0
  -18.2733   -7.6374   21.0947 C   0  0  0  0  0  0  0  0  0  0  0  0
  -23.8982  -10.4863   20.9821 C   0  0  0  0  0  0  0  0  0  0  0  0
  -24.1217  -13.0225   20.8239 C   0  0  0  0  0  0  0  0  0  0  0  0
  -20.8989  -15.9237   28.9165 C   0  0  0  0  0  0  0  0  0  0  0  0
  -26.0615  -14.6562   24.9272 C   0  0  0  0  0  0  0  0  0  0  0  0
  -22.2720  -15.9995   28.6147 C   0  0  0  0  0  0  0  0  0  0  0  0
  -27.3159  -14.2718   25.4220 C   0  0  0  0  0  0  0  0  0  0  0  0
  -22.5115   -8.1199   21.4917 C   0  0  0  0  0  0  0  0  0  0  0  0
  -28.2858  -16.3050   24.5078 C   0  0  0  0  0  0  0  0  0  0  0  0
  -20.5526   -6.8482   21.2310 C   0  0  0  0  0  0  0  0  0  0  0  0
  -17.9711   -6.6101   20.2008 C   0  0  0  0  0  0  0  0  0  0  0  0
  -19.5641   -7.7564   21.6097 C   0  0  0  0  0  0  0  0  0  0  0  0
  -24.6151  -11.7082   20.7194 C   0  0  0  0  0  0  0  0  0  0  0  0
  -25.1846  -13.8174   20.4705 C   0  0  0  0  0  0  0  0  0  0  0  0
  -22.8191  -13.4837   21.2063 C   0  0  0  0  0  0  0  0  0  0  0  0
  -24.8246  -13.5180   27.6250 C   0  0  0  0  0  0  0  0  0  0  0  0
  -26.3618  -10.8060   26.7281 C   0  0  0  0  0  0  0  0  0  0  0  0
  -28.8800   -9.3613   24.9342 C   0  0  0  0  0  0  0  0  0  0  0  0
  -30.9478  -14.0534   20.9647 C   0  0  0  0  0  0  0  0  0  0  0  0
  -20.3164  -14.7569   29.6741 C   0  0  0  0  0  0  0  0  0  0  0  0
  -24.8630  -13.7674   25.1166 C   0  0  0  0  0  0  0  0  0  0  0  0
  -27.5084  -12.9861   26.1825 C   0  0  0  0  0  0  0  0  0  0  0  0
  -21.2177  -13.5249   29.6822 C   0  0  0  0  0  0  0  0  0  0  0  0
  -29.3605  -13.1190   17.9177 C   0  0  0  0  0  0  0  0  0  0  0  0
  -22.6540  -13.9165   30.0149 C   0  0  0  0  0  0  0  0  0  0  0  0
  -27.9291  -12.7821   18.3393 C   0  0  0  0  0  0  0  0  0  0  0  0
  -30.3757  -12.6921   18.9757 C   0  0  0  0  0  0  0  0  0  0  0  0
  -28.6784  -12.8695   20.7538 C   0  0  0  0  0  0  0  0  0  0  0  0
  -23.2228  -14.8744   28.9613 C   0  0  1  0  0  0  0  0  0  0  0  0
  -25.0023  -12.8216   26.3055 C   0  0  1  0  0  0  0  0  0  0  0  0
  -27.6142  -13.3315   19.7437 C   0  0  2  0  0  0  0  0  0  0  0  0
  -30.2677   -7.5279   23.9290 C   0  0  0  0  0  0  0  0  0  0  0  0
  -29.6157  -18.8646   22.6992 C   0  0  0  0  0  0  0  0  0  0  0  0
  -27.6875  -10.7976   29.4763 C   0  0  0  0  0  0  0  0  0  0  0  0
  -29.3610   -9.1616   28.5869 C   0  0  0  0  0  0  0  0  0  0  0  0
  -26.9441   -8.5501   28.6698 C   0  0  0  0  0  0  0  0  0  0  0  0
  -27.1643   -9.2243   22.5266 C   0  0  0  0  0  0  0  0  0  0  0  0
  -31.1723  -16.8755   22.7016 C   0  0  0  0  0  0  0  0  0  0  0  0
  -31.3687  -15.3927   23.0112 C   0  0  0  0  0  0  0  0  0  0  0  0
  -27.7390  -10.2320   26.9577 C   0  0  1  0  0  0  0  0  0  0  0  0
  -28.8910   -8.1710   23.9920 C   0  0  2  0  0  0  0  0  0  0  0  0
  -29.7427  -17.3690   22.9582 C   0  0  1  0  0  0  0  0  0  1  0  0
  -27.9292   -9.7106   28.4100 C   0  0  0  0  0  0  0  0  0  0  0  0
  -25.8920  -11.6663   20.3299 N   0  0  0  0  0  0  0  0  0  0  0  0
  -26.2100  -12.9641   20.1865 N   0  0  0  0  0  0  0  0  0  0  0  0
  -26.3050  -12.1541   26.3470 N   0  0  0  0  0  0  0  0  0  0  0  0
  -30.0204  -13.2476   20.2838 N   0  0  0  0  0  0  0  0  0  0  0  0
  -25.3328  -15.1560   20.3780 N   0  0  0  0  0  0  0  0  0  0  0  0
  -21.8445  -12.5327   21.5383 N   0  0  0  0  0  0  0  0  0  0  0  0
  -23.6026  -14.1468   27.7693 N   0  0  0  0  0  0  0  0  0  0  0  0
  -27.9351   -9.2172   25.9280 N   0  0  0  0  0  0  0  0  0  0  0  0
  -30.5288  -14.5445   22.1951 N   0  0  0  0  0  0  0  0  0  0  0  0
  -28.5074   -8.5960   22.6161 N   0  3  0  0  0  0  0  0  0  0  0  0
  -22.5232  -14.7023   21.2364 O   0  0  0  0  0  0  0  0  0  0  0  0
  -25.7286  -13.4859   28.4517 O   0  0  0  0  0  0  0  0  0  0  0  0
  -25.3731  -10.0829   26.8744 O   0  0  0  0  0  0  0  0  0  0  0  0
  -29.6366  -10.3210   24.8039 O   0  0  0  0  0  0  0  0  0  0  0  0
  -32.0644  -14.3200   20.5073 O   0  0  0  0  0  0  0  0  0  0  0  0
  -21.8348   -6.9655   21.7408 O   0  0  0  0  0  0  0  0  0  0  0  0
  -29.3680  -17.1059   24.3098 O   0  0  0  0  0  0  0  0  0  1  0  0
  -16.7320   -6.4966   19.7049 F   0  0  0  0  0  0  0  0  0  0  0  0
  -19.8488   -8.7461   22.4672 F   0  0  0  0  0  0  0  0  0  0  0  0
  1  2  1  0  0  0  0
  1  5  2  0  0  0  0
  2  6  2  0  0  0  0
  3  8  2  0  0  0  0
  3 15  1  0  0  0  0
  4  9  1  0  0  0  0
  4 15  2  0  0  0  0
  5 17  1  0  0  0  0
  6 19  1  0  0  0  0
  7 10  2  0  0  0  0
  7 18  1  0  0  0  0
  8 21  1  0  0  0  0
  9 21  2  0  0  0  0
 10 22  1  0  0  0  0
 11 12  2  0  0  0  0
 11 23  1  0  0  0  0
 12 24  1  0  0  0  0
 13 20  1  0  0  0  0
 13 22  2  0  0  0  0
 14 24  2  0  0  0  0
 14 25  1  0  0  0  0
 15 26  1  0  0  0  0
 16 26  1  0  0  0  0
 16 27  2  0  0  0  0
 16 28  1  0  0  0  0
 17 19  2  0  0  0  0
 17 33  1  0  0  0  0
 18 20  2  0  0  0  0
 18 34  1  0  0  0  0
 19 42  1  0  0  0  0
 20 35  1  0  0  0  0
 21 72  1  0  0  0  0
 22 73  1  0  0  0  0
 23 25  2  0  0  0  0
 23 72  1  0  0  0  0
 24 74  1  0  0  0  0
 25 75  1  0  0  0  0
 26 57  2  0  0  0  0
 27 58  1  0  0  0  0
 27 61  1  0  0  0  0
 28 62  1  0  0  0  0
 28 67  2  0  0  0  0
 29 43  1  0  0  0  0
 29 63  1  0  0  0  0
 29 68  2  0  0  0  0
 30 53  1  0  0  0  0
 30 59  1  0  0  0  0
 30 69  2  0  0  0  0
 31 54  1  0  0  0  0
 31 64  1  0  0  0  0
 31 70  2  0  0  0  0
 32 60  1  0  0  0  0
 32 65  1  0  0  0  0
 32 71  2  0  0  0  0
 33 36  1  0  0  0  0
 34 43  1  0  0  0  0
 35 59  1  0  0  0  0
 36 38  1  0  0  0  0
 37 39  1  0  0  0  0
 37 40  1  0  0  0  0
 38 42  1  0  0  0  0
 39 44  1  0  0  0  0
 40 60  1  0  0  0  0
 41 44  1  0  0  0  0
 41 60  1  0  0  0  0
 42 63  1  0  0  0  0
 43 59  1  0  0  0  0
 44 58  1  0  0  0  0
 45 54  1  0  0  0  0
 46 55  1  0  0  0  0
 47 56  1  0  0  0  0
 48 56  1  0  0  0  0
 49 56  1  0  0  0  0
 50 66  1  0  0  0  0
 51 52  1  0  0  0  0
 51 55  1  0  0  0  0
 52 65  1  0  0  0  0
 53 56  1  0  0  0  0
 53 64  1  0  0  0  0
 54 66  1  0  0  0  0
 55 73  1  0  0  0  0
 57 58  1  0  0  0  0
M  CHG  1  66   1
M  ISO  4  32 100  55 101  65 100  73 101
M  END
> <Batch ID>
0111

> <Smiles>
CNC(C)C(=O)NC(C(=O)N1Cc2cc([101O:1][101CH:1](C)CC[100NH:0][100C:0](=O)N3CCCC(n4nc(-c5ccc(Oc6ccc(F)cc6F)cc5)c(C(N)=O)c4N)C3)ccc2CC1C(=O)NC1CCCc2ccccc21)C(C)(C)C

> <Shape>
0.150

> <Color>
0.197

> <Negative vol penalty>
0.000

$$$$

  -OEChem-04052320013D

 80 88  0     1  0  0  0  0  0999 V2000
  -29.3647  -35.0825   23.8241 C   0  0  0  0  0  0  0  0  0  0  0  0
  -29.9526  -34.0020   23.1743 C   0  0  0  0  0  0  0  0  0  0  0  0
  -24.2422   -9.3268   21.4759 C   0  0  0  0  0  0  0  0  0  0  0  0
  -24.7687  -10.5746   23.4766 C   0  0  0  0  0  0  0  0  0  0  0  0
  -28.1413  -34.9225   24.4733 C   0  0  0  0  0  0  0  0  0  0  0  0
  -29.3179  -32.7604   23.1743 C   0  0  0  0  0  0  0  0  0  0  0  0
  -28.4281  -26.9452   19.0868 C   0  0  0  0  0  0  0  0  0  0  0  0
  -23.9208   -8.2147   22.2540 C   0  0  0  0  0  0  0  0  0  0  0  0
  -24.4474   -9.4624   24.2548 C   0  0  0  0  0  0  0  0  0  0  0  0
  -28.5518  -25.5577   19.1462 C   0  0  0  0  0  0  0  0  0  0  0  0
  -21.3182   -7.1604   24.1375 C   0  0  0  0  0  0  0  0  0  0  0  0
  -20.1492   -6.4666   23.8251 C   0  0  0  0  0  0  0  0  0  0  0  0
  -26.4027  -25.4186   20.2330 C   0  0  0  0  0  0  0  0  0  0  0  0
  -27.7404  -20.6854   18.7587 C   0  0  0  0  0  0  0  0  0  0  0  0
  -21.4438   -4.4670   23.4216 C   0  0  0  0  0  0  0  0  0  0  0  0
  -24.6662  -10.5068   22.0872 C   0  0  0  0  0  0  0  0  0  0  0  0
  -24.1309  -12.6844   20.8711 C   0  0  0  0  0  0  0  0  0  0  0  0
  -27.4865  -33.6807   24.4731 C   0  0  0  0  0  0  0  0  0  0  0  0
  -27.2938  -27.5817   19.6108 C   0  0  0  0  0  0  0  0  0  0  0  0
  -28.0852  -32.5833   23.8253 C   0  0  0  0  0  0  0  0  0  0  0  0
  -26.2658  -26.8140   20.1767 C   0  0  0  0  0  0  0  0  0  0  0  0
  -27.7056  -19.3027   18.9014 C   0  0  0  0  0  0  0  0  0  0  0  0
  -28.6933  -18.6605   19.6399 C   0  0  0  0  0  0  0  0  0  0  0  0
  -24.0234   -8.2825   23.6434 C   0  0  0  0  0  0  0  0  0  0  0  0
  -27.5404  -24.7945   19.7219 C   0  0  0  0  0  0  0  0  0  0  0  0
  -22.5501   -6.5075   24.0919 C   0  0  0  0  0  0  0  0  0  0  0  0
  -20.2119   -5.1199   23.4672 C   0  0  0  0  0  0  0  0  0  0  0  0
  -22.6128   -5.1609   23.7339 C   0  0  0  0  0  0  0  0  0  0  0  0
  -24.9988  -11.6558   21.2839 C   0  0  0  0  0  0  0  0  0  0  0  0
  -28.7759  -21.3745   19.3693 C   0  0  0  0  0  0  0  0  0  0  0  0
  -29.6862  -19.4402   20.2108 C   0  0  0  0  0  0  0  0  0  0  0  0
  -24.9256  -13.5297   20.1358 C   0  0  0  0  0  0  0  0  0  0  0  0
  -22.7316  -12.8602   21.1292 C   0  0  0  0  0  0  0  0  0  0  0  0
  -26.7770  -29.6947   21.9285 C   0  0  0  0  0  0  0  0  0  0  0  0
  -23.7424  -29.6232   20.7847 C   0  0  0  0  0  0  0  0  0  0  0  0
  -21.3284  -27.9166   19.0797 C   0  0  0  0  0  0  0  0  0  0  0  0
  -29.6708  -16.3503   19.4078 C   0  0  0  0  0  0  0  0  0  0  0  0
  -26.1884  -33.5444   25.2286 C   0  0  0  0  0  0  0  0  0  0  0  0
  -27.1634  -29.0771   19.5150 C   0  0  0  0  0  0  0  0  0  0  0  0
  -25.0187  -27.4474   20.7352 C   0  0  0  0  0  0  0  0  0  0  0  0
  -25.3997  -32.2896   24.8630 C   0  0  0  0  0  0  0  0  0  0  0  0
  -29.6426  -12.9361   18.3981 C   0  0  0  0  0  0  0  0  0  0  0  0
  -26.3165  -31.0707   24.8400 C   0  0  0  0  0  0  0  0  0  0  0  0
  -28.3605  -12.3833   19.0249 C   0  0  0  0  0  0  0  0  0  0  0  0
  -30.3253  -13.9552   19.3087 C   0  0  0  0  0  0  0  0  0  0  0  0
  -28.1821  -14.4995   20.3948 C   0  0  0  0  0  0  0  0  0  0  0  0
  -27.4155  -31.2269   23.7821 C   0  0  1  0  0  0  0  0  0  0  0  0
  -26.1979  -29.6597   20.5425 C   0  0  1  0  0  0  0  0  0  0  0  0
  -27.4244  -13.5174   19.4866 C   0  0  2  0  0  0  0  0  0  0  0  0
  -26.5999  -18.5363   18.2521 C   0  0  0  0  0  0  0  0  0  0  0  0
  -30.7758  -18.8099   21.0165 C   0  0  0  0  0  0  0  0  0  0  0  0
  -18.9375  -28.0989   18.3394 C   0  0  0  0  0  0  0  0  0  0  0  0
  -22.8181  -29.0153   23.6283 C   0  0  0  0  0  0  0  0  0  0  0  0
  -20.6194  -28.2814   22.6822 C   0  0  0  0  0  0  0  0  0  0  0  0
  -21.3771  -30.6397   22.3878 C   0  0  0  0  0  0  0  0  0  0  0  0
  -22.0790  -27.7482   16.2219 C   0  0  0  0  0  0  0  0  0  0  0  0
  -28.8462  -22.8673   19.2354 C   0  0  0  0  0  0  0  0  0  1  0  0
  -22.5100  -28.8007   21.0739 C   0  0  1  0  0  0  0  0  0  0  0  0
  -20.3910  -28.3427   17.9643 C   0  0  2  0  0  0  0  0  0  0  0  0
  -21.8554  -29.1722   22.4343 C   0  0  0  0  0  0  0  0  0  0  0  0
  -26.2490  -11.8296   20.8471 N   0  0  0  0  0  0  0  0  0  0  0  0
  -29.7531  -20.7855   20.0942 N   0  0  0  0  0  0  0  0  0  0  0  0
  -26.1725  -12.9772   20.1520 N   0  0  0  0  0  0  0  0  0  0  0  0
  -24.9408  -28.9133   20.6237 N   0  0  0  0  0  0  0  0  0  0  0  0
  -29.3792  -15.0016   19.7021 N   0  0  0  0  0  0  0  0  0  0  0  0
  -24.6724  -14.6841   19.4834 N   0  0  0  0  0  0  0  0  0  0  0  0
  -22.0688  -11.8978   21.9029 N   0  0  0  0  0  0  0  0  0  0  0  0
  -28.6829  -17.2527   19.8005 N   0  0  0  0  0  0  0  0  0  0  0  0
  -26.8861  -30.9652   22.4608 N   0  0  0  0  0  0  0  0  0  0  0  0
  -21.6296  -28.9657   19.9223 N   0  0  0  0  0  0  0  0  0  0  0  0
  -20.6888  -27.5813   16.7183 N   0  3  0  0  0  0  0  0  0  0  0  0
  -22.0844  -13.8332   20.6730 O   0  0  0  0  0  0  0  0  0  0  0  0
  -27.0996  -28.6464   22.4752 O   0  0  0  0  0  0  0  0  0  0  0  0
  -23.6442  -30.8497   20.6975 O   0  0  0  0  0  0  0  0  0  0  0  0
  -21.7481  -26.7672   19.1944 O   0  0  0  0  0  0  0  0  0  0  0  0
  -30.7072  -16.6778   18.8242 O   0  0  0  0  0  0  0  0  0  0  0  0
  -23.7097   -7.1975   24.4030 O   0  0  0  0  0  0  0  0  0  0  0  0
  -27.6589  -23.4401   19.7817 O   0  0  0  0  0  0  0  0  0  1  0  0
  -19.0891   -4.4533   23.1687 F   0  0  0  0  0  0  0  0  0  0  0  0
  -23.7932   -4.5280   23.6895 F   0  0  0  0  0  0  0  0  0  0  0  0
  1  2  1  0  0  0  0
  1  5  2  0  0  0  0
  2  6  2  0  0  0  0
  3  8  2  0  0  0  0
  3 16  1  0  0  0  0
  4  9  1  0  0  0  0
  4 16  2  0  0  0  0
  5 18  1  0  0  0  0
  6 20  1  0  0  0  0
  7 10  2  0  0  0  0
  7 19  1  0  0  0  0
  8 24  1  0  0  0  0
  9 24  2  0  0  0  0
 10 25  1  0  0  0  0
 11 12  2  0  0  0  0
 11 26  1  0  0  0  0
 12 27  1  0  0  0  0
 13 21  1  0  0  0  0
 13 25  2  0  0  0  0
 14 22  2  0  0  0  0
 14 30  1  0  0  0  0
 15 27  2  0  0  0  0
 15 28  1  0  0  0  0
 16 29  1  0  0  0  0
 17 29  1  0  0  0  0
 17 32  2  0  0  0  0
 17 33  1  0  0  0  0
 18 20  2  0  0  0  0
 18 38  1  0  0  0  0
 19 21  2  0  0  0  0
 19 39  1  0  0  0  0
 20 47  1  0  0  0  0
 21 40  1  0  0  0  0
 22 23  1  0  0  0  0
 22 50  1  0  0  0  0
 23 31  2  0  0  0  0
 23 68  1  0  0  0  0
 24 77  1  0  0  0  0
 25 78  1  0  0  0  0
 26 28  2  0  0  0  0
 26 77  1  0  0  0  0
 27 79  1  0  0  0  0
 28 80  1  0  0  0  0
 29 61  2  0  0  0  0
 30 57  1  0  0  0  0
 30 62  2  0  0  0  0
 31 51  1  0  0  0  0
 31 62  1  0  0  0  0
 32 63  1  0  0  0  0
 32 66  1  0  0  0  0
 33 67  1  0  0  0  0
 33 72  2  0  0  0  0
 34 48  1  0  0  0  0
 34 69  1  0  0  0  0
 34 73  2  0  0  0  0
 35 58  1  0  0  0  0
 35 64  1  0  0  0  0
 35 74  2  0  0  0  0
 36 59  1  0  0  0  0
 36 70  1  0  0  0  0
 36 75  2  0  0  0  0
 37 65  1  0  0  0  0
 37 68  1  0  0  0  0
 37 76  2  0  0  0  0
 38 41  1  0  0  0  0
 39 48  1  0  0  0  0
 40 64  1  0  0  0  0
 41 43  1  0  0  0  0
 42 44  1  0  0  0  0
 42 45  1  0  0  0  0
 43 47  1  0  0  0  0
 44 49  1  0  0  0  0
 45 65  1  0  0  0  0
 46 49  1  0  0  0  0
 46 65  1  0  0  0  0
 47 69  1  0  0  0  0
 48 64  1  0  0  0  0
 49 63  1  0  0  0  0
 52 59  1  0  0  0  0
 53 60  1  0  0  0  0
 54 60  1  0  0  0  0
 55 60  1  0  0  0  0
 56 71  1  0  0  0  0
 57 78  1  0  0  0  0
 58 60  1  0  0  0  0
 58 70  1  0  0  0  0
 59 71  1  0  0  0  0
 61 63  1  0  0  0  0
M  CHG  1  71   1
M  ISO  4  37 100  57 101  68 100  78 101
M  END
> <Batch ID>
0111

> <Smiles>
CNC(C)C(=O)NC(C(=O)N1Cc2cc([101O:1][101CH2:1]c3cc(C)c([100NH:0][100C:0](=O)N4CCCC(n5nc(-c6ccc(Oc7ccc(F)cc7F)cc6)c(C(N)=O)c5N)C4)c(C)n3)ccc2CC1C(=O)NC1CCCc2ccccc21)C(C)(C)C

> <Shape>
0.338

> <Color>
0.124

> <Negative vol penalty>
0.000

$$$$

  -OEChem-04052320013D

 85 94  0     1  0  0  0  0  0999 V2000
  -18.7172  -25.4279   21.1358 C   0  0  0  0  0  0  0  0  0  0  0  0
  -19.9663  -24.8212   21.0506 C   0  0  0  0  0  0  0  0  0  0  0  0
  -23.0717   -9.8740   19.9430 C   0  0  0  0  0  0  0  0  0  0  0  0
  -23.8419   -9.8739   22.2329 C   0  0  0  0  0  0  0  0  0  0  0  0
  -18.5721  -26.7726   20.7971 C   0  0  0  0  0  0  0  0  0  0  0  0
  -21.0708  -25.5587   20.6256 C   0  0  0  0  0  0  0  0  0  0  0  0
  -25.1644  -24.7555   23.4965 C   0  0  0  0  0  0  0  0  0  0  0  0
  -22.3291   -8.7200   20.1927 C   0  0  0  0  0  0  0  0  0  0  0  0
  -23.0993   -8.7199   22.4826 C   0  0  0  0  0  0  0  0  0  0  0  0
  -25.8755  -23.5768   23.2759 C   0  0  0  0  0  0  0  0  0  0  0  0
  -19.8740   -7.9198   23.0972 C   0  0  0  0  0  0  0  0  0  0  0  0
  -19.1223   -7.8761   24.2714 C   0  0  0  0  0  0  0  0  0  0  0  0
  -27.4894  -24.8026   21.9675 C   0  0  0  0  0  0  0  0  0  0  0  0
  -28.1633  -19.5333   21.2923 C   0  0  0  0  0  0  0  0  0  0  0  0
  -20.3673   -5.9365   24.9962 C   0  0  0  0  0  0  0  0  0  0  0  0
  -29.7854  -18.6414   23.3306 C   0  0  0  0  0  0  0  0  0  0  0  0
  -23.8282  -10.4510   20.9631 C   0  0  0  0  0  0  0  0  0  0  0  0
  -24.1691  -12.9765   20.8493 C   0  0  0  0  0  0  0  0  0  0  0  0
  -19.6773  -27.5294   20.3770 C   0  0  0  0  0  0  0  0  0  0  0  0
  -25.6052  -25.9668   22.9443 C   0  0  0  0  0  0  0  0  0  0  0  0
  -20.9401  -26.9144   20.2797 C   0  0  0  0  0  0  0  0  0  0  0  0
  -26.7835  -25.9957   22.1847 C   0  0  0  0  0  0  0  0  0  0  0  0
  -29.8608  -18.0222   22.0911 C   0  0  0  0  0  0  0  0  0  0  0  0
  -29.0391  -18.4762   21.0639 C   0  0  0  0  0  0  0  0  0  0  0  0
  -22.3429   -8.1429   21.4625 C   0  0  0  0  0  0  0  0  0  0  0  0
  -27.0366  -23.5997   22.5089 C   0  0  0  0  0  0  0  0  0  0  0  0
  -20.8723   -6.9718   22.8725 C   0  0  0  0  0  0  0  0  0  0  0  0
  -19.3690   -6.8845   25.2209 C   0  0  0  0  0  0  0  0  0  0  0  0
  -21.1189   -5.9802   23.8220 C   0  0  0  0  0  0  0  0  0  0  0  0
  -24.5959  -11.6427   20.7056 C   0  0  0  0  0  0  0  0  0  0  0  0
  -28.1308  -20.1143   22.5520 C   0  0  0  0  0  0  0  0  0  0  0  0
  -25.2595  -13.7273   20.4835 C   0  0  0  0  0  0  0  0  0  0  0  0
  -22.9005  -13.4909   21.2756 C   0  0  0  0  0  0  0  0  0  0  0  0
  -24.4045  -28.0552   20.8706 C   0  0  0  0  0  0  0  0  0  0  0  0
  -27.0298  -29.7792   21.6818 C   0  0  0  0  0  0  0  0  0  0  0  0
  -30.2160  -29.8033   22.9041 C   0  0  0  0  0  0  0  0  0  0  0  0
  -30.7439  -14.7465   20.6504 C   0  0  0  0  0  0  0  0  0  0  0  0
  -19.4623  -28.9674   19.9762 C   0  0  0  0  0  0  0  0  0  0  0  0
  -24.8414  -27.2342   23.2138 C   0  0  0  0  0  0  0  0  0  0  0  0
  -27.3102  -27.2736   21.5865 C   0  0  0  0  0  0  0  0  0  0  0  0
  -20.7542  -29.7764   19.8937 C   0  0  0  0  0  0  0  0  0  0  0  0
  -28.0674  -19.5325   16.6254 C   0  0  0  0  0  0  0  0  0  0  0  0
  -27.6414  -18.0834   16.3739 C   0  0  0  0  0  0  0  0  0  0  0  0
  -29.5959  -12.3693   18.2613 C   0  0  0  0  0  0  0  0  0  0  0  0
  -21.8228  -28.9995   19.1313 C   0  0  0  0  0  0  0  0  0  0  0  0
  -28.1605  -12.0740   18.6998 C   0  0  0  0  0  0  0  0  0  0  0  0
  -28.8136  -19.5275   17.9569 C   0  0  0  0  0  0  0  0  0  0  0  0
  -28.1517  -17.2807   17.5677 C   0  0  0  0  0  0  0  0  0  0  0  0
  -30.5184  -12.5865   19.4588 C   0  0  0  0  0  0  0  0  0  0  0  0
  -28.6228  -13.3130   20.8562 C   0  0  0  0  0  0  0  0  0  0  0  0
  -22.1668  -27.6875   19.8467 C   0  0  1  0  0  0  0  0  0  0  0  0
  -25.1012  -28.3208   22.1751 C   0  0  1  0  0  0  0  0  0  0  0  0
  -27.6434  -13.1419   19.6824 C   0  0  2  0  0  0  0  0  0  0  0  0
  -28.2447  -18.3147   18.6833 C   0  0  0  0  0  0  0  0  0  0  0  0
  -32.1184  -31.3582   23.4145 C   0  0  0  0  0  0  0  0  0  0  0  0
  -27.6745  -29.9636   18.7052 C   0  0  0  0  0  0  0  0  0  0  0  0
  -29.9975  -30.6640   19.3229 C   0  0  0  0  0  0  0  0  0  0  0  0
  -28.0523  -32.0773   19.9874 C   0  0  0  0  0  0  0  0  0  0  0  0
  -30.1690  -29.1035   25.7794 C   0  0  0  0  0  0  0  0  0  0  0  0
  -30.8151  -16.8933   21.8936 C   0  0  0  0  0  0  0  0  0  0  0  0
  -27.2155  -21.2573   22.8792 C   0  0  0  0  0  0  0  0  0  1  0  0
  -28.4458  -29.8764   21.1676 C   0  0  1  0  0  0  0  0  0  0  0  0
  -30.8822  -30.6630   23.9632 C   0  0  2  0  0  0  0  0  0  0  0  0
  -28.5318  -30.6208   19.8053 C   0  0  0  0  0  0  0  0  0  0  0  0
  -25.8589  -11.5484   20.2813 N   0  0  0  0  0  0  0  0  0  0  0  0
  -26.2350  -12.8324   20.1553 N   0  0  0  0  0  0  0  0  0  0  0  0
  -28.9331  -19.6573   23.5232 N   0  3  0  0  0  0  0  0  0  0  0  0
  -26.5246  -28.4853   21.8732 N   0  0  0  0  0  0  0  0  0  0  0  0
  -29.9717  -13.6122   20.3504 N   0  0  0  0  0  0  0  0  0  0  0  0
  -25.4694  -15.0590   20.4137 N   0  0  0  0  0  0  0  0  0  0  0  0
  -21.8902  -12.5805   21.6146 N   0  0  0  0  0  0  0  0  0  0  0  0
  -29.0813  -17.8771   19.7863 N   0  0  0  0  0  0  0  0  0  0  0  0
  -23.0317  -27.9410   20.9790 N   0  0  0  0  0  0  0  0  0  0  0  0
  -29.2264  -30.4922   22.2353 N   0  0  0  0  0  0  0  0  0  0  0  0
  -30.1484  -15.6727   21.4980 N   0  0  0  0  0  0  0  0  0  0  0  0
  -31.2908  -29.8269   25.1272 N   0  3  0  0  0  0  0  0  0  0  0  0
  -22.6643  -14.7213   21.3378 O   0  0  0  0  0  0  0  0  0  0  0  0
  -25.0635  -27.9624   19.8416 O   0  0  0  0  0  0  0  0  0  0  0  0
  -26.3978  -30.8131   21.9123 O   0  0  0  0  0  0  0  0  0  0  0  0
  -30.5436  -28.6384   22.6889 O   0  0  0  0  0  0  0  0  0  0  0  0
  -31.8778  -14.9236   20.1922 O   0  0  0  0  0  0  0  0  0  0  0  0
  -21.6182   -7.0170   21.7066 O   0  0  0  0  0  0  0  0  0  0  0  0
  -27.7323  -22.4505   22.2915 O   0  0  0  0  0  0  0  0  0  1  0  0
  -18.6481   -6.8436   26.3491 F   0  0  0  0  0  0  0  0  0  0  0  0
  -22.0774   -5.0675   23.6122 F   0  0  0  0  0  0  0  0  0  0  0  0
  1  2  1  0  0  0  0
  1  5  2  0  0  0  0
  2  6  2  0  0  0  0
  3  8  2  0  0  0  0
  3 17  1  0  0  0  0
  4  9  1  0  0  0  0
  4 17  2  0  0  0  0
  5 19  1  0  0  0  0
  6 21  1  0  0  0  0
  7 10  2  0  0  0  0
  7 20  1  0  0  0  0
  8 25  1  0  0  0  0
  9 25  2  0  0  0  0
 10 26  1  0  0  0  0
 11 12  2  0  0  0  0
 11 27  1  0  0  0  0
 12 28  1  0  0  0  0
 13 22  1  0  0  0  0
 13 26  2  0  0  0  0
 14 24  2  0  0  0  0
 14 31  1  0  0  0  0
 15 28  2  0  0  0  0
 15 29  1  0  0  0  0
 16 23  2  0  0  0  0
 16 67  1  0  0  0  0
 17 30  1  0  0  0  0
 18 30  1  0  0  0  0
 18 32  2  0  0  0  0
 18 33  1  0  0  0  0
 19 21  2  0  0  0  0
 19 38  1  0  0  0  0
 20 22  2  0  0  0  0
 20 39  1  0  0  0  0
 21 51  1  0  0  0  0
 22 40  1  0  0  0  0
 23 24  1  0  0  0  0
 23 60  1  0  0  0  0
 24 72  1  0  0  0  0
 25 82  1  0  0  0  0
 26 83  1  0  0  0  0
 27 29  2  0  0  0  0
 27 82  1  0  0  0  0
 28 84  1  0  0  0  0
 29 85  1  0  0  0  0
 30 65  2  0  0  0  0
 31 61  1  0  0  0  0
 31 67  2  0  0  0  0
 32 66  1  0  0  0  0
 32 70  1  0  0  0  0
 33 71  1  0  0  0  0
 33 77  2  0  0  0  0
 34 52  1  0  0  0  0
 34 73  1  0  0  0  0
 34 78  2  0  0  0  0
 35 62  1  0  0  0  0
 35 68  1  0  0  0  0
 35 79  2  0  0  0  0
 36 63  1  0  0  0  0
 36 74  1  0  0  0  0
 36 80  2  0  0  0  0
 37 69  1  0  0  0  0
 37 75  1  0  0  0  0
 37 81  2  0  0  0  0
 38 41  1  0  0  0  0
 39 52  1  0  0  0  0
 40 68  1  0  0  0  0
 41 45  1  0  0  0  0
 42 43  1  0  0  0  0
 42 47  1  0  0  0  0
 43 48  1  0  0  0  0
 44 46  1  0  0  0  0
 44 49  1  0  0  0  0
 45 51  1  0  0  0  0
 46 53  1  0  0  0  0
 47 54  1  0  0  0  0
 48 54  1  0  0  0  0
 49 69  1  0  0  0  0
 50 53  1  0  0  0  0
 50 69  1  0  0  0  0
 51 73  1  0  0  0  0
 52 68  1  0  0  0  0
 53 66  1  0  0  0  0
 54 72  1  0  0  0  0
 55 63  1  0  0  0  0
 56 64  1  0  0  0  0
 57 64  1  0  0  0  0
 58 64  1  0  0  0  0
 59 76  1  0  0  0  0
 60 75  1  0  0  0  0
 61 83  1  0  0  0  0
 62 64  1  0  0  0  0
 62 74  1  0  0  0  0
 63 76  1  0  0  0  0
 65 66  1  0  0  0  0
M  CHG  2  67   1  76   1
M  ISO  4  37 100  61 101  75 100  83 101
M  END
> <Batch ID>
0111

> <Smiles>
CNC(C)C(=O)NC(C(=O)N1Cc2cc([101O:1][101CH2:1]c3cc(NC4CCCC4)c(C[100NH:0][100C:0](=O)N4CCCC(n5nc(-c6ccc(Oc7ccc(F)cc7F)cc6)c(C(N)=O)c5N)C4)cn3)ccc2CC1C(=O)NC1CCCc2ccccc21)C(C)(C)C

> <Shape>
0.280

> <Color>
0.188

> <Negative vol penalty>
0.000

$$$$

  -OEChem-04052320013D

 85 93  0     1  0  0  0  0  0999 V2000
  -16.5766  -28.5948   23.2600 C   0  0  0  0  0  0  0  0  0  0  0  0
  -17.4861  -28.1667   22.2982 C   0  0  0  0  0  0  0  0  0  0  0  0
  -26.0237  -12.4833   20.5688 C   0  0  0  0  0  0  0  0  0  0  0  0
  -24.8507  -13.3646   18.6493 C   0  0  0  0  0  0  0  0  0  0  0  0
  -16.9494  -29.5679   24.1862 C   0  0  0  0  0  0  0  0  0  0  0  0
  -18.7687  -28.7125   22.2614 C   0  0  0  0  0  0  0  0  0  0  0  0
  -23.9525  -25.8324   20.7319 C   0  0  0  0  0  0  0  0  0  0  0  0
  -25.4036  -11.2481   20.3807 C   0  0  0  0  0  0  0  0  0  0  0  0
  -24.2305  -12.1294   18.4612 C   0  0  0  0  0  0  0  0  0  0  0  0
  -24.6851  -25.7860   19.5466 C   0  0  0  0  0  0  0  0  0  0  0  0
  -22.3926   -9.8506   21.0171 C   0  0  0  0  0  0  0  0  0  0  0  0
  -21.8705   -9.2106   22.1411 C   0  0  0  0  0  0  0  0  0  0  0  0
  -26.1183  -27.5427   20.3707 C   0  0  0  0  0  0  0  0  0  0  0  0
  -23.3313   -7.3270   21.7471 C   0  0  0  0  0  0  0  0  0  0  0  0
  -25.7472  -13.5416   19.7031 C   0  0  0  0  0  0  0  0  0  0  0  0
  -27.6095  -15.2484   19.3476 C   0  0  0  0  0  0  0  0  0  0  0  0
  -18.2404  -30.1189   24.1668 C   0  0  0  0  0  0  0  0  0  0  0  0
  -24.2912  -26.7434   21.7428 C   0  0  0  0  0  0  0  0  0  0  0  0
  -19.1588  -29.6949   23.1874 C   0  0  0  0  0  0  0  0  0  0  0  0
  -25.3900  -27.5970   21.5689 C   0  0  0  0  0  0  0  0  0  0  0  0
  -24.5070  -11.0712   19.3269 C   0  0  0  0  0  0  0  0  0  0  0  0
  -25.7664  -26.6432   19.3647 C   0  0  0  0  0  0  0  0  0  0  0  0
  -23.3840   -9.2289   20.2580 C   0  0  0  0  0  0  0  0  0  0  0  0
  -22.3399   -7.9488   22.5061 C   0  0  0  0  0  0  0  0  0  0  0  0
  -23.8534   -7.9671   20.6230 C   0  0  0  0  0  0  0  0  0  0  0  0
  -26.3871  -14.8179   19.8973 C   0  0  0  0  0  0  0  0  0  0  0  0
  -27.7736  -16.5232   19.8316 C   0  0  0  0  0  0  0  0  0  0  0  0
  -28.5156  -14.5576   18.4772 C   0  0  0  0  0  0  0  0  0  0  0  0
  -22.8182  -29.1846   23.1479 C   0  0  0  0  0  0  0  0  0  0  0  0
  -25.4390  -29.1604   25.0591 C   0  0  0  0  0  0  0  0  0  0  0  0
  -28.7235  -28.3257   25.4618 C   0  0  0  0  0  0  0  0  0  0  0  0
  -25.7345  -21.5846   21.0020 C   0  0  0  0  0  0  0  0  0  0  0  0
  -18.5822  -31.2024   25.1587 C   0  0  0  0  0  0  0  0  0  0  0  0
  -23.5073  -26.7626   23.0264 C   0  0  0  0  0  0  0  0  0  0  0  0
  -25.8070  -28.5793   22.6318 C   0  0  0  0  0  0  0  0  0  0  0  0
  -20.0814  -31.4596   25.2873 C   0  0  0  0  0  0  0  0  0  0  0  0
  -25.2539  -19.0275   23.4324 C   0  0  0  0  0  0  0  0  0  0  0  0
  -20.7266  -31.5572   23.9085 C   0  0  0  0  0  0  0  0  0  0  0  0
  -25.6005  -17.7402   22.6824 C   0  0  0  0  0  0  0  0  0  0  0  0
  -24.5480  -20.0351   22.5278 C   0  0  0  0  0  0  0  0  0  0  0  0
  -25.6091  -19.0637   20.5267 C   0  0  0  0  0  0  0  0  0  0  0  0
  -30.5146  -24.2468   18.7616 C   0  0  0  0  0  0  0  0  0  0  0  0
  -29.0589  -22.7016   20.6933 C   0  0  0  0  0  0  0  0  0  0  0  0
  -20.5674  -30.2451   23.1308 C   0  0  1  0  0  0  0  0  0  0  0  0
  -23.6246  -28.0847   23.7784 C   0  0  1  0  0  0  0  0  0  0  0  0
  -26.3724  -18.0388   21.3830 C   0  0  2  0  0  0  0  0  0  0  0  0
  -28.5038  -23.0067   19.2958 C   0  0  1  0  0  0  0  0  0  0  0  0
  -31.1337  -23.9693   20.1383 C   0  0  2  0  0  0  0  0  0  0  0  0
  -32.6547  -23.8901   20.0190 C   0  0  0  0  0  0  0  0  0  0  0  0
  -30.9210  -28.0180   26.6338 C   0  0  0  0  0  0  0  0  0  0  0  0
  -30.5919  -20.8569   22.3302 C   0  0  0  0  0  0  0  0  0  0  0  0
  -30.6788  -23.2803   23.0329 C   0  0  0  0  0  0  0  0  0  0  0  0
  -25.7906  -32.1195   24.4030 C   0  0  0  0  0  0  0  0  0  0  0  0
  -28.1324  -31.9629   25.2744 C   0  0  0  0  0  0  0  0  0  0  0  0
  -26.2052  -31.5252   26.7966 C   0  0  0  0  0  0  0  0  0  0  0  0
  -27.9808  -25.6155   26.3903 C   0  0  0  0  0  0  0  0  0  0  0  0
  -26.9713  -23.0067   19.3873 C   0  0  0  0  0  0  0  0  0  0  0  0
  -28.6618  -26.1564   17.2570 C   0  0  0  0  0  0  0  0  0  0  0  0
  -28.5301  -24.6538   17.4839 C   0  0  0  0  0  0  0  0  0  0  0  0
  -27.8634  -26.9483   18.2850 C   0  0  0  0  0  0  0  0  0  1  0  0
  -26.7950  -29.8231   25.0227 C   0  0  1  0  0  0  0  0  0  0  0  0
  -29.4530  -27.6231   26.5926 C   0  0  2  0  0  0  0  0  0  0  0  0
  -31.1118  -22.2478   22.0045 C   0  0  0  0  0  0  0  0  0  0  0  0
  -26.7220  -31.3406   25.3532 C   0  0  0  0  0  0  0  0  0  0  0  0
  -25.8152  -15.7441   20.6714 N   0  0  0  0  0  0  0  0  0  0  0  0
  -26.6822  -16.7692   20.6116 N   0  0  0  0  0  0  0  0  0  0  0  0
  -25.0054  -28.5643   23.8665 N   0  0  0  0  0  0  0  0  0  0  0  0
  -25.3326  -20.2754   21.3142 N   0  0  0  0  0  0  0  0  0  0  0  0
  -29.0443  -24.2921   18.8080 N   0  0  2  0  0  0  0  0  0  0  0  0
  -28.7437  -17.4466   19.6618 N   0  0  0  0  0  0  0  0  0  0  0  0
  -28.1938  -13.2538   18.0762 N   0  0  0  0  0  0  0  0  0  0  0  0
  -21.5157  -29.2593   23.6034 N   0  0  0  0  0  0  0  0  0  0  0  0
  -27.6487  -29.0558   25.9231 N   0  0  0  0  0  0  0  0  0  0  0  0
  -26.4802  -21.7234   19.8378 N   0  0  0  0  0  0  0  0  0  0  0  0
  -30.5699  -22.6577   20.6578 N   0  3  1  0  0  0  0  0  0  0  0  0
  -29.3685  -26.1448   26.4240 N   0  3  0  0  0  0  0  0  0  0  0  0
  -29.5872  -15.0751   18.0804 O   0  0  0  0  0  0  0  0  0  0  0  0
  -23.3394  -29.9127   22.3113 O   0  0  0  0  0  0  0  0  0  0  0  0
  -24.7917  -29.1651   26.1092 O   0  0  0  0  0  0  0  0  0  0  0  0
  -29.0746  -28.2388   24.2871 O   0  0  0  0  0  0  0  0  0  0  0  0
  -25.4544  -22.5569   21.7113 O   0  0  0  0  0  0  0  0  0  0  0  0
  -23.9019   -9.8660   19.1429 O   0  0  0  0  0  0  0  0  0  0  0  0
  -26.4880  -26.6001   18.2002 O   0  0  0  0  0  0  0  0  0  1  0  0
  -21.8395   -7.3350   23.5863 F   0  0  0  0  0  0  0  0  0  0  0  0
  -24.8066   -7.3653   19.8984 F   0  0  0  0  0  0  0  0  0  0  0  0
  1  2  1  0  0  0  0
  1  5  2  0  0  0  0
  2  6  2  0  0  0  0
  3  8  2  0  0  0  0
  3 15  1  0  0  0  0
  4  9  1  0  0  0  0
  4 15  2  0  0  0  0
  5 17  1  0  0  0  0
  6 19  1  0  0  0  0
  7 10  2  0  0  0  0
  7 18  1  0  0  0  0
  8 21  1  0  0  0  0
  9 21  2  0  0  0  0
 10 22  1  0  0  0  0
 11 12  2  0  0  0  0
 11 23  1  0  0  0  0
 12 24  1  0  0  0  0
 13 20  1  0  0  0  0
 13 22  2  0  0  0  0
 14 24  2  0  0  0  0
 14 25  1  0  0  0  0
 15 26  1  0  0  0  0
 16 26  1  0  0  0  0
 16 27  2  0  0  0  0
 16 28  1  0  0  0  0
 17 19  2  0  0  0  0
 17 33  1  0  0  0  0
 18 20  2  0  0  0  0
 18 34  1  0  0  0  0
 19 44  1  0  0  0  0
 20 35  1  0  0  0  0
 21 82  1  0  0  0  0
 22 83  1  0  0  0  0
 23 25  2  0  0  0  0
 23 82  1  0  0  0  0
 24 84  1  0  0  0  0
 25 85  1  0  0  0  0
 26 65  2  0  0  0  0
 27 66  1  0  0  0  0
 27 70  1  0  0  0  0
 28 71  1  0  0  0  0
 28 77  2  0  0  0  0
 29 45  1  0  0  0  0
 29 72  1  0  0  0  0
 29 78  2  0  0  0  0
 30 61  1  0  0  0  0
 30 67  1  0  0  0  0
 30 79  2  0  0  0  0
 31 62  1  0  0  0  0
 31 73  1  0  0  0  0
 31 80  2  0  0  0  0
 32 68  1  0  0  0  0
 32 74  1  0  0  0  0
 32 81  2  0  0  0  0
 33 36  1  0  0  0  0
 34 45  1  0  0  0  0
 35 67  1  0  0  0  0
 36 38  1  0  0  0  0
 37 39  1  0  0  0  0
 37 40  1  0  0  0  0
 38 44  1  0  0  0  0
 39 46  1  0  0  0  0
 40 68  1  0  0  0  0
 41 46  1  0  0  0  0
 41 68  1  0  0  0  0
 42 48  1  0  0  0  0
 42 69  1  0  0  0  0
 43 47  1  0  0  0  0
 43 75  1  0  0  0  0
 44 72  1  0  0  0  0
 45 67  1  0  0  0  0
 46 66  1  0  0  0  0
 47 57  1  0  0  0  0
 47 69  1  0  0  0  0
 48 49  1  0  0  0  0
 48 75  1  0  0  0  0
 50 62  1  0  0  0  0
 51 63  1  0  0  0  0
 52 63  1  0  0  0  0
 53 64  1  0  0  0  0
 54 64  1  0  0  0  0
 55 64  1  0  0  0  0
 56 76  1  0  0  0  0
 57 74  1  0  0  0  0
 58 59  1  0  0  0  0
 58 60  1  0  0  0  0
 59 69  1  0  0  0  0
 60 83  1  0  0  0  0
 61 64  1  0  0  0  0
 61 73  1  0  0  0  0
 62 76  1  0  0  0  0
 63 75  1  0  0  0  0
 65 66  1  0  0  0  0
M  CHG  2  75   1  76   1
M  ISO  4  32 100  60 101  74 100  83 101
M  END
> <Batch ID>
0111

> <Smiles>
CNC(C)C(=O)NC(C(=O)N1Cc2cc([101O:1][101CH2:1]CCN3CC(C)N(C(C)C)CC3C[100NH:0][100C:0](=O)N3CCCC(n4nc(-c5ccc(Oc6ccc(F)cc6F)cc5)c(C(N)=O)c4N)C3)ccc2CC1C(=O)NC1CCCc2ccccc21)C(C)(C)C

> <Shape>
0.254

> <Color>
0.067

> <Negative vol penalty>
0.000

$$$$

  -OEChem-04052320013D

 83 91  0     1  0  0  0  0  0999 V2000
  -36.5673  -30.6847   16.8097 C   0  0  0  0  0  0  0  0  0  0  0  0
  -36.1135  -29.4520   16.3516 C   0  0  0  0  0  0  0  0  0  0  0  0
  -23.0517   -9.9343   19.9593 C   0  0  0  0  0  0  0  0  0  0  0  0
  -23.8053   -9.9463   22.2547 C   0  0  0  0  0  0  0  0  0  0  0  0
  -37.1441  -30.7876   18.0748 C   0  0  0  0  0  0  0  0  0  0  0  0
  -36.2371  -28.3212   17.1580 C   0  0  0  0  0  0  0  0  0  0  0  0
  -32.3450  -23.6058   17.5087 C   0  0  0  0  0  0  0  0  0  0  0  0
  -22.2994   -8.7873   20.2123 C   0  0  0  0  0  0  0  0  0  0  0  0
  -23.0529   -8.7993   22.5077 C   0  0  0  0  0  0  0  0  0  0  0  0
  -32.3487  -22.3409   16.9223 C   0  0  0  0  0  0  0  0  0  0  0  0
  -23.3231   -5.4730   21.9659 C   0  0  0  0  0  0  0  0  0  0  0  0
  -23.9296   -4.4468   22.6901 C   0  0  0  0  0  0  0  0  0  0  0  0
  -27.6642  -18.3515   20.7507 C   0  0  0  0  0  0  0  0  0  0  0  0
  -28.2012  -18.7313   19.5256 C   0  0  0  0  0  0  0  0  0  0  0  0
  -33.3517  -21.4261   18.9164 C   0  0  0  0  0  0  0  0  0  0  0  0
  -22.2247   -4.6394   24.3911 C   0  0  0  0  0  0  0  0  0  0  0  0
  -23.8047  -10.5138   20.9805 C   0  0  0  0  0  0  0  0  0  0  0  0
  -24.1639  -13.0360   20.8503 C   0  0  0  0  0  0  0  0  0  0  0  0
  -37.2662  -29.6593   18.9011 C   0  0  0  0  0  0  0  0  0  0  0  0
  -32.8555  -23.7926   18.8013 C   0  0  0  0  0  0  0  0  0  0  0  0
  -36.8174  -28.4088   18.4349 C   0  0  0  0  0  0  0  0  0  0  0  0
  -33.3509  -22.6939   19.5179 C   0  0  0  0  0  0  0  0  0  0  0  0
  -22.3000   -8.2198   21.4865 C   0  0  0  0  0  0  0  0  0  0  0  0
  -32.8547  -21.2514   17.6251 C   0  0  0  0  0  0  0  0  0  0  0  0
  -22.1673   -6.0825   22.4543 C   0  0  0  0  0  0  0  0  0  0  0  0
  -23.3805   -4.0299   23.9026 C   0  0  0  0  0  0  0  0  0  0  0  0
  -21.6182   -5.6657   23.6668 C   0  0  0  0  0  0  0  0  0  0  0  0
  -28.2839  -17.3545   21.4959 C   0  0  0  0  0  0  0  0  0  0  0  0
  -24.5825  -11.6983   20.7197 C   0  0  0  0  0  0  0  0  0  0  0  0
  -29.4292  -16.7733   20.9760 C   0  0  0  0  0  0  0  0  0  0  0  0
  -29.3502  -18.0886   19.0940 C   0  0  0  0  0  0  0  0  0  0  0  0
  -25.2620  -13.7765   20.4868 C   0  0  0  0  0  0  0  0  0  0  0  0
  -22.8957  -13.5622   21.2634 C   0  0  0  0  0  0  0  0  0  0  0  0
  -35.2426  -25.4812   20.0480 C   0  0  0  0  0  0  0  0  0  0  0  0
  -30.7721  -14.6934   20.7833 C   0  0  0  0  0  0  0  0  0  0  0  0
  -33.9899  -24.4479   22.8561 C   0  0  0  0  0  0  0  0  0  0  0  0
  -32.1284  -22.1177   24.5150 C   0  0  0  0  0  0  0  0  0  0  0  0
  -37.9396  -29.8109   20.2420 C   0  0  0  0  0  0  0  0  0  0  0  0
  -32.8198  -25.1586   19.4299 C   0  0  0  0  0  0  0  0  0  0  0  0
  -33.8918  -22.8378   20.9162 C   0  0  0  0  0  0  0  0  0  0  0  0
  -37.6929  -28.6352   21.1839 C   0  0  0  0  0  0  0  0  0  0  0  0
  -29.5987  -12.3937   18.2985 C   0  0  0  0  0  0  0  0  0  0  0  0
  -37.9004  -27.3127   20.4526 C   0  0  0  0  0  0  0  0  0  0  0  0
  -28.1651  -12.0945   18.7347 C   0  0  0  0  0  0  0  0  0  0  0  0
  -30.5173  -12.5955   19.4996 C   0  0  0  0  0  0  0  0  0  0  0  0
  -28.6151  -13.3492   20.8907 C   0  0  0  0  0  0  0  0  0  0  0  0
  -36.9114  -27.1639   19.2902 C   0  0  1  0  0  0  0  0  0  0  0  0
  -33.8367  -25.3255   20.5549 C   0  0  1  0  0  0  0  0  0  0  0  0
  -27.6477  -13.1689   19.7075 C   0  0  2  0  0  0  0  0  0  0  0  0
  -31.2244  -16.2337   22.6726 C   0  0  0  0  0  0  0  0  0  0  0  0
  -31.3125  -21.5193   26.8115 C   0  0  0  0  0  0  0  0  0  0  0  0
  -36.7701  -23.4144   23.5720 C   0  0  0  0  0  0  0  0  0  0  0  0
  -35.7159  -22.0309   25.3729 C   0  0  0  0  0  0  0  0  0  0  0  0
  -35.5506  -24.5186   25.4556 C   0  0  0  0  0  0  0  0  0  0  0  0
  -29.2944  -22.3638   23.6985 C   0  0  0  0  0  0  0  0  0  0  0  0
  -31.5195  -18.2406   16.1204 C   0  0  0  0  0  0  0  0  0  0  0  0
  -31.8259  -19.7301   16.1141 C   0  0  0  0  0  0  0  0  0  1  0  0
  -31.0766  -17.7567   17.4923 C   0  0  0  0  0  0  0  0  0  0  0  0
  -30.1482  -15.6959   21.7212 C   0  0  1  0  0  0  0  0  0  0  0  0
  -34.1995  -23.2430   23.7412 C   0  0  1  0  0  0  0  0  0  0  0  0
  -30.9999  -22.2597   25.5204 C   0  0  2  0  0  0  0  0  0  0  0  0
  -35.5507  -23.2990   24.5084 C   0  0  0  0  0  0  0  0  0  0  0  0
  -25.8478  -11.5921   20.3054 N   0  0  0  0  0  0  0  0  0  0  0  0
  -29.9803  -17.1158   19.7900 N   0  0  0  0  0  0  0  0  0  0  0  0
  -26.2337  -12.8726   20.1724 N   0  0  0  0  0  0  0  0  0  0  0  0
  -33.8410  -24.1947   21.4852 N   0  0  0  0  0  0  0  0  0  0  0  0
  -29.9797  -13.6075   20.4107 N   0  0  0  0  0  0  0  0  0  0  0  0
  -25.4816  -15.1062   20.4085 N   0  0  0  0  0  0  0  0  0  0  0  0
  -21.8768  -12.6614   21.6018 N   0  0  0  0  0  0  0  0  0  0  0  0
  -35.6038  -26.7886   19.7840 N   0  0  0  0  0  0  0  0  0  0  0  0
  -33.0257  -23.1610   24.6037 N   0  0  0  0  0  0  0  0  0  0  0  0
  -29.7335  -21.7107   24.9585 N   0  3  0  0  0  0  0  0  0  0  0  0
  -22.6676  -14.7946   21.3146 O   0  0  0  0  0  0  0  0  0  0  0  0
  -35.9479  -24.4889   19.9083 O   0  0  0  0  0  0  0  0  0  0  0  0
  -31.9283  -14.8734   20.3921 O   0  0  0  0  0  0  0  0  0  0  0  0
  -33.9524  -25.5717   23.3634 O   0  0  0  0  0  0  0  0  0  0  0  0
  -32.2082  -21.1737   23.7321 O   0  0  0  0  0  0  0  0  0  0  0  0
  -21.5658   -7.1007   21.7337 O   0  0  0  0  0  0  0  0  0  0  0  0
  -32.8601  -20.0158   17.0549 O   0  0  0  0  0  0  0  0  0  1  0  0
  -29.8987  -18.4455   17.8897 O   0  0  0  0  0  0  0  0  0  0  0  0
  -23.9622   -3.0434   24.5972 F   0  0  0  0  0  0  0  0  0  0  0  0
  -20.5073   -6.2466   24.1406 F   0  0  0  0  0  0  0  0  0  0  0  0
  -27.6170  -16.8869   23.0111 Cl  0  0  0  0  0  0  0  0  0  0  0  0
  1  2  1  0  0  0  0
  1  5  2  0  0  0  0
  2  6  2  0  0  0  0
  3  8  2  0  0  0  0
  3 17  1  0  0  0  0
  4  9  1  0  0  0  0
  4 17  2  0  0  0  0
  5 19  1  0  0  0  0
  6 21  1  0  0  0  0
  7 10  2  0  0  0  0
  7 20  1  0  0  0  0
  8 23  1  0  0  0  0
  9 23  2  0  0  0  0
 10 24  1  0  0  0  0
 11 12  2  0  0  0  0
 11 25  1  0  0  0  0
 12 26  1  0  0  0  0
 13 14  2  0  0  0  0
 13 28  1  0  0  0  0
 14 31  1  0  0  0  0
 15 22  1  0  0  0  0
 15 24  2  0  0  0  0
 16 26  2  0  0  0  0
 16 27  1  0  0  0  0
 17 29  1  0  0  0  0
 18 29  1  0  0  0  0
 18 32  2  0  0  0  0
 18 33  1  0  0  0  0
 19 21  2  0  0  0  0
 19 38  1  0  0  0  0
 20 22  2  0  0  0  0
 20 39  1  0  0  0  0
 21 47  1  0  0  0  0
 22 40  1  0  0  0  0
 23 78  1  0  0  0  0
 24 79  1  0  0  0  0
 25 27  2  0  0  0  0
 25 78  1  0  0  0  0
 26 81  1  0  0  0  0
 27 82  1  0  0  0  0
 28 30  2  0  0  0  0
 28 83  1  0  0  0  0
 29 63  2  0  0  0  0
 30 59  1  0  0  0  0
 30 64  1  0  0  0  0
 31 64  2  0  0  0  0
 31 80  1  0  0  0  0
 32 65  1  0  0  0  0
 32 68  1  0  0  0  0
 33 69  1  0  0  0  0
 33 73  2  0  0  0  0
 34 48  1  0  0  0  0
 34 70  1  0  0  0  0
 34 74  2  0  0  0  0
 35 59  1  0  0  0  0
 35 67  1  0  0  0  0
 35 75  2  0  0  0  0
 36 60  1  0  0  0  0
 36 66  1  0  0  0  0
 36 76  2  0  0  0  0
 37 61  1  0  0  0  0
 37 71  1  0  0  0  0
 37 77  2  0  0  0  0
 38 41  1  0  0  0  0
 39 48  1  0  0  0  0
 40 66  1  0  0  0  0
 41 43  1  0  0  0  0
 42 44  1  0  0  0  0
 42 45  1  0  0  0  0
 43 47  1  0  0  0  0
 44 49  1  0  0  0  0
 45 67  1  0  0  0  0
 46 49  1  0  0  0  0
 46 67  1  0  0  0  0
 47 70  1  0  0  0  0
 48 66  1  0  0  0  0
 49 65  1  0  0  0  0
 50 59  1  0  0  0  0
 51 61  1  0  0  0  0
 52 62  1  0  0  0  0
 53 62  1  0  0  0  0
 54 62  1  0  0  0  0
 55 72  1  0  0  0  0
 56 57  1  0  0  0  0
 56 58  1  0  0  0  0
 57 79  1  0  0  0  0
 58 80  1  0  0  0  0
 60 62  1  0  0  0  0
 60 71  1  0  0  0  0
 61 72  1  0  0  0  0
 63 65  1  0  0  0  0
M  CHG  1  72   1
M  ISO  4  35 100  57 101  59 100  79 101
M  END
> <Batch ID>
0111

> <Smiles>
CNC(C)C(=O)NC(C(=O)N1Cc2cc([101O:1][101CH2:1]CCOc3ccc(Cl)c([100CH:0](C)[100C:0](=O)N4CCCC(n5nc(-c6ccc(Oc7ccc(F)cc7F)cc6)c(C(N)=O)c5N)C4)n3)ccc2CC1C(=O)NC1CCCc2ccccc21)C(C)(C)C

> <Shape>
0.207

> <Color>
0.211

> <Negative vol penalty>
0.000

$$$$

  -OEChem-04052320013D

 80 88  0     1  0  0  0  0  0999 V2000
  -24.9953  -11.2906   20.2818 C   0  0  0  0  0  0  0  0  0  0  0  0
  -24.0837  -12.2337   19.8182 C   0  0  0  0  0  0  0  0  0  0  0  0
  -29.4786  -28.7977   20.9262 C   0  0  0  0  0  0  0  0  0  0  0  0
  -28.4858  -26.7433   21.7205 C   0  0  0  0  0  0  0  0  0  0  0  0
  -26.0230  -11.6792   21.1401 C   0  0  0  0  0  0  0  0  0  0  0  0
  -24.1987  -13.5660   20.2136 C   0  0  0  0  0  0  0  0  0  0  0  0
  -23.0720  -20.2197   17.8106 C   0  0  0  0  0  0  0  0  0  0  0  0
  -30.6594  -28.4880   21.6010 C   0  0  0  0  0  0  0  0  0  0  0  0
  -29.6667  -26.4336   22.3953 C   0  0  0  0  0  0  0  0  0  0  0  0
  -22.4278  -21.4015   18.1741 C   0  0  0  0  0  0  0  0  0  0  0  0
  -31.8257  -28.6247   24.7704 C   0  0  0  0  0  0  0  0  0  0  0  0
  -32.4365  -29.6405   25.5057 C   0  0  0  0  0  0  0  0  0  0  0  0
  -24.2903  -21.9721   19.5970 C   0  0  0  0  0  0  0  0  0  0  0  0
  -34.4233  -29.4292   24.1473 C   0  0  0  0  0  0  0  0  0  0  0  0
  -28.3918  -27.9253   20.9860 C   0  0  0  0  0  0  0  0  0  0  0  0
  -26.8310  -27.8984   18.9683 C   0  0  0  0  0  0  0  0  0  0  0  0
  -26.1564  -13.0187   21.5386 C   0  0  0  0  0  0  0  0  0  0  0  0
  -24.3275  -19.8995   18.3469 C   0  0  0  0  0  0  0  0  0  0  0  0
  -25.2283  -13.9727   21.0792 C   0  0  0  0  0  0  0  0  0  0  0  0
  -24.9495  -20.7869   19.2368 C   0  0  0  0  0  0  0  0  0  0  0  0
  -30.7535  -27.3060   22.3355 C   0  0  0  0  0  0  0  0  0  0  0  0
  -23.0356  -22.2765   19.0697 C   0  0  0  0  0  0  0  0  0  0  0  0
  -32.5137  -28.0111   23.7235 C   0  0  0  0  0  0  0  0  0  0  0  0
  -33.7353  -30.0427   25.1942 C   0  0  0  0  0  0  0  0  0  0  0  0
  -33.8124  -28.4134   23.4120 C   0  0  0  0  0  0  0  0  0  0  0  0
  -27.1715  -28.2449   20.2896 C   0  0  0  0  0  0  0  0  0  0  0  0
  -25.5786  -28.4318   18.7853 C   0  0  0  0  0  0  0  0  0  0  0  0
  -27.5798  -27.1602   17.9936 C   0  0  0  0  0  0  0  0  0  0  0  0
  -25.4598  -17.5425   20.1541 C   0  0  0  0  0  0  0  0  0  0  0  0
  -28.3061  -18.9835   19.5674 C   0  0  0  0  0  0  0  0  0  0  0  0
  -29.9948  -21.8277   18.7273 C   0  0  0  0  0  0  0  0  0  0  0  0
  -21.1599  -29.8537   22.5674 C   0  0  0  0  0  0  0  0  0  0  0  0
  -27.2553  -13.3825   22.5054 C   0  0  0  0  0  0  0  0  0  0  0  0
  -25.0212  -18.6337   17.9241 C   0  0  0  0  0  0  0  0  0  0  0  0
  -26.3058  -20.4993   19.8252 C   0  0  0  0  0  0  0  0  0  0  0  0
  -27.5304  -14.8822   22.5785 C   0  0  0  0  0  0  0  0  0  0  0  0
  -22.7870  -32.0256   20.2626 C   0  0  0  0  0  0  0  0  0  0  0  0
  -18.6328  -26.6010   19.3482 C   0  0  0  0  0  0  0  0  0  0  0  0
  -26.2231  -15.6597   22.6947 C   0  0  0  0  0  0  0  0  0  0  0  0
  -19.2205  -25.3180   18.7699 C   0  0  0  0  0  0  0  0  0  0  0  0
  -24.0645  -31.2717   19.8889 C   0  0  0  0  0  0  0  0  0  0  0  0
  -22.4170  -31.8168   21.7294 C   0  0  0  0  0  0  0  0  0  0  0  0
  -23.5945  -29.6523   21.7745 C   0  0  0  0  0  0  0  0  0  0  0  0
  -18.5739  -26.5607   20.8676 C   0  0  0  0  0  0  0  0  0  0  0  0
  -20.5171  -24.9725   20.9084 C   0  0  0  0  0  0  0  0  0  0  0  0
  -25.3346  -15.4319   21.4658 C   0  0  1  0  0  0  0  0  0  0  0  0
  -26.0686  -18.1623   18.9282 C   0  0  1  0  0  0  0  0  0  0  0  0
  -20.5913  -25.0068   19.3809 C   0  0  1  0  0  0  0  0  0  0  0  0
  -23.9772  -29.7870   20.2907 C   0  0  2  0  0  0  0  0  0  0  0  0
  -32.3177  -22.7046   18.3630 C   0  0  0  0  0  0  0  0  0  0  0  0
  -28.7492  -19.0565   22.5854 C   0  0  0  0  0  0  0  0  0  0  0  0
  -30.5602  -20.7436   22.2085 C   0  0  0  0  0  0  0  0  0  0  0  0
  -30.7740  -18.4514   21.2480 C   0  0  0  0  0  0  0  0  0  0  0  0
  -29.4183  -22.5138   15.9067 C   0  0  0  0  0  0  0  0  0  0  0  0
  -21.1298  -23.6814   18.8453 C   0  0  0  0  0  0  0  0  0  1  0  0
  -20.0289  -27.7943   23.3666 C   0  0  0  0  0  0  0  0  0  0  0  0
  -19.9742  -26.3457   22.9183 C   0  0  0  0  0  0  0  0  0  0  0  0
  -29.1135  -20.0685   20.2382 C   0  0  1  0  0  0  0  0  0  0  0  0
  -31.0921  -22.0844   17.7102 C   0  0  2  0  0  0  0  0  0  0  0  0
  -29.7728  -19.5848   21.5606 C   0  0  0  0  0  0  0  0  0  0  0  0
  -26.2130  -28.9446   20.9025 N   0  0  0  0  0  0  0  0  0  0  0  0
  -25.2578  -29.0420   19.9621 N   0  0  0  0  0  0  0  0  0  0  0  0
  -26.9408  -19.2458   19.3858 N   0  0  0  0  0  0  0  0  0  0  0  0
  -22.3493  -30.3879   22.0449 N   0  0  0  0  0  0  0  0  0  0  0  0
  -24.7316  -28.4338   17.7341 N   0  0  0  0  0  0  0  0  0  0  0  0
  -28.8497  -26.6840   18.3469 N   0  0  0  0  0  0  0  0  0  0  0  0
  -25.8075  -16.2191   20.3473 N   0  0  0  0  0  0  0  0  0  0  0  0
  -30.0615  -20.5489   19.2387 N   0  0  0  0  0  0  0  0  0  0  0  0
  -21.1786  -28.4899   22.8326 N   0  0  0  0  0  0  0  0  0  0  0  0
  -19.9515  -26.2785   21.4158 N   0  3  2  0  0  0  0  0  0  0  0  0
  -30.6070  -23.0094   16.6472 N   0  3  0  0  0  0  0  0  0  0  0  0
  -27.1427  -26.9437   16.8379 O   0  0  0  0  0  0  0  0  0  0  0  0
  -24.7299  -18.2155   20.8724 O   0  0  0  0  0  0  0  0  0  0  0  0
  -28.8676  -17.9446   19.2110 O   0  0  0  0  0  0  0  0  0  0  0  0
  -29.1640  -22.6778   19.0397 O   0  0  0  0  0  0  0  0  0  0  0  0
  -20.1540  -30.5402   22.7767 O   0  0  0  0  0  0  0  0  0  0  0  0
  -31.9056  -27.0034   22.9939 O   0  0  0  0  0  0  0  0  0  0  0  0
  -22.4087  -23.4304   19.4267 O   0  0  0  0  0  0  0  0  0  1  0  0
  -34.3212  -31.0193   25.8994 F   0  0  0  0  0  0  0  0  0  0  0  0
  -34.4780  -27.8285   22.4066 F   0  0  0  0  0  0  0  0  0  0  0  0
  1  2  1  0  0  0  0
  1  5  2  0  0  0  0
  2  6  2  0  0  0  0
  3  8  2  0  0  0  0
  3 15  1  0  0  0  0
  4  9  1  0  0  0  0
  4 15  2  0  0  0  0
  5 17  1  0  0  0  0
  6 19  1  0  0  0  0
  7 10  2  0  0  0  0
  7 18  1  0  0  0  0
  8 21  1  0  0  0  0
  9 21  2  0  0  0  0
 10 22  1  0  0  0  0
 11 12  2  0  0  0  0
 11 23  1  0  0  0  0
 12 24  1  0  0  0  0
 13 20  1  0  0  0  0
 13 22  2  0  0  0  0
 14 24  2  0  0  0  0
 14 25  1  0  0  0  0
 15 26  1  0  0  0  0
 16 26  1  0  0  0  0
 16 27  2  0  0  0  0
 16 28  1  0  0  0  0
 17 19  2  0  0  0  0
 17 33  1  0  0  0  0
 18 20  2  0  0  0  0
 18 34  1  0  0  0  0
 19 46  1  0  0  0  0
 20 35  1  0  0  0  0
 21 77  1  0  0  0  0
 22 78  1  0  0  0  0
 23 25  2  0  0  0  0
 23 77  1  0  0  0  0
 24 79  1  0  0  0  0
 25 80  1  0  0  0  0
 26 61  2  0  0  0  0
 27 62  1  0  0  0  0
 27 65  1  0  0  0  0
 28 66  1  0  0  0  0
 28 72  2  0  0  0  0
 29 47  1  0  0  0  0
 29 67  1  0  0  0  0
 29 73  2  0  0  0  0
 30 58  1  0  0  0  0
 30 63  1  0  0  0  0
 30 74  2  0  0  0  0
 31 59  1  0  0  0  0
 31 68  1  0  0  0  0
 31 75  2  0  0  0  0
 32 64  1  0  0  0  0
 32 69  1  0  0  0  0
 32 76  2  0  0  0  0
 33 36  1  0  0  0  0
 34 47  1  0  0  0  0
 35 63  1  0  0  0  0
 36 39  1  0  0  0  0
 37 41  1  0  0  0  0
 37 42  1  0  0  0  0
 38 40  1  0  0  0  0
 38 44  1  0  0  0  0
 39 46  1  0  0  0  0
 40 48  1  0  0  0  0
 41 49  1  0  0  0  0
 42 64  1  0  0  0  0
 43 49  1  0  0  0  0
 43 64  1  0  0  0  0
 44 70  1  0  0  0  0
 45 48  1  0  0  0  0
 45 70  1  0  0  0  0
 46 67  1  0  0  0  0
 47 63  1  0  0  0  0
 48 55  1  0  0  0  0
 49 62  1  0  0  0  0
 50 59  1  0  0  0  0
 51 60  1  0  0  0  0
 52 60  1  0  0  0  0
 53 60  1  0  0  0  0
 54 71  1  0  0  0  0
 55 78  1  0  0  0  0
 56 57  1  0  0  0  0
 56 69  1  0  0  0  0
 57 70  1  0  0  0  0
 58 60  1  0  0  0  0
 58 68  1  0  0  0  0
 59 71  1  0  0  0  0
 61 62  1  0  0  0  0
M  CHG  2  70   1  71   1
M  ISO  4  32 100  55 101  69 100  78 101
M  END
> <Batch ID>
0111

> <Smiles>
CNC(C)C(=O)NC(C(=O)N1Cc2cc([101O:1][101CH2:1]C3CCCN(CC[100NH:0][100C:0](=O)N4CCCC(n5nc(-c6ccc(Oc7ccc(F)cc7F)cc6)c(C(N)=O)c5N)C4)C3)ccc2CC1C(=O)NC1CCCc2ccccc21)C(C)(C)C

> <Shape>
0.216

> <Color>
0.065

> <Negative vol penalty>
0.000

$$$$

  -OEChem-04052320013D

 86 95  0     1  0  0  0  0  0999 V2000
  -41.3982  -23.4577   12.6352 C   0  0  0  0  0  0  0  0  0  0  0  0
  -40.3481  -22.7581   13.2211 C   0  0  0  0  0  0  0  0  0  0  0  0
  -23.0142   -9.9155   19.9555 C   0  0  0  0  0  0  0  0  0  0  0  0
  -23.7638   -9.9140   22.2523 C   0  0  0  0  0  0  0  0  0  0  0  0
  -41.8264  -24.6632   13.1895 C   0  0  0  0  0  0  0  0  0  0  0  0
  -39.7263  -23.2632   14.3625 C   0  0  0  0  0  0  0  0  0  0  0  0
  -33.8025  -22.7902   15.8424 C   0  0  0  0  0  0  0  0  0  0  0  0
  -22.2561   -8.7710   20.2022 C   0  0  0  0  0  0  0  0  0  0  0  0
  -23.0057   -8.7694   22.4989 C   0  0  0  0  0  0  0  0  0  0  0  0
  -33.1137  -21.9236   16.6899 C   0  0  0  0  0  0  0  0  0  0  0  0
  -23.2612   -5.4443   21.9430 C   0  0  0  0  0  0  0  0  0  0  0  0
  -23.8618   -4.4121   22.6637 C   0  0  0  0  0  0  0  0  0  0  0  0
  -33.2367  -23.5625   18.4558 C   0  0  0  0  0  0  0  0  0  0  0  0
  -22.1548   -4.6052   24.3626 C   0  0  0  0  0  0  0  0  0  0  0  0
  -31.5891  -18.4004   20.0874 C   0  0  0  0  0  0  0  0  0  0  0  0
  -23.7681  -10.4871   20.9806 C   0  0  0  0  0  0  0  0  0  0  0  0
  -24.1392  -13.0081   20.8620 C   0  0  0  0  0  0  0  0  0  0  0  0
  -41.2033  -25.1881   14.3326 C   0  0  0  0  0  0  0  0  0  0  0  0
  -34.2238  -24.0472   16.2993 C   0  0  0  0  0  0  0  0  0  0  0  0
  -40.1475  -24.4761   14.9335 C   0  0  0  0  0  0  0  0  0  0  0  0
  -33.9284  -24.4442   17.6113 C   0  0  0  0  0  0  0  0  0  0  0  0
  -29.4900  -18.7473   20.8049 C   0  0  0  0  0  0  0  0  0  0  0  0
  -30.6448  -17.9510   20.9856 C   0  0  0  0  0  0  0  0  0  0  0  0
  -22.2518   -8.1979   21.4739 C   0  0  0  0  0  0  0  0  0  0  0  0
  -32.8333  -22.3085   17.9977 C   0  0  0  0  0  0  0  0  0  0  0  0
  -22.1075   -6.0571   22.4321 C   0  0  0  0  0  0  0  0  0  0  0  0
  -23.3086   -3.9925   23.8735 C   0  0  0  0  0  0  0  0  0  0  0  0
  -21.5543   -5.6375   23.6418 C   0  0  0  0  0  0  0  0  0  0  0  0
  -24.5519  -11.6691   20.7262 C   0  0  0  0  0  0  0  0  0  0  0  0
  -29.7565  -19.6560   19.8002 C   0  0  0  0  0  0  0  0  0  0  0  0
  -25.2415  -13.7451   20.5036 C   0  0  0  0  0  0  0  0  0  0  0  0
  -28.8304  -20.6556   19.3167 C   0  0  0  0  0  0  0  0  0  0  0  0
  -22.8729  -13.5384   21.2753 C   0  0  0  0  0  0  0  0  0  0  0  0
  -37.0420  -25.4696   16.6717 C   0  0  0  0  0  0  0  0  0  0  0  0
  -35.2084  -28.0426   17.4064 C   0  0  0  0  0  0  0  0  0  0  0  0
  -32.2156  -29.2433   18.5238 C   0  0  0  0  0  0  0  0  0  0  0  0
  -30.7356  -14.7016   20.7165 C   0  0  0  0  0  0  0  0  0  0  0  0
  -41.7321  -26.4711   14.9233 C   0  0  0  0  0  0  0  0  0  0  0  0
  -34.9424  -24.9811   15.3644 C   0  0  0  0  0  0  0  0  0  0  0  0
  -28.1836  -18.7329   21.5035 C   0  0  0  0  0  0  0  0  0  0  0  0
  -34.3411  -25.7911   18.1442 C   0  0  0  0  0  0  0  0  0  0  0  0
  -40.7741  -27.1252   15.9155 C   0  0  0  0  0  0  0  0  0  0  0  0
  -29.5816  -12.3300   18.3247 C   0  0  0  0  0  0  0  0  0  0  0  0
  -40.2278  -26.0890   16.8925 C   0  0  0  0  0  0  0  0  0  0  0  0
  -28.1389  -12.0527   18.7512 C   0  0  0  0  0  0  0  0  0  0  0  0
  -27.0995  -19.3218   20.5907 C   0  0  0  0  0  0  0  0  0  0  0  0
  -30.4958  -12.5405   19.5297 C   0  0  0  0  0  0  0  0  0  0  0  0
  -28.5963  -13.2932   20.9077 C   0  0  0  0  0  0  0  0  0  0  0  0
  -39.4315  -25.0039   16.1578 C   0  0  1  0  0  0  0  0  0  0  0  0
  -35.7747  -26.0320   16.0926 C   0  0  1  0  0  0  0  0  0  0  0  0
  -27.6255  -13.1297   19.7258 C   0  0  2  0  0  0  0  0  0  0  0  0
  -31.0285  -31.3896   19.0544 C   0  0  0  0  0  0  0  0  0  0  0  0
  -25.9834  -22.1981   20.6790 C   0  0  0  0  0  0  0  0  0  0  0  0
  -25.3661  -20.6770   18.7682 C   0  0  0  0  0  0  0  0  0  0  0  0
  -36.7989  -28.2785   19.9996 C   0  0  0  0  0  0  0  0  0  0  0  0
  -35.0000  -29.7779   20.8849 C   0  0  0  0  0  0  0  0  0  0  0  0
  -36.3100  -30.4574   18.8738 C   0  0  0  0  0  0  0  0  0  0  0  0
  -30.1303  -28.7283   16.4878 C   0  0  0  0  0  0  0  0  0  0  0  0
  -30.8204  -16.8513   21.9537 C   0  0  0  0  0  0  0  0  0  0  0  0
  -31.7702  -20.1947   18.2971 C   0  0  0  0  0  0  0  0  0  1  0  0
  -34.6068  -28.5997   18.6740 C   0  0  1  0  0  0  0  0  0  0  0  0
  -31.3075  -30.3375   17.9923 C   0  0  2  0  0  0  0  0  0  0  0  0
  -26.4832  -21.4540   19.4492 C   0  0  0  0  0  0  0  0  0  0  0  0
  -35.6727  -29.2522   19.5989 C   0  0  0  0  0  0  0  0  0  0  0  0
  -25.8174  -11.5588   20.3136 N   0  0  0  0  0  0  0  0  0  0  0  0
  -31.0426  -19.4404   19.3781 N   0  0  0  0  0  0  0  0  0  0  0  0
  -26.2095  -12.8380   20.1870 N   0  0  0  0  0  0  0  0  0  0  0  0
  -27.5289  -20.5242   19.8473 N   0  0  0  0  0  0  0  0  0  0  0  0
  -35.0468  -26.6662   17.1935 N   0  0  0  0  0  0  0  0  0  0  0  0
  -29.9530  -13.5752   20.4132 N   0  0  0  0  0  0  0  0  0  0  0  0
  -25.4674  -15.0741   20.4315 N   0  0  0  0  0  0  0  0  0  0  0  0
  -21.8491  -12.6409   21.6080 N   0  0  0  0  0  0  0  0  0  0  0  0
  -38.1168  -25.4943   15.8036 N   0  0  0  0  0  0  0  0  0  0  0  0
  -33.5425  -29.5062   18.2566 N   0  0  0  0  0  0  0  0  0  0  0  0
  -30.1433  -15.6372   21.5558 N   0  0  0  0  0  0  0  0  0  0  0  0
  -30.0068  -29.7612   17.5485 N   0  3  0  0  0  0  0  0  0  0  0  0
  -29.1661  -21.5377   18.5291 O   0  0  0  0  0  0  0  0  0  0  0  0
  -22.6504  -14.7717   21.3315 O   0  0  0  0  0  0  0  0  0  0  0  0
  -37.0448  -25.0460   17.8216 O   0  0  0  0  0  0  0  0  0  0  0  0
  -35.7937  -28.8019   16.6302 O   0  0  0  0  0  0  0  0  0  0  0  0
  -31.7906  -28.2561   19.1199 O   0  0  0  0  0  0  0  0  0  0  0  0
  -31.8755  -14.8640   20.2680 O   0  0  0  0  0  0  0  0  0  0  0  0
  -21.5120   -7.0812   21.7150 O   0  0  0  0  0  0  0  0  0  0  0  0
  -32.1617  -21.4643   18.8273 O   0  0  0  0  0  0  0  0  0  1  0  0
  -23.8845   -3.0002   24.5647 F   0  0  0  0  0  0  0  0  0  0  0  0
  -20.4454   -6.2215   24.1162 F   0  0  0  0  0  0  0  0  0  0  0  0
  1  2  1  0  0  0  0
  1  5  2  0  0  0  0
  2  6  2  0  0  0  0
  3  8  2  0  0  0  0
  3 16  1  0  0  0  0
  4  9  1  0  0  0  0
  4 16  2  0  0  0  0
  5 18  1  0  0  0  0
  6 20  1  0  0  0  0
  7 10  2  0  0  0  0
  7 19  1  0  0  0  0
  8 24  1  0  0  0  0
  9 24  2  0  0  0  0
 10 25  1  0  0  0  0
 11 12  2  0  0  0  0
 11 26  1  0  0  0  0
 12 27  1  0  0  0  0
 13 21  1  0  0  0  0
 13 25  2  0  0  0  0
 14 27  2  0  0  0  0
 14 28  1  0  0  0  0
 15 23  2  0  0  0  0
 15 66  1  0  0  0  0
 16 29  1  0  0  0  0
 17 29  1  0  0  0  0
 17 31  2  0  0  0  0
 17 33  1  0  0  0  0
 18 20  2  0  0  0  0
 18 38  1  0  0  0  0
 19 21  2  0  0  0  0
 19 39  1  0  0  0  0
 20 49  1  0  0  0  0
 21 41  1  0  0  0  0
 22 23  1  0  0  0  0
 22 30  2  0  0  0  0
 22 40  1  0  0  0  0
 23 59  1  0  0  0  0
 24 83  1  0  0  0  0
 25 84  1  0  0  0  0
 26 28  2  0  0  0  0
 26 83  1  0  0  0  0
 27 85  1  0  0  0  0
 28 86  1  0  0  0  0
 29 65  2  0  0  0  0
 30 32  1  0  0  0  0
 30 66  1  0  0  0  0
 31 67  1  0  0  0  0
 31 71  1  0  0  0  0
 32 68  1  0  0  0  0
 32 77  2  0  0  0  0
 33 72  1  0  0  0  0
 33 78  2  0  0  0  0
 34 50  1  0  0  0  0
 34 73  1  0  0  0  0
 34 79  2  0  0  0  0
 35 61  1  0  0  0  0
 35 69  1  0  0  0  0
 35 80  2  0  0  0  0
 36 62  1  0  0  0  0
 36 74  1  0  0  0  0
 36 81  2  0  0  0  0
 37 70  1  0  0  0  0
 37 75  1  0  0  0  0
 37 82  2  0  0  0  0
 38 42  1  0  0  0  0
 39 50  1  0  0  0  0
 40 46  1  0  0  0  0
 41 69  1  0  0  0  0
 42 44  1  0  0  0  0
 43 45  1  0  0  0  0
 43 47  1  0  0  0  0
 44 49  1  0  0  0  0
 45 51  1  0  0  0  0
 46 68  1  0  0  0  0
 47 70  1  0  0  0  0
 48 51  1  0  0  0  0
 48 70  1  0  0  0  0
 49 73  1  0  0  0  0
 50 69  1  0  0  0  0
 51 67  1  0  0  0  0
 52 62  1  0  0  0  0
 53 63  1  0  0  0  0
 54 63  1  0  0  0  0
 55 64  1  0  0  0  0
 56 64  1  0  0  0  0
 57 64  1  0  0  0  0
 58 76  1  0  0  0  0
 59 75  1  0  0  0  0
 60 66  1  0  0  0  0
 60 84  1  0  0  0  0
 61 64  1  0  0  0  0
 61 74  1  0  0  0  0
 62 76  1  0  0  0  0
 63 68  1  0  0  0  0
 65 67  1  0  0  0  0
M  CHG  1  76   1
M  ISO  4  37 100  60 101  75 100  84 101
M  END
> <Batch ID>
0111

> <Smiles>
CNC(C)C(=O)NC(C(=O)N1Cc2cc([101O:1][101CH2:1]n3cc(C[100NH:0][100C:0](=O)N4CCCC(n5nc(-c6ccc(Oc7ccc(F)cc7F)cc6)c(C(N)=O)c5N)C4)c4c3C(=O)N(C(C)C)CC4)ccc2CC1C(=O)NC1CCCc2ccccc21)C(C)(C)C

> <Shape>
0.213

> <Color>
0.196

> <Negative vol penalty>
0.000

$$$$

  -OEChem-04052320013D

 81 88  0     1  0  0  0  0  0999 V2000
  -19.6998  -30.6852   24.3638 C   0  0  0  0  0  0  0  0  0  0  0  0
  -21.0445  -30.3902   24.1637 C   0  0  0  0  0  0  0  0  0  0  0  0
  -27.8737  -14.6946   21.5201 C   0  0  0  0  0  0  0  0  0  0  0  0
  -26.0897  -15.3887   20.0463 C   0  0  0  0  0  0  0  0  0  0  0  0
  -18.7191  -29.8026   23.9129 C   0  0  0  0  0  0  0  0  0  0  0  0
  -21.4094  -29.2119   23.5134 C   0  0  0  0  0  0  0  0  0  0  0  0
  -25.0382  -29.9436   20.0578 C   0  0  0  0  0  0  0  0  0  0  0  0
  -27.4282  -13.3753   21.4381 C   0  0  0  0  0  0  0  0  0  0  0  0
  -25.6441  -14.0695   19.9642 C   0  0  0  0  0  0  0  0  0  0  0  0
  -26.3444  -30.0815   20.5255 C   0  0  0  0  0  0  0  0  0  0  0  0
  -23.8204  -10.9411   19.6531 C   0  0  0  0  0  0  0  0  0  0  0  0
  -22.4496  -10.7112   19.7703 C   0  0  0  0  0  0  0  0  0  0  0  0
  -26.7838  -27.7781   19.9593 C   0  0  0  0  0  0  0  0  0  0  0  0
  -22.4736  -11.6941   21.9773 C   0  0  0  0  0  0  0  0  0  0  0  0
  -27.2044  -15.7013   20.8242 C   0  0  0  0  0  0  0  0  0  0  0  0
  -28.6016  -17.6989   20.0725 C   0  0  0  0  0  0  0  0  0  0  0  0
  -19.0719  -28.6176   23.2482 C   0  0  0  0  0  0  0  0  0  0  0  0
  -24.5910  -28.7168   19.5465 C   0  0  0  0  0  0  0  0  0  0  0  0
  -20.4326  -28.3120   23.0543 C   0  0  0  0  0  0  0  0  0  0  0  0
  -25.4723  -27.6280   19.4833 C   0  0  0  0  0  0  0  0  0  0  0  0
  -26.3134  -13.0628   20.6602 C   0  0  0  0  0  0  0  0  0  0  0  0
  -27.2165  -28.9979   20.4790 C   0  0  0  0  0  0  0  0  0  0  0  0
  -24.5178  -11.5473   20.6980 C   0  0  0  0  0  0  0  0  0  0  0  0
  -21.7762  -11.0877   20.9324 C   0  0  0  0  0  0  0  0  0  0  0  0
  -23.8444  -11.9238   21.8600 C   0  0  0  0  0  0  0  0  0  0  0  0
  -27.6638  -17.0643   20.9090 C   0  0  0  0  0  0  0  0  0  0  0  0
  -28.6910  -18.9779   20.5652 C   0  0  0  0  0  0  0  0  0  0  0  0
  -29.3268  -17.1789   18.9503 C   0  0  0  0  0  0  0  0  0  0  0  0
  -22.3302  -26.6368   20.3626 C   0  0  0  0  0  0  0  0  0  0  0  0
  -23.2101  -25.1886   17.5966 C   0  0  0  0  0  0  0  0  0  0  0  0
  -25.6173  -24.6781   15.2319 C   0  0  0  0  0  0  0  0  0  0  0  0
  -26.3012  -23.5573   22.3720 C   0  0  0  0  0  0  0  0  0  0  0  0
  -17.9777  -27.6716   22.8208 C   0  0  0  0  0  0  0  0  0  0  0  0
  -23.1871  -28.5920   19.0213 C   0  0  0  0  0  0  0  0  0  0  0  0
  -25.0474  -26.2953   18.9250 C   0  0  0  0  0  0  0  0  0  0  0  0
  -18.4378  -26.6256   21.8086 C   0  0  0  0  0  0  0  0  0  0  0  0
  -26.9069  -20.9901   24.8500 C   0  0  0  0  0  0  0  0  0  0  0  0
  -19.7577  -26.0007   22.2493 C   0  0  0  0  0  0  0  0  0  0  0  0
  -27.2373  -19.7861   23.9660 C   0  0  0  0  0  0  0  0  0  0  0  0
  -25.8116  -21.8499   24.2261 C   0  0  0  0  0  0  0  0  0  0  0  0
  -26.4396  -21.1176   21.9583 C   0  0  0  0  0  0  0  0  0  0  0  0
  -20.8675  -27.0558   22.3312 C   0  0  1  0  0  0  0  0  0  0  0  0
  -22.6844  -27.1518   18.9962 C   0  0  1  0  0  0  0  0  0  0  0  0
  -27.5562  -20.2208   22.5233 C   0  0  2  0  0  0  0  0  0  0  0  0
  -26.0571  -23.4132   13.1097 C   0  0  0  0  0  0  0  0  0  0  0  0
  -26.2719  -27.7932   26.3912 C   0  0  0  0  0  0  0  0  0  0  0  0
  -29.1633  -26.7060   26.1750 C   0  0  0  0  0  0  0  0  0  0  0  0
  -23.5916  -22.6249   19.2064 C   0  0  0  0  0  0  0  0  0  0  0  0
  -24.9051  -21.6977   17.2872 C   0  0  0  0  0  0  0  0  0  0  0  0
  -22.5055  -22.3046   16.9766 C   0  0  0  0  0  0  0  0  0  0  0  0
  -26.0253  -27.1728   13.6929 C   0  0  0  0  0  0  0  0  0  0  0  0
  -25.7869  -26.8876   24.1065 C   0  0  0  0  0  0  0  0  0  0  0  0
  -29.8927  -29.5929   22.8264 C   0  0  0  0  0  0  0  0  0  0  0  0
  -26.1209  -25.9672   22.9349 C   0  0  0  0  0  0  0  0  0  0  0  0
  -29.6943  -28.2158   23.4416 C   0  0  0  0  0  0  0  0  0  0  0  0
  -28.7109  -30.0664   21.9892 C   0  0  0  0  0  0  0  0  0  1  0  0
  -24.2274  -24.1404   17.2152 C   0  0  1  0  0  0  0  0  0  0  0  0
  -25.5641  -24.7181   13.7154 C   0  0  2  0  0  0  0  0  0  0  0  0
  -26.7308  -26.7805   25.3305 C   0  0  1  0  0  0  0  0  0  0  0  0
  -28.2341  -26.8968   24.9801 C   0  0  1  0  0  0  0  0  0  0  0  0
  -23.8151  -22.7163   17.6837 C   0  0  0  0  0  0  0  0  0  0  0  0
  -27.1915  -17.8734   21.8610 N   0  0  0  0  0  0  0  0  0  0  0  0
  -27.8351  -19.0295   21.6258 N   0  0  0  0  0  0  0  0  0  0  0  0
  -23.6630  -26.2214   18.4297 N   0  0  0  0  0  0  0  0  0  0  0  0
  -26.1853  -22.2454   22.8609 N   0  0  0  0  0  0  0  0  0  0  0  0
  -29.4177  -20.0521   20.1904 N   0  0  0  0  0  0  0  0  0  0  0  0
  -29.1155  -15.8441   18.5787 N   0  0  0  0  0  0  0  0  0  0  0  0
  -21.3582  -27.3770   21.0082 N   0  0  0  0  0  0  0  0  0  0  0  0
  -24.4194  -24.2631   15.7742 N   0  0  0  0  0  0  0  0  0  0  0  0
  -26.0370  -24.5676   23.2886 N   0  0  0  0  0  0  0  0  0  0  0  0
  -26.4132  -25.8275   13.1964 N   0  3  0  0  0  0  0  0  0  0  0  0
  -28.5406  -28.2209   24.3714 N   0  3  0  0  0  0  0  0  0  0  0  0
  -30.1505  -17.8723   18.3067 O   0  0  0  0  0  0  0  0  0  0  0  0
  -22.8958  -25.6408   20.7982 O   0  0  0  0  0  0  0  0  0  0  0  0
  -22.0580  -25.0983   17.1652 O   0  0  0  0  0  0  0  0  0  0  0  0
  -26.6223  -24.9807   15.8714 O   0  0  0  0  0  0  0  0  0  0  0  0
  -26.6218  -23.8100   21.2056 O   0  0  0  0  0  0  0  0  0  0  0  0
  -25.8785  -11.7756   20.5797 O   0  0  0  0  0  0  0  0  0  0  0  0
  -28.4917  -29.1295   20.9354 O   0  0  0  0  0  0  0  0  0  1  0  0
  -20.4596  -10.8684   21.0442 F   0  0  0  0  0  0  0  0  0  0  0  0
  -24.5088  -12.5078   22.8667 F   0  0  0  0  0  0  0  0  0  0  0  0
  1  2  1  0  0  0  0
  1  5  2  0  0  0  0
  2  6  2  0  0  0  0
  3  8  2  0  0  0  0
  3 15  1  0  0  0  0
  4  9  1  0  0  0  0
  4 15  2  0  0  0  0
  5 17  1  0  0  0  0
  6 19  1  0  0  0  0
  7 10  2  0  0  0  0
  7 18  1  0  0  0  0
  8 21  1  0  0  0  0
  9 21  2  0  0  0  0
 10 22  1  0  0  0  0
 11 12  2  0  0  0  0
 11 23  1  0  0  0  0
 12 24  1  0  0  0  0
 13 20  1  0  0  0  0
 13 22  2  0  0  0  0
 14 24  2  0  0  0  0
 14 25  1  0  0  0  0
 15 26  1  0  0  0  0
 16 26  1  0  0  0  0
 16 27  2  0  0  0  0
 16 28  1  0  0  0  0
 17 19  2  0  0  0  0
 17 33  1  0  0  0  0
 18 20  2  0  0  0  0
 18 34  1  0  0  0  0
 19 42  1  0  0  0  0
 20 35  1  0  0  0  0
 21 78  1  0  0  0  0
 22 79  1  0  0  0  0
 23 25  2  0  0  0  0
 23 78  1  0  0  0  0
 24 80  1  0  0  0  0
 25 81  1  0  0  0  0
 26 62  2  0  0  0  0
 27 63  1  0  0  0  0
 27 66  1  0  0  0  0
 28 67  1  0  0  0  0
 28 73  2  0  0  0  0
 29 43  1  0  0  0  0
 29 68  1  0  0  0  0
 29 74  2  0  0  0  0
 30 57  1  0  0  0  0
 30 64  1  0  0  0  0
 30 75  2  0  0  0  0
 31 58  1  0  0  0  0
 31 69  1  0  0  0  0
 31 76  2  0  0  0  0
 32 65  1  0  0  0  0
 32 70  1  0  0  0  0
 32 77  2  0  0  0  0
 33 36  1  0  0  0  0
 34 43  1  0  0  0  0
 35 64  1  0  0  0  0
 36 38  1  0  0  0  0
 37 39  1  0  0  0  0
 37 40  1  0  0  0  0
 38 42  1  0  0  0  0
 39 44  1  0  0  0  0
 40 65  1  0  0  0  0
 41 44  1  0  0  0  0
 41 65  1  0  0  0  0
 42 68  1  0  0  0  0
 43 64  1  0  0  0  0
 44 63  1  0  0  0  0
 45 58  1  0  0  0  0
 46 59  1  0  0  0  0
 47 60  1  0  0  0  0
 48 61  1  0  0  0  0
 49 61  1  0  0  0  0
 50 61  1  0  0  0  0
 51 71  1  0  0  0  0
 52 54  1  0  0  0  0
 52 59  1  0  0  0  0
 53 55  1  0  0  0  0
 53 56  1  0  0  0  0
 54 70  1  0  0  0  0
 55 72  1  0  0  0  0
 56 79  1  0  0  0  0
 57 61  1  0  0  0  0
 57 69  1  0  0  0  0
 58 71  1  0  0  0  0
 59 60  1  0  0  0  0
 60 72  1  0  0  0  0
 62 63  1  0  0  0  0
M  CHG  2  71   1  72   1
M  ISO  4  32 100  56 101  70 100  79 101
M  END
> <Batch ID>
0111

> <Smiles>
CNC(C)C(=O)NC(C(=O)N1Cc2cc([101O:1][101CH2:1]CCNC(C)C(C)CC[100NH:0][100C:0](=O)N3CCCC(n4nc(-c5ccc(Oc6ccc(F)cc6F)cc5)c(C(N)=O)c4N)C3)ccc2CC1C(=O)NC1CCCc2ccccc21)C(C)(C)C

> <Shape>
0.210

> <Color>
0.067

> <Negative vol penalty>
0.000

$$$$

  -OEChem-04052320013D

 81 89  0     1  0  0  0  0  0999 V2000
  -21.4683  -23.1965   20.0204 C   0  0  0  0  0  0  0  0  0  0  0  0
  -22.7033  -22.6117   20.2818 C   0  0  0  0  0  0  0  0  0  0  0  0
  -22.4311  -28.2035   20.9561 C   0  0  0  0  0  0  0  0  0  0  0  0
  -23.7291  -27.7817   22.9497 C   0  0  0  0  0  0  0  0  0  0  0  0
  -20.2950  -22.5364   20.3829 C   0  0  0  0  0  0  0  0  0  0  0  0
  -22.7656  -21.3669   20.9071 C   0  0  0  0  0  0  0  0  0  0  0  0
  -26.0933  -18.2503   18.7029 C   0  0  0  0  0  0  0  0  0  0  0  0
  -21.2547  -28.0443   21.6884 C   0  0  0  0  0  0  0  0  0  0  0  0
  -22.5527  -27.6225   23.6820 C   0  0  0  0  0  0  0  0  0  0  0  0
  -27.4425  -18.4537   18.9894 C   0  0  0  0  0  0  0  0  0  0  0  0
  -19.3888  -29.8745   23.8335 C   0  0  0  0  0  0  0  0  0  0  0  0
  -18.3714  -30.8083   23.6369 C   0  0  0  0  0  0  0  0  0  0  0  0
  -29.7010  -21.7589   22.6148 C   0  0  0  0  0  0  0  0  0  0  0  0
  -27.3695  -16.6474   20.5866 C   0  0  0  0  0  0  0  0  0  0  0  0
  -16.8902  -29.0421   22.9131 C   0  0  0  0  0  0  0  0  0  0  0  0
  -29.7400  -20.3989   22.8301 C   0  0  0  0  0  0  0  0  0  0  0  0
  -31.2743  -20.8731   21.2694 C   0  0  0  0  0  0  0  0  0  0  0  0
  -23.6684  -28.0722   21.5867 C   0  0  0  0  0  0  0  0  0  0  0  0
  -25.5986  -29.4302   20.6183 C   0  0  0  0  0  0  0  0  0  0  0  0
  -20.3428  -21.2784   21.0042 C   0  0  0  0  0  0  0  0  0  0  0  0
  -25.3681  -17.2494   19.3652 C   0  0  0  0  0  0  0  0  0  0  0  0
  -21.5919  -20.6899   21.2795 C   0  0  0  0  0  0  0  0  0  0  0  0
  -26.0118  -16.4317   20.3049 C   0  0  0  0  0  0  0  0  0  0  0  0
  -30.6717  -22.0589   21.6275 C   0  0  0  0  0  0  0  0  0  0  0  0
  -21.3155  -27.7538   23.0513 C   0  0  0  0  0  0  0  0  0  0  0  0
  -28.0801  -17.6541   19.9334 C   0  0  0  0  0  0  0  0  0  0  0  0
  -19.1569  -28.5245   23.5698 C   0  0  0  0  0  0  0  0  0  0  0  0
  -17.1222  -30.3921   23.1768 C   0  0  0  0  0  0  0  0  0  0  0  0
  -17.9076  -28.1084   23.1097 C   0  0  0  0  0  0  0  0  0  0  0  0
  -24.8840  -28.2360   20.8307 C   0  0  0  0  0  0  0  0  0  0  0  0
  -26.6691  -29.0565   19.8432 C   0  0  0  0  0  0  0  0  0  0  0  0
  -25.3197  -30.7585   21.0804 C   0  0  0  0  0  0  0  0  0  0  0  0
  -22.8448  -17.2139   21.2980 C   0  0  0  0  0  0  0  0  0  0  0  0
  -23.1406  -13.9987   20.9866 C   0  0  0  0  0  0  0  0  0  0  0  0
  -25.1487  -11.3275   20.2945 C   0  0  0  0  0  0  0  0  0  0  0  0
  -29.5544  -23.8618   19.1077 C   0  0  0  0  0  0  0  0  0  0  0  0
  -19.0489  -20.6248   21.4204 C   0  0  0  0  0  0  0  0  0  0  0  0
  -23.9201  -17.0252   19.0255 C   0  0  0  0  0  0  0  0  0  0  0  0
  -25.2831  -15.3302   21.0290 C   0  0  0  0  0  0  0  0  0  0  0  0
  -19.1925  -19.1391   21.7408 C   0  0  0  0  0  0  0  0  0  0  0  0
  -27.9778  -25.8115   16.5800 C   0  0  0  0  0  0  0  0  0  0  0  0
  -20.4053  -18.9006   22.6346 C   0  0  0  0  0  0  0  0  0  0  0  0
  -27.0706  -26.7617   17.3636 C   0  0  0  0  0  0  0  0  0  0  0  0
  -28.0435  -24.4307   17.2288 C   0  0  0  0  0  0  0  0  0  0  0  0
  -27.5125  -25.3841   19.4386 C   0  0  0  0  0  0  0  0  0  0  0  0
  -21.7000  -19.3296   21.9337 C   0  0  1  0  0  0  0  0  0  0  0  0
  -23.1495  -16.3143   20.1337 C   0  0  1  0  0  0  0  0  0  0  0  0
  -27.4585  -26.8059   18.8538 C   0  0  2  0  0  0  0  0  0  0  0  0
  -25.1164   -8.8220   20.1570 C   0  0  0  0  0  0  0  0  0  0  0  0
  -23.1841  -13.8334   24.0330 C   0  0  0  0  0  0  0  0  0  0  0  0
  -24.0903  -11.5088   23.8244 C   0  0  0  0  0  0  0  0  0  0  0  0
  -21.8337  -12.0525   22.9109 C   0  0  0  0  0  0  0  0  0  0  0  0
  -32.1971  -18.0785   20.9000 C   0  0  0  0  0  0  0  0  0  0  0  0
  -31.5846  -17.9069   23.3027 C   0  0  0  0  0  0  0  0  0  0  0  0
  -25.8696  -11.3599   17.4242 C   0  0  0  0  0  0  0  0  0  0  0  0
  -30.9821  -23.3947   21.0832 C   0  0  0  0  0  0  0  0  0  0  0  0
  -29.8323  -17.5346   21.5370 C   0  0  0  0  0  0  0  0  0  1  0  0
  -23.8922  -12.9177   21.7252 C   0  0  1  0  0  0  0  0  0  0  0  0
  -24.9489  -10.1246   19.3902 C   0  0  2  0  0  0  0  0  0  0  0  0
  -23.2636  -12.6000   23.1113 C   0  0  0  0  0  0  0  0  0  0  0  0
  -31.0743  -18.3792   21.9218 C   0  0  0  0  0  0  0  0  0  0  0  0
  -25.4525  -27.1826   20.2382 N   0  0  0  0  0  0  0  0  0  0  0  0
  -30.6997  -19.8708   22.0066 N   0  0  0  0  0  0  0  0  0  0  0  0
  -26.5357  -27.7135   19.6459 N   0  0  0  0  0  0  0  0  0  0  0  0
  -23.8670  -15.1544   20.6667 N   0  0  0  0  0  0  0  0  0  0  0  0
  -28.4181  -24.5426   18.6406 N   0  0  0  0  0  0  0  0  0  0  0  0
  -27.7021  -29.7489   19.3180 N   0  0  0  0  0  0  0  0  0  0  0  0
  -24.1783  -30.9664   21.8667 N   0  0  0  0  0  0  0  0  0  0  0  0
  -22.1050  -18.3328   20.9658 N   0  0  0  0  0  0  0  0  0  0  0  0
  -23.9554  -11.7741   20.8215 N   0  0  0  0  0  0  0  0  0  0  0  0
  -29.8422  -24.0266   20.4570 N   0  0  0  0  0  0  0  0  0  0  0  0
  -25.9380  -10.1444   18.2757 N   0  3  0  0  0  0  0  0  0  0  0  0
  -26.0518  -31.7350   20.7906 O   0  0  0  0  0  0  0  0  0  0  0  0
  -23.2495  -16.9143   22.4151 O   0  0  0  0  0  0  0  0  0  0  0  0
  -21.9546  -13.8211   20.6976 O   0  0  0  0  0  0  0  0  0  0  0  0
  -26.2534  -11.8193   20.5144 O   0  0  0  0  0  0  0  0  0  0  0  0
  -30.2633  -23.1633   18.3751 O   0  0  0  0  0  0  0  0  0  0  0  0
  -20.1677  -27.5986   23.7662 O   0  0  0  0  0  0  0  0  0  0  0  0
  -29.3967  -17.8510   20.2154 O   0  0  0  0  0  0  0  0  0  1  0  0
  -16.1448  -31.2887   22.9895 F   0  0  0  0  0  0  0  0  0  0  0  0
  -17.6785  -26.8127   22.8558 F   0  0  0  0  0  0  0  0  0  0  0  0
  1  2  1  0  0  0  0
  1  5  2  0  0  0  0
  2  6  2  0  0  0  0
  3  8  2  0  0  0  0
  3 18  1  0  0  0  0
  4  9  1  0  0  0  0
  4 18  2  0  0  0  0
  5 20  1  0  0  0  0
  6 22  1  0  0  0  0
  7 10  2  0  0  0  0
  7 21  1  0  0  0  0
  8 25  1  0  0  0  0
  9 25  2  0  0  0  0
 10 26  1  0  0  0  0
 11 12  2  0  0  0  0
 11 27  1  0  0  0  0
 12 28  1  0  0  0  0
 13 16  2  0  0  0  0
 13 24  1  0  0  0  0
 14 23  1  0  0  0  0
 14 26  2  0  0  0  0
 15 28  2  0  0  0  0
 15 29  1  0  0  0  0
 16 63  1  0  0  0  0
 17 24  2  0  0  0  0
 17 63  1  0  0  0  0
 18 30  1  0  0  0  0
 19 30  1  0  0  0  0
 19 31  2  0  0  0  0
 19 32  1  0  0  0  0
 20 22  2  0  0  0  0
 20 37  1  0  0  0  0
 21 23  2  0  0  0  0
 21 38  1  0  0  0  0
 22 46  1  0  0  0  0
 23 39  1  0  0  0  0
 24 56  1  0  0  0  0
 25 78  1  0  0  0  0
 26 79  1  0  0  0  0
 27 29  2  0  0  0  0
 27 78  1  0  0  0  0
 28 80  1  0  0  0  0
 29 81  1  0  0  0  0
 30 62  2  0  0  0  0
 31 64  1  0  0  0  0
 31 67  1  0  0  0  0
 32 68  1  0  0  0  0
 32 73  2  0  0  0  0
 33 47  1  0  0  0  0
 33 69  1  0  0  0  0
 33 74  2  0  0  0  0
 34 58  1  0  0  0  0
 34 65  1  0  0  0  0
 34 75  2  0  0  0  0
 35 59  1  0  0  0  0
 35 70  1  0  0  0  0
 35 76  2  0  0  0  0
 36 66  1  0  0  0  0
 36 71  1  0  0  0  0
 36 77  2  0  0  0  0
 37 40  1  0  0  0  0
 38 47  1  0  0  0  0
 39 65  1  0  0  0  0
 40 42  1  0  0  0  0
 41 43  1  0  0  0  0
 41 44  1  0  0  0  0
 42 46  1  0  0  0  0
 43 48  1  0  0  0  0
 44 66  1  0  0  0  0
 45 48  1  0  0  0  0
 45 66  1  0  0  0  0
 46 69  1  0  0  0  0
 47 65  1  0  0  0  0
 48 64  1  0  0  0  0
 49 59  1  0  0  0  0
 50 60  1  0  0  0  0
 51 60  1  0  0  0  0
 52 60  1  0  0  0  0
 53 61  1  0  0  0  0
 54 61  1  0  0  0  0
 55 72  1  0  0  0  0
 56 71  1  0  0  0  0
 57 61  1  0  0  0  0
 57 79  1  0  0  0  0
 58 60  1  0  0  0  0
 58 70  1  0  0  0  0
 59 72  1  0  0  0  0
 61 63  1  0  0  0  0
 62 64  1  0  0  0  0
M  CHG  1  72   1
M  ISO  4  36 100  57 101  71 100  79 101
M  END
> <Batch ID>
0111

> <Smiles>
CNC(C)C(=O)NC(C(=O)N1Cc2cc([101O:1][101CH2:1]C(C)(C)n3ccc(C[100NH:0][100C:0](=O)N4CCCC(n5nc(-c6ccc(Oc7ccc(F)cc7F)cc6)c(C(N)=O)c5N)C4)c3)ccc2CC1C(=O)NC1CCCc2ccccc21)C(C)(C)C

> <Shape>
0.240

> <Color>
0.072

> <Negative vol penalty>
0.000

$$$$

  -OEChem-04052320013D

 82 89  0     1  0  0  0  0  0999 V2000
  -16.6853  -29.4059   24.1421 C   0  0  0  0  0  0  0  0  0  0  0  0
  -17.0035  -28.1696   23.5892 C   0  0  0  0  0  0  0  0  0  0  0  0
  -26.0530  -13.9273   21.1538 C   0  0  0  0  0  0  0  0  0  0  0  0
  -26.0120  -14.1331   18.7470 C   0  0  0  0  0  0  0  0  0  0  0  0
  -17.4742  -30.5195   23.8572 C   0  0  0  0  0  0  0  0  0  0  0  0
  -18.1104  -28.0465   22.7501 C   0  0  0  0  0  0  0  0  0  0  0  0
  -23.2230  -23.3818   20.9011 C   0  0  0  0  0  0  0  0  0  0  0  0
  -24.9251  -13.1083   21.1030 C   0  0  0  0  0  0  0  0  0  0  0  0
  -24.8841  -13.3140   18.6961 C   0  0  0  0  0  0  0  0  0  0  0  0
  -23.7850  -22.7922   19.7696 C   0  0  0  0  0  0  0  0  0  0  0  0
  -24.2220   -9.8789   20.3892 C   0  0  0  0  0  0  0  0  0  0  0  0
  -24.2271   -8.7198   21.1651 C   0  0  0  0  0  0  0  0  0  0  0  0
  -25.1217  -24.7682   19.4114 C   0  0  0  0  0  0  0  0  0  0  0  0
  -22.2772   -9.5074   22.3544 C   0  0  0  0  0  0  0  0  0  0  0  0
  -26.5964  -14.4398   19.9758 C   0  0  0  0  0  0  0  0  0  0  0  0
  -29.1087  -14.8830   19.9700 C   0  0  0  0  0  0  0  0  0  0  0  0
  -18.5970  -30.4080   23.0220 C   0  0  0  0  0  0  0  0  0  0  0  0
  -23.5987  -24.6754   21.2907 C   0  0  0  0  0  0  0  0  0  0  0  0
  -18.9144  -29.1600   22.4527 C   0  0  0  0  0  0  0  0  0  0  0  0
  -24.5648  -25.3709   20.5497 C   0  0  0  0  0  0  0  0  0  0  0  0
  -24.3407  -12.8016   19.8742 C   0  0  0  0  0  0  0  0  0  0  0  0
  -24.7323  -23.4865   19.0229 C   0  0  0  0  0  0  0  0  0  0  0  0
  -23.2445  -10.8523   20.5959 C   0  0  0  0  0  0  0  0  0  0  0  0
  -23.2547   -8.5340   22.1477 C   0  0  0  0  0  0  0  0  0  0  0  0
  -22.2721  -10.6665   21.5785 C   0  0  0  0  0  0  0  0  0  0  0  0
  -27.7612  -15.2864   20.0277 C   0  0  0  0  0  0  0  0  0  0  0  0
  -29.8216  -16.0537   20.0571 C   0  0  0  0  0  0  0  0  0  0  0  0
  -24.5768  -23.3724   15.0957 C   0  0  0  0  0  0  0  0  0  0  0  0
  -23.7385  -23.5886   14.0736 C   0  0  0  0  0  0  0  0  0  0  0  0
  -29.6660  -13.5676   19.8485 C   0  0  0  0  0  0  0  0  0  0  0  0
  -22.0812  -27.4492   21.6176 C   0  0  0  0  0  0  0  0  0  0  0  0
  -24.9290  -28.4193   22.8307 C   0  0  0  0  0  0  0  0  0  0  0  0
  -28.3080  -27.9727   23.0026 C   0  0  0  0  0  0  0  0  0  0  0  0
  -28.5083  -21.7376   18.7083 C   0  0  0  0  0  0  0  0  0  0  0  0
  -19.3923  -31.6497   22.7051 C   0  0  0  0  0  0  0  0  0  0  0  0
  -23.0028  -25.2868   22.5290 C   0  0  0  0  0  0  0  0  0  0  0  0
  -25.0173  -26.7542   20.9373 C   0  0  0  0  0  0  0  0  0  0  0  0
  -20.7657  -31.3572   22.1065 C   0  0  0  0  0  0  0  0  0  0  0  0
  -29.5554  -20.4741   21.8681 C   0  0  0  0  0  0  0  0  0  0  0  0
  -20.6553  -30.3081   21.0047 C   0  0  0  0  0  0  0  0  0  0  0  0
  -29.3358  -18.9649   21.7495 C   0  0  0  0  0  0  0  0  0  0  0  0
  -28.4688  -21.2615   21.1390 C   0  0  0  0  0  0  0  0  0  0  0  0
  -28.0535  -19.3754   19.6080 C   0  0  0  0  0  0  0  0  0  0  0  0
  -20.1216  -28.9812   21.5578 C   0  0  1  0  0  0  0  0  0  0  0  0
  -23.0806  -26.8104   22.5400 C   0  0  1  0  0  0  0  0  0  0  0  0
  -29.1552  -18.5383   20.2803 C   0  0  2  0  0  0  0  0  0  0  0  0
  -30.3731  -28.9452   24.0453 C   0  0  0  0  0  0  0  0  0  0  0  0
  -24.8666  -30.7080   20.8138 C   0  0  0  0  0  0  0  0  0  0  0  0
  -27.3098  -31.0547   21.2367 C   0  0  0  0  0  0  0  0  0  0  0  0
  -25.6703  -31.3483   23.0938 C   0  0  0  0  0  0  0  0  0  0  0  0
  -28.8931  -25.4649   24.4611 C   0  0  0  0  0  0  0  0  0  0  0  0
  -24.0595  -24.9761   12.1495 C   0  0  0  0  0  0  0  0  0  0  0  0
  -22.1959  -25.3929   13.7659 C   0  0  0  0  0  0  0  0  0  0  0  0
  -26.4476  -20.9251   14.1820 C   0  0  0  0  0  0  0  0  0  0  0  0
  -28.5297  -22.0543   16.2470 C   0  0  0  0  0  0  0  0  0  0  0  0
  -27.2093  -22.6555   15.8026 C   0  0  0  0  0  0  0  0  0  0  0  0
  -24.4730  -21.9849   17.1970 C   0  0  0  0  0  0  0  0  0  1  0  0
  -24.8050  -22.0152   15.7036 C   0  0  2  0  0  0  0  0  0  0  0  0
  -26.1878  -29.0206   22.2537 C   0  0  1  0  0  0  0  0  0  0  0  0
  -29.2583  -27.9203   24.1852 C   0  0  2  0  0  0  0  0  0  0  0  0
  -25.9989  -30.5076   21.8408 C   0  0  0  0  0  0  0  0  0  0  0  0
  -27.6237  -16.6100   20.1427 N   0  0  0  0  0  0  0  0  0  0  0  0
  -28.8940  -17.0484   20.1581 N   0  0  0  0  0  0  0  0  0  0  0  0
  -24.4007  -27.3117   22.1524 N   0  0  0  0  0  0  0  0  0  0  0  0
  -28.3494  -20.8096   19.7507 N   0  0  0  0  0  0  0  0  0  0  0  0
  -31.1453  -16.3189   20.0566 N   0  0  0  0  0  0  0  0  0  0  0  0
  -28.7908  -12.4757   19.7708 N   0  0  0  0  0  0  0  0  0  0  0  0
  -21.1687  -28.2671   22.2563 N   0  0  0  0  0  0  0  0  0  0  0  0
  -27.2354  -28.8043   23.2457 N   0  0  0  0  0  0  0  0  0  0  0  0
  -28.3859  -21.2250   17.4227 N   0  0  0  0  0  0  0  0  0  0  0  0
  -29.8744  -26.5678   24.2951 N   0  3  0  0  0  0  0  0  0  0  0  0
  -23.6055  -24.9056   13.5805 N   0  3  0  0  0  0  0  0  0  0  0  0
  -26.2170  -21.5579   15.5278 N   0  3  1  0  0  0  0  0  0  0  0  0
  -30.9037  -13.3650   19.8265 O   0  0  0  0  0  0  0  0  0  0  0  0
  -22.1350  -27.2185   20.4153 O   0  0  0  0  0  0  0  0  0  0  0  0
  -24.4367  -28.9096   23.8499 O   0  0  0  0  0  0  0  0  0  0  0  0
  -28.5002  -27.3421   21.9653 O   0  0  0  0  0  0  0  0  0  0  0  0
  -28.7473  -22.9333   18.9085 O   0  0  0  0  0  0  0  0  0  0  0  0
  -23.2403  -12.0021   19.8242 O   0  0  0  0  0  0  0  0  0  0  0  0
  -25.2820  -22.9137   17.9176 O   0  0  0  0  0  0  0  0  0  1  0  0
  -23.2588   -7.4202   22.8917 F   0  0  0  0  0  0  0  0  0  0  0  0
  -21.3297  -11.5975   21.7810 F   0  0  0  0  0  0  0  0  0  0  0  0
  1  2  1  0  0  0  0
  1  5  2  0  0  0  0
  2  6  2  0  0  0  0
  3  8  2  0  0  0  0
  3 15  1  0  0  0  0
  4  9  1  0  0  0  0
  4 15  2  0  0  0  0
  5 17  1  0  0  0  0
  6 19  1  0  0  0  0
  7 10  2  0  0  0  0
  7 18  1  0  0  0  0
  8 21  1  0  0  0  0
  9 21  2  0  0  0  0
 10 22  1  0  0  0  0
 11 12  2  0  0  0  0
 11 23  1  0  0  0  0
 12 24  1  0  0  0  0
 13 20  1  0  0  0  0
 13 22  2  0  0  0  0
 14 24  2  0  0  0  0
 14 25  1  0  0  0  0
 15 26  1  0  0  0  0
 16 26  1  0  0  0  0
 16 27  2  0  0  0  0
 16 30  1  0  0  0  0
 17 19  2  0  0  0  0
 17 35  1  0  0  0  0
 18 20  2  0  0  0  0
 18 36  1  0  0  0  0
 19 44  1  0  0  0  0
 20 37  1  0  0  0  0
 21 79  1  0  0  0  0
 22 80  1  0  0  0  0
 23 25  2  0  0  0  0
 23 79  1  0  0  0  0
 24 81  1  0  0  0  0
 25 82  1  0  0  0  0
 26 62  2  0  0  0  0
 27 63  1  0  0  0  0
 27 66  1  0  0  0  0
 28 29  2  0  0  0  0
 28 58  1  0  0  0  0
 29 72  1  0  0  0  0
 30 67  1  0  0  0  0
 30 74  2  0  0  0  0
 31 45  1  0  0  0  0
 31 68  1  0  0  0  0
 31 75  2  0  0  0  0
 32 59  1  0  0  0  0
 32 64  1  0  0  0  0
 32 76  2  0  0  0  0
 33 60  1  0  0  0  0
 33 69  1  0  0  0  0
 33 77  2  0  0  0  0
 34 65  1  0  0  0  0
 34 70  1  0  0  0  0
 34 78  2  0  0  0  0
 35 38  1  0  0  0  0
 36 45  1  0  0  0  0
 37 64  1  0  0  0  0
 38 40  1  0  0  0  0
 39 41  1  0  0  0  0
 39 42  1  0  0  0  0
 40 44  1  0  0  0  0
 41 46  1  0  0  0  0
 42 65  1  0  0  0  0
 43 46  1  0  0  0  0
 43 65  1  0  0  0  0
 44 68  1  0  0  0  0
 45 64  1  0  0  0  0
 46 63  1  0  0  0  0
 47 60  1  0  0  0  0
 48 61  1  0  0  0  0
 49 61  1  0  0  0  0
 50 61  1  0  0  0  0
 51 71  1  0  0  0  0
 52 72  1  0  0  0  0
 53 72  1  0  0  0  0
 54 73  1  0  0  0  0
 55 56  1  0  0  0  0
 55 70  1  0  0  0  0
 56 73  1  0  0  0  0
 57 58  1  0  0  0  0
 57 80  1  0  0  0  0
 58 73  1  0  0  0  0
 59 61  1  0  0  0  0
 59 69  1  0  0  0  0
 60 71  1  0  0  0  0
 62 63  1  0  0  0  0
M  CHG  3  71   1  72   1  73   1
M  ISO  4  34 100  57 101  70 100  80 101
M  END
> <Batch ID>
0111

> <Smiles>
CNC(C)C(=O)NC(C(=O)N1Cc2cc([101O:1][101CH2:1]C(C=CN(C)C)N(C)CC[100NH:0][100C:0](=O)N3CCCC(n4nc(-c5ccc(Oc6ccc(F)cc6F)cc5)c(C(N)=O)c4N)C3)ccc2CC1C(=O)NC1CCCc2ccccc21)C(C)(C)C

> <Shape>
0.241

> <Color>
0.069

> <Negative vol penalty>
0.000

$$$$

  -OEChem-04052320013D

 81 88  0     1  0  0  0  0  0999 V2000
  -18.2253  -28.6051   22.6710 C   0  0  0  0  0  0  0  0  0  0  0  0
  -19.5448  -28.8361   22.2953 C   0  0  0  0  0  0  0  0  0  0  0  0
  -26.2966  -12.3187   21.4558 C   0  0  0  0  0  0  0  0  0  0  0  0
  -25.8098  -13.7111   19.5424 C   0  0  0  0  0  0  0  0  0  0  0  0
  -17.8593  -27.3694   23.2028 C   0  0  0  0  0  0  0  0  0  0  0  0
  -20.4992  -27.8317   22.4522 C   0  0  0  0  0  0  0  0  0  0  0  0
  -25.2806  -26.6935   18.7986 C   0  0  0  0  0  0  0  0  0  0  0  0
  -25.0930  -11.6392   21.2676 C   0  0  0  0  0  0  0  0  0  0  0  0
  -24.6063  -13.0316   19.3541 C   0  0  0  0  0  0  0  0  0  0  0  0
  -26.6295  -27.0351   18.8852 C   0  0  0  0  0  0  0  0  0  0  0  0
  -21.5076  -13.0311   20.7065 C   0  0  0  0  0  0  0  0  0  0  0  0
  -20.3673  -13.7920   20.4491 C   0  0  0  0  0  0  0  0  0  0  0  0
  -27.1042  -24.8858   19.8724 C   0  0  0  0  0  0  0  0  0  0  0  0
  -20.0948  -12.6662   18.3288 C   0  0  0  0  0  0  0  0  0  0  0  0
  -26.6549  -13.3547   20.5932 C   0  0  0  0  0  0  0  0  0  0  0  0
  -29.1517  -13.7356   20.2343 C   0  0  0  0  0  0  0  0  0  0  0  0
  -18.8078  -26.3460   23.3573 C   0  0  0  0  0  0  0  0  0  0  0  0
  -24.8309  -25.4476   19.2590 C   0  0  0  0  0  0  0  0  0  0  0  0
  -20.1458  -26.5815   22.9878 C   0  0  0  0  0  0  0  0  0  0  0  0
  -25.7495  -24.5298   19.7881 C   0  0  0  0  0  0  0  0  0  0  0  0
  -24.2479  -11.9957   20.2167 C   0  0  0  0  0  0  0  0  0  0  0  0
  -27.5411  -26.1323   19.4248 C   0  0  0  0  0  0  0  0  0  0  0  0
  -21.9417  -12.0878   19.7751 C   0  0  0  0  0  0  0  0  0  0  0  0
  -19.6609  -13.6095   19.2602 C   0  0  0  0  0  0  0  0  0  0  0  0
  -21.2352  -11.9053   18.5863 C   0  0  0  0  0  0  0  0  0  0  0  0
  -27.8978  -14.0573   20.7875 C   0  0  0  0  0  0  0  0  0  0  0  0
  -29.9992  -14.7011   20.7202 C   0  0  0  0  0  0  0  0  0  0  0  0
  -29.5176  -12.6604   19.3593 C   0  0  0  0  0  0  0  0  0  0  0  0
  -22.8105  -24.4866   21.5169 C   0  0  0  0  0  0  0  0  0  0  0  0
  -23.3784  -21.5620   20.2338 C   0  0  0  0  0  0  0  0  0  0  0  0
  -25.4645  -19.5386   18.4446 C   0  0  0  0  0  0  0  0  0  0  0  0
  -31.1294  -19.9541   21.7573 C   0  0  0  0  0  0  0  0  0  0  0  0
  -18.3745  -25.0428   23.9808 C   0  0  0  0  0  0  0  0  0  0  0  0
  -23.3768  -25.0839   19.1340 C   0  0  0  0  0  0  0  0  0  0  0  0
  -25.3208  -23.1715   20.2778 C   0  0  0  0  0  0  0  0  0  0  0  0
  -19.3689  -23.9047   23.7661 C   0  0  0  0  0  0  0  0  0  0  0  0
  -29.3097  -18.1761   24.3312 C   0  0  0  0  0  0  0  0  0  0  0  0
  -20.7896  -24.3738   24.0636 C   0  0  0  0  0  0  0  0  0  0  0  0
  -28.8828  -16.9116   23.5836 C   0  0  0  0  0  0  0  0  0  0  0  0
  -29.2549  -19.4006   23.4225 C   0  0  0  0  0  0  0  0  0  0  0  0
  -29.6275  -18.0114   21.4213 C   0  0  0  0  0  0  0  0  0  0  0  0
  -21.2049  -25.5086   23.1195 C   0  0  1  0  0  0  0  0  0  0  0  0
  -22.9491  -23.9887   20.1061 C   0  0  1  0  0  0  0  0  0  0  0  0
  -29.6830  -16.7346   22.2796 C   0  0  2  0  0  0  0  0  0  0  0  0
  -30.1832  -29.0581   19.2398 C   0  0  0  0  0  0  0  0  0  0  0  0
  -28.4190  -28.7947   22.4756 C   0  0  0  0  0  0  0  0  0  0  0  0
  -25.6752  -17.1884   17.5906 C   0  0  0  0  0  0  0  0  0  0  0  0
  -24.1049  -20.6100   23.0402 C   0  0  0  0  0  0  0  0  0  0  0  0
  -25.1905  -18.6060   22.0039 C   0  0  0  0  0  0  0  0  0  0  0  0
  -22.7433  -18.9891   21.7086 C   0  0  0  0  0  0  0  0  0  0  0  0
  -25.5323  -20.4447   15.6280 C   0  0  0  0  0  0  0  0  0  0  0  0
  -30.4750  -28.0278   20.3213 C   0  0  0  0  0  0  0  0  0  0  0  0
  -28.1042  -27.9591   21.2384 C   0  0  0  0  0  0  0  0  0  0  0  0
  -32.1028  -23.1025   21.3583 C   0  0  0  0  0  0  0  0  0  0  0  0
  -32.5527  -21.9319   22.2257 C   0  0  0  0  0  0  0  0  0  0  0  0
  -31.0601  -23.9687   22.0533 C   0  0  0  0  0  0  0  0  0  0  0  0
  -29.6530  -26.0038   21.7109 C   0  0  0  0  0  0  0  0  0  0  0  0
  -24.3863  -20.4648   20.4778 C   0  0  1  0  0  0  0  0  0  0  0  0
  -25.2036  -18.6004   17.2800 C   0  0  2  0  0  0  0  0  0  0  0  0
  -24.1144  -19.6937   21.8003 C   0  0  0  0  0  0  0  0  0  0  0  0
  -29.2880  -27.1113   20.7077 C   0  0  0  0  0  0  0  0  0  1  0  0
  -27.9405  -15.1422   21.5655 N   0  0  0  0  0  0  0  0  0  0  0  0
  -29.2314  -15.5106   21.5047 N   0  0  0  0  0  0  0  0  0  0  0  0
  -23.8874  -22.8650   20.1400 N   0  0  0  0  0  0  0  0  0  0  0  0
  -30.0516  -19.1741   22.2084 N   0  0  0  0  0  0  0  0  0  0  0  0
  -31.3189  -14.9280   20.5487 N   0  0  0  0  0  0  0  0  0  0  0  0
  -28.5230  -11.7585   18.9569 N   0  0  0  0  0  0  0  0  0  0  0  0
  -21.5558  -24.9808   21.8185 N   0  0  0  0  0  0  0  0  0  0  0  0
  -24.3741  -19.6264   19.2839 N   0  0  0  0  0  0  0  0  0  0  0  0
  -31.4630  -21.0407   22.5564 N   0  0  0  0  0  0  0  0  0  0  0  0
  -25.9169  -19.0767   16.0613 N   0  3  0  0  0  0  0  0  0  0  0  0
  -30.7095  -25.1109   21.1676 N   0  3  0  0  0  0  0  0  0  0  0  0
  -30.6949  -12.4944   18.9596 O   0  0  0  0  0  0  0  0  0  0  0  0
  -23.7704  -24.4254   22.2762 O   0  0  0  0  0  0  0  0  0  0  0  0
  -22.1844  -21.2726   20.1231 O   0  0  0  0  0  0  0  0  0  0  0  0
  -26.5305  -20.1313   18.5966 O   0  0  0  0  0  0  0  0  0  0  0  0
  -31.7524  -19.6978   20.7213 O   0  0  0  0  0  0  0  0  0  0  0  0
  -23.0735  -11.3327   20.0325 O   0  0  0  0  0  0  0  0  0  0  0  0
  -28.8582  -26.4635   19.5111 O   0  0  0  0  0  0  0  0  0  1  0  0
  -18.5649  -14.3391   19.0138 F   0  0  0  0  0  0  0  0  0  0  0  0
  -21.6467  -10.9998   17.6882 F   0  0  0  0  0  0  0  0  0  0  0  0
  1  2  1  0  0  0  0
  1  5  2  0  0  0  0
  2  6  2  0  0  0  0
  3  8  2  0  0  0  0
  3 15  1  0  0  0  0
  4  9  1  0  0  0  0
  4 15  2  0  0  0  0
  5 17  1  0  0  0  0
  6 19  1  0  0  0  0
  7 10  2  0  0  0  0
  7 18  1  0  0  0  0
  8 21  1  0  0  0  0
  9 21  2  0  0  0  0
 10 22  1  0  0  0  0
 11 12  2  0  0  0  0
 11 23  1  0  0  0  0
 12 24  1  0  0  0  0
 13 20  1  0  0  0  0
 13 22  2  0  0  0  0
 14 24  2  0  0  0  0
 14 25  1  0  0  0  0
 15 26  1  0  0  0  0
 16 26  1  0  0  0  0
 16 27  2  0  0  0  0
 16 28  1  0  0  0  0
 17 19  2  0  0  0  0
 17 33  1  0  0  0  0
 18 20  2  0  0  0  0
 18 34  1  0  0  0  0
 19 42  1  0  0  0  0
 20 35  1  0  0  0  0
 21 78  1  0  0  0  0
 22 79  1  0  0  0  0
 23 25  2  0  0  0  0
 23 78  1  0  0  0  0
 24 80  1  0  0  0  0
 25 81  1  0  0  0  0
 26 62  2  0  0  0  0
 27 63  1  0  0  0  0
 27 66  1  0  0  0  0
 28 67  1  0  0  0  0
 28 73  2  0  0  0  0
 29 43  1  0  0  0  0
 29 68  1  0  0  0  0
 29 74  2  0  0  0  0
 30 58  1  0  0  0  0
 30 64  1  0  0  0  0
 30 75  2  0  0  0  0
 31 59  1  0  0  0  0
 31 69  1  0  0  0  0
 31 76  2  0  0  0  0
 32 65  1  0  0  0  0
 32 70  1  0  0  0  0
 32 77  2  0  0  0  0
 33 36  1  0  0  0  0
 34 43  1  0  0  0  0
 35 64  1  0  0  0  0
 36 38  1  0  0  0  0
 37 39  1  0  0  0  0
 37 40  1  0  0  0  0
 38 42  1  0  0  0  0
 39 44  1  0  0  0  0
 40 65  1  0  0  0  0
 41 44  1  0  0  0  0
 41 65  1  0  0  0  0
 42 68  1  0  0  0  0
 43 64  1  0  0  0  0
 44 63  1  0  0  0  0
 45 52  1  0  0  0  0
 46 53  1  0  0  0  0
 47 59  1  0  0  0  0
 48 60  1  0  0  0  0
 49 60  1  0  0  0  0
 50 60  1  0  0  0  0
 51 71  1  0  0  0  0
 52 61  1  0  0  0  0
 53 61  1  0  0  0  0
 54 55  1  0  0  0  0
 54 56  1  0  0  0  0
 55 70  1  0  0  0  0
 56 72  1  0  0  0  0
 57 61  1  0  0  0  0
 57 72  1  0  0  0  0
 58 60  1  0  0  0  0
 58 69  1  0  0  0  0
 59 71  1  0  0  0  0
 61 79  1  0  0  0  0
 62 63  1  0  0  0  0
M  CHG  2  71   1  72   1
M  ISO  4  32 100  61 101  70 100  79 101
M  END
> <Batch ID>
0111

> <Smiles>
CC[101C:1](CC)(CNCCC[100NH:0][100C:0](=O)N1CCCC(n2nc(-c3ccc(Oc4ccc(F)cc4F)cc3)c(C(N)=O)c2N)C1)[101O:1]c1ccc2c(c1)CN(C(=O)C(NC(=O)C(C)NC)C(C)(C)C)C(C(=O)NC1CCCc3ccccc31)C2

> <Shape>
0.192

> <Color>
0.056

> <Negative vol penalty>
0.000

$$$$

  -OEChem-04052320013D

 83 91  0     1  0  0  0  0  0999 V2000
  -19.5246  -28.8465   22.0578 C   0  0  0  0  0  0  0  0  0  0  0  0
  -20.6957  -28.3084   22.5816 C   0  0  0  0  0  0  0  0  0  0  0  0
  -29.2328  -23.9705   18.4697 C   0  0  0  0  0  0  0  0  0  0  0  0
  -27.2815  -23.6152   19.8493 C   0  0  0  0  0  0  0  0  0  0  0  0
  -18.3938  -28.0439   21.9132 C   0  0  0  0  0  0  0  0  0  0  0  0
  -20.7363  -26.9675   22.9621 C   0  0  0  0  0  0  0  0  0  0  0  0
  -25.2172  -21.3874   23.2792 C   0  0  0  0  0  0  0  0  0  0  0  0
  -28.7523  -25.2309   18.1146 C   0  0  0  0  0  0  0  0  0  0  0  0
  -26.8010  -24.8756   19.4942 C   0  0  0  0  0  0  0  0  0  0  0  0
  -25.6843  -20.4310   24.1796 C   0  0  0  0  0  0  0  0  0  0  0  0
  -25.2344  -28.1463   19.2355 C   0  0  0  0  0  0  0  0  0  0  0  0
  -24.7224  -28.9554   20.2498 C   0  0  0  0  0  0  0  0  0  0  0  0
  -23.6935  -19.1197   23.8103 C   0  0  0  0  0  0  0  0  0  0  0  0
  -28.1737  -15.4181   23.9145 C   0  0  0  0  0  0  0  0  0  0  0  0
  -26.8619  -28.9039   21.3709 C   0  0  0  0  0  0  0  0  0  0  0  0
  -28.4974  -23.1626   19.3370 C   0  0  0  0  0  0  0  0  0  0  0  0
  -30.2038  -21.5648   20.3582 C   0  0  0  0  0  0  0  0  0  0  0  0
  -18.4234  -26.6900   22.2832 C   0  0  0  0  0  0  0  0  0  0  0  0
  -23.9776  -21.2222   22.6447 C   0  0  0  0  0  0  0  0  0  0  0  0
  -19.6044  -26.1463   22.8236 C   0  0  0  0  0  0  0  0  0  0  0  0
  -23.2141  -20.0742   22.9003 C   0  0  0  0  0  0  0  0  0  0  0  0
  -27.0753  -15.7935   24.7266 C   0  0  0  0  0  0  0  0  0  0  0  0
  -27.5364  -25.6835   18.6268 C   0  0  0  0  0  0  0  0  0  0  0  0
  -24.9212  -19.2983   24.4475 C   0  0  0  0  0  0  0  0  0  0  0  0
  -26.5602  -27.7160   19.2889 C   0  0  0  0  0  0  0  0  0  0  0  0
  -25.5361  -29.3342   21.3175 C   0  0  0  0  0  0  0  0  0  0  0  0
  -27.3739  -28.0948   20.3566 C   0  0  0  0  0  0  0  0  0  0  0  0
  -28.9929  -21.8603   19.7038 C   0  0  0  0  0  0  0  0  0  0  0  0
  -27.7088  -14.5121   22.9870 C   0  0  0  0  0  0  0  0  0  0  0  0
  -25.9726  -15.1053   24.2708 C   0  0  0  0  0  0  0  0  0  0  0  0
  -30.2063  -20.1963   20.4743 C   0  0  0  0  0  0  0  0  0  0  0  0
  -31.2341  -22.4485   20.8200 C   0  0  0  0  0  0  0  0  0  0  0  0
  -21.2425  -22.8412   22.6093 C   0  0  0  0  0  0  0  0  0  0  0  0
  -20.4376  -20.6696   20.3381 C   0  0  0  0  0  0  0  0  0  0  0  0
  -20.9315  -17.5769   18.9823 C   0  0  0  0  0  0  0  0  0  0  0  0
  -25.8118  -16.2606   20.7088 C   0  0  0  0  0  0  0  0  0  0  0  0
  -17.1618  -25.8739   22.1523 C   0  0  0  0  0  0  0  0  0  0  0  0
  -23.5002  -22.2500   21.6558 C   0  0  0  0  0  0  0  0  0  0  0  0
  -21.8859  -19.8398   22.2300 C   0  0  0  0  0  0  0  0  0  0  0  0
  -17.3997  -24.3681   22.2305 C   0  0  0  0  0  0  0  0  0  0  0  0
  -28.5412  -16.2533   18.3322 C   0  0  0  0  0  0  0  0  0  0  0  0
  -18.3206  -24.0330   23.3994 C   0  0  0  0  0  0  0  0  0  0  0  0
  -29.0806  -17.6767   18.4842 C   0  0  0  0  0  0  0  0  0  0  0  0
  -27.0197  -16.2240   18.4433 C   0  0  0  0  0  0  0  0  0  0  0  0
  -27.0195  -18.2473   19.8503 C   0  0  0  0  0  0  0  0  0  0  0  0
  -19.6951  -24.6900   23.2247 C   0  0  1  0  0  0  0  0  0  0  0  0
  -21.9878  -22.2302   21.4566 C   0  0  1  0  0  0  0  0  0  0  0  0
  -28.5541  -18.3412   19.7701 C   0  0  2  0  0  0  0  0  0  0  0  0
  -28.4307  -13.8086   21.9068 C   0  0  0  0  0  0  0  0  0  0  0  0
  -24.5745  -15.1201   24.7517 C   0  0  0  0  0  0  0  0  0  0  0  0
  -28.4673  -16.7294   26.6022 C   0  0  0  0  0  0  0  0  0  0  0  0
  -20.6863  -15.6810   17.3567 C   0  0  0  0  0  0  0  0  0  0  0  0
  -17.9411  -20.0604   21.9832 C   0  0  0  0  0  0  0  0  0  0  0  0
  -17.6654  -17.9552   20.6565 C   0  0  0  0  0  0  0  0  0  0  0  0
  -17.5620  -20.1701   19.5136 C   0  0  0  0  0  0  0  0  0  0  0  0
  -23.1090  -18.6132   17.2667 C   0  0  0  0  0  0  0  0  0  0  0  0
  -25.5070  -13.4508   22.4513 C   0  0  0  0  0  0  0  0  0  0  0  0
  -24.6440  -14.1957   21.4361 C   0  0  0  0  0  0  0  0  0  0  0  0
  -26.7886  -18.2077   25.4370 C   0  0  0  0  0  0  0  0  0  1  0  0
  -27.1148  -16.7767   25.8859 C   0  0  1  0  0  0  0  0  0  0  0  0
  -19.7883  -19.3067   20.3443 C   0  0  1  0  0  0  0  0  0  0  0  0
  -21.1220  -17.1257   17.5454 C   0  0  2  0  0  0  0  0  0  0  0  0
  -18.2633  -19.3782   20.6387 C   0  0  0  0  0  0  0  0  0  0  0  0
  -28.2782  -20.7673   19.4235 N   0  0  0  0  0  0  0  0  0  0  0  0
  -26.3696  -14.3293   23.2133 N   0  0  0  0  0  0  0  0  0  0  0  0
  -29.0423  -19.7717   19.9042 N   0  0  0  0  0  0  0  0  0  0  0  0
  -21.4592  -20.8766   21.2758 N   0  0  0  0  0  0  0  0  0  0  0  0
  -26.5849  -16.8549   19.6975 N   0  0  0  0  0  0  0  0  0  0  0  0
  -31.0907  -19.3266   21.0072 N   0  0  0  0  0  0  0  0  0  0  0  0
  -31.1474  -22.9516   22.1253 N   0  0  0  0  0  0  0  0  0  0  0  0
  -20.4912  -23.9500   22.2691 N   0  0  0  0  0  0  0  0  0  0  0  0
  -20.1217  -18.6898   19.0650 N   0  0  0  0  0  0  0  0  0  0  0  0
  -25.4355  -14.9421   20.4837 N   0  0  0  0  0  0  0  0  0  0  0  0
  -22.5550  -17.2396   17.1524 N   0  3  0  0  0  0  0  0  0  0  0  0
  -32.1944  -22.7950   20.0910 O   0  0  0  0  0  0  0  0  0  0  0  0
  -21.3405  -22.3428   23.7245 O   0  0  0  0  0  0  0  0  0  0  0  0
  -20.0574  -21.5168   19.5261 O   0  0  0  0  0  0  0  0  0  0  0  0
  -21.4463  -16.9976   19.9362 O   0  0  0  0  0  0  0  0  0  0  0  0
  -25.4853  -16.8593   21.7394 O   0  0  0  0  0  0  0  0  0  0  0  0
  -27.0673  -26.9134   18.2807 O   0  0  0  0  0  0  0  0  0  0  0  0
  -25.3744  -18.3636   25.3265 O   0  0  0  0  0  0  0  0  0  1  0  0
  -25.0447  -30.1124   22.2906 F   0  0  0  0  0  0  0  0  0  0  0  0
  -28.6487  -27.6855   20.4128 F   0  0  0  0  0  0  0  0  0  0  0  0
  1  2  1  0  0  0  0
  1  5  2  0  0  0  0
  2  6  2  0  0  0  0
  3  8  2  0  0  0  0
  3 16  1  0  0  0  0
  4  9  1  0  0  0  0
  4 16  2  0  0  0  0
  5 18  1  0  0  0  0
  6 20  1  0  0  0  0
  7 10  2  0  0  0  0
  7 19  1  0  0  0  0
  8 23  1  0  0  0  0
  9 23  2  0  0  0  0
 10 24  1  0  0  0  0
 11 12  2  0  0  0  0
 11 25  1  0  0  0  0
 12 26  1  0  0  0  0
 13 21  1  0  0  0  0
 13 24  2  0  0  0  0
 14 22  1  0  0  0  0
 14 29  2  0  0  0  0
 15 26  2  0  0  0  0
 15 27  1  0  0  0  0
 16 28  1  0  0  0  0
 17 28  1  0  0  0  0
 17 31  2  0  0  0  0
 17 32  1  0  0  0  0
 18 20  2  0  0  0  0
 18 37  1  0  0  0  0
 19 21  2  0  0  0  0
 19 38  1  0  0  0  0
 20 46  1  0  0  0  0
 21 39  1  0  0  0  0
 22 30  2  0  0  0  0
 22 60  1  0  0  0  0
 23 80  1  0  0  0  0
 24 81  1  0  0  0  0
 25 27  2  0  0  0  0
 25 80  1  0  0  0  0
 26 82  1  0  0  0  0
 27 83  1  0  0  0  0
 28 64  2  0  0  0  0
 29 49  1  0  0  0  0
 29 65  1  0  0  0  0
 30 50  1  0  0  0  0
 30 65  1  0  0  0  0
 31 66  1  0  0  0  0
 31 69  1  0  0  0  0
 32 70  1  0  0  0  0
 32 75  2  0  0  0  0
 33 47  1  0  0  0  0
 33 71  1  0  0  0  0
 33 76  2  0  0  0  0
 34 61  1  0  0  0  0
 34 67  1  0  0  0  0
 34 77  2  0  0  0  0
 35 62  1  0  0  0  0
 35 72  1  0  0  0  0
 35 78  2  0  0  0  0
 36 68  1  0  0  0  0
 36 73  1  0  0  0  0
 36 79  2  0  0  0  0
 37 40  1  0  0  0  0
 38 47  1  0  0  0  0
 39 67  1  0  0  0  0
 40 42  1  0  0  0  0
 41 43  1  0  0  0  0
 41 44  1  0  0  0  0
 42 46  1  0  0  0  0
 43 48  1  0  0  0  0
 44 68  1  0  0  0  0
 45 48  1  0  0  0  0
 45 68  1  0  0  0  0
 46 71  1  0  0  0  0
 47 67  1  0  0  0  0
 48 66  1  0  0  0  0
 51 60  1  0  0  0  0
 52 62  1  0  0  0  0
 53 63  1  0  0  0  0
 54 63  1  0  0  0  0
 55 63  1  0  0  0  0
 56 74  1  0  0  0  0
 57 58  1  0  0  0  0
 57 65  1  0  0  0  0
 58 73  1  0  0  0  0
 59 60  1  0  0  0  0
 59 81  1  0  0  0  0
 61 63  1  0  0  0  0
 61 72  1  0  0  0  0
 62 74  1  0  0  0  0
 64 66  1  0  0  0  0
M  CHG  1  74   1
M  ISO  4  36 100  59 101  73 100  81 101
M  END
> <Batch ID>
0111

> <Smiles>
CNC(C)C(=O)NC(C(=O)N1Cc2cc([101O:1][101CH2:1]C(C)c3cc(C)n(CC[100NH:0][100C:0](=O)N4CCCC(n5nc(-c6ccc(Oc7ccc(F)cc7F)cc6)c(C(N)=O)c5N)C4)c3C)ccc2CC1C(=O)NC1CCCc2ccccc21)C(C)(C)C

> <Shape>
0.173

> <Color>
0.058

> <Negative vol penalty>
0.000

$$$$

  -OEChem-04052320013D

 85 93  0     1  0  0  0  0  0999 V2000
  -18.2551  -14.8007   20.0169 C   0  0  0  0  0  0  0  0  0  0  0  0
  -19.2270  -15.4740   19.2838 C   0  0  0  0  0  0  0  0  0  0  0  0
  -25.6091  -31.5103   22.2933 C   0  0  0  0  0  0  0  0  0  0  0  0
  -26.9866  -31.9522   20.3582 C   0  0  0  0  0  0  0  0  0  0  0  0
  -18.6182  -14.0685   21.1465 C   0  0  0  0  0  0  0  0  0  0  0  0
  -20.5625  -15.4165   19.6807 C   0  0  0  0  0  0  0  0  0  0  0  0
  -25.4861  -15.3628   16.0391 C   0  0  0  0  0  0  0  0  0  0  0  0
  -25.7315  -32.8435   22.6848 C   0  0  0  0  0  0  0  0  0  0  0  0
  -27.1089  -33.2854   20.7497 C   0  0  0  0  0  0  0  0  0  0  0  0
  -26.3662  -16.3665   15.6367 C   0  0  0  0  0  0  0  0  0  0  0  0
  -24.3738  -35.8226   21.8392 C   0  0  0  0  0  0  0  0  0  0  0  0
  -23.2190  -36.4841   22.2567 C   0  0  0  0  0  0  0  0  0  0  0  0
  -27.8871  -15.7304   17.3978 C   0  0  0  0  0  0  0  0  0  0  0  0
  -24.2257  -36.8777   24.4175 C   0  0  0  0  0  0  0  0  0  0  0  0
  -26.2367  -31.0646   21.1300 C   0  0  0  0  0  0  0  0  0  0  0  0
  -25.1204  -29.1329   19.8932 C   0  0  0  0  0  0  0  0  0  0  0  0
  -19.9601  -13.9940   21.5518 C   0  0  0  0  0  0  0  0  0  0  0  0
  -25.7955  -14.5411   17.1325 C   0  0  0  0  0  0  0  0  0  0  0  0
  -20.9437  -14.6837   20.8175 C   0  0  0  0  0  0  0  0  0  0  0  0
  -27.0104  -14.7154   17.8105 C   0  0  0  0  0  0  0  0  0  0  0  0
  -26.4813  -33.7310   21.9130 C   0  0  0  0  0  0  0  0  0  0  0  0
  -27.5656  -16.5523   16.3179 C   0  0  0  0  0  0  0  0  0  0  0  0
  -25.4546  -35.6885   22.7109 C   0  0  0  0  0  0  0  0  0  0  0  0
  -23.1449  -37.0117   23.5458 C   0  0  0  0  0  0  0  0  0  0  0  0
  -25.3805  -36.2161   24.0000 C   0  0  0  0  0  0  0  0  0  0  0  0
  -26.1112  -29.6875   20.7254 C   0  0  0  0  0  0  0  0  0  0  0  0
  -25.4426  -27.7999   19.8171 C   0  0  0  0  0  0  0  0  0  0  0  0
  -24.0083  -29.7661   19.2467 C   0  0  0  0  0  0  0  0  0  0  0  0
  -24.4728  -13.9908   19.9700 C   0  0  0  0  0  0  0  0  0  0  0  0
  -26.7714  -11.7103   20.1643 C   0  0  0  0  0  0  0  0  0  0  0  0
  -29.8276  -10.5830   19.1465 C   0  0  0  0  0  0  0  0  0  0  0  0
  -30.5828  -24.9559   20.4047 C   0  0  0  0  0  0  0  0  0  0  0  0
  -20.2980  -13.2289   22.8068 C   0  0  0  0  0  0  0  0  0  0  0  0
  -24.8477  -13.4456   17.5373 C   0  0  0  0  0  0  0  0  0  0  0  0
  -27.3988  -13.8467   18.9779 C   0  0  0  0  0  0  0  0  0  0  0  0
  -21.7846  -12.9111   22.9449 C   0  0  0  0  0  0  0  0  0  0  0  0
  -27.5737  -24.3141   22.3102 C   0  0  0  0  0  0  0  0  0  0  0  0
  -22.6251  -14.1477   22.6427 C   0  0  0  0  0  0  0  0  0  0  0  0
  -26.7622  -25.5810   22.0331 C   0  0  0  0  0  0  0  0  0  0  0  0
  -30.9850  -19.9017   17.3250 C   0  0  0  0  0  0  0  0  0  0  0  0
  -30.1519  -19.1570   16.2873 C   0  0  0  0  0  0  0  0  0  0  0  0
  -28.3566  -18.7482   18.0140 C   0  0  0  0  0  0  0  0  0  0  0  0
  -29.0605  -24.6288   22.4464 C   0  0  0  0  0  0  0  0  0  0  0  0
  -28.8384  -26.6125   21.0009 C   0  0  0  0  0  0  0  0  0  0  0  0
  -22.4062  -14.6250   21.2020 C   0  0  1  0  0  0  0  0  0  0  0  0
  -25.0305  -13.0021   18.9855 C   0  0  1  0  0  0  0  0  0  0  0  0
  -29.1810  -19.4948   19.0755 C   0  0  1  0  0  0  0  0  0  0  0  0
  -27.3297  -26.3580   20.8304 C   0  0  2  0  0  0  0  0  0  0  0  0
  -30.0940  -20.5329   18.3964 C   0  0  1  0  0  0  0  0  0  0  0  0
  -29.2432  -18.1193   16.9393 C   0  0  1  0  0  0  0  0  0  1  0  0
  -28.1954  -18.0264   21.5810 C   0  0  0  0  0  0  0  0  0  0  0  0
  -31.4569   -8.7092   19.5090 C   0  0  0  0  0  0  0  0  0  0  0  0
  -27.3409  -21.1539   19.4285 C   0  0  0  0  0  0  0  0  0  0  0  0
  -27.5981  -12.9477   22.8280 C   0  0  0  0  0  0  0  0  0  0  0  0
  -29.7524  -11.6821   22.6678 C   0  0  0  0  0  0  0  0  0  0  0  0
  -27.5889  -10.4470   22.7976 C   0  0  0  0  0  0  0  0  0  0  0  0
  -29.6694   -9.7424   16.3132 C   0  0  0  0  0  0  0  0  0  0  0  0
  -31.8527  -20.1868   20.1250 C   0  0  0  0  0  0  0  0  0  0  0  0
  -27.3809  -19.0701   20.8301 C   0  0  0  0  0  0  0  0  0  0  0  0
  -32.2850  -23.2130   19.9338 C   0  0  0  0  0  0  0  0  0  0  0  0
  -31.7882  -22.3078   18.8220 C   0  0  0  0  0  0  0  0  0  0  0  0
  -28.1942  -11.6665   20.6671 C   0  0  1  0  0  0  0  0  0  0  0  0
  -30.2913   -9.2168   18.6745 C   0  0  2  0  0  0  0  0  0  0  0  0
  -28.2416  -20.1214   20.1093 C   0  0  1  0  0  0  0  0  0  0  0  0
  -28.2755  -11.7036   22.2194 C   0  0  0  0  0  0  0  0  0  0  0  0
  -26.9964  -28.7809   21.1479 N   0  0  0  0  0  0  0  0  0  0  0  0
  -26.5630  -27.6431   20.5790 N   0  0  0  0  0  0  0  0  0  0  0  0
  -26.4359  -12.7934   19.3396 N   0  0  0  0  0  0  0  0  0  0  0  0
  -29.5422  -25.3522   21.2611 N   0  0  0  0  0  0  0  0  0  0  0  0
  -24.8740  -26.7583   19.1736 N   0  0  0  0  0  0  0  0  0  0  0  0
  -23.8239  -31.1432   19.4308 N   0  0  0  0  0  0  0  0  0  0  0  0
  -23.1403  -13.7897   20.2758 N   0  0  0  0  0  0  0  0  0  0  0  0
  -28.8038  -10.4857   20.0649 N   0  0  0  0  0  0  0  0  0  0  0  0
  -31.2022  -23.7540   20.7248 N   0  0  0  0  0  0  0  0  0  0  0  0
  -30.7256   -9.2806   17.2503 N   0  3  0  0  0  0  0  0  0  0  0  0
  -30.9772  -21.1806   19.4065 N   0  3  1  0  0  0  0  0  0  0  0  0
  -23.1925  -29.1265   18.5403 O   0  0  0  0  0  0  0  0  0  0  0  0
  -25.1981  -14.8700   20.4200 O   0  0  0  0  0  0  0  0  0  0  0  0
  -25.9886  -10.8126   20.4853 O   0  0  0  0  0  0  0  0  0  0  0  0
  -30.3264  -11.6316   18.7436 O   0  0  0  0  0  0  0  0  0  0  0  0
  -30.9311  -25.6216   19.4236 O   0  0  0  0  0  0  0  0  0  0  0  0
  -26.6007  -35.0321   22.2946 O   0  0  0  0  0  0  0  0  0  0  0  0
  -28.4261  -17.5316   15.9277 O   0  0  0  0  0  0  0  0  0  1  0  0
  -22.0365  -37.6484   23.9461 F   0  0  0  0  0  0  0  0  0  0  0  0
  -26.4160  -36.0914   24.8414 F   0  0  0  0  0  0  0  0  0  0  0  0
  1  2  1  0  0  0  0
  1  5  2  0  0  0  0
  2  6  2  0  0  0  0
  3  8  2  0  0  0  0
  3 15  1  0  0  0  0
  4  9  1  0  0  0  0
  4 15  2  0  0  0  0
  5 17  1  0  0  0  0
  6 19  1  0  0  0  0
  7 10  2  0  0  0  0
  7 18  1  0  0  0  0
  8 21  1  0  0  0  0
  9 21  2  0  0  0  0
 10 22  1  0  0  0  0
 11 12  2  0  0  0  0
 11 23  1  0  0  0  0
 12 24  1  0  0  0  0
 13 20  1  0  0  0  0
 13 22  2  0  0  0  0
 14 24  2  0  0  0  0
 14 25  1  0  0  0  0
 15 26  1  0  0  0  0
 16 26  1  0  0  0  0
 16 27  2  0  0  0  0
 16 28  1  0  0  0  0
 17 19  2  0  0  0  0
 17 33  1  0  0  0  0
 18 20  2  0  0  0  0
 18 34  1  0  0  0  0
 19 45  1  0  0  0  0
 20 35  1  0  0  0  0
 21 82  1  0  0  0  0
 22 83  1  0  0  0  0
 23 25  2  0  0  0  0
 23 82  1  0  0  0  0
 24 84  1  0  0  0  0
 25 85  1  0  0  0  0
 26 66  2  0  0  0  0
 27 67  1  0  0  0  0
 27 70  1  0  0  0  0
 28 71  1  0  0  0  0
 28 77  2  0  0  0  0
 29 46  1  0  0  0  0
 29 72  1  0  0  0  0
 29 78  2  0  0  0  0
 30 62  1  0  0  0  0
 30 68  1  0  0  0  0
 30 79  2  0  0  0  0
 31 63  1  0  0  0  0
 31 73  1  0  0  0  0
 31 80  2  0  0  0  0
 32 69  1  0  0  0  0
 32 74  1  0  0  0  0
 32 81  2  0  0  0  0
 33 36  1  0  0  0  0
 34 46  1  0  0  0  0
 35 68  1  0  0  0  0
 36 38  1  0  0  0  0
 37 39  1  0  0  0  0
 37 43  1  0  0  0  0
 38 45  1  0  0  0  0
 39 48  1  0  0  0  0
 40 41  1  0  0  0  0
 40 49  1  0  0  0  0
 41 50  1  0  0  0  0
 42 47  1  0  0  0  0
 42 50  1  0  0  0  0
 43 69  1  0  0  0  0
 44 48  1  0  0  0  0
 44 69  1  0  0  0  0
 45 72  1  0  0  0  0
 46 68  1  0  0  0  0
 47 49  1  0  0  0  0
 47 64  1  0  0  0  0
 48 67  1  0  0  0  0
 49 76  1  0  0  0  0
 50 83  1  0  0  0  0
 51 59  1  0  0  0  0
 52 63  1  0  0  0  0
 53 64  1  0  0  0  0
 54 65  1  0  0  0  0
 55 65  1  0  0  0  0
 56 65  1  0  0  0  0
 57 75  1  0  0  0  0
 58 76  1  0  0  0  0
 59 64  1  0  0  0  0
 60 61  1  0  0  0  0
 60 74  1  0  0  0  0
 61 76  1  0  0  0  0
 62 65  1  0  0  0  0
 62 73  1  0  0  0  0
 63 75  1  0  0  0  0
 66 67  1  0  0  0  0
M  CHG  2  75   1  76   1
M  ISO  4  32 100  50 101  74 100  83 101
M  END
> <Batch ID>
0111

> <Smiles>
CCC(C)C1C[101CH:1]([101O:1]c2ccc3c(c2)CN(C(=O)C(NC(=O)C(C)NC)C(C)(C)C)C(C(=O)NC2CCCc4ccccc42)C3)CCC1N(C)CC[100NH:0][100C:0](=O)N1CCCC(n2nc(-c3ccc(Oc4ccc(F)cc4F)cc3)c(C(N)=O)c2N)C1

> <Shape>
0.240

> <Color>
0.074

> <Negative vol penalty>
0.000

$$$$

  -OEChem-04052320013D

 86 95  0     1  0  0  0  0  0999 V2000
  -23.9515  -30.7318   21.5628 C   0  0  0  0  0  0  0  0  0  0  0  0
  -24.7178  -29.9029   22.3758 C   0  0  0  0  0  0  0  0  0  0  0  0
  -23.5267   -9.8118   19.7949 C   0  0  0  0  0  0  0  0  0  0  0  0
  -24.4391   -9.7122   22.0297 C   0  0  0  0  0  0  0  0  0  0  0  0
  -24.0363  -30.6180   20.1758 C   0  0  0  0  0  0  0  0  0  0  0  0
  -25.5687  -28.9588   21.8022 C   0  0  0  0  0  0  0  0  0  0  0  0
  -31.0116  -27.1319   23.9337 C   0  0  0  0  0  0  0  0  0  0  0  0
  -23.0511   -8.5076   19.9309 C   0  0  0  0  0  0  0  0  0  0  0  0
  -23.9634   -8.4080   22.1658 C   0  0  0  0  0  0  0  0  0  0  0  0
  -31.4025  -26.0185   24.6762 C   0  0  0  0  0  0  0  0  0  0  0  0
  -21.0164   -6.8888   22.8194 C   0  0  0  0  0  0  0  0  0  0  0  0
  -20.3728   -6.5564   24.0114 C   0  0  0  0  0  0  0  0  0  0  0  0
  -32.0239  -24.8858   22.6390 C   0  0  0  0  0  0  0  0  0  0  0  0
  -28.6771  -18.5028   23.2276 C   0  0  0  0  0  0  0  0  0  0  0  0
  -22.0304   -4.8494   24.4304 C   0  0  0  0  0  0  0  0  0  0  0  0
  -24.2208  -10.4141   20.8443 C   0  0  0  0  0  0  0  0  0  0  0  0
  -24.0372  -12.9515   21.0332 C   0  0  0  0  0  0  0  0  0  0  0  0
  -24.8959  -29.6786   19.5848 C   0  0  0  0  0  0  0  0  0  0  0  0
  -31.1139  -27.1265   22.5352 C   0  0  0  0  0  0  0  0  0  0  0  0
  -25.6642  -28.8313   20.4060 C   0  0  0  0  0  0  0  0  0  0  0  0
  -31.6360  -26.0013   21.8813 C   0  0  0  0  0  0  0  0  0  0  0  0
  -28.9253  -19.7506   23.7885 C   0  0  0  0  0  0  0  0  0  0  0  0
  -23.2694   -7.8057   21.1164 C   0  0  0  0  0  0  0  0  0  0  0  0
  -31.9061  -24.8941   24.0287 C   0  0  0  0  0  0  0  0  0  0  0  0
  -22.1670   -6.2015   22.4329 C   0  0  0  0  0  0  0  0  0  0  0  0
  -30.0433  -20.4754   23.3911 C   0  0  0  0  0  0  0  0  0  0  0  0
  -20.8798   -5.5367   24.8169 C   0  0  0  0  0  0  0  0  0  0  0  0
  -22.6740   -5.1818   23.2384 C   0  0  0  0  0  0  0  0  0  0  0  0
  -24.7128  -11.7611   20.7041 C   0  0  0  0  0  0  0  0  0  0  0  0
  -30.8756  -19.9125   22.4370 C   0  0  0  0  0  0  0  0  0  0  0  0
  -29.5704  -18.0283   22.2806 C   0  0  0  0  0  0  0  0  0  0  0  0
  -24.9258  -13.9496   20.7158 C   0  0  0  0  0  0  0  0  0  0  0  0
  -22.7239  -13.1383   21.5772 C   0  0  0  0  0  0  0  0  0  0  0  0
  -29.0451  -27.3658   20.1338 C   0  0  0  0  0  0  0  0  0  0  0  0
  -31.7410  -27.4189   18.3306 C   0  0  0  0  0  0  0  0  0  0  0  0
  -35.0437  -26.6124   18.0327 C   0  0  0  0  0  0  0  0  0  0  0  0
  -30.0669  -16.0874   20.7533 C   0  0  0  0  0  0  0  0  0  0  0  0
  -24.9184  -29.5602   18.0814 C   0  0  0  0  0  0  0  0  0  0  0  0
  -30.7129  -28.3456   21.7507 C   0  0  0  0  0  0  0  0  0  0  0  0
  -31.7851  -25.9528   20.3834 C   0  0  0  0  0  0  0  0  0  0  0  0
  -26.1239  -28.7896   17.5491 C   0  0  0  0  0  0  0  0  0  0  0  0
  -29.2873  -13.7844   18.1523 C   0  0  0  0  0  0  0  0  0  0  0  0
  -26.3310  -27.5056   18.3460 C   0  0  0  0  0  0  0  0  0  0  0  0
  -32.9087  -21.9239   19.8291 C   0  0  0  0  0  0  0  0  0  0  0  0
  -31.8314  -20.9757   19.3818 C   0  0  0  0  0  0  0  0  0  0  0  0
  -27.9721  -13.1506   18.6114 C   0  0  0  0  0  0  0  0  0  0  0  0
  -30.2249  -14.0589   19.3267 C   0  0  0  0  0  0  0  0  0  0  0  0
  -28.3200  -14.2040   20.8821 C   0  0  0  0  0  0  0  0  0  0  0  0
  -26.6174  -27.8118   19.8210 C   0  0  1  0  0  0  0  0  0  0  0  0
  -30.3802  -28.0362   20.2944 C   0  0  1  0  0  0  0  0  0  0  0  0
  -31.8023  -21.5438   20.7736 C   0  0  0  0  0  0  0  0  0  0  0  0
  -27.3166  -13.9686   19.7413 C   0  0  2  0  0  0  0  0  0  0  0  0
  -27.9848  -20.2935   24.8126 C   0  0  0  0  0  0  0  0  0  0  0  0
  -36.9682  -26.7504   16.4281 C   0  0  0  0  0  0  0  0  0  0  0  0
  -31.7341  -23.2580   27.0032 C   0  0  0  0  0  0  0  0  0  0  0  0
  -30.5553  -25.1185   16.7143 C   0  0  0  0  0  0  0  0  0  0  0  0
  -32.8403  -24.6834   15.7882 C   0  0  0  0  0  0  0  0  0  0  0  0
  -31.7129  -26.8648   15.3488 C   0  0  0  0  0  0  0  0  0  0  0  0
  -36.6311  -28.2729   19.8986 C   0  0  0  0  0  0  0  0  0  0  0  0
  -32.0905  -20.6482   21.9747 C   0  0  0  0  0  0  0  0  0  0  0  0
  -31.1215  -21.7301   25.0996 C   0  0  0  0  0  0  0  0  0  0  0  0
  -32.6021  -26.3733   17.6640 C   0  0  1  0  0  0  0  0  0  0  0  0
  -36.2426  -27.4266   17.5809 C   0  0  2  0  0  0  0  0  0  0  0  0
  -31.2894  -23.1753   25.5523 C   0  0  2  0  0  0  0  0  0  1  0  0
  -31.9232  -25.7599   16.4069 C   0  0  0  0  0  0  0  0  0  0  0  0
  -25.9361  -11.9808   20.2150 N   0  0  0  0  0  0  0  0  0  0  0  0
  -30.6672  -18.7034   21.8695 N   0  0  0  0  0  0  0  0  0  0  0  0
  -26.0362  -13.3208   20.2344 N   0  0  0  0  0  0  0  0  0  0  0  0
  -31.3735  -27.1672   19.6600 N   0  0  0  0  0  0  0  0  0  0  0  0
  -29.5371  -14.8416   20.3559 N   0  0  0  0  0  0  0  0  0  0  0  0
  -24.8577  -15.2949   20.8043 N   0  0  0  0  0  0  0  0  0  0  0  0
  -21.9439  -12.0049   21.8444 N   0  0  0  0  0  0  0  0  0  0  0  0
  -29.3096  -16.7557   21.7149 N   0  0  0  0  0  0  0  0  0  0  0  0
  -27.9881  -28.2441   19.9906 N   0  0  0  0  0  0  0  0  0  0  0  0
  -33.8867  -27.0116   17.3977 N   0  0  0  0  0  0  0  0  0  0  0  0
  -37.2051  -27.5990   18.7056 N   0  3  0  0  0  0  0  0  0  0  0  0
  -22.2496  -14.2773   21.8039 O   0  0  0  0  0  0  0  0  0  0  0  0
  -28.9791  -26.1421   20.1379 O   0  0  0  0  0  0  0  0  0  0  0  0
  -31.4127  -28.4253   17.6974 O   0  0  0  0  0  0  0  0  0  0  0  0
  -35.1260  -25.7098   18.8628 O   0  0  0  0  0  0  0  0  0  0  0  0
  -31.1007  -16.5413   20.2561 O   0  0  0  0  0  0  0  0  0  0  0  0
  -22.8052   -6.5332   21.2495 O   0  0  0  0  0  0  0  0  0  0  0  0
  -30.3120  -21.7060   23.9290 O   0  0  0  0  0  0  0  0  0  0  0  0
  -32.2877  -23.8057   24.7509 O   0  0  0  0  0  0  0  0  0  1  0  0
  -20.2625   -5.2186   25.9623 F   0  0  0  0  0  0  0  0  0  0  0  0
  -23.7797   -4.5187   22.8728 F   0  0  0  0  0  0  0  0  0  0  0  0
  1  2  1  0  0  0  0
  1  5  2  0  0  0  0
  2  6  2  0  0  0  0
  3  8  2  0  0  0  0
  3 16  1  0  0  0  0
  4  9  1  0  0  0  0
  4 16  2  0  0  0  0
  5 18  1  0  0  0  0
  6 20  1  0  0  0  0
  7 10  2  0  0  0  0
  7 19  1  0  0  0  0
  8 23  1  0  0  0  0
  9 23  2  0  0  0  0
 10 24  1  0  0  0  0
 11 12  2  0  0  0  0
 11 25  1  0  0  0  0
 12 27  1  0  0  0  0
 13 21  1  0  0  0  0
 13 24  2  0  0  0  0
 14 22  2  0  0  0  0
 14 31  1  0  0  0  0
 15 27  2  0  0  0  0
 15 28  1  0  0  0  0
 16 29  1  0  0  0  0
 17 29  1  0  0  0  0
 17 32  2  0  0  0  0
 17 33  1  0  0  0  0
 18 20  2  0  0  0  0
 18 38  1  0  0  0  0
 19 21  2  0  0  0  0
 19 39  1  0  0  0  0
 20 49  1  0  0  0  0
 21 40  1  0  0  0  0
 22 26  1  0  0  0  0
 22 53  1  0  0  0  0
 23 82  1  0  0  0  0
 24 84  1  0  0  0  0
 25 28  2  0  0  0  0
 25 82  1  0  0  0  0
 26 30  2  0  0  0  0
 26 83  1  0  0  0  0
 27 85  1  0  0  0  0
 28 86  1  0  0  0  0
 29 66  2  0  0  0  0
 30 60  1  0  0  0  0
 30 67  1  0  0  0  0
 31 67  2  0  0  0  0
 31 73  1  0  0  0  0
 32 68  1  0  0  0  0
 32 71  1  0  0  0  0
 33 72  1  0  0  0  0
 33 77  2  0  0  0  0
 34 50  1  0  0  0  0
 34 74  1  0  0  0  0
 34 78  2  0  0  0  0
 35 62  1  0  0  0  0
 35 69  1  0  0  0  0
 35 79  2  0  0  0  0
 36 63  1  0  0  0  0
 36 75  1  0  0  0  0
 36 80  2  0  0  0  0
 37 70  1  0  0  0  0
 37 73  1  0  0  0  0
 37 81  2  0  0  0  0
 38 41  1  0  0  0  0
 39 50  1  0  0  0  0
 40 69  1  0  0  0  0
 41 43  1  0  0  0  0
 42 46  1  0  0  0  0
 42 47  1  0  0  0  0
 43 49  1  0  0  0  0
 44 45  1  0  0  0  0
 44 51  1  0  0  0  0
 45 51  1  0  0  0  0
 46 52  1  0  0  0  0
 47 70  1  0  0  0  0
 48 52  1  0  0  0  0
 48 70  1  0  0  0  0
 49 74  1  0  0  0  0
 50 69  1  0  0  0  0
 51 60  1  0  0  0  0
 52 68  1  0  0  0  0
 54 63  1  0  0  0  0
 55 64  1  0  0  0  0
 56 65  1  0  0  0  0
 57 65  1  0  0  0  0
 58 65  1  0  0  0  0
 59 76  1  0  0  0  0
 61 64  1  0  0  0  0
 61 83  1  0  0  0  0
 62 65  1  0  0  0  0
 62 75  1  0  0  0  0
 63 76  1  0  0  0  0
 64 84  1  0  0  0  0
 66 68  1  0  0  0  0
M  CHG  1  76   1
M  ISO  4  37 100  64 101  73 100  84 101
M  END
> <Batch ID>
0111

> <Smiles>
CNC(C)C(=O)NC(C(=O)N1Cc2cc([101O:1][101CH:1](C)COc3c(C)cc([100NH:0][100C:0](=O)N4CCCC(n5nc(-c6ccc(Oc7ccc(F)cc7F)cc6)c(C(N)=O)c5N)C4)nc3CC3CC3)ccc2CC1C(=O)NC1CCCc2ccccc21)C(C)(C)C

> <Shape>
0.256

> <Color>
0.149

> <Negative vol penalty>
0.000

$$$$

  -OEChem-04052320013D

 87 96  0     1  0  0  0  0  0999 V2000
  -17.7942  -26.3849   22.3080 C   0  0  0  0  0  0  0  0  0  0  0  0
  -18.8697  -25.5200   22.4838 C   0  0  0  0  0  0  0  0  0  0  0  0
  -23.1997  -10.0263   21.9565 C   0  0  0  0  0  0  0  0  0  0  0  0
  -23.8602  -11.3832   23.8432 C   0  0  0  0  0  0  0  0  0  0  0  0
  -18.0057  -27.7628   22.2857 C   0  0  0  0  0  0  0  0  0  0  0  0
  -20.1575  -26.0326   22.6362 C   0  0  0  0  0  0  0  0  0  0  0  0
  -24.6438  -23.7410   26.1187 C   0  0  0  0  0  0  0  0  0  0  0  0
  -28.7148  -18.8292   20.4496 C   0  0  0  0  0  0  0  0  0  0  0  0
  -22.4932   -9.1808   22.8119 C   0  0  0  0  0  0  0  0  0  0  0  0
  -23.1537  -10.5377   24.6986 C   0  0  0  0  0  0  0  0  0  0  0  0
  -25.7430  -22.9362   25.8225 C   0  0  0  0  0  0  0  0  0  0  0  0
  -23.1868   -6.6599   24.9539 C   0  0  0  0  0  0  0  0  0  0  0  0
  -23.3353   -5.2848   24.7730 C   0  0  0  0  0  0  0  0  0  0  0  0
  -28.2561  -19.8760   21.2415 C   0  0  0  0  0  0  0  0  0  0  0  0
  -27.1289  -24.9032   25.6500 C   0  0  0  0  0  0  0  0  0  0  0  0
  -20.9632   -5.0827   24.3615 C   0  0  0  0  0  0  0  0  0  0  0  0
  -23.8832  -11.1275   22.4722 C   0  0  0  0  0  0  0  0  0  0  0  0
  -24.1271  -13.1483   20.9346 C   0  0  0  0  0  0  0  0  0  0  0  0
  -19.2955  -28.2929   22.4476 C   0  0  0  0  0  0  0  0  0  0  0  0
  -24.7767  -25.1360   26.1721 C   0  0  0  0  0  0  0  0  0  0  0  0
  -20.3866  -27.4189   22.6147 C   0  0  0  0  0  0  0  0  0  0  0  0
  -26.0303  -25.7232   25.9496 C   0  0  0  0  0  0  0  0  0  0  0  0
  -30.0565  -18.4671   20.4944 C   0  0  0  0  0  0  0  0  0  0  0  0
  -22.4702   -9.4365   24.1829 C   0  0  0  0  0  0  0  0  0  0  0  0
  -26.9852  -23.5175   25.5852 C   0  0  0  0  0  0  0  0  0  0  0  0
  -21.9265   -7.2464   24.8387 C   0  0  0  0  0  0  0  0  0  0  0  0
  -22.2236   -4.4962   24.4768 C   0  0  0  0  0  0  0  0  0  0  0  0
  -20.8147   -6.4578   24.5425 C   0  0  0  0  0  0  0  0  0  0  0  0
  -24.6137  -12.0009   21.5892 C   0  0  0  0  0  0  0  0  0  0  0  0
  -30.8921  -19.1777   21.3409 C   0  0  0  0  0  0  0  0  0  0  0  0
  -29.1723  -20.5234   22.0547 C   0  0  0  0  0  0  0  0  0  0  0  0
  -25.2025  -13.6185   20.2211 C   0  0  0  0  0  0  0  0  0  0  0  0
  -22.8201  -13.7366   20.9685 C   0  0  0  0  0  0  0  0  0  0  0  0
  -32.3091  -18.8613   21.4412 C   0  0  0  0  0  0  0  0  0  0  0  0
  -23.5253  -27.5719   24.5584 C   0  0  0  0  0  0  0  0  0  0  0  0
  -25.1043  -29.3421   26.7710 C   0  0  0  0  0  0  0  0  0  0  0  0
  -27.6585  -29.5565   29.0242 C   0  0  0  0  0  0  0  0  0  0  0  0
  -30.6273  -14.8772   19.8580 C   0  0  0  0  0  0  0  0  0  0  0  0
  -19.4811  -29.7876   22.3692 C   0  0  0  0  0  0  0  0  0  0  0  0
  -23.5870  -25.9884   26.5192 C   0  0  0  0  0  0  0  0  0  0  0  0
  -26.2303  -27.2146   26.0150 C   0  0  0  0  0  0  0  0  0  0  0  0
  -20.8257  -30.2637   22.9127 C   0  0  0  0  0  0  0  0  0  0  0  0
  -29.6902  -11.4967   19.2490 C   0  0  0  0  0  0  0  0  0  0  0  0
  -21.9580  -29.3979   22.3695 C   0  0  0  0  0  0  0  0  0  0  0  0
  -32.1821  -17.3059   23.4779 C   0  0  0  0  0  0  0  0  0  0  0  0
  -33.5545  -17.1539   22.8944 C   0  0  0  0  0  0  0  0  0  0  0  0
  -28.2487  -11.4199   19.7551 C   0  0  0  0  0  0  0  0  0  0  0  0
  -30.5456  -12.4152   20.1190 C   0  0  0  0  0  0  0  0  0  0  0  0
  -28.5584  -13.6951   20.8164 C   0  0  0  0  0  0  0  0  0  0  0  0
  -21.7950  -27.9376   22.8082 C   0  0  1  0  0  0  0  0  0  0  0  0
  -32.8335  -18.4517   22.7863 C   0  0  0  0  0  0  0  0  0  0  0  0
  -23.7252  -27.4304   26.0409 C   0  0  1  0  0  0  0  0  0  0  0  0
  -27.6432  -12.8245   19.9384 C   0  0  2  0  0  0  0  0  0  0  0  0
  -30.3549  -17.6050   18.1430 C   0  0  0  0  0  0  0  0  0  0  0  0
  -28.7195  -31.1423   30.6542 C   0  0  0  0  0  0  0  0  0  0  0  0
  -26.4011  -30.8496   24.4567 C   0  0  0  0  0  0  0  0  0  0  0  0
  -28.1035  -31.7233   26.0712 C   0  0  0  0  0  0  0  0  0  0  0  0
  -25.6933  -32.2907   26.3741 C   0  0  0  0  0  0  0  0  0  0  0  0
  -27.1029  -27.7611   31.3105 C   0  0  0  0  0  0  0  0  0  0  0  0
  -29.0672  -23.2985   24.4569 C   0  0  0  0  0  0  0  0  0  1  0  0
  -29.7255  -22.1896   23.6590 C   0  0  0  0  0  0  0  0  0  0  0  0
  -30.5531  -17.3487   19.6446 C   0  0  2  0  0  0  0  0  0  0  0  0
  -26.4859  -29.9421   26.8723 C   0  0  1  0  0  0  0  0  0  0  0  0
  -27.6938  -30.0356   30.4642 C   0  0  2  0  0  0  0  0  0  0  0  0
  -26.6671  -31.1734   25.9404 C   0  0  0  0  0  0  0  0  0  0  0  0
  -25.8980  -11.7568   21.3157 N   0  0  0  0  0  0  0  0  0  0  0  0
  -30.4831  -20.2002   22.1251 N   0  0  0  0  0  0  0  0  0  0  0  0
  -26.2277  -12.7574   20.4813 N   0  0  0  0  0  0  0  0  0  0  0  0
  -25.0353  -28.0059   26.3519 N   0  0  0  0  0  0  0  0  0  0  0  0
  -29.9165  -13.7314   20.2516 N   0  0  0  0  0  0  0  0  0  0  0  0
  -25.3616  -14.6802   19.4027 N   0  0  0  0  0  0  0  0  0  0  0  0
  -21.8324  -13.1254   21.7529 N   0  0  0  0  0  0  0  0  0  0  0  0
  -22.2103  -27.7741   24.1849 N   0  0  0  0  0  0  0  0  0  0  0  0
  -26.7050  -30.2257   28.2865 N   0  0  0  0  0  0  0  0  0  0  0  0
  -29.9556  -16.0839   20.0110 N   0  0  0  0  0  0  0  0  0  0  0  0
  -28.0426  -28.9099   31.3763 N   0  3  0  0  0  0  0  0  0  0  0  0
  -22.5318  -14.7643   20.3094 O   0  0  0  0  0  0  0  0  0  0  0  0
  -33.1105  -18.9091   20.5064 O   0  0  0  0  0  0  0  0  0  0  0  0
  -24.4925  -27.5042   23.8091 O   0  0  0  0  0  0  0  0  0  0  0  0
  -24.1230  -30.0314   27.0601 O   0  0  0  0  0  0  0  0  0  0  0  0
  -28.4048  -28.6791   28.5957 O   0  0  0  0  0  0  0  0  0  0  0  0
  -31.7735  -14.8279   19.3990 O   0  0  0  0  0  0  0  0  0  0  0  0
  -21.7808   -8.6118   25.0178 O   0  0  0  0  0  0  0  0  0  0  0  0
  -28.0597  -22.7343   25.2953 O   0  0  0  0  0  0  0  0  0  1  0  0
  -28.7454  -21.5593   22.8433 O   0  0  0  0  0  0  0  0  0  0  0  0
  -22.3666   -3.1760   24.3015 F   0  0  0  0  0  0  0  0  0  0  0  0
  -19.6015   -7.0157   24.4294 F   0  0  0  0  0  0  0  0  0  0  0  0
  1  2  1  0  0  0  0
  1  5  2  0  0  0  0
  2  6  2  0  0  0  0
  3  9  2  0  0  0  0
  3 17  1  0  0  0  0
  4 10  1  0  0  0  0
  4 17  2  0  0  0  0
  5 19  1  0  0  0  0
  6 21  1  0  0  0  0
  7 11  2  0  0  0  0
  7 20  1  0  0  0  0
  8 14  2  0  0  0  0
  8 23  1  0  0  0  0
  9 24  1  0  0  0  0
 10 24  2  0  0  0  0
 11 25  1  0  0  0  0
 12 13  2  0  0  0  0
 12 26  1  0  0  0  0
 13 27  1  0  0  0  0
 14 31  1  0  0  0  0
 15 22  1  0  0  0  0
 15 25  2  0  0  0  0
 16 27  2  0  0  0  0
 16 28  1  0  0  0  0
 17 29  1  0  0  0  0
 18 29  1  0  0  0  0
 18 32  2  0  0  0  0
 18 33  1  0  0  0  0
 19 21  2  0  0  0  0
 19 39  1  0  0  0  0
 20 22  2  0  0  0  0
 20 40  1  0  0  0  0
 21 50  1  0  0  0  0
 22 41  1  0  0  0  0
 23 30  2  0  0  0  0
 23 62  1  0  0  0  0
 24 83  1  0  0  0  0
 25 84  1  0  0  0  0
 26 28  2  0  0  0  0
 26 83  1  0  0  0  0
 27 86  1  0  0  0  0
 28 87  1  0  0  0  0
 29 66  2  0  0  0  0
 30 34  1  0  0  0  0
 30 67  1  0  0  0  0
 31 67  2  0  0  0  0
 31 85  1  0  0  0  0
 32 68  1  0  0  0  0
 32 71  1  0  0  0  0
 33 72  1  0  0  0  0
 33 77  2  0  0  0  0
 34 51  1  0  0  0  0
 34 78  2  0  0  0  0
 35 52  1  0  0  0  0
 35 73  1  0  0  0  0
 35 79  2  0  0  0  0
 36 63  1  0  0  0  0
 36 69  1  0  0  0  0
 36 80  2  0  0  0  0
 37 64  1  0  0  0  0
 37 74  1  0  0  0  0
 37 81  2  0  0  0  0
 38 70  1  0  0  0  0
 38 75  1  0  0  0  0
 38 82  2  0  0  0  0
 39 42  1  0  0  0  0
 40 52  1  0  0  0  0
 41 69  1  0  0  0  0
 42 44  1  0  0  0  0
 43 47  1  0  0  0  0
 43 48  1  0  0  0  0
 44 50  1  0  0  0  0
 45 46  1  0  0  0  0
 45 51  1  0  0  0  0
 46 51  1  0  0  0  0
 47 53  1  0  0  0  0
 48 70  1  0  0  0  0
 49 53  1  0  0  0  0
 49 70  1  0  0  0  0
 50 73  1  0  0  0  0
 52 69  1  0  0  0  0
 53 68  1  0  0  0  0
 54 62  1  0  0  0  0
 55 64  1  0  0  0  0
 56 65  1  0  0  0  0
 57 65  1  0  0  0  0
 58 65  1  0  0  0  0
 59 76  1  0  0  0  0
 60 61  1  0  0  0  0
 60 84  1  0  0  0  0
 61 85  1  0  0  0  0
 62 75  1  0  0  0  0
 63 65  1  0  0  0  0
 63 74  1  0  0  0  0
 64 76  1  0  0  0  0
 66 68  1  0  0  0  0
M  CHG  1  76   1
M  ISO  4  38 100  60 101  75 100  84 101
M  END
> <Batch ID>
0111

> <Smiles>
CNC(C)C(=O)NC(C(=O)N1Cc2cc([101O:1][101CH2:1]COc3ccc(C(C)[100NH:0][100C:0](=O)N4CCCC(n5nc(-c6ccc(Oc7ccc(F)cc7F)cc6)c(C(N)=O)c5N)C4)c(C(=O)C4CC4)n3)ccc2CC1C(=O)NC1CCCc2ccccc21)C(C)(C)C

> <Shape>
0.259

> <Color>
0.137

> <Negative vol penalty>
0.000

$$$$

  -OEChem-04052320013D

 84 92  0     1  0  0  0  0  0999 V2000
  -27.7533  -26.8170   14.9200 C   0  0  0  0  0  0  0  0  0  0  0  0
  -26.6365  -26.7459   15.7464 C   0  0  0  0  0  0  0  0  0  0  0  0
  -28.3837  -20.2844   18.7043 C   0  0  0  0  0  0  0  0  0  0  0  0
  -26.9641  -18.7861   19.9599 C   0  0  0  0  0  0  0  0  0  0  0  0
  -28.9651  -27.2852   15.4263 C   0  0  0  0  0  0  0  0  0  0  0  0
  -26.7310  -27.1420   17.0800 C   0  0  0  0  0  0  0  0  0  0  0  0
  -22.8273  -30.0223   18.5325 C   0  0  0  0  0  0  0  0  0  0  0  0
  -29.4887  -19.4868   19.0017 C   0  0  0  0  0  0  0  0  0  0  0  0
  -28.0690  -17.9884   20.2572 C   0  0  0  0  0  0  0  0  0  0  0  0
  -21.6277  -29.3718   18.8183 C   0  0  0  0  0  0  0  0  0  0  0  0
  -29.9328  -15.6375   18.7016 C   0  0  0  0  0  0  0  0  0  0  0  0
  -29.7875  -14.2565   18.5697 C   0  0  0  0  0  0  0  0  0  0  0  0
  -22.1244  -29.5042   21.1752 C   0  0  0  0  0  0  0  0  0  0  0  0
  -30.3087  -13.9780   20.9124 C   0  0  0  0  0  0  0  0  0  0  0  0
  -27.1214  -19.9341   19.1834 C   0  0  0  0  0  0  0  0  0  0  0  0
  -25.1208  -20.6419   17.7677 C   0  0  0  0  0  0  0  0  0  0  0  0
  -29.0721  -27.6964   16.7642 C   0  0  0  0  0  0  0  0  0  0  0  0
  -23.6910  -30.4095   19.5671 C   0  0  0  0  0  0  0  0  0  0  0  0
  -27.9457  -27.6149   17.6051 C   0  0  0  0  0  0  0  0  0  0  0  0
  -23.3331  -30.1617   20.9000 C   0  0  0  0  0  0  0  0  0  0  0  0
  -29.3313  -18.3388   19.7781 C   0  0  0  0  0  0  0  0  0  0  0  0
  -21.2774  -29.1101   20.1396 C   0  0  0  0  0  0  0  0  0  0  0  0
  -30.2661  -16.1887   19.9388 C   0  0  0  0  0  0  0  0  0  0  0  0
  -29.9755  -13.4268   19.6751 C   0  0  0  0  0  0  0  0  0  0  0  0
  -30.4541  -15.3590   21.0442 C   0  0  0  0  0  0  0  0  0  0  0  0
  -25.9797  -20.7580   18.8770 C   0  0  0  0  0  0  0  0  0  0  0  0
  -24.2040  -21.6506   17.9363 C   0  0  0  0  0  0  0  0  0  0  0  0
  -25.1492  -19.7060   16.6819 C   0  0  0  0  0  0  0  0  0  0  0  0
  -26.6701  -29.6734   20.3959 C   0  0  0  0  0  0  0  0  0  0  0  0
  -26.2180  -32.0062   22.6040 C   0  0  0  0  0  0  0  0  0  0  0  0
  -24.0311  -33.8373   24.4779 C   0  0  0  0  0  0  0  0  0  0  0  0
  -22.6325  -24.5427   23.1040 C   0  0  0  0  0  0  0  0  0  0  0  0
  -30.4149  -28.1509   17.2788 C   0  0  0  0  0  0  0  0  0  0  0  0
  -24.9687  -31.1341   19.2436 C   0  0  0  0  0  0  0  0  0  0  0  0
  -24.2159  -30.5751   22.0482 C   0  0  0  0  0  0  0  0  0  0  0  0
  -30.3362  -28.9040   18.6043 C   0  0  0  0  0  0  0  0  0  0  0  0
  -23.7084  -25.9914   19.8720 C   0  0  0  0  0  0  0  0  0  0  0  0
  -29.4351  -28.1627   19.5868 C   0  0  0  0  0  0  0  0  0  0  0  0
  -24.4029  -24.8121   19.1931 C   0  0  0  0  0  0  0  0  0  0  0  0
  -18.5837  -23.3251   21.0021 C   0  0  0  0  0  0  0  0  0  0  0  0
  -23.7861  -25.8965   21.3928 C   0  0  0  0  0  0  0  0  0  0  0  0
  -23.9662  -23.4337   21.2643 C   0  0  0  0  0  0  0  0  0  0  0  0
  -28.0022  -28.0588   19.0507 C   0  0  1  0  0  0  0  0  0  0  0  0
  -26.0142  -31.0245   20.3492 C   0  0  1  0  0  0  0  0  0  0  0  0
  -19.4709  -23.3080   22.2178 C   0  0  2  0  0  0  0  0  0  0  0  0
  -23.8658  -23.4748   19.7321 C   0  0  2  0  0  0  0  0  0  0  0  0
  -18.7968  -24.6008   21.7887 C   0  0  1  0  0  0  0  0  0  0  0  0
  -23.9608  -35.6428   26.2192 C   0  0  0  0  0  0  0  0  0  0  0  0
  -16.4306  -24.1900   22.5209 C   0  0  0  0  0  0  0  0  0  0  0  0
  -18.0786  -25.2125   24.1153 C   0  0  0  0  0  0  0  0  0  0  0  0
  -22.7526  -21.9046   24.7119 C   0  0  0  0  0  0  0  0  0  0  0  0
  -21.1572  -23.6074   25.6491 C   0  0  0  0  0  0  0  0  0  0  0  0
  -27.0700  -29.9878   24.7277 C   0  0  0  0  0  0  0  0  0  0  0  0
  -26.0866  -31.5023   26.4619 C   0  0  0  0  0  0  0  0  0  0  0  0
  -27.9863  -32.2921   25.0513 C   0  0  0  0  0  0  0  0  0  0  0  0
  -22.4975  -35.6461   22.7072 C   0  0  0  0  0  0  0  0  0  0  0  0
  -20.9364  -23.0777   22.0761 C   0  0  0  0  0  0  0  0  0  0  0  0
  -19.6016  -25.6922   21.1533 C   0  0  0  0  0  0  0  0  0  0  0  0
  -18.7848  -26.4762   20.1297 C   0  0  0  0  0  0  0  0  0  0  0  0
  -19.6185  -27.5526   19.4482 C   0  0  0  0  0  0  0  0  0  1  0  0
  -25.6914  -32.0522   24.0181 C   0  0  1  0  0  0  0  0  0  0  0  0
  -23.9264  -35.3303   24.7313 C   0  0  2  0  0  0  0  0  0  0  0  0
  -17.6606  -25.0991   22.6434 C   0  0  0  0  0  0  0  0  0  0  0  0
  -21.4971  -22.7278   24.4529 C   0  0  0  0  0  0  0  0  0  0  0  0
  -26.6926  -31.4490   25.0433 C   0  0  0  0  0  0  0  0  0  0  0  0
  -25.6391  -21.7614   19.6902 N   0  0  0  0  0  0  0  0  0  0  0  0
  -24.5560  -22.2851   19.0912 N   0  0  0  0  0  0  0  0  0  0  0  0
  -25.4577  -31.2751   21.6803 N   0  0  0  0  0  0  0  0  0  0  0  0
  -23.3099  -24.5995   21.8749 N   0  0  0  0  0  0  0  0  0  0  0  0
  -23.1391  -22.0480   17.2079 N   0  0  0  0  0  0  0  0  0  0  0  0
  -26.1593  -18.7346   16.6634 N   0  0  0  0  0  0  0  0  0  0  0  0
  -27.3060  -29.3159   19.2223 N   0  0  0  0  0  0  0  0  0  0  0  0
  -25.3371  -33.4437   24.2766 N   0  0  0  0  0  0  0  0  0  0  0  0
  -21.6579  -23.5442   23.2516 N   0  0  0  0  0  0  0  0  0  0  0  0
  -22.6536  -35.8633   24.1685 N   0  3  0  0  0  0  0  0  0  0  0  0
  -24.3135  -19.7407   15.7470 O   0  0  0  0  0  0  0  0  0  0  0  0
  -26.6054  -29.0055   21.4212 O   0  0  0  0  0  0  0  0  0  0  0  0
  -27.2615  -32.6031   22.3276 O   0  0  0  0  0  0  0  0  0  0  0  0
  -23.0525  -33.0938   24.4638 O   0  0  0  0  0  0  0  0  0  0  0  0
  -22.8778  -25.3451   24.0139 O   0  0  0  0  0  0  0  0  0  0  0  0
  -30.4092  -17.5600   20.0683 O   0  0  0  0  0  0  0  0  0  0  0  0
  -20.1074  -28.4747   20.4213 O   0  0  0  0  0  0  0  0  0  1  0  0
  -29.8344  -12.1008   19.5486 F   0  0  0  0  0  0  0  0  0  0  0  0
  -30.7732  -15.8828   22.2356 F   0  0  0  0  0  0  0  0  0  0  0  0
  1  2  1  0  0  0  0
  1  5  2  0  0  0  0
  2  6  2  0  0  0  0
  3  8  2  0  0  0  0
  3 15  1  0  0  0  0
  4  9  1  0  0  0  0
  4 15  2  0  0  0  0
  5 17  1  0  0  0  0
  6 19  1  0  0  0  0
  7 10  2  0  0  0  0
  7 18  1  0  0  0  0
  8 21  1  0  0  0  0
  9 21  2  0  0  0  0
 10 22  1  0  0  0  0
 11 12  2  0  0  0  0
 11 23  1  0  0  0  0
 12 24  1  0  0  0  0
 13 20  1  0  0  0  0
 13 22  2  0  0  0  0
 14 24  2  0  0  0  0
 14 25  1  0  0  0  0
 15 26  1  0  0  0  0
 16 26  1  0  0  0  0
 16 27  2  0  0  0  0
 16 28  1  0  0  0  0
 17 19  2  0  0  0  0
 17 33  1  0  0  0  0
 18 20  2  0  0  0  0
 18 34  1  0  0  0  0
 19 43  1  0  0  0  0
 20 35  1  0  0  0  0
 21 81  1  0  0  0  0
 22 82  1  0  0  0  0
 23 25  2  0  0  0  0
 23 81  1  0  0  0  0
 24 83  1  0  0  0  0
 25 84  1  0  0  0  0
 26 66  2  0  0  0  0
 27 67  1  0  0  0  0
 27 70  1  0  0  0  0
 28 71  1  0  0  0  0
 28 76  2  0  0  0  0
 29 44  1  0  0  0  0
 29 72  1  0  0  0  0
 29 77  2  0  0  0  0
 30 61  1  0  0  0  0
 30 68  1  0  0  0  0
 30 78  2  0  0  0  0
 31 62  1  0  0  0  0
 31 73  1  0  0  0  0
 31 79  2  0  0  0  0
 32 69  1  0  0  0  0
 32 74  1  0  0  0  0
 32 80  2  0  0  0  0
 33 36  1  0  0  0  0
 34 44  1  0  0  0  0
 35 68  1  0  0  0  0
 36 38  1  0  0  0  0
 37 39  1  0  0  0  0
 37 41  1  0  0  0  0
 38 43  1  0  0  0  0
 39 46  1  0  0  0  0
 40 45  1  0  0  0  0
 40 47  1  0  0  0  0
 41 69  1  0  0  0  0
 42 46  1  0  0  0  0
 42 69  1  0  0  0  0
 43 72  1  0  0  0  0
 44 68  1  0  0  0  0
 45 47  1  0  0  0  0
 45 57  1  0  0  0  0
 46 67  1  0  0  0  0
 47 58  1  0  0  0  0
 47 63  1  0  0  0  0
 48 62  1  0  0  0  0
 49 63  1  0  0  0  0
 50 63  1  0  0  0  0
 51 64  1  0  0  0  0
 52 64  1  0  0  0  0
 53 65  1  0  0  0  0
 54 65  1  0  0  0  0
 55 65  1  0  0  0  0
 56 75  1  0  0  0  0
 57 74  1  0  0  0  0
 58 59  1  0  0  0  0
 59 60  1  0  0  0  0
 60 82  1  0  0  0  0
 61 65  1  0  0  0  0
 61 73  1  0  0  0  0
 62 75  1  0  0  0  0
 64 74  1  0  0  0  0
 66 67  1  0  0  0  0
M  CHG  1  75   1
M  ISO  4  32 100  60 101  74 100  82 101
M  END
> <Batch ID>
0111

> <Smiles>
CNC(C)C(=O)NC(C(=O)N1Cc2cc([101O:1][101CH2:1]CCC3(C(C)C)CC3C[100N:0](C(C)C)[100C:0](=O)N3CCCC(n4nc(-c5ccc(Oc6ccc(F)cc6F)cc5)c(C(N)=O)c4N)C3)ccc2CC1C(=O)NC1CCCc2ccccc21)C(C)(C)C

> <Shape>
0.220

> <Color>
0.067

> <Negative vol penalty>
0.000

$$$$

  -OEChem-04052320013D

 84 92  0     1  0  0  0  0  0999 V2000
  -23.1372   -6.6968   24.1578 C   0  0  0  0  0  0  0  0  0  0  0  0
  -24.2893   -7.4458   24.3744 C   0  0  0  0  0  0  0  0  0  0  0  0
  -27.2795  -29.7826   19.9170 C   0  0  0  0  0  0  0  0  0  0  0  0
  -27.2799  -28.9401   22.1813 C   0  0  0  0  0  0  0  0  0  0  0  0
  -22.3640   -6.9227   23.0198 C   0  0  0  0  0  0  0  0  0  0  0  0
  -24.6695   -8.4205   23.4526 C   0  0  0  0  0  0  0  0  0  0  0  0
  -27.4074  -13.7634   24.6621 C   0  0  0  0  0  0  0  0  0  0  0  0
  -26.4433  -30.8289   20.3064 C   0  0  0  0  0  0  0  0  0  0  0  0
  -26.4438  -29.9864   22.5708 C   0  0  0  0  0  0  0  0  0  0  0  0
  -28.7398  -14.1694   24.6018 C   0  0  0  0  0  0  0  0  0  0  0  0
  -24.0190  -32.2299   24.0864 C   0  0  0  0  0  0  0  0  0  0  0  0
  -22.9327  -31.9213   24.9051 C   0  0  0  0  0  0  0  0  0  0  0  0
  -30.7114  -19.7976   23.2959 C   0  0  0  0  0  0  0  0  0  0  0  0
  -30.8625  -18.7773   24.2671 C   0  0  0  0  0  0  0  0  0  0  0  0
  -28.3588  -15.0714   22.3971 C   0  0  0  0  0  0  0  0  0  0  0  0
  -22.0686  -30.4426   23.2010 C   0  0  0  0  0  0  0  0  0  0  0  0
  -27.6978  -28.8382   20.8544 C   0  0  0  0  0  0  0  0  0  0  0  0
  -29.9688  -27.7491   20.4497 C   0  0  0  0  0  0  0  0  0  0  0  0
  -22.7297   -7.9072   22.0884 C   0  0  0  0  0  0  0  0  0  0  0  0
  -26.5420  -13.9990   23.5842 C   0  0  0  0  0  0  0  0  0  0  0  0
  -23.9012   -8.6589   22.3004 C   0  0  0  0  0  0  0  0  0  0  0  0
  -27.0152  -14.6697   22.4473 C   0  0  0  0  0  0  0  0  0  0  0  0
  -26.0254  -30.9308   21.6333 C   0  0  0  0  0  0  0  0  0  0  0  0
  -29.2164  -14.8210   23.4680 C   0  0  0  0  0  0  0  0  0  0  0  0
  -24.1301  -31.6450   22.8250 C   0  0  0  0  0  0  0  0  0  0  0  0
  -21.9575  -31.0277   24.4624 C   0  0  0  0  0  0  0  0  0  0  0  0
  -23.1549  -30.7513   22.3823 C   0  0  0  0  0  0  0  0  0  0  0  0
  -28.5611  -27.7568   20.4526 C   0  0  0  0  0  0  0  0  0  0  0  0
  -31.5136  -19.4687   22.2256 C   0  0  0  0  0  0  0  0  0  0  0  0
  -31.7526  -17.8561   23.7609 C   0  0  0  0  0  0  0  0  0  0  0  0
  -30.3044  -26.5006   19.9859 C   0  0  0  0  0  0  0  0  0  0  0  0
  -30.8908  -28.7785   20.8320 C   0  0  0  0  0  0  0  0  0  0  0  0
  -24.8688  -12.1568   21.6068 C   0  0  0  0  0  0  0  0  0  0  0  0
  -23.6974  -14.9998   20.5735 C   0  0  0  0  0  0  0  0  0  0  0  0
  -24.1330  -18.3697   20.2564 C   0  0  0  0  0  0  0  0  0  0  0  0
  -29.5940  -20.9652   19.9607 C   0  0  0  0  0  0  0  0  0  0  0  0
  -21.8879   -8.0827   20.8493 C   0  0  0  0  0  0  0  0  0  0  0  0
  -25.1008  -13.5786   23.6758 C   0  0  0  0  0  0  0  0  0  0  0  0
  -26.1217  -14.9647   21.2713 C   0  0  0  0  0  0  0  0  0  0  0  0
  -22.1566   -9.3914   20.1108 C   0  0  0  0  0  0  0  0  0  0  0  0
  -27.4519  -22.8968   17.8734 C   0  0  0  0  0  0  0  0  0  0  0  0
  -23.6571   -9.6235   19.9647 C   0  0  0  0  0  0  0  0  0  0  0  0
  -27.6610  -24.3312   18.3622 C   0  0  0  0  0  0  0  0  0  0  0  0
  -27.4972  -21.8957   19.0256 C   0  0  0  0  0  0  0  0  0  0  0  0
  -28.9141  -23.4100   20.3572 C   0  0  0  0  0  0  0  0  0  0  0  0
  -24.3331   -9.7422   21.3360 C   0  0  1  0  0  0  0  0  0  0  0  0
  -24.4390  -13.4124   22.3113 C   0  0  1  0  0  0  0  0  0  0  0  0
  -28.9324  -24.4501   19.2240 C   0  0  2  0  0  0  0  0  0  0  0  0
  -33.0608  -16.8500   25.6604 C   0  0  0  0  0  0  0  0  0  0  0  0
  -23.0211  -20.4215   19.3338 C   0  0  0  0  0  0  0  0  0  0  0  0
  -33.4777  -15.7113   19.9915 C   0  0  0  0  0  0  0  0  0  0  0  0
  -31.2686  -16.8864   20.0608 C   0  0  0  0  0  0  0  0  0  0  0  0
  -24.4987  -14.1619   17.7511 C   0  0  0  0  0  0  0  0  0  0  0  0
  -24.2563  -16.5525   17.0477 C   0  0  0  0  0  0  0  0  0  0  0  0
  -22.2781  -15.3012   17.9102 C   0  0  0  0  0  0  0  0  0  0  0  0
  -23.9867  -19.6334   22.9286 C   0  0  0  0  0  0  0  0  0  0  0  0
  -31.7311  -20.1832   20.9508 C   0  0  0  0  0  0  0  0  0  0  0  0
  -33.0743  -17.5985   21.6516 C   0  0  0  0  0  0  0  0  0  0  0  0
  -31.1513  -15.5575   24.6384 C   0  0  0  0  0  0  0  0  0  1  0  0
  -32.2765  -16.5678   24.3759 C   0  0  1  0  0  0  0  0  0  0  0  0
  -24.0992  -16.0016   19.5181 C   0  0  1  0  0  0  0  0  0  0  0  0
  -23.2104  -19.5373   20.5565 C   0  0  2  0  0  0  0  0  0  0  0  0
  -32.4583  -16.4080   20.8954 C   0  0  0  0  0  0  0  0  0  0  0  0
  -23.8007  -15.4972   18.0780 C   0  0  0  0  0  0  0  0  0  0  0  0
  -28.0383  -26.6047   20.0246 N   0  0  0  0  0  0  0  0  0  0  0  0
  -32.1421  -18.2868   22.5195 N   0  0  0  0  0  0  0  0  0  0  0  0
  -29.1233  -25.8614   19.7483 N   0  0  0  0  0  0  0  0  0  0  0  0
  -24.7221  -14.5281   21.4062 N   0  0  0  0  0  0  0  0  0  0  0  0
  -28.7284  -22.0601   19.8023 N   0  0  0  0  0  0  0  0  0  0  0  0
  -31.4916  -25.8981   19.7623 N   0  0  0  0  0  0  0  0  0  0  0  0
  -30.3768  -30.0008   21.2861 N   0  0  0  0  0  0  0  0  0  0  0  0
  -24.0953  -11.0513   21.9051 N   0  0  0  0  0  0  0  0  0  0  0  0
  -23.4294  -17.2504   19.8646 N   0  0  0  0  0  0  0  0  0  0  0  0
  -30.7414  -21.2085   20.7056 N   0  0  0  0  0  0  0  0  0  0  0  0
  -23.7712  -20.3710   21.6572 N   0  3  0  0  0  0  0  0  0  0  0  0
  -32.1335  -28.6249   20.7572 O   0  0  0  0  0  0  0  0  0  0  0  0
  -25.8302  -12.1889   20.8475 O   0  0  0  0  0  0  0  0  0  0  0  0
  -22.5165  -14.6540   20.6607 O   0  0  0  0  0  0  0  0  0  0  0  0
  -25.3557  -18.4443   20.3558 O   0  0  0  0  0  0  0  0  0  0  0  0
  -29.3640  -19.8547   19.4699 O   0  0  0  0  0  0  0  0  0  0  0  0
  -25.2097  -31.9518   22.0137 O   0  0  0  0  0  0  0  0  0  0  0  0
  -30.5167  -15.2178   23.4062 O   0  0  0  0  0  0  0  0  0  1  0  0
  -20.9151  -30.7302   25.2493 F   0  0  0  0  0  0  0  0  0  0  0  0
  -23.2569  -30.1852   21.1720 F   0  0  0  0  0  0  0  0  0  0  0  0
  1  2  1  0  0  0  0
  1  5  2  0  0  0  0
  2  6  2  0  0  0  0
  3  8  2  0  0  0  0
  3 17  1  0  0  0  0
  4  9  1  0  0  0  0
  4 17  2  0  0  0  0
  5 19  1  0  0  0  0
  6 21  1  0  0  0  0
  7 10  2  0  0  0  0
  7 20  1  0  0  0  0
  8 23  1  0  0  0  0
  9 23  2  0  0  0  0
 10 24  1  0  0  0  0
 11 12  2  0  0  0  0
 11 25  1  0  0  0  0
 12 26  1  0  0  0  0
 13 14  1  0  0  0  0
 13 29  2  0  0  0  0
 14 30  2  0  0  0  0
 15 22  1  0  0  0  0
 15 24  2  0  0  0  0
 16 26  2  0  0  0  0
 16 27  1  0  0  0  0
 17 28  1  0  0  0  0
 18 28  1  0  0  0  0
 18 31  2  0  0  0  0
 18 32  1  0  0  0  0
 19 21  2  0  0  0  0
 19 37  1  0  0  0  0
 20 22  2  0  0  0  0
 20 38  1  0  0  0  0
 21 46  1  0  0  0  0
 22 39  1  0  0  0  0
 23 81  1  0  0  0  0
 24 82  1  0  0  0  0
 25 27  2  0  0  0  0
 25 81  1  0  0  0  0
 26 83  1  0  0  0  0
 27 84  1  0  0  0  0
 28 65  2  0  0  0  0
 29 57  1  0  0  0  0
 29 66  1  0  0  0  0
 30 60  1  0  0  0  0
 30 66  1  0  0  0  0
 31 67  1  0  0  0  0
 31 70  1  0  0  0  0
 32 71  1  0  0  0  0
 32 76  2  0  0  0  0
 33 47  1  0  0  0  0
 33 72  1  0  0  0  0
 33 77  2  0  0  0  0
 34 61  1  0  0  0  0
 34 68  1  0  0  0  0
 34 78  2  0  0  0  0
 35 62  1  0  0  0  0
 35 73  1  0  0  0  0
 35 79  2  0  0  0  0
 36 69  1  0  0  0  0
 36 74  1  0  0  0  0
 36 80  2  0  0  0  0
 37 40  1  0  0  0  0
 38 47  1  0  0  0  0
 39 68  1  0  0  0  0
 40 42  1  0  0  0  0
 41 43  1  0  0  0  0
 41 44  1  0  0  0  0
 42 46  1  0  0  0  0
 43 48  1  0  0  0  0
 44 69  1  0  0  0  0
 45 48  1  0  0  0  0
 45 69  1  0  0  0  0
 46 72  1  0  0  0  0
 47 68  1  0  0  0  0
 48 67  1  0  0  0  0
 49 60  1  0  0  0  0
 50 62  1  0  0  0  0
 51 63  1  0  0  0  0
 52 63  1  0  0  0  0
 53 64  1  0  0  0  0
 54 64  1  0  0  0  0
 55 64  1  0  0  0  0
 56 75  1  0  0  0  0
 57 74  1  0  0  0  0
 58 63  1  0  0  0  0
 58 66  1  0  0  0  0
 59 60  1  0  0  0  0
 59 82  1  0  0  0  0
 61 64  1  0  0  0  0
 61 73  1  0  0  0  0
 62 75  1  0  0  0  0
 65 67  1  0  0  0  0
M  CHG  1  75   1
M  ISO  4  36 100  59 101  74 100  82 101
M  END
> <Batch ID>
0111

> <Smiles>
CNC(C)C(=O)NC(C(=O)N1Cc2cc([101O:1][101CH2:1]C(C)c3ccc(C[100NH:0][100C:0](=O)N4CCCC(n5nc(-c6ccc(Oc7ccc(F)cc7F)cc6)c(C(N)=O)c5N)C4)n3CC(C)C)ccc2CC1C(=O)NC1CCCc2ccccc21)C(C)(C)C

> <Shape>
0.233

> <Color>
0.086

> <Negative vol penalty>
0.000

$$$$

  -OEChem-04052320013D

 88 97  0     1  0  0  0  0  0999 V2000
  -16.7163  -28.2400   23.2895 C   0  0  0  0  0  0  0  0  0  0  0  0
  -17.7262  -27.5749   22.6015 C   0  0  0  0  0  0  0  0  0  0  0  0
  -23.6393  -13.6484   22.2427 C   0  0  0  0  0  0  0  0  0  0  0  0
  -24.8600  -12.2624   20.6852 C   0  0  0  0  0  0  0  0  0  0  0  0
  -17.0021  -29.4190   23.9766 C   0  0  0  0  0  0  0  0  0  0  0  0
  -19.0223  -28.0892   22.5993 C   0  0  0  0  0  0  0  0  0  0  0  0
  -24.2492  -24.8978   22.5736 C   0  0  0  0  0  0  0  0  0  0  0  0
  -28.9141  -24.1539   16.4639 C   0  0  0  0  0  0  0  0  0  0  0  0
  -22.6999  -12.6312   22.4116 C   0  0  0  0  0  0  0  0  0  0  0  0
  -23.9207  -11.2451   20.8542 C   0  0  0  0  0  0  0  0  0  0  0  0
  -25.1270  -24.5437   21.5499 C   0  0  0  0  0  0  0  0  0  0  0  0
  -23.2290   -8.8496   23.1353 C   0  0  0  0  0  0  0  0  0  0  0  0
  -23.7068   -7.5509   23.3108 C   0  0  0  0  0  0  0  0  0  0  0  0
  -27.9084  -24.3887   17.3949 C   0  0  0  0  0  0  0  0  0  0  0  0
  -26.5060  -26.4504   22.0813 C   0  0  0  0  0  0  0  0  0  0  0  0
  -22.5213   -6.8466   21.3270 C   0  0  0  0  0  0  0  0  0  0  0  0
  -24.7193  -13.4640   21.3794 C   0  0  0  0  0  0  0  0  0  0  0  0
  -26.8678  -14.7164   21.9475 C   0  0  0  0  0  0  0  0  0  0  0  0
  -18.3045  -29.9428   23.9908 C   0  0  0  0  0  0  0  0  0  0  0  0
  -24.4878  -26.0388   23.3530 C   0  0  0  0  0  0  0  0  0  0  0  0
  -19.3255  -29.2771   23.2861 C   0  0  0  0  0  0  0  0  0  0  0  0
  -25.6310  -26.8153   23.1159 C   0  0  0  0  0  0  0  0  0  0  0  0
  -29.8358  -23.1369   16.6860 C   0  0  0  0  0  0  0  0  0  0  0  0
  -22.8406  -11.4296   21.7175 C   0  0  0  0  0  0  0  0  0  0  0  0
  -26.2540  -25.3217   21.3018 C   0  0  0  0  0  0  0  0  0  0  0  0
  -22.3973   -9.1467   22.0556 C   0  0  0  0  0  0  0  0  0  0  0  0
  -23.3530   -6.5494   22.4067 C   0  0  0  0  0  0  0  0  0  0  0  0
  -22.0434   -8.1452   21.1515 C   0  0  0  0  0  0  0  0  0  0  0  0
  -25.6896  -14.5146   21.2039 C   0  0  0  0  0  0  0  0  0  0  0  0
  -29.7095  -22.3890   17.8455 C   0  0  0  0  0  0  0  0  0  0  0  0
  -27.8682  -23.5846   18.5226 C   0  0  0  0  0  0  0  0  0  0  0  0
  -27.4357  -15.8376   21.3935 C   0  0  0  0  0  0  0  0  0  0  0  0
  -27.4014  -13.9581   23.0411 C   0  0  0  0  0  0  0  0  0  0  0  0
  -22.9374  -28.7646   23.8729 C   0  0  0  0  0  0  0  0  0  0  0  0
  -25.2857  -29.2300   26.0618 C   0  0  0  0  0  0  0  0  0  0  0  0
  -28.4568  -28.5198   27.1043 C   0  0  0  0  0  0  0  0  0  0  0  0
  -27.0448  -18.1839   15.9900 C   0  0  0  0  0  0  0  0  0  0  0  0
  -18.5551  -31.2456   24.7082 C   0  0  0  0  0  0  0  0  0  0  0  0
  -23.5454  -26.3921   24.4709 C   0  0  0  0  0  0  0  0  0  0  0  0
  -25.9433  -28.0385   23.9373 C   0  0  0  0  0  0  0  0  0  0  0  0
  -20.0336  -31.5234   24.9676 C   0  0  0  0  0  0  0  0  0  0  0  0
  -26.2810  -19.8751   19.0971 C   0  0  0  0  0  0  0  0  0  0  0  0
  -20.8552  -31.2585   23.7099 C   0  0  0  0  0  0  0  0  0  0  0  0
  -30.4629  -20.4169   19.3346 C   0  0  0  0  0  0  0  0  0  0  0  0
  -31.5908  -21.4006   19.3160 C   0  0  0  0  0  0  0  0  0  0  0  0
  -26.1556  -18.6952   20.0627 C   0  0  0  0  0  0  0  0  0  0  0  0
  -25.7121  -19.5288   17.7243 C   0  0  0  0  0  0  0  0  0  0  0  0
  -26.1828  -17.1335   18.0627 C   0  0  0  0  0  0  0  0  0  0  0  0
  -20.7492  -29.7902   23.2808 C   0  0  1  0  0  0  0  0  0  0  0  0
  -30.6782  -21.2857   18.1252 C   0  0  0  0  0  0  0  0  0  0  0  0
  -23.6136  -27.8637   24.8673 C   0  0  1  0  0  0  0  0  0  0  0  0
  -26.7609  -17.4127   19.4619 C   0  0  2  0  0  0  0  0  0  0  0  0
  -30.1100  -29.0815   28.9067 C   0  0  0  0  0  0  0  0  0  0  0  0
  -30.8110  -23.8802   14.4818 C   0  0  0  0  0  0  0  0  0  0  0  0
  -32.3802  -23.0797   16.2214 C   0  0  0  0  0  0  0  0  0  0  0  0
  -25.8298  -31.9168   24.7221 C   0  0  0  0  0  0  0  0  0  0  0  0
  -28.0315  -31.9856   25.9121 C   0  0  0  0  0  0  0  0  0  0  0  0
  -25.9082  -31.9625   27.2213 C   0  0  0  0  0  0  0  0  0  0  0  0
  -28.5797  -25.7108   28.0278 C   0  0  0  0  0  0  0  0  0  0  0  0
  -26.7964  -23.8094   19.5483 C   0  0  0  0  0  0  0  0  0  1  0  0
  -27.8426  -19.3713   13.9625 C   0  0  0  0  0  0  0  0  0  0  0  0
  -29.3117  -19.7152   14.1227 C   0  0  0  0  0  0  0  0  0  0  0  0
  -30.8534  -21.4430   15.0590 C   0  0  0  0  0  0  0  0  0  0  0  0
  -26.6588  -29.8571   26.0397 C   0  0  1  0  0  0  0  0  0  0  0  0
  -29.0067  -28.1326   28.4652 C   0  0  2  0  0  0  0  0  0  0  0  0
  -30.9145  -22.8834   15.6900 C   0  0  0  0  0  0  0  0  0  0  0  0
  -26.6004  -31.4086   25.9569 C   0  0  0  0  0  0  0  0  0  0  0  0
  -25.5178  -15.4339   20.2504 N   0  0  0  0  0  0  0  0  0  0  0  0
  -28.7460  -22.5873   18.7728 N   0  0  0  0  0  0  0  0  0  0  0  0
  -26.5956  -16.2244   20.3910 N   0  0  0  0  0  0  0  0  0  0  0  0
  -24.9883  -28.3462   25.0148 N   0  0  0  0  0  0  0  0  0  0  0  0
  -26.3432  -18.3091   17.2005 N   0  0  0  0  0  0  0  0  0  0  0  0
  -28.5666  -16.5206   21.6709 N   0  0  0  0  0  0  0  0  0  0  0  0
  -26.6905  -12.8347   23.4849 N   0  0  0  0  0  0  0  0  0  0  0  0
  -21.5906  -28.9581   24.1139 N   0  0  0  0  0  0  0  0  0  0  0  0
  -27.3592  -29.3473   27.2136 N   0  0  0  0  0  0  0  0  0  0  0  0
  -27.1455  -19.3422   15.2291 N   0  0  0  0  0  0  0  0  0  0  0  0
  -29.5635  -26.7508   28.4248 N   0  3  0  0  0  0  0  0  0  0  0  0
  -29.4491  -21.0332   14.7982 N   0  3  0  0  0  0  0  0  0  0  0  0
  -28.4682  -14.2772   23.6187 O   0  0  0  0  0  0  0  0  0  0  0  0
  -23.5897  -29.2495   22.9557 O   0  0  0  0  0  0  0  0  0  0  0  0
  -24.5084  -29.5084   26.9782 O   0  0  0  0  0  0  0  0  0  0  0  0
  -28.9536  -28.1304   26.0497 O   0  0  0  0  0  0  0  0  0  0  0  0
  -27.5493  -17.1193   15.6170 O   0  0  0  0  0  0  0  0  0  0  0  0
  -21.9244  -10.4367   21.8823 O   0  0  0  0  0  0  0  0  0  0  0  0
  -27.1121  -24.9788   20.3028 O   0  0  0  0  0  0  0  0  0  1  0  0
  -23.8132   -5.3027   22.5745 F   0  0  0  0  0  0  0  0  0  0  0  0
  -21.2457   -8.4249   20.1117 F   0  0  0  0  0  0  0  0  0  0  0  0
  1  2  1  0  0  0  0
  1  5  2  0  0  0  0
  2  6  2  0  0  0  0
  3  9  2  0  0  0  0
  3 17  1  0  0  0  0
  4 10  1  0  0  0  0
  4 17  2  0  0  0  0
  5 19  1  0  0  0  0
  6 21  1  0  0  0  0
  7 11  2  0  0  0  0
  7 20  1  0  0  0  0
  8 14  2  0  0  0  0
  8 23  1  0  0  0  0
  9 24  1  0  0  0  0
 10 24  2  0  0  0  0
 11 25  1  0  0  0  0
 12 13  2  0  0  0  0
 12 26  1  0  0  0  0
 13 27  1  0  0  0  0
 14 31  1  0  0  0  0
 15 22  1  0  0  0  0
 15 25  2  0  0  0  0
 16 27  2  0  0  0  0
 16 28  1  0  0  0  0
 17 29  1  0  0  0  0
 18 29  1  0  0  0  0
 18 32  2  0  0  0  0
 18 33  1  0  0  0  0
 19 21  2  0  0  0  0
 19 38  1  0  0  0  0
 20 22  2  0  0  0  0
 20 39  1  0  0  0  0
 21 49  1  0  0  0  0
 22 40  1  0  0  0  0
 23 30  2  0  0  0  0
 23 66  1  0  0  0  0
 24 85  1  0  0  0  0
 25 86  1  0  0  0  0
 26 28  2  0  0  0  0
 26 85  1  0  0  0  0
 27 87  1  0  0  0  0
 28 88  1  0  0  0  0
 29 68  2  0  0  0  0
 30 50  1  0  0  0  0
 30 69  1  0  0  0  0
 31 60  1  0  0  0  0
 31 69  2  0  0  0  0
 32 70  1  0  0  0  0
 32 73  1  0  0  0  0
 33 74  1  0  0  0  0
 33 80  2  0  0  0  0
 34 51  1  0  0  0  0
 34 75  1  0  0  0  0
 34 81  2  0  0  0  0
 35 64  1  0  0  0  0
 35 71  1  0  0  0  0
 35 82  2  0  0  0  0
 36 65  1  0  0  0  0
 36 76  1  0  0  0  0
 36 83  2  0  0  0  0
 37 72  1  0  0  0  0
 37 77  1  0  0  0  0
 37 84  2  0  0  0  0
 38 41  1  0  0  0  0
 39 51  1  0  0  0  0
 40 71  1  0  0  0  0
 41 43  1  0  0  0  0
 42 46  1  0  0  0  0
 42 47  1  0  0  0  0
 43 49  1  0  0  0  0
 44 45  1  0  0  0  0
 44 50  1  0  0  0  0
 45 50  1  0  0  0  0
 46 52  1  0  0  0  0
 47 72  1  0  0  0  0
 48 52  1  0  0  0  0
 48 72  1  0  0  0  0
 49 75  1  0  0  0  0
 51 71  1  0  0  0  0
 52 70  1  0  0  0  0
 53 65  1  0  0  0  0
 54 66  1  0  0  0  0
 55 66  1  0  0  0  0
 56 67  1  0  0  0  0
 57 67  1  0  0  0  0
 58 67  1  0  0  0  0
 59 78  1  0  0  0  0
 60 86  1  0  0  0  0
 61 62  1  0  0  0  0
 61 77  1  0  0  0  0
 62 79  1  0  0  0  0
 63 66  1  0  0  0  0
 63 79  1  0  0  0  0
 64 67  1  0  0  0  0
 64 76  1  0  0  0  0
 65 78  1  0  0  0  0
 68 70  1  0  0  0  0
M  CHG  2  78   1  79   1
M  ISO  4  37 100  60 101  77 100  86 101
M  END
> <Batch ID>
0111

> <Smiles>
CNC(C)C(=O)NC(C(=O)N1Cc2cc([101O:1][101CH2:1]c3ccc(C(C)(C)CNCC[100NH:0][100C:0](=O)N4CCCC(n5nc(-c6ccc(Oc7ccc(F)cc7F)cc6)c(C(N)=O)c5N)C4)c(C4CC4)n3)ccc2CC1C(=O)NC1CCCc2ccccc21)C(C)(C)C

> <Shape>
0.205

> <Color>
0.071

> <Negative vol penalty>
0.000

$$$$

  -OEChem-04052320013D

 90 99  0     1  0  0  0  0  0999 V2000
  -17.1475  -27.5943   24.7260 C   0  0  0  0  0  0  0  0  0  0  0  0
  -17.9937  -26.6570   24.1422 C   0  0  0  0  0  0  0  0  0  0  0  0
  -24.6225   -8.9425   21.7975 C   0  0  0  0  0  0  0  0  0  0  0  0
  -23.0732   -9.8409   20.1758 C   0  0  0  0  0  0  0  0  0  0  0  0
  -17.2119  -28.9304   24.3327 C   0  0  0  0  0  0  0  0  0  0  0  0
  -18.9041  -27.0551   23.1639 C   0  0  0  0  0  0  0  0  0  0  0  0
  -23.5051  -25.0589   23.8643 C   0  0  0  0  0  0  0  0  0  0  0  0
  -23.5548   -8.4274   22.5323 C   0  0  0  0  0  0  0  0  0  0  0  0
  -22.0054   -9.3257   20.9107 C   0  0  0  0  0  0  0  0  0  0  0  0
  -23.6875  -23.7303   23.4831 C   0  0  0  0  0  0  0  0  0  0  0  0
  -21.4771   -5.7645   22.3746 C   0  0  0  0  0  0  0  0  0  0  0  0
  -21.5854   -4.4558   22.8451 C   0  0  0  0  0  0  0  0  0  0  0  0
  -24.7247  -24.4670   21.4335 C   0  0  0  0  0  0  0  0  0  0  0  0
  -27.8399  -21.6231   20.6837 C   0  0  0  0  0  0  0  0  0  0  0  0
  -21.3637   -5.2534   25.1148 C   0  0  0  0  0  0  0  0  0  0  0  0
  -28.8720  -20.8513   18.8373 C   0  0  0  0  0  0  0  0  0  0  0  0
  -24.3818   -9.6493   20.6192 C   0  0  0  0  0  0  0  0  0  0  0  0
  -26.1937   -9.5410   18.8268 C   0  0  0  0  0  0  0  0  0  0  0  0
  -18.1302  -29.3468   23.3560 C   0  0  0  0  0  0  0  0  0  0  0  0
  -23.9220  -26.1034   23.0266 C   0  0  0  0  0  0  0  0  0  0  0  0
  -18.9799  -28.3978   22.7562 C   0  0  0  0  0  0  0  0  0  0  0  0
  -24.5488  -25.8080   21.8075 C   0  0  0  0  0  0  0  0  0  0  0  0
  -28.9176  -21.8440   19.7911 C   0  0  0  0  0  0  0  0  0  0  0  0
  -22.2462   -8.6189   22.0889 C   0  0  0  0  0  0  0  0  0  0  0  0
  -24.2948  -23.4342   22.2663 C   0  0  0  0  0  0  0  0  0  0  0  0
  -21.3121   -6.8176   23.2743 C   0  0  0  0  0  0  0  0  0  0  0  0
  -21.5286   -4.2003   24.2152 C   0  0  0  0  0  0  0  0  0  0  0  0
  -21.2554   -6.5621   24.6444 C   0  0  0  0  0  0  0  0  0  0  0  0
  -25.4844  -10.1822   19.8600 C   0  0  0  0  0  0  0  0  0  0  0  0
  -27.1686  -20.5018   20.2484 C   0  0  0  0  0  0  0  0  0  0  0  0
  -27.1357  -10.4606   18.4350 C   0  0  0  0  0  0  0  0  0  0  0  0
  -26.0168   -8.2313   18.2708 C   0  0  0  0  0  0  0  0  0  0  0  0
  -22.4594  -28.4872   21.5159 C   0  0  0  0  0  0  0  0  0  0  0  0
  -25.4947  -29.3713   20.7893 C   0  0  0  0  0  0  0  0  0  0  0  0
  -28.7561  -28.4586   20.3685 C   0  0  0  0  0  0  0  0  0  0  0  0
  -27.0841  -16.4140   18.8566 C   0  0  0  0  0  0  0  0  0  0  0  0
  -18.1304  -30.7934   22.9295 C   0  0  0  0  0  0  0  0  0  0  0  0
  -23.7422  -27.5311   23.4644 C   0  0  0  0  0  0  0  0  0  0  0  0
  -25.0326  -26.8927   20.8813 C   0  0  0  0  0  0  0  0  0  0  0  0
  -19.3814  -31.2000   22.1549 C   0  0  0  0  0  0  0  0  0  0  0  0
  -33.0152  -22.4586   21.3867 C   0  0  0  0  0  0  0  0  0  0  0  0
  -29.7205  -14.1174   20.0647 C   0  0  0  0  0  0  0  0  0  0  0  0
  -19.7058  -30.1641   21.0832 C   0  0  0  0  0  0  0  0  0  0  0  0
  -31.6156  -21.8181   21.4908 C   0  0  0  0  0  0  0  0  0  0  0  0
  -32.3929  -23.4923   20.4253 C   0  0  0  0  0  0  0  0  0  0  0  0
  -28.9592  -12.7962   20.1085 C   0  0  0  0  0  0  0  0  0  0  0  0
  -28.8214  -15.3099   20.3878 C   0  0  0  0  0  0  0  0  0  0  0  0
  -26.8400  -14.0582   19.5738 C   0  0  0  0  0  0  0  0  0  0  0  0
  -19.9980  -28.7952   21.7094 C   0  0  1  0  0  0  0  0  0  0  0  0
  -23.7406  -28.5173   22.3004 C   0  0  1  0  0  0  0  0  0  0  0  0
  -31.3147  -22.4272   20.0965 C   0  0  0  0  0  0  0  0  0  0  0  0
  -27.7208  -12.8559   19.2020 C   0  0  2  0  0  0  0  0  0  0  0  0
  -23.4645  -18.0407   20.5124 C   0  0  0  0  0  0  0  0  0  0  0  0
  -30.9975  -29.3936   19.7368 C   0  0  0  0  0  0  0  0  0  0  0  0
  -24.6458  -29.4197   17.8589 C   0  0  0  0  0  0  0  0  0  0  0  0
  -27.0690  -29.4136   17.2292 C   0  0  0  0  0  0  0  0  0  0  0  0
  -26.1293  -31.3120   18.5467 C   0  0  0  0  0  0  0  0  0  0  0  0
  -28.4879  -25.4425   17.3168 C   0  0  0  0  0  0  0  0  0  0  0  0
  -29.9222  -27.7473   22.9940 C   0  0  0  0  0  0  0  0  0  0  0  0
  -25.9495  -19.8189   20.8214 C   0  0  0  0  0  0  0  0  0  0  0  0
  -23.4163  -19.5361   20.7945 C   0  0  0  0  0  0  0  0  0  0  0  0
  -29.9235  -23.8775   18.6316 C   0  0  0  0  0  0  0  0  0  0  0  0
  -24.4617  -21.8593   20.4921 C   0  0  0  0  0  0  0  0  0  1  0  0
  -27.4078  -18.8341   18.3199 C   0  0  0  0  0  0  0  0  0  0  0  0
  -29.9068  -22.9359   19.8674 C   0  0  1  0  0  0  0  0  0  0  0  0
  -26.4564  -29.0686   19.6657 C   0  0  1  0  0  0  0  0  0  0  0  0
  -30.0475  -29.0713   20.8797 C   0  0  2  0  0  0  0  0  0  0  0  0
  -24.6154  -20.3487   20.2526 C   0  0  1  0  0  0  0  0  0  0  0  0
  -26.0644  -29.7828   18.3415 C   0  0  0  0  0  0  0  0  0  0  0  0
  -25.9371  -11.4139   20.1090 N   0  0  0  0  0  0  0  0  0  0  0  0
  -27.8049  -20.0409   19.1255 N   0  0  0  0  0  0  0  0  0  0  0  0
  -26.9411  -11.5540   19.2267 N   0  0  0  0  0  0  0  0  0  0  0  0
  -24.8284  -28.2730   21.3511 N   0  0  0  0  0  0  0  0  0  0  0  0
  -27.6028  -15.3125   19.5629 N   0  0  0  0  0  0  0  0  0  0  0  0
  -28.1032  -10.4324   17.4939 N   0  0  0  0  0  0  0  0  0  0  0  0
  -25.0018   -7.4164   18.7904 N   0  0  0  0  0  0  0  0  0  0  0  0
  -21.3336  -28.7689   22.2661 N   0  0  0  0  0  0  0  0  0  0  0  0
  -27.7844  -29.4146   20.1608 N   0  0  0  0  0  0  0  0  0  0  0  0
  -27.8049  -17.5973   18.9742 N   0  0  0  0  0  0  0  0  0  0  0  0
  -28.5796  -24.4846   18.4511 N   0  3  0  0  0  0  0  0  0  0  0  0
  -30.7339  -28.1313   21.8104 N   0  3  0  0  0  0  0  0  0  0  0  0
  -26.7482   -7.7903   17.3521 O   0  0  0  0  0  0  0  0  0  0  0  0
  -22.4902  -28.2290   20.3184 O   0  0  0  0  0  0  0  0  0  0  0  0
  -25.3456  -30.5384   21.1598 O   0  0  0  0  0  0  0  0  0  0  0  0
  -28.6237  -27.2530   20.1695 O   0  0  0  0  0  0  0  0  0  0  0  0
  -26.0521  -16.3470   18.1804 O   0  0  0  0  0  0  0  0  0  0  0  0
  -21.2040   -8.1162   22.8056 O   0  0  0  0  0  0  0  0  0  0  0  0
  -24.4734  -22.1382   21.8915 O   0  0  0  0  0  0  0  0  0  1  0  0
  -21.6311   -2.9434   24.6667 F   0  0  0  0  0  0  0  0  0  0  0  0
  -21.0959   -7.5696   25.5134 F   0  0  0  0  0  0  0  0  0  0  0  0
  1  2  1  0  0  0  0
  1  5  2  0  0  0  0
  2  6  2  0  0  0  0
  3  8  2  0  0  0  0
  3 17  1  0  0  0  0
  4  9  1  0  0  0  0
  4 17  2  0  0  0  0
  5 19  1  0  0  0  0
  6 21  1  0  0  0  0
  7 10  2  0  0  0  0
  7 20  1  0  0  0  0
  8 24  1  0  0  0  0
  9 24  2  0  0  0  0
 10 25  1  0  0  0  0
 11 12  2  0  0  0  0
 11 26  1  0  0  0  0
 12 27  1  0  0  0  0
 13 22  1  0  0  0  0
 13 25  2  0  0  0  0
 14 23  1  0  0  0  0
 14 30  2  0  0  0  0
 15 27  2  0  0  0  0
 15 28  1  0  0  0  0
 16 23  2  0  0  0  0
 16 71  1  0  0  0  0
 17 29  1  0  0  0  0
 18 29  1  0  0  0  0
 18 31  2  0  0  0  0
 18 32  1  0  0  0  0
 19 21  2  0  0  0  0
 19 37  1  0  0  0  0
 20 22  2  0  0  0  0
 20 38  1  0  0  0  0
 21 49  1  0  0  0  0
 22 39  1  0  0  0  0
 23 65  1  0  0  0  0
 24 87  1  0  0  0  0
 25 88  1  0  0  0  0
 26 28  2  0  0  0  0
 26 87  1  0  0  0  0
 27 89  1  0  0  0  0
 28 90  1  0  0  0  0
 29 70  2  0  0  0  0
 30 60  1  0  0  0  0
 30 71  1  0  0  0  0
 31 72  1  0  0  0  0
 31 75  1  0  0  0  0
 32 76  1  0  0  0  0
 32 82  2  0  0  0  0
 33 50  1  0  0  0  0
 33 77  1  0  0  0  0
 33 83  2  0  0  0  0
 34 66  1  0  0  0  0
 34 73  1  0  0  0  0
 34 84  2  0  0  0  0
 35 67  1  0  0  0  0
 35 78  1  0  0  0  0
 35 85  2  0  0  0  0
 36 74  1  0  0  0  0
 36 79  1  0  0  0  0
 36 86  2  0  0  0  0
 37 40  1  0  0  0  0
 38 50  1  0  0  0  0
 39 73  1  0  0  0  0
 40 43  1  0  0  0  0
 41 44  1  0  0  0  0
 41 45  1  0  0  0  0
 42 46  1  0  0  0  0
 42 47  1  0  0  0  0
 43 49  1  0  0  0  0
 44 51  1  0  0  0  0
 45 51  1  0  0  0  0
 46 52  1  0  0  0  0
 47 74  1  0  0  0  0
 48 52  1  0  0  0  0
 48 74  1  0  0  0  0
 49 77  1  0  0  0  0
 50 73  1  0  0  0  0
 51 65  1  0  0  0  0
 52 72  1  0  0  0  0
 53 61  1  0  0  0  0
 54 67  1  0  0  0  0
 55 69  1  0  0  0  0
 56 69  1  0  0  0  0
 57 69  1  0  0  0  0
 58 80  1  0  0  0  0
 59 81  1  0  0  0  0
 60 68  1  0  0  0  0
 61 68  1  0  0  0  0
 62 65  1  0  0  0  0
 62 80  1  0  0  0  0
 63 68  1  0  0  0  0
 63 88  1  0  0  0  0
 64 71  1  0  0  0  0
 64 79  1  0  0  0  0
 66 69  1  0  0  0  0
 66 78  1  0  0  0  0
 67 81  1  0  0  0  0
 70 72  1  0  0  0  0
M  CHG  2  80   1  81   1
M  ISO  4  36 100  63 101  79 100  88 101
M  END
> <Batch ID>
0111

> <Smiles>
CCC(Cc1cc(C(CNC)C2CCC2)cn1C[100NH:0][100C:0](=O)N1CCCC(n2nc(-c3ccc(Oc4ccc(F)cc4F)cc3)c(C(N)=O)c2N)C1)[101CH2:1][101O:1]c1ccc2c(c1)CN(C(=O)C(NC(=O)C(C)NC)C(C)(C)C)C(C(=O)NC1CCCc3ccccc31)C2

> <Shape>
0.275

> <Color>
0.080

> <Negative vol penalty>
0.000

$$$$

  -OEChem-04052320013D

 81 88  0     1  0  0  0  0  0999 V2000
  -17.1814  -18.4127   18.7258 C   0  0  0  0  0  0  0  0  0  0  0  0
  -18.2368  -18.9119   19.4823 C   0  0  0  0  0  0  0  0  0  0  0  0
  -23.2766   -9.8087   19.9119 C   0  0  0  0  0  0  0  0  0  0  0  0
  -23.7295   -9.9406   22.2814 C   0  0  0  0  0  0  0  0  0  0  0  0
  -17.4185  -17.4353   17.7602 C   0  0  0  0  0  0  0  0  0  0  0  0
  -19.5298  -18.4331   19.2745 C   0  0  0  0  0  0  0  0  0  0  0  0
  -26.3676  -20.5610   19.4566 C   0  0  0  0  0  0  0  0  0  0  0  0
  -22.5389   -8.6430   20.1178 C   0  0  0  0  0  0  0  0  0  0  0  0
  -22.9917   -8.7749   22.4873 C   0  0  0  0  0  0  0  0  0  0  0  0
  -27.5940  -20.1985   20.0118 C   0  0  0  0  0  0  0  0  0  0  0  0
  -19.7359   -7.8953   22.7040 C   0  0  0  0  0  0  0  0  0  0  0  0
  -18.8337   -7.8805   23.7677 C   0  0  0  0  0  0  0  0  0  0  0  0
  -27.8969  -18.5663   18.2615 C   0  0  0  0  0  0  0  0  0  0  0  0
  -20.0216   -6.0198   24.7494 C   0  0  0  0  0  0  0  0  0  0  0  0
  -23.8720  -10.4575   20.9937 C   0  0  0  0  0  0  0  0  0  0  0  0
  -24.1561  -12.9852   20.7996 C   0  0  0  0  0  0  0  0  0  0  0  0
  -18.7166  -16.9512   17.5338 C   0  0  0  0  0  0  0  0  0  0  0  0
  -25.8908  -19.9203   18.3040 C   0  0  0  0  0  0  0  0  0  0  0  0
  -19.7843  -17.4473   18.3060 C   0  0  0  0  0  0  0  0  0  0  0  0
  -26.6653  -18.9243   17.6923 C   0  0  0  0  0  0  0  0  0  0  0  0
  -22.3964   -8.1261   21.4054 C   0  0  0  0  0  0  0  0  0  0  0  0
  -28.3576  -19.1989   19.4159 C   0  0  0  0  0  0  0  0  0  0  0  0
  -20.7810   -6.9723   22.6630 C   0  0  0  0  0  0  0  0  0  0  0  0
  -18.9765   -6.9428   24.7904 C   0  0  0  0  0  0  0  0  0  0  0  0
  -20.9238   -6.0346   23.6857 C   0  0  0  0  0  0  0  0  0  0  0  0
  -24.6347  -11.6614   20.7816 C   0  0  0  0  0  0  0  0  0  0  0  0
  -25.2650  -13.7547   20.5457 C   0  0  0  0  0  0  0  0  0  0  0  0
  -22.8278  -13.4754   21.0257 C   0  0  0  0  0  0  0  0  0  0  0  0
  -23.3468  -18.1433   17.6153 C   0  0  0  0  0  0  0  0  0  0  0  0
  -24.4994  -18.3601   14.5909 C   0  0  0  0  0  0  0  0  0  0  0  0
  -27.1811  -18.8662   12.5417 C   0  0  0  0  0  0  0  0  0  0  0  0
  -31.1278  -12.8528   21.3620 C   0  0  0  0  0  0  0  0  0  0  0  0
  -18.9165  -15.8602   16.5118 C   0  0  0  0  0  0  0  0  0  0  0  0
  -24.5782  -20.3415   17.7023 C   0  0  0  0  0  0  0  0  0  0  0  0
  -26.2077  -18.2198   16.4422 C   0  0  0  0  0  0  0  0  0  0  0  0
  -20.3733  -15.6761   16.0945 C   0  0  0  0  0  0  0  0  0  0  0  0
  -29.4853  -13.6139   18.2961 C   0  0  0  0  0  0  0  0  0  0  0  0
  -21.2804  -15.6483   17.3205 C   0  0  0  0  0  0  0  0  0  0  0  0
  -28.0127  -13.3192   18.5870 C   0  0  0  0  0  0  0  0  0  0  0  0
  -30.4091  -12.6241   19.0024 C   0  0  0  0  0  0  0  0  0  0  0  0
  -28.7189  -12.2081   20.7470 C   0  0  0  0  0  0  0  0  0  0  0  0
  -21.2048  -16.9709   18.0928 C   0  0  1  0  0  0  0  0  0  0  0  0
  -23.9524  -19.2654   16.8204 C   0  0  1  0  0  0  0  0  0  0  0  0
  -27.7505  -13.2140   20.1015 C   0  0  2  0  0  0  0  0  0  0  0  0
  -27.8194  -18.9461   10.1161 C   0  0  0  0  0  0  0  0  0  0  0  0
  -31.5105  -17.7839   26.0546 C   0  0  0  0  0  0  0  0  0  0  0  0
  -33.6828  -18.1583   24.8236 C   0  0  0  0  0  0  0  0  0  0  0  0
  -24.3882  -15.3136   14.4638 C   0  0  0  0  0  0  0  0  0  0  0  0
  -25.8868  -15.4120   12.4606 C   0  0  0  0  0  0  0  0  0  0  0  0
  -23.6305  -16.4729   12.3814 C   0  0  0  0  0  0  0  0  0  0  0  0
  -28.0516  -21.6876   12.7441 C   0  0  0  0  0  0  0  0  0  0  0  0
  -32.2687  -14.4666   23.6981 C   0  0  0  0  0  0  0  0  0  0  0  0
  -30.6874  -17.9369   21.8665 C   0  0  0  0  0  0  0  0  0  0  0  0
  -31.6924  -13.0567   23.7700 C   0  0  0  0  0  0  0  0  0  0  0  0
  -31.1914  -15.5373   23.8153 C   0  0  0  0  0  0  0  0  0  0  0  0
  -30.9097  -17.9712   23.3710 C   0  0  0  0  0  0  0  0  0  0  0  0
  -29.6971  -18.9826   21.3690 C   0  0  0  0  0  0  0  0  0  1  0  0
  -25.4601  -17.5521   13.7524 C   0  0  1  0  0  0  0  0  0  0  0  0
  -27.3642  -19.7522   11.3227 C   0  0  2  0  0  0  0  0  0  0  0  0
  -32.5339  -17.2001   25.0939 C   0  0  0  0  0  0  0  0  0  0  0  0
  -24.8494  -16.1994   13.2892 C   0  0  0  0  0  0  0  0  0  0  0  0
  -25.9456  -11.5904   20.5356 N   0  0  0  0  0  0  0  0  0  0  0  0
  -26.3001  -12.8792   20.3965 N   0  0  0  0  0  0  0  0  0  0  0  0
  -24.9144  -18.6628   15.8954 N   0  0  0  0  0  0  0  0  0  0  0  0
  -30.1098  -12.5730   20.4354 N   0  0  0  0  0  0  0  0  0  0  0  0
  -25.4460  -15.0881   20.4376 N   0  0  0  0  0  0  0  0  0  0  0  0
  -21.8062  -12.5480   21.2718 N   0  0  0  0  0  0  0  0  0  0  0  0
  -21.9865  -17.9906   17.4267 N   0  0  0  0  0  0  0  0  0  0  0  0
  -25.8808  -18.4230   12.6602 N   0  0  0  0  0  0  0  0  0  0  0  0
  -30.7578  -12.7885   22.6998 N   0  0  0  0  0  0  0  0  0  0  0  0
  -28.3829  -20.8051   11.5959 N   0  3  0  0  0  0  0  0  0  0  0  0
  -31.8441  -16.8984   23.7851 N   0  3  1  0  0  0  0  0  0  0  0  0
  -22.5519  -14.6987   20.9936 O   0  0  0  0  0  0  0  0  0  0  0  0
  -24.0611  -17.4653   18.3445 O   0  0  0  0  0  0  0  0  0  0  0  0
  -23.4234  -18.7160   14.1038 O   0  0  0  0  0  0  0  0  0  0  0  0
  -28.1004  -18.5916   13.3097 O   0  0  0  0  0  0  0  0  0  0  0  0
  -32.2795  -13.1440   21.0220 O   0  0  0  0  0  0  0  0  0  0  0  0
  -21.6763   -6.9887   21.6067 O   0  0  0  0  0  0  0  0  0  0  0  0
  -29.5547  -18.8427   19.9561 O   0  0  0  0  0  0  0  0  0  1  0  0
  -18.1110   -6.9298   25.8125 F   0  0  0  0  0  0  0  0  0  0  0  0
  -21.9265   -5.1461   23.6524 F   0  0  0  0  0  0  0  0  0  0  0  0
  1  2  1  0  0  0  0
  1  5  2  0  0  0  0
  2  6  2  0  0  0  0
  3  8  2  0  0  0  0
  3 15  1  0  0  0  0
  4  9  1  0  0  0  0
  4 15  2  0  0  0  0
  5 17  1  0  0  0  0
  6 19  1  0  0  0  0
  7 10  2  0  0  0  0
  7 18  1  0  0  0  0
  8 21  1  0  0  0  0
  9 21  2  0  0  0  0
 10 22  1  0  0  0  0
 11 12  2  0  0  0  0
 11 23  1  0  0  0  0
 12 24  1  0  0  0  0
 13 20  1  0  0  0  0
 13 22  2  0  0  0  0
 14 24  2  0  0  0  0
 14 25  1  0  0  0  0
 15 26  1  0  0  0  0
 16 26  1  0  0  0  0
 16 27  2  0  0  0  0
 16 28  1  0  0  0  0
 17 19  2  0  0  0  0
 17 33  1  0  0  0  0
 18 20  2  0  0  0  0
 18 34  1  0  0  0  0
 19 42  1  0  0  0  0
 20 35  1  0  0  0  0
 21 78  1  0  0  0  0
 22 79  1  0  0  0  0
 23 25  2  0  0  0  0
 23 78  1  0  0  0  0
 24 80  1  0  0  0  0
 25 81  1  0  0  0  0
 26 62  2  0  0  0  0
 27 63  1  0  0  0  0
 27 66  1  0  0  0  0
 28 67  1  0  0  0  0
 28 73  2  0  0  0  0
 29 43  1  0  0  0  0
 29 68  1  0  0  0  0
 29 74  2  0  0  0  0
 30 58  1  0  0  0  0
 30 64  1  0  0  0  0
 30 75  2  0  0  0  0
 31 59  1  0  0  0  0
 31 69  1  0  0  0  0
 31 76  2  0  0  0  0
 32 65  1  0  0  0  0
 32 70  1  0  0  0  0
 32 77  2  0  0  0  0
 33 36  1  0  0  0  0
 34 43  1  0  0  0  0
 35 64  1  0  0  0  0
 36 38  1  0  0  0  0
 37 39  1  0  0  0  0
 37 40  1  0  0  0  0
 38 42  1  0  0  0  0
 39 44  1  0  0  0  0
 40 65  1  0  0  0  0
 41 44  1  0  0  0  0
 41 65  1  0  0  0  0
 42 68  1  0  0  0  0
 43 64  1  0  0  0  0
 44 63  1  0  0  0  0
 45 59  1  0  0  0  0
 46 60  1  0  0  0  0
 47 60  1  0  0  0  0
 48 61  1  0  0  0  0
 49 61  1  0  0  0  0
 50 61  1  0  0  0  0
 51 71  1  0  0  0  0
 52 54  1  0  0  0  0
 52 55  1  0  0  0  0
 53 56  1  0  0  0  0
 53 57  1  0  0  0  0
 54 70  1  0  0  0  0
 55 72  1  0  0  0  0
 56 72  1  0  0  0  0
 57 79  1  0  0  0  0
 58 61  1  0  0  0  0
 58 69  1  0  0  0  0
 59 71  1  0  0  0  0
 60 72  1  0  0  0  0
 62 63  1  0  0  0  0
M  CHG  2  71   1  72   1
M  ISO  4  32 100  57 101  70 100  79 101
M  END
> <Batch ID>
0111

> <Smiles>
CNC(C)C(=O)NC(C(=O)N1Cc2cc([101O:1][101CH2:1]CCN(CCC[100NH:0][100C:0](=O)N3CCCC(n4nc(-c5ccc(Oc6ccc(F)cc6F)cc5)c(C(N)=O)c4N)C3)C(C)C)ccc2CC1C(=O)NC1CCCc2ccccc21)C(C)(C)C

> <Shape>
0.178

> <Color>
0.179

> <Negative vol penalty>
0.000

$$$$

  -OEChem-04052320013D

 90 99  0     1  0  0  0  0  0999 V2000
  -28.3470  -31.9394   25.5686 C   0  0  0  0  0  0  0  0  0  0  0  0
  -28.7352  -30.9508   24.6700 C   0  0  0  0  0  0  0  0  0  0  0  0
  -23.0633   -9.8106   19.9565 C   0  0  0  0  0  0  0  0  0  0  0  0
  -23.6263   -9.9533   22.3016 C   0  0  0  0  0  0  0  0  0  0  0  0
  -27.7145  -33.0920   25.1046 C   0  0  0  0  0  0  0  0  0  0  0  0
  -28.4900  -31.1138   23.3070 C   0  0  0  0  0  0  0  0  0  0  0  0
  -32.4794  -29.8580   20.4517 C   0  0  0  0  0  0  0  0  0  0  0  0
  -22.2926   -8.6761   20.2106 C   0  0  0  0  0  0  0  0  0  0  0  0
  -22.8555   -8.8189   22.5557 C   0  0  0  0  0  0  0  0  0  0  0  0
  -32.7088  -28.4991   20.2406 C   0  0  0  0  0  0  0  0  0  0  0  0
  -23.1683   -5.4688   22.2239 C   0  0  0  0  0  0  0  0  0  0  0  0
  -23.7133   -4.4871   23.0514 C   0  0  0  0  0  0  0  0  0  0  0  0
  -31.6746  -28.6683   18.0678 C   0  0  0  0  0  0  0  0  0  0  0  0
  -32.3697  -20.9923   19.9964 C   0  0  0  0  0  0  0  0  0  0  0  0
  -21.8748   -4.7664   24.5938 C   0  0  0  0  0  0  0  0  0  0  0  0
  -30.1632  -21.7098   20.5186 C   0  0  0  0  0  0  0  0  0  0  0  0
  -23.7303  -10.4491   21.0020 C   0  0  0  0  0  0  0  0  0  0  0  0
  -24.0995  -12.9618   20.7613 C   0  0  0  0  0  0  0  0  0  0  0  0
  -27.4701  -33.2736   23.7343 C   0  0  0  0  0  0  0  0  0  0  0  0
  -31.8350  -30.6312   19.4753 C   0  0  0  0  0  0  0  0  0  0  0  0
  -27.8524  -32.2693   22.8245 C   0  0  0  0  0  0  0  0  0  0  0  0
  -31.4405  -30.0374   18.2679 C   0  0  0  0  0  0  0  0  0  0  0  0
  -31.5144  -22.0016   20.4243 C   0  0  0  0  0  0  0  0  0  0  0  0
  -31.8550  -19.7399   19.6803 C   0  0  0  0  0  0  0  0  0  0  0  0
  -22.1886   -8.1803   21.5102 C   0  0  0  0  0  0  0  0  0  0  0  0
  -32.3038  -27.9035   19.0497 C   0  0  0  0  0  0  0  0  0  0  0  0
  -21.9766   -6.0995   22.5814 C   0  0  0  0  0  0  0  0  0  0  0  0
  -23.0666   -4.1358   24.2363 C   0  0  0  0  0  0  0  0  0  0  0  0
  -21.3299   -5.7483   23.7663 C   0  0  0  0  0  0  0  0  0  0  0  0
  -24.5271  -11.6207   20.7401 C   0  0  0  0  0  0  0  0  0  0  0  0
  -30.4886  -19.5494   19.8082 C   0  0  0  0  0  0  0  0  0  0  0  0
  -25.2239  -13.6857   20.4482 C   0  0  0  0  0  0  0  0  0  0  0  0
  -22.8019  -13.5046   21.0393 C   0  0  0  0  0  0  0  0  0  0  0  0
  -29.1298  -32.2961   19.3574 C   0  0  0  0  0  0  0  0  0  0  0  0
  -30.2639  -33.1920   16.4534 C   0  0  0  0  0  0  0  0  0  0  0  0
  -32.2857  -32.4985   13.7928 C   0  0  0  0  0  0  0  0  0  0  0  0
  -30.6872  -14.4244   21.5521 C   0  0  0  0  0  0  0  0  0  0  0  0
  -26.7409  -34.5151   23.2851 C   0  0  0  0  0  0  0  0  0  0  0  0
  -31.6190  -32.1016   19.7073 C   0  0  0  0  0  0  0  0  0  0  0  0
  -30.7630  -30.8279   17.1795 C   0  0  0  0  0  0  0  0  0  0  0  0
  -26.8545  -34.7794   21.7860 C   0  0  0  0  0  0  0  0  0  0  0  0
  -29.7264  -12.2060   18.7029 C   0  0  0  0  0  0  0  0  0  0  0  0
  -26.5916  -33.5007   20.9970 C   0  0  0  0  0  0  0  0  0  0  0  0
  -28.2608  -11.9244   19.0331 C   0  0  0  0  0  0  0  0  0  0  0  0
  -32.9344  -16.5955   22.4399 C   0  0  0  0  0  0  0  0  0  0  0  0
  -30.5335  -12.4712   19.9677 C   0  0  0  0  0  0  0  0  0  0  0  0
  -32.9997  -15.1221   22.0445 C   0  0  0  0  0  0  0  0  0  0  0  0
  -32.2864  -14.9489   19.6499 C   0  0  0  0  0  0  0  0  0  0  0  0
  -28.5289  -13.2999   21.1485 C   0  0  0  0  0  0  0  0  0  0  0  0
  -33.4026  -17.5803   21.3772 C   0  0  0  0  0  0  0  0  0  0  0  0
  -33.1345  -16.1704   19.3087 C   0  0  0  0  0  0  0  0  0  0  0  0
  -27.6261  -32.4207   21.3358 C   0  0  1  0  0  0  0  0  0  0  0  0
  -30.4931  -32.6816   18.8568 C   0  0  1  0  0  0  0  0  0  0  0  0
  -27.6650  -13.0460   19.9017 C   0  0  2  0  0  0  0  0  0  0  0  0
  -34.2394  -19.0640   19.1797 C   0  0  0  0  0  0  0  0  0  0  0  0
  -32.9723  -33.3985   11.5532 C   0  0  0  0  0  0  0  0  0  0  0  0
  -27.6081  -32.2668   15.2700 C   0  0  0  0  0  0  0  0  0  0  0  0
  -28.6858  -32.2920   13.0104 C   0  0  0  0  0  0  0  0  0  0  0  0
  -28.4852  -34.4067   14.3182 C   0  0  0  0  0  0  0  0  0  0  0  0
  -35.1163  -32.7315   14.6248 C   0  0  0  0  0  0  0  0  0  0  0  0
  -28.5338  -18.2032   19.6586 C   0  0  0  0  0  0  0  0  0  0  0  0
  -32.0336  -23.3521   20.7684 C   0  0  0  0  0  0  0  0  0  0  0  0
  -32.0751  -24.3379   19.5878 C   0  0  0  0  0  0  0  0  0  0  0  0
  -32.5419  -25.7320   19.9900 C   0  0  0  0  0  0  0  0  0  1  0  0
  -32.7749  -18.6346   19.2153 C   0  0  1  0  0  0  0  0  0  0  0  0
  -30.1515  -32.6511   15.0485 C   0  0  1  0  0  0  0  0  0  0  0  0
  -33.2887  -33.3539   13.0400 C   0  0  2  0  0  0  0  0  0  0  0  0
  -28.7437  -32.8886   14.4329 C   0  0  0  0  0  0  0  0  0  0  0  0
  -29.6263  -20.5055   20.2205 N   0  0  0  0  0  0  0  0  0  0  0  0
  -25.8221  -11.4972   20.4372 N   0  0  0  0  0  0  0  0  0  0  0  0
  -26.2179  -12.7699   20.2652 N   0  0  0  0  0  0  0  0  0  0  0  0
  -30.5684  -32.2607   17.4563 N   0  0  0  0  0  0  0  0  0  0  0  0
  -29.9273  -13.5311   20.7816 N   0  0  0  0  0  0  0  0  0  0  0  0
  -31.9688  -14.7618   21.0708 N   0  0  0  0  0  0  0  0  0  0  0  0
  -25.4495  -15.0099   20.3141 N   0  0  0  0  0  0  0  0  0  0  0  0
  -21.7584  -12.6196   21.3429 N   0  0  0  0  0  0  0  0  0  0  0  0
  -28.8765  -32.6882   20.6580 N   0  0  0  0  0  0  0  0  0  0  0  0
  -31.2440  -33.2522   14.2910 N   0  0  0  0  0  0  0  0  0  0  0  0
  -32.6709  -17.3938   20.0670 N   0  3  2  0  0  0  0  0  0  0  0  0
  -34.6654  -32.8096   13.2114 N   0  3  0  0  0  0  0  0  0  0  0  0
  -22.5706  -14.7370   21.0030 O   0  0  0  0  0  0  0  0  0  0  0  0
  -28.3640  -31.6892   18.6180 O   0  0  0  0  0  0  0  0  0  0  0  0
  -30.0951  -34.3976   16.6525 O   0  0  0  0  0  0  0  0  0  0  0  0
  -32.4115  -31.2828   13.9225 O   0  0  0  0  0  0  0  0  0  0  0  0
  -30.2358  -14.9119   22.5966 O   0  0  0  0  0  0  0  0  0  0  0  0
  -21.4364   -7.0735   21.7585 O   0  0  0  0  0  0  0  0  0  0  0  0
  -32.5274  -26.5678   18.8398 O   0  0  0  0  0  0  0  0  0  1  0  0
  -29.9423  -18.3293   19.5050 O   0  0  0  0  0  0  0  0  0  0  0  0
  -23.5892   -3.1919   25.0300 F   0  0  0  0  0  0  0  0  0  0  0  0
  -20.1841   -6.3498   24.1145 F   0  0  0  0  0  0  0  0  0  0  0  0
  1  2  1  0  0  0  0
  1  5  2  0  0  0  0
  2  6  2  0  0  0  0
  3  8  2  0  0  0  0
  3 17  1  0  0  0  0
  4  9  1  0  0  0  0
  4 17  2  0  0  0  0
  5 19  1  0  0  0  0
  6 21  1  0  0  0  0
  7 10  2  0  0  0  0
  7 20  1  0  0  0  0
  8 25  1  0  0  0  0
  9 25  2  0  0  0  0
 10 26  1  0  0  0  0
 11 12  2  0  0  0  0
 11 27  1  0  0  0  0
 12 28  1  0  0  0  0
 13 22  1  0  0  0  0
 13 26  2  0  0  0  0
 14 23  2  0  0  0  0
 14 24  1  0  0  0  0
 15 28  2  0  0  0  0
 15 29  1  0  0  0  0
 16 23  1  0  0  0  0
 16 69  2  0  0  0  0
 17 30  1  0  0  0  0
 18 30  1  0  0  0  0
 18 32  2  0  0  0  0
 18 33  1  0  0  0  0
 19 21  2  0  0  0  0
 19 38  1  0  0  0  0
 20 22  2  0  0  0  0
 20 39  1  0  0  0  0
 21 52  1  0  0  0  0
 22 40  1  0  0  0  0
 23 62  1  0  0  0  0
 24 31  2  0  0  0  0
 24 65  1  0  0  0  0
 25 86  1  0  0  0  0
 26 87  1  0  0  0  0
 27 29  2  0  0  0  0
 27 86  1  0  0  0  0
 28 89  1  0  0  0  0
 29 90  1  0  0  0  0
 30 70  2  0  0  0  0
 31 69  1  0  0  0  0
 31 88  1  0  0  0  0
 32 71  1  0  0  0  0
 32 75  1  0  0  0  0
 33 76  1  0  0  0  0
 33 81  2  0  0  0  0
 34 53  1  0  0  0  0
 34 77  1  0  0  0  0
 34 82  2  0  0  0  0
 35 66  1  0  0  0  0
 35 72  1  0  0  0  0
 35 83  2  0  0  0  0
 36 67  1  0  0  0  0
 36 78  1  0  0  0  0
 36 84  2  0  0  0  0
 37 73  1  0  0  0  0
 37 74  1  0  0  0  0
 37 85  2  0  0  0  0
 38 41  1  0  0  0  0
 39 53  1  0  0  0  0
 40 72  1  0  0  0  0
 41 43  1  0  0  0  0
 42 44  1  0  0  0  0
 42 46  1  0  0  0  0
 43 52  1  0  0  0  0
 44 54  1  0  0  0  0
 45 47  1  0  0  0  0
 45 50  1  0  0  0  0
 46 73  1  0  0  0  0
 47 74  1  0  0  0  0
 48 51  1  0  0  0  0
 48 74  1  0  0  0  0
 49 54  1  0  0  0  0
 49 73  1  0  0  0  0
 50 79  1  0  0  0  0
 51 79  1  0  0  0  0
 52 77  1  0  0  0  0
 53 72  1  0  0  0  0
 54 71  1  0  0  0  0
 55 65  1  0  0  0  0
 56 67  1  0  0  0  0
 57 68  1  0  0  0  0
 58 68  1  0  0  0  0
 59 68  1  0  0  0  0
 60 80  1  0  0  0  0
 61 88  1  0  0  0  0
 62 63  1  0  0  0  0
 63 64  1  0  0  0  0
 64 87  1  0  0  0  0
 65 79  1  0  0  0  0
 66 68  1  0  0  0  0
 66 78  1  0  0  0  0
 67 80  1  0  0  0  0
 70 71  1  0  0  0  0
M  CHG  2  79   1  80   1
M  ISO  4  37 100  64 101  74 100  87 101
M  END
> <Batch ID>
0111

> <Smiles>
CNC(C)C(=O)NC(C(=O)N1Cc2cc([101O:1][101CH2:1]CCc3cnc(OC)c(C(C)N4CCC[100N:0]([100C:0](=O)N5CCCC(n6nc(-c7ccc(Oc8ccc(F)cc8F)cc7)c(C(N)=O)c6N)C5)CC4)c3)ccc2CC1C(=O)NC1CCCc2ccccc21)C(C)(C)C

> <Shape>
0.234

> <Color>
0.200

> <Negative vol penalty>
0.000

$$$$

  -OEChem-04052320013D

 86 94  0     1  0  0  0  0  0999 V2000
  -30.9861  -24.7549   22.8230 C   0  0  0  0  0  0  0  0  0  0  0  0
  -30.7075  -23.5043   22.2811 C   0  0  0  0  0  0  0  0  0  0  0  0
  -27.6807  -25.9275   17.6790 C   0  0  0  0  0  0  0  0  0  0  0  0
  -27.5358  -25.5416   20.0596 C   0  0  0  0  0  0  0  0  0  0  0  0
  -30.2914  -25.1961   23.9484 C   0  0  0  0  0  0  0  0  0  0  0  0
  -29.7348  -22.6936   22.8650 C   0  0  0  0  0  0  0  0  0  0  0  0
  -25.9264  -18.8575   19.9863 C   0  0  0  0  0  0  0  0  0  0  0  0
  -26.5635  -26.7599   17.7459 C   0  0  0  0  0  0  0  0  0  0  0  0
  -26.4186  -26.3742   20.1265 C   0  0  0  0  0  0  0  0  0  0  0  0
  -25.9642  -17.4797   19.7769 C   0  0  0  0  0  0  0  0  0  0  0  0
  -25.7872  -29.6938   20.1737 C   0  0  0  0  0  0  0  0  0  0  0  0
  -25.7381  -30.6279   21.2084 C   0  0  0  0  0  0  0  0  0  0  0  0
  -24.5461  -17.1545   21.7010 C   0  0  0  0  0  0  0  0  0  0  0  0
  -23.6980  -29.6204   22.0210 C   0  0  0  0  0  0  0  0  0  0  0  0
  -28.1668  -25.3183   18.8359 C   0  0  0  0  0  0  0  0  0  0  0  0
  -30.6700  -24.8322   18.9103 C   0  0  0  0  0  0  0  0  0  0  0  0
  -29.3028  -24.3945   24.5407 C   0  0  0  0  0  0  0  0  0  0  0  0
  -25.2059  -19.3944   21.0628 C   0  0  0  0  0  0  0  0  0  0  0  0
  -29.0271  -23.1240   24.0002 C   0  0  0  0  0  0  0  0  0  0  0  0
  -24.4986  -18.5397   21.9204 C   0  0  0  0  0  0  0  0  0  0  0  0
  -25.9324  -26.9833   18.9696 C   0  0  0  0  0  0  0  0  0  0  0  0
  -25.2764  -16.6277   20.6360 C   0  0  0  0  0  0  0  0  0  0  0  0
  -24.7918  -28.7230   20.0626 C   0  0  0  0  0  0  0  0  0  0  0  0
  -24.6935  -30.5912   22.1321 C   0  0  0  0  0  0  0  0  0  0  0  0
  -23.7472  -28.6863   20.9863 C   0  0  0  0  0  0  0  0  0  0  0  0
  -29.3205  -24.4578   18.7673 C   0  0  0  0  0  0  0  0  0  0  0  0
  -31.3692  -23.6591   18.7636 C   0  0  0  0  0  0  0  0  0  0  0  0
  -28.6713  -13.3009   21.9771 C   0  0  0  0  0  0  0  0  0  0  0  0
  -27.3668  -13.3148   21.6732 C   0  0  0  0  0  0  0  0  0  0  0  0
  -31.2405  -26.1248   19.1541 C   0  0  0  0  0  0  0  0  0  0  0  0
  -25.9584  -21.0979   23.6388 C   0  0  0  0  0  0  0  0  0  0  0  0
  -22.7401  -21.1995   24.0326 C   0  0  0  0  0  0  0  0  0  0  0  0
  -19.6988  -19.7827   23.4083 C   0  0  0  0  0  0  0  0  0  0  0  0
  -29.8601  -18.0336   19.7288 C   0  0  0  0  0  0  0  0  0  0  0  0
  -28.6115  -24.8946   25.7843 C   0  0  0  0  0  0  0  0  0  0  0  0
  -25.1532  -20.8847   21.2593 C   0  0  0  0  0  0  0  0  0  0  0  0
  -23.6936  -19.0672   23.0789 C   0  0  0  0  0  0  0  0  0  0  0  0
  -29.1864  -13.3264   23.3910 C   0  0  0  0  0  0  0  0  0  0  0  0
  -27.3330  -24.1308   26.1194 C   0  0  0  0  0  0  0  0  0  0  0  0
  -30.6389  -12.8981   23.2447 C   0  0  0  0  0  0  0  0  0  0  0  0
  -31.1118  -19.3897   16.6157 C   0  0  0  0  0  0  0  0  0  0  0  0
  -27.5672  -22.6269   26.0170 C   0  0  0  0  0  0  0  0  0  0  0  0
  -30.9179  -20.8908   16.8380 C   0  0  0  0  0  0  0  0  0  0  0  0
  -31.0467  -13.4669   21.8918 C   0  0  0  0  0  0  0  0  0  0  0  0
  -29.9649  -18.5881   17.2240 C   0  0  0  0  0  0  0  0  0  0  0  0
  -29.5389  -20.3462   18.8976 C   0  0  0  0  0  0  0  0  0  0  0  0
  -27.9615  -22.2260   24.5903 C   0  0  1  0  0  0  0  0  0  0  0  0
  -24.8088  -21.2870   22.6900 C   0  0  1  0  0  0  0  0  0  0  0  0
  -30.6772  -21.2105   18.3253 C   0  0  2  0  0  0  0  0  0  0  0  0
  -29.8218  -13.2337   20.9836 C   0  0  2  0  0  0  0  0  0  0  0  0
  -17.2539  -20.0719   23.8943 C   0  0  0  0  0  0  0  0  0  0  0  0
  -31.3246  -11.5196   19.9232 C   0  0  0  0  0  0  0  0  0  0  0  0
  -29.3381  -10.7833   21.2705 C   0  0  0  0  0  0  0  0  0  0  0  0
  -25.3690  -12.5828   20.4100 C   0  0  0  0  0  0  0  0  0  0  0  0
  -27.5716  -12.5491   19.2306 C   0  0  0  0  0  0  0  0  0  0  0  0
  -23.1776  -20.1307   26.8568 C   0  0  0  0  0  0  0  0  0  0  0  0
  -20.7435  -19.5506   26.9394 C   0  0  0  0  0  0  0  0  0  0  0  0
  -21.4489  -21.9290   26.6781 C   0  0  0  0  0  0  0  0  0  0  0  0
  -19.0455  -20.0870   20.5378 C   0  0  0  0  0  0  0  0  0  0  0  0
  -29.7513  -14.3153   19.8987 C   0  0  0  0  0  0  0  0  0  0  0  0
  -30.1999  -15.6722   20.4111 C   0  0  0  0  0  0  0  0  0  0  0  0
  -26.4886  -14.7473   19.8294 C   0  0  0  0  0  0  0  0  0  1  0  0
  -21.7212  -20.3348   24.7348 C   0  0  1  0  0  0  0  0  0  0  0  0
  -18.3882  -20.3808   22.9296 C   0  0  2  0  0  0  0  0  0  0  0  0
  -29.8905  -11.8453   20.3261 C   0  0  0  0  0  0  0  0  0  0  0  0
  -26.7316  -13.2919   20.2890 C   0  0  0  0  0  0  0  0  0  0  0  0
  -21.7895  -20.4759   26.2817 C   0  0  0  0  0  0  0  0  0  0  0  0
  -29.1690  -23.1492   18.5465 N   0  0  0  0  0  0  0  0  0  0  0  0
  -30.4325  -22.6911   18.5497 N   0  0  0  0  0  0  0  0  0  0  0  0
  -23.6782  -20.5312   23.2330 N   0  0  0  0  0  0  0  0  0  0  0  0
  -29.8007  -18.9254   18.6450 N   0  0  0  0  0  0  0  0  0  0  0  0
  -32.6877  -23.3715   18.7980 N   0  0  0  0  0  0  0  0  0  0  0  0
  -30.3785  -27.2228   19.2788 N   0  0  0  0  0  0  0  0  0  0  0  0
  -26.7954  -22.1932   23.7339 N   0  0  0  0  0  0  0  0  0  0  0  0
  -20.4260  -20.6815   24.1597 N   0  0  0  0  0  0  0  0  0  0  0  0
  -30.1051  -16.7051   19.4035 N   0  0  0  0  0  0  0  0  0  0  0  0
  -18.0281  -19.8346   21.5905 N   0  3  0  0  0  0  0  0  0  0  0  0
  -32.4790  -26.3035   19.2419 O   0  0  0  0  0  0  0  0  0  0  0  0
  -26.0764  -20.0372   24.2412 O   0  0  0  0  0  0  0  0  0  0  0  0
  -22.7007  -22.4233   24.1822 O   0  0  0  0  0  0  0  0  0  0  0  0
  -20.0413  -18.6321   23.1453 O   0  0  0  0  0  0  0  0  0  0  0  0
  -29.7112  -18.3955   20.9010 O   0  0  0  0  0  0  0  0  0  0  0  0
  -24.8424  -27.7958   19.0353 O   0  0  0  0  0  0  0  0  0  0  0  0
  -25.3121  -15.2824   20.4343 O   0  0  0  0  0  0  0  0  0  1  0  0
  -24.6472  -31.4874   23.1265 F   0  0  0  0  0  0  0  0  0  0  0  0
  -22.7886  -27.7553   20.8854 F   0  0  0  0  0  0  0  0  0  0  0  0
  1  2  1  0  0  0  0
  1  5  2  0  0  0  0
  2  6  2  0  0  0  0
  3  8  2  0  0  0  0
  3 15  1  0  0  0  0
  4  9  1  0  0  0  0
  4 15  2  0  0  0  0
  5 17  1  0  0  0  0
  6 19  1  0  0  0  0
  7 10  2  0  0  0  0
  7 18  1  0  0  0  0
  8 21  1  0  0  0  0
  9 21  2  0  0  0  0
 10 22  1  0  0  0  0
 11 12  2  0  0  0  0
 11 23  1  0  0  0  0
 12 24  1  0  0  0  0
 13 20  1  0  0  0  0
 13 22  2  0  0  0  0
 14 24  2  0  0  0  0
 14 25  1  0  0  0  0
 15 26  1  0  0  0  0
 16 26  1  0  0  0  0
 16 27  2  0  0  0  0
 16 30  1  0  0  0  0
 17 19  2  0  0  0  0
 17 35  1  0  0  0  0
 18 20  2  0  0  0  0
 18 36  1  0  0  0  0
 19 47  1  0  0  0  0
 20 37  1  0  0  0  0
 21 83  1  0  0  0  0
 22 84  1  0  0  0  0
 23 25  2  0  0  0  0
 23 83  1  0  0  0  0
 24 85  1  0  0  0  0
 25 86  1  0  0  0  0
 26 68  2  0  0  0  0
 27 69  1  0  0  0  0
 27 72  1  0  0  0  0
 28 29  2  0  0  0  0
 28 38  1  0  0  0  0
 28 50  1  0  0  0  0
 29 66  1  0  0  0  0
 30 73  1  0  0  0  0
 30 78  2  0  0  0  0
 31 48  1  0  0  0  0
 31 74  1  0  0  0  0
 31 79  2  0  0  0  0
 32 63  1  0  0  0  0
 32 70  1  0  0  0  0
 32 80  2  0  0  0  0
 33 64  1  0  0  0  0
 33 75  1  0  0  0  0
 33 81  2  0  0  0  0
 34 71  1  0  0  0  0
 34 76  1  0  0  0  0
 34 82  2  0  0  0  0
 35 39  1  0  0  0  0
 36 48  1  0  0  0  0
 37 70  1  0  0  0  0
 38 40  1  0  0  0  0
 39 42  1  0  0  0  0
 40 44  1  0  0  0  0
 41 43  1  0  0  0  0
 41 45  1  0  0  0  0
 42 47  1  0  0  0  0
 43 49  1  0  0  0  0
 44 50  1  0  0  0  0
 45 71  1  0  0  0  0
 46 49  1  0  0  0  0
 46 71  1  0  0  0  0
 47 74  1  0  0  0  0
 48 70  1  0  0  0  0
 49 69  1  0  0  0  0
 50 60  1  0  0  0  0
 50 65  1  0  0  0  0
 51 64  1  0  0  0  0
 52 65  1  0  0  0  0
 53 65  1  0  0  0  0
 54 66  1  0  0  0  0
 55 66  1  0  0  0  0
 56 67  1  0  0  0  0
 57 67  1  0  0  0  0
 58 67  1  0  0  0  0
 59 77  1  0  0  0  0
 60 61  1  0  0  0  0
 61 76  1  0  0  0  0
 62 66  1  0  0  0  0
 62 84  1  0  0  0  0
 63 67  1  0  0  0  0
 63 75  1  0  0  0  0
 64 77  1  0  0  0  0
 68 69  1  0  0  0  0
M  CHG  1  77   1
M  ISO  4  34 100  62 101  76 100  84 101
M  END
> <Batch ID>
0111

> <Smiles>
CNC(C)C(=O)NC(C(=O)N1Cc2cc([101O:1][101CH2:1]C(C)(C)C=C3CCCC3(CC[100NH:0][100C:0](=O)N3CCCC(n4nc(-c5ccc(Oc6ccc(F)cc6F)cc5)c(C(N)=O)c4N)C3)C(C)C)ccc2CC1C(=O)NC1CCCc2ccccc21)C(C)(C)C

> <Shape>
0.206

> <Color>
0.053

> <Negative vol penalty>
0.000

$$$$

  -OEChem-04052320013D

 86 94  0     1  0  0  0  0  0999 V2000
  -30.1178  -23.8523   15.4445 C   0  0  0  0  0  0  0  0  0  0  0  0
  -28.8147  -23.9090   15.9282 C   0  0  0  0  0  0  0  0  0  0  0  0
  -23.6991   -9.4683   19.8353 C   0  0  0  0  0  0  0  0  0  0  0  0
  -23.5876   -9.9842   22.1929 C   0  0  0  0  0  0  0  0  0  0  0  0
  -31.1845  -24.1884   16.2770 C   0  0  0  0  0  0  0  0  0  0  0  0
  -28.5775  -24.3009   17.2453 C   0  0  0  0  0  0  0  0  0  0  0  0
  -24.7550  -27.5999   17.6323 C   0  0  0  0  0  0  0  0  0  0  0  0
  -22.7907   -8.4261   20.0204 C   0  0  0  0  0  0  0  0  0  0  0  0
  -22.6792   -8.9420   22.3781 C   0  0  0  0  0  0  0  0  0  0  0  0
  -23.4609  -27.0863   17.5597 C   0  0  0  0  0  0  0  0  0  0  0  0
  -22.7752   -5.5743   22.6613 C   0  0  0  0  0  0  0  0  0  0  0  0
  -22.9754   -4.7259   23.7502 C   0  0  0  0  0  0  0  0  0  0  0  0
  -23.2959  -27.1786   19.9646 C   0  0  0  0  0  0  0  0  0  0  0  0
  -20.8086   -5.3384   24.6259 C   0  0  0  0  0  0  0  0  0  0  0  0
  -24.0976  -10.2473   20.9216 C   0  0  0  0  0  0  0  0  0  0  0  0
  -26.3522  -11.2271   20.2401 C   0  0  0  0  0  0  0  0  0  0  0  0
  -30.9596  -24.5939   17.6021 C   0  0  0  0  0  0  0  0  0  0  0  0
  -25.3343  -27.8969   18.8743 C   0  0  0  0  0  0  0  0  0  0  0  0
  -29.6423  -24.6414   18.0968 C   0  0  0  0  0  0  0  0  0  0  0  0
  -24.5965  -27.6982   20.0501 C   0  0  0  0  0  0  0  0  0  0  0  0
  -22.2807   -8.1630   21.2918 C   0  0  0  0  0  0  0  0  0  0  0  0
  -22.7322  -26.8729   18.7261 C   0  0  0  0  0  0  0  0  0  0  0  0
  -21.5917   -6.3049   22.5547 C   0  0  0  0  0  0  0  0  0  0  0  0
  -21.9921   -4.6079   24.7324 C   0  0  0  0  0  0  0  0  0  0  0  0
  -20.6084   -6.1870   23.5370 C   0  0  0  0  0  0  0  0  0  0  0  0
  -25.0364  -11.3237   20.7311 C   0  0  0  0  0  0  0  0  0  0  0  0
  -26.8184  -12.5190   20.2510 C   0  0  0  0  0  0  0  0  0  0  0  0
  -27.0873  -10.0729   19.8122 C   0  0  0  0  0  0  0  0  0  0  0  0
  -27.8705  -26.8447   20.4756 C   0  0  0  0  0  0  0  0  0  0  0  0
  -27.0758  -29.2270   22.5289 C   0  0  0  0  0  0  0  0  0  0  0  0
  -24.6637  -31.2981   23.7695 C   0  0  0  0  0  0  0  0  0  0  0  0
  -23.7675  -17.7084   20.1230 C   0  0  0  0  0  0  0  0  0  0  0  0
  -32.1477  -24.9021   18.4785 C   0  0  0  0  0  0  0  0  0  0  0  0
  -26.7214  -28.4754   18.9340 C   0  0  0  0  0  0  0  0  0  0  0  0
  -25.1653  -28.0199   21.4071 C   0  0  0  0  0  0  0  0  0  0  0  0
  -31.7855  -25.6677   19.7485 C   0  0  0  0  0  0  0  0  0  0  0  0
  -25.3091  -15.9408   23.1690 C   0  0  0  0  0  0  0  0  0  0  0  0
  -24.0283  -22.0382   18.3225 C   0  0  0  0  0  0  0  0  0  0  0  0
  -30.5736  -25.0356   20.4255 C   0  0  0  0  0  0  0  0  0  0  0  0
  -26.3348  -15.1848   22.3297 C   0  0  0  0  0  0  0  0  0  0  0  0
  -24.2619  -20.6757   18.9657 C   0  0  0  0  0  0  0  0  0  0  0  0
  -24.7352  -17.1236   22.3950 C   0  0  0  0  0  0  0  0  0  0  0  0
  -22.6084  -22.3038   17.8320 C   0  0  0  0  0  0  0  0  0  0  0  0
  -24.3913  -15.3663   20.6583 C   0  0  0  0  0  0  0  0  0  0  0  0
  -21.2918  -21.8953   19.8748 C   0  0  0  0  0  0  0  0  0  0  0  0
  -29.3428  -25.0856   19.5121 C   0  0  1  0  0  0  0  0  0  0  0  0
  -27.4015  -28.2591   20.2824 C   0  0  1  0  0  0  0  0  0  0  0  0
  -25.7880  -14.7855   20.9416 C   0  0  2  0  0  0  0  0  0  0  0  0
  -23.1239  -20.0915   19.8080 C   0  0  2  0  0  0  0  0  0  0  0  0
  -22.3788  -21.1360   20.6568 C   0  0  2  0  0  0  0  0  0  0  0  0
  -24.3067  -33.1115   25.4670 C   0  0  0  0  0  0  0  0  0  0  0  0
  -18.7681  -25.2780   18.6706 C   0  0  0  0  0  0  0  0  0  0  0  0
  -22.6961  -21.4053   23.7578 C   0  0  0  0  0  0  0  0  0  0  0  0
  -20.2764  -20.6846   23.7606 C   0  0  0  0  0  0  0  0  0  0  0  0
  -27.0849  -27.1410   24.7557 C   0  0  0  0  0  0  0  0  0  0  0  0
  -25.8269  -28.7650   26.1869 C   0  0  0  0  0  0  0  0  0  0  0  0
  -28.1163  -29.3333   25.3757 C   0  0  0  0  0  0  0  0  0  0  0  0
  -23.8835  -33.2524   21.6885 C   0  0  0  0  0  0  0  0  0  0  0  0
  -20.6241  -23.5752   18.3015 C   0  0  0  0  0  0  0  0  0  0  0  0
  -21.0238  -25.5812   19.7600 C   0  0  0  0  0  0  0  0  0  1  0  0
  -26.1859  -29.3393   23.7431 C   0  0  1  0  0  0  0  0  0  0  0  0
  -24.6530  -32.7952   24.0203 C   0  0  2  0  0  0  0  0  0  0  0  0
  -19.9773  -24.5628   19.2876 C   0  0  1  0  0  0  0  0  0  0  0  0
  -21.4111  -21.2944   22.9532 C   0  0  0  0  0  0  0  0  0  0  0  0
  -26.7932  -28.6367   24.9901 C   0  0  0  0  0  0  0  0  0  0  0  0
  -24.6891  -12.5778   21.0323 N   0  0  0  0  0  0  0  0  0  0  0  0
  -25.7936  -13.2811   20.7297 N   0  0  0  0  0  0  0  0  0  0  0  0
  -26.5279  -28.5775   21.4136 N   0  0  0  0  0  0  0  0  0  0  0  0
  -24.3070  -16.7789   21.0333 N   0  0  0  0  0  0  0  0  0  0  0  0
  -21.7718  -22.8768   18.8927 N   0  0  2  0  0  0  0  0  0  0  0  0
  -28.0010  -13.0661   19.8979 N   0  0  0  0  0  0  0  0  0  0  0  0
  -27.8466   -9.3748   20.7611 N   0  0  0  0  0  0  0  0  0  0  0  0
  -28.7648  -26.4124   19.5151 N   0  0  0  0  0  0  0  0  0  0  0  0
  -25.9245  -30.7627   23.9274 N   0  0  0  0  0  0  0  0  0  0  0  0
  -23.6603  -19.0088   20.6097 N   0  0  0  0  0  0  0  0  0  0  0  0
  -21.6666  -20.4323   21.7773 N   0  3  0  0  0  0  0  0  0  0  0  0
  -23.6507  -33.4606   23.1409 N   0  3  0  0  0  0  0  0  0  0  0  0
  -27.0843   -9.6821   18.6202 O   0  0  0  0  0  0  0  0  0  0  0  0
  -27.4531  -26.1944   21.4267 O   0  0  0  0  0  0  0  0  0  0  0  0
  -28.2126  -29.7044   22.5661 O   0  0  0  0  0  0  0  0  0  0  0  0
  -23.6538  -30.6660   23.4676 O   0  0  0  0  0  0  0  0  0  0  0  0
  -23.4112  -17.4053   18.9804 O   0  0  0  0  0  0  0  0  0  0  0  0
  -21.3941   -7.1463   21.4727 O   0  0  0  0  0  0  0  0  0  0  0  0
  -21.4691  -26.3711   18.6581 O   0  0  0  0  0  0  0  0  0  1  0  0
  -22.1838   -3.7919   25.7772 F   0  0  0  0  0  0  0  0  0  0  0  0
  -19.4689   -6.8854   23.4394 F   0  0  0  0  0  0  0  0  0  0  0  0
  1  2  1  0  0  0  0
  1  5  2  0  0  0  0
  2  6  2  0  0  0  0
  3  8  2  0  0  0  0
  3 15  1  0  0  0  0
  4  9  1  0  0  0  0
  4 15  2  0  0  0  0
  5 17  1  0  0  0  0
  6 19  1  0  0  0  0
  7 10  2  0  0  0  0
  7 18  1  0  0  0  0
  8 21  1  0  0  0  0
  9 21  2  0  0  0  0
 10 22  1  0  0  0  0
 11 12  2  0  0  0  0
 11 23  1  0  0  0  0
 12 24  1  0  0  0  0
 13 20  1  0  0  0  0
 13 22  2  0  0  0  0
 14 24  2  0  0  0  0
 14 25  1  0  0  0  0
 15 26  1  0  0  0  0
 16 26  1  0  0  0  0
 16 27  2  0  0  0  0
 16 28  1  0  0  0  0
 17 19  2  0  0  0  0
 17 33  1  0  0  0  0
 18 20  2  0  0  0  0
 18 34  1  0  0  0  0
 19 46  1  0  0  0  0
 20 35  1  0  0  0  0
 21 83  1  0  0  0  0
 22 84  1  0  0  0  0
 23 25  2  0  0  0  0
 23 83  1  0  0  0  0
 24 85  1  0  0  0  0
 25 86  1  0  0  0  0
 26 66  2  0  0  0  0
 27 67  1  0  0  0  0
 27 71  1  0  0  0  0
 28 72  1  0  0  0  0
 28 78  2  0  0  0  0
 29 47  1  0  0  0  0
 29 73  1  0  0  0  0
 29 79  2  0  0  0  0
 30 61  1  0  0  0  0
 30 68  1  0  0  0  0
 30 80  2  0  0  0  0
 31 62  1  0  0  0  0
 31 74  1  0  0  0  0
 31 81  2  0  0  0  0
 32 69  1  0  0  0  0
 32 75  1  0  0  0  0
 32 82  2  0  0  0  0
 33 36  1  0  0  0  0
 34 47  1  0  0  0  0
 35 68  1  0  0  0  0
 36 39  1  0  0  0  0
 37 40  1  0  0  0  0
 37 42  1  0  0  0  0
 38 41  1  0  0  0  0
 38 43  1  0  0  0  0
 39 46  1  0  0  0  0
 40 48  1  0  0  0  0
 41 49  1  0  0  0  0
 42 69  1  0  0  0  0
 43 70  1  0  0  0  0
 44 48  1  0  0  0  0
 44 69  1  0  0  0  0
 45 50  1  0  0  0  0
 45 70  1  0  0  0  0
 46 73  1  0  0  0  0
 47 68  1  0  0  0  0
 48 67  1  0  0  0  0
 49 50  1  0  0  0  0
 49 75  1  0  0  0  0
 50 76  1  0  0  0  0
 51 62  1  0  0  0  0
 52 63  1  0  0  0  0
 53 64  1  0  0  0  0
 54 64  1  0  0  0  0
 55 65  1  0  0  0  0
 56 65  1  0  0  0  0
 57 65  1  0  0  0  0
 58 77  1  0  0  0  0
 59 63  1  0  0  0  0
 59 70  1  0  0  0  0
 60 63  1  0  0  0  0
 60 84  1  0  0  0  0
 61 65  1  0  0  0  0
 61 74  1  0  0  0  0
 62 77  1  0  0  0  0
 64 76  1  0  0  0  0
 66 67  1  0  0  0  0
M  CHG  2  76   1  77   1
M  ISO  4  32 100  60 101  75 100  84 101
M  END
> <Batch ID>
0111

> <Smiles>
CNC(C)C(=O)NC(C(=O)N1Cc2cc([101O:1][101CH2:1]C(C)CN3CCCC([100NH:0][100C:0](=O)N4CCCC(n5nc(-c6ccc(Oc7ccc(F)cc7F)cc6)c(C(N)=O)c5N)C4)C(NC(C)C)C3)ccc2CC1C(=O)NC1CCCc2ccccc21)C(C)(C)C

> <Shape>
0.234

> <Color>
0.086

> <Negative vol penalty>
0.000

$$$$

  -OEChem-04052320013D

 84 92  0     1  0  0  0  0  0999 V2000
  -28.1224  -11.2342   19.0744 C   0  0  0  0  0  0  0  0  0  0  0  0
  -28.2028  -12.4704   18.4413 C   0  0  0  0  0  0  0  0  0  0  0  0
  -23.7241  -29.3350   19.4680 C   0  0  0  0  0  0  0  0  0  0  0  0
  -24.0070  -27.5514   21.0729 C   0  0  0  0  0  0  0  0  0  0  0  0
  -27.0813  -10.9747   19.9647 C   0  0  0  0  0  0  0  0  0  0  0  0
  -27.2415  -13.4475   18.6974 C   0  0  0  0  0  0  0  0  0  0  0  0
  -29.2745  -18.0262   19.4369 C   0  0  0  0  0  0  0  0  0  0  0  0
  -22.3542  -29.0766   19.4222 C   0  0  0  0  0  0  0  0  0  0  0  0
  -22.6371  -27.2930   21.0272 C   0  0  0  0  0  0  0  0  0  0  0  0
  -29.6808  -18.7327   18.3058 C   0  0  0  0  0  0  0  0  0  0  0  0
  -19.8100  -28.6148   22.3236 C   0  0  0  0  0  0  0  0  0  0  0  0
  -19.1484  -28.4176   23.5356 C   0  0  0  0  0  0  0  0  0  0  0  0
  -27.6481  -20.0288   18.3925 C   0  0  0  0  0  0  0  0  0  0  0  0
  -33.1975  -21.7391   14.4736 C   0  0  0  0  0  0  0  0  0  0  0  0
  -18.4989  -26.2030   22.8207 C   0  0  0  0  0  0  0  0  0  0  0  0
  -34.4363  -22.8841   15.9649 C   0  0  0  0  0  0  0  0  0  0  0  0
  -24.5505  -28.5724   20.2933 C   0  0  0  0  0  0  0  0  0  0  0  0
  -26.6359  -29.7236   21.2063 C   0  0  0  0  0  0  0  0  0  0  0  0
  -26.1122  -11.9525   20.2392 C   0  0  0  0  0  0  0  0  0  0  0  0
  -28.0449  -18.3088   20.0490 C   0  0  0  0  0  0  0  0  0  0  0  0
  -26.1857  -13.2004   19.5913 C   0  0  0  0  0  0  0  0  0  0  0  0
  -27.2297  -19.3262   19.5329 C   0  0  0  0  0  0  0  0  0  0  0  0
  -34.4995  -22.2177   14.7611 C   0  0  0  0  0  0  0  0  0  0  0  0
  -21.8106  -28.0556   20.2018 C   0  0  0  0  0  0  0  0  0  0  0  0
  -28.8663  -19.7322   17.7817 C   0  0  0  0  0  0  0  0  0  0  0  0
  -19.8160  -27.6062   21.3601 C   0  0  0  0  0  0  0  0  0  0  0  0
  -18.4929  -27.2117   23.7842 C   0  0  0  0  0  0  0  0  0  0  0  0
  -19.1605  -26.4003   21.6087 C   0  0  0  0  0  0  0  0  0  0  0  0
  -25.9658  -28.8385   20.3405 C   0  0  0  0  0  0  0  0  0  0  0  0
  -32.3781  -22.1279   15.5104 C   0  0  0  0  0  0  0  0  0  0  0  0
  -27.9586  -29.6141   20.8527 C   0  0  0  0  0  0  0  0  0  0  0  0
  -26.1099  -30.5690   22.2379 C   0  0  0  0  0  0  0  0  0  0  0  0
  -25.3790  -16.6647   20.5913 C   0  0  0  0  0  0  0  0  0  0  0  0
  -24.5420  -19.3213   22.2540 C   0  0  0  0  0  0  0  0  0  0  0  0
  -24.9430  -22.6735   22.7522 C   0  0  0  0  0  0  0  0  0  0  0  0
  -30.8707  -25.0904   18.2681 C   0  0  0  0  0  0  0  0  0  0  0  0
  -24.9788  -11.6092   21.1731 C   0  0  0  0  0  0  0  0  0  0  0  0
  -27.6333  -17.5558   21.2843 C   0  0  0  0  0  0  0  0  0  0  0  0
  -25.9096  -19.6819   20.1647 C   0  0  0  0  0  0  0  0  0  0  0  0
  -24.2119  -12.8300   21.6749 C   0  0  0  0  0  0  0  0  0  0  0  0
  -30.7863  -28.6154   17.1491 C   0  0  0  0  0  0  0  0  0  0  0  0
  -23.8925  -13.7722   20.5185 C   0  0  0  0  0  0  0  0  0  0  0  0
  -29.5517  -29.1259   17.8854 C   0  0  0  0  0  0  0  0  0  0  0  0
  -30.6510  -27.1466   16.7498 C   0  0  0  0  0  0  0  0  0  0  0  0
  -29.0824  -26.7615   18.6329 C   0  0  0  0  0  0  0  0  0  0  0  0
  -25.1760  -14.2946   19.8619 C   0  0  1  0  0  0  0  0  0  0  0  0
  -26.1265  -17.5767   21.5225 C   0  0  1  0  0  0  0  0  0  0  0  0
  -29.2255  -28.2228   19.0841 C   0  0  2  0  0  0  0  0  0  0  0  0
  -35.5775  -22.6971   12.5336 C   0  0  0  0  0  0  0  0  0  0  0  0
  -36.0980  -20.5513   13.7500 C   0  0  0  0  0  0  0  0  0  0  0  0
  -24.0937  -24.5718   24.1567 C   0  0  0  0  0  0  0  0  0  0  0  0
  -21.9840  -19.4030   20.5926 C   0  0  0  0  0  0  0  0  0  0  0  0
  -21.6555  -21.7690   21.3423 C   0  0  0  0  0  0  0  0  0  0  0  0
  -21.6692  -19.9218   23.0187 C   0  0  0  0  0  0  0  0  0  0  0  0
  -27.6256  -23.1815   23.8942 C   0  0  0  0  0  0  0  0  0  0  0  0
  -30.6638  -20.5913   16.4829 C   0  0  0  0  0  0  0  0  0  1  0  0
  -32.6527  -23.4330   17.6964 C   0  0  0  0  0  0  0  0  0  0  0  0
  -35.7023  -22.0361   13.9263 C   0  0  0  0  0  0  0  0  0  0  0  0
  -23.8382  -20.6143   21.9196 C   0  0  1  0  0  0  0  0  0  0  0  0
  -25.1496  -23.4862   24.0176 C   0  0  2  0  0  0  0  0  0  0  0  0
  -30.9034  -21.8891   15.7204 C   0  0  0  0  0  0  0  0  0  0  0  0
  -22.3106  -20.4192   21.7050 C   0  0  0  0  0  0  0  0  0  0  0  0
  -26.7944  -28.2131   19.5001 N   0  0  0  0  0  0  0  0  0  0  0  0
  -33.1419  -22.8234   16.4109 N   0  0  0  0  0  0  0  0  0  0  0  0
  -27.9987  -28.7058   19.8360 N   0  0  0  0  0  0  0  0  0  0  0  0
  -25.5482  -18.9130   21.3671 N   0  0  0  0  0  0  0  0  0  0  0  0
  -30.2653  -26.3045   17.8933 N   0  0  0  0  0  0  0  0  0  0  0  0
  -29.0796  -30.2072   21.3152 N   0  0  0  0  0  0  0  0  0  0  0  0
  -24.7276  -30.5592   22.4696 N   0  0  0  0  0  0  0  0  0  0  0  0
  -25.7668  -15.3407   20.6688 N   0  0  0  0  0  0  0  0  0  0  0  0
  -24.1770  -21.5510   22.9855 N   0  0  0  0  0  0  0  0  0  0  0  0
  -31.9211  -24.6678   17.4609 N   0  0  0  0  0  0  0  0  0  0  0  0
  -26.4913  -24.1347   24.0034 N   0  3  0  0  0  0  0  0  0  0  0  0
  -26.8418  -31.3233   22.9225 O   0  0  0  0  0  0  0  0  0  0  0  0
  -24.5134  -17.1278   19.8578 O   0  0  0  0  0  0  0  0  0  0  0  0
  -24.2159  -18.7002   23.2687 O   0  0  0  0  0  0  0  0  0  0  0  0
  -25.4109  -23.0037   21.6647 O   0  0  0  0  0  0  0  0  0  0  0  0
  -30.4957  -24.4311   19.2435 O   0  0  0  0  0  0  0  0  0  0  0  0
  -20.4739  -27.8032   20.1576 O   0  0  0  0  0  0  0  0  0  0  0  0
  -29.2602  -20.4229   16.6773 O   0  0  0  0  0  0  0  0  0  1  0  0
  -17.8590  -27.0218   24.9488 F   0  0  0  0  0  0  0  0  0  0  0  0
  -19.1638  -25.4272   20.6873 F   0  0  0  0  0  0  0  0  0  0  0  0
  -30.3115  -22.9044   16.4155 F   0  0  0  0  0  0  0  0  0  0  0  0
  -30.2204  -21.8191   14.5401 F   0  0  0  0  0  0  0  0  0  0  0  0
  1  2  1  0  0  0  0
  1  5  2  0  0  0  0
  2  6  2  0  0  0  0
  3  8  2  0  0  0  0
  3 17  1  0  0  0  0
  4  9  1  0  0  0  0
  4 17  2  0  0  0  0
  5 19  1  0  0  0  0
  6 21  1  0  0  0  0
  7 10  2  0  0  0  0
  7 20  1  0  0  0  0
  8 24  1  0  0  0  0
  9 24  2  0  0  0  0
 10 25  1  0  0  0  0
 11 12  2  0  0  0  0
 11 26  1  0  0  0  0
 12 27  1  0  0  0  0
 13 22  1  0  0  0  0
 13 25  2  0  0  0  0
 14 23  1  0  0  0  0
 14 30  2  0  0  0  0
 15 27  2  0  0  0  0
 15 28  1  0  0  0  0
 16 23  2  0  0  0  0
 16 64  1  0  0  0  0
 17 29  1  0  0  0  0
 18 29  1  0  0  0  0
 18 31  2  0  0  0  0
 18 32  1  0  0  0  0
 19 21  2  0  0  0  0
 19 37  1  0  0  0  0
 20 22  2  0  0  0  0
 20 38  1  0  0  0  0
 21 46  1  0  0  0  0
 22 39  1  0  0  0  0
 23 58  1  0  0  0  0
 24 79  1  0  0  0  0
 25 80  1  0  0  0  0
 26 28  2  0  0  0  0
 26 79  1  0  0  0  0
 27 81  1  0  0  0  0
 28 82  1  0  0  0  0
 29 63  2  0  0  0  0
 30 61  1  0  0  0  0
 30 64  1  0  0  0  0
 31 65  1  0  0  0  0
 31 68  1  0  0  0  0
 32 69  1  0  0  0  0
 32 74  2  0  0  0  0
 33 47  1  0  0  0  0
 33 70  1  0  0  0  0
 33 75  2  0  0  0  0
 34 59  1  0  0  0  0
 34 66  1  0  0  0  0
 34 76  2  0  0  0  0
 35 60  1  0  0  0  0
 35 71  1  0  0  0  0
 35 77  2  0  0  0  0
 36 67  1  0  0  0  0
 36 72  1  0  0  0  0
 36 78  2  0  0  0  0
 37 40  1  0  0  0  0
 38 47  1  0  0  0  0
 39 66  1  0  0  0  0
 40 42  1  0  0  0  0
 41 43  1  0  0  0  0
 41 44  1  0  0  0  0
 42 46  1  0  0  0  0
 43 48  1  0  0  0  0
 44 67  1  0  0  0  0
 45 48  1  0  0  0  0
 45 67  1  0  0  0  0
 46 70  1  0  0  0  0
 47 66  1  0  0  0  0
 48 65  1  0  0  0  0
 49 58  1  0  0  0  0
 50 58  1  0  0  0  0
 51 60  1  0  0  0  0
 52 62  1  0  0  0  0
 53 62  1  0  0  0  0
 54 62  1  0  0  0  0
 55 73  1  0  0  0  0
 56 61  1  0  0  0  0
 56 80  1  0  0  0  0
 57 64  1  0  0  0  0
 57 72  1  0  0  0  0
 59 62  1  0  0  0  0
 59 71  1  0  0  0  0
 60 73  1  0  0  0  0
 61 83  1  0  0  0  0
 61 84  1  0  0  0  0
 63 65  1  0  0  0  0
M  CHG  1  73   1
M  ISO  4  36 100  56 101  72 100  80 101
M  END
> <Batch ID>
0111

> <Smiles>
CNC(C)C(=O)NC(C(=O)N1Cc2cc([101O:1][101CH2:1]C(F)(F)c3cc(C(C)C)cn3C[100NH:0][100C:0](=O)N3CCCC(n4nc(-c5ccc(Oc6ccc(F)cc6F)cc5)c(C(N)=O)c4N)C3)ccc2CC1C(=O)NC1CCCc2ccccc21)C(C)(C)C

> <Shape>
0.223

> <Color>
0.062

> <Negative vol penalty>
0.000

$$$$

  -OEChem-04052320013D

 85 93  0     1  0  0  0  0  0999 V2000
  -16.5985  -23.5117   24.6225 C   0  0  0  0  0  0  0  0  0  0  0  0
  -17.9085  -23.1678   24.3045 C   0  0  0  0  0  0  0  0  0  0  0  0
  -23.2016   -9.8511   19.9529 C   0  0  0  0  0  0  0  0  0  0  0  0
  -23.9132   -9.9302   22.2604 C   0  0  0  0  0  0  0  0  0  0  0  0
  -16.0350  -23.0735   25.8201 C   0  0  0  0  0  0  0  0  0  0  0  0
  -18.6561  -22.3862   25.1846 C   0  0  0  0  0  0  0  0  0  0  0  0
  -22.8580  -18.1808   23.7134 C   0  0  0  0  0  0  0  0  0  0  0  0
  -22.5103   -8.6665   20.2066 C   0  0  0  0  0  0  0  0  0  0  0  0
  -23.2218   -8.7456   22.5141 C   0  0  0  0  0  0  0  0  0  0  0  0
  -24.2504  -18.2253   23.6585 C   0  0  0  0  0  0  0  0  0  0  0  0
  -21.3467   -5.9342   23.8552 C   0  0  0  0  0  0  0  0  0  0  0  0
  -20.5697   -5.8710   25.0118 C   0  0  0  0  0  0  0  0  0  0  0  0
  -24.3618  -17.2951   25.8815 C   0  0  0  0  0  0  0  0  0  0  0  0
  -29.7603  -17.3933   23.3358 C   0  0  0  0  0  0  0  0  0  0  0  0
  -19.2467   -7.7331   24.2248 C   0  0  0  0  0  0  0  0  0  0  0  0
  -29.8346  -17.4688   25.5849 C   0  0  0  0  0  0  0  0  0  0  0  0
  -23.9031  -10.4829   20.9797 C   0  0  0  0  0  0  0  0  0  0  0  0
  -24.1229  -13.0198   20.8259 C   0  0  0  0  0  0  0  0  0  0  0  0
  -16.7729  -22.2781   26.7109 C   0  0  0  0  0  0  0  0  0  0  0  0
  -22.2058  -17.7025   24.8590 C   0  0  0  0  0  0  0  0  0  0  0  0
  -18.1024  -21.9381   26.3959 C   0  0  0  0  0  0  0  0  0  0  0  0
  -22.9610  -17.2432   25.9474 C   0  0  0  0  0  0  0  0  0  0  0  0
  -29.2752  -18.0726   24.4805 C   0  0  0  0  0  0  0  0  0  0  0  0
  -22.5204   -8.1138   21.4872 C   0  0  0  0  0  0  0  0  0  0  0  0
  -25.0025  -17.7851   24.7438 C   0  0  0  0  0  0  0  0  0  0  0  0
  -21.0738   -6.8970   22.8834 C   0  0  0  0  0  0  0  0  0  0  0  0
  -19.5197   -6.7704   25.1966 C   0  0  0  0  0  0  0  0  0  0  0  0
  -20.0238   -7.7964   23.0682 C   0  0  0  0  0  0  0  0  0  0  0  0
  -24.6179  -11.7063   20.7181 C   0  0  0  0  0  0  0  0  0  0  0  0
  -30.6013  -16.3949   23.7756 C   0  0  0  0  0  0  0  0  0  0  0  0
  -25.1842  -13.8168   20.4723 C   0  0  0  0  0  0  0  0  0  0  0  0
  -22.8204  -13.4785   21.2114 C   0  0  0  0  0  0  0  0  0  0  0  0
  -20.1970  -18.9512   26.9825 C   0  0  0  0  0  0  0  0  0  0  0  0
  -20.0910  -15.9049   28.0922 C   0  0  0  0  0  0  0  0  0  0  0  0
  -21.6116  -12.8605   28.3493 C   0  0  0  0  0  0  0  0  0  0  0  0
  -30.9479  -14.0595   20.9572 C   0  0  0  0  0  0  0  0  0  0  0  0
  -16.1369  -21.8677   28.0153 C   0  0  0  0  0  0  0  0  0  0  0  0
  -20.7035  -17.6361   24.8920 C   0  0  0  0  0  0  0  0  0  0  0  0
  -22.3094  -16.7017   27.1926 C   0  0  0  0  0  0  0  0  0  0  0  0
  -16.8718  -20.7303   28.7200 C   0  0  0  0  0  0  0  0  0  0  0  0
  -29.3567  -13.1288   17.9112 C   0  0  0  0  0  0  0  0  0  0  0  0
  -18.3739  -20.9952   28.7375 C   0  0  0  0  0  0  0  0  0  0  0  0
  -27.9265  -12.7892   18.3345 C   0  0  0  0  0  0  0  0  0  0  0  0
  -30.3742  -12.7013   18.9666 C   0  0  0  0  0  0  0  0  0  0  0  0
  -28.6797  -12.8730   20.7479 C   0  0  0  0  0  0  0  0  0  0  0  0
  -18.9373  -21.0712   27.3133 C   0  0  1  0  0  0  0  0  0  0  0  0
  -20.1376  -17.6095   26.3085 C   0  0  1  0  0  0  0  0  0  0  0  0
  -27.6132  -13.3355   19.7404 C   0  0  2  0  0  0  0  0  0  0  0  0
  -30.1910  -20.9864   24.3357 C   0  0  0  0  0  0  0  0  0  0  0  0
  -21.2983  -10.5802   29.3490 C   0  0  0  0  0  0  0  0  0  0  0  0
  -20.8088  -17.0145   30.8424 C   0  0  0  0  0  0  0  0  0  0  0  0
  -21.4065  -14.6880   31.5481 C   0  0  0  0  0  0  0  0  0  0  0  0
  -19.0674  -15.2197   30.8637 C   0  0  0  0  0  0  0  0  0  0  0  0
  -31.1725  -15.9697   27.4835 C   0  0  0  0  0  0  0  0  0  0  0  0
  -32.9061  -15.6923   25.6676 C   0  0  0  0  0  0  0  0  0  0  0  0
  -31.0290  -14.0794   25.8776 C   0  0  0  0  0  0  0  0  0  0  0  0
  -21.6611  -11.5611   25.6908 C   0  0  0  0  0  0  0  0  0  0  0  0
  -31.3704  -15.3956   23.0055 C   0  0  0  0  0  0  0  0  0  0  0  0
  -28.8777  -20.4830   23.7488 C   0  0  0  0  0  0  0  0  0  0  0  0
  -26.9498  -18.8570   23.8983 C   0  0  0  0  0  0  0  0  0  1  0  0
  -28.3133  -19.2527   24.4896 C   0  0  1  0  0  0  0  0  0  0  0  0
  -20.8787  -15.1074   29.1034 C   0  0  1  0  0  0  0  0  0  0  0  0
  -21.0922  -11.4526   28.1205 C   0  0  2  0  0  0  0  0  0  0  0  0
  -20.5529  -15.5194   30.5668 C   0  0  0  0  0  0  0  0  0  0  0  0
  -31.4034  -15.5767   26.0073 C   0  0  0  0  0  0  0  0  0  0  0  0
  -25.8943  -11.6668   20.3264 N   0  0  0  0  0  0  0  0  0  0  0  0
  -30.6386  -16.4501   25.1444 N   0  0  0  0  0  0  0  0  0  0  0  0
  -26.2102  -12.9654   20.1849 N   0  0  0  0  0  0  0  0  0  0  0  0
  -20.8377  -16.6630   27.1792 N   0  0  0  0  0  0  0  0  0  0  0  0
  -30.0204  -13.2538   20.2764 N   0  0  0  0  0  0  0  0  0  0  0  0
  -25.3304  -15.1558   20.3820 N   0  0  0  0  0  0  0  0  0  0  0  0
  -21.8476  -12.5256   21.5432 N   0  0  0  0  0  0  0  0  0  0  0  0
  -19.0873  -19.7433   26.7577 N   0  0  0  0  0  0  0  0  0  0  0  0
  -20.6201  -13.7027   28.8064 N   0  0  0  0  0  0  0  0  0  0  0  0
  -30.5303  -14.5477   22.1893 N   0  0  0  0  0  0  0  0  0  0  0  0
  -21.7991  -10.8202   26.9710 N   0  3  0  0  0  0  0  0  0  0  0  0
  -22.5228  -14.6966   21.2443 O   0  0  0  0  0  0  0  0  0  0  0  0
  -21.1764  -19.2452   27.6578 O   0  0  0  0  0  0  0  0  0  0  0  0
  -18.8587  -15.8514   28.1072 O   0  0  0  0  0  0  0  0  0  0  0  0
  -22.7809  -13.1803   28.1467 O   0  0  0  0  0  0  0  0  0  0  0  0
  -32.0633  -14.3285   20.4985 O   0  0  0  0  0  0  0  0  0  0  0  0
  -21.8457   -6.9580   21.7352 O   0  0  0  0  0  0  0  0  0  0  0  0
  -26.3617  -17.8280   24.6930 O   0  0  0  0  0  0  0  0  0  1  0  0
  -18.7726   -6.7085   26.3067 F   0  0  0  0  0  0  0  0  0  0  0  0
  -19.7561   -8.7227   22.1376 F   0  0  0  0  0  0  0  0  0  0  0  0
  1  2  1  0  0  0  0
  1  5  2  0  0  0  0
  2  6  2  0  0  0  0
  3  8  2  0  0  0  0
  3 17  1  0  0  0  0
  4  9  1  0  0  0  0
  4 17  2  0  0  0  0
  5 19  1  0  0  0  0
  6 21  1  0  0  0  0
  7 10  2  0  0  0  0
  7 20  1  0  0  0  0
  8 24  1  0  0  0  0
  9 24  2  0  0  0  0
 10 25  1  0  0  0  0
 11 12  2  0  0  0  0
 11 26  1  0  0  0  0
 12 27  1  0  0  0  0
 13 22  1  0  0  0  0
 13 25  2  0  0  0  0
 14 23  1  0  0  0  0
 14 30  2  0  0  0  0
 15 27  2  0  0  0  0
 15 28  1  0  0  0  0
 16 23  2  0  0  0  0
 16 67  1  0  0  0  0
 17 29  1  0  0  0  0
 18 29  1  0  0  0  0
 18 31  2  0  0  0  0
 18 32  1  0  0  0  0
 19 21  2  0  0  0  0
 19 37  1  0  0  0  0
 20 22  2  0  0  0  0
 20 38  1  0  0  0  0
 21 46  1  0  0  0  0
 22 39  1  0  0  0  0
 23 61  1  0  0  0  0
 24 82  1  0  0  0  0
 25 83  1  0  0  0  0
 26 28  2  0  0  0  0
 26 82  1  0  0  0  0
 27 84  1  0  0  0  0
 28 85  1  0  0  0  0
 29 66  2  0  0  0  0
 30 58  1  0  0  0  0
 30 67  1  0  0  0  0
 31 68  1  0  0  0  0
 31 71  1  0  0  0  0
 32 72  1  0  0  0  0
 32 77  2  0  0  0  0
 33 47  1  0  0  0  0
 33 73  1  0  0  0  0
 33 78  2  0  0  0  0
 34 62  1  0  0  0  0
 34 69  1  0  0  0  0
 34 79  2  0  0  0  0
 35 63  1  0  0  0  0
 35 74  1  0  0  0  0
 35 80  2  0  0  0  0
 36 70  1  0  0  0  0
 36 75  1  0  0  0  0
 36 81  2  0  0  0  0
 37 40  1  0  0  0  0
 38 47  1  0  0  0  0
 39 69  1  0  0  0  0
 40 42  1  0  0  0  0
 41 43  1  0  0  0  0
 41 44  1  0  0  0  0
 42 46  1  0  0  0  0
 43 48  1  0  0  0  0
 44 70  1  0  0  0  0
 45 48  1  0  0  0  0
 45 70  1  0  0  0  0
 46 73  1  0  0  0  0
 47 69  1  0  0  0  0
 48 68  1  0  0  0  0
 49 59  1  0  0  0  0
 50 63  1  0  0  0  0
 51 64  1  0  0  0  0
 52 64  1  0  0  0  0
 53 64  1  0  0  0  0
 54 65  1  0  0  0  0
 55 65  1  0  0  0  0
 56 65  1  0  0  0  0
 57 76  1  0  0  0  0
 58 75  1  0  0  0  0
 59 61  1  0  0  0  0
 60 61  1  0  0  0  0
 60 83  1  0  0  0  0
 62 64  1  0  0  0  0
 62 74  1  0  0  0  0
 63 76  1  0  0  0  0
 65 67  1  0  0  0  0
 66 68  1  0  0  0  0
M  CHG  1  76   1
M  ISO  4  36 100  60 101  75 100  83 101
M  END
> <Batch ID>
0111

> <Smiles>
CCC(c1cc(C[100NH:0][100C:0](=O)N2CCCC(n3nc(-c4ccc(Oc5ccc(F)cc5F)cc4)c(C(N)=O)c3N)C2)n(C(C)(C)C)c1)[101CH2:1][101O:1]c1ccc2c(c1)CN(C(=O)C(NC(=O)C(C)NC)C(C)(C)C)C(C(=O)NC1CCCc3ccccc31)C2

> <Shape>
0.153

> <Color>
0.185

> <Negative vol penalty>
0.000

$$$$

  -OEChem-04052320013D

 89 97  0     1  0  0  0  0  0999 V2000
  -16.8472  -29.5237   24.4598 C   0  0  0  0  0  0  0  0  0  0  0  0
  -17.3358  -28.3089   23.9898 C   0  0  0  0  0  0  0  0  0  0  0  0
  -28.6752  -17.7924   18.0576 C   0  0  0  0  0  0  0  0  0  0  0  0
  -28.9189  -18.4333   20.3742 C   0  0  0  0  0  0  0  0  0  0  0  0
  -17.3760  -30.7201   23.9772 C   0  0  0  0  0  0  0  0  0  0  0  0
  -18.3528  -28.2898   23.0360 C   0  0  0  0  0  0  0  0  0  0  0  0
  -22.8741  -24.1869   22.5571 C   0  0  0  0  0  0  0  0  0  0  0  0
  -28.7911  -19.1289   17.6756 C   0  0  0  0  0  0  0  0  0  0  0  0
  -29.0349  -19.7698   19.9922 C   0  0  0  0  0  0  0  0  0  0  0  0
  -23.0382  -23.0618   21.7502 C   0  0  0  0  0  0  0  0  0  0  0  0
  -31.4195  -21.7960   18.7160 C   0  0  0  0  0  0  0  0  0  0  0  0
  -32.4285  -22.5532   19.3111 C   0  0  0  0  0  0  0  0  0  0  0  0
  -24.3133  -24.3795   20.1827 C   0  0  0  0  0  0  0  0  0  0  0  0
  -30.7685  -24.0689   20.1968 C   0  0  0  0  0  0  0  0  0  0  0  0
  -28.7390  -17.4446   19.4069 C   0  0  0  0  0  0  0  0  0  0  0  0
  -29.6602  -15.1289   19.9515 C   0  0  0  0  0  0  0  0  0  0  0  0
  -18.4067  -30.7156   23.0242 C   0  0  0  0  0  0  0  0  0  0  0  0
  -23.4201  -25.4213   22.1769 C   0  0  0  0  0  0  0  0  0  0  0  0
  -18.8950  -29.4873   22.5393 C   0  0  0  0  0  0  0  0  0  0  0  0
  -24.1569  -25.5181   20.9878 C   0  0  0  0  0  0  0  0  0  0  0  0
  -28.9710  -20.1176   18.6429 C   0  0  0  0  0  0  0  0  0  0  0  0
  -23.7555  -23.1587   20.5614 C   0  0  0  0  0  0  0  0  0  0  0  0
  -30.0850  -22.1752   18.8613 C   0  0  0  0  0  0  0  0  0  0  0  0
  -32.1030  -23.6897   20.0515 C   0  0  0  0  0  0  0  0  0  0  0  0
  -29.7595  -23.3116   19.6017 C   0  0  0  0  0  0  0  0  0  0  0  0
  -28.6187  -16.0642   19.8021 C   0  0  0  0  0  0  0  0  0  0  0  0
  -29.0296  -13.9718   20.3389 C   0  0  0  0  0  0  0  0  0  0  0  0
  -31.0714  -15.2914   19.7576 C   0  0  0  0  0  0  0  0  0  0  0  0
  -22.2256  -28.2843   21.4841 C   0  0  0  0  0  0  0  0  0  0  0  0
  -25.3549  -29.1305   21.3671 C   0  0  0  0  0  0  0  0  0  0  0  0
  -28.6004  -28.1732   20.9231 C   0  0  0  0  0  0  0  0  0  0  0  0
  -23.9303  -13.0262   23.1600 C   0  0  0  0  0  0  0  0  0  0  0  0
  -18.9140  -32.0346   22.4974 C   0  0  0  0  0  0  0  0  0  0  0  0
  -23.2569  -26.6193   23.0716 C   0  0  0  0  0  0  0  0  0  0  0  0
  -24.7803  -26.8156   20.5447 C   0  0  0  0  0  0  0  0  0  0  0  0
  -20.2485  -31.9250   21.7642 C   0  0  0  0  0  0  0  0  0  0  0  0
  -24.8542  -11.6672   19.9356 C   0  0  0  0  0  0  0  0  0  0  0  0
  -20.2261  -30.7538   20.7871 C   0  0  0  0  0  0  0  0  0  0  0  0
  -26.0333  -12.5640   19.5541 C   0  0  0  0  0  0  0  0  0  0  0  0
  -22.0377  -16.4220   20.8445 C   0  0  0  0  0  0  0  0  0  0  0  0
  -23.7699  -12.4584   20.6611 C   0  0  0  0  0  0  0  0  0  0  0  0
  -23.0900  -17.3543   20.2427 C   0  0  0  0  0  0  0  0  0  0  0  0
  -25.4234  -14.0869   21.4903 C   0  0  0  0  0  0  0  0  0  0  0  0
  -21.6474  -18.7021   21.4942 C   0  0  0  0  0  0  0  0  0  0  0  0
  -20.0148  -29.4252   21.5232 C   0  0  1  0  0  0  0  0  0  0  0  0
  -23.4184  -27.9438   22.3320 C   0  0  1  0  0  0  0  0  0  0  0  0
  -26.5637  -13.3412   20.7734 C   0  0  2  0  0  0  0  0  0  0  0  0
  -20.9577  -17.3585   21.3668 C   0  0  2  0  0  0  0  0  0  0  0  0
  -30.9332  -29.0948   20.8470 C   0  0  0  0  0  0  0  0  0  0  0  0
  -17.7970  -14.3786   23.8395 C   0  0  0  0  0  0  0  0  0  0  0  0
  -22.2837  -21.0011   18.4005 C   0  0  0  0  0  0  0  0  0  0  0  0
  -24.8181  -30.2525   18.5809 C   0  0  0  0  0  0  0  0  0  0  0  0
  -27.2911  -30.2793   18.1912 C   0  0  0  0  0  0  0  0  0  0  0  0
  -26.3015  -31.6718   20.0090 C   0  0  0  0  0  0  0  0  0  0  0  0
  -23.4915  -11.3417   25.6079 C   0  0  0  0  0  0  0  0  0  0  0  0
  -21.2606  -10.8254   24.6064 C   0  0  0  0  0  0  0  0  0  0  0  0
  -29.4558  -26.5122   23.2184 C   0  0  0  0  0  0  0  0  0  0  0  0
  -23.4694  -19.7548   20.2802 C   0  0  0  0  0  0  0  0  0  0  0  0
  -19.3834  -15.8424   22.5760 C   0  0  0  0  0  0  0  0  0  0  0  0
  -20.0248  -14.9365   24.9121 C   0  0  0  0  0  0  0  0  0  0  0  0
  -21.7550  -13.1749   25.2884 C   0  0  0  0  0  0  0  0  0  0  0  0
  -26.4144  -29.1620   20.2921 C   0  0  1  0  0  0  0  0  0  0  0  0
  -29.8567  -28.4712   21.7215 C   0  0  2  0  0  0  0  0  0  0  0  0
  -18.9105  -15.4235   23.9738 C   0  0  2  0  0  0  0  0  0  0  0  0
  -22.8790  -21.0830   19.8004 C   0  0  1  0  0  0  0  0  0  1  0  0
  -26.1930  -30.3173   19.2754 C   0  0  0  0  0  0  0  0  0  0  0  0
  -22.3676  -11.8850   24.7132 C   0  0  0  0  0  0  0  0  0  0  0  0
  -27.4176  -15.5461   20.0724 N   0  0  0  0  0  0  0  0  0  0  0  0
  -27.7005  -14.2726   20.3954 N   0  0  0  0  0  0  0  0  0  0  0  0
  -24.5875  -27.9600   21.4505 N   0  0  0  0  0  0  0  0  0  0  0  0
  -24.3367  -13.1594   21.8219 N   0  0  0  0  0  0  0  0  0  0  0  0
  -22.4807  -18.6875   20.2894 N   0  0  1  0  0  0  0  0  0  0  0  0
  -29.4878  -12.7366   20.6331 N   0  0  0  0  0  0  0  0  0  0  0  0
  -31.5509  -16.5467   19.3591 N   0  0  0  0  0  0  0  0  0  0  0  0
  -21.2453  -28.9940   22.1511 N   0  0  0  0  0  0  0  0  0  0  0  0
  -27.6973  -29.2133   20.9849 N   0  0  0  0  0  0  0  0  0  0  0  0
  -22.8906  -12.1331   23.3881 N   0  0  0  0  0  0  0  0  0  0  0  0
  -20.4312  -16.9012   22.6656 N   0  3  0  0  0  0  0  0  0  0  0  0
  -30.4018  -27.2181   22.3163 N   0  3  0  0  0  0  0  0  0  0  0  0
  -20.6392  -13.6739   24.4381 N   0  3  0  0  0  0  0  0  0  0  0  0
  -31.8816  -14.3470   19.9166 O   0  0  0  0  0  0  0  0  0  0  0  0
  -22.1973  -27.9306   20.3111 O   0  0  0  0  0  0  0  0  0  0  0  0
  -25.2181  -30.1056   22.1101 O   0  0  0  0  0  0  0  0  0  0  0  0
  -28.4381  -27.1243   20.3034 O   0  0  0  0  0  0  0  0  0  0  0  0
  -24.4589  -13.6531   24.0846 O   0  0  0  0  0  0  0  0  0  0  0  0
  -29.0844  -21.4218   18.2705 O   0  0  0  0  0  0  0  0  0  0  0  0
  -23.9166  -22.0622   19.7716 O   0  0  0  0  0  0  0  0  0  1  0  0
  -33.0719  -24.4159   20.6242 F   0  0  0  0  0  0  0  0  0  0  0  0
  -28.4792  -23.6802   19.7458 F   0  0  0  0  0  0  0  0  0  0  0  0
  1  2  1  0  0  0  0
  1  5  2  0  0  0  0
  2  6  2  0  0  0  0
  3  8  2  0  0  0  0
  3 15  1  0  0  0  0
  4  9  1  0  0  0  0
  4 15  2  0  0  0  0
  5 17  1  0  0  0  0
  6 19  1  0  0  0  0
  7 10  2  0  0  0  0
  7 18  1  0  0  0  0
  8 21  1  0  0  0  0
  9 21  2  0  0  0  0
 10 22  1  0  0  0  0
 11 12  2  0  0  0  0
 11 23  1  0  0  0  0
 12 24  1  0  0  0  0
 13 20  1  0  0  0  0
 13 22  2  0  0  0  0
 14 24  2  0  0  0  0
 14 25  1  0  0  0  0
 15 26  1  0  0  0  0
 16 26  1  0  0  0  0
 16 27  2  0  0  0  0
 16 28  1  0  0  0  0
 17 19  2  0  0  0  0
 17 33  1  0  0  0  0
 18 20  2  0  0  0  0
 18 34  1  0  0  0  0
 19 45  1  0  0  0  0
 20 35  1  0  0  0  0
 21 86  1  0  0  0  0
 22 87  1  0  0  0  0
 23 25  2  0  0  0  0
 23 86  1  0  0  0  0
 24 88  1  0  0  0  0
 25 89  1  0  0  0  0
 26 68  2  0  0  0  0
 27 69  1  0  0  0  0
 27 73  1  0  0  0  0
 28 74  1  0  0  0  0
 28 81  2  0  0  0  0
 29 46  1  0  0  0  0
 29 75  1  0  0  0  0
 29 82  2  0  0  0  0
 30 62  1  0  0  0  0
 30 70  1  0  0  0  0
 30 83  2  0  0  0  0
 31 63  1  0  0  0  0
 31 76  1  0  0  0  0
 31 84  2  0  0  0  0
 32 71  1  0  0  0  0
 32 77  1  0  0  0  0
 32 85  2  0  0  0  0
 33 36  1  0  0  0  0
 34 46  1  0  0  0  0
 35 70  1  0  0  0  0
 36 38  1  0  0  0  0
 37 39  1  0  0  0  0
 37 41  1  0  0  0  0
 38 45  1  0  0  0  0
 39 47  1  0  0  0  0
 40 42  1  0  0  0  0
 40 48  1  0  0  0  0
 41 71  1  0  0  0  0
 42 72  1  0  0  0  0
 43 47  1  0  0  0  0
 43 71  1  0  0  0  0
 44 48  1  0  0  0  0
 44 72  1  0  0  0  0
 45 75  1  0  0  0  0
 46 70  1  0  0  0  0
 47 69  1  0  0  0  0
 48 78  1  0  0  0  0
 49 63  1  0  0  0  0
 50 64  1  0  0  0  0
 51 65  1  0  0  0  0
 52 66  1  0  0  0  0
 53 66  1  0  0  0  0
 54 66  1  0  0  0  0
 55 67  1  0  0  0  0
 56 67  1  0  0  0  0
 57 79  1  0  0  0  0
 58 65  1  0  0  0  0
 58 72  1  0  0  0  0
 59 64  1  0  0  0  0
 59 78  1  0  0  0  0
 60 64  1  0  0  0  0
 60 80  1  0  0  0  0
 61 67  1  0  0  0  0
 61 80  1  0  0  0  0
 62 66  1  0  0  0  0
 62 76  1  0  0  0  0
 63 79  1  0  0  0  0
 65 87  1  0  0  0  0
 67 77  1  0  0  0  0
 68 69  1  0  0  0  0
M  CHG  3  78   1  79   1  80   1
M  ISO  4  32 100  65 101  77 100  87 101
M  END
> <Batch ID>
0111

> <Smiles>
CNC(C)C(=O)NC(C(=O)N1Cc2cc([101O:1][101CH:1](C)CN3CCC(NCC(C)CNCC(C)(C)[100NH:0][100C:0](=O)N4CCCC(n5nc(-c6ccc(Oc7ccc(F)cc7F)cc6)c(C(N)=O)c5N)C4)C3)ccc2CC1C(=O)NC1CCCc2ccccc21)C(C)(C)C

> <Shape>
0.222

> <Color>
0.081

> <Negative vol penalty>
0.000

$$$$

  -OEChem-04052320013D

 86 94  0     1  0  0  0  0  0999 V2000
  -22.0447  -11.8290   19.4939 C   0  0  0  0  0  0  0  0  0  0  0  0
  -21.8538  -13.1771   19.7796 C   0  0  0  0  0  0  0  0  0  0  0  0
  -23.9814  -31.6435   20.6801 C   0  0  0  0  0  0  0  0  0  0  0  0
  -25.0891  -29.9766   22.0334 C   0  0  0  0  0  0  0  0  0  0  0  0
  -23.2782  -11.2314   19.7491 C   0  0  0  0  0  0  0  0  0  0  0  0
  -22.8961  -13.9281   20.3218 C   0  0  0  0  0  0  0  0  0  0  0  0
  -23.4013  -18.4455   18.0897 C   0  0  0  0  0  0  0  0  0  0  0  0
  -25.0351  -32.5286   20.9078 C   0  0  0  0  0  0  0  0  0  0  0  0
  -26.1429  -30.8617   22.2610 C   0  0  0  0  0  0  0  0  0  0  0  0
  -22.5000  -19.4428   18.4595 C   0  0  0  0  0  0  0  0  0  0  0  0
  -27.2649  -35.3536   21.4285 C   0  0  0  0  0  0  0  0  0  0  0  0
  -26.9475  -36.6724   21.7534 C   0  0  0  0  0  0  0  0  0  0  0  0
  -24.1632  -20.3941   19.9251 C   0  0  0  0  0  0  0  0  0  0  0  0
  -21.9432  -22.7142   24.0740 C   0  0  0  0  0  0  0  0  0  0  0  0
  -25.7558  -35.9035   23.7094 C   0  0  0  0  0  0  0  0  0  0  0  0
  -19.9090  -23.5527   23.5957 C   0  0  0  0  0  0  0  0  0  0  0  0
  -24.0084  -30.3675   21.2430 C   0  0  0  0  0  0  0  0  0  0  0  0
  -22.8025  -28.5224   19.9589 C   0  0  0  0  0  0  0  0  0  0  0  0
  -24.3391  -11.9778   20.2857 C   0  0  0  0  0  0  0  0  0  0  0  0
  -24.6889  -18.4086   18.6440 C   0  0  0  0  0  0  0  0  0  0  0  0
  -24.1446  -13.3396   20.5857 C   0  0  0  0  0  0  0  0  0  0  0  0
  -25.0798  -19.3967   19.5588 C   0  0  0  0  0  0  0  0  0  0  0  0
  -21.0667  -23.0761   23.0214 C   0  0  0  0  0  0  0  0  0  0  0  0
  -26.1159  -32.1377   21.6982 C   0  0  0  0  0  0  0  0  0  0  0  0
  -22.8799  -20.4156   19.3795 C   0  0  0  0  0  0  0  0  0  0  0  0
  -26.8278  -34.3097   22.2439 C   0  0  0  0  0  0  0  0  0  0  0  0
  -26.1929  -36.9474   22.8939 C   0  0  0  0  0  0  0  0  0  0  0  0
  -26.0732  -34.5847   23.3844 C   0  0  0  0  0  0  0  0  0  0  0  0
  -22.9199  -29.4530   21.0086 C   0  0  0  0  0  0  0  0  0  0  0  0
  -21.2943  -22.9805   25.2595 C   0  0  0  0  0  0  0  0  0  0  0  0
  -21.5976  -27.9023   20.1829 C   0  0  0  0  0  0  0  0  0  0  0  0
  -23.7022  -28.2434   18.8779 C   0  0  0  0  0  0  0  0  0  0  0  0
  -26.3014  -16.3360   20.4350 C   0  0  0  0  0  0  0  0  0  0  0  0
  -28.7535  -18.3969   19.9232 C   0  0  0  0  0  0  0  0  0  0  0  0
  -29.7630  -21.5660   19.1585 C   0  0  0  0  0  0  0  0  0  0  0  0
  -18.3106  -27.0385   25.1125 C   0  0  0  0  0  0  0  0  0  0  0  0
  -25.6397  -11.2767   20.5885 C   0  0  0  0  0  0  0  0  0  0  0  0
  -25.6583  -17.3418   18.2145 C   0  0  0  0  0  0  0  0  0  0  0  0
  -26.4573  -19.4134   20.1676 C   0  0  0  0  0  0  0  0  0  0  0  0
  -26.8084  -12.2323   20.8149 C   0  0  0  0  0  0  0  0  0  0  0  0
  -17.2914  -28.6754   22.1194 C   0  0  0  0  0  0  0  0  0  0  0  0
  -26.3991  -13.3634   21.7528 C   0  0  0  0  0  0  0  0  0  0  0  0
  -18.6077  -28.9764   21.4006 C   0  0  0  0  0  0  0  0  0  0  0  0
  -17.4294  -28.8196   23.6334 C   0  0  0  0  0  0  0  0  0  0  0  0
  -19.8435  -28.3388   23.5137 C   0  0  0  0  0  0  0  0  0  0  0  0
  -25.2586  -14.1935   21.1513 C   0  0  1  0  0  0  0  0  0  0  0  0
  -26.7708  -17.1014   19.2303 C   0  0  1  0  0  0  0  0  0  0  0  0
  -19.7689  -28.1521   21.9886 C   0  0  2  0  0  0  0  0  0  0  0  0
  -22.9919  -23.6434   27.0009 C   0  0  0  0  0  0  0  0  0  0  0  0
  -22.0319  -21.3125   26.9995 C   0  0  0  0  0  0  0  0  0  0  0  0
  -31.8305  -22.9544   18.8507 C   0  0  0  0  0  0  0  0  0  0  0  0
  -20.5005  -20.5002   21.3758 C   0  0  0  0  0  0  0  0  0  0  0  0
  -22.5994  -23.8282   21.1853 C   0  0  0  0  0  0  0  0  0  0  0  0
  -20.2129  -23.5130   20.6194 C   0  0  0  0  0  0  0  0  0  0  0  0
  -29.1248  -18.5105   22.9496 C   0  0  0  0  0  0  0  0  0  0  0  0
  -30.5099  -20.5718   22.6323 C   0  0  0  0  0  0  0  0  0  0  0  0
  -31.2532  -18.4070   21.6406 C   0  0  0  0  0  0  0  0  0  0  0  0
  -29.0863  -22.1574   16.3387 C   0  0  0  0  0  0  0  0  0  0  0  0
  -19.0544  -23.9026   25.9124 C   0  0  0  0  0  0  0  0  0  0  0  0
  -19.3387  -25.2731   26.5216 C   0  0  0  0  0  0  0  0  0  0  0  0
  -21.7496  -22.7921   26.6525 C   0  0  0  0  0  0  0  0  0  0  0  0
  -29.2832  -19.6238   20.6255 C   0  0  1  0  0  0  0  0  0  0  0  0
  -30.7877  -22.0848   18.1659 C   0  0  2  0  0  0  0  0  0  0  0  0
  -21.6558  -21.4699   21.1248 C   0  0  2  0  0  0  0  0  0  1  0  0
  -21.3545  -22.9589   21.5105 C   0  0  0  0  0  0  0  0  0  0  0  0
  -30.0161  -19.2771   21.9522 C   0  0  0  0  0  0  0  0  0  0  0  0
  -21.8730  -29.4297   21.8378 N   0  0  0  0  0  0  0  0  0  0  0  0
  -20.0585  -23.4896   24.9565 N   0  0  0  0  0  0  0  0  0  0  0  0
  -21.0863  -28.4770   21.3091 N   0  0  0  0  0  0  0  0  0  0  0  0
  -27.3671  -18.3457   19.7206 N   0  0  0  0  0  0  0  0  0  0  0  0
  -18.5470  -28.0119   24.1277 N   0  0  0  0  0  0  0  0  0  0  0  0
  -20.9361  -26.9271   19.5243 N   0  0  0  0  0  0  0  0  0  0  0  0
  -24.8963  -28.9726   18.7974 N   0  0  0  0  0  0  0  0  0  0  0  0
  -25.7684  -15.0955   20.1409 N   0  0  0  0  0  0  0  0  0  0  0  0
  -30.1114  -20.3262   19.6513 N   0  0  0  0  0  0  0  0  0  0  0  0
  -19.4233  -26.3132   25.5206 N   0  0  0  0  0  0  0  0  0  0  0  0
  -30.1203  -22.8957   17.1086 N   0  3  0  0  0  0  0  0  0  0  0  0
  -23.4468  -27.3846   18.0000 O   0  0  0  0  0  0  0  0  0  0  0  0
  -26.4156  -16.8334   21.5491 O   0  0  0  0  0  0  0  0  0  0  0  0
  -29.5416  -17.5198   19.5612 O   0  0  0  0  0  0  0  0  0  0  0  0
  -28.7562  -22.1990   19.4687 O   0  0  0  0  0  0  0  0  0  0  0  0
  -17.1900  -26.8277   25.5886 O   0  0  0  0  0  0  0  0  0  0  0  0
  -27.1444  -33.0010   21.9204 O   0  0  0  0  0  0  0  0  0  0  0  0
  -22.0019  -21.3898   19.7427 O   0  0  0  0  0  0  0  0  0  1  0  0
  -25.8895  -38.2140   23.2067 F   0  0  0  0  0  0  0  0  0  0  0  0
  -25.6515  -33.5862   24.1723 F   0  0  0  0  0  0  0  0  0  0  0  0
  1  2  1  0  0  0  0
  1  5  2  0  0  0  0
  2  6  2  0  0  0  0
  3  8  2  0  0  0  0
  3 17  1  0  0  0  0
  4  9  1  0  0  0  0
  4 17  2  0  0  0  0
  5 19  1  0  0  0  0
  6 21  1  0  0  0  0
  7 10  2  0  0  0  0
  7 20  1  0  0  0  0
  8 24  1  0  0  0  0
  9 24  2  0  0  0  0
 10 25  1  0  0  0  0
 11 12  2  0  0  0  0
 11 26  1  0  0  0  0
 12 27  1  0  0  0  0
 13 22  1  0  0  0  0
 13 25  2  0  0  0  0
 14 23  1  0  0  0  0
 14 30  2  0  0  0  0
 15 27  2  0  0  0  0
 15 28  1  0  0  0  0
 16 23  2  0  0  0  0
 16 68  1  0  0  0  0
 17 29  1  0  0  0  0
 18 29  1  0  0  0  0
 18 31  2  0  0  0  0
 18 32  1  0  0  0  0
 19 21  2  0  0  0  0
 19 37  1  0  0  0  0
 20 22  2  0  0  0  0
 20 38  1  0  0  0  0
 21 46  1  0  0  0  0
 22 39  1  0  0  0  0
 23 65  1  0  0  0  0
 24 83  1  0  0  0  0
 25 84  1  0  0  0  0
 26 28  2  0  0  0  0
 26 83  1  0  0  0  0
 27 85  1  0  0  0  0
 28 86  1  0  0  0  0
 29 67  2  0  0  0  0
 30 61  1  0  0  0  0
 30 68  1  0  0  0  0
 31 69  1  0  0  0  0
 31 72  1  0  0  0  0
 32 73  1  0  0  0  0
 32 78  2  0  0  0  0
 33 47  1  0  0  0  0
 33 74  1  0  0  0  0
 33 79  2  0  0  0  0
 34 62  1  0  0  0  0
 34 70  1  0  0  0  0
 34 80  2  0  0  0  0
 35 63  1  0  0  0  0
 35 75  1  0  0  0  0
 35 81  2  0  0  0  0
 36 71  1  0  0  0  0
 36 76  1  0  0  0  0
 36 82  2  0  0  0  0
 37 40  1  0  0  0  0
 38 47  1  0  0  0  0
 39 70  1  0  0  0  0
 40 42  1  0  0  0  0
 41 43  1  0  0  0  0
 41 44  1  0  0  0  0
 42 46  1  0  0  0  0
 43 48  1  0  0  0  0
 44 71  1  0  0  0  0
 45 48  1  0  0  0  0
 45 71  1  0  0  0  0
 46 74  1  0  0  0  0
 47 70  1  0  0  0  0
 48 69  1  0  0  0  0
 49 61  1  0  0  0  0
 50 61  1  0  0  0  0
 51 63  1  0  0  0  0
 52 64  1  0  0  0  0
 53 65  1  0  0  0  0
 54 65  1  0  0  0  0
 55 66  1  0  0  0  0
 56 66  1  0  0  0  0
 57 66  1  0  0  0  0
 58 77  1  0  0  0  0
 59 60  1  0  0  0  0
 59 68  1  0  0  0  0
 60 76  1  0  0  0  0
 62 66  1  0  0  0  0
 62 75  1  0  0  0  0
 63 77  1  0  0  0  0
 64 65  1  0  0  0  0
 64 84  1  0  0  0  0
 67 69  1  0  0  0  0
M  CHG  1  77   1
M  ISO  4  36 100  64 101  76 100  84 101
M  END
> <Batch ID>
0111

> <Smiles>
CNC(C)C(=O)NC(C(=O)N1Cc2cc([101O:1][101CH:1](C)C(C)(C)c3cc(C(C)C)n(CC[100NH:0][100C:0](=O)N4CCCC(n5nc(-c6ccc(Oc7ccc(F)cc7F)cc6)c(C(N)=O)c5N)C4)c3)ccc2CC1C(=O)NC1CCCc2ccccc21)C(C)(C)C

> <Shape>
0.235

> <Color>
0.060

> <Negative vol penalty>
0.000

$$$$

  -OEChem-04052320013D

 81 89  0     1  0  0  0  0  0999 V2000
  -32.7331  -25.5400   24.5804 C   0  0  0  0  0  0  0  0  0  0  0  0
  -31.4141  -25.4425   24.1488 C   0  0  0  0  0  0  0  0  0  0  0  0
  -18.7122  -26.9768   21.6651 C   0  0  0  0  0  0  0  0  0  0  0  0
  -30.4377  -28.9670   18.1257 C   0  0  0  0  0  0  0  0  0  0  0  0
  -30.8451  -28.4011   20.4389 C   0  0  0  0  0  0  0  0  0  0  0  0
  -33.7379  -24.8436   23.9102 C   0  0  0  0  0  0  0  0  0  0  0  0
  -31.0994  -24.6494   23.0460 C   0  0  0  0  0  0  0  0  0  0  0  0
  -26.9970  -21.7834   23.8215 C   0  0  0  0  0  0  0  0  0  0  0  0
  -31.7965  -29.2284   17.9503 C   0  0  0  0  0  0  0  0  0  0  0  0
  -32.2040  -28.6624   20.2635 C   0  0  0  0  0  0  0  0  0  0  0  0
  -25.7549  -22.4081   23.7175 C   0  0  0  0  0  0  0  0  0  0  0  0
  -35.1051  -30.3911   16.9886 C   0  0  0  0  0  0  0  0  0  0  0  0
  -35.4604  -31.5492   16.2971 C   0  0  0  0  0  0  0  0  0  0  0  0
  -19.3190  -27.7952   22.6495 C   0  0  0  0  0  0  0  0  0  0  0  0
  -25.5006  -21.5184   21.4898 C   0  0  0  0  0  0  0  0  0  0  0  0
  -34.3195  -32.8881   17.9534 C   0  0  0  0  0  0  0  0  0  0  0  0
  -19.5918  -25.9560   21.3796 C   0  0  0  0  0  0  0  0  0  0  0  0
  -29.9620  -28.5534   19.3701 C   0  0  0  0  0  0  0  0  0  0  0  0
  -27.8979  -27.0543   19.3678 C   0  0  0  0  0  0  0  0  0  0  0  0
  -33.4340  -24.0338   22.8045 C   0  0  0  0  0  0  0  0  0  0  0  0
  -27.5059  -21.0292   22.7544 C   0  0  0  0  0  0  0  0  0  0  0  0
  -32.1013  -23.9425   22.3595 C   0  0  0  0  0  0  0  0  0  0  0  0
  -26.7482  -20.8830   21.5836 C   0  0  0  0  0  0  0  0  0  0  0  0
  -32.6797  -29.0761   19.0191 C   0  0  0  0  0  0  0  0  0  0  0  0
  -25.0078  -22.2781   22.5505 C   0  0  0  0  0  0  0  0  0  0  0  0
  -34.3570  -30.4815   18.1625 C   0  0  0  0  0  0  0  0  0  0  0  0
  -35.0676  -32.7977   16.7795 C   0  0  0  0  0  0  0  0  0  0  0  0
  -33.9642  -31.7299   18.6448 C   0  0  0  0  0  0  0  0  0  0  0  0
  -28.5583  -28.2838   19.5521 C   0  0  0  0  0  0  0  0  0  0  0  0
  -20.5512  -27.2498   22.9354 C   0  0  0  0  0  0  0  0  0  0  0  0
  -26.5841  -27.3221   19.6656 C   0  0  0  0  0  0  0  0  0  0  0  0
  -28.4250  -25.7836   18.9636 C   0  0  0  0  0  0  0  0  0  0  0  0
  -30.0669  -21.2345   20.8828 C   0  0  0  0  0  0  0  0  0  0  0  0
  -29.0011  -18.3798   19.7707 C   0  0  0  0  0  0  0  0  0  0  0  0
  -26.3792  -16.2421   19.3200 C   0  0  0  0  0  0  0  0  0  0  0  0
  -22.7163  -29.6906   22.9176 C   0  0  0  0  0  0  0  0  0  0  0  0
  -34.5607  -23.3375   22.0832 C   0  0  0  0  0  0  0  0  0  0  0  0
  -28.8354  -20.3395   22.8924 C   0  0  0  0  0  0  0  0  0  0  0  0
  -27.2406  -20.0675   20.4170 C   0  0  0  0  0  0  0  0  0  0  0  0
  -34.0910  -22.2221   21.1527 C   0  0  0  0  0  0  0  0  0  0  0  0
  -24.2078  -31.7257   20.4055 C   0  0  0  0  0  0  0  0  0  0  0  0
  -32.9153  -22.6950   20.3036 C   0  0  0  0  0  0  0  0  0  0  0  0
  -25.4209  -30.9133   19.9492 C   0  0  0  0  0  0  0  0  0  0  0  0
  -23.9613  -31.5779   21.9053 C   0  0  0  0  0  0  0  0  0  0  0  0
  -25.0634  -29.3736   21.9241 C   0  0  0  0  0  0  0  0  0  0  0  0
  -31.7167  -23.0727   21.1824 C   0  0  1  0  0  0  0  0  0  0  0  0
  -29.4851  -20.0202   21.5495 C   0  0  1  0  0  0  0  0  0  0  0  0
  -25.3186  -29.4465   20.4089 C   0  0  2  0  0  0  0  0  0  0  0  0
  -25.8103  -14.0003   18.3464 C   0  0  0  0  0  0  0  0  0  0  0  0
  -20.9466  -23.0950   23.0562 C   0  0  0  0  0  0  0  0  0  0  0  0
  -29.1131  -19.5728   16.9646 C   0  0  0  0  0  0  0  0  0  0  0  0
  -27.6723  -17.6821   16.1787 C   0  0  0  0  0  0  0  0  0  0  0  0
  -29.9309  -17.2151   17.1292 C   0  0  0  0  0  0  0  0  0  0  0  0
  -25.5057  -15.1938   21.9462 C   0  0  0  0  0  0  0  0  0  0  0  0
  -21.5902  -27.7012   23.8837 C   0  0  0  0  0  0  0  0  0  0  0  0
  -21.9110  -25.2232   22.1453 C   0  0  0  0  0  0  0  0  0  0  0  0
  -23.3501  -23.6444   23.5708 C   0  0  0  0  0  0  0  0  0  1  0  0
  -28.0639  -17.9435   18.6705 C   0  0  1  0  0  0  0  0  0  0  0  0
  -26.2316  -14.7568   19.5966 C   0  0  2  0  0  0  0  0  0  0  0  0
  -21.9494  -24.2240   23.3216 C   0  0  2  0  0  0  0  0  0  0  0  0
  -28.6863  -18.1204   17.2568 C   0  0  0  0  0  0  0  0  0  0  0  0
  -27.7321  -29.2602   19.9370 N   0  0  0  0  0  0  0  0  0  0  0  0
  -20.7064  -26.1323   22.1574 N   0  0  0  0  0  0  0  0  0  0  0  0
  -26.5391  -28.6444   19.9969 N   0  0  0  0  0  0  0  0  0  0  0  0
  -28.5493  -19.4177   20.5979 N   0  0  0  0  0  0  0  0  0  0  0  0
  -23.8727  -30.1633   22.2755 N   0  0  0  0  0  0  0  0  0  0  0  0
  -25.4746  -26.5532   19.6737 N   0  0  0  0  0  0  0  0  0  0  0  0
  -29.7973  -25.6838   18.6967 N   0  0  0  0  0  0  0  0  0  0  0  0
  -31.0272  -21.8836   21.6350 N   0  0  0  0  0  0  0  0  0  0  0  0
  -27.6752  -16.5729   18.9851 N   0  0  0  0  0  0  0  0  0  0  0  0
  -22.7116  -28.3362   23.2279 N   0  0  0  0  0  0  0  0  0  0  0  0
  -25.2064  -14.5260   20.6533 N   0  3  0  0  0  0  0  0  0  0  0  0
  -27.6977  -24.7708   18.8269 O   0  0  0  0  0  0  0  0  0  0  0  0
  -29.6746  -21.5578   19.7678 O   0  0  0  0  0  0  0  0  0  0  0  0
  -30.0908  -17.8155   19.8959 O   0  0  0  0  0  0  0  0  0  0  0  0
  -25.4382  -17.0295   19.3902 O   0  0  0  0  0  0  0  0  0  0  0  0
  -21.7568  -30.4204   23.1891 O   0  0  0  0  0  0  0  0  0  0  0  0
  -34.0058  -29.3308   18.8483 O   0  0  0  0  0  0  0  0  0  0  0  0
  -23.7955  -22.8874   22.4461 O   0  0  0  0  0  0  0  0  0  1  0  0
  -35.4101  -33.9099   16.1162 F   0  0  0  0  0  0  0  0  0  0  0  0
  -33.2464  -31.8231   19.7726 F   0  0  0  0  0  0  0  0  0  0  0  0
  1  2  1  0  0  0  0
  1  6  2  0  0  0  0
  2  7  2  0  0  0  0
  3 14  1  0  0  0  0
  3 17  2  0  0  0  0
  4  9  2  0  0  0  0
  4 18  1  0  0  0  0
  5 10  1  0  0  0  0
  5 18  2  0  0  0  0
  6 20  1  0  0  0  0
  7 22  1  0  0  0  0
  8 11  2  0  0  0  0
  8 21  1  0  0  0  0
  9 24  1  0  0  0  0
 10 24  2  0  0  0  0
 11 25  1  0  0  0  0
 12 13  2  0  0  0  0
 12 26  1  0  0  0  0
 13 27  1  0  0  0  0
 14 30  2  0  0  0  0
 15 23  1  0  0  0  0
 15 25  2  0  0  0  0
 16 27  2  0  0  0  0
 16 28  1  0  0  0  0
 17 63  1  0  0  0  0
 18 29  1  0  0  0  0
 19 29  1  0  0  0  0
 19 31  2  0  0  0  0
 19 32  1  0  0  0  0
 20 22  2  0  0  0  0
 20 37  1  0  0  0  0
 21 23  2  0  0  0  0
 21 38  1  0  0  0  0
 22 46  1  0  0  0  0
 23 39  1  0  0  0  0
 24 78  1  0  0  0  0
 25 79  1  0  0  0  0
 26 28  2  0  0  0  0
 26 78  1  0  0  0  0
 27 80  1  0  0  0  0
 28 81  1  0  0  0  0
 29 62  2  0  0  0  0
 30 55  1  0  0  0  0
 30 63  1  0  0  0  0
 31 64  1  0  0  0  0
 31 67  1  0  0  0  0
 32 68  1  0  0  0  0
 32 73  2  0  0  0  0
 33 47  1  0  0  0  0
 33 69  1  0  0  0  0
 33 74  2  0  0  0  0
 34 58  1  0  0  0  0
 34 65  1  0  0  0  0
 34 75  2  0  0  0  0
 35 59  1  0  0  0  0
 35 70  1  0  0  0  0
 35 76  2  0  0  0  0
 36 66  1  0  0  0  0
 36 71  1  0  0  0  0
 36 77  2  0  0  0  0
 37 40  1  0  0  0  0
 38 47  1  0  0  0  0
 39 65  1  0  0  0  0
 40 42  1  0  0  0  0
 41 43  1  0  0  0  0
 41 44  1  0  0  0  0
 42 46  1  0  0  0  0
 43 48  1  0  0  0  0
 44 66  1  0  0  0  0
 45 48  1  0  0  0  0
 45 66  1  0  0  0  0
 46 69  1  0  0  0  0
 47 65  1  0  0  0  0
 48 64  1  0  0  0  0
 49 59  1  0  0  0  0
 50 60  1  0  0  0  0
 51 61  1  0  0  0  0
 52 61  1  0  0  0  0
 53 61  1  0  0  0  0
 54 72  1  0  0  0  0
 55 71  1  0  0  0  0
 56 60  1  0  0  0  0
 56 63  1  0  0  0  0
 57 60  1  0  0  0  0
 57 79  1  0  0  0  0
 58 61  1  0  0  0  0
 58 70  1  0  0  0  0
 59 72  1  0  0  0  0
 62 64  1  0  0  0  0
M  CHG  1  72   1
M  ISO  4  36 100  57 101  71 100  79 101
M  END
> <Batch ID>
0111

> <Smiles>
CNC(C)C(=O)NC(C(=O)N1Cc2cc([101O:1][101CH2:1]C(C)Cn3cccc3C[100NH:0][100C:0](=O)N3CCCC(n4nc(-c5ccc(Oc6ccc(F)cc6F)cc5)c(C(N)=O)c4N)C3)ccc2CC1C(=O)NC1CCCc2ccccc21)C(C)(C)C

> <Shape>
0.193

> <Color>
0.061

> <Negative vol penalty>
0.000

$$$$

  -OEChem-04052320013D

 85 94  0     1  0  0  0  0  0999 V2000
  -30.7276  -15.3358   11.6145 C   0  0  0  0  0  0  0  0  0  0  0  0
  -30.9732  -15.0967   12.9628 C   0  0  0  0  0  0  0  0  0  0  0  0
  -27.6197  -26.2871   20.5784 C   0  0  0  0  0  0  0  0  0  0  0  0
  -26.8006  -25.4222   18.4765 C   0  0  0  0  0  0  0  0  0  0  0  0
  -29.6988  -16.1975   11.2366 C   0  0  0  0  0  0  0  0  0  0  0  0
  -30.1906  -15.7201   13.9341 C   0  0  0  0  0  0  0  0  0  0  0  0
  -28.7522  -12.5414   17.6045 C   0  0  0  0  0  0  0  0  0  0  0  0
  -26.4418  -27.0171   20.7370 C   0  0  0  0  0  0  0  0  0  0  0  0
  -25.6226  -26.1522   18.6352 C   0  0  0  0  0  0  0  0  0  0  0  0
  -29.6974  -12.2250   18.5793 C   0  0  0  0  0  0  0  0  0  0  0  0
  -23.7996  -29.3896   21.5205 C   0  0  0  0  0  0  0  0  0  0  0  0
  -23.9082  -30.7166   21.9360 C   0  0  0  0  0  0  0  0  0  0  0  0
  -34.6094  -16.2477   21.3987 C   0  0  0  0  0  0  0  0  0  0  0  0
  -28.6819  -13.8232   20.0739 C   0  0  0  0  0  0  0  0  0  0  0  0
  -25.2236  -31.2233   19.9738 C   0  0  0  0  0  0  0  0  0  0  0  0
  -34.0919  -17.4392   21.8567 C   0  0  0  0  0  0  0  0  0  0  0  0
  -32.8503  -15.7920   22.7283 C   0  0  0  0  0  0  0  0  0  0  0  0
  -27.7992  -25.4897   19.4481 C   0  0  0  0  0  0  0  0  0  0  0  0
  -30.3269  -25.2434   19.2078 C   0  0  0  0  0  0  0  0  0  0  0  0
  -28.8970  -16.8243   12.2036 C   0  0  0  0  0  0  0  0  0  0  0  0
  -27.7699  -13.5106   17.8535 C   0  0  0  0  0  0  0  0  0  0  0  0
  -29.1509  -16.5921   13.5688 C   0  0  0  0  0  0  0  0  0  0  0  0
  -27.7239  -14.1482   19.1015 C   0  0  0  0  0  0  0  0  0  0  0  0
  -33.8240  -15.2055   21.9503 C   0  0  0  0  0  0  0  0  0  0  0  0
  -25.4432  -26.9496   19.7655 C   0  0  0  0  0  0  0  0  0  0  0  0
  -29.6641  -12.8680   19.8132 C   0  0  0  0  0  0  0  0  0  0  0  0
  -24.4030  -28.9793   20.3316 C   0  0  0  0  0  0  0  0  0  0  0  0
  -24.6202  -31.6335   21.1627 C   0  0  0  0  0  0  0  0  0  0  0  0
  -25.1150  -29.8962   19.5583 C   0  0  0  0  0  0  0  0  0  0  0  0
  -29.0160  -24.7358   19.2833 C   0  0  0  0  0  0  0  0  0  0  0  0
  -31.1174  -24.1310   19.0528 C   0  0  0  0  0  0  0  0  0  0  0  0
  -30.7886  -26.5993   19.2721 C   0  0  0  0  0  0  0  0  0  0  0  0
  -27.0109  -16.3170   16.5684 C   0  0  0  0  0  0  0  0  0  0  0  0
  -24.4884  -16.1248   18.5987 C   0  0  0  0  0  0  0  0  0  0  0  0
  -23.1745  -14.8374   21.4733 C   0  0  0  0  0  0  0  0  0  0  0  0
  -31.7504  -13.3454   20.7145 C   0  0  0  0  0  0  0  0  0  1  0  0
  -30.3915  -18.3747   20.5322 C   0  0  0  0  0  0  0  0  0  0  0  0
  -27.8269  -17.7845   11.7478 C   0  0  0  0  0  0  0  0  0  0  0  0
  -26.7412  -13.8212   16.8010 C   0  0  0  0  0  0  0  0  0  0  0  0
  -26.6772  -15.1815   19.4260 C   0  0  0  0  0  0  0  0  0  0  0  0
  -26.8025  -18.1136   12.8307 C   0  0  0  0  0  0  0  0  0  0  0  0
  -30.7193  -17.8756   25.3355 C   0  0  0  0  0  0  0  0  0  0  0  0
  -31.0224  -19.6869   17.2831 C   0  0  0  0  0  0  0  0  0  0  0  0
  -27.5022  -18.4339   14.1477 C   0  0  0  0  0  0  0  0  0  0  0  0
  -32.1757  -18.0515   24.9143 C   0  0  0  0  0  0  0  0  0  0  0  0
  -30.6980  -21.1755   17.4205 C   0  0  0  0  0  0  0  0  0  0  0  0
  -29.9267  -18.5385   24.2205 C   0  0  0  0  0  0  0  0  0  0  0  0
  -30.0774  -18.8241   18.1165 C   0  0  0  0  0  0  0  0  0  0  0  0
  -29.6673  -20.6860   19.6781 C   0  0  0  0  0  0  0  0  0  0  0  0
  -28.3079  -17.2303   14.6514 C   0  0  1  0  0  0  0  0  0  0  0  0
  -26.1005  -15.1943   16.9786 C   0  0  1  0  0  0  0  0  0  0  0  0
  -30.6290  -21.6001   18.8997 C   0  0  2  0  0  0  0  0  0  0  0  0
  -32.1636  -18.1733   23.3737 C   0  0  2  0  0  0  0  0  0  0  0  0
  -30.6762  -18.0879   22.9730 C   0  0  2  0  0  0  0  0  0  0  0  0
  -21.1042  -14.8925   22.8904 C   0  0  0  0  0  0  0  0  0  0  0  0
  -25.2810  -18.8792   19.6452 C   0  0  0  0  0  0  0  0  0  0  0  0
  -23.8197  -18.4665   21.6358 C   0  0  0  0  0  0  0  0  0  0  0  0
  -22.8202  -18.5432   19.3516 C   0  0  0  0  0  0  0  0  0  0  0  0
  -22.7221  -11.9328   21.1302 C   0  0  0  0  0  0  0  0  0  0  0  0
  -34.0178  -13.7255   21.7283 C   0  0  0  0  0  0  0  0  0  0  0  0
  -32.7133  -12.9363   21.8055 C   0  0  0  0  0  0  0  0  0  0  0  0
  -24.2271  -16.5527   20.0227 C   0  0  1  0  0  0  0  0  0  0  0  0
  -21.8369  -14.1808   21.7637 C   0  0  2  0  0  0  0  0  0  0  0  0
  -24.0581  -18.0924   20.1573 C   0  0  0  0  0  0  0  0  0  0  0  0
  -28.9720  -23.4045   19.1842 N   0  0  0  0  0  0  0  0  0  0  0  0
  -33.0227  -17.1500   22.6638 N   0  0  0  0  0  0  0  0  0  0  0  0
  -30.2652  -23.0662   19.0448 N   0  0  0  0  0  0  0  0  0  0  0  0
  -25.6973  -15.4552   18.3619 N   0  0  0  0  0  0  0  0  0  0  0  0
  -30.0592  -19.2780   19.5092 N   0  0  0  0  0  0  0  0  0  0  0  0
  -32.4515  -23.9696   18.9238 N   0  0  0  0  0  0  0  0  0  0  0  0
  -30.8968  -27.3256   18.0784 N   0  0  0  0  0  0  0  0  0  0  0  0
  -27.4294  -16.2501   15.2532 N   0  0  0  0  0  0  0  0  0  0  0  0
  -23.0731  -15.7830   20.4749 N   0  0  0  0  0  0  0  0  0  0  0  0
  -30.3555  -18.8879   21.8230 N   0  0  0  0  0  0  0  0  0  0  0  0
  -22.0333  -12.7568   22.1566 N   0  3  0  0  0  0  0  0  0  0  0  0
  -31.1119  -27.1451   20.3543 O   0  0  0  0  0  0  0  0  0  0  0  0
  -27.3104  -17.1809   17.3844 O   0  0  0  0  0  0  0  0  0  0  0  0
  -23.6475  -16.3692   17.7299 O   0  0  0  0  0  0  0  0  0  0  0  0
  -24.2053  -14.5435   22.0746 O   0  0  0  0  0  0  0  0  0  0  0  0
  -31.9622  -14.2534   19.9206 O   0  0  0  0  0  0  0  0  0  0  0  0
  -30.7027  -17.1994   20.3112 O   0  0  0  0  0  0  0  0  0  0  0  0
  -24.2936  -27.6616   19.9201 O   0  0  0  0  0  0  0  0  0  0  0  0
  -30.5858  -12.5615   20.7663 O   0  0  0  0  0  0  0  0  0  1  0  0
  -24.7231  -32.9082   21.5610 F   0  0  0  0  0  0  0  0  0  0  0  0
  -25.6959  -29.5083   18.4147 F   0  0  0  0  0  0  0  0  0  0  0  0
  1  2  1  0  0  0  0
  1  5  2  0  0  0  0
  2  6  2  0  0  0  0
  3  8  2  0  0  0  0
  3 18  1  0  0  0  0
  4  9  1  0  0  0  0
  4 18  2  0  0  0  0
  5 20  1  0  0  0  0
  6 22  1  0  0  0  0
  7 10  2  0  0  0  0
  7 21  1  0  0  0  0
  8 25  1  0  0  0  0
  9 25  2  0  0  0  0
 10 26  1  0  0  0  0
 11 12  2  0  0  0  0
 11 27  1  0  0  0  0
 12 28  1  0  0  0  0
 13 16  2  0  0  0  0
 13 24  1  0  0  0  0
 14 23  1  0  0  0  0
 14 26  2  0  0  0  0
 15 28  2  0  0  0  0
 15 29  1  0  0  0  0
 16 66  1  0  0  0  0
 17 24  2  0  0  0  0
 17 66  1  0  0  0  0
 18 30  1  0  0  0  0
 19 30  1  0  0  0  0
 19 31  2  0  0  0  0
 19 32  1  0  0  0  0
 20 22  2  0  0  0  0
 20 38  1  0  0  0  0
 21 23  2  0  0  0  0
 21 39  1  0  0  0  0
 22 50  1  0  0  0  0
 23 40  1  0  0  0  0
 24 60  1  0  0  0  0
 25 82  1  0  0  0  0
 26 83  1  0  0  0  0
 27 29  2  0  0  0  0
 27 82  1  0  0  0  0
 28 84  1  0  0  0  0
 29 85  1  0  0  0  0
 30 65  2  0  0  0  0
 31 67  1  0  0  0  0
 31 70  1  0  0  0  0
 32 71  1  0  0  0  0
 32 76  2  0  0  0  0
 33 51  1  0  0  0  0
 33 72  1  0  0  0  0
 33 77  2  0  0  0  0
 34 62  1  0  0  0  0
 34 68  1  0  0  0  0
 34 78  2  0  0  0  0
 35 63  1  0  0  0  0
 35 73  1  0  0  0  0
 35 79  2  0  0  0  0
 36 61  1  0  0  0  0
 36 80  2  0  0  0  0
 36 83  1  0  0  0  0
 37 69  1  0  0  0  0
 37 74  1  0  0  0  0
 37 81  2  0  0  0  0
 38 41  1  0  0  0  0
 39 51  1  0  0  0  0
 40 68  1  0  0  0  0
 41 44  1  0  0  0  0
 42 45  1  0  0  0  0
 42 47  1  0  0  0  0
 43 46  1  0  0  0  0
 43 48  1  0  0  0  0
 44 50  1  0  0  0  0
 45 53  1  0  0  0  0
 46 52  1  0  0  0  0
 47 54  1  0  0  0  0
 48 69  1  0  0  0  0
 49 52  1  0  0  0  0
 49 69  1  0  0  0  0
 50 72  1  0  0  0  0
 51 68  1  0  0  0  0
 52 67  1  0  0  0  0
 53 54  1  0  0  0  0
 53 66  1  0  0  0  0
 54 74  1  0  0  0  0
 55 63  1  0  0  0  0
 56 64  1  0  0  0  0
 57 64  1  0  0  0  0
 58 64  1  0  0  0  0
 59 75  1  0  0  0  0
 60 61  1  0  0  0  0
 62 64  1  0  0  0  0
 62 73  1  0  0  0  0
 63 75  1  0  0  0  0
 65 67  1  0  0  0  0
M  CHG  1  75   1
M  ISO  4  36 101  37 100  74 100  83 101
M  END
> <Batch ID>
0111

> <Smiles>
CNC(C)C(=O)NC(C(=O)N1Cc2cc([101O:1][101C:1](=O)CCc3ccn(C4CCCC4[100NH:0][100C:0](=O)N4CCCC(n5nc(-c6ccc(Oc7ccc(F)cc7F)cc6)c(C(N)=O)c5N)C4)c3)ccc2CC1C(=O)NC1CCCc2ccccc21)C(C)(C)C

> <Shape>
0.217

> <Color>
0.089

> <Negative vol penalty>
0.000

$$$$

  -OEChem-04052320013D

 86 94  0     1  0  0  0  0  0999 V2000
  -28.1712  -36.5241   24.0424 C   0  0  0  0  0  0  0  0  0  0  0  0
  -28.5683  -35.2626   23.6107 C   0  0  0  0  0  0  0  0  0  0  0  0
  -27.9268   -6.5236   22.1744 C   0  0  0  0  0  0  0  0  0  0  0  0
  -28.7949   -7.9353   23.9324 C   0  0  0  0  0  0  0  0  0  0  0  0
  -26.8982  -36.7066   24.5812 C   0  0  0  0  0  0  0  0  0  0  0  0
  -27.6929  -34.1826   23.7186 C   0  0  0  0  0  0  0  0  0  0  0  0
  -27.1757  -29.4627   19.8506 C   0  0  0  0  0  0  0  0  0  0  0  0
  -29.6989  -22.3067   21.2887 C   0  0  0  0  0  0  0  0  0  0  0  0
  -28.3546   -5.3933   22.8708 C   0  0  0  0  0  0  0  0  0  0  0  0
  -29.2227   -6.8049   24.6289 C   0  0  0  0  0  0  0  0  0  0  0  0
  -27.6856  -28.1654   19.8803 C   0  0  0  0  0  0  0  0  0  0  0  0
  -27.3033   -3.5384   25.4951 C   0  0  0  0  0  0  0  0  0  0  0  0
  -26.4178   -2.4654   25.5959 C   0  0  0  0  0  0  0  0  0  0  0  0
  -29.3767  -23.6584   21.2402 C   0  0  0  0  0  0  0  0  0  0  0  0
  -25.6127  -27.3788   20.8306 C   0  0  0  0  0  0  0  0  0  0  0  0
  -28.0086   -1.0458   24.4596 C   0  0  0  0  0  0  0  0  0  0  0  0
  -28.1470   -7.7946   22.7052 C   0  0  0  0  0  0  0  0  0  0  0  0
  -26.4564   -9.6029   22.0892 C   0  0  0  0  0  0  0  0  0  0  0  0
  -26.0034  -35.6302   24.6868 C   0  0  0  0  0  0  0  0  0  0  0  0
  -25.8822  -29.7299   20.3217 C   0  0  0  0  0  0  0  0  0  0  0  0
  -26.4073  -34.3505   24.2605 C   0  0  0  0  0  0  0  0  0  0  0  0
  -25.0877  -28.6798   20.8035 C   0  0  0  0  0  0  0  0  0  0  0  0
  -29.7125  -21.5585   20.1168 C   0  0  0  0  0  0  0  0  0  0  0  0
  -29.0025   -5.5339   24.0980 C   0  0  0  0  0  0  0  0  0  0  0  0
  -26.9052  -27.1237   20.3730 C   0  0  0  0  0  0  0  0  0  0  0  0
  -28.5415   -3.3651   24.8765 C   0  0  0  0  0  0  0  0  0  0  0  0
  -26.7704   -1.2191   25.0782 C   0  0  0  0  0  0  0  0  0  0  0  0
  -28.8941   -2.1188   24.3588 C   0  0  0  0  0  0  0  0  0  0  0  0
  -27.7059   -8.9626   21.9861 C   0  0  0  0  0  0  0  0  0  0  0  0
  -29.0783  -24.2101   20.0047 C   0  0  0  0  0  0  0  0  0  0  0  0
  -29.3988  -22.2042   18.9316 C   0  0  0  0  0  0  0  0  0  0  0  0
  -26.5351  -10.6534   21.2079 C   0  0  0  0  0  0  0  0  0  0  0  0
  -25.3257   -9.2772   22.9085 C   0  0  0  0  0  0  0  0  0  0  0  0
  -24.6695  -31.5098   22.6594 C   0  0  0  0  0  0  0  0  0  0  0  0
  -21.8423  -30.6334   21.3321 C   0  0  0  0  0  0  0  0  0  0  0  0
  -20.1026  -28.3893   19.4390 C   0  0  0  0  0  0  0  0  0  0  0  0
  -29.3225  -14.9539   18.9983 C   0  0  0  0  0  0  0  0  0  0  0  0
  -24.6549  -35.8666   25.3195 C   0  0  0  0  0  0  0  0  0  0  0  0
  -25.3370  -31.1303   20.2581 C   0  0  0  0  0  0  0  0  0  0  0  0
  -23.6854  -28.9107   21.3021 C   0  0  0  0  0  0  0  0  0  0  0  0
  -23.6524  -34.7465   25.0534 C   0  0  0  0  0  0  0  0  0  0  0  0
  -29.9756  -11.7211   17.6569 C   0  0  0  0  0  0  0  0  0  0  0  0
  -24.2977  -33.3849   25.2915 C   0  0  0  0  0  0  0  0  0  0  0  0
  -29.3460  -10.7686   18.6749 C   0  0  0  0  0  0  0  0  0  0  0  0
  -30.6007  -12.9385   18.3345 C   0  0  0  0  0  0  0  0  0  0  0  0
  -29.0668  -12.7268   20.2518 C   0  0  0  0  0  0  0  0  0  0  0  0
  -25.4773  -33.1592   24.3380 C   0  0  1  0  0  0  0  0  0  0  0  0
  -24.1951  -31.3722   21.2403 C   0  0  1  0  0  0  0  0  0  0  0  0
  -28.3743  -11.5115   19.6116 C   0  0  2  0  0  0  0  0  0  0  0  0
  -29.4006  -21.4515   17.6415 C   0  0  0  0  0  0  0  0  0  0  0  0
  -26.0863  -16.1935   18.1212 C   0  0  0  0  0  0  0  0  0  0  0  0
  -17.7992  -27.9206   18.5602 C   0  0  0  0  0  0  0  0  0  0  0  0
  -20.9865  -29.6681   24.0972 C   0  0  0  0  0  0  0  0  0  0  0  0
  -19.1379  -28.3844   23.0003 C   0  0  0  0  0  0  0  0  0  0  0  0
  -19.2077  -30.8711   22.8154 C   0  0  0  0  0  0  0  0  0  0  0  0
  -26.9270  -17.1212   20.8860 C   0  0  0  0  0  0  0  0  0  0  0  0
  -21.0137  -28.5622   16.6285 C   0  0  0  0  0  0  0  0  0  0  0  0
  -30.0556  -20.1097   20.1625 C   0  0  0  0  0  0  0  0  0  0  0  0
  -28.7279  -25.6663   19.9153 C   0  0  0  0  0  0  0  0  0  1  0  0
  -27.2737  -17.1081   18.4029 C   0  0  0  0  0  0  0  0  0  0  0  0
  -29.2061  -17.7672   19.9907 C   0  0  0  0  0  0  0  0  0  0  0  0
  -20.8817  -29.4848   21.5240 C   0  0  1  0  0  0  0  0  0  0  0  0
  -19.1404  -28.5807   18.2805 C   0  0  2  0  0  0  0  0  0  0  0  0
  -20.0805  -29.5978   22.8517 C   0  0  0  0  0  0  0  0  0  0  0  0
  -27.9634  -16.8805   19.7729 C   0  0  1  0  0  0  0  0  0  0  0  0
  -28.5187   -9.5567   21.1083 N   0  0  0  0  0  0  0  0  0  0  0  0
  -29.0810  -23.5153   18.8450 N   0  0  0  0  0  0  0  0  0  0  0  0
  -27.7784  -10.5812   20.6519 N   0  0  0  0  0  0  0  0  0  0  0  0
  -23.1996  -30.2984   21.2252 N   0  0  0  0  0  0  0  0  0  0  0  0
  -29.6268  -13.5986   19.2072 N   0  0  0  0  0  0  0  0  0  0  0  0
  -25.6614  -11.6227   20.8621 N   0  0  0  0  0  0  0  0  0  0  0  0
  -25.4136   -8.1652   23.7570 N   0  0  0  0  0  0  0  0  0  0  0  0
  -25.0000  -32.8024   23.0192 N   0  0  0  0  0  0  0  0  0  0  0  0
  -20.0501  -29.4437   20.3260 N   0  0  0  0  0  0  0  0  0  0  0  0
  -28.3846  -15.5004   19.8657 N   0  0  0  0  0  0  0  0  0  0  0  0
  -19.7050  -27.9885   17.0350 N   0  3  0  0  0  0  0  0  0  0  0  0
  -28.8746  -19.2155   20.0044 N   0  3  0  0  0  0  0  0  0  0  0  0
  -24.2628   -9.9426   22.8766 O   0  0  0  0  0  0  0  0  0  0  0  0
  -24.7297  -30.5171   23.3753 O   0  0  0  0  0  0  0  0  0  0  0  0
  -21.4039  -31.7849   21.2720 O   0  0  0  0  0  0  0  0  0  0  0  0
  -20.8255  -27.4014   19.5482 O   0  0  0  0  0  0  0  0  0  0  0  0
  -29.8436  -15.6255   18.1015 O   0  0  0  0  0  0  0  0  0  0  0  0
  -29.4198   -4.4311   24.7779 O   0  0  0  0  0  0  0  0  0  0  0  0
  -27.4007  -25.8567   20.4037 O   0  0  0  0  0  0  0  0  0  1  0  0
  -25.9206   -0.1884   25.1764 F   0  0  0  0  0  0  0  0  0  0  0  0
  -30.0827   -1.9460   23.7644 F   0  0  0  0  0  0  0  0  0  0  0  0
  1  2  1  0  0  0  0
  1  5  2  0  0  0  0
  2  6  2  0  0  0  0
  3  9  2  0  0  0  0
  3 17  1  0  0  0  0
  4 10  1  0  0  0  0
  4 17  2  0  0  0  0
  5 19  1  0  0  0  0
  6 21  1  0  0  0  0
  7 11  2  0  0  0  0
  7 20  1  0  0  0  0
  8 14  2  0  0  0  0
  8 23  1  0  0  0  0
  9 24  1  0  0  0  0
 10 24  2  0  0  0  0
 11 25  1  0  0  0  0
 12 13  2  0  0  0  0
 12 26  1  0  0  0  0
 13 27  1  0  0  0  0
 14 30  1  0  0  0  0
 15 22  1  0  0  0  0
 15 25  2  0  0  0  0
 16 27  2  0  0  0  0
 16 28  1  0  0  0  0
 17 29  1  0  0  0  0
 18 29  1  0  0  0  0
 18 32  2  0  0  0  0
 18 33  1  0  0  0  0
 19 21  2  0  0  0  0
 19 38  1  0  0  0  0
 20 22  2  0  0  0  0
 20 39  1  0  0  0  0
 21 47  1  0  0  0  0
 22 40  1  0  0  0  0
 23 31  2  0  0  0  0
 23 58  1  0  0  0  0
 24 83  1  0  0  0  0
 25 84  1  0  0  0  0
 26 28  2  0  0  0  0
 26 83  1  0  0  0  0
 27 85  1  0  0  0  0
 28 86  1  0  0  0  0
 29 66  2  0  0  0  0
 30 59  1  0  0  0  0
 30 67  2  0  0  0  0
 31 50  1  0  0  0  0
 31 67  1  0  0  0  0
 32 68  1  0  0  0  0
 32 71  1  0  0  0  0
 33 72  1  0  0  0  0
 33 78  2  0  0  0  0
 34 48  1  0  0  0  0
 34 73  1  0  0  0  0
 34 79  2  0  0  0  0
 35 62  1  0  0  0  0
 35 69  1  0  0  0  0
 35 80  2  0  0  0  0
 36 63  1  0  0  0  0
 36 74  1  0  0  0  0
 36 81  2  0  0  0  0
 37 70  1  0  0  0  0
 37 75  1  0  0  0  0
 37 82  2  0  0  0  0
 38 41  1  0  0  0  0
 39 48  1  0  0  0  0
 40 69  1  0  0  0  0
 41 43  1  0  0  0  0
 42 44  1  0  0  0  0
 42 45  1  0  0  0  0
 43 47  1  0  0  0  0
 44 49  1  0  0  0  0
 45 70  1  0  0  0  0
 46 49  1  0  0  0  0
 46 70  1  0  0  0  0
 47 73  1  0  0  0  0
 48 69  1  0  0  0  0
 49 68  1  0  0  0  0
 51 60  1  0  0  0  0
 52 63  1  0  0  0  0
 53 64  1  0  0  0  0
 54 64  1  0  0  0  0
 55 64  1  0  0  0  0
 56 65  1  0  0  0  0
 57 76  1  0  0  0  0
 58 77  1  0  0  0  0
 59 84  1  0  0  0  0
 60 65  1  0  0  0  0
 61 65  1  0  0  0  0
 61 77  1  0  0  0  0
 62 64  1  0  0  0  0
 62 74  1  0  0  0  0
 63 76  1  0  0  0  0
 65 75  1  0  0  0  0
 66 68  1  0  0  0  0
M  CHG  2  76   1  77   1
M  ISO  4  37 100  59 101  75 100  84 101
M  END
> <Batch ID>
0111

> <Smiles>
CCC(C)(CNCc1ccc([101CH2:1][101O:1]c2ccc3c(c2)CN(C(=O)C(NC(=O)C(C)NC)C(C)(C)C)C(C(=O)NC2CCCc4ccccc42)C3)nc1C)[100NH:0][100C:0](=O)N1CCCC(n2nc(-c3ccc(Oc4ccc(F)cc4F)cc3)c(C(N)=O)c2N)C1

> <Shape>
0.263

> <Color>
0.074

> <Negative vol penalty>
0.000

$$$$

  -OEChem-04052320013D

 85 93  0     1  0  0  0  0  0999 V2000
  -17.9532  -25.4964   13.0039 C   0  0  0  0  0  0  0  0  0  0  0  0
  -19.2983  -25.3394   13.3223 C   0  0  0  0  0  0  0  0  0  0  0  0
  -23.0725   -9.8703   19.9437 C   0  0  0  0  0  0  0  0  0  0  0  0
  -23.8351   -9.8790   22.2361 C   0  0  0  0  0  0  0  0  0  0  0  0
  -16.9767  -24.8765   13.7825 C   0  0  0  0  0  0  0  0  0  0  0  0
  -19.6677  -24.5633   14.4203 C   0  0  0  0  0  0  0  0  0  0  0  0
  -24.8827  -20.1974   16.6697 C   0  0  0  0  0  0  0  0  0  0  0  0
  -22.3289   -8.7174   20.1954 C   0  0  0  0  0  0  0  0  0  0  0  0
  -23.0914   -8.7261   22.4879 C   0  0  0  0  0  0  0  0  0  0  0  0
  -25.7460  -20.0177   17.7496 C   0  0  0  0  0  0  0  0  0  0  0  0
  -19.3823   -7.9221   21.6507 C   0  0  0  0  0  0  0  0  0  0  0  0
  -18.0748   -7.8756   21.1671 C   0  0  0  0  0  0  0  0  0  0  0  0
  -23.9762  -18.9296   18.9756 C   0  0  0  0  0  0  0  0  0  0  0  0
  -28.0560  -20.0976   22.2411 C   0  0  0  0  0  0  0  0  0  0  0  0
  -18.6329   -5.9315   19.8456 C   0  0  0  0  0  0  0  0  0  0  0  0
  -23.8257  -10.4511   20.9641 C   0  0  0  0  0  0  0  0  0  0  0  0
  -24.1675  -12.9761   20.8417 C   0  0  0  0  0  0  0  0  0  0  0  0
  -17.3348  -24.0845   14.8848 C   0  0  0  0  0  0  0  0  0  0  0  0
  -23.5543  -19.7535   16.7389 C   0  0  0  0  0  0  0  0  0  0  0  0
  -18.6951  -23.9333   15.2152 C   0  0  0  0  0  0  0  0  0  0  0  0
  -23.0988  -19.1026   17.8943 C   0  0  0  0  0  0  0  0  0  0  0  0
  -29.7231  -18.7037   23.2808 C   0  0  0  0  0  0  0  0  0  0  0  0
  -28.8087  -19.7499   23.3586 C   0  0  0  0  0  0  0  0  0  0  0  0
  -22.3383   -8.1453   21.4675 C   0  0  0  0  0  0  0  0  0  0  0  0
  -25.2920  -19.3864   18.9039 C   0  0  0  0  0  0  0  0  0  0  0  0
  -20.3151   -6.9734   21.2318 C   0  0  0  0  0  0  0  0  0  0  0  0
  -17.7001   -6.8803   20.2645 C   0  0  0  0  0  0  0  0  0  0  0  0
  -19.9404   -5.9780   20.3293 C   0  0  0  0  0  0  0  0  0  0  0  0
  -24.5945  -11.6417   20.7045 C   0  0  0  0  0  0  0  0  0  0  0  0
  -28.2379  -19.3847   21.0646 C   0  0  0  0  0  0  0  0  0  0  0  0
  -29.8627  -18.0260   22.0780 C   0  0  0  0  0  0  0  0  0  0  0  0
  -25.2593  -13.7253   20.4766 C   0  0  0  0  0  0  0  0  0  0  0  0
  -22.8976  -13.4924   21.2618 C   0  0  0  0  0  0  0  0  0  0  0  0
  -20.7084  -21.1626   16.6018 C   0  0  0  0  0  0  0  0  0  0  0  0
  -19.6262  -18.1048   16.6396 C   0  0  0  0  0  0  0  0  0  0  0  0
  -19.6942  -14.6834   17.7827 C   0  0  0  0  0  0  0  0  0  0  0  0
  -30.7433  -14.7441   20.6577 C   0  0  0  0  0  0  0  0  0  0  0  0
  -16.2417  -23.4728   15.7249 C   0  0  0  0  0  0  0  0  0  0  0  0
  -22.6433  -19.9310   15.5553 C   0  0  0  0  0  0  0  0  0  0  0  0
  -21.6876  -18.5894   18.0112 C   0  0  0  0  0  0  0  0  0  0  0  0
  -16.7332  -22.3615   16.6488 C   0  0  0  0  0  0  0  0  0  0  0  0
  -29.6027  -12.3579   18.2741 C   0  0  0  0  0  0  0  0  0  0  0  0
  -18.0025  -22.7940   17.3758 C   0  0  0  0  0  0  0  0  0  0  0  0
  -28.1658  -12.0646   18.7089 C   0  0  0  0  0  0  0  0  0  0  0  0
  -30.5213  -12.5796   19.4737 C   0  0  0  0  0  0  0  0  0  0  0  0
  -28.6213  -13.3118   20.8620 C   0  0  0  0  0  0  0  0  0  0  0  0
  -19.1366  -23.0790   16.3837 C   0  0  1  0  0  0  0  0  0  0  0  0
  -21.1646  -19.8988   15.9293 C   0  0  1  0  0  0  0  0  0  0  0  0
  -27.6457  -13.1364   19.6857 C   0  0  2  0  0  0  0  0  0  0  0  0
  -32.0518  -18.4929   24.2223 C   0  0  0  0  0  0  0  0  0  0  0  0
  -30.2555  -16.8707   24.9273 C   0  0  0  0  0  0  0  0  0  0  0  0
  -18.3063  -12.7073   17.1001 C   0  0  0  0  0  0  0  0  0  0  0  0
  -17.8680  -18.8886   19.0070 C   0  0  0  0  0  0  0  0  0  0  0  0
  -17.5546  -16.4523   19.4913 C   0  0  0  0  0  0  0  0  0  0  0  0
  -16.7567  -17.4049   17.3282 C   0  0  0  0  0  0  0  0  0  0  0  0
  -27.6486  -20.0379   25.5338 C   0  0  0  0  0  0  0  0  0  0  0  0
  -29.4395  -21.6382   24.8408 C   0  0  0  0  0  0  0  0  0  0  0  0
  -22.0927  -13.0790   17.1254 C   0  0  0  0  0  0  0  0  0  0  0  0
  -30.8108  -16.8956   21.8929 C   0  0  0  0  0  0  0  0  0  0  0  0
  -27.4661  -19.6971   19.8163 C   0  0  0  0  0  0  0  0  0  1  0  0
  -30.5425  -18.3114   24.4664 C   0  0  0  0  0  0  0  0  0  0  0  0
  -19.2387  -17.1212   17.7172 C   0  0  1  0  0  0  0  0  0  0  0  0
  -19.6291  -13.4357   16.9204 C   0  0  2  0  0  0  0  0  0  0  0  0
  -17.8806  -17.4780   18.3848 C   0  0  0  0  0  0  0  0  0  0  0  0
  -25.8589  -11.5455   20.2848 N   0  0  0  0  0  0  0  0  0  0  0  0
  -26.2357  -12.8290   20.1551 N   0  0  0  0  0  0  0  0  0  0  0  0
  -29.1252  -18.3817   21.0173 N   0  3  0  0  0  0  0  0  0  0  0  0
  -20.8333  -18.7925   16.8295 N   0  0  0  0  0  0  0  0  0  0  0  0
  -29.9719  -13.6088   20.3596 N   0  0  0  0  0  0  0  0  0  0  0  0
  -25.4697  -15.0567   20.4023 N   0  0  0  0  0  0  0  0  0  0  0  0
  -21.8860  -12.5835   21.6009 N   0  0  0  0  0  0  0  0  0  0  0  0
  -19.7203  -21.8408   15.9140 N   0  0  0  0  0  0  0  0  0  0  0  0
  -19.2707  -15.8015   17.0959 N   0  0  0  0  0  0  0  0  0  0  0  0
  -30.1452  -15.6736   21.4998 N   0  0  0  0  0  0  0  0  0  0  0  0
  -28.6312  -20.4690   24.5607 N   0  0  0  0  0  0  0  0  0  0  0  0
  -20.7329  -12.5006   17.2783 N   0  3  0  0  0  0  0  0  0  0  0  0
  -22.6615  -14.7230   21.3185 O   0  0  0  0  0  0  0  0  0  0  0  0
  -21.2143  -21.4968   17.6668 O   0  0  0  0  0  0  0  0  0  0  0  0
  -18.8888  -18.2523   15.6618 O   0  0  0  0  0  0  0  0  0  0  0  0
  -20.0786  -14.6671   18.9500 O   0  0  0  0  0  0  0  0  0  0  0  0
  -31.8787  -14.9192   20.2026 O   0  0  0  0  0  0  0  0  0  0  0  0
  -21.6126   -7.0204   21.7135 O   0  0  0  0  0  0  0  0  0  0  0  0
  -26.1324  -19.2103   19.9596 O   0  0  0  0  0  0  0  0  0  1  0  0
  -16.4441   -6.8348   19.8014 F   0  0  0  0  0  0  0  0  0  0  0  0
  -20.8318   -5.0631   19.9241 F   0  0  0  0  0  0  0  0  0  0  0  0
  1  2  1  0  0  0  0
  1  5  2  0  0  0  0
  2  6  2  0  0  0  0
  3  8  2  0  0  0  0
  3 16  1  0  0  0  0
  4  9  1  0  0  0  0
  4 16  2  0  0  0  0
  5 18  1  0  0  0  0
  6 20  1  0  0  0  0
  7 10  2  0  0  0  0
  7 19  1  0  0  0  0
  8 24  1  0  0  0  0
  9 24  2  0  0  0  0
 10 25  1  0  0  0  0
 11 12  2  0  0  0  0
 11 26  1  0  0  0  0
 12 27  1  0  0  0  0
 13 21  1  0  0  0  0
 13 25  2  0  0  0  0
 14 23  2  0  0  0  0
 14 30  1  0  0  0  0
 15 27  2  0  0  0  0
 15 28  1  0  0  0  0
 16 29  1  0  0  0  0
 17 29  1  0  0  0  0
 17 32  2  0  0  0  0
 17 33  1  0  0  0  0
 18 20  2  0  0  0  0
 18 38  1  0  0  0  0
 19 21  2  0  0  0  0
 19 39  1  0  0  0  0
 20 47  1  0  0  0  0
 21 40  1  0  0  0  0
 22 23  1  0  0  0  0
 22 31  2  0  0  0  0
 22 61  1  0  0  0  0
 23 75  1  0  0  0  0
 24 82  1  0  0  0  0
 25 83  1  0  0  0  0
 26 28  2  0  0  0  0
 26 82  1  0  0  0  0
 27 84  1  0  0  0  0
 28 85  1  0  0  0  0
 29 65  2  0  0  0  0
 30 60  1  0  0  0  0
 30 67  2  0  0  0  0
 31 59  1  0  0  0  0
 31 67  1  0  0  0  0
 32 66  1  0  0  0  0
 32 70  1  0  0  0  0
 33 71  1  0  0  0  0
 33 77  2  0  0  0  0
 34 48  1  0  0  0  0
 34 72  1  0  0  0  0
 34 78  2  0  0  0  0
 35 62  1  0  0  0  0
 35 68  1  0  0  0  0
 35 79  2  0  0  0  0
 36 63  1  0  0  0  0
 36 73  1  0  0  0  0
 36 80  2  0  0  0  0
 37 69  1  0  0  0  0
 37 74  1  0  0  0  0
 37 81  2  0  0  0  0
 38 41  1  0  0  0  0
 39 48  1  0  0  0  0
 40 68  1  0  0  0  0
 41 43  1  0  0  0  0
 42 44  1  0  0  0  0
 42 45  1  0  0  0  0
 43 47  1  0  0  0  0
 44 49  1  0  0  0  0
 45 69  1  0  0  0  0
 46 49  1  0  0  0  0
 46 69  1  0  0  0  0
 47 72  1  0  0  0  0
 48 68  1  0  0  0  0
 49 66  1  0  0  0  0
 50 61  1  0  0  0  0
 51 61  1  0  0  0  0
 52 63  1  0  0  0  0
 53 64  1  0  0  0  0
 54 64  1  0  0  0  0
 55 64  1  0  0  0  0
 56 75  1  0  0  0  0
 57 75  1  0  0  0  0
 58 76  1  0  0  0  0
 59 74  1  0  0  0  0
 60 83  1  0  0  0  0
 62 64  1  0  0  0  0
 62 73  1  0  0  0  0
 63 76  1  0  0  0  0
 65 66  1  0  0  0  0
M  CHG  2  67   1  76   1
M  ISO  4  37 100  60 101  74 100  83 101
M  END
> <Batch ID>
0111

> <Smiles>
CNC(C)C(=O)NC(C(=O)N1Cc2cc([101O:1][101CH2:1]c3cc(N(C)C)c(C(C)C)c(C[100NH:0][100C:0](=O)N4CCCC(n5nc(-c6ccc(Oc7ccc(F)cc7F)cc6)c(C(N)=O)c5N)C4)n3)ccc2CC1C(=O)NC1CCCc2ccccc21)C(C)(C)C

> <Shape>
0.167

> <Color>
0.191

> <Negative vol penalty>
0.000

$$$$

  -OEChem-04052320013D

 82 90  0     1  0  0  0  0  0999 V2000
  -27.1832  -19.9436   26.0808 C   0  0  0  0  0  0  0  0  0  0  0  0
  -27.5371  -20.8130   25.0540 C   0  0  0  0  0  0  0  0  0  0  0  0
  -28.7280  -16.9861   18.5963 C   0  0  0  0  0  0  0  0  0  0  0  0
  -27.3095  -17.3708   20.5138 C   0  0  0  0  0  0  0  0  0  0  0  0
  -25.8395  -19.7557   26.4016 C   0  0  0  0  0  0  0  0  0  0  0  0
  -26.5471  -21.4942   24.3465 C   0  0  0  0  0  0  0  0  0  0  0  0
  -27.6680  -26.3843   23.6575 C   0  0  0  0  0  0  0  0  0  0  0  0
  -28.6729  -15.6123   18.8311 C   0  0  0  0  0  0  0  0  0  0  0  0
  -27.2543  -15.9969   20.7486 C   0  0  0  0  0  0  0  0  0  0  0  0
  -28.5863  -26.6919   22.6545 C   0  0  0  0  0  0  0  0  0  0  0  0
  -25.6050  -13.3230   19.5033 C   0  0  0  0  0  0  0  0  0  0  0  0
  -24.3596  -12.7663   19.7939 C   0  0  0  0  0  0  0  0  0  0  0  0
  -26.7700  -27.2821   21.1808 C   0  0  0  0  0  0  0  0  0  0  0  0
  -25.1964  -12.0098   21.9304 C   0  0  0  0  0  0  0  0  0  0  0  0
  -28.0463  -17.8654   19.4377 C   0  0  0  0  0  0  0  0  0  0  0  0
  -27.2299  -20.0467   18.3972 C   0  0  0  0  0  0  0  0  0  0  0  0
  -24.8331  -20.4423   25.7041 C   0  0  0  0  0  0  0  0  0  0  0  0
  -26.2910  -26.5132   23.4256 C   0  0  0  0  0  0  0  0  0  0  0  0
  -25.1886  -21.3142   24.6574 C   0  0  0  0  0  0  0  0  0  0  0  0
  -25.8364  -26.9780   22.1833 C   0  0  0  0  0  0  0  0  0  0  0  0
  -27.9361  -15.1177   19.9072 C   0  0  0  0  0  0  0  0  0  0  0  0
  -28.1372  -27.1381   21.4150 C   0  0  0  0  0  0  0  0  0  0  0  0
  -26.6462  -13.2231   20.4262 C   0  0  0  0  0  0  0  0  0  0  0  0
  -24.1553  -12.1097   21.0075 C   0  0  0  0  0  0  0  0  0  0  0  0
  -26.4419  -12.5665   21.6397 C   0  0  0  0  0  0  0  0  0  0  0  0
  -28.1033  -19.2847   19.1960 C   0  0  0  0  0  0  0  0  0  0  0  0
  -27.7079  -21.3307   18.4943 C   0  0  0  0  0  0  0  0  0  0  0  0
  -26.0884  -19.6312   17.6356 C   0  0  0  0  0  0  0  0  0  0  0  0
  -23.8233  -24.5098   23.4015 C   0  0  0  0  0  0  0  0  0  0  0  0
  -22.1122  -27.2383   23.0146 C   0  0  0  0  0  0  0  0  0  0  0  0
  -22.0390  -30.4906   21.9829 C   0  0  0  0  0  0  0  0  0  0  0  0
  -33.0558  -23.4986   19.8293 C   0  0  0  0  0  0  0  0  0  0  0  0
  -23.3917  -20.1707   26.0554 C   0  0  0  0  0  0  0  0  0  0  0  0
  -25.3144  -26.2029   24.5267 C   0  0  0  0  0  0  0  0  0  0  0  0
  -24.3693  -27.1528   21.8906 C   0  0  0  0  0  0  0  0  0  0  0  0
  -22.4237  -21.2153   25.5060 C   0  0  0  0  0  0  0  0  0  0  0  0
  -30.1082  -22.9361   22.2098 C   0  0  0  0  0  0  0  0  0  0  0  0
  -22.7334  -21.5126   24.0423 C   0  0  0  0  0  0  0  0  0  0  0  0
  -29.1750  -23.1230   21.0159 C   0  0  0  0  0  0  0  0  0  0  0  0
  -35.3099  -25.7009   21.1264 C   0  0  0  0  0  0  0  0  0  0  0  0
  -31.5336  -23.3776   21.8720 C   0  0  0  0  0  0  0  0  0  0  0  0
  -34.1507  -24.9211   21.7521 C   0  0  0  0  0  0  0  0  0  0  0  0
  -31.1483  -21.9309   19.8988 C   0  0  0  0  0  0  0  0  0  0  0  0
  -24.1450  -22.0901   23.8833 C   0  0  1  0  0  0  0  0  0  0  0  0
  -23.9154  -25.8801   24.0111 C   0  0  1  0  0  0  0  0  0  0  0  0
  -29.6933  -22.4090   19.7476 C   0  0  1  0  0  0  0  0  0  0  0  0
  -34.6759  -25.4689   19.7492 C   0  0  2  0  0  0  0  0  0  0  0  0
  -20.4886  -32.4506   21.7553 C   0  0  0  0  0  0  0  0  0  0  0  0
  -34.8141  -27.8578   19.0513 C   0  0  0  0  0  0  0  0  0  0  0  0
  -34.2610  -26.2640   16.6089 C   0  0  0  0  0  0  0  0  0  0  0  0
  -20.8420  -25.9454   20.5600 C   0  0  0  0  0  0  0  0  0  0  0  0
  -20.0613  -28.2170   19.8538 C   0  0  0  0  0  0  0  0  0  0  0  0
  -19.2542  -27.2341   21.9997 C   0  0  0  0  0  0  0  0  0  0  0  0
  -23.6673  -32.1403   23.8231 C   0  0  0  0  0  0  0  0  0  0  0  0
  -29.7009  -27.6887   18.1336 C   0  0  0  0  0  0  0  0  0  0  0  0
  -32.0555  -27.1832   17.4711 C   0  0  0  0  0  0  0  0  0  0  0  0
  -28.6065  -27.2494   19.0862 C   0  0  0  0  0  0  0  0  0  1  0  0
  -21.6422  -28.0465   21.8293 C   0  0  1  0  0  0  0  0  0  0  0  0
  -21.5002  -31.7456   22.6454 C   0  0  2  0  0  0  0  0  0  0  0  0
  -33.9026  -26.6243   19.1438 C   0  0  1  0  0  0  0  0  0  0  0  0
  -33.2562  -26.2693   17.7690 C   0  0  2  0  0  0  0  0  0  0  0  0
  -20.4776  -27.3557   21.0652 C   0  0  0  0  0  0  0  0  0  0  0  0
  -29.0636  -20.0229   19.7589 N   0  0  0  0  0  0  0  0  0  0  0  0
  -28.7964  -21.2623   19.3132 N   0  0  0  0  0  0  0  0  0  0  0  0
  -23.4535  -26.8304   22.9973 N   0  0  0  0  0  0  0  0  0  0  0  0
  -31.9750  -22.9592   20.5368 N   0  0  0  0  0  0  0  0  0  0  0  0
  -33.7890  -24.5078   20.4089 N   0  0  0  0  0  0  0  0  0  0  0  0
  -27.2991  -22.5003   17.9582 N   0  0  0  0  0  0  0  0  0  0  0  0
  -25.7360  -18.2747   17.6460 N   0  0  0  0  0  0  0  0  0  0  0  0
  -24.1658  -23.4861   24.2642 N   0  0  0  0  0  0  0  0  0  0  0  0
  -21.3165  -29.3727   22.3427 N   0  0  0  0  0  0  0  0  0  0  0  0
  -22.6113  -32.6949   22.9375 N   0  3  0  0  0  0  0  0  0  0  0  0
  -30.9171  -26.8645   18.3693 N   0  3  0  0  0  0  0  0  0  0  0  0
  -25.4111  -20.4362   16.9524 O   0  0  0  0  0  0  0  0  0  0  0  0
  -23.4664  -24.3901   22.2353 O   0  0  0  0  0  0  0  0  0  0  0  0
  -21.3203  -26.9846   23.9257 O   0  0  0  0  0  0  0  0  0  0  0  0
  -23.0021  -30.5014   21.2194 O   0  0  0  0  0  0  0  0  0  0  0  0
  -33.3660  -23.0891   18.7019 O   0  0  0  0  0  0  0  0  0  0  0  0
  -27.8819  -13.7771   20.1365 O   0  0  0  0  0  0  0  0  0  0  0  0
  -29.0378  -27.4405   20.4271 O   0  0  0  0  0  0  0  0  0  1  0  0
  -22.9588  -11.5764   21.2871 F   0  0  0  0  0  0  0  0  0  0  0  0
  -27.4379  -12.4684   22.5308 F   0  0  0  0  0  0  0  0  0  0  0  0
  1  2  1  0  0  0  0
  1  5  2  0  0  0  0
  2  6  2  0  0  0  0
  3  8  2  0  0  0  0
  3 15  1  0  0  0  0
  4  9  1  0  0  0  0
  4 15  2  0  0  0  0
  5 17  1  0  0  0  0
  6 19  1  0  0  0  0
  7 10  2  0  0  0  0
  7 18  1  0  0  0  0
  8 21  1  0  0  0  0
  9 21  2  0  0  0  0
 10 22  1  0  0  0  0
 11 12  2  0  0  0  0
 11 23  1  0  0  0  0
 12 24  1  0  0  0  0
 13 20  1  0  0  0  0
 13 22  2  0  0  0  0
 14 24  2  0  0  0  0
 14 25  1  0  0  0  0
 15 26  1  0  0  0  0
 16 26  1  0  0  0  0
 16 27  2  0  0  0  0
 16 28  1  0  0  0  0
 17 19  2  0  0  0  0
 17 33  1  0  0  0  0
 18 20  2  0  0  0  0
 18 34  1  0  0  0  0
 19 44  1  0  0  0  0
 20 35  1  0  0  0  0
 21 79  1  0  0  0  0
 22 80  1  0  0  0  0
 23 25  2  0  0  0  0
 23 79  1  0  0  0  0
 24 81  1  0  0  0  0
 25 82  1  0  0  0  0
 26 63  2  0  0  0  0
 27 64  1  0  0  0  0
 27 68  1  0  0  0  0
 28 69  1  0  0  0  0
 28 74  2  0  0  0  0
 29 45  1  0  0  0  0
 29 70  1  0  0  0  0
 29 75  2  0  0  0  0
 30 58  1  0  0  0  0
 30 65  1  0  0  0  0
 30 76  2  0  0  0  0
 31 59  1  0  0  0  0
 31 71  1  0  0  0  0
 31 77  2  0  0  0  0
 32 66  1  0  0  0  0
 32 67  1  0  0  0  0
 32 78  2  0  0  0  0
 33 36  1  0  0  0  0
 34 45  1  0  0  0  0
 35 65  1  0  0  0  0
 36 38  1  0  0  0  0
 37 39  1  0  0  0  0
 37 41  1  0  0  0  0
 38 44  1  0  0  0  0
 39 46  1  0  0  0  0
 40 42  1  0  0  0  0
 40 47  1  0  0  0  0
 41 66  1  0  0  0  0
 42 67  1  0  0  0  0
 43 46  1  0  0  0  0
 43 66  1  0  0  0  0
 44 70  1  0  0  0  0
 45 65  1  0  0  0  0
 46 64  1  0  0  0  0
 47 60  1  0  0  0  0
 47 67  1  0  0  0  0
 48 59  1  0  0  0  0
 49 60  1  0  0  0  0
 50 61  1  0  0  0  0
 51 62  1  0  0  0  0
 52 62  1  0  0  0  0
 53 62  1  0  0  0  0
 54 72  1  0  0  0  0
 55 57  1  0  0  0  0
 55 73  1  0  0  0  0
 56 61  1  0  0  0  0
 56 73  1  0  0  0  0
 57 80  1  0  0  0  0
 58 62  1  0  0  0  0
 58 71  1  0  0  0  0
 59 72  1  0  0  0  0
 60 61  1  0  0  0  0
 63 64  1  0  0  0  0
M  CHG  2  72   1  73   1
M  ISO  4  32 100  57 101  67 100  80 101
M  END
> <Batch ID>
0111

> <Smiles>
CNC(C)C(=O)NC(C(=O)N1Cc2cc([101O:1][101CH2:1]CNCC(C)C(C)C3CC[100N:0]3[100C:0](=O)N3CCCC(n4nc(-c5ccc(Oc6ccc(F)cc6F)cc5)c(C(N)=O)c4N)C3)ccc2CC1C(=O)NC1CCCc2ccccc21)C(C)(C)C

> <Shape>
0.178

> <Color>
0.057

> <Negative vol penalty>
0.000

$$$$

  -OEChem-04052320013D

 86 94  0     1  0  0  0  0  0999 V2000
  -16.7495  -27.2211   23.0313 C   0  0  0  0  0  0  0  0  0  0  0  0
  -17.9301  -26.5180   23.2485 C   0  0  0  0  0  0  0  0  0  0  0  0
  -26.3396  -14.7313   21.0687 C   0  0  0  0  0  0  0  0  0  0  0  0
  -26.8029  -14.5698   18.7030 C   0  0  0  0  0  0  0  0  0  0  0  0
  -16.7800  -28.4408   22.3565 C   0  0  0  0  0  0  0  0  0  0  0  0
  -19.1418  -27.0337   22.7900 C   0  0  0  0  0  0  0  0  0  0  0  0
  -24.6188  -26.5100   25.4797 C   0  0  0  0  0  0  0  0  0  0  0  0
  -26.1753  -13.3476   21.1310 C   0  0  0  0  0  0  0  0  0  0  0  0
  -26.6387  -13.1860   18.7653 C   0  0  0  0  0  0  0  0  0  0  0  0
  -25.6929  -25.6487   25.2604 C   0  0  0  0  0  0  0  0  0  0  0  0
  -23.7839  -11.0864   20.3610 C   0  0  0  0  0  0  0  0  0  0  0  0
  -22.6884  -10.5960   21.0714 C   0  0  0  0  0  0  0  0  0  0  0  0
  -26.7390  -27.3175   23.8676 C   0  0  0  0  0  0  0  0  0  0  0  0
  -29.5160  -24.0572   21.1537 C   0  0  0  0  0  0  0  0  0  0  0  0
  -24.1812   -9.4052   22.5515 C   0  0  0  0  0  0  0  0  0  0  0  0
  -27.3451  -23.4604   21.1208 C   0  0  0  0  0  0  0  0  0  0  0  0
  -26.6534  -15.3424   19.8547 C   0  0  0  0  0  0  0  0  0  0  0  0
  -28.0159  -17.4958   19.9736 C   0  0  0  0  0  0  0  0  0  0  0  0
  -17.9939  -28.9764   21.8980 C   0  0  0  0  0  0  0  0  0  0  0  0
  -24.5915  -27.7796   24.8847 C   0  0  0  0  0  0  0  0  0  0  0  0
  -19.1884  -28.2610   22.1073 C   0  0  0  0  0  0  0  0  0  0  0  0
  -25.6646  -28.1941   24.0830 C   0  0  0  0  0  0  0  0  0  0  0  0
  -28.4632  -23.5046   21.9241 C   0  0  0  0  0  0  0  0  0  0  0  0
  -26.3249  -12.5749   19.9794 C   0  0  0  0  0  0  0  0  0  0  0  0
  -26.7519  -26.0513   24.4520 C   0  0  0  0  0  0  0  0  0  0  0  0
  -25.0782  -10.7362   20.7457 C   0  0  0  0  0  0  0  0  0  0  0  0
  -22.8870   -9.7554   22.1666 C   0  0  0  0  0  0  0  0  0  0  0  0
  -25.2768   -9.8957   21.8410 C   0  0  0  0  0  0  0  0  0  0  0  0
  -26.8226  -16.7718   19.7895 C   0  0  0  0  0  0  0  0  0  0  0  0
  -29.0091  -24.3341   19.9032 C   0  0  0  0  0  0  0  0  0  0  0  0
  -27.6490  -18.8094   19.8112 C   0  0  0  0  0  0  0  0  0  0  0  0
  -29.3377  -17.0232   20.2652 C   0  0  0  0  0  0  0  0  0  0  0  0
  -22.6807  -29.2433   22.8087 C   0  0  0  0  0  0  0  0  0  0  0  0
  -24.5524  -31.8045   23.4862 C   0  0  0  0  0  0  0  0  0  0  0  0
  -27.5571  -32.9853   24.5926 C   0  0  0  0  0  0  0  0  0  0  0  0
  -24.7655  -22.5028   16.5923 C   0  0  0  0  0  0  0  0  0  0  0  0
  -17.9710  -30.2754   21.1321 C   0  0  0  0  0  0  0  0  0  0  0  0
  -23.4381  -28.7071   25.1528 C   0  0  0  0  0  0  0  0  0  0  0  0
  -25.6930  -29.5546   23.4376 C   0  0  0  0  0  0  0  0  0  0  0  0
  -19.3428  -30.9335   21.0078 C   0  0  0  0  0  0  0  0  0  0  0  0
  -23.0905  -20.9601   19.5105 C   0  0  0  0  0  0  0  0  0  0  0  0
  -20.3920  -29.9064   20.5941 C   0  0  0  0  0  0  0  0  0  0  0  0
  -23.9794  -19.7529   19.8050 C   0  0  0  0  0  0  0  0  0  0  0  0
  -23.1303  -21.3473   18.0353 C   0  0  0  0  0  0  0  0  0  0  0  0
  -25.3921  -20.3748   17.8054 C   0  0  0  0  0  0  0  0  0  0  0  0
  -20.5256  -28.7995   21.6469 C   0  0  1  0  0  0  0  0  0  0  0  0
  -23.2728  -29.7801   24.0811 C   0  0  1  0  0  0  0  0  0  0  0  0
  -25.4108  -19.9874   19.2918 C   0  0  2  0  0  0  0  0  0  0  0  0
  -30.8333  -24.0434   18.1882 C   0  0  0  0  0  0  0  0  0  0  0  0
  -30.1868  -26.3541   18.9615 C   0  0  0  0  0  0  0  0  0  0  0  0
  -28.8040  -35.1248   24.9993 C   0  0  0  0  0  0  0  0  0  0  0  0
  -29.9548  -23.2212   24.0154 C   0  0  0  0  0  0  0  0  0  0  0  0
  -28.2203  -21.5298   23.4605 C   0  0  0  0  0  0  0  0  0  0  0  0
  -25.0147  -32.1027   20.4850 C   0  0  0  0  0  0  0  0  0  0  0  0
  -26.9583  -33.5935   21.0030 C   0  0  0  0  0  0  0  0  0  0  0  0
  -24.6582  -34.2567   21.7047 C   0  0  0  0  0  0  0  0  0  0  0  0
  -26.3448  -24.1406   15.6419 C   0  0  0  0  0  0  0  0  0  0  0  0
  -27.8327  -32.4110   27.4828 C   0  0  0  0  0  0  0  0  0  0  0  0
  -26.7824  -24.0890   18.7739 C   0  0  0  0  0  0  0  0  0  0  0  0
  -26.9716  -22.9897   17.7319 C   0  0  0  0  0  0  0  0  0  0  0  0
  -27.5291  -23.8117   24.2619 C   0  0  0  0  0  0  0  0  0  1  0  0
  -29.6732  -24.9164   18.7187 C   0  0  0  0  0  0  0  0  0  0  0  0
  -25.8303  -32.3746   22.9195 C   0  0  1  0  0  0  0  0  0  0  0  0
  -27.9055  -34.0592   25.6075 C   0  0  2  0  0  0  0  0  0  0  0  0
  -28.5513  -23.0383   23.3894 C   0  0  0  0  0  0  0  0  0  0  0  0
  -25.6142  -33.0554   21.5385 C   0  0  0  0  0  0  0  0  0  0  0  0
  -25.7760  -17.5601   19.5302 N   0  0  0  0  0  0  0  0  0  0  0  0
  -27.6886  -23.9675   19.8948 N   0  0  0  0  0  0  0  0  0  0  0  0
  -26.3104  -18.7930   19.5503 N   0  0  0  0  0  0  0  0  0  0  0  0
  -24.5393  -30.4229   23.7247 N   0  0  0  0  0  0  0  0  0  0  0  0
  -24.5042  -21.5217   17.5628 N   0  0  0  0  0  0  0  0  0  0  0  0
  -28.3440  -19.9653   19.8677 N   0  0  0  0  0  0  0  0  0  0  0  0
  -29.5392  -15.6427   20.3997 N   0  0  0  0  0  0  0  0  0  0  0  0
  -21.2994  -29.2675   22.7769 N   0  0  0  0  0  0  0  0  0  0  0  0
  -26.3717  -33.2606   23.9443 N   0  0  0  0  0  0  0  0  0  0  0  0
  -26.0305  -23.1093   16.6205 N   0  0  0  0  0  0  0  0  0  0  0  0
  -28.6116  -33.4593   26.7747 N   0  3  0  0  0  0  0  0  0  0  0  0
  -30.3081  -17.8031   20.4187 O   0  0  0  0  0  0  0  0  0  0  0  0
  -23.4221  -28.8385   21.9209 O   0  0  0  0  0  0  0  0  0  0  0  0
  -23.6034  -32.5584   23.7157 O   0  0  0  0  0  0  0  0  0  0  0  0
  -28.2676  -32.0027   24.3922 O   0  0  0  0  0  0  0  0  0  0  0  0
  -23.9133  -22.8255   15.7548 O   0  0  0  0  0  0  0  0  0  0  0  0
  -26.1649  -11.2246   20.0399 O   0  0  0  0  0  0  0  0  0  0  0  0
  -27.8013  -25.2123   24.2358 O   0  0  0  0  0  0  0  0  0  1  0  0
  -21.8348   -9.2857   22.8497 F   0  0  0  0  0  0  0  0  0  0  0  0
  -26.5178   -9.5567   22.2161 F   0  0  0  0  0  0  0  0  0  0  0  0
  1  2  1  0  0  0  0
  1  5  2  0  0  0  0
  2  6  2  0  0  0  0
  3  8  2  0  0  0  0
  3 17  1  0  0  0  0
  4  9  1  0  0  0  0
  4 17  2  0  0  0  0
  5 19  1  0  0  0  0
  6 21  1  0  0  0  0
  7 10  2  0  0  0  0
  7 20  1  0  0  0  0
  8 24  1  0  0  0  0
  9 24  2  0  0  0  0
 10 25  1  0  0  0  0
 11 12  2  0  0  0  0
 11 26  1  0  0  0  0
 12 27  1  0  0  0  0
 13 22  1  0  0  0  0
 13 25  2  0  0  0  0
 14 23  1  0  0  0  0
 14 30  2  0  0  0  0
 15 27  2  0  0  0  0
 15 28  1  0  0  0  0
 16 23  2  0  0  0  0
 16 68  1  0  0  0  0
 17 29  1  0  0  0  0
 18 29  1  0  0  0  0
 18 31  2  0  0  0  0
 18 32  1  0  0  0  0
 19 21  2  0  0  0  0
 19 37  1  0  0  0  0
 20 22  2  0  0  0  0
 20 38  1  0  0  0  0
 21 46  1  0  0  0  0
 22 39  1  0  0  0  0
 23 65  1  0  0  0  0
 24 83  1  0  0  0  0
 25 84  1  0  0  0  0
 26 28  2  0  0  0  0
 26 83  1  0  0  0  0
 27 85  1  0  0  0  0
 28 86  1  0  0  0  0
 29 67  2  0  0  0  0
 30 62  1  0  0  0  0
 30 68  1  0  0  0  0
 31 69  1  0  0  0  0
 31 72  1  0  0  0  0
 32 73  1  0  0  0  0
 32 78  2  0  0  0  0
 33 47  1  0  0  0  0
 33 74  1  0  0  0  0
 33 79  2  0  0  0  0
 34 63  1  0  0  0  0
 34 70  1  0  0  0  0
 34 80  2  0  0  0  0
 35 64  1  0  0  0  0
 35 75  1  0  0  0  0
 35 81  2  0  0  0  0
 36 71  1  0  0  0  0
 36 76  1  0  0  0  0
 36 82  2  0  0  0  0
 37 40  1  0  0  0  0
 38 47  1  0  0  0  0
 39 70  1  0  0  0  0
 40 42  1  0  0  0  0
 41 43  1  0  0  0  0
 41 44  1  0  0  0  0
 42 46  1  0  0  0  0
 43 48  1  0  0  0  0
 44 71  1  0  0  0  0
 45 48  1  0  0  0  0
 45 71  1  0  0  0  0
 46 74  1  0  0  0  0
 47 70  1  0  0  0  0
 48 69  1  0  0  0  0
 49 62  1  0  0  0  0
 50 62  1  0  0  0  0
 51 64  1  0  0  0  0
 52 65  1  0  0  0  0
 53 65  1  0  0  0  0
 54 66  1  0  0  0  0
 55 66  1  0  0  0  0
 56 66  1  0  0  0  0
 57 76  1  0  0  0  0
 58 77  1  0  0  0  0
 59 60  1  0  0  0  0
 59 68  1  0  0  0  0
 60 76  1  0  0  0  0
 61 65  1  0  0  0  0
 61 84  1  0  0  0  0
 63 66  1  0  0  0  0
 63 75  1  0  0  0  0
 64 77  1  0  0  0  0
 67 69  1  0  0  0  0
M  CHG  1  77   1
M  ISO  4  36 100  61 101  76 100  84 101
M  END
> <Batch ID>
0111

> <Smiles>
CNC(C)C(=O)NC(C(=O)N1Cc2cc([101O:1][101CH2:1]C(C)(C)c3cc(C(C)C)n(CC[100N:0](C)[100C:0](=O)N4CCCC(n5nc(-c6ccc(Oc7ccc(F)cc7F)cc6)c(C(N)=O)c5N)C4)c3)ccc2CC1C(=O)NC1CCCc2ccccc21)C(C)(C)C

> <Shape>
0.244

> <Color>
0.082

> <Negative vol penalty>
0.000

$$$$

  -OEChem-04052320013D

 85 93  0     1  0  0  0  0  0999 V2000
  -16.8587  -28.9109   24.5538 C   0  0  0  0  0  0  0  0  0  0  0  0
  -17.6643  -27.8109   24.2769 C   0  0  0  0  0  0  0  0  0  0  0  0
  -27.3418  -16.6252   18.1086 C   0  0  0  0  0  0  0  0  0  0  0  0
  -27.7492  -17.2288   20.4123 C   0  0  0  0  0  0  0  0  0  0  0  0
  -17.0567  -30.1086   23.8682 C   0  0  0  0  0  0  0  0  0  0  0  0
  -18.6675  -27.9078   23.3133 C   0  0  0  0  0  0  0  0  0  0  0  0
  -23.0356  -25.8525   24.8432 C   0  0  0  0  0  0  0  0  0  0  0  0
  -28.0351  -17.7603   17.6885 C   0  0  0  0  0  0  0  0  0  0  0  0
  -28.4426  -18.3639   19.9922 C   0  0  0  0  0  0  0  0  0  0  0  0
  -23.1358  -24.4627   24.7974 C   0  0  0  0  0  0  0  0  0  0  0  0
  -27.6977  -21.4558   18.8448 C   0  0  0  0  0  0  0  0  0  0  0  0
  -27.4225  -22.6600   19.4927 C   0  0  0  0  0  0  0  0  0  0  0  0
  -24.3645  -24.6255   22.7278 C   0  0  0  0  0  0  0  0  0  0  0  0
  -20.6970  -19.4664   24.9667 C   0  0  0  0  0  0  0  0  0  0  0  0
  -29.7330  -22.8178   20.1809 C   0  0  0  0  0  0  0  0  0  0  0  0
  -22.5143  -18.1414   24.8583 C   0  0  0  0  0  0  0  0  0  0  0  0
  -27.1988  -16.3595   19.4705 C   0  0  0  0  0  0  0  0  0  0  0  0
  -27.0143  -13.9067   20.1467 C   0  0  0  0  0  0  0  0  0  0  0  0
  -18.0692  -30.2232   22.9026 C   0  0  0  0  0  0  0  0  0  0  0  0
  -23.5905  -26.6401   23.8243 C   0  0  0  0  0  0  0  0  0  0  0  0
  -18.8783  -29.1079   22.6132 C   0  0  0  0  0  0  0  0  0  0  0  0
  -24.2721  -26.0253   22.7644 C   0  0  0  0  0  0  0  0  0  0  0  0
  -22.0107  -19.3561   24.4479 C   0  0  0  0  0  0  0  0  0  0  0  0
  -28.5856  -18.6297   18.6303 C   0  0  0  0  0  0  0  0  0  0  0  0
  -23.7978  -23.8488   23.7381 C   0  0  0  0  0  0  0  0  0  0  0  0
  -28.9906  -20.9325   18.8651 C   0  0  0  0  0  0  0  0  0  0  0  0
  -28.4401  -23.3410   20.1606 C   0  0  0  0  0  0  0  0  0  0  0  0
  -30.0082  -21.6136   19.5330 C   0  0  0  0  0  0  0  0  0  0  0  0
  -26.4823  -15.1874   19.9051 C   0  0  0  0  0  0  0  0  0  0  0  0
  -20.4378  -18.3159   25.6784 C   0  0  0  0  0  0  0  0  0  0  0  0
  -25.9336  -13.1537   20.5361 C   0  0  0  0  0  0  0  0  0  0  0  0
  -28.3648  -13.4394   20.0299 C   0  0  0  0  0  0  0  0  0  0  0  0
  -22.4293  -28.6833   21.6841 C   0  0  0  0  0  0  0  0  0  0  0  0
  -25.5678  -29.1788   21.0309 C   0  0  0  0  0  0  0  0  0  0  0  0
  -28.9654  -28.0673   20.5426 C   0  0  0  0  0  0  0  0  0  0  0  0
  -20.6777  -14.5542   23.0391 C   0  0  0  0  0  0  0  0  0  0  0  0
  -18.2143  -31.5243   22.1538 C   0  0  0  0  0  0  0  0  0  0  0  0
  -23.4970  -28.1393   23.9022 C   0  0  0  0  0  0  0  0  0  0  0  0
  -24.9029  -26.8267   21.6560 C   0  0  0  0  0  0  0  0  0  0  0  0
  -19.5433  -31.6565   21.4144 C   0  0  0  0  0  0  0  0  0  0  0  0
  -21.1942  -12.8315   19.9663 C   0  0  0  0  0  0  0  0  0  0  0  0
  -19.8548  -30.3777   20.6434 C   0  0  0  0  0  0  0  0  0  0  0  0
  -22.6560  -13.1243   19.6239 C   0  0  0  0  0  0  0  0  0  0  0  0
  -20.5168  -14.0323   20.6228 C   0  0  0  0  0  0  0  0  0  0  0  0
  -22.6803  -14.8632   21.4609 C   0  0  0  0  0  0  0  0  0  0  0  0
  -19.9932  -29.1812   21.5925 C   0  0  1  0  0  0  0  0  0  0  0  0
  -23.6530  -28.8190   22.5453 C   0  0  1  0  0  0  0  0  0  0  0  0
  -23.4214  -13.6628   20.8476 C   0  0  2  0  0  0  0  0  0  0  0  0
  -17.9814  -17.7757   25.5118 C   0  0  0  0  0  0  0  0  0  0  0  0
  -18.8952  -18.8592   27.5965 C   0  0  0  0  0  0  0  0  0  0  0  0
  -31.0557  -29.3709   20.0647 C   0  0  0  0  0  0  0  0  0  0  0  0
  -24.9248  -28.5827   18.1083 C   0  0  0  0  0  0  0  0  0  0  0  0
  -27.3765  -28.2764   17.7039 C   0  0  0  0  0  0  0  0  0  0  0  0
  -26.5059  -30.4881   18.4610 C   0  0  0  0  0  0  0  0  0  0  0  0
  -21.9786  -19.3494   21.4525 C   0  0  0  0  0  0  0  0  0  0  0  0
  -30.3632  -26.9046   22.8778 C   0  0  0  0  0  0  0  0  0  0  0  0
  -21.6994  -16.2155   26.2171 C   0  0  0  0  0  0  0  0  0  0  0  0
  -20.9981  -15.1064   25.4373 C   0  0  0  0  0  0  0  0  0  0  0  0
  -22.8398  -21.7429   24.2888 C   0  0  0  0  0  0  0  0  0  1  0  0
  -22.7282  -20.3808   23.6003 C   0  0  2  0  0  0  0  0  0  0  0  0
  -19.2249  -17.9127   26.4197 C   0  0  0  0  0  0  0  0  0  0  0  0
  -26.5755  -28.5586   20.0934 C   0  0  1  0  0  0  0  0  0  0  0  0
  -30.2183  -28.6873   21.1343 C   0  0  2  0  0  0  0  0  0  0  0  0
  -26.3322  -28.9610   18.6114 C   0  0  0  0  0  0  0  0  0  0  0  0
  -25.1658  -15.2483   20.1225 N   0  0  0  0  0  0  0  0  0  0  0  0
  -21.5496  -17.5179   25.6059 N   0  0  0  0  0  0  0  0  0  0  0  0
  -24.8616  -13.9963   20.5048 N   0  0  0  0  0  0  0  0  0  0  0  0
  -24.7791  -28.2890   21.7738 N   0  0  0  0  0  0  0  0  0  0  0  0
  -21.2919  -14.4930   21.7773 N   0  0  0  0  0  0  0  0  0  0  0  0
  -25.8052  -11.8597   20.8986 N   0  0  0  0  0  0  0  0  0  0  0  0
  -29.3517  -14.3449   19.6172 N   0  0  0  0  0  0  0  0  0  0  0  0
  -21.2819  -29.2046   22.2507 N   0  0  0  0  0  0  0  0  0  0  0  0
  -27.8907  -28.9289   20.6049 N   0  0  0  0  0  0  0  0  0  0  0  0
  -21.4850  -14.9956   24.0803 N   0  0  0  0  0  0  0  0  0  0  0  0
  -22.0660  -20.5819   22.2714 N   0  3  0  0  0  0  0  0  0  0  0  0
  -31.0544  -27.6415   21.7887 N   0  3  0  0  0  0  0  0  0  0  0  0
  -28.6839  -12.2499   20.2680 O   0  0  0  0  0  0  0  0  0  0  0  0
  -22.5197  -28.1467   20.5861 O   0  0  0  0  0  0  0  0  0  0  0  0
  -25.4884  -30.4074   21.1066 O   0  0  0  0  0  0  0  0  0  0  0  0
  -28.9432  -26.9334   20.0688 O   0  0  0  0  0  0  0  0  0  0  0  0
  -19.4988  -14.2338   23.2249 O   0  0  0  0  0  0  0  0  0  0  0  0
  -29.2624  -19.7372   18.2208 O   0  0  0  0  0  0  0  0  0  0  0  0
  -23.8966  -22.4924   23.6906 O   0  0  0  0  0  0  0  0  0  1  0  0
  -28.1760  -24.4982   20.7814 F   0  0  0  0  0  0  0  0  0  0  0  0
  -31.2525  -21.1164   19.5549 F   0  0  0  0  0  0  0  0  0  0  0  0
  1  2  1  0  0  0  0
  1  5  2  0  0  0  0
  2  6  2  0  0  0  0
  3  8  2  0  0  0  0
  3 17  1  0  0  0  0
  4  9  1  0  0  0  0
  4 17  2  0  0  0  0
  5 19  1  0  0  0  0
  6 21  1  0  0  0  0
  7 10  2  0  0  0  0
  7 20  1  0  0  0  0
  8 24  1  0  0  0  0
  9 24  2  0  0  0  0
 10 25  1  0  0  0  0
 11 12  2  0  0  0  0
 11 26  1  0  0  0  0
 12 27  1  0  0  0  0
 13 22  1  0  0  0  0
 13 25  2  0  0  0  0
 14 23  1  0  0  0  0
 14 30  2  0  0  0  0
 15 27  2  0  0  0  0
 15 28  1  0  0  0  0
 16 23  2  0  0  0  0
 16 66  1  0  0  0  0
 17 29  1  0  0  0  0
 18 29  1  0  0  0  0
 18 31  2  0  0  0  0
 18 32  1  0  0  0  0
 19 21  2  0  0  0  0
 19 37  1  0  0  0  0
 20 22  2  0  0  0  0
 20 38  1  0  0  0  0
 21 46  1  0  0  0  0
 22 39  1  0  0  0  0
 23 60  1  0  0  0  0
 24 82  1  0  0  0  0
 25 83  1  0  0  0  0
 26 28  2  0  0  0  0
 26 82  1  0  0  0  0
 27 84  1  0  0  0  0
 28 85  1  0  0  0  0
 29 65  2  0  0  0  0
 30 61  1  0  0  0  0
 30 66  1  0  0  0  0
 31 67  1  0  0  0  0
 31 70  1  0  0  0  0
 32 71  1  0  0  0  0
 32 77  2  0  0  0  0
 33 47  1  0  0  0  0
 33 72  1  0  0  0  0
 33 78  2  0  0  0  0
 34 62  1  0  0  0  0
 34 68  1  0  0  0  0
 34 79  2  0  0  0  0
 35 63  1  0  0  0  0
 35 73  1  0  0  0  0
 35 80  2  0  0  0  0
 36 69  1  0  0  0  0
 36 74  1  0  0  0  0
 36 81  2  0  0  0  0
 37 40  1  0  0  0  0
 38 47  1  0  0  0  0
 39 68  1  0  0  0  0
 40 42  1  0  0  0  0
 41 43  1  0  0  0  0
 41 44  1  0  0  0  0
 42 46  1  0  0  0  0
 43 48  1  0  0  0  0
 44 69  1  0  0  0  0
 45 48  1  0  0  0  0
 45 69  1  0  0  0  0
 46 72  1  0  0  0  0
 47 68  1  0  0  0  0
 48 67  1  0  0  0  0
 49 61  1  0  0  0  0
 50 61  1  0  0  0  0
 51 63  1  0  0  0  0
 52 64  1  0  0  0  0
 53 64  1  0  0  0  0
 54 64  1  0  0  0  0
 55 75  1  0  0  0  0
 56 76  1  0  0  0  0
 57 58  1  0  0  0  0
 57 66  1  0  0  0  0
 58 74  1  0  0  0  0
 59 60  1  0  0  0  0
 59 83  1  0  0  0  0
 60 75  1  0  0  0  0
 62 64  1  0  0  0  0
 62 73  1  0  0  0  0
 63 76  1  0  0  0  0
 65 67  1  0  0  0  0
M  CHG  2  75   1  76   1
M  ISO  4  36 100  59 101  74 100  83 101
M  END
> <Batch ID>
0111

> <Smiles>
CNC(C)C(=O)NC(C(=O)N1Cc2cc([101O:1][101CH2:1]C(NC)c3cc(C(C)C)n(CC[100NH:0][100C:0](=O)N4CCCC(n5nc(-c6ccc(Oc7ccc(F)cc7F)cc6)c(C(N)=O)c5N)C4)c3)ccc2CC1C(=O)NC1CCCc2ccccc21)C(C)(C)C

> <Shape>
0.218

> <Color>
0.082

> <Negative vol penalty>
0.000

$$$$

  -OEChem-04052320013D

 83 91  0     1  0  0  0  0  0999 V2000
  -22.3979  -23.3650   19.3585 C   0  0  0  0  0  0  0  0  0  0  0  0
  -23.5894  -22.7045   19.6406 C   0  0  0  0  0  0  0  0  0  0  0  0
  -23.3764  -27.4495   18.9357 C   0  0  0  0  0  0  0  0  0  0  0  0
  -23.3596  -26.3220   21.0724 C   0  0  0  0  0  0  0  0  0  0  0  0
  -21.1856  -22.8283   19.7900 C   0  0  0  0  0  0  0  0  0  0  0  0
  -23.5693  -21.5074   20.3554 C   0  0  0  0  0  0  0  0  0  0  0  0
  -26.5908  -17.9843   18.3298 C   0  0  0  0  0  0  0  0  0  0  0  0
  -21.9944  -27.6210   19.0153 C   0  0  0  0  0  0  0  0  0  0  0  0
  -21.9776  -26.4935   21.1521 C   0  0  0  0  0  0  0  0  0  0  0  0
  -27.9582  -18.1001   18.5762 C   0  0  0  0  0  0  0  0  0  0  0  0
  -19.8181  -28.9712   21.9385 C   0  0  0  0  0  0  0  0  0  0  0  0
  -19.2898  -29.4091   23.1528 C   0  0  0  0  0  0  0  0  0  0  0  0
  -27.7824  -16.4261   20.3043 C   0  0  0  0  0  0  0  0  0  0  0  0
  -17.9667  -27.3933   23.3043 C   0  0  0  0  0  0  0  0  0  0  0  0
  -24.0590  -26.7999   19.9643 C   0  0  0  0  0  0  0  0  0  0  0  0
  -26.4810  -27.4998   20.3536 C   0  0  0  0  0  0  0  0  0  0  0  0
  -21.1499  -21.6190   20.5021 C   0  0  0  0  0  0  0  0  0  0  0  0
  -25.8057  -17.0949   19.0774 C   0  0  0  0  0  0  0  0  0  0  0  0
  -22.3555  -20.9547   20.7980 C   0  0  0  0  0  0  0  0  0  0  0  0
  -26.4058  -16.2991   20.0636 C   0  0  0  0  0  0  0  0  0  0  0  0
  -21.2950  -27.1431   20.1235 C   0  0  0  0  0  0  0  0  0  0  0  0
  -28.5536  -17.3230   19.5655 C   0  0  0  0  0  0  0  0  0  0  0  0
  -19.4206  -27.7443   21.4069 C   0  0  0  0  0  0  0  0  0  0  0  0
  -18.3642  -28.6202   23.8358 C   0  0  0  0  0  0  0  0  0  0  0  0
  -18.4949  -26.9553   22.0899 C   0  0  0  0  0  0  0  0  0  0  0  0
  -25.4865  -26.6219   19.8824 C   0  0  0  0  0  0  0  0  0  0  0  0
  -27.6647  -26.8794   20.0366 C   0  0  0  0  0  0  0  0  0  0  0  0
  -26.3469  -28.7629   21.0186 C   0  0  0  0  0  0  0  0  0  0  0  0
  -23.3337  -17.4006   21.0521 C   0  0  0  0  0  0  0  0  0  0  0  0
  -23.3705  -14.1579   20.9752 C   0  0  0  0  0  0  0  0  0  0  0  0
  -25.1474  -11.2924   20.4477 C   0  0  0  0  0  0  0  0  0  0  0  0
  -29.9918  -21.5884   19.7150 C   0  0  0  0  0  0  0  0  0  0  0  0
  -19.8192  -21.1022   20.9887 C   0  0  0  0  0  0  0  0  0  0  0  0
  -24.3370  -16.9624   18.7812 C   0  0  0  0  0  0  0  0  0  0  0  0
  -25.6107  -15.3145   20.8803 C   0  0  0  0  0  0  0  0  0  0  0  0
  -19.8541  -19.6371   21.4159 C   0  0  0  0  0  0  0  0  0  0  0  0
  -29.0133  -23.3901   16.8042 C   0  0  0  0  0  0  0  0  0  0  0  0
  -21.0655  -19.3684   22.3031 C   0  0  0  0  0  0  0  0  0  0  0  0
  -29.7390  -21.3479   24.1728 C   0  0  0  0  0  0  0  0  0  0  0  0
  -28.0965  -24.4888   17.3450 C   0  0  0  0  0  0  0  0  0  0  0  0
  -30.0584  -20.1611   25.1069 C   0  0  0  0  0  0  0  0  0  0  0  0
  -28.8443  -22.0834   17.5761 C   0  0  0  0  0  0  0  0  0  0  0  0
  -28.0833  -23.3017   19.5787 C   0  0  0  0  0  0  0  0  0  0  0  0
  -22.3727  -19.6412   21.5494 C   0  0  1  0  0  0  0  0  0  0  0  0
  -23.5397  -16.3974   19.9527 C   0  0  1  0  0  0  0  0  0  0  0  0
  -30.2761  -20.4810   23.0036 C   0  0  2  0  0  0  0  0  0  0  0  0
  -28.2582  -24.6547   18.8680 C   0  0  2  0  0  0  0  0  0  0  0  0
  -31.1156  -19.7236   24.0689 C   0  0  2  0  0  0  0  0  0  0  0  0
  -24.9166   -8.7941   20.4973 C   0  0  0  0  0  0  0  0  0  0  0  0
  -32.8274  -17.5663   25.5267 C   0  0  0  0  0  0  0  0  0  0  0  0
  -30.8781  -16.0612   24.9704 C   0  0  0  0  0  0  0  0  0  0  0  0
  -23.4731  -14.2114   24.0242 C   0  0  0  0  0  0  0  0  0  0  0  0
  -24.1901  -11.8132   23.9727 C   0  0  0  0  0  0  0  0  0  0  0  0
  -21.9618  -12.4667   23.0617 C   0  0  0  0  0  0  0  0  0  0  0  0
  -25.8005  -11.0588   17.5705 C   0  0  0  0  0  0  0  0  0  0  0  0
  -31.0529  -21.2113   21.9266 C   0  0  0  0  0  0  0  0  0  0  0  0
  -31.5616  -18.0328   21.4192 C   0  0  0  0  0  0  0  0  0  0  0  0
  -32.1415  -17.8349   22.8116 C   0  0  0  0  0  0  0  0  0  0  0  0
  -30.3286  -17.1814   21.1420 C   0  0  0  0  0  0  0  0  0  1  0  0
  -24.0529  -13.0771   21.7785 C   0  0  1  0  0  0  0  0  0  0  0  0
  -24.8331  -10.0467   19.6390 C   0  0  2  0  0  0  0  0  0  0  0  0
  -31.3564  -17.4931   25.1499 C   0  0  0  0  0  0  0  0  0  0  0  0
  -23.4344  -12.9120   23.1954 C   0  0  0  0  0  0  0  0  0  0  0  0
  -25.9941  -25.5274   19.3094 N   0  0  0  0  0  0  0  0  0  0  0  0
  -27.3206  -25.7134   19.4184 N   0  0  0  0  0  0  0  0  0  0  0  0
  -24.1771  -15.2260   20.5575 N   0  0  0  0  0  0  0  0  0  0  0  0
  -29.0113  -22.3095   19.0138 N   0  0  0  0  0  0  0  0  0  0  0  0
  -28.9560  -27.2232   20.2289 N   0  0  0  0  0  0  0  0  0  0  0  0
  -25.0577  -29.2538   21.2666 N   0  0  0  0  0  0  0  0  0  0  0  0
  -22.6758  -18.5477   20.6511 N   0  0  0  0  0  0  0  0  0  0  0  0
  -24.0053  -11.8695   20.9613 N   0  0  0  0  0  0  0  0  0  0  0  0
  -30.0881  -21.8677   21.0727 N   0  0  0  0  0  0  0  0  0  0  0  0
  -25.7941   -9.9068   18.5086 N   0  3  0  0  0  0  0  0  0  0  0  0
  -31.1587  -18.2307   23.8474 N   0  3  1  0  0  0  0  0  0  0  0  0
  -27.3408  -29.4440   21.3674 O   0  0  0  0  0  0  0  0  0  0  0  0
  -23.7401  -17.1517   22.1811 O   0  0  0  0  0  0  0  0  0  0  0  0
  -22.1678  -14.0546   20.7214 O   0  0  0  0  0  0  0  0  0  0  0  0
  -26.2919  -11.7095   20.6107 O   0  0  0  0  0  0  0  0  0  0  0  0
  -30.7306  -20.7610   19.1702 O   0  0  0  0  0  0  0  0  0  0  0  0
  -19.9465  -27.3105   20.2016 O   0  0  0  0  0  0  0  0  0  0  0  0
  -29.8879  -17.4346   19.8085 O   0  0  0  0  0  0  0  0  0  1  0  0
  -17.8581  -29.0402   25.0027 F   0  0  0  0  0  0  0  0  0  0  0  0
  -18.1102  -25.7752   21.5848 F   0  0  0  0  0  0  0  0  0  0  0  0
  1  2  1  0  0  0  0
  1  5  2  0  0  0  0
  2  6  2  0  0  0  0
  3  8  2  0  0  0  0
  3 15  1  0  0  0  0
  4  9  1  0  0  0  0
  4 15  2  0  0  0  0
  5 17  1  0  0  0  0
  6 19  1  0  0  0  0
  7 10  2  0  0  0  0
  7 18  1  0  0  0  0
  8 21  1  0  0  0  0
  9 21  2  0  0  0  0
 10 22  1  0  0  0  0
 11 12  2  0  0  0  0
 11 23  1  0  0  0  0
 12 24  1  0  0  0  0
 13 20  1  0  0  0  0
 13 22  2  0  0  0  0
 14 24  2  0  0  0  0
 14 25  1  0  0  0  0
 15 26  1  0  0  0  0
 16 26  1  0  0  0  0
 16 27  2  0  0  0  0
 16 28  1  0  0  0  0
 17 19  2  0  0  0  0
 17 33  1  0  0  0  0
 18 20  2  0  0  0  0
 18 34  1  0  0  0  0
 19 44  1  0  0  0  0
 20 35  1  0  0  0  0
 21 80  1  0  0  0  0
 22 81  1  0  0  0  0
 23 25  2  0  0  0  0
 23 80  1  0  0  0  0
 24 82  1  0  0  0  0
 25 83  1  0  0  0  0
 26 64  2  0  0  0  0
 27 65  1  0  0  0  0
 27 68  1  0  0  0  0
 28 69  1  0  0  0  0
 28 75  2  0  0  0  0
 29 45  1  0  0  0  0
 29 70  1  0  0  0  0
 29 76  2  0  0  0  0
 30 60  1  0  0  0  0
 30 66  1  0  0  0  0
 30 77  2  0  0  0  0
 31 61  1  0  0  0  0
 31 71  1  0  0  0  0
 31 78  2  0  0  0  0
 32 67  1  0  0  0  0
 32 72  1  0  0  0  0
 32 79  2  0  0  0  0
 33 36  1  0  0  0  0
 34 45  1  0  0  0  0
 35 66  1  0  0  0  0
 36 38  1  0  0  0  0
 37 40  1  0  0  0  0
 37 42  1  0  0  0  0
 38 44  1  0  0  0  0
 39 41  1  0  0  0  0
 39 46  1  0  0  0  0
 40 47  1  0  0  0  0
 41 48  1  0  0  0  0
 42 67  1  0  0  0  0
 43 47  1  0  0  0  0
 43 67  1  0  0  0  0
 44 70  1  0  0  0  0
 45 66  1  0  0  0  0
 46 48  1  0  0  0  0
 46 56  1  0  0  0  0
 47 65  1  0  0  0  0
 48 74  1  0  0  0  0
 49 61  1  0  0  0  0
 50 62  1  0  0  0  0
 51 62  1  0  0  0  0
 52 63  1  0  0  0  0
 53 63  1  0  0  0  0
 54 63  1  0  0  0  0
 55 73  1  0  0  0  0
 56 72  1  0  0  0  0
 57 58  1  0  0  0  0
 57 59  1  0  0  0  0
 58 74  1  0  0  0  0
 59 81  1  0  0  0  0
 60 63  1  0  0  0  0
 60 71  1  0  0  0  0
 61 73  1  0  0  0  0
 62 74  1  0  0  0  0
 64 65  1  0  0  0  0
M  CHG  2  73   1  74   1
M  ISO  4  32 100  59 101  72 100  81 101
M  END
> <Batch ID>
0111

> <Smiles>
CNC(C)C(=O)NC(C(=O)N1Cc2cc([101O:1][101CH2:1]CCN(C(C)C)C3CCC3C[100NH:0][100C:0](=O)N3CCCC(n4nc(-c5ccc(Oc6ccc(F)cc6F)cc5)c(C(N)=O)c4N)C3)ccc2CC1C(=O)NC1CCCc2ccccc21)C(C)(C)C

> <Shape>
0.213

> <Color>
0.068

> <Negative vol penalty>
0.000

$$$$

  -OEChem-04052320013D

 85 93  0     1  0  0  0  0  0999 V2000
  -30.5867  -24.5959   13.8299 C   0  0  0  0  0  0  0  0  0  0  0  0
  -29.9497  -24.0444   14.9369 C   0  0  0  0  0  0  0  0  0  0  0  0
  -30.6099  -18.1709   20.9984 C   0  0  0  0  0  0  0  0  0  0  0  0
  -28.3758  -17.6121   20.2678 C   0  0  0  0  0  0  0  0  0  0  0  0
  -31.0894  -25.8949   13.8917 C   0  0  0  0  0  0  0  0  0  0  0  0
  -29.8161  -24.7913   16.1069 C   0  0  0  0  0  0  0  0  0  0  0  0
  -25.1760  -24.4549   18.1072 C   0  0  0  0  0  0  0  0  0  0  0  0
  -31.0948  -17.0039   20.4081 C   0  0  0  0  0  0  0  0  0  0  0  0
  -28.8607  -16.4451   19.6775 C   0  0  0  0  0  0  0  0  0  0  0  0
  -24.8727  -23.2962   18.8208 C   0  0  0  0  0  0  0  0  0  0  0  0
  -29.7926  -13.3512   20.6728 C   0  0  0  0  0  0  0  0  0  0  0  0
  -29.0758  -12.1731   20.8818 C   0  0  0  0  0  0  0  0  0  0  0  0
  -25.2768  -24.4712   20.8885 C   0  0  0  0  0  0  0  0  0  0  0  0
  -20.3759  -19.6111   24.8996 C   0  0  0  0  0  0  0  0  0  0  0  0
  -28.7350  -11.9579   18.4997 C   0  0  0  0  0  0  0  0  0  0  0  0
  -20.5694  -20.4146   27.1297 C   0  0  0  0  0  0  0  0  0  0  0  0
  -29.2503  -18.4750   20.9283 C   0  0  0  0  0  0  0  0  0  0  0  0
  -28.6268  -20.9486   20.9401 C   0  0  0  0  0  0  0  0  0  0  0  0
  -30.9534  -26.6615   15.0598 C   0  0  0  0  0  0  0  0  0  0  0  0
  -25.5431  -25.6294   18.7796 C   0  0  0  0  0  0  0  0  0  0  0  0
  -30.3187  -26.1013   16.1848 C   0  0  0  0  0  0  0  0  0  0  0  0
  -25.5818  -25.6441   20.1812 C   0  0  0  0  0  0  0  0  0  0  0  0
  -19.7612  -19.9857   26.0892 C   0  0  0  0  0  0  0  0  0  0  0  0
  -21.7604  -19.6759   24.7885 C   0  0  0  0  0  0  0  0  0  0  0  0
  -30.2203  -16.1410   19.7477 C   0  0  0  0  0  0  0  0  0  0  0  0
  -24.9259  -23.3034   20.2115 C   0  0  0  0  0  0  0  0  0  0  0  0
  -29.9806  -13.8328   19.3772 C   0  0  0  0  0  0  0  0  0  0  0  0
  -28.5470  -11.4764   19.7953 C   0  0  0  0  0  0  0  0  0  0  0  0
  -29.4518  -13.1361   18.2907 C   0  0  0  0  0  0  0  0  0  0  0  0
  -28.7487  -19.6801   21.5384 C   0  0  0  0  0  0  0  0  0  0  0  0
  -22.4790  -20.1189   25.8872 C   0  0  0  0  0  0  0  0  0  0  0  0
  -28.1033  -21.7456   21.9287 C   0  0  0  0  0  0  0  0  0  0  0  0
  -28.9572  -21.3689   19.6098 C   0  0  0  0  0  0  0  0  0  0  0  0
  -28.1433  -27.4566   18.8463 C   0  0  0  0  0  0  0  0  0  0  0  0
  -26.2755  -29.3721   20.6806 C   0  0  0  0  0  0  0  0  0  0  0  0
  -23.5914  -29.6620   22.7683 C   0  0  0  0  0  0  0  0  0  0  0  0
  -24.7895  -20.6017   26.7676 C   0  0  0  0  0  0  0  0  0  0  0  0
  -31.5548  -28.0442   15.0948 C   0  0  0  0  0  0  0  0  0  0  0  0
  -25.8413  -26.8783   17.9962 C   0  0  0  0  0  0  0  0  0  0  0  0
  -25.9505  -26.8848   20.9514 C   0  0  0  0  0  0  0  0  0  0  0  0
  -31.0408  -28.9030   16.2474 C   0  0  0  0  0  0  0  0  0  0  0  0
  -27.9699  -22.2005   26.6942 C   0  0  0  0  0  0  0  0  0  0  0  0
  -31.0546  -28.1107   17.5509 C   0  0  0  0  0  0  0  0  0  0  0  0
  -28.5169  -21.8561   25.3069 C   0  0  0  0  0  0  0  0  0  0  0  0
  -27.1777  -21.0409   27.2953 C   0  0  0  0  0  0  0  0  0  0  0  0
  -26.6559  -20.1653   25.0525 C   0  0  0  0  0  0  0  0  0  0  0  0
  -30.1324  -26.8887   17.4636 C   0  0  1  0  0  0  0  0  0  0  0  0
  -26.7024  -27.8751   18.7659 C   0  0  1  0  0  0  0  0  0  0  0  0
  -27.4063  -21.3258   24.3790 C   0  0  2  0  0  0  0  0  0  0  0  0
  -17.7289  -18.4947   26.0996 C   0  0  0  0  0  0  0  0  0  0  0  0
  -17.5490  -20.8651   25.2606 C   0  0  0  0  0  0  0  0  0  0  0  0
  -22.3356  -31.3469   24.1399 C   0  0  0  0  0  0  0  0  0  0  0  0
  -24.7568  -19.3115   21.4856 C   0  0  0  0  0  0  0  0  0  0  0  0
  -28.4896  -29.3102   22.7792 C   0  0  0  0  0  0  0  0  0  0  0  0
  -26.8361  -30.1754   24.4483 C   0  0  0  0  0  0  0  0  0  0  0  0
  -27.4252  -31.5494   22.4514 C   0  0  0  0  0  0  0  0  0  0  0  0
  -21.1006  -29.2306   21.2293 C   0  0  0  0  0  0  0  0  0  0  0  0
  -22.4235  -19.2697   23.4961 C   0  0  0  0  0  0  0  0  0  0  0  0
  -22.8218  -20.4513   22.6009 C   0  0  0  0  0  0  0  0  0  0  0  0
  -23.6930  -21.2728   20.3232 C   0  0  0  0  0  0  0  0  0  1  0  0
  -18.2828  -19.9270   26.2400 C   0  0  0  0  0  0  0  0  0  0  0  0
  -25.9898  -29.4889   22.1584 C   0  0  1  0  0  0  0  0  0  0  0  0
  -22.4367  -30.6472   22.7935 C   0  0  2  0  0  0  0  0  0  0  0  0
  -23.4448  -20.0677   21.2404 C   0  0  1  0  0  0  0  0  0  0  0  0
  -27.1801  -30.1069   22.9450 C   0  0  0  0  0  0  0  0  0  0  0  0
  -21.9173  -20.4911   27.0591 N   0  0  0  0  0  0  0  0  0  0  0  0
  -28.3360  -19.6673   22.8086 N   0  0  0  0  0  0  0  0  0  0  0  0
  -27.9497  -20.9375   23.0167 N   0  0  0  0  0  0  0  0  0  0  0  0
  -26.2396  -28.0789   20.1401 N   0  0  0  0  0  0  0  0  0  0  0  0
  -26.1409  -20.5941   26.3624 N   0  0  0  0  0  0  0  0  0  0  0  0
  -27.7640  -23.0517   21.9648 N   0  0  0  0  0  0  0  0  0  0  0  0
  -29.4853  -20.4220   18.7217 N   0  0  0  0  0  0  0  0  0  0  0  0
  -23.8907  -20.1868   25.7854 N   0  0  0  0  0  0  0  0  0  0  0  0
  -28.7495  -27.2873   17.6162 N   0  0  0  0  0  0  0  0  0  0  0  0
  -24.7432  -30.2377   22.2752 N   0  0  0  0  0  0  0  0  0  0  0  0
  -21.1495  -29.9432   22.5319 N   0  3  0  0  0  0  0  0  0  0  0  0
  -28.8044  -22.5531   19.2252 O   0  0  0  0  0  0  0  0  0  0  0  0
  -28.6667  -27.3003   19.9433 O   0  0  0  0  0  0  0  0  0  0  0  0
  -26.5145  -30.3915   20.0284 O   0  0  0  0  0  0  0  0  0  0  0  0
  -23.4835  -28.4992   23.1514 O   0  0  0  0  0  0  0  0  0  0  0  0
  -24.4516  -20.9764   27.8934 O   0  0  0  0  0  0  0  0  0  0  0  0
  -30.6932  -15.0022   19.1713 O   0  0  0  0  0  0  0  0  0  0  0  0
  -24.6310  -22.1737   20.9105 O   0  0  0  0  0  0  0  0  0  1  0  0
  -27.8600  -10.3442   19.9960 F   0  0  0  0  0  0  0  0  0  0  0  0
  -29.6301  -13.5931   17.0436 F   0  0  0  0  0  0  0  0  0  0  0  0
  1  2  1  0  0  0  0
  1  5  2  0  0  0  0
  2  6  2  0  0  0  0
  3  8  2  0  0  0  0
  3 17  1  0  0  0  0
  4  9  1  0  0  0  0
  4 17  2  0  0  0  0
  5 19  1  0  0  0  0
  6 21  1  0  0  0  0
  7 10  2  0  0  0  0
  7 20  1  0  0  0  0
  8 25  1  0  0  0  0
  9 25  2  0  0  0  0
 10 26  1  0  0  0  0
 11 12  2  0  0  0  0
 11 27  1  0  0  0  0
 12 28  1  0  0  0  0
 13 22  1  0  0  0  0
 13 26  2  0  0  0  0
 14 23  2  0  0  0  0
 14 24  1  0  0  0  0
 15 28  2  0  0  0  0
 15 29  1  0  0  0  0
 16 23  1  0  0  0  0
 16 66  2  0  0  0  0
 17 30  1  0  0  0  0
 18 30  1  0  0  0  0
 18 32  2  0  0  0  0
 18 33  1  0  0  0  0
 19 21  2  0  0  0  0
 19 38  1  0  0  0  0
 20 22  2  0  0  0  0
 20 39  1  0  0  0  0
 21 47  1  0  0  0  0
 22 40  1  0  0  0  0
 23 61  1  0  0  0  0
 24 31  2  0  0  0  0
 24 58  1  0  0  0  0
 25 82  1  0  0  0  0
 26 83  1  0  0  0  0
 27 29  2  0  0  0  0
 27 82  1  0  0  0  0
 28 84  1  0  0  0  0
 29 85  1  0  0  0  0
 30 67  2  0  0  0  0
 31 66  1  0  0  0  0
 31 73  1  0  0  0  0
 32 68  1  0  0  0  0
 32 71  1  0  0  0  0
 33 72  1  0  0  0  0
 33 77  2  0  0  0  0
 34 48  1  0  0  0  0
 34 74  1  0  0  0  0
 34 78  2  0  0  0  0
 35 62  1  0  0  0  0
 35 69  1  0  0  0  0
 35 79  2  0  0  0  0
 36 63  1  0  0  0  0
 36 75  1  0  0  0  0
 36 80  2  0  0  0  0
 37 70  1  0  0  0  0
 37 73  1  0  0  0  0
 37 81  2  0  0  0  0
 38 41  1  0  0  0  0
 39 48  1  0  0  0  0
 40 69  1  0  0  0  0
 41 43  1  0  0  0  0
 42 44  1  0  0  0  0
 42 45  1  0  0  0  0
 43 47  1  0  0  0  0
 44 49  1  0  0  0  0
 45 70  1  0  0  0  0
 46 49  1  0  0  0  0
 46 70  1  0  0  0  0
 47 74  1  0  0  0  0
 48 69  1  0  0  0  0
 49 68  1  0  0  0  0
 50 61  1  0  0  0  0
 51 61  1  0  0  0  0
 52 63  1  0  0  0  0
 53 64  1  0  0  0  0
 54 65  1  0  0  0  0
 55 65  1  0  0  0  0
 56 65  1  0  0  0  0
 57 76  1  0  0  0  0
 58 59  1  0  0  0  0
 59 64  1  0  0  0  0
 60 64  1  0  0  0  0
 60 83  1  0  0  0  0
 62 65  1  0  0  0  0
 62 75  1  0  0  0  0
 63 76  1  0  0  0  0
 67 68  1  0  0  0  0
M  CHG  1  76   1
M  ISO  4  37 100  60 101  73 100  83 101
M  END
> <Batch ID>
0111

> <Smiles>
CNC(C)C(=O)NC(C(=O)N1Cc2cc([101O:1][101CH2:1]C(C)CCc3cc(C(C)C)cnc3[100NH:0][100C:0](=O)N3CCCC(n4nc(-c5ccc(Oc6ccc(F)cc6F)cc5)c(C(N)=O)c4N)C3)ccc2CC1C(=O)NC1CCCc2ccccc21)C(C)(C)C

> <Shape>
0.192

> <Color>
0.076

> <Negative vol penalty>
0.000

$$$$

  -OEChem-04052320013D

 91 99  0     1  0  0  0  0  0999 V2000
  -21.3681  -30.9638   25.0740 C   0  0  0  0  0  0  0  0  0  0  0  0
  -21.3574  -29.5726   25.0754 C   0  0  0  0  0  0  0  0  0  0  0  0
  -23.3665   -9.7776   21.5072 C   0  0  0  0  0  0  0  0  0  0  0  0
  -24.0721  -10.7689   23.5944 C   0  0  0  0  0  0  0  0  0  0  0  0
  -21.8476  -31.6550   23.9622 C   0  0  0  0  0  0  0  0  0  0  0  0
  -21.8252  -28.8719   23.9643 C   0  0  0  0  0  0  0  0  0  0  0  0
  -24.7957  -23.5163   23.9725 C   0  0  0  0  0  0  0  0  0  0  0  0
  -22.7089   -8.7675   22.2092 C   0  0  0  0  0  0  0  0  0  0  0  0
  -23.4144   -9.7589   24.2964 C   0  0  0  0  0  0  0  0  0  0  0  0
  -24.3689  -22.2067   23.7566 C   0  0  0  0  0  0  0  0  0  0  0  0
  -19.7995   -8.3904   23.8903 C   0  0  0  0  0  0  0  0  0  0  0  0
  -18.5113   -8.0482   23.4791 C   0  0  0  0  0  0  0  0  0  0  0  0
  -25.0477  -22.3725   21.4477 C   0  0  0  0  0  0  0  0  0  0  0  0
  -19.2495   -5.7886   23.0473 C   0  0  0  0  0  0  0  0  0  0  0  0
  -24.0482  -10.7783   22.1998 C   0  0  0  0  0  0  0  0  0  0  0  0
  -24.1958  -13.0595   21.0674 C   0  0  0  0  0  0  0  0  0  0  0  0
  -22.3305  -30.9623   22.8408 C   0  0  0  0  0  0  0  0  0  0  0  0
  -25.3425  -24.2688   22.9232 C   0  0  0  0  0  0  0  0  0  0  0  0
  -22.3104  -29.5545   22.8358 C   0  0  0  0  0  0  0  0  0  0  0  0
  -25.4830  -23.6906   21.6535 C   0  0  0  0  0  0  0  0  0  0  0  0
  -22.7328   -8.7582   23.6038 C   0  0  0  0  0  0  0  0  0  0  0  0
  -24.4923  -21.6356   22.4934 C   0  0  0  0  0  0  0  0  0  0  0  0
  -20.8127   -7.4317   23.8799 C   0  0  0  0  0  0  0  0  0  0  0  0
  -18.2363   -6.7473   23.0577 C   0  0  0  0  0  0  0  0  0  0  0  0
  -20.5377   -6.1308   23.4584 C   0  0  0  0  0  0  0  0  0  0  0  0
  -24.7282  -11.8217   21.4752 C   0  0  0  0  0  0  0  0  0  0  0  0
  -25.2345  -13.6837   20.4209 C   0  0  0  0  0  0  0  0  0  0  0  0
  -28.4595  -17.5104   24.4838 C   0  0  0  0  0  0  0  0  0  0  0  0
  -22.8801  -13.5970   21.2564 C   0  0  0  0  0  0  0  0  0  0  0  0
  -30.4949  -17.5302   23.0142 C   0  0  0  0  0  0  0  0  0  0  0  0
  -24.5363  -26.9592   21.4347 C   0  0  0  0  0  0  0  0  0  0  0  0
  -27.3907  -26.5362   19.9530 C   0  0  0  0  0  0  0  0  0  0  0  0
  -29.8584  -24.3904   18.9770 C   0  0  0  0  0  0  0  0  0  0  0  0
  -31.1859  -13.1500   20.8042 C   0  0  0  0  0  0  0  0  0  0  0  0
  -34.5039  -20.3474   24.0302 C   0  0  0  0  0  0  0  0  0  0  0  0
  -22.7950  -31.7532   21.6435 C   0  0  0  0  0  0  0  0  0  0  0  0
  -25.8227  -25.6711   23.1789 C   0  0  0  0  0  0  0  0  0  0  0  0
  -26.0821  -24.4492   20.4985 C   0  0  0  0  0  0  0  0  0  0  0  0
  -26.9908  -17.4679   24.1820 C   0  0  0  0  0  0  0  0  0  0  0  0
  -23.6211  -30.9338   20.6554 C   0  0  0  0  0  0  0  0  0  0  0  0
  -29.1823  -12.7332   17.8907 C   0  0  0  0  0  0  0  0  0  0  0  0
  -22.9470  -29.5937   20.3784 C   0  0  0  0  0  0  0  0  0  0  0  0
  -27.7656  -12.5640   18.4422 C   0  0  0  0  0  0  0  0  0  0  0  0
  -30.2219  -12.0720   18.7930 C   0  0  0  0  0  0  0  0  0  0  0  0
  -28.7550  -12.3222   20.7576 C   0  0  0  0  0  0  0  0  0  0  0  0
  -22.8325  -28.7586   21.6594 C   0  0  1  0  0  0  0  0  0  0  0  0
  -29.2278  -18.2178   23.3993 C   0  0  1  0  0  0  0  0  0  0  0  0
  -25.8912  -26.5194   21.9127 C   0  0  1  0  0  0  0  0  0  0  0  0
  -27.6773  -13.0206   19.9108 C   0  0  2  0  0  0  0  0  0  0  0  0
  -28.2210  -18.2373   22.2419 C   0  0  2  0  0  0  0  0  0  0  0  0
  -28.4012  -19.4431   21.3306 C   0  0  0  0  0  0  0  0  0  0  0  0
  -32.0468  -24.3321   17.7501 C   0  0  0  0  0  0  0  0  0  0  0  0
  -25.9057  -26.7721   17.2979 C   0  0  0  0  0  0  0  0  0  0  0  0
  -27.9078  -25.7788   16.1696 C   0  0  0  0  0  0  0  0  0  0  0  0
  -28.1074  -27.9560   17.3706 C   0  0  0  0  0  0  0  0  0  0  0  0
  -31.3035  -23.4060   21.3648 C   0  0  0  0  0  0  0  0  0  0  0  0
  -31.6348  -18.3919   22.5008 C   0  0  0  0  0  0  0  0  0  0  0  0
  -24.3966  -18.0511   22.8545 C   0  0  0  0  0  0  0  0  0  0  0  0
  -31.9935  -15.7312   22.7105 C   0  0  0  0  0  0  0  0  0  0  0  0
  -32.0034  -14.2226   22.8876 C   0  0  0  0  0  0  0  0  0  0  0  0
  -32.5038  -18.8915   23.6454 C   0  0  0  0  0  0  0  0  0  0  0  0
  -25.6978  -17.9103   22.0790 C   0  0  0  0  0  0  0  0  0  0  0  0
  -24.1482  -19.4578   23.3850 C   0  0  0  0  0  0  0  0  0  1  0  0
  -27.8519  -25.8236   18.7046 C   0  0  1  0  0  0  0  0  0  0  0  0
  -31.3691  -24.4675   19.1048 C   0  0  2  0  0  0  0  0  0  0  0  0
  -27.4301  -26.5687   17.4068 C   0  0  0  0  0  0  0  0  0  0  0  0
  -26.0057  -11.6669   21.1174 N   0  0  0  0  0  0  0  0  0  0  0  0
  -30.7050  -16.2621   23.1280 N   0  0  0  0  0  0  0  0  0  0  0  0
  -26.2848  -12.8155   20.4781 N   0  0  0  0  0  0  0  0  0  0  0  0
  -26.5309  -25.8192   20.7971 N   0  0  0  0  0  0  0  0  0  0  0  0
  -30.0853  -12.5491   20.1713 N   0  0  0  0  0  0  0  0  0  0  0  0
  -25.3426  -14.8850   19.8146 N   0  0  0  0  0  0  0  0  0  0  0  0
  -21.9344  -12.8231   21.9427 N   0  0  0  0  0  0  0  0  0  0  0  0
  -35.5237  -21.1313   23.5010 N   0  0  0  0  0  0  0  0  0  0  0  0
  -34.4097  -20.1983   25.4100 N   0  0  0  0  0  0  0  0  0  0  0  0
  -24.1062  -28.1525   21.9831 N   0  0  0  0  0  0  0  0  0  0  0  0
  -29.2923  -25.6409   18.8474 N   0  0  0  0  0  0  0  0  0  0  0  0
  -30.9693  -13.5799   22.1077 N   0  0  0  0  0  0  0  0  0  0  0  0
  -33.6012  -19.7298   23.1638 N   0  3  0  0  0  0  0  0  0  0  0  0
  -26.8643  -18.3019   22.9311 N   0  3  1  0  0  0  0  0  0  0  0  0
  -31.8701  -23.3798   19.9918 N   0  3  0  0  0  0  0  0  0  0  0  0
  -28.9619  -17.0276   25.4901 O   0  0  0  0  0  0  0  0  0  0  0  0
  -22.5480  -14.7231   20.8149 O   0  0  0  0  0  0  0  0  0  0  0  0
  -23.9268  -26.2680   20.6270 O   0  0  0  0  0  0  0  0  0  0  0  0
  -27.7845  -27.6839   20.1746 O   0  0  0  0  0  0  0  0  0  0  0  0
  -29.2425  -23.3268   18.9870 O   0  0  0  0  0  0  0  0  0  0  0  0
  -32.2789  -13.2977   20.2470 O   0  0  0  0  0  0  0  0  0  0  0  0
  -22.0909   -7.7728   24.2891 O   0  0  0  0  0  0  0  0  0  0  0  0
  -24.0760  -20.3577   22.2798 O   0  0  0  0  0  0  0  0  0  1  0  0
  -16.9988   -6.4184   22.6643 F   0  0  0  0  0  0  0  0  0  0  0  0
  -21.5067   -5.2052   23.4474 F   0  0  0  0  0  0  0  0  0  0  0  0
  1  2  1  0  0  0  0
  1  5  2  0  0  0  0
  2  6  2  0  0  0  0
  3  8  2  0  0  0  0
  3 15  1  0  0  0  0
  4  9  1  0  0  0  0
  4 15  2  0  0  0  0
  5 17  1  0  0  0  0
  6 19  1  0  0  0  0
  7 10  2  0  0  0  0
  7 18  1  0  0  0  0
  8 21  1  0  0  0  0
  9 21  2  0  0  0  0
 10 22  1  0  0  0  0
 11 12  2  0  0  0  0
 11 23  1  0  0  0  0
 12 24  1  0  0  0  0
 13 20  1  0  0  0  0
 13 22  2  0  0  0  0
 14 24  2  0  0  0  0
 14 25  1  0  0  0  0
 15 26  1  0  0  0  0
 16 26  1  0  0  0  0
 16 27  2  0  0  0  0
 16 29  1  0  0  0  0
 17 19  2  0  0  0  0
 17 36  1  0  0  0  0
 18 20  2  0  0  0  0
 18 37  1  0  0  0  0
 19 46  1  0  0  0  0
 20 38  1  0  0  0  0
 21 88  1  0  0  0  0
 22 89  1  0  0  0  0
 23 25  2  0  0  0  0
 23 88  1  0  0  0  0
 24 90  1  0  0  0  0
 25 91  1  0  0  0  0
 26 67  2  0  0  0  0
 27 69  1  0  0  0  0
 27 72  1  0  0  0  0
 28 39  1  0  0  0  0
 28 47  1  0  0  0  0
 28 82  2  0  0  0  0
 29 73  1  0  0  0  0
 29 83  2  0  0  0  0
 30 47  1  0  0  0  0
 30 57  1  0  0  0  0
 30 68  2  0  0  0  0
 31 48  1  0  0  0  0
 31 76  1  0  0  0  0
 31 84  2  0  0  0  0
 32 64  1  0  0  0  0
 32 70  1  0  0  0  0
 32 85  2  0  0  0  0
 33 65  1  0  0  0  0
 33 77  1  0  0  0  0
 33 86  2  0  0  0  0
 34 71  1  0  0  0  0
 34 78  1  0  0  0  0
 34 87  2  0  0  0  0
 35 74  1  0  0  0  0
 35 75  1  0  0  0  0
 35 79  2  0  0  0  0
 36 40  1  0  0  0  0
 37 48  1  0  0  0  0
 38 70  1  0  0  0  0
 39 80  1  0  0  0  0
 40 42  1  0  0  0  0
 41 43  1  0  0  0  0
 41 44  1  0  0  0  0
 42 46  1  0  0  0  0
 43 49  1  0  0  0  0
 44 71  1  0  0  0  0
 45 49  1  0  0  0  0
 45 71  1  0  0  0  0
 46 76  1  0  0  0  0
 47 50  1  0  0  0  0
 48 70  1  0  0  0  0
 49 69  1  0  0  0  0
 50 51  1  0  0  0  0
 50 80  1  0  0  0  0
 52 65  1  0  0  0  0
 53 66  1  0  0  0  0
 54 66  1  0  0  0  0
 55 66  1  0  0  0  0
 56 81  1  0  0  0  0
 57 61  1  0  0  0  0
 58 62  1  0  0  0  0
 58 63  1  0  0  0  0
 59 60  1  0  0  0  0
 59 68  1  0  0  0  0
 60 78  1  0  0  0  0
 61 79  1  0  0  0  0
 62 80  1  0  0  0  0
 63 89  1  0  0  0  0
 64 66  1  0  0  0  0
 64 77  1  0  0  0  0
 65 81  1  0  0  0  0
 67 69  1  0  0  0  0
M  CHG  3  79   1  80   1  81   1
M  ISO  4  34 100  63 101  78 100  89 101
M  END
> <Batch ID>
0111

> <Smiles>
CNC(C)C(=O)NC(C(=O)N1Cc2cc([101O:1][101CH2:1]CCN3CC(=O)C(=C(CCNC(=N)N)NCC[100NH:0][100C:0](=O)N4CCCC(n5nc(-c6ccc(Oc7ccc(F)cc7F)cc6)c(C(N)=O)c5N)C4)C3C)ccc2CC1C(=O)NC1CCCc2ccccc21)C(C)(C)C

> <Shape>
0.237

> <Color>
0.128

> <Negative vol penalty>
0.000

$$$$

  -OEChem-04052320013D

 82 89  0     1  0  0  0  0  0999 V2000
  -16.8071  -29.2372   24.1869 C   0  0  0  0  0  0  0  0  0  0  0  0
  -17.1538  -28.4224   23.1138 C   0  0  0  0  0  0  0  0  0  0  0  0
  -30.8031  -15.6236   21.2591 C   0  0  0  0  0  0  0  0  0  0  0  0
  -31.1957  -15.7490   18.8785 C   0  0  0  0  0  0  0  0  0  0  0  0
  -17.6280  -30.3066   24.5424 C   0  0  0  0  0  0  0  0  0  0  0  0
  -18.3212  -28.6773   22.3950 C   0  0  0  0  0  0  0  0  0  0  0  0
  -22.0351  -24.5447   19.8193 C   0  0  0  0  0  0  0  0  0  0  0  0
  -30.7556  -14.2320   21.1780 C   0  0  0  0  0  0  0  0  0  0  0  0
  -31.1483  -14.3573   18.7974 C   0  0  0  0  0  0  0  0  0  0  0  0
  -22.1529  -24.0756   18.5117 C   0  0  0  0  0  0  0  0  0  0  0  0
  -30.7724  -10.8544   17.9039 C   0  0  0  0  0  0  0  0  0  0  0  0
  -30.0327  -10.2904   16.8645 C   0  0  0  0  0  0  0  0  0  0  0  0
  -23.9318  -25.6551   18.1117 C   0  0  0  0  0  0  0  0  0  0  0  0
  -28.0408  -11.3795   17.6910 C   0  0  0  0  0  0  0  0  0  0  0  0
  -31.0231  -16.3822   20.1093 C   0  0  0  0  0  0  0  0  0  0  0  0
  -32.2069  -18.6202   20.4215 C   0  0  0  0  0  0  0  0  0  0  0  0
  -18.8110  -30.5689   23.8335 C   0  0  0  0  0  0  0  0  0  0  0  0
  -22.8587  -25.5818   20.2803 C   0  0  0  0  0  0  0  0  0  0  0  0
  -19.1580  -29.7521   22.7405 C   0  0  0  0  0  0  0  0  0  0  0  0
  -23.8242  -26.1338   19.4264 C   0  0  0  0  0  0  0  0  0  0  0  0
  -30.9282  -13.5988   19.9472 C   0  0  0  0  0  0  0  0  0  0  0  0
  -23.0994  -24.6327   17.6568 C   0  0  0  0  0  0  0  0  0  0  0  0
  -30.1463  -11.6809   18.8369 C   0  0  0  0  0  0  0  0  0  0  0  0
  -28.6669  -10.5530   16.7580 C   0  0  0  0  0  0  0  0  0  0  0  0
  -28.7805  -11.9435   18.7305 C   0  0  0  0  0  0  0  0  0  0  0  0
  -31.0717  -17.8198   20.1923 C   0  0  0  0  0  0  0  0  0  0  0  0
  -31.7276  -19.9073   20.4094 C   0  0  0  0  0  0  0  0  0  0  0  0
  -33.5725  -18.2347   20.6269 C   0  0  0  0  0  0  0  0  0  0  0  0
  -22.3612  -28.5282   21.3641 C   0  0  0  0  0  0  0  0  0  0  0  0
  -25.0566  -24.4620   14.8529 C   0  0  0  0  0  0  0  0  0  0  0  0
  -25.5504  -28.4328   21.9489 C   0  0  0  0  0  0  0  0  0  0  0  0
  -28.5933  -27.0791   21.2039 C   0  0  0  0  0  0  0  0  0  0  0  0
  -28.4660  -23.8162   17.9544 C   0  0  0  0  0  0  0  0  0  0  0  0
  -19.6420  -31.7650   24.2254 C   0  0  0  0  0  0  0  0  0  0  0  0
  -22.7372  -26.0583   21.7018 C   0  0  0  0  0  0  0  0  0  0  0  0
  -24.7463  -27.2353   19.8789 C   0  0  0  0  0  0  0  0  0  0  0  0
  -21.0545  -31.7411   23.6470 C   0  0  0  0  0  0  0  0  0  0  0  0
  -27.0093  -21.6783   20.4765 C   0  0  0  0  0  0  0  0  0  0  0  0
  -21.0186  -31.3809   22.1652 C   0  0  0  0  0  0  0  0  0  0  0  0
  -28.0009  -20.5259   20.6066 C   0  0  0  0  0  0  0  0  0  0  0  0
  -26.9484  -22.1934   19.0437 C   0  0  0  0  0  0  0  0  0  0  0  0
  -29.2919  -21.4871   18.6397 C   0  0  0  0  0  0  0  0  0  0  0  0
  -20.4290  -29.9815   21.9518 C   0  0  1  0  0  0  0  0  0  0  0  0
  -23.2788  -27.4696   21.9072 C   0  0  1  0  0  0  0  0  0  0  0  0
  -29.3830  -20.9374   20.0763 C   0  0  2  0  0  0  0  0  0  0  0  0
  -24.2595  -22.1884   15.5767 C   0  0  0  0  0  0  0  0  0  0  0  0
  -31.0527  -26.6243   21.4089 C   0  0  0  0  0  0  0  0  0  0  0  0
  -29.0061  -25.9842   12.4870 C   0  0  0  0  0  0  0  0  0  0  0  0
  -25.7934  -31.0231   20.3548 C   0  0  0  0  0  0  0  0  0  0  0  0
  -28.2581  -30.6127   20.1964 C   0  0  0  0  0  0  0  0  0  0  0  0
  -27.1906  -30.9386   22.4273 C   0  0  0  0  0  0  0  0  0  0  0  0
  -28.1427  -24.8675   23.1183 C   0  0  0  0  0  0  0  0  0  0  0  0
  -26.4299  -24.0490   14.3548 C   0  0  0  0  0  0  0  0  0  0  0  0
  -29.3956  -24.5758   14.5801 C   0  0  0  0  0  0  0  0  0  0  0  0
  -30.1031  -25.3341   16.8716 C   0  0  0  0  0  0  0  0  0  0  0  0
  -24.4732  -23.6325   15.9930 C   0  0  2  0  0  0  0  0  0  1  0  0
  -26.7920  -28.7844   21.1654 C   0  0  1  0  0  0  0  0  0  0  0  0
  -29.6967  -26.5315   22.0911 C   0  0  2  0  0  0  0  0  0  0  0  0
  -28.4672  -24.8944   13.4086 C   0  0  1  0  0  0  0  0  0  0  0  0
  -26.9900  -30.3203   21.0266 C   0  0  0  0  0  0  0  0  0  0  0  0
  -29.9553  -18.5383   20.0455 N   0  0  0  0  0  0  0  0  0  0  0  0
  -30.3867  -19.8036   20.1829 N   0  0  0  0  0  0  0  0  0  0  0  0
  -24.5845  -27.6714   21.2757 N   0  0  0  0  0  0  0  0  0  0  0  0
  -28.2765  -22.5493   18.5362 N   0  0  0  0  0  0  0  0  0  0  0  0
  -32.3266  -21.1063   20.5706 N   0  0  0  0  0  0  0  0  0  0  0  0
  -33.8916  -16.8701   20.6084 N   0  0  0  0  0  0  0  0  0  0  0  0
  -21.4108  -28.9660   22.2667 N   0  0  0  0  0  0  0  0  0  0  0  0
  -27.8979  -28.0963   21.8226 N   0  0  0  0  0  0  0  0  0  0  0  0
  -29.7517  -24.0772   17.4956 N   0  0  0  0  0  0  0  0  0  0  0  0
  -27.1406  -25.2301   13.8705 N   0  0  0  0  0  0  0  0  0  0  0  0
  -29.4339  -25.1024   22.4222 N   0  3  0  0  0  0  0  0  0  0  0  0
  -29.2681  -25.5893   15.6631 N   0  3  0  0  0  0  0  0  0  0  0  0
  -34.4801  -19.0746   20.8374 O   0  0  0  0  0  0  0  0  0  0  0  0
  -22.5057  -28.9200   20.2120 O   0  0  0  0  0  0  0  0  0  0  0  0
  -24.4376  -25.4131   14.3738 O   0  0  0  0  0  0  0  0  0  0  0  0
  -25.4448  -28.8134   23.1175 O   0  0  0  0  0  0  0  0  0  0  0  0
  -28.3729  -26.6500   20.0734 O   0  0  0  0  0  0  0  0  0  0  0  0
  -27.5588  -24.6485   17.8506 O   0  0  0  0  0  0  0  0  0  0  0  0
  -30.8822  -12.2408   19.8678 O   0  0  0  0  0  0  0  0  0  0  0  0
  -23.2170  -24.1734   16.3694 O   0  0  0  0  0  0  0  0  0  1  0  0
  -27.9570  -10.0125   15.7590 F   0  0  0  0  0  0  0  0  0  0  0  0
  -28.1738  -12.7378   19.6231 F   0  0  0  0  0  0  0  0  0  0  0  0
  1  2  1  0  0  0  0
  1  5  2  0  0  0  0
  2  6  2  0  0  0  0
  3  8  2  0  0  0  0
  3 15  1  0  0  0  0
  4  9  1  0  0  0  0
  4 15  2  0  0  0  0
  5 17  1  0  0  0  0
  6 19  1  0  0  0  0
  7 10  2  0  0  0  0
  7 18  1  0  0  0  0
  8 21  1  0  0  0  0
  9 21  2  0  0  0  0
 10 22  1  0  0  0  0
 11 12  2  0  0  0  0
 11 23  1  0  0  0  0
 12 24  1  0  0  0  0
 13 20  1  0  0  0  0
 13 22  2  0  0  0  0
 14 24  2  0  0  0  0
 14 25  1  0  0  0  0
 15 26  1  0  0  0  0
 16 26  1  0  0  0  0
 16 27  2  0  0  0  0
 16 28  1  0  0  0  0
 17 19  2  0  0  0  0
 17 34  1  0  0  0  0
 18 20  2  0  0  0  0
 18 35  1  0  0  0  0
 19 43  1  0  0  0  0
 20 36  1  0  0  0  0
 21 79  1  0  0  0  0
 22 80  1  0  0  0  0
 23 25  2  0  0  0  0
 23 79  1  0  0  0  0
 24 81  1  0  0  0  0
 25 82  1  0  0  0  0
 26 61  2  0  0  0  0
 27 62  1  0  0  0  0
 27 65  1  0  0  0  0
 28 66  1  0  0  0  0
 28 73  2  0  0  0  0
 29 44  1  0  0  0  0
 29 67  1  0  0  0  0
 29 74  2  0  0  0  0
 30 53  1  0  0  0  0
 30 56  1  0  0  0  0
 30 75  2  0  0  0  0
 31 57  1  0  0  0  0
 31 63  1  0  0  0  0
 31 76  2  0  0  0  0
 32 58  1  0  0  0  0
 32 68  1  0  0  0  0
 32 77  2  0  0  0  0
 33 64  1  0  0  0  0
 33 69  1  0  0  0  0
 33 78  2  0  0  0  0
 34 37  1  0  0  0  0
 35 44  1  0  0  0  0
 36 63  1  0  0  0  0
 37 39  1  0  0  0  0
 38 40  1  0  0  0  0
 38 41  1  0  0  0  0
 39 43  1  0  0  0  0
 40 45  1  0  0  0  0
 41 64  1  0  0  0  0
 42 45  1  0  0  0  0
 42 64  1  0  0  0  0
 43 67  1  0  0  0  0
 44 63  1  0  0  0  0
 45 62  1  0  0  0  0
 46 56  1  0  0  0  0
 47 58  1  0  0  0  0
 48 59  1  0  0  0  0
 49 60  1  0  0  0  0
 50 60  1  0  0  0  0
 51 60  1  0  0  0  0
 52 71  1  0  0  0  0
 53 70  1  0  0  0  0
 54 59  1  0  0  0  0
 54 72  1  0  0  0  0
 55 69  1  0  0  0  0
 55 72  1  0  0  0  0
 56 80  1  0  0  0  0
 57 60  1  0  0  0  0
 57 68  1  0  0  0  0
 58 71  1  0  0  0  0
 59 70  1  0  0  0  0
 61 62  1  0  0  0  0
M  CHG  2  71   1  72   1
M  ISO  4  33 100  56 101  69 100  80 101
M  END
> <Batch ID>
0111

> <Smiles>
CNC(C)C(=O)NC(C(=O)N1Cc2cc([101O:1][101CH:1](C)C(=O)CNC(C)CNC[100NH:0][100C:0](=O)N3CCCC(n4nc(-c5ccc(Oc6ccc(F)cc6F)cc5)c(C(N)=O)c4N)C3)ccc2CC1C(=O)NC1CCCc2ccccc21)C(C)(C)C

> <Shape>
0.228

> <Color>
0.060

> <Negative vol penalty>
0.000

$$$$

  -OEChem-04052320013D

 82 90  0     1  0  0  0  0  0999 V2000
  -28.7854  -32.9459   24.4166 C   0  0  0  0  0  0  0  0  0  0  0  0
  -28.7844  -31.5601   24.2946 C   0  0  0  0  0  0  0  0  0  0  0  0
  -23.5187  -13.1220   24.0305 C   0  0  0  0  0  0  0  0  0  0  0  0
  -24.5381  -10.9439   23.7984 C   0  0  0  0  0  0  0  0  0  0  0  0
  -27.5788  -33.6443   24.4298 C   0  0  0  0  0  0  0  0  0  0  0  0
  -27.5765  -30.8718   24.1867 C   0  0  0  0  0  0  0  0  0  0  0  0
  -27.6777  -27.3254   20.5731 C   0  0  0  0  0  0  0  0  0  0  0  0
  -23.0068  -12.7500   25.2735 C   0  0  0  0  0  0  0  0  0  0  0  0
  -24.0262  -10.5719   25.0415 C   0  0  0  0  0  0  0  0  0  0  0  0
  -28.3249  -26.1278   20.8743 C   0  0  0  0  0  0  0  0  0  0  0  0
  -20.4232  -10.9196   26.4562 C   0  0  0  0  0  0  0  0  0  0  0  0
  -19.0924  -11.2360   26.7292 C   0  0  0  0  0  0  0  0  0  0  0  0
  -26.1912  -25.0922   21.3145 C   0  0  0  0  0  0  0  0  0  0  0  0
  -19.7964  -12.5657   28.6195 C   0  0  0  0  0  0  0  0  0  0  0  0
  -24.2843  -12.2190   23.2929 C   0  0  0  0  0  0  0  0  0  0  0  0
  -24.0825  -13.0032   20.8738 C   0  0  0  0  0  0  0  0  0  0  0  0
  -26.3559  -32.9651   24.3123 C   0  0  0  0  0  0  0  0  0  0  0  0
  -26.2806  -27.4185   20.6512 C   0  0  0  0  0  0  0  0  0  0  0  0
  -26.3523  -31.5616   24.1996 C   0  0  0  0  0  0  0  0  0  0  0  0
  -25.5284  -26.2914   21.0114 C   0  0  0  0  0  0  0  0  0  0  0  0
  -23.2605  -11.4750   25.7791 C   0  0  0  0  0  0  0  0  0  0  0  0
  -27.5819  -25.0118   21.2478 C   0  0  0  0  0  0  0  0  0  0  0  0
  -21.4406  -11.4262   27.2649 C   0  0  0  0  0  0  0  0  0  0  0  0
  -18.7790  -12.0590   27.8108 C   0  0  0  0  0  0  0  0  0  0  0  0
  -21.1272  -12.2492   28.3465 C   0  0  0  0  0  0  0  0  0  0  0  0
  -24.8130  -12.6025   22.0086 C   0  0  0  0  0  0  0  0  0  0  0  0
  -25.0392  -13.2583   19.9220 C   0  0  0  0  0  0  0  0  0  0  0  0
  -22.6657  -13.1332   20.6961 C   0  0  0  0  0  0  0  0  0  0  0  0
  -28.4541  -21.5056   20.9628 C   0  0  0  0  0  0  0  0  0  0  0  0
  -24.2402  -29.1368   22.3797 C   0  0  0  0  0  0  0  0  0  0  0  0
  -22.0371  -27.7472   20.4463 C   0  0  0  0  0  0  0  0  0  0  0  0
  -21.2061  -25.1416   18.4050 C   0  0  0  0  0  0  0  0  0  0  0  0
  -30.8165  -14.7951   20.2575 C   0  0  0  0  0  0  0  0  0  0  0  0
  -25.0752  -33.7588   24.3790 C   0  0  0  0  0  0  0  0  0  0  0  0
  -25.5957  -28.7101   20.2973 C   0  0  0  0  0  0  0  0  0  0  0  0
  -24.0250  -26.3335   21.0906 C   0  0  0  0  0  0  0  0  0  0  0  0
  -23.8544  -32.9882   23.8830 C   0  0  0  0  0  0  0  0  0  0  0  0
  -29.4494  -11.9546   18.6024 C   0  0  0  0  0  0  0  0  0  0  0  0
  -23.8293  -31.5854   24.4816 C   0  0  0  0  0  0  0  0  0  0  0  0
  -28.0402  -11.8347   19.1853 C   0  0  0  0  0  0  0  0  0  0  0  0
  -27.5753  -19.9930   19.1879 C   0  0  0  0  0  0  0  0  0  0  0  0
  -30.4564  -12.4203   19.6517 C   0  0  0  0  0  0  0  0  0  0  0  0
  -28.6792  -13.5437   20.9374 C   0  0  0  0  0  0  0  0  0  0  0  0
  -28.8677  -19.4052   18.6610 C   0  0  0  0  0  0  0  0  0  0  0  0
  -28.7867  -19.0458   21.0684 C   0  0  0  0  0  0  0  0  0  0  0  0
  -25.0636  -30.7815   24.0553 C   0  0  1  0  0  0  0  0  0  0  0  0
  -27.8343  -20.1702   20.6760 C   0  0  1  0  0  0  0  0  0  0  0  0
  -24.2034  -28.8350   20.9082 C   0  0  1  0  0  0  0  0  0  0  0  0
  -27.6181  -13.1309   19.9029 C   0  0  2  0  0  0  0  0  0  0  0  0
  -19.3223  -24.2645   16.9981 C   0  0  0  0  0  0  0  0  0  0  0  0
  -31.0557  -17.4806   18.3911 C   0  0  0  0  0  0  0  0  0  0  0  0
  -20.5776  -26.8428   22.9686 C   0  0  0  0  0  0  0  0  0  0  0  0
  -19.2945  -25.2189   21.5599 C   0  0  0  0  0  0  0  0  0  0  0  0
  -19.0855  -27.6688   21.1394 C   0  0  0  0  0  0  0  0  0  0  0  0
  -22.8350  -25.2705   15.9374 C   0  0  0  0  0  0  0  0  0  0  0  0
  -27.4969  -22.6353   21.2779 C   0  0  0  0  0  0  0  0  0  1  0  0
  -31.0257  -17.1760   20.9257 C   0  0  0  0  0  0  0  0  0  0  0  0
  -21.2208  -26.4783   20.4949 C   0  0  1  0  0  0  0  0  0  0  0  0
  -20.5894  -25.1053   17.0184 C   0  0  2  0  0  0  0  0  0  0  0  0
  -30.7240  -18.0951   19.7441 C   0  0  2  0  0  0  0  0  0  0  0  0
  -20.0730  -26.5516   21.5412 C   0  0  0  0  0  0  0  0  0  0  0  0
  -26.1320  -12.6014   21.7987 N   0  0  0  0  0  0  0  0  0  0  0  0
  -26.2379  -13.0045   20.5210 N   0  0  0  0  0  0  0  0  0  0  0  0
  -23.4020  -27.6209   20.7413 N   0  0  0  0  0  0  0  0  0  0  0  0
  -29.9975  -13.6545   20.2936 N   0  0  0  0  0  0  0  0  0  0  0  0
  -24.9637  -13.6727   18.6395 N   0  0  0  0  0  0  0  0  0  0  0  0
  -21.8262  -12.8309   21.7769 N   0  0  0  0  0  0  0  0  0  0  0  0
  -24.9108  -30.3022   22.6984 N   0  0  0  0  0  0  0  0  0  0  0  0
  -20.7698  -26.2305   19.1297 N   0  0  0  0  0  0  0  0  0  0  0  0
  -30.3034  -15.9241   20.8843 N   0  0  0  0  0  0  0  0  0  0  0  0
  -29.2746  -18.4568   19.7577 N   0  3  2  0  0  0  0  0  0  0  0  0
  -21.5522  -24.5281   16.0382 N   0  3  0  0  0  0  0  0  0  0  0  0
  -22.1584  -13.4907   19.6060 O   0  0  0  0  0  0  0  0  0  0  0  0
  -29.6740  -21.6621   20.9399 O   0  0  0  0  0  0  0  0  0  0  0  0
  -23.6988  -28.3700   23.1674 O   0  0  0  0  0  0  0  0  0  0  0  0
  -21.4855  -28.8102   20.1504 O   0  0  0  0  0  0  0  0  0  0  0  0
  -21.9931  -24.2872   18.8066 O   0  0  0  0  0  0  0  0  0  0  0  0
  -31.9206  -14.8080   19.7027 O   0  0  0  0  0  0  0  0  0  0  0  0
  -22.7613  -11.1118   26.9921 O   0  0  0  0  0  0  0  0  0  0  0  0
  -28.2113  -23.8419   21.5429 O   0  0  0  0  0  0  0  0  0  1  0  0
  -17.5011  -12.3640   28.0720 F   0  0  0  0  0  0  0  0  0  0  0  0
  -22.1003  -12.7399   29.1263 F   0  0  0  0  0  0  0  0  0  0  0  0
  1  2  1  0  0  0  0
  1  5  2  0  0  0  0
  2  6  2  0  0  0  0
  3  8  2  0  0  0  0
  3 15  1  0  0  0  0
  4  9  1  0  0  0  0
  4 15  2  0  0  0  0
  5 17  1  0  0  0  0
  6 19  1  0  0  0  0
  7 10  2  0  0  0  0
  7 18  1  0  0  0  0
  8 21  1  0  0  0  0
  9 21  2  0  0  0  0
 10 22  1  0  0  0  0
 11 12  2  0  0  0  0
 11 23  1  0  0  0  0
 12 24  1  0  0  0  0
 13 20  1  0  0  0  0
 13 22  2  0  0  0  0
 14 24  2  0  0  0  0
 14 25  1  0  0  0  0
 15 26  1  0  0  0  0
 16 26  1  0  0  0  0
 16 27  2  0  0  0  0
 16 28  1  0  0  0  0
 17 19  2  0  0  0  0
 17 34  1  0  0  0  0
 18 20  2  0  0  0  0
 18 35  1  0  0  0  0
 19 46  1  0  0  0  0
 20 36  1  0  0  0  0
 21 79  1  0  0  0  0
 22 80  1  0  0  0  0
 23 25  2  0  0  0  0
 23 79  1  0  0  0  0
 24 81  1  0  0  0  0
 25 82  1  0  0  0  0
 26 62  2  0  0  0  0
 27 63  1  0  0  0  0
 27 66  1  0  0  0  0
 28 67  1  0  0  0  0
 28 73  2  0  0  0  0
 29 47  1  0  0  0  0
 29 56  1  0  0  0  0
 29 74  2  0  0  0  0
 30 48  1  0  0  0  0
 30 68  1  0  0  0  0
 30 75  2  0  0  0  0
 31 58  1  0  0  0  0
 31 64  1  0  0  0  0
 31 76  2  0  0  0  0
 32 59  1  0  0  0  0
 32 69  1  0  0  0  0
 32 77  2  0  0  0  0
 33 65  1  0  0  0  0
 33 70  1  0  0  0  0
 33 78  2  0  0  0  0
 34 37  1  0  0  0  0
 35 48  1  0  0  0  0
 36 64  1  0  0  0  0
 37 39  1  0  0  0  0
 38 40  1  0  0  0  0
 38 42  1  0  0  0  0
 39 46  1  0  0  0  0
 40 49  1  0  0  0  0
 41 44  1  0  0  0  0
 41 47  1  0  0  0  0
 42 65  1  0  0  0  0
 43 49  1  0  0  0  0
 43 65  1  0  0  0  0
 44 71  1  0  0  0  0
 45 47  1  0  0  0  0
 45 71  1  0  0  0  0
 46 68  1  0  0  0  0
 48 64  1  0  0  0  0
 49 63  1  0  0  0  0
 50 59  1  0  0  0  0
 51 60  1  0  0  0  0
 52 61  1  0  0  0  0
 53 61  1  0  0  0  0
 54 61  1  0  0  0  0
 55 72  1  0  0  0  0
 56 80  1  0  0  0  0
 57 60  1  0  0  0  0
 57 70  1  0  0  0  0
 58 61  1  0  0  0  0
 58 69  1  0  0  0  0
 59 72  1  0  0  0  0
 60 71  1  0  0  0  0
 62 63  1  0  0  0  0
M  CHG  2  71   1  72   1
M  ISO  4  33 100  56 101  70 100  80 101
M  END
> <Batch ID>
0111

> <Smiles>
CNC(C)C(=O)NC(C(=O)N1Cc2cc([101O:1][101CH2:1]C(=O)C3CCN(C(C)C[100NH:0][100C:0](=O)N4CCCC(n5nc(-c6ccc(Oc7ccc(F)cc7F)cc6)c(C(N)=O)c5N)C4)C3)ccc2CC1C(=O)NC1CCCc2ccccc21)C(C)(C)C

> <Shape>
0.279

> <Color>
0.089

> <Negative vol penalty>
0.000

$$$$
