
  -OEChem-04052320033D

 83 91  0     1  0  0  0  0  0999 V2000
  -28.0574  -22.9395   17.7066 C   0  0  0  0  0  0  0  0  0  0  0  0
  -26.9349  -23.7240   17.9461 C   0  0  0  0  0  0  0  0  0  0  0  0
  -26.2882  -14.5701   21.5853 C   0  0  0  0  0  0  0  0  0  0  0  0
  -23.9334  -14.6158   21.0472 C   0  0  0  0  0  0  0  0  0  0  0  0
  -29.1757  -23.0602   18.5287 C   0  0  0  0  0  0  0  0  0  0  0  0
  -26.9347  -24.6379   19.0005 C   0  0  0  0  0  0  0  0  0  0  0  0
  -23.0708  -27.6649   19.3336 C   0  0  0  0  0  0  0  0  0  0  0  0
  -26.1443  -13.2842   22.1061 C   0  0  0  0  0  0  0  0  0  0  0  0
  -23.7894  -13.3298   21.5680 C   0  0  0  0  0  0  0  0  0  0  0  0
  -21.8073  -27.2330   19.7346 C   0  0  0  0  0  0  0  0  0  0  0  0
  -22.8738   -9.9180   22.4276 C   0  0  0  0  0  0  0  0  0  0  0  0
  -22.1280   -8.9985   21.6900 C   0  0  0  0  0  0  0  0  0  0  0  0
  -22.1692  -28.2129   21.9091 C   0  0  0  0  0  0  0  0  0  0  0  0
  -19.4579  -21.8210   21.3989 C   0  0  0  0  0  0  0  0  0  0  0  0
  -23.6637   -9.2370   19.8401 C   0  0  0  0  0  0  0  0  0  0  0  0
  -20.2810  -23.6841   22.3587 C   0  0  0  0  0  0  0  0  0  0  0  0
  -25.1827  -15.2360   21.0559 C   0  0  0  0  0  0  0  0  0  0  0  0
  -25.6407  -16.9147   19.1905 C   0  0  0  0  0  0  0  0  0  0  0  0
  -29.1838  -23.9674   19.6011 C   0  0  0  0  0  0  0  0  0  0  0  0
  -23.8987  -28.3658   20.2223 C   0  0  0  0  0  0  0  0  0  0  0  0
  -28.0626  -24.7915   19.8268 C   0  0  0  0  0  0  0  0  0  0  0  0
  -23.4417  -28.6548   21.5160 C   0  0  0  0  0  0  0  0  0  0  0  0
  -20.6192  -22.4109   21.9562 C   0  0  0  0  0  0  0  0  0  0  0  0
  -24.8950  -12.6640   22.0974 C   0  0  0  0  0  0  0  0  0  0  0  0
  -21.3575  -27.5044   21.0235 C   0  0  0  0  0  0  0  0  0  0  0  0
  -24.0145  -10.4970   21.8714 C   0  0  0  0  0  0  0  0  0  0  0  0
  -22.5230   -8.6580   20.3963 C   0  0  0  0  0  0  0  0  0  0  0  0
  -24.4094  -10.1565   20.5777 C   0  0  0  0  0  0  0  0  0  0  0  0
  -25.3307  -16.5646   20.5183 C   0  0  0  0  0  0  0  0  0  0  0  0
  -18.4455  -22.7517   21.4777 C   0  0  0  0  0  0  0  0  0  0  0  0
  -25.6655  -18.2880   19.1944 C   0  0  0  0  0  0  0  0  0  0  0  0
  -25.8843  -16.0738   18.0551 C   0  0  0  0  0  0  0  0  0  0  0  0
  -26.7526  -27.8385   21.5189 C   0  0  0  0  0  0  0  0  0  0  0  0
  -26.3580  -30.8492   22.6601 C   0  0  0  0  0  0  0  0  0  0  0  0
  -24.2170  -33.3613   23.5274 C   0  0  0  0  0  0  0  0  0  0  0  0
  -23.0444  -22.4086   22.6376 C   0  0  0  0  0  0  0  0  0  0  0  0
  -30.4238  -24.0628   20.4546 C   0  0  0  0  0  0  0  0  0  0  0  0
  -25.2483  -28.8481   19.7657 C   0  0  0  0  0  0  0  0  0  0  0  0
  -24.2839  -29.4214   22.5017 C   0  0  0  0  0  0  0  0  0  0  0  0
  -30.1680  -24.7292   21.8024 C   0  0  0  0  0  0  0  0  0  0  0  0
  -26.5382  -22.0093   22.0797 C   0  0  0  0  0  0  0  0  0  0  0  0
  -29.4085  -26.0321   21.6023 C   0  0  0  0  0  0  0  0  0  0  0  0
  -26.6526  -20.6019   21.4895 C   0  0  0  0  0  0  0  0  0  0  0  0
  -25.4541  -22.0878   23.1531 C   0  0  0  0  0  0  0  0  0  0  0  0
  -24.2481  -20.1887   22.1489 C   0  0  0  0  0  0  0  0  0  0  0  0
  -28.0282  -25.7705   20.9865 C   0  0  1  0  0  0  0  0  0  0  0  0
  -26.2124  -29.1060   20.9195 C   0  0  1  0  0  0  0  0  0  0  0  0
  -25.2830  -20.0758   21.0175 C   0  0  2  0  0  0  0  0  0  0  0  0
  -16.2478  -21.5583   21.7930 C   0  0  0  0  0  0  0  0  0  0  0  0
  -16.8859  -22.4453   19.5212 C   0  0  0  0  0  0  0  0  0  0  0  0
  -24.1879  -35.6889   24.4648 C   0  0  0  0  0  0  0  0  0  0  0  0
  -26.9131  -29.7321   25.4447 C   0  0  0  0  0  0  0  0  0  0  0  0
  -25.9523  -31.8357   26.4040 C   0  0  0  0  0  0  0  0  0  0  0  0
  -27.9919  -31.9382   24.9714 C   0  0  0  0  0  0  0  0  0  0  0  0
  -22.9454  -34.4524   21.0879 C   0  0  0  0  0  0  0  0  0  0  0  0
  -18.1968  -25.1543   22.3463 C   0  0  0  0  0  0  0  0  0  0  0  0
  -19.3454  -26.3689   20.4595 C   0  0  0  0  0  0  0  0  0  1  0  0
  -17.0362  -22.6578   21.0451 C   0  0  0  0  0  0  0  0  0  0  0  0
  -25.7520  -31.4495   23.9056 C   0  0  1  0  0  0  0  0  0  0  0  0
  -24.2186  -34.8438   23.2008 C   0  0  2  0  0  0  0  0  0  0  0  0
  -18.0025  -26.0061   21.0875 C   0  0  2  0  0  0  0  0  0  0  0  0
  -26.6370  -31.2227   25.1637 C   0  0  0  0  0  0  0  0  0  0  0  0
  -25.1703  -17.6295   21.3084 N   0  0  0  0  0  0  0  0  0  0  0  0
  -18.9574  -23.8804   22.0626 N   0  0  0  0  0  0  0  0  0  0  0  0
  -25.3804  -18.6623   20.4746 N   0  0  0  0  0  0  0  0  0  0  0  0
  -25.5984  -29.8662   22.0100 N   0  0  0  0  0  0  0  0  0  0  0  0
  -24.1840  -21.5766   22.6331 N   0  0  0  0  0  0  0  0  0  0  0  0
  -25.9034  -19.1998   18.2277 N   0  0  0  0  0  0  0  0  0  0  0  0
  -25.8189  -14.6843   18.2264 N   0  0  0  0  0  0  0  0  0  0  0  0
  -21.9028  -21.8257   22.0886 N   0  0  0  0  0  0  0  0  0  0  0  0
  -27.4274  -27.0342   20.6204 N   0  0  0  0  0  0  0  0  0  0  0  0
  -25.4967  -32.8529   23.5998 N   0  0  0  0  0  0  0  0  0  0  0  0
  -23.0296  -35.1931   22.3729 N   0  3  0  0  0  0  0  0  0  0  0  0
  -26.1681  -16.5405   16.9258 O   0  0  0  0  0  0  0  0  0  0  0  0
  -26.5719  -27.6079   22.7088 O   0  0  0  0  0  0  0  0  0  0  0  0
  -27.4613  -31.2432   22.2740 O   0  0  0  0  0  0  0  0  0  0  0  0
  -23.1840  -32.7193   23.7046 O   0  0  0  0  0  0  0  0  0  0  0  0
  -23.0857  -23.5633   23.0700 O   0  0  0  0  0  0  0  0  0  0  0  0
  -17.3357  -27.2155   21.4558 O   0  0  0  0  0  0  0  0  0  0  0  0
  -24.7542  -11.4091   22.6053 O   0  0  0  0  0  0  0  0  0  0  0  0
  -20.1249  -27.0834   21.4177 O   0  0  0  0  0  0  0  0  0  1  0  0
  -21.8076   -7.7738   19.6886 F   0  0  0  0  0  0  0  0  0  0  0  0
  -25.5050  -10.7085   20.0385 F   0  0  0  0  0  0  0  0  0  0  0  0
  1  2  1  0  0  0  0
  1  5  2  0  0  0  0
  2  6  2  0  0  0  0
  3  8  2  0  0  0  0
  3 17  1  0  0  0  0
  4  9  1  0  0  0  0
  4 17  2  0  0  0  0
  5 19  1  0  0  0  0
  6 21  1  0  0  0  0
  7 10  2  0  0  0  0
  7 20  1  0  0  0  0
  8 24  1  0  0  0  0
  9 24  2  0  0  0  0
 10 25  1  0  0  0  0
 11 12  2  0  0  0  0
 11 26  1  0  0  0  0
 12 27  1  0  0  0  0
 13 22  1  0  0  0  0
 13 25  2  0  0  0  0
 14 23  1  0  0  0  0
 14 30  2  0  0  0  0
 15 27  2  0  0  0  0
 15 28  1  0  0  0  0
 16 23  2  0  0  0  0
 16 64  1  0  0  0  0
 17 29  1  0  0  0  0
 18 29  1  0  0  0  0
 18 31  2  0  0  0  0
 18 32  1  0  0  0  0
 19 21  2  0  0  0  0
 19 37  1  0  0  0  0
 20 22  2  0  0  0  0
 20 38  1  0  0  0  0
 21 46  1  0  0  0  0
 22 39  1  0  0  0  0
 23 70  1  0  0  0  0
 24 80  1  0  0  0  0
 25 81  1  0  0  0  0
 26 28  2  0  0  0  0
 26 80  1  0  0  0  0
 27 82  1  0  0  0  0
 28 83  1  0  0  0  0
 29 63  2  0  0  0  0
 30 58  1  0  0  0  0
 30 64  1  0  0  0  0
 31 65  1  0  0  0  0
 31 68  1  0  0  0  0
 32 69  1  0  0  0  0
 32 74  2  0  0  0  0
 33 47  1  0  0  0  0
 33 71  1  0  0  0  0
 33 75  2  0  0  0  0
 34 59  1  0  0  0  0
 34 66  1  0  0  0  0
 34 76  2  0  0  0  0
 35 60  1  0  0  0  0
 35 72  1  0  0  0  0
 35 77  2  0  0  0  0
 36 67  1  0  0  0  0
 36 70  1  0  0  0  0
 36 78  2  0  0  0  0
 37 40  1  0  0  0  0
 38 47  1  0  0  0  0
 39 66  1  0  0  0  0
 40 42  1  0  0  0  0
 41 43  1  0  0  0  0
 41 44  1  0  0  0  0
 42 46  1  0  0  0  0
 43 48  1  0  0  0  0
 44 67  1  0  0  0  0
 45 48  1  0  0  0  0
 45 67  1  0  0  0  0
 46 71  1  0  0  0  0
 47 66  1  0  0  0  0
 48 65  1  0  0  0  0
 49 58  1  0  0  0  0
 50 58  1  0  0  0  0
 51 60  1  0  0  0  0
 52 62  1  0  0  0  0
 53 62  1  0  0  0  0
 54 62  1  0  0  0  0
 55 73  1  0  0  0  0
 56 61  1  0  0  0  0
 56 64  1  0  0  0  0
 57 61  1  0  0  0  0
 57 81  1  0  0  0  0
 59 62  1  0  0  0  0
 59 72  1  0  0  0  0
 60 73  1  0  0  0  0
 61 79  1  0  0  0  0
 63 65  1  0  0  0  0
M  CHG  1  73   1
M  ISO  4  36 100  57 101  70 100  81 101
M  END
> <Batch ID>
0112

> <Smiles>
CNC(C)C(=O)NC(C(=O)N1Cc2cc([101O:1][101CH2:1]C(O)Cn3cc([100NH:0][100C:0](=O)N4CCCC(n5nc(-c6ccc(Oc7ccc(F)cc7F)cc6)c(C(N)=O)c5N)C4)cc3C(C)C)ccc2CC1C(=O)NC1CCCc2ccccc21)C(C)(C)C

> <Shape>
0.235

> <Color>
0.056

> <Negative vol penalty>
0.000

$$$$

  -OEChem-04052320033D

 78 85  0     1  0  0  0  0  0999 V2000
  -28.5887  -24.3292   17.2044 C   0  0  0  0  0  0  0  0  0  0  0  0
  -27.4276  -25.0498   17.4603 C   0  0  0  0  0  0  0  0  0  0  0  0
  -23.5914  -14.4850   20.9886 C   0  0  0  0  0  0  0  0  0  0  0  0
  -25.7196  -15.3521   21.7342 C   0  0  0  0  0  0  0  0  0  0  0  0
  -29.6594  -24.4015   18.0929 C   0  0  0  0  0  0  0  0  0  0  0  0
  -27.3413  -25.8523   18.5984 C   0  0  0  0  0  0  0  0  0  0  0  0
  -23.3573  -28.7073   19.0232 C   0  0  0  0  0  0  0  0  0  0  0  0
  -24.1959  -13.2664   20.6801 C   0  0  0  0  0  0  0  0  0  0  0  0
  -26.3241  -14.1334   21.4258 C   0  0  0  0  0  0  0  0  0  0  0  0
  -22.0921  -28.1976   19.3115 C   0  0  0  0  0  0  0  0  0  0  0  0
  -27.4365  -12.5328   18.6633 C   0  0  0  0  0  0  0  0  0  0  0  0
  -28.6521  -12.5669   17.9801 C   0  0  0  0  0  0  0  0  0  0  0  0
  -22.3088  -28.9641   21.5885 C   0  0  0  0  0  0  0  0  0  0  0  0
  -29.7149  -11.4059   19.8130 C   0  0  0  0  0  0  0  0  0  0  0  0
  -24.3532  -15.5279   21.5156 C   0  0  0  0  0  0  0  0  0  0  0  0
  -23.1475  -17.1617   23.0597 C   0  0  0  0  0  0  0  0  0  0  0  0
  -29.5807  -25.1957   19.2488 C   0  0  0  0  0  0  0  0  0  0  0  0
  -24.1136  -29.3406   20.0199 C   0  0  0  0  0  0  0  0  0  0  0  0
  -28.4201  -25.9572   19.4949 C   0  0  0  0  0  0  0  0  0  0  0  0
  -23.5823  -29.4832   21.3097 C   0  0  0  0  0  0  0  0  0  0  0  0
  -25.5623  -13.0906   20.8988 C   0  0  0  0  0  0  0  0  0  0  0  0
  -21.5688  -28.3234   20.5951 C   0  0  0  0  0  0  0  0  0  0  0  0
  -27.3602  -11.9353   19.9215 C   0  0  0  0  0  0  0  0  0  0  0  0
  -29.7913  -12.0035   18.5549 C   0  0  0  0  0  0  0  0  0  0  0  0
  -28.4993  -11.3718   20.4963 C   0  0  0  0  0  0  0  0  0  0  0  0
  -23.7294  -16.7871   21.8338 C   0  0  0  0  0  0  0  0  0  0  0  0
  -22.6999  -18.4432   22.8499 C   0  0  0  0  0  0  0  0  0  0  0  0
  -23.0228  -16.4179   24.2791 C   0  0  0  0  0  0  0  0  0  0  0  0
  -26.9166  -28.7753   21.4082 C   0  0  0  0  0  0  0  0  0  0  0  0
  -26.3554  -31.6417   22.8194 C   0  0  0  0  0  0  0  0  0  0  0  0
  -24.0833  -33.9850   23.8159 C   0  0  0  0  0  0  0  0  0  0  0  0
  -23.9995  -23.5793   20.7888 C   0  0  0  0  0  0  0  0  0  0  0  0
  -30.7722  -25.2435   20.1724 C   0  0  0  0  0  0  0  0  0  0  0  0
  -25.4657  -29.9087   19.6859 C   0  0  0  0  0  0  0  0  0  0  0  0
  -24.3455  -30.1726   22.4100 C   0  0  0  0  0  0  0  0  0  0  0  0
  -30.4252  -25.7622   21.5641 C   0  0  0  0  0  0  0  0  0  0  0  0
  -22.2649  -21.1443   18.6062 C   0  0  0  0  0  0  0  0  0  0  0  0
  -29.6294  -27.0541   21.4538 C   0  0  0  0  0  0  0  0  0  0  0  0
  -22.5110  -19.8187   19.3246 C   0  0  0  0  0  0  0  0  0  0  0  0
  -23.3802  -22.1503   18.8741 C   0  0  0  0  0  0  0  0  0  0  0  0
  -23.8856  -21.0657   21.0380 C   0  0  0  0  0  0  0  0  0  0  0  0
  -28.2920  -26.8127   20.7424 C   0  0  1  0  0  0  0  0  0  0  0  0
  -26.3610  -30.0792   20.9094 C   0  0  1  0  0  0  0  0  0  0  0  0
  -22.7566  -20.0459   20.8263 C   0  0  2  0  0  0  0  0  0  0  0  0
  -23.9222  -36.2041   24.9764 C   0  0  0  0  0  0  0  0  0  0  0  0
  -26.8114  -30.2675   25.5053 C   0  0  0  0  0  0  0  0  0  0  0  0
  -25.7275  -32.2324   26.6157 C   0  0  0  0  0  0  0  0  0  0  0  0
  -27.8310  -32.5429   25.3112 C   0  0  0  0  0  0  0  0  0  0  0  0
  -23.9627  -25.2155   22.6330 C   0  0  0  0  0  0  0  0  0  0  0  0
  -22.8959  -35.2760   21.4322 C   0  0  0  0  0  0  0  0  0  0  0  0
  -18.9555  -25.8674   21.0014 C   0  0  0  0  0  0  0  0  0  0  0  0
  -22.6185  -23.1602   22.8673 C   0  0  0  0  0  0  0  0  0  0  0  0
  -19.5736  -25.3874   22.3060 C   0  0  0  0  0  0  0  0  0  0  0  0
  -21.4274  -24.0132   23.2619 C   0  0  0  0  0  0  0  0  0  0  0  0
  -19.9069  -26.6852   20.1366 C   0  0  0  0  0  0  0  0  0  1  0  0
  -25.6665  -32.0939   24.0842 C   0  0  1  0  0  0  0  0  0  0  0  0
  -24.0469  -35.4921   23.6384 C   0  0  2  0  0  0  0  0  0  0  0  0
  -26.4953  -31.7694   25.3591 C   0  0  0  0  0  0  0  0  0  0  0  0
  -23.6592  -17.7524   20.9134 N   0  0  0  0  0  0  0  0  0  0  0  0
  -23.0278  -18.7463   21.5612 N   0  0  0  0  0  0  0  0  0  0  0  0
  -25.6658  -30.7058   22.0356 N   0  0  0  0  0  0  0  0  0  0  0  0
  -23.6220  -22.3148   20.3079 N   0  0  0  0  0  0  0  0  0  0  0  0
  -22.0616  -19.3289   23.6439 N   0  0  0  0  0  0  0  0  0  0  0  0
  -23.5376  -15.1150   24.3226 N   0  0  0  0  0  0  0  0  0  0  0  0
  -27.6644  -28.0874   20.4717 N   0  0  0  0  0  0  0  0  0  0  0  0
  -25.3755  -33.5123   23.9057 N   0  0  0  0  0  0  0  0  0  0  0  0
  -23.6051  -23.9111   22.0938 N   0  0  0  0  0  0  0  0  0  0  0  0
  -22.8888  -35.8856   22.7869 N   0  3  0  0  0  0  0  0  0  0  0  0
  -20.7216  -24.4891   22.0401 N   0  3  0  0  0  0  0  0  0  0  0  0
  -22.4567  -16.8885   25.2947 O   0  0  0  0  0  0  0  0  0  0  0  0
  -26.6852  -28.4204   22.5581 O   0  0  0  0  0  0  0  0  0  0  0  0
  -27.4615  -32.1071   22.5337 O   0  0  0  0  0  0  0  0  0  0  0  0
  -23.0670  -33.2962   23.8733 O   0  0  0  0  0  0  0  0  0  0  0  0
  -24.6436  -24.3705   20.0880 O   0  0  0  0  0  0  0  0  0  0  0  0
  -26.1524  -11.9015   20.5982 O   0  0  0  0  0  0  0  0  0  0  0  0
  -20.3344  -27.8262   20.8793 O   0  0  0  0  0  0  0  0  0  1  0  0
  -30.9582  -12.0350   17.8980 F   0  0  0  0  0  0  0  0  0  0  0  0
  -28.4319  -10.7954   21.7042 F   0  0  0  0  0  0  0  0  0  0  0  0
  1  2  1  0  0  0  0
  1  5  2  0  0  0  0
  2  6  2  0  0  0  0
  3  8  2  0  0  0  0
  3 15  1  0  0  0  0
  4  9  1  0  0  0  0
  4 15  2  0  0  0  0
  5 17  1  0  0  0  0
  6 19  1  0  0  0  0
  7 10  2  0  0  0  0
  7 18  1  0  0  0  0
  8 21  1  0  0  0  0
  9 21  2  0  0  0  0
 10 22  1  0  0  0  0
 11 12  2  0  0  0  0
 11 23  1  0  0  0  0
 12 24  1  0  0  0  0
 13 20  1  0  0  0  0
 13 22  2  0  0  0  0
 14 24  2  0  0  0  0
 14 25  1  0  0  0  0
 15 26  1  0  0  0  0
 16 26  1  0  0  0  0
 16 27  2  0  0  0  0
 16 28  1  0  0  0  0
 17 19  2  0  0  0  0
 17 33  1  0  0  0  0
 18 20  2  0  0  0  0
 18 34  1  0  0  0  0
 19 42  1  0  0  0  0
 20 35  1  0  0  0  0
 21 75  1  0  0  0  0
 22 76  1  0  0  0  0
 23 25  2  0  0  0  0
 23 75  1  0  0  0  0
 24 77  1  0  0  0  0
 25 78  1  0  0  0  0
 26 59  2  0  0  0  0
 27 60  1  0  0  0  0
 27 63  1  0  0  0  0
 28 64  1  0  0  0  0
 28 70  2  0  0  0  0
 29 43  1  0  0  0  0
 29 65  1  0  0  0  0
 29 71  2  0  0  0  0
 30 56  1  0  0  0  0
 30 61  1  0  0  0  0
 30 72  2  0  0  0  0
 31 57  1  0  0  0  0
 31 66  1  0  0  0  0
 31 73  2  0  0  0  0
 32 62  1  0  0  0  0
 32 67  1  0  0  0  0
 32 74  2  0  0  0  0
 33 36  1  0  0  0  0
 34 43  1  0  0  0  0
 35 61  1  0  0  0  0
 36 38  1  0  0  0  0
 37 39  1  0  0  0  0
 37 40  1  0  0  0  0
 38 42  1  0  0  0  0
 39 44  1  0  0  0  0
 40 62  1  0  0  0  0
 41 44  1  0  0  0  0
 41 62  1  0  0  0  0
 42 65  1  0  0  0  0
 43 61  1  0  0  0  0
 44 60  1  0  0  0  0
 45 57  1  0  0  0  0
 46 58  1  0  0  0  0
 47 58  1  0  0  0  0
 48 58  1  0  0  0  0
 49 67  1  0  0  0  0
 50 68  1  0  0  0  0
 51 53  1  0  0  0  0
 51 55  1  0  0  0  0
 52 54  1  0  0  0  0
 52 67  1  0  0  0  0
 53 69  1  0  0  0  0
 54 69  1  0  0  0  0
 55 76  1  0  0  0  0
 56 58  1  0  0  0  0
 56 66  1  0  0  0  0
 57 68  1  0  0  0  0
 59 60  1  0  0  0  0
M  CHG  2  68   1  69   1
M  ISO  4  32 100  55 101  67 100  76 101
M  END
> <Batch ID>
0112

> <Smiles>
CNC(C)C(=O)NC(C(=O)N1Cc2cc([101O:1][101CH2:1]CCNCC[100N:0](C)[100C:0](=O)N3CCCC(n4nc(-c5ccc(Oc6ccc(F)cc6F)cc5)c(C(N)=O)c4N)C3)ccc2CC1C(=O)NC1CCCc2ccccc21)C(C)(C)C

> <Shape>
0.269

> <Color>
0.081

> <Negative vol penalty>
0.000

$$$$

  -OEChem-04052320033D

 81 89  0     1  0  0  0  0  0999 V2000
  -25.1926  -35.3755   22.0379 C   0  0  0  0  0  0  0  0  0  0  0  0
  -25.8826  -34.1695   21.9680 C   0  0  0  0  0  0  0  0  0  0  0  0
  -29.7790  -12.5855   17.9630 C   0  0  0  0  0  0  0  0  0  0  0  0
  -30.9140  -14.1905   19.3676 C   0  0  0  0  0  0  0  0  0  0  0  0
  -23.9135  -35.4144   22.5913 C   0  0  0  0  0  0  0  0  0  0  0  0
  -25.2942  -33.0018   22.4525 C   0  0  0  0  0  0  0  0  0  0  0  0
  -25.8814  -29.0795   19.3035 C   0  0  0  0  0  0  0  0  0  0  0  0
  -28.6373  -24.1216   17.4332 C   0  0  0  0  0  0  0  0  0  0  0  0
  -27.9248  -22.9322   17.2810 C   0  0  0  0  0  0  0  0  0  0  0  0
  -30.9840  -11.9141   17.7563 C   0  0  0  0  0  0  0  0  0  0  0  0
  -32.1191  -13.5191   19.1609 C   0  0  0  0  0  0  0  0  0  0  0  0
  -27.1227  -28.4448   19.3017 C   0  0  0  0  0  0  0  0  0  0  0  0
  -35.4285  -12.0197   19.2948 C   0  0  0  0  0  0  0  0  0  0  0  0
  -36.2417  -11.7889   20.4043 C   0  0  0  0  0  0  0  0  0  0  0  0
  -26.2276  -26.7036   20.7111 C   0  0  0  0  0  0  0  0  0  0  0  0
  -29.6097  -23.2776   19.4775 C   0  0  0  0  0  0  0  0  0  0  0  0
  -34.4700  -10.5118   21.4373 C   0  0  0  0  0  0  0  0  0  0  0  0
  -29.7439  -13.7237   18.7686 C   0  0  0  0  0  0  0  0  0  0  0  0
  -27.5614  -14.1860   20.0057 C   0  0  0  0  0  0  0  0  0  0  0  0
  -23.3053  -34.2449   23.0740 C   0  0  0  0  0  0  0  0  0  0  0  0
  -24.8050  -28.5359   20.0193 C   0  0  0  0  0  0  0  0  0  0  0  0
  -24.0063  -33.0254   23.0141 C   0  0  0  0  0  0  0  0  0  0  0  0
  -24.9730  -27.3321   20.7183 C   0  0  0  0  0  0  0  0  0  0  0  0
  -29.4798  -24.2943   18.5315 C   0  0  0  0  0  0  0  0  0  0  0  0
  -28.8972  -22.0881   19.3253 C   0  0  0  0  0  0  0  0  0  0  0  0
  -28.0547  -21.9154   18.2270 C   0  0  0  0  0  0  0  0  0  0  0  0
  -32.1540  -12.3809   18.3553 C   0  0  0  0  0  0  0  0  0  0  0  0
  -27.2967  -27.2581   20.0079 C   0  0  0  0  0  0  0  0  0  0  0  0
  -34.1359  -11.4966   19.2566 C   0  0  0  0  0  0  0  0  0  0  0  0
  -35.7625  -11.0350   21.4755 C   0  0  0  0  0  0  0  0  0  0  0  0
  -33.6567  -10.7426   20.3278 C   0  0  0  0  0  0  0  0  0  0  0  0
  -28.4996  -14.4180   18.9821 C   0  0  0  0  0  0  0  0  0  0  0  0
  -26.5631  -15.0995   19.7700 C   0  0  0  0  0  0  0  0  0  0  0  0
  -27.5897  -13.2303   21.0741 C   0  0  0  0  0  0  0  0  0  0  0  0
  -23.0059  -29.5133   22.4507 C   0  0  0  0  0  0  0  0  0  0  0  0
  -21.3428  -26.8050   21.8012 C   0  0  0  0  0  0  0  0  0  0  0  0
  -21.3233  -23.6706   20.4514 C   0  0  0  0  0  0  0  0  0  0  0  0
  -26.4478  -20.4005   17.0149 C   0  0  0  0  0  0  0  0  0  0  0  0
  -21.9399  -34.3448   23.7067 C   0  0  0  0  0  0  0  0  0  0  0  0
  -23.4652  -29.2188   19.9893 C   0  0  0  0  0  0  0  0  0  0  0  0
  -23.8437  -26.6966   21.4860 C   0  0  0  0  0  0  0  0  0  0  0  0
  -21.2377  -32.9976   23.8560 C   0  0  0  0  0  0  0  0  0  0  0  0
  -24.4844  -17.5407   16.2128 C   0  0  0  0  0  0  0  0  0  0  0  0
  -22.1929  -31.9591   24.4355 C   0  0  0  0  0  0  0  0  0  0  0  0
  -25.2024  -16.3952   16.9301 C   0  0  0  0  0  0  0  0  0  0  0  0
  -25.4695  -18.5659   15.6540 C   0  0  0  0  0  0  0  0  0  0  0  0
  -27.1523  -17.9488   17.3441 C   0  0  0  0  0  0  0  0  0  0  0  0
  -23.3918  -31.7330   23.5064 C   0  0  1  0  0  0  0  0  0  0  0  0
  -22.5784  -28.8469   21.1737 C   0  0  1  0  0  0  0  0  0  0  0  0
  -26.1986  -16.9244   17.9804 C   0  0  2  0  0  0  0  0  0  0  0  0
  -29.0533  -21.0171   20.3558 C   0  0  0  0  0  0  0  0  0  0  0  0
  -31.2324  -25.8027   17.5392 C   0  0  0  0  0  0  0  0  0  0  0  0
  -19.8294  -21.6841   20.1055 C   0  0  0  0  0  0  0  0  0  0  0  0
  -21.6807  -26.0429   24.7363 C   0  0  0  0  0  0  0  0  0  0  0  0
  -21.0378  -23.7004   24.1299 C   0  0  0  0  0  0  0  0  0  0  0  0
  -19.4163  -25.5650   23.7884 C   0  0  0  0  0  0  0  0  0  0  0  0
  -21.5469  -23.8691   17.5070 C   0  0  0  0  0  0  0  0  0  0  0  0
  -29.3228  -26.8022   18.8489 C   0  0  0  0  0  0  0  0  0  1  0  0
  -30.2546  -25.5920   18.6985 C   0  0  1  0  0  0  0  0  0  0  0  0
  -21.4190  -25.3682   22.2579 C   0  0  1  0  0  0  0  0  0  0  0  0
  -20.3481  -22.9846   19.5118 C   0  0  2  0  0  0  0  0  0  0  0  0
  -20.9105  -25.1819   23.7154 C   0  0  0  0  0  0  0  0  0  0  0  0
  -28.1302  -15.4016   18.1574 N   0  0  0  0  0  0  0  0  0  0  0  0
  -26.9489  -15.7957   18.6625 N   0  0  0  0  0  0  0  0  0  0  0  0
  -22.5546  -27.4056   21.4314 N   0  0  0  0  0  0  0  0  0  0  0  0
  -26.3785  -19.0255   16.7062 N   0  0  0  0  0  0  0  0  0  0  0  0
  -25.4018  -15.3669   20.4041 N   0  0  0  0  0  0  0  0  0  0  0  0
  -28.6900  -12.3674   21.1696 N   0  0  0  0  0  0  0  0  0  0  0  0
  -27.3224  -20.7147   18.0546 N   0  0  0  0  0  0  0  0  0  0  0  0
  -23.0145  -30.8937   22.3895 N   0  0  0  0  0  0  0  0  0  0  0  0
  -20.6900  -24.5853   21.2660 N   0  0  0  0  0  0  0  0  0  0  0  0
  -21.0100  -22.6770   18.2125 N   0  3  0  0  0  0  0  0  0  0  0  0
  -26.6589  -13.1330   21.9094 O   0  0  0  0  0  0  0  0  0  0  0  0
  -23.3045  -28.8259   23.4203 O   0  0  0  0  0  0  0  0  0  0  0  0
  -20.2475  -27.3714   21.7668 O   0  0  0  0  0  0  0  0  0  0  0  0
  -22.5259  -23.4175   20.4643 O   0  0  0  0  0  0  0  0  0  0  0  0
  -25.7602  -21.2345   16.4203 O   0  0  0  0  0  0  0  0  0  0  0  0
  -33.3301  -11.7259   18.1540 O   0  0  0  0  0  0  0  0  0  0  0  0
  -28.5075  -26.6368   20.0083 O   0  0  0  0  0  0  0  0  0  1  0  0
  -36.5441  -10.8121   22.5402 F   0  0  0  0  0  0  0  0  0  0  0  0
  -32.4163  -10.2364   20.2962 F   0  0  0  0  0  0  0  0  0  0  0  0
  1  2  1  0  0  0  0
  1  5  2  0  0  0  0
  2  6  2  0  0  0  0
  3 10  2  0  0  0  0
  3 18  1  0  0  0  0
  4 11  1  0  0  0  0
  4 18  2  0  0  0  0
  5 20  1  0  0  0  0
  6 22  1  0  0  0  0
  7 12  2  0  0  0  0
  7 21  1  0  0  0  0
  8  9  2  0  0  0  0
  8 24  1  0  0  0  0
  9 26  1  0  0  0  0
 10 27  1  0  0  0  0
 11 27  2  0  0  0  0
 12 28  1  0  0  0  0
 13 14  2  0  0  0  0
 13 29  1  0  0  0  0
 14 30  1  0  0  0  0
 15 23  1  0  0  0  0
 15 28  2  0  0  0  0
 16 24  2  0  0  0  0
 16 25  1  0  0  0  0
 17 30  2  0  0  0  0
 17 31  1  0  0  0  0
 18 32  1  0  0  0  0
 19 32  1  0  0  0  0
 19 33  2  0  0  0  0
 19 34  1  0  0  0  0
 20 22  2  0  0  0  0
 20 39  1  0  0  0  0
 21 23  2  0  0  0  0
 21 40  1  0  0  0  0
 22 48  1  0  0  0  0
 23 41  1  0  0  0  0
 24 59  1  0  0  0  0
 25 26  2  0  0  0  0
 25 51  1  0  0  0  0
 26 69  1  0  0  0  0
 27 78  1  0  0  0  0
 28 79  1  0  0  0  0
 29 31  2  0  0  0  0
 29 78  1  0  0  0  0
 30 80  1  0  0  0  0
 31 81  1  0  0  0  0
 32 63  2  0  0  0  0
 33 64  1  0  0  0  0
 33 67  1  0  0  0  0
 34 68  1  0  0  0  0
 34 73  2  0  0  0  0
 35 49  1  0  0  0  0
 35 70  1  0  0  0  0
 35 74  2  0  0  0  0
 36 60  1  0  0  0  0
 36 65  1  0  0  0  0
 36 75  2  0  0  0  0
 37 61  1  0  0  0  0
 37 71  1  0  0  0  0
 37 76  2  0  0  0  0
 38 66  1  0  0  0  0
 38 69  1  0  0  0  0
 38 77  2  0  0  0  0
 39 42  1  0  0  0  0
 40 49  1  0  0  0  0
 41 65  1  0  0  0  0
 42 44  1  0  0  0  0
 43 45  1  0  0  0  0
 43 46  1  0  0  0  0
 44 48  1  0  0  0  0
 45 50  1  0  0  0  0
 46 66  1  0  0  0  0
 47 50  1  0  0  0  0
 47 66  1  0  0  0  0
 48 70  1  0  0  0  0
 49 65  1  0  0  0  0
 50 64  1  0  0  0  0
 52 59  1  0  0  0  0
 53 61  1  0  0  0  0
 54 62  1  0  0  0  0
 55 62  1  0  0  0  0
 56 62  1  0  0  0  0
 57 72  1  0  0  0  0
 58 59  1  0  0  0  0
 58 79  1  0  0  0  0
 60 62  1  0  0  0  0
 60 71  1  0  0  0  0
 61 72  1  0  0  0  0
 63 64  1  0  0  0  0
M  CHG  1  72   1
M  ISO  4  38 100  58 101  69 100  79 101
M  END
> <Batch ID>
0112

> <Smiles>
CNC(C)C(=O)NC(C(=O)N1Cc2cc([101O:1][101CH2:1]C(C)c3ccc([100NH:0][100C:0](=O)N4CCCC(n5nc(-c6ccc(Oc7ccc(F)cc7F)cc6)c(C(N)=O)c5N)C4)c(C)c3)ccc2CC1C(=O)NC1CCCc2ccccc21)C(C)(C)C

> <Shape>
0.212

> <Color>
0.095

> <Negative vol penalty>
0.000

$$$$

  -OEChem-04052320033D

 84 92  0     1  0  0  0  0  0999 V2000
  -28.3154  -24.0043   18.0161 C   0  0  0  0  0  0  0  0  0  0  0  0
  -27.1363  -24.2696   18.7050 C   0  0  0  0  0  0  0  0  0  0  0  0
  -25.4888  -14.1621   19.0636 C   0  0  0  0  0  0  0  0  0  0  0  0
  -23.6392  -14.1113   20.6171 C   0  0  0  0  0  0  0  0  0  0  0  0
  -29.5018  -24.6270   18.4016 C   0  0  0  0  0  0  0  0  0  0  0  0
  -27.1431  -25.1570   19.7806 C   0  0  0  0  0  0  0  0  0  0  0  0
  -23.2541  -28.3980   19.6500 C   0  0  0  0  0  0  0  0  0  0  0  0
  -25.8603  -12.8786   19.4639 C   0  0  0  0  0  0  0  0  0  0  0  0
  -24.0107  -12.8278   21.0174 C   0  0  0  0  0  0  0  0  0  0  0  0
  -22.0116  -27.9186   20.0626 C   0  0  0  0  0  0  0  0  0  0  0  0
  -24.2583   -9.3953   22.1899 C   0  0  0  0  0  0  0  0  0  0  0  0
  -23.2515   -8.4386   22.3189 C   0  0  0  0  0  0  0  0  0  0  0  0
  -22.3299  -28.9629   22.2138 C   0  0  0  0  0  0  0  0  0  0  0  0
  -22.6939   -8.7107   19.9839 C   0  0  0  0  0  0  0  0  0  0  0  0
  -18.1835  -23.7890   20.5102 C   0  0  0  0  0  0  0  0  0  0  0  0
  -20.1813  -24.1695   21.4476 C   0  0  0  0  0  0  0  0  0  0  0  0
  -24.3783  -14.7785   19.6402 C   0  0  0  0  0  0  0  0  0  0  0  0
  -19.0654  -22.8700   19.9861 C   0  0  0  0  0  0  0  0  0  0  0  0
  -23.1108  -16.4486   18.1871 C   0  0  0  0  0  0  0  0  0  0  0  0
  -29.5213  -25.5298   19.4764 C   0  0  0  0  0  0  0  0  0  0  0  0
  -24.0499  -29.1555   20.5213 C   0  0  0  0  0  0  0  0  0  0  0  0
  -28.3311  -25.7913   20.1817 C   0  0  0  0  0  0  0  0  0  0  0  0
  -23.5810  -29.4529   21.8089 C   0  0  0  0  0  0  0  0  0  0  0  0
  -20.3294  -23.1107   20.5790 C   0  0  0  0  0  0  0  0  0  0  0  0
  -25.1212  -12.2114   20.4407 C   0  0  0  0  0  0  0  0  0  0  0  0
  -21.5506  -28.1986   21.3457 C   0  0  0  0  0  0  0  0  0  0  0  0
  -24.4828  -10.0098   20.9580 C   0  0  0  0  0  0  0  0  0  0  0  0
  -22.4693   -8.0962   21.2159 C   0  0  0  0  0  0  0  0  0  0  0  0
  -23.7007   -9.6674   19.8550 C   0  0  0  0  0  0  0  0  0  0  0  0
  -23.9944  -16.1045   19.2276 C   0  0  0  0  0  0  0  0  0  0  0  0
  -23.0830  -17.8218   18.2002 C   0  0  0  0  0  0  0  0  0  0  0  0
  -18.7100  -21.8723   19.0174 C   0  0  0  0  0  0  0  0  0  0  0  0
  -22.3803  -15.6027   17.2890 C   0  0  0  0  0  0  0  0  0  0  0  0
  -26.9254  -28.7873   21.8252 C   0  0  0  0  0  0  0  0  0  0  0  0
  -26.3956  -31.8022   22.8984 C   0  0  0  0  0  0  0  0  0  0  0  0
  -24.1437  -34.2341   23.7119 C   0  0  0  0  0  0  0  0  0  0  0  0
  -22.7823  -22.6617   20.9365 C   0  0  0  0  0  0  0  0  0  0  0  0
  -30.8372  -26.1424   19.8862 C   0  0  0  0  0  0  0  0  0  0  0  0
  -25.3761  -29.6878   20.0518 C   0  0  0  0  0  0  0  0  0  0  0  0
  -24.3881  -30.2790   22.7756 C   0  0  0  0  0  0  0  0  0  0  0  0
  -30.6859  -27.3559   20.7999 C   0  0  0  0  0  0  0  0  0  0  0  0
  -25.9950  -21.1519   20.6604 C   0  0  0  0  0  0  0  0  0  0  0  0
  -29.6836  -27.0648   21.9123 C   0  0  0  0  0  0  0  0  0  0  0  0
  -25.6882  -19.7325   20.1774 C   0  0  0  0  0  0  0  0  0  0  0  0
  -24.9414  -21.6561   21.6451 C   0  0  0  0  0  0  0  0  0  0  0  0
  -23.2477  -20.1443   20.6885 C   0  0  0  0  0  0  0  0  0  0  0  0
  -28.2932  -26.7668   21.3381 C   0  0  1  0  0  0  0  0  0  0  0  0
  -26.3282  -30.0152   21.1980 C   0  0  1  0  0  0  0  0  0  0  0  0
  -24.2464  -19.6177   19.6450 C   0  0  2  0  0  0  0  0  0  0  0  0
  -17.2788  -21.8222   18.5385 C   0  0  0  0  0  0  0  0  0  0  0  0
  -24.0098  -36.5787   24.5963 C   0  0  0  0  0  0  0  0  0  0  0  0
  -19.1255  -28.8934   20.0295 C   0  0  0  0  0  0  0  0  0  0  0  0
  -27.0020  -30.7749   25.7068 C   0  0  0  0  0  0  0  0  0  0  0  0
  -25.9476  -32.8541   26.6197 C   0  0  0  0  0  0  0  0  0  0  0  0
  -27.9798  -33.0161   25.1821 C   0  0  0  0  0  0  0  0  0  0  0  0
  -22.8228  -35.2110   21.2502 C   0  0  0  0  0  0  0  0  0  0  0  0
  -18.2799  -25.7063   22.1997 C   0  0  0  0  0  0  0  0  0  0  0  0
  -25.7637  -32.4027   24.1310 C   0  0  1  0  0  0  0  0  0  0  0  0
  -24.0780  -35.7073   23.3518 C   0  0  2  0  0  0  0  0  0  0  0  0
  -18.0557  -26.9852   21.3744 C   0  0  2  0  0  0  0  0  0  0  0  0
  -19.3380  -27.5643   20.7476 C   0  0  2  0  0  0  0  0  0  1  0  0
  -26.6587  -32.2447   25.3926 C   0  0  0  0  0  0  0  0  0  0  0  0
  -24.4921  -17.1730   19.8558 N   0  0  0  0  0  0  0  0  0  0  0  0
  -18.8727  -24.5735   21.3978 N   0  0  0  0  0  0  0  0  0  0  0  0
  -23.9194  -18.2019   19.2083 N   0  0  0  0  0  0  0  0  0  0  0  0
  -25.6809  -30.7714   22.2720 N   0  0  0  0  0  0  0  0  0  0  0  0
  -23.6009  -21.5204   21.0709 N   0  0  0  0  0  0  0  0  0  0  0  0
  -22.4251  -18.7291   17.4476 N   0  0  0  0  0  0  0  0  0  0  0  0
  -22.5240  -14.2141   17.4136 N   0  0  0  0  0  0  0  0  0  0  0  0
  -21.5424  -22.4158   20.3478 N   0  0  0  0  0  0  0  0  0  0  0  0
  -27.6354  -27.9942   20.9441 N   0  0  0  0  0  0  0  0  0  0  0  0
  -25.4450  -33.7858   23.7938 N   0  0  0  0  0  0  0  0  0  0  0  0
  -17.4483  -27.9975   22.2944 N   0  3  0  0  0  0  0  0  0  0  0  0
  -22.8741  -35.9836   22.5180 N   0  3  0  0  0  0  0  0  0  0  0  0
  -19.4814  -21.0271   18.5298 O   0  0  0  0  0  0  0  0  0  0  0  0
  -21.6354  -16.0648   16.3918 O   0  0  0  0  0  0  0  0  0  0  0  0
  -26.7558  -28.5759   23.0203 O   0  0  0  0  0  0  0  0  0  0  0  0
  -27.4798  -32.2368   22.5019 O   0  0  0  0  0  0  0  0  0  0  0  0
  -23.1409  -33.5503   23.9051 O   0  0  0  0  0  0  0  0  0  0  0  0
  -23.1645  -23.7799   21.2909 O   0  0  0  0  0  0  0  0  0  0  0  0
  -25.4833  -10.9589   20.8314 O   0  0  0  0  0  0  0  0  0  0  0  0
  -20.3386  -27.7314   21.7512 O   0  0  0  0  0  0  0  0  0  1  0  0
  -21.5036   -7.1763   21.3395 F   0  0  0  0  0  0  0  0  0  0  0  0
  -23.9125  -10.2535   18.6686 F   0  0  0  0  0  0  0  0  0  0  0  0
  1  2  1  0  0  0  0
  1  5  2  0  0  0  0
  2  6  2  0  0  0  0
  3  8  2  0  0  0  0
  3 17  1  0  0  0  0
  4  9  1  0  0  0  0
  4 17  2  0  0  0  0
  5 20  1  0  0  0  0
  6 22  1  0  0  0  0
  7 10  2  0  0  0  0
  7 21  1  0  0  0  0
  8 25  1  0  0  0  0
  9 25  2  0  0  0  0
 10 26  1  0  0  0  0
 11 12  2  0  0  0  0
 11 27  1  0  0  0  0
 12 28  1  0  0  0  0
 13 23  1  0  0  0  0
 13 26  2  0  0  0  0
 14 28  2  0  0  0  0
 14 29  1  0  0  0  0
 15 18  2  0  0  0  0
 15 64  1  0  0  0  0
 16 24  2  0  0  0  0
 16 64  1  0  0  0  0
 17 30  1  0  0  0  0
 18 24  1  0  0  0  0
 18 32  1  0  0  0  0
 19 30  1  0  0  0  0
 19 31  2  0  0  0  0
 19 33  1  0  0  0  0
 20 22  2  0  0  0  0
 20 38  1  0  0  0  0
 21 23  2  0  0  0  0
 21 39  1  0  0  0  0
 22 47  1  0  0  0  0
 23 40  1  0  0  0  0
 24 70  1  0  0  0  0
 25 81  1  0  0  0  0
 26 82  1  0  0  0  0
 27 29  2  0  0  0  0
 27 81  1  0  0  0  0
 28 83  1  0  0  0  0
 29 84  1  0  0  0  0
 30 63  2  0  0  0  0
 31 65  1  0  0  0  0
 31 68  1  0  0  0  0
 32 50  1  0  0  0  0
 32 75  2  0  0  0  0
 33 69  1  0  0  0  0
 33 76  2  0  0  0  0
 34 48  1  0  0  0  0
 34 71  1  0  0  0  0
 34 77  2  0  0  0  0
 35 58  1  0  0  0  0
 35 66  1  0  0  0  0
 35 78  2  0  0  0  0
 36 59  1  0  0  0  0
 36 72  1  0  0  0  0
 36 79  2  0  0  0  0
 37 67  1  0  0  0  0
 37 70  1  0  0  0  0
 37 80  2  0  0  0  0
 38 41  1  0  0  0  0
 39 48  1  0  0  0  0
 40 66  1  0  0  0  0
 41 43  1  0  0  0  0
 42 44  1  0  0  0  0
 42 45  1  0  0  0  0
 43 47  1  0  0  0  0
 44 49  1  0  0  0  0
 45 67  1  0  0  0  0
 46 49  1  0  0  0  0
 46 67  1  0  0  0  0
 47 71  1  0  0  0  0
 48 66  1  0  0  0  0
 49 65  1  0  0  0  0
 51 59  1  0  0  0  0
 52 61  1  0  0  0  0
 53 62  1  0  0  0  0
 54 62  1  0  0  0  0
 55 62  1  0  0  0  0
 56 74  1  0  0  0  0
 57 60  1  0  0  0  0
 57 64  1  0  0  0  0
 58 62  1  0  0  0  0
 58 72  1  0  0  0  0
 59 74  1  0  0  0  0
 60 61  1  0  0  0  0
 60 73  1  0  0  0  0
 61 82  1  0  0  0  0
 63 65  1  0  0  0  0
M  CHG  2  73   1  74   1
M  ISO  4  37 100  61 101  70 100  82 101
M  END
> <Batch ID>
0112

> <Smiles>
CNC(C)C(=O)NC(C(=O)N1Cc2cc([101O:1][101CH:1](C)C(N)Cn3cc([100NH:0][100C:0](=O)N4CCCC(n5nc(-c6ccc(Oc7ccc(F)cc7F)cc6)c(C(N)=O)c5N)C4)c(C(C)=O)c3)ccc2CC1C(=O)NC1CCCc2ccccc21)C(C)(C)C

> <Shape>
0.278

> <Color>
0.070

> <Negative vol penalty>
0.000

$$$$

  -OEChem-04052320033D

 84 92  0     1  0  0  0  0  0999 V2000
  -29.1756  -33.7175   18.1770 C   0  0  0  0  0  0  0  0  0  0  0  0
  -30.1084  -32.9740   17.4611 C   0  0  0  0  0  0  0  0  0  0  0  0
  -22.9914   -9.9123   20.0240 C   0  0  0  0  0  0  0  0  0  0  0  0
  -23.6916  -10.0391   22.3328 C   0  0  0  0  0  0  0  0  0  0  0  0
  -28.8434  -33.3486   19.4798 C   0  0  0  0  0  0  0  0  0  0  0  0
  -30.7103  -31.8616   18.0481 C   0  0  0  0  0  0  0  0  0  0  0  0
  -33.3058  -25.3936   16.3911 C   0  0  0  0  0  0  0  0  0  0  0  0
  -22.2159   -8.7915   20.3207 C   0  0  0  0  0  0  0  0  0  0  0  0
  -22.9161   -8.9184   22.6296 C   0  0  0  0  0  0  0  0  0  0  0  0
  -34.4558  -24.6216   16.5495 C   0  0  0  0  0  0  0  0  0  0  0  0
  -23.1475   -5.5639   22.2758 C   0  0  0  0  0  0  0  0  0  0  0  0
  -23.7213   -4.5704   23.0689 C   0  0  0  0  0  0  0  0  0  0  0  0
  -33.7456  -24.0317   18.7782 C   0  0  0  0  0  0  0  0  0  0  0  0
  -31.8405  -17.4813   21.5584 C   0  0  0  0  0  0  0  0  0  0  0  0
  -21.9806   -4.8796   24.7156 C   0  0  0  0  0  0  0  0  0  0  0  0
  -30.6335  -18.9469   22.7688 C   0  0  0  0  0  0  0  0  0  0  0  0
  -23.7293  -10.5361   21.0300 C   0  0  0  0  0  0  0  0  0  0  0  0
  -24.1301  -13.0421   20.7717 C   0  0  0  0  0  0  0  0  0  0  0  0
  -29.4344  -32.2254   20.0797 C   0  0  0  0  0  0  0  0  0  0  0  0
  -32.3707  -25.4994   17.4308 C   0  0  0  0  0  0  0  0  0  0  0  0
  -30.3867  -31.4780   19.3607 C   0  0  0  0  0  0  0  0  0  0  0  0
  -32.5832  -24.8036   18.6295 C   0  0  0  0  0  0  0  0  0  0  0  0
  -31.8604  -18.7582   22.1719 C   0  0  0  0  0  0  0  0  0  0  0  0
  -22.1782   -8.2946   21.6235 C   0  0  0  0  0  0  0  0  0  0  0  0
  -34.6773  -23.9429   17.7443 C   0  0  0  0  0  0  0  0  0  0  0  0
  -21.9903   -6.2154   22.7025 C   0  0  0  0  0  0  0  0  0  0  0  0
  -23.1378   -4.2282   24.2888 C   0  0  0  0  0  0  0  0  0  0  0  0
  -21.4068   -5.8733   23.9223 C   0  0  0  0  0  0  0  0  0  0  0  0
  -24.5311  -11.6935   20.7240 C   0  0  0  0  0  0  0  0  0  0  0  0
  -30.6019  -16.9288   21.7989 C   0  0  0  0  0  0  0  0  0  0  0  0
  -25.2477  -13.7461   20.3950 C   0  0  0  0  0  0  0  0  0  0  0  0
  -22.8610  -13.6079   21.1251 C   0  0  0  0  0  0  0  0  0  0  0  0
  -31.2448  -27.8876   19.2007 C   0  0  0  0  0  0  0  0  0  0  0  0
  -29.2498  -25.5929   20.3306 C   0  0  0  0  0  0  0  0  0  0  0  0
  -28.6596  -22.2748   20.8673 C   0  0  0  0  0  0  0  0  0  0  0  0
  -30.7294  -14.6870   20.6566 C   0  0  0  0  0  0  0  0  0  0  0  0
  -29.0786  -31.8932   21.5072 C   0  0  0  0  0  0  0  0  0  0  0  0
  -31.1221  -26.3147   17.2343 C   0  0  0  0  0  0  0  0  0  0  0  0
  -31.6002  -24.8681   19.7688 C   0  0  0  0  0  0  0  0  0  0  0  0
  -29.4838  -30.4815   21.9232 C   0  0  0  0  0  0  0  0  0  0  0  0
  -29.6233  -12.1611   18.4042 C   0  0  0  0  0  0  0  0  0  0  0  0
  -30.9129  -30.1840   21.4807 C   0  0  0  0  0  0  0  0  0  0  0  0
  -28.1669  -11.9252   18.8108 C   0  0  0  0  0  0  0  0  0  0  0  0
  -30.5119  -12.4415   19.6148 C   0  0  0  0  0  0  0  0  0  0  0  0
  -28.5864  -13.2855   20.8990 C   0  0  0  0  0  0  0  0  0  0  0  0
  -31.0429  -30.2503   19.9542 C   0  0  1  0  0  0  0  0  0  0  0  0
  -30.4896  -26.7648   18.5475 C   0  0  1  0  0  0  0  0  0  0  0  0
  -27.6408  -13.0632   19.7074 C   0  0  2  0  0  0  0  0  0  0  0  0
  -26.9589  -20.7092   21.8441 C   0  0  0  0  0  0  0  0  0  0  0  0
  -30.1593  -26.3616   23.1398 C   0  0  0  0  0  0  0  0  0  0  0  0
  -29.1967  -24.2033   23.9666 C   0  0  0  0  0  0  0  0  0  0  0  0
  -27.7087  -25.9121   22.9232 C   0  0  0  0  0  0  0  0  0  0  0  0
  -35.9967  -23.5725   20.2630 C   0  0  0  0  0  0  0  0  0  0  0  0
  -37.2917  -21.7599   19.1097 C   0  0  0  0  0  0  0  0  0  0  0  0
  -28.5201  -17.6469   23.0048 C   0  0  0  0  0  0  0  0  0  0  0  0
  -28.2443  -20.9195   18.2693 C   0  0  0  0  0  0  0  0  0  0  0  0
  -33.0060  -19.7270   22.1726 C   0  0  0  0  0  0  0  0  0  0  0  0
  -34.7994  -21.5234   19.3237 C   0  0  0  0  0  0  0  0  0  0  0  0
  -34.5053  -21.1547   20.7753 C   0  0  0  0  0  0  0  0  0  0  0  0
  -29.2993  -24.5963   21.4634 C   0  0  1  0  0  0  0  0  0  0  0  0
  -27.4451  -21.4090   20.5845 C   0  0  2  0  0  0  0  0  0  0  0  0
  -29.1107  -25.2685   22.8527 C   0  0  0  0  0  0  0  0  0  0  0  0
  -35.9625  -22.5206   19.1519 C   0  0  0  0  0  0  0  0  0  1  0  0
  -25.8039  -11.5470   20.3465 N   0  0  0  0  0  0  0  0  0  0  0  0
  -29.8765  -17.8286   22.5353 N   0  0  0  0  0  0  0  0  0  0  0  0
  -26.2124  -12.8127   20.1536 N   0  0  0  0  0  0  0  0  0  0  0  0
  -30.3976  -25.6834   19.5305 N   0  0  0  0  0  0  0  0  0  0  0  0
  -29.9535  -13.5337   20.4149 N   0  0  0  0  0  0  0  0  0  0  0  0
  -25.4894  -15.0663   20.2499 N   0  0  0  0  0  0  0  0  0  0  0  0
  -21.8208  -12.7413   21.4874 N   0  0  0  0  0  0  0  0  0  0  0  0
  -30.0818  -15.6720   21.4016 N   0  0  0  0  0  0  0  0  0  0  0  0
  -30.5102  -29.0485   19.3489 N   0  0  0  0  0  0  0  0  0  0  0  0
  -28.3039  -23.5759   21.1532 N   0  0  0  0  0  0  0  0  0  0  0  0
  -27.7745  -20.3708   19.5674 N   0  3  0  0  0  0  0  0  0  0  0  0
  -33.4127  -20.1499   20.8053 N   0  3  0  0  0  0  0  0  0  0  0  0
  -22.6507  -14.8444   21.1038 O   0  0  0  0  0  0  0  0  0  0  0  0
  -32.4076  -27.7131   19.5460 O   0  0  0  0  0  0  0  0  0  0  0  0
  -28.2275  -26.2613   20.1573 O   0  0  0  0  0  0  0  0  0  0  0  0
  -29.8086  -21.8394   20.8411 O   0  0  0  0  0  0  0  0  0  0  0  0
  -31.8737  -14.8045   20.2107 O   0  0  0  0  0  0  0  0  0  0  0  0
  -21.4214   -7.2011   21.9135 O   0  0  0  0  0  0  0  0  0  0  0  0
  -35.7994  -23.1892   17.9018 O   0  0  0  0  0  0  0  0  0  1  0  0
  -23.6881   -3.2730   25.0497 F   0  0  0  0  0  0  0  0  0  0  0  0
  -20.2943   -6.4948   24.3370 F   0  0  0  0  0  0  0  0  0  0  0  0
  1  2  1  0  0  0  0
  1  5  2  0  0  0  0
  2  6  2  0  0  0  0
  3  8  2  0  0  0  0
  3 17  1  0  0  0  0
  4  9  1  0  0  0  0
  4 17  2  0  0  0  0
  5 19  1  0  0  0  0
  6 21  1  0  0  0  0
  7 10  2  0  0  0  0
  7 20  1  0  0  0  0
  8 24  1  0  0  0  0
  9 24  2  0  0  0  0
 10 25  1  0  0  0  0
 11 12  2  0  0  0  0
 11 26  1  0  0  0  0
 12 27  1  0  0  0  0
 13 22  1  0  0  0  0
 13 25  2  0  0  0  0
 14 23  1  0  0  0  0
 14 30  2  0  0  0  0
 15 27  2  0  0  0  0
 15 28  1  0  0  0  0
 16 23  2  0  0  0  0
 16 65  1  0  0  0  0
 17 29  1  0  0  0  0
 18 29  1  0  0  0  0
 18 31  2  0  0  0  0
 18 32  1  0  0  0  0
 19 21  2  0  0  0  0
 19 37  1  0  0  0  0
 20 22  2  0  0  0  0
 20 38  1  0  0  0  0
 21 46  1  0  0  0  0
 22 39  1  0  0  0  0
 23 57  1  0  0  0  0
 24 81  1  0  0  0  0
 25 82  1  0  0  0  0
 26 28  2  0  0  0  0
 26 81  1  0  0  0  0
 27 83  1  0  0  0  0
 28 84  1  0  0  0  0
 29 64  2  0  0  0  0
 30 65  1  0  0  0  0
 30 71  1  0  0  0  0
 31 66  1  0  0  0  0
 31 69  1  0  0  0  0
 32 70  1  0  0  0  0
 32 76  2  0  0  0  0
 33 47  1  0  0  0  0
 33 72  1  0  0  0  0
 33 77  2  0  0  0  0
 34 60  1  0  0  0  0
 34 67  1  0  0  0  0
 34 78  2  0  0  0  0
 35 61  1  0  0  0  0
 35 73  1  0  0  0  0
 35 79  2  0  0  0  0
 36 68  1  0  0  0  0
 36 71  1  0  0  0  0
 36 80  2  0  0  0  0
 37 40  1  0  0  0  0
 38 47  1  0  0  0  0
 39 67  1  0  0  0  0
 40 42  1  0  0  0  0
 41 43  1  0  0  0  0
 41 44  1  0  0  0  0
 42 46  1  0  0  0  0
 43 48  1  0  0  0  0
 44 68  1  0  0  0  0
 45 48  1  0  0  0  0
 45 68  1  0  0  0  0
 46 72  1  0  0  0  0
 47 67  1  0  0  0  0
 48 66  1  0  0  0  0
 49 61  1  0  0  0  0
 50 62  1  0  0  0  0
 51 62  1  0  0  0  0
 52 62  1  0  0  0  0
 53 63  1  0  0  0  0
 54 63  1  0  0  0  0
 55 65  1  0  0  0  0
 56 74  1  0  0  0  0
 57 75  1  0  0  0  0
 58 59  1  0  0  0  0
 58 63  1  0  0  0  0
 59 75  1  0  0  0  0
 60 62  1  0  0  0  0
 60 73  1  0  0  0  0
 61 74  1  0  0  0  0
 63 82  1  0  0  0  0
 64 66  1  0  0  0  0
M  CHG  2  74   1  75   1
M  ISO  4  36 100  63 101  71 100  82 101
M  END
> <Batch ID>
0112

> <Smiles>
CNC(C)C(=O)NC(C(=O)N1Cc2cc([101O:1][101C:1](C)(C)CCNCc3cc([100NH:0][100C:0](=O)N4CCCC(n5nc(-c6ccc(Oc7ccc(F)cc7F)cc6)c(C(N)=O)c5N)C4)n(C)c3)ccc2CC1C(=O)NC1CCCc2ccccc21)C(C)(C)C

> <Shape>
0.260

> <Color>
0.212

> <Negative vol penalty>
0.000

$$$$

  -OEChem-04052320033D

 85 93  0     1  0  0  0  0  0999 V2000
  -23.0648  -26.3686   17.3389 C   0  0  0  0  0  0  0  0  0  0  0  0
  -24.1174  -26.0568   18.1935 C   0  0  0  0  0  0  0  0  0  0  0  0
  -22.9956   -9.8812   20.0040 C   0  0  0  0  0  0  0  0  0  0  0  0
  -23.6866   -9.9927   22.3164 C   0  0  0  0  0  0  0  0  0  0  0  0
  -22.0014  -27.1443   17.7987 C   0  0  0  0  0  0  0  0  0  0  0  0
  -24.1076  -26.5213   19.5082 C   0  0  0  0  0  0  0  0  0  0  0  0
  -25.4297  -22.9459   22.8419 C   0  0  0  0  0  0  0  0  0  0  0  0
  -29.6949  -19.2908   22.1669 C   0  0  0  0  0  0  0  0  0  0  0  0
  -29.5017  -17.9106   22.2230 C   0  0  0  0  0  0  0  0  0  0  0  0
  -22.2247   -8.7541   20.2887 C   0  0  0  0  0  0  0  0  0  0  0  0
  -22.9157   -8.8657   22.6011 C   0  0  0  0  0  0  0  0  0  0  0  0
  -26.7886  -22.6579   22.9613 C   0  0  0  0  0  0  0  0  0  0  0  0
  -21.4154   -5.8053   23.8634 C   0  0  0  0  0  0  0  0  0  0  0  0
  -21.9897   -4.8098   24.6537 C   0  0  0  0  0  0  0  0  0  0  0  0
  -26.8979  -24.0261   24.9451 C   0  0  0  0  0  0  0  0  0  0  0  0
  -31.1828  -17.6059   20.5147 C   0  0  0  0  0  0  0  0  0  0  0  0
  -23.7406   -4.5187   23.0144 C   0  0  0  0  0  0  0  0  0  0  0  0
  -23.7266  -10.5005   21.0179 C   0  0  0  0  0  0  0  0  0  0  0  0
  -24.1154  -13.0106   20.7814 C   0  0  0  0  0  0  0  0  0  0  0  0
  -21.9739  -27.6105   19.1225 C   0  0  0  0  0  0  0  0  0  0  0  0
  -24.7960  -23.7863   23.7685 C   0  0  0  0  0  0  0  0  0  0  0  0
  -23.0434  -27.3050   19.9858 C   0  0  0  0  0  0  0  0  0  0  0  0
  -25.5303  -24.3211   24.8366 C   0  0  0  0  0  0  0  0  0  0  0  0
  -30.6320  -19.8286   21.2847 C   0  0  0  0  0  0  0  0  0  0  0  0
  -31.3760  -18.9861   20.4587 C   0  0  0  0  0  0  0  0  0  0  0  0
  -30.2456  -17.0681   21.3969 C   0  0  0  0  0  0  0  0  0  0  0  0
  -22.1848   -8.2463   21.5873 C   0  0  0  0  0  0  0  0  0  0  0  0
  -27.5235  -23.2004   24.0114 C   0  0  0  0  0  0  0  0  0  0  0  0
  -22.0035   -6.1575   22.6486 C   0  0  0  0  0  0  0  0  0  0  0  0
  -23.1523   -4.1665   24.2292 C   0  0  0  0  0  0  0  0  0  0  0  0
  -23.1661   -5.5142   22.2241 C   0  0  0  0  0  0  0  0  0  0  0  0
  -24.5235  -11.6645   20.7243 C   0  0  0  0  0  0  0  0  0  0  0  0
  -25.2307  -13.7233   20.4146 C   0  0  0  0  0  0  0  0  0  0  0  0
  -22.8421  -13.5670   21.1346 C   0  0  0  0  0  0  0  0  0  0  0  0
  -23.3008  -26.5863   23.6011 C   0  0  0  0  0  0  0  0  0  0  0  0
  -22.6454  -25.9820   26.7199 C   0  0  0  0  0  0  0  0  0  0  0  0
  -23.4957  -24.3545   29.5966 C   0  0  0  0  0  0  0  0  0  0  0  0
  -30.7065  -14.6902   20.7043 C   0  0  0  0  0  0  0  0  0  0  0  0
  -20.8260  -28.4853   19.5604 C   0  0  0  0  0  0  0  0  0  0  0  0
  -23.3236  -24.0656   23.6409 C   0  0  0  0  0  0  0  0  0  0  0  0
  -24.8927  -25.2128   25.8695 C   0  0  0  0  0  0  0  0  0  0  0  0
  -20.7100  -28.6245   21.0761 C   0  0  0  0  0  0  0  0  0  0  0  0
  -29.6218  -12.1770   18.4275 C   0  0  0  0  0  0  0  0  0  0  0  0
  -22.0748  -28.9170   21.6914 C   0  0  0  0  0  0  0  0  0  0  0  0
  -28.1652  -11.9303   18.8267 C   0  0  0  0  0  0  0  0  0  0  0  0
  -30.5044  -12.4521   19.6436 C   0  0  0  0  0  0  0  0  0  0  0  0
  -28.5699  -13.2758   20.9274 C   0  0  0  0  0  0  0  0  0  0  0  0
  -23.0570  -27.7697   21.4260 C   0  0  1  0  0  0  0  0  0  0  0  0
  -22.8951  -25.3475   24.3483 C   0  0  1  0  0  0  0  0  0  0  0  0
  -27.6298  -13.0582   19.7305 C   0  0  2  0  0  0  0  0  0  0  0  0
  -32.3863  -19.5393   19.5079 C   0  0  0  0  0  0  0  0  0  0  0  0
  -22.7927  -24.0882   31.9908 C   0  0  0  0  0  0  0  0  0  0  0  0
  -23.8288  -28.7184   27.3692 C   0  0  0  0  0  0  0  0  0  0  0  0
  -23.9756  -28.0089   29.7657 C   0  0  0  0  0  0  0  0  0  0  0  0
  -21.7527  -28.1509   28.6428 C   0  0  0  0  0  0  0  0  0  0  0  0
  -23.0261  -21.4522   29.2571 C   0  0  0  0  0  0  0  0  0  0  0  0
  -30.9952  -25.4622   22.3524 C   0  0  0  0  0  0  0  0  0  0  0  0
  -30.8226  -21.3238   21.2417 C   0  0  0  0  0  0  0  0  0  0  0  0
  -32.0490  -21.8163   22.0212 C   0  0  0  0  0  0  0  0  0  0  0  0
  -32.2436  -23.3293   22.0478 C   0  0  0  0  0  0  0  0  0  0  0  0
  -31.0881  -23.7984   24.2031 C   0  0  0  0  0  0  0  0  0  0  0  0
  -29.6726  -23.9203   24.7319 C   0  0  0  0  0  0  0  0  0  1  0  0
  -23.3319  -26.2732   28.0326 C   0  0  1  0  0  0  0  0  0  0  0  0
  -22.6684  -23.5425   30.5767 C   0  0  2  0  0  0  0  0  0  0  0  0
  -23.2350  -27.7727   28.4322 C   0  0  0  0  0  0  0  0  0  0  0  0
  -25.7984  -11.5276   20.3504 N   0  0  0  0  0  0  0  0  0  0  0  0
  -26.2011  -12.7969   20.1692 N   0  0  0  0  0  0  0  0  0  0  0  0
  -23.4518  -25.4614   25.6979 N   0  0  0  0  0  0  0  0  0  0  0  0
  -29.9374  -13.5349   20.4504 N   0  0  0  0  0  0  0  0  0  0  0  0
  -25.4662  -15.0459   20.2812 N   0  0  0  0  0  0  0  0  0  0  0  0
  -21.8050  -12.6922   21.4860 N   0  0  0  0  0  0  0  0  0  0  0  0
  -30.0511  -15.6657   21.4549 N   0  0  0  0  0  0  0  0  0  0  0  0
  -22.7926  -26.6614   22.3183 N   0  0  0  0  0  0  0  0  0  0  0  0
  -22.7528  -25.3561   29.0083 N   0  0  0  0  0  0  0  0  0  0  0  0
  -23.1171  -22.1214   30.5803 N   0  3  0  0  0  0  0  0  0  0  0  0
  -31.0815  -24.0048   22.7329 N   0  3  1  0  0  0  0  0  0  0  0  0
  -22.6255  -14.8025   21.1227 O   0  0  0  0  0  0  0  0  0  0  0  0
  -24.0205  -27.4136   24.1483 O   0  0  0  0  0  0  0  0  0  0  0  0
  -21.4367  -26.2015   26.6079 O   0  0  0  0  0  0  0  0  0  0  0  0
  -24.6832  -24.1256   29.3776 O   0  0  0  0  0  0  0  0  0  0  0  0
  -31.8518  -14.8171   20.2637 O   0  0  0  0  0  0  0  0  0  0  0  0
  -21.4325   -7.1467   21.8655 O   0  0  0  0  0  0  0  0  0  0  0  0
  -28.8502  -22.9215   24.1300 O   0  0  0  0  0  0  0  0  0  1  0  0
  -23.7047   -3.2115   24.9889 F   0  0  0  0  0  0  0  0  0  0  0  0
  -23.7364   -5.8491   21.0586 F   0  0  0  0  0  0  0  0  0  0  0  0
  1  2  1  0  0  0  0
  1  5  2  0  0  0  0
  2  6  2  0  0  0  0
  3 10  2  0  0  0  0
  3 18  1  0  0  0  0
  4 11  1  0  0  0  0
  4 18  2  0  0  0  0
  5 20  1  0  0  0  0
  6 22  1  0  0  0  0
  7 12  2  0  0  0  0
  7 21  1  0  0  0  0
  8  9  2  0  0  0  0
  8 24  1  0  0  0  0
  9 26  1  0  0  0  0
 10 27  1  0  0  0  0
 11 27  2  0  0  0  0
 12 28  1  0  0  0  0
 13 14  2  0  0  0  0
 13 29  1  0  0  0  0
 14 30  1  0  0  0  0
 15 23  1  0  0  0  0
 15 28  2  0  0  0  0
 16 25  1  0  0  0  0
 16 26  2  0  0  0  0
 17 30  2  0  0  0  0
 17 31  1  0  0  0  0
 18 32  1  0  0  0  0
 19 32  1  0  0  0  0
 19 33  2  0  0  0  0
 19 34  1  0  0  0  0
 20 22  2  0  0  0  0
 20 39  1  0  0  0  0
 21 23  2  0  0  0  0
 21 40  1  0  0  0  0
 22 48  1  0  0  0  0
 23 41  1  0  0  0  0
 24 25  2  0  0  0  0
 24 58  1  0  0  0  0
 25 51  1  0  0  0  0
 26 72  1  0  0  0  0
 27 82  1  0  0  0  0
 28 83  1  0  0  0  0
 29 31  2  0  0  0  0
 29 82  1  0  0  0  0
 30 84  1  0  0  0  0
 31 85  1  0  0  0  0
 32 66  2  0  0  0  0
 33 67  1  0  0  0  0
 33 70  1  0  0  0  0
 34 71  1  0  0  0  0
 34 77  2  0  0  0  0
 35 49  1  0  0  0  0
 35 73  1  0  0  0  0
 35 78  2  0  0  0  0
 36 63  1  0  0  0  0
 36 68  1  0  0  0  0
 36 79  2  0  0  0  0
 37 64  1  0  0  0  0
 37 74  1  0  0  0  0
 37 80  2  0  0  0  0
 38 69  1  0  0  0  0
 38 72  1  0  0  0  0
 38 81  2  0  0  0  0
 39 42  1  0  0  0  0
 40 49  1  0  0  0  0
 41 68  1  0  0  0  0
 42 44  1  0  0  0  0
 43 45  1  0  0  0  0
 43 46  1  0  0  0  0
 44 48  1  0  0  0  0
 45 50  1  0  0  0  0
 46 69  1  0  0  0  0
 47 50  1  0  0  0  0
 47 69  1  0  0  0  0
 48 73  1  0  0  0  0
 49 68  1  0  0  0  0
 50 67  1  0  0  0  0
 52 64  1  0  0  0  0
 53 65  1  0  0  0  0
 54 65  1  0  0  0  0
 55 65  1  0  0  0  0
 56 75  1  0  0  0  0
 57 76  1  0  0  0  0
 58 59  1  0  0  0  0
 59 60  1  0  0  0  0
 60 76  1  0  0  0  0
 61 62  1  0  0  0  0
 61 76  1  0  0  0  0
 62 83  1  0  0  0  0
 63 65  1  0  0  0  0
 63 74  1  0  0  0  0
 64 75  1  0  0  0  0
 66 67  1  0  0  0  0
M  CHG  2  75   1  76   1
M  ISO  4  38 100  62 101  72 100  83 101
M  END
> <Batch ID>
0112

> <Smiles>
CNC(C)C(=O)NC(C(=O)N1Cc2cc([101O:1][101CH2:1]CN(C)CCCc3ccc([100NH:0][100C:0](=O)N4CCCC(n5nc(-c6ccc(Oc7ccc(F)cc7F)cc6)c(C(N)=O)c5N)C4)cc3C)ccc2CC1C(=O)NC1CCCc2ccccc21)C(C)(C)C

> <Shape>
0.209

> <Color>
0.198

> <Negative vol penalty>
0.000

$$$$

  -OEChem-04052320033D

 84 92  0     1  0  0  0  0  0999 V2000
  -24.8865  -17.7941   24.2249 C   0  0  0  0  0  0  0  0  0  0  0  0
  -26.0751  -18.4832   24.4437 C   0  0  0  0  0  0  0  0  0  0  0  0
  -31.4395  -25.5438   17.4881 C   0  0  0  0  0  0  0  0  0  0  0  0
  -26.4817  -12.6128   21.6377 C   0  0  0  0  0  0  0  0  0  0  0  0
  -25.9803  -13.6538   19.5159 C   0  0  0  0  0  0  0  0  0  0  0  0
  -23.9480  -18.2940   23.3232 C   0  0  0  0  0  0  0  0  0  0  0  0
  -26.3262  -19.6723   23.7600 C   0  0  0  0  0  0  0  0  0  0  0  0
  -29.5909  -25.9967   24.5721 C   0  0  0  0  0  0  0  0  0  0  0  0
  -31.3049  -24.3397   18.1791 C   0  0  0  0  0  0  0  0  0  0  0  0
  -32.0110  -26.6493   18.1182 C   0  0  0  0  0  0  0  0  0  0  0  0
  -25.2395  -11.9787   21.6202 C   0  0  0  0  0  0  0  0  0  0  0  0
  -24.7381  -13.0195   19.4983 C   0  0  0  0  0  0  0  0  0  0  0  0
  -30.5219  -26.8177   23.9372 C   0  0  0  0  0  0  0  0  0  0  0  0
  -23.8356   -9.2913   20.1234 C   0  0  0  0  0  0  0  0  0  0  0  0
  -23.7933   -7.9391   20.4627 C   0  0  0  0  0  0  0  0  0  0  0  0
  -28.7931  -27.6273   22.4625 C   0  0  0  0  0  0  0  0  0  0  0  0
  -32.3131  -25.3465   20.1302 C   0  0  0  0  0  0  0  0  0  0  0  0
  -22.3060   -8.4460   22.2979 C   0  0  0  0  0  0  0  0  0  0  0  0
  -26.8521  -13.4504   20.5856 C   0  0  0  0  0  0  0  0  0  0  0  0
  -29.3464  -13.6186   20.0777 C   0  0  0  0  0  0  0  0  0  0  0  0
  -24.1835  -19.4948   22.6353 C   0  0  0  0  0  0  0  0  0  0  0  0
  -28.2541  -25.9768   24.1492 C   0  0  0  0  0  0  0  0  0  0  0  0
  -25.3905  -20.1881   22.8472 C   0  0  0  0  0  0  0  0  0  0  0  0
  -27.8466  -26.8072   23.0954 C   0  0  0  0  0  0  0  0  0  0  0  0
  -31.7416  -24.2410   19.5001 C   0  0  0  0  0  0  0  0  0  0  0  0
  -32.4478  -26.5507   19.4392 C   0  0  0  0  0  0  0  0  0  0  0  0
  -24.3677  -12.1820   20.5505 C   0  0  0  0  0  0  0  0  0  0  0  0
  -30.1237  -27.6310   22.8803 C   0  0  0  0  0  0  0  0  0  0  0  0
  -23.1132  -10.2210   20.8714 C   0  0  0  0  0  0  0  0  0  0  0  0
  -23.0285   -7.5164   21.5499 C   0  0  0  0  0  0  0  0  0  0  0  0
  -22.3484   -9.7983   21.9587 C   0  0  0  0  0  0  0  0  0  0  0  0
  -28.1350  -14.1063   20.6034 C   0  0  0  0  0  0  0  0  0  0  0  0
  -30.2603  -14.6082   20.3463 C   0  0  0  0  0  0  0  0  0  0  0  0
  -29.6211  -12.3818   19.4066 C   0  0  0  0  0  0  0  0  0  0  0  0
  -26.3147  -23.7643   22.9462 C   0  0  0  0  0  0  0  0  0  0  0  0
  -24.0902  -26.1051   23.2531 C   0  0  0  0  0  0  0  0  0  0  0  0
  -23.4059  -29.4419   23.4647 C   0  0  0  0  0  0  0  0  0  0  0  0
  -29.6399  -20.4257   21.1380 C   0  0  0  0  0  0  0  0  0  0  0  0
  -23.1601  -19.9712   21.6352 C   0  0  0  0  0  0  0  0  0  0  0  0
  -27.2565  -25.1055   24.8620 C   0  0  0  0  0  0  0  0  0  0  0  0
  -26.4189  -26.8378   22.6164 C   0  0  0  0  0  0  0  0  0  0  0  0
  -23.3378  -21.4325   21.2309 C   0  0  0  0  0  0  0  0  0  0  0  0
  -31.1692  -18.1189   23.4698 C   0  0  0  0  0  0  0  0  0  0  0  0
  -24.8010  -21.7245   20.9139 C   0  0  0  0  0  0  0  0  0  0  0  0
  -30.6710  -16.7738   22.9379 C   0  0  0  0  0  0  0  0  0  0  0  0
  -30.0946  -19.1949   23.3450 C   0  0  0  0  0  0  0  0  0  0  0  0
  -29.0632  -18.0333   21.4318 C   0  0  0  0  0  0  0  0  0  0  0  0
  -25.6884  -21.4941   22.1431 C   0  0  1  0  0  0  0  0  0  0  0  0
  -26.0305  -24.7834   24.0131 C   0  0  1  0  0  0  0  0  0  0  0  0
  -30.1116  -16.9087   21.5092 C   0  0  2  0  0  0  0  0  0  0  0  0
  -21.4912  -31.0509   23.6711 C   0  0  0  0  0  0  0  0  0  0  0  0
  -32.8233  -30.2046   20.8288 C   0  0  0  0  0  0  0  0  0  0  0  0
  -23.4192  -25.6810   20.3069 C   0  0  0  0  0  0  0  0  0  0  0  0
  -22.2331  -27.8857   20.3315 C   0  0  0  0  0  0  0  0  0  0  0  0
  -21.4349  -26.0257   21.7896 C   0  0  0  0  0  0  0  0  0  0  0  0
  -24.4115  -30.4878   26.0442 C   0  0  0  0  0  0  0  0  0  0  0  0
  -31.5986  -22.9527   20.2378 C   0  0  0  0  0  0  0  0  0  0  0  0
  -30.2704  -22.8212   20.9926 C   0  0  0  0  0  0  0  0  0  0  0  0
  -30.8077  -28.7160   20.8776 C   0  0  0  0  0  0  0  0  0  1  0  0
  -33.0685  -27.7529   20.1243 C   0  0  2  0  0  0  0  0  0  0  0  0
  -23.5848  -27.2219   22.3719 C   0  0  1  0  0  0  0  0  0  0  0  0
  -22.5306  -30.2320   24.4207 C   0  0  2  0  0  0  0  0  0  0  0  0
  -32.1399  -29.0021   20.1570 C   0  0  2  0  0  0  0  0  0  0  0  0
  -22.6954  -26.7018   21.2075 C   0  0  0  0  0  0  0  0  0  0  0  0
  -28.2642  -15.3118   21.1637 N   0  0  0  0  0  0  0  0  0  0  0  0
  -29.5677  -15.5900   20.9917 N   0  0  0  0  0  0  0  0  0  0  0  0
  -25.4823  -25.9634   23.3413 N   0  0  0  0  0  0  0  0  0  0  0  0
  -29.6179  -19.2851   21.9577 N   0  0  0  0  0  0  0  0  0  0  0  0
  -31.5807  -14.7255   20.0910 N   0  0  0  0  0  0  0  0  0  0  0  0
  -28.5673  -11.4782   19.2132 N   0  0  0  0  0  0  0  0  0  0  0  0
  -25.5735  -22.6041   23.0646 N   0  0  0  0  0  0  0  0  0  0  0  0
  -22.9164  -28.1696   23.2570 N   0  0  0  0  0  0  0  0  0  0  0  0
  -30.1749  -21.5715   21.7138 N   0  0  0  0  0  0  0  0  0  0  0  0
  -34.3742  -28.1159   19.4790 N   0  3  0  0  0  0  0  0  0  0  0  0
  -23.3622  -31.1614   25.2365 N   0  3  0  0  0  0  0  0  0  0  0  0
  -30.7705  -12.0795   19.0053 O   0  0  0  0  0  0  0  0  0  0  0  0
  -27.1440  -24.0127   22.0789 O   0  0  0  0  0  0  0  0  0  0  0  0
  -23.2797  -25.3896   23.8471 O   0  0  0  0  0  0  0  0  0  0  0  0
  -24.4201  -29.9080   22.9504 O   0  0  0  0  0  0  0  0  0  0  0  0
  -29.2187  -20.4220   19.9762 O   0  0  0  0  0  0  0  0  0  0  0  0
  -23.1556  -11.5631   20.5329 O   0  0  0  0  0  0  0  0  0  0  0  0
  -31.0304  -28.4328   22.2584 O   0  0  0  0  0  0  0  0  0  1  0  0
  -22.9867   -6.2175   21.8747 F   0  0  0  0  0  0  0  0  0  0  0  0
  -21.6513  -10.6867   22.6803 F   0  0  0  0  0  0  0  0  0  0  0  0
  1  2  1  0  0  0  0
  1  6  2  0  0  0  0
  2  7  2  0  0  0  0
  3  9  1  0  0  0  0
  3 10  2  0  0  0  0
  4 11  2  0  0  0  0
  4 19  1  0  0  0  0
  5 12  1  0  0  0  0
  5 19  2  0  0  0  0
  6 21  1  0  0  0  0
  7 23  1  0  0  0  0
  8 13  2  0  0  0  0
  8 22  1  0  0  0  0
  9 25  2  0  0  0  0
 10 26  1  0  0  0  0
 11 27  1  0  0  0  0
 12 27  2  0  0  0  0
 13 28  1  0  0  0  0
 14 15  2  0  0  0  0
 14 29  1  0  0  0  0
 15 30  1  0  0  0  0
 16 24  1  0  0  0  0
 16 28  2  0  0  0  0
 17 25  1  0  0  0  0
 17 26  2  0  0  0  0
 18 30  2  0  0  0  0
 18 31  1  0  0  0  0
 19 32  1  0  0  0  0
 20 32  1  0  0  0  0
 20 33  2  0  0  0  0
 20 34  1  0  0  0  0
 21 23  2  0  0  0  0
 21 39  1  0  0  0  0
 22 24  2  0  0  0  0
 22 40  1  0  0  0  0
 23 48  1  0  0  0  0
 24 41  1  0  0  0  0
 25 57  1  0  0  0  0
 26 60  1  0  0  0  0
 27 81  1  0  0  0  0
 28 82  1  0  0  0  0
 29 31  2  0  0  0  0
 29 81  1  0  0  0  0
 30 83  1  0  0  0  0
 31 84  1  0  0  0  0
 32 65  2  0  0  0  0
 33 66  1  0  0  0  0
 33 69  1  0  0  0  0
 34 70  1  0  0  0  0
 34 76  2  0  0  0  0
 35 49  1  0  0  0  0
 35 71  1  0  0  0  0
 35 77  2  0  0  0  0
 36 61  1  0  0  0  0
 36 67  1  0  0  0  0
 36 78  2  0  0  0  0
 37 62  1  0  0  0  0
 37 72  1  0  0  0  0
 37 79  2  0  0  0  0
 38 68  1  0  0  0  0
 38 73  1  0  0  0  0
 38 80  2  0  0  0  0
 39 42  1  0  0  0  0
 40 49  1  0  0  0  0
 41 67  1  0  0  0  0
 42 44  1  0  0  0  0
 43 45  1  0  0  0  0
 43 46  1  0  0  0  0
 44 48  1  0  0  0  0
 45 50  1  0  0  0  0
 46 68  1  0  0  0  0
 47 50  1  0  0  0  0
 47 68  1  0  0  0  0
 48 71  1  0  0  0  0
 49 67  1  0  0  0  0
 50 66  1  0  0  0  0
 51 62  1  0  0  0  0
 52 63  1  0  0  0  0
 53 64  1  0  0  0  0
 54 64  1  0  0  0  0
 55 64  1  0  0  0  0
 56 75  1  0  0  0  0
 57 58  1  0  0  0  0
 58 73  1  0  0  0  0
 59 63  1  0  0  0  0
 59 82  1  0  0  0  0
 60 63  1  0  0  0  0
 60 74  1  0  0  0  0
 61 64  1  0  0  0  0
 61 72  1  0  0  0  0
 62 75  1  0  0  0  0
 65 66  1  0  0  0  0
M  CHG  2  74   1  75   1
M  ISO  4  38 100  59 101  73 100  82 101
M  END
> <Batch ID>
0112

> <Smiles>
CNC(C)C(=O)NC(C(=O)N1Cc2cc([101O:1][101CH2:1]C(C)C(N)c3cccc(CC[100NH:0][100C:0](=O)N4CCCC(n5nc(-c6ccc(Oc7ccc(F)cc7F)cc6)c(C(N)=O)c5N)C4)c3)ccc2CC1C(=O)NC1CCCc2ccccc21)C(C)(C)C

> <Shape>
0.205

> <Color>
0.071

> <Negative vol penalty>
0.000

$$$$

  -OEChem-04052320033D

 82 90  0     1  0  0  0  0  0999 V2000
  -22.6176  -23.9702   26.3954 C   0  0  0  0  0  0  0  0  0  0  0  0
  -23.9022  -24.3066   25.9804 C   0  0  0  0  0  0  0  0  0  0  0  0
  -26.0460  -14.0777   18.6109 C   0  0  0  0  0  0  0  0  0  0  0  0
  -25.4708  -14.3309   20.9437 C   0  0  0  0  0  0  0  0  0  0  0  0
  -21.5148  -24.6165   25.8386 C   0  0  0  0  0  0  0  0  0  0  0  0
  -24.0846  -25.2887   25.0075 C   0  0  0  0  0  0  0  0  0  0  0  0
  -28.6926  -29.3068   24.6511 C   0  0  0  0  0  0  0  0  0  0  0  0
  -25.1034  -13.0569   18.4892 C   0  0  0  0  0  0  0  0  0  0  0  0
  -24.5281  -13.3100   20.8220 C   0  0  0  0  0  0  0  0  0  0  0  0
  -29.8683  -29.3217   23.9020 C   0  0  0  0  0  0  0  0  0  0  0  0
  -24.5143   -9.9306   20.7222 C   0  0  0  0  0  0  0  0  0  0  0  0
  -24.4788   -8.9587   21.7221 C   0  0  0  0  0  0  0  0  0  0  0  0
  -28.7845  -30.6932   22.2396 C   0  0  0  0  0  0  0  0  0  0  0  0
  -22.1897   -9.5520   22.2173 C   0  0  0  0  0  0  0  0  0  0  0  0
  -26.2298  -14.7147   19.8382 C   0  0  0  0  0  0  0  0  0  0  0  0
  -28.5899  -15.6776   19.7358 C   0  0  0  0  0  0  0  0  0  0  0  0
  -21.6843  -25.6138   24.8653 C   0  0  0  0  0  0  0  0  0  0  0  0
  -27.5488  -29.9771   24.1940 C   0  0  0  0  0  0  0  0  0  0  0  0
  -22.9829  -25.9479   24.4362 C   0  0  0  0  0  0  0  0  0  0  0  0
  -27.5963  -30.6874   22.9860 C   0  0  0  0  0  0  0  0  0  0  0  0
  -24.3444  -12.6730   19.5947 C   0  0  0  0  0  0  0  0  0  0  0  0
  -29.9135  -30.0125   22.6946 C   0  0  0  0  0  0  0  0  0  0  0  0
  -23.3876  -10.7132   20.4699 C   0  0  0  0  0  0  0  0  0  0  0  0
  -23.3165   -8.7694   22.4697 C   0  0  0  0  0  0  0  0  0  0  0  0
  -22.2253  -10.5239   21.2174 C   0  0  0  0  0  0  0  0  0  0  0  0
  -27.2039  -15.7689   19.9647 C   0  0  0  0  0  0  0  0  0  0  0  0
  -29.0639  -16.9414   19.9901 C   0  0  0  0  0  0  0  0  0  0  0  0
  -29.3785  -14.5512   19.3297 C   0  0  0  0  0  0  0  0  0  0  0  0
  -24.6075  -29.0926   23.3755 C   0  0  0  0  0  0  0  0  0  0  0  0
  -24.1285  -32.2926   23.1465 C   0  0  0  0  0  0  0  0  0  0  0  0
  -25.4687  -35.3970   22.6848 C   0  0  0  0  0  0  0  0  0  0  0  0
  -28.7092  -22.3676   19.3754 C   0  0  0  0  0  0  0  0  0  0  0  0
  -20.4596  -26.2512   24.2582 C   0  0  0  0  0  0  0  0  0  0  0  0
  -26.2963  -29.9737   25.0270 C   0  0  0  0  0  0  0  0  0  0  0  0
  -26.4019  -31.4400   22.4611 C   0  0  0  0  0  0  0  0  0  0  0  0
  -20.7567  -27.5444   23.5035 C   0  0  0  0  0  0  0  0  0  0  0  0
  -26.8047  -20.9439   22.1037 C   0  0  0  0  0  0  0  0  0  0  0  0
  -21.9656  -27.3642   22.5909 C   0  0  0  0  0  0  0  0  0  0  0  0
  -26.8563  -19.4530   21.7652 C   0  0  0  0  0  0  0  0  0  0  0  0
  -28.7909  -26.0686   19.2976 C   0  0  0  0  0  0  0  0  0  0  0  0
  -30.7318  -24.7818   20.2653 C   0  0  0  0  0  0  0  0  0  0  0  0
  -26.6815  -21.7933   20.8422 C   0  0  0  0  0  0  0  0  0  0  0  0
  -27.8028  -20.0638   19.4913 C   0  0  0  0  0  0  0  0  0  0  0  0
  -29.7441  -27.1817   18.8826 C   0  0  0  0  0  0  0  0  0  0  0  0
  -31.6749  -25.9020   19.8466 C   0  0  0  0  0  0  0  0  0  0  0  0
  -23.2228  -27.0255   23.4010 C   0  0  1  0  0  0  0  0  0  0  0  0
  -25.0377  -30.2624   24.2146 C   0  0  1  0  0  0  0  0  0  0  0  0
  -27.9501  -19.1525   20.7233 C   0  0  2  0  0  0  0  0  0  0  0  0
  -29.5009  -24.7159   19.3611 C   0  0  0  0  0  0  0  0  0  0  0  0
  -24.8225  -37.8155   22.5097 C   0  0  0  0  0  0  0  0  0  0  0  0
  -33.5764  -29.9562   20.4969 C   0  0  0  0  0  0  0  0  0  0  0  0
  -32.6463  -28.0253   18.2858 C   0  0  0  0  0  0  0  0  0  0  0  0
  -23.0950  -31.8091   20.3166 C   0  0  0  0  0  0  0  0  0  0  0  0
  -23.3685  -34.2580   19.8732 C   0  0  0  0  0  0  0  0  0  0  0  0
  -21.7828  -33.4807   21.6351 C   0  0  0  0  0  0  0  0  0  0  0  0
  -27.0979  -36.1233   25.0465 C   0  0  0  0  0  0  0  0  0  0  0  0
  -31.9123  -28.8885   22.0641 C   0  0  0  0  0  0  0  0  0  1  0  0
  -24.2717  -33.3193   22.0490 C   0  0  1  0  0  0  0  0  0  0  0  0
  -25.2752  -36.7001   23.4391 C   0  0  2  0  0  0  0  0  0  0  0  0
  -32.7077  -28.7162   20.7608 C   0  0  1  0  0  0  0  0  0  0  0  0
  -31.8375  -28.3696   19.5316 C   0  0  2  0  0  0  0  0  0  0  0  0
  -23.1516  -33.2011   20.9772 C   0  0  0  0  0  0  0  0  0  0  0  0
  -26.8221  -16.9938   20.3359 N   0  0  0  0  0  0  0  0  0  0  0  0
  -27.9753  -17.6839   20.3424 N   0  0  0  0  0  0  0  0  0  0  0  0
  -25.1987  -31.4015   23.3086 N   0  0  0  0  0  0  0  0  0  0  0  0
  -27.7627  -21.4718   19.9000 N   0  0  0  0  0  0  0  0  0  0  0  0
  -30.3014  -17.4789   19.9446 N   0  0  0  0  0  0  0  0  0  0  0  0
  -29.9209  -13.7229   20.3216 N   0  0  0  0  0  0  0  0  0  0  0  0
  -23.7584  -28.2166   24.0245 N   0  0  0  0  0  0  0  0  0  0  0  0
  -24.3311  -34.6183   22.7104 N   0  0  0  0  0  0  0  0  0  0  0  0
  -28.5978  -23.6835   19.8076 N   0  0  0  0  0  0  0  0  0  0  0  0
  -30.9237  -27.2114   19.8244 N   0  3  0  0  0  0  0  0  0  0  0  0
  -26.5503  -37.1174   24.0879 N   0  3  0  0  0  0  0  0  0  0  0  0
  -29.6092  -14.2964   18.1233 O   0  0  0  0  0  0  0  0  0  0  0  0
  -25.0145  -28.9929   22.2239 O   0  0  0  0  0  0  0  0  0  0  0  0
  -23.1078  -32.2864   23.8393 O   0  0  0  0  0  0  0  0  0  0  0  0
  -26.5224  -35.1014   22.1255 O   0  0  0  0  0  0  0  0  0  0  0  0
  -29.5922  -22.0193   18.5842 O   0  0  0  0  0  0  0  0  0  0  0  0
  -23.4242  -11.6771   19.4763 O   0  0  0  0  0  0  0  0  0  0  0  0
  -31.0596  -30.0281   21.9611 O   0  0  0  0  0  0  0  0  0  1  0  0
  -23.2819   -7.8350   23.4288 F   0  0  0  0  0  0  0  0  0  0  0  0
  -21.1393  -11.2719   20.9788 F   0  0  0  0  0  0  0  0  0  0  0  0
  1  2  1  0  0  0  0
  1  5  2  0  0  0  0
  2  6  2  0  0  0  0
  3  8  2  0  0  0  0
  3 15  1  0  0  0  0
  4  9  1  0  0  0  0
  4 15  2  0  0  0  0
  5 17  1  0  0  0  0
  6 19  1  0  0  0  0
  7 10  2  0  0  0  0
  7 18  1  0  0  0  0
  8 21  1  0  0  0  0
  9 21  2  0  0  0  0
 10 22  1  0  0  0  0
 11 12  2  0  0  0  0
 11 23  1  0  0  0  0
 12 24  1  0  0  0  0
 13 20  1  0  0  0  0
 13 22  2  0  0  0  0
 14 24  2  0  0  0  0
 14 25  1  0  0  0  0
 15 26  1  0  0  0  0
 16 26  1  0  0  0  0
 16 27  2  0  0  0  0
 16 28  1  0  0  0  0
 17 19  2  0  0  0  0
 17 33  1  0  0  0  0
 18 20  2  0  0  0  0
 18 34  1  0  0  0  0
 19 46  1  0  0  0  0
 20 35  1  0  0  0  0
 21 79  1  0  0  0  0
 22 80  1  0  0  0  0
 23 25  2  0  0  0  0
 23 79  1  0  0  0  0
 24 81  1  0  0  0  0
 25 82  1  0  0  0  0
 26 63  2  0  0  0  0
 27 64  1  0  0  0  0
 27 67  1  0  0  0  0
 28 68  1  0  0  0  0
 28 74  2  0  0  0  0
 29 47  1  0  0  0  0
 29 69  1  0  0  0  0
 29 75  2  0  0  0  0
 30 58  1  0  0  0  0
 30 65  1  0  0  0  0
 30 76  2  0  0  0  0
 31 59  1  0  0  0  0
 31 70  1  0  0  0  0
 31 77  2  0  0  0  0
 32 66  1  0  0  0  0
 32 71  1  0  0  0  0
 32 78  2  0  0  0  0
 33 36  1  0  0  0  0
 34 47  1  0  0  0  0
 35 65  1  0  0  0  0
 36 38  1  0  0  0  0
 37 39  1  0  0  0  0
 37 42  1  0  0  0  0
 38 46  1  0  0  0  0
 39 48  1  0  0  0  0
 40 44  1  0  0  0  0
 40 49  1  0  0  0  0
 41 45  1  0  0  0  0
 41 49  1  0  0  0  0
 42 66  1  0  0  0  0
 43 48  1  0  0  0  0
 43 66  1  0  0  0  0
 44 72  1  0  0  0  0
 45 72  1  0  0  0  0
 46 69  1  0  0  0  0
 47 65  1  0  0  0  0
 48 64  1  0  0  0  0
 49 71  1  0  0  0  0
 50 59  1  0  0  0  0
 51 60  1  0  0  0  0
 52 61  1  0  0  0  0
 53 62  1  0  0  0  0
 54 62  1  0  0  0  0
 55 62  1  0  0  0  0
 56 73  1  0  0  0  0
 57 60  1  0  0  0  0
 57 80  1  0  0  0  0
 58 62  1  0  0  0  0
 58 70  1  0  0  0  0
 59 73  1  0  0  0  0
 60 61  1  0  0  0  0
 61 72  1  0  0  0  0
 63 64  1  0  0  0  0
M  CHG  2  72   1  73   1
M  ISO  4  32 100  57 101  71 100  80 101
M  END
> <Batch ID>
0112

> <Smiles>
CNC(C)C(=O)NC(C(=O)N1Cc2cc([101O:1][101CH2:1]C(C)C(C)N3CCC([100NH:0][100C:0](=O)N4CCCC(n5nc(-c6ccc(Oc7ccc(F)cc7F)cc6)c(C(N)=O)c5N)C4)CC3)ccc2CC1C(=O)NC1CCCc2ccccc21)C(C)(C)C

> <Shape>
0.274

> <Color>
0.108

> <Negative vol penalty>
0.000

$$$$

  -OEChem-04052320033D

 85 92  0     1  0  0  0  0  0999 V2000
  -26.2222  -12.9186   24.4703 C   0  0  0  0  0  0  0  0  0  0  0  0
  -26.9480  -13.9550   23.8919 C   0  0  0  0  0  0  0  0  0  0  0  0
  -20.4097  -27.7874   23.9186 C   0  0  0  0  0  0  0  0  0  0  0  0
  -20.4705  -26.8259   21.7030 C   0  0  0  0  0  0  0  0  0  0  0  0
  -25.3932  -12.1238   23.6798 C   0  0  0  0  0  0  0  0  0  0  0  0
  -26.8461  -14.1964   22.5223 C   0  0  0  0  0  0  0  0  0  0  0  0
  -26.3405  -19.1198   21.4499 C   0  0  0  0  0  0  0  0  0  0  0  0
  -19.0213  -27.8920   23.8352 C   0  0  0  0  0  0  0  0  0  0  0  0
  -19.0820  -26.9304   21.6196 C   0  0  0  0  0  0  0  0  0  0  0  0
  -27.4931  -19.9028   21.4948 C   0  0  0  0  0  0  0  0  0  0  0  0
  -15.4933  -28.7439   24.0613 C   0  0  0  0  0  0  0  0  0  0  0  0
  -14.9050  -29.9374   24.4797 C   0  0  0  0  0  0  0  0  0  0  0  0
  -27.6655  -19.7761   19.0920 C   0  0  0  0  0  0  0  0  0  0  0  0
  -16.1699  -31.1451   22.8128 C   0  0  0  0  0  0  0  0  0  0  0  0
  -21.1343  -27.2544   22.8525 C   0  0  0  0  0  0  0  0  0  0  0  0
  -23.3114  -26.0571   23.4308 C   0  0  0  0  0  0  0  0  0  0  0  0
  -25.2735  -12.3618   22.3015 C   0  0  0  0  0  0  0  0  0  0  0  0
  -25.8470  -18.6491   20.2246 C   0  0  0  0  0  0  0  0  0  0  0  0
  -26.0157  -13.4032   21.7124 C   0  0  0  0  0  0  0  0  0  0  0  0
  -26.5050  -18.9894   19.0340 C   0  0  0  0  0  0  0  0  0  0  0  0
  -18.3574  -27.4635   22.6857 C   0  0  0  0  0  0  0  0  0  0  0  0
  -28.1574  -20.2287   20.3160 C   0  0  0  0  0  0  0  0  0  0  0  0
  -16.4200  -28.7510   23.0188 C   0  0  0  0  0  0  0  0  0  0  0  0
  -15.2433  -31.1380   23.8554 C   0  0  0  0  0  0  0  0  0  0  0  0
  -16.7583  -29.9516   22.3945 C   0  0  0  0  0  0  0  0  0  0  0  0
  -22.5686  -27.1466   22.9379 C   0  0  0  0  0  0  0  0  0  0  0  0
  -24.6218  -26.4463   23.2970 C   0  0  0  0  0  0  0  0  0  0  0  0
  -22.8575  -24.8052   23.9622 C   0  0  0  0  0  0  0  0  0  0  0  0
  -25.3695  -15.7750   18.9537 C   0  0  0  0  0  0  0  0  0  0  0  0
  -24.0000  -17.4885   16.5641 C   0  0  0  0  0  0  0  0  0  0  0  0
  -28.1145  -26.5154   18.9487 C   0  0  0  0  0  0  0  0  0  0  0  0
  -23.7536  -20.4594   14.9028 C   0  0  0  0  0  0  0  0  0  0  0  0
  -27.3698  -30.3353   19.6671 C   0  0  0  0  0  0  0  0  0  0  0  0
  -24.4011  -11.4461   21.4798 C   0  0  0  0  0  0  0  0  0  0  0  0
  -24.5874  -17.8278   20.1908 C   0  0  0  0  0  0  0  0  0  0  0  0
  -26.0046  -18.5261   17.6911 C   0  0  0  0  0  0  0  0  0  0  0  0
  -24.0608  -12.0049   20.1006 C   0  0  0  0  0  0  0  0  0  0  0  0
  -27.3782  -30.3563   23.2275 C   0  0  0  0  0  0  0  0  0  0  0  0
  -25.3120  -12.5567   19.4246 C   0  0  0  0  0  0  0  0  0  0  0  0
  -26.2136  -29.4378   23.6014 C   0  0  0  0  0  0  0  0  0  0  0  0
  -27.0703  -31.1776   21.9774 C   0  0  0  0  0  0  0  0  0  0  0  0
  -25.4835  -29.4689   21.1797 C   0  0  0  0  0  0  0  0  0  0  0  0
  -25.9125  -13.7121   20.2345 C   0  0  1  0  0  0  0  0  0  0  0  0
  -24.4643  -16.9741   18.9325 C   0  0  1  0  0  0  0  0  0  0  0  0
  -25.7688  -28.5795   22.4019 C   0  0  2  0  0  0  0  0  0  0  0  0
  -22.8764  -22.1447   13.2633 C   0  0  0  0  0  0  0  0  0  0  0  0
  -25.5017  -22.9068   18.1225 C   0  0  0  0  0  0  0  0  0  0  0  0
  -23.8469  -23.9811   19.6620 C   0  0  0  0  0  0  0  0  0  0  0  0
  -25.8478  -16.0262   14.6257 C   0  0  0  0  0  0  0  0  0  0  0  0
  -25.3237  -17.7771   12.9145 C   0  0  0  0  0  0  0  0  0  0  0  0
  -23.5033  -16.3243   13.8080 C   0  0  0  0  0  0  0  0  0  0  0  0
  -21.7070  -21.4229   16.8112 C   0  0  0  0  0  0  0  0  0  0  0  0
  -30.2010  -23.1328   20.9308 C   0  0  0  0  0  0  0  0  0  0  0  0
  -26.0345  -25.1414   19.2340 C   0  0  0  0  0  0  0  0  0  0  0  0
  -28.6564  -28.3430   17.3547 C   0  0  0  0  0  0  0  0  0  0  0  0
  -27.5496  -29.3844   17.3818 C   0  0  0  0  0  0  0  0  0  0  0  0
  -29.5797  -23.8555   19.7451 C   0  0  0  0  0  0  0  0  0  0  0  0
  -29.3860  -21.9411   21.4180 C   0  0  0  0  0  0  0  0  0  1  0  0
  -24.4920  -18.1221   15.2852 C   0  0  1  0  0  0  0  0  0  0  0  0
  -27.5502  -25.1032   18.9946 C   0  0  2  0  0  0  0  0  0  0  0  0
  -22.5482  -21.2713   14.4643 C   0  0  2  0  0  0  0  0  0  0  0  0
  -25.3364  -23.7731   19.3714 C   0  0  0  0  0  0  0  0  0  0  0  0
  -24.8025  -17.0697   14.1837 C   0  0  0  0  0  0  0  0  0  0  0  0
  -23.3427  -28.1525   22.5220 N   0  0  0  0  0  0  0  0  0  0  0  0
  -24.5856  -27.6967   22.7534 N   0  0  0  0  0  0  0  0  0  0  0  0
  -24.7727  -17.7202   17.7108 N   0  0  0  0  0  0  0  0  0  0  0  0
  -26.6563  -30.3041   20.8766 N   0  0  0  0  0  0  0  0  0  0  0  0
  -25.7899  -25.8375   23.5924 N   0  0  0  0  0  0  0  0  0  0  0  0
  -21.4777  -24.5682   24.0280 N   0  0  0  0  0  0  0  0  0  0  0  0
  -25.1537  -14.9260   20.0225 N   0  0  0  0  0  0  0  0  0  0  0  0
  -28.1670  -27.0182   17.6572 N   0  0  0  0  0  0  0  0  0  0  0  0
  -23.4853  -19.1069   14.9040 N   0  0  0  0  0  0  0  0  0  0  0  0
  -26.9152  -29.4715   18.6782 N   0  0  0  0  0  0  0  0  0  0  0  0
  -22.0857  -22.1524   15.5737 N   0  3  0  0  0  0  0  0  0  0  0  0
  -28.2171  -24.3319   20.0798 N   0  3  0  0  0  0  0  0  0  0  0  0
  -23.6515  -23.9294   24.3818 O   0  0  0  0  0  0  0  0  0  0  0  0
  -26.2012  -15.6299   18.0655 O   0  0  0  0  0  0  0  0  0  0  0  0
  -22.9642  -16.8187   16.5476 O   0  0  0  0  0  0  0  0  0  0  0  0
  -28.4686  -27.1226   19.9569 O   0  0  0  0  0  0  0  0  0  0  0  0
  -24.8270  -20.9734   15.2098 O   0  0  0  0  0  0  0  0  0  0  0  0
  -28.3433  -31.0740   19.4840 O   0  0  0  0  0  0  0  0  0  0  0  0
  -17.0026  -27.5651   22.6041 O   0  0  0  0  0  0  0  0  0  0  0  0
  -29.2831  -20.9924   20.3570 O   0  0  0  0  0  0  0  0  0  1  0  0
  -14.6771  -32.2838   24.2562 F   0  0  0  0  0  0  0  0  0  0  0  0
  -17.6470  -29.9646   21.3916 F   0  0  0  0  0  0  0  0  0  0  0  0
  1  2  1  0  0  0  0
  1  5  2  0  0  0  0
  2  6  2  0  0  0  0
  3  8  2  0  0  0  0
  3 15  1  0  0  0  0
  4  9  1  0  0  0  0
  4 15  2  0  0  0  0
  5 17  1  0  0  0  0
  6 19  1  0  0  0  0
  7 10  2  0  0  0  0
  7 18  1  0  0  0  0
  8 21  1  0  0  0  0
  9 21  2  0  0  0  0
 10 22  1  0  0  0  0
 11 12  2  0  0  0  0
 11 23  1  0  0  0  0
 12 24  1  0  0  0  0
 13 20  1  0  0  0  0
 13 22  2  0  0  0  0
 14 24  2  0  0  0  0
 14 25  1  0  0  0  0
 15 26  1  0  0  0  0
 16 26  1  0  0  0  0
 16 27  2  0  0  0  0
 16 28  1  0  0  0  0
 17 19  2  0  0  0  0
 17 34  1  0  0  0  0
 18 20  2  0  0  0  0
 18 35  1  0  0  0  0
 19 43  1  0  0  0  0
 20 36  1  0  0  0  0
 21 82  1  0  0  0  0
 22 83  1  0  0  0  0
 23 25  2  0  0  0  0
 23 82  1  0  0  0  0
 24 84  1  0  0  0  0
 25 85  1  0  0  0  0
 26 64  2  0  0  0  0
 27 65  1  0  0  0  0
 27 68  1  0  0  0  0
 28 69  1  0  0  0  0
 28 76  2  0  0  0  0
 29 44  1  0  0  0  0
 29 70  1  0  0  0  0
 29 77  2  0  0  0  0
 30 59  1  0  0  0  0
 30 66  1  0  0  0  0
 30 78  2  0  0  0  0
 31 60  1  0  0  0  0
 31 71  1  0  0  0  0
 31 79  2  0  0  0  0
 32 61  1  0  0  0  0
 32 72  1  0  0  0  0
 32 80  2  0  0  0  0
 33 67  1  0  0  0  0
 33 73  1  0  0  0  0
 33 81  2  0  0  0  0
 34 37  1  0  0  0  0
 35 44  1  0  0  0  0
 36 66  1  0  0  0  0
 37 39  1  0  0  0  0
 38 40  1  0  0  0  0
 38 41  1  0  0  0  0
 39 43  1  0  0  0  0
 40 45  1  0  0  0  0
 41 67  1  0  0  0  0
 42 45  1  0  0  0  0
 42 67  1  0  0  0  0
 43 70  1  0  0  0  0
 44 66  1  0  0  0  0
 45 65  1  0  0  0  0
 46 61  1  0  0  0  0
 47 62  1  0  0  0  0
 48 62  1  0  0  0  0
 49 63  1  0  0  0  0
 50 63  1  0  0  0  0
 51 63  1  0  0  0  0
 52 74  1  0  0  0  0
 53 57  1  0  0  0  0
 53 58  1  0  0  0  0
 54 60  1  0  0  0  0
 54 62  1  0  0  0  0
 55 56  1  0  0  0  0
 55 71  1  0  0  0  0
 56 73  1  0  0  0  0
 57 75  1  0  0  0  0
 58 83  1  0  0  0  0
 59 63  1  0  0  0  0
 59 72  1  0  0  0  0
 60 75  1  0  0  0  0
 61 74  1  0  0  0  0
 64 65  1  0  0  0  0
M  CHG  2  74   1  75   1
M  ISO  4  33 100  58 101  73 100  83 101
M  END
> <Batch ID>
0112

> <Smiles>
CNC(C)C(=O)NC(C(=O)N1Cc2cc([101O:1][101CH2:1]CCNC(CC(C)C)C(=O)NCC[100NH:0][100C:0](=O)N3CCCC(n4nc(-c5ccc(Oc6ccc(F)cc6F)cc5)c(C(N)=O)c4N)C3)ccc2CC1C(=O)NC1CCCc2ccccc21)C(C)(C)C

> <Shape>
0.184

> <Color>
0.080

> <Negative vol penalty>
0.000

$$$$

  -OEChem-04052320033D

 88 96  0     1  0  0  0  0  0999 V2000
  -17.7304  -24.8247   22.0724 C   0  0  0  0  0  0  0  0  0  0  0  0
  -19.0804  -24.4908   22.0325 C   0  0  0  0  0  0  0  0  0  0  0  0
  -28.4418  -16.4059   19.8282 C   0  0  0  0  0  0  0  0  0  0  0  0
  -26.8654  -17.6336   18.4699 C   0  0  0  0  0  0  0  0  0  0  0  0
  -17.3464  -26.1430   22.3141 C   0  0  0  0  0  0  0  0  0  0  0  0
  -20.0472  -25.4754   22.2331 C   0  0  0  0  0  0  0  0  0  0  0  0
  -23.7344  -23.9689   25.3604 C   0  0  0  0  0  0  0  0  0  0  0  0
  -27.3966  -15.6482   20.3564 C   0  0  0  0  0  0  0  0  0  0  0  0
  -25.8202  -16.8759   18.9981 C   0  0  0  0  0  0  0  0  0  0  0  0
  -24.7121  -23.1265   24.8329 C   0  0  0  0  0  0  0  0  0  0  0  0
  -25.1848  -13.1471   21.7944 C   0  0  0  0  0  0  0  0  0  0  0  0
  -25.3678  -11.7677   21.8903 C   0  0  0  0  0  0  0  0  0  0  0  0
  -26.1963  -25.0124   24.5881 C   0  0  0  0  0  0  0  0  0  0  0  0
  -25.1002  -22.2065   20.2041 C   0  0  0  0  0  0  0  0  0  0  0  0
  -24.7790  -24.4348   19.3580 C   0  0  0  0  0  0  0  0  0  0  0  0
  -25.6751  -11.6421   19.4972 C   0  0  0  0  0  0  0  0  0  0  0  0
  -28.1762  -17.3987   18.8850 C   0  0  0  0  0  0  0  0  0  0  0  0
  -30.0193  -17.8945   17.1925 C   0  0  0  0  0  0  0  0  0  0  0  0
  -18.3089  -27.1425   22.5274 C   0  0  0  0  0  0  0  0  0  0  0  0
  -23.9768  -25.3434   25.4958 C   0  0  0  0  0  0  0  0  0  0  0  0
  -19.6757  -26.8086   22.4765 C   0  0  0  0  0  0  0  0  0  0  0  0
  -25.2209  -25.8696   25.1200 C   0  0  0  0  0  0  0  0  0  0  0  0
  -24.3872  -23.1020   19.4147 C   0  0  0  0  0  0  0  0  0  0  0  0
  -26.0858  -15.8831   19.9413 C   0  0  0  0  0  0  0  0  0  0  0  0
  -25.9422  -23.6486   24.4440 C   0  0  0  0  0  0  0  0  0  0  0  0
  -25.2468  -13.7741   20.5498 C   0  0  0  0  0  0  0  0  0  0  0  0
  -25.6130  -11.0152   20.7417 C   0  0  0  0  0  0  0  0  0  0  0  0
  -25.4920  -13.0215   19.4013 C   0  0  0  0  0  0  0  0  0  0  0  0
  -29.2554  -18.1821   18.3394 C   0  0  0  0  0  0  0  0  0  0  0  0
  -26.1888  -22.6901   20.9118 C   0  0  0  0  0  0  0  0  0  0  0  0
  -25.8818  -24.8188   20.1038 C   0  0  0  0  0  0  0  0  0  0  0  0
  -30.9085  -18.9374   17.1017 C   0  0  0  0  0  0  0  0  0  0  0  0
  -29.9329  -16.7839   16.2897 C   0  0  0  0  0  0  0  0  0  0  0  0
  -22.6746  -27.9803   24.2895 C   0  0  0  0  0  0  0  0  0  0  0  0
  -24.7032  -29.4551   26.3467 C   0  0  0  0  0  0  0  0  0  0  0  0
  -27.5838  -29.3195   28.1717 C   0  0  0  0  0  0  0  0  0  0  0  0
  -30.7777  -24.5901   19.0719 C   0  0  0  0  0  0  0  0  0  0  0  0
  -17.8464  -28.5625   22.7380 C   0  0  0  0  0  0  0  0  0  0  0  0
  -22.9214  -26.2344   26.0914 C   0  0  0  0  0  0  0  0  0  0  0  0
  -25.5383  -27.3349   25.2637 C   0  0  0  0  0  0  0  0  0  0  0  0
  -18.9262  -29.4759   23.3124 C   0  0  0  0  0  0  0  0  0  0  0  0
  -33.2344  -22.1214   19.8115 C   0  0  0  0  0  0  0  0  0  0  0  0
  -20.2422  -29.2819   22.5658 C   0  0  0  0  0  0  0  0  0  0  0  0
  -32.5622  -20.8059   19.4146 C   0  0  0  0  0  0  0  0  0  0  0  0
  -32.2356  -23.1056   20.4163 C   0  0  0  0  0  0  0  0  0  0  0  0
  -30.3749  -22.0561   19.1875 C   0  0  0  0  0  0  0  0  0  0  0  0
  -20.7537  -27.8438   22.7139 C   0  0  1  0  0  0  0  0  0  0  0  0
  -23.0903  -27.7008   25.7061 C   0  0  1  0  0  0  0  0  0  0  0  0
  -31.3314  -21.0524   18.5214 C   0  0  2  0  0  0  0  0  0  0  0  0
  -23.2077  -22.6345   18.6312 C   0  0  0  0  0  0  0  0  0  0  0  0
  -28.9984  -30.6924   29.7246 C   0  0  0  0  0  0  0  0  0  0  0  0
  -28.7811  -27.5145   21.4885 C   0  0  0  0  0  0  0  0  0  0  0  0
  -27.3415  -28.8183   19.8754 C   0  0  0  0  0  0  0  0  0  0  0  0
  -26.9588  -20.4347   23.9286 C   0  0  0  0  0  0  0  0  0  0  0  0
  -25.7346  -31.0723   23.9736 C   0  0  0  0  0  0  0  0  0  0  0  0
  -27.7260  -31.6991   25.3555 C   0  0  0  0  0  0  0  0  0  0  0  0
  -25.4403  -32.3851   26.0818 C   0  0  0  0  0  0  0  0  0  0  0  0
  -27.2571  -27.3729   30.3770 C   0  0  0  0  0  0  0  0  0  0  0  0
  -26.9881  -21.7460   21.7786 C   0  0  0  0  0  0  0  0  0  0  0  0
  -26.3292  -26.2419   20.0680 C   0  0  0  0  0  0  0  0  0  0  0  0
  -29.2401  -25.9436   17.6709 C   0  0  0  0  0  0  0  0  0  0  0  0
  -27.8135  -26.2731   18.0689 C   0  0  0  0  0  0  0  0  0  0  0  0
  -26.1244  -29.9585   26.2701 C   0  0  1  0  0  0  0  0  0  0  0  0
  -27.8766  -29.6709   29.6192 C   0  0  2  0  0  0  0  0  0  0  0  0
  -28.3518  -27.6945   20.0413 C   0  0  0  0  0  0  0  0  0  0  0  0
  -26.4498  -21.6789   23.2118 C   0  0  2  0  0  0  0  0  0  1  0  0
  -26.2499  -31.2514   25.4156 C   0  0  0  0  0  0  0  0  0  0  0  0
  -29.6268  -19.3186   18.9347 N   0  0  0  0  0  0  0  0  0  0  0  0
  -26.5994  -23.9778   20.8819 N   0  0  0  0  0  0  0  0  0  0  0  0
  -30.6340  -19.7543   18.1589 N   0  0  0  0  0  0  0  0  0  0  0  0
  -24.4716  -28.1663   25.8455 N   0  0  0  0  0  0  0  0  0  0  0  0
  -31.0934  -23.2965   19.5191 N   0  0  0  0  0  0  0  0  0  0  0  0
  -31.8906  -19.2262   16.2217 N   0  0  0  0  0  0  0  0  0  0  0  0
  -28.9623  -15.8018   16.5298 N   0  0  0  0  0  0  0  0  0  0  0  0
  -21.3602  -27.6546   24.0143 N   0  0  0  0  0  0  0  0  0  0  0  0
  -26.5799  -30.1064   27.6481 N   0  0  0  0  0  0  0  0  0  0  0  0
  -29.6842  -24.6816   18.2195 N   0  0  0  0  0  0  0  0  0  0  0  0
  -28.2780  -28.4522   30.3771 N   0  3  0  0  0  0  0  0  0  0  0  0
  -27.7208  -26.4107   19.5669 N   0  3  1  0  0  0  0  0  0  0  0  0
  -30.7047  -16.6576   15.3089 O   0  0  0  0  0  0  0  0  0  0  0  0
  -23.4858  -28.4575   23.5048 O   0  0  0  0  0  0  0  0  0  0  0  0
  -23.8321  -30.1760   26.8397 O   0  0  0  0  0  0  0  0  0  0  0  0
  -28.1879  -28.4378   27.5650 O   0  0  0  0  0  0  0  0  0  0  0  0
  -31.4258  -25.5887   19.4031 O   0  0  0  0  0  0  0  0  0  0  0  0
  -25.0656  -15.1438   20.4564 O   0  0  0  0  0  0  0  0  0  0  0  0
  -26.8980  -22.8287   23.9282 O   0  0  0  0  0  0  0  0  0  1  0  0
  -25.7903   -9.6907   20.8342 F   0  0  0  0  0  0  0  0  0  0  0  0
  -25.5539  -13.6184   18.2030 F   0  0  0  0  0  0  0  0  0  0  0  0
  1  2  1  0  0  0  0
  1  5  2  0  0  0  0
  2  6  2  0  0  0  0
  3  8  2  0  0  0  0
  3 17  1  0  0  0  0
  4  9  1  0  0  0  0
  4 17  2  0  0  0  0
  5 19  1  0  0  0  0
  6 21  1  0  0  0  0
  7 10  2  0  0  0  0
  7 20  1  0  0  0  0
  8 24  1  0  0  0  0
  9 24  2  0  0  0  0
 10 25  1  0  0  0  0
 11 12  2  0  0  0  0
 11 26  1  0  0  0  0
 12 27  1  0  0  0  0
 13 22  1  0  0  0  0
 13 25  2  0  0  0  0
 14 23  2  0  0  0  0
 14 30  1  0  0  0  0
 15 23  1  0  0  0  0
 15 31  2  0  0  0  0
 16 27  2  0  0  0  0
 16 28  1  0  0  0  0
 17 29  1  0  0  0  0
 18 29  1  0  0  0  0
 18 32  2  0  0  0  0
 18 33  1  0  0  0  0
 19 21  2  0  0  0  0
 19 38  1  0  0  0  0
 20 22  2  0  0  0  0
 20 39  1  0  0  0  0
 21 47  1  0  0  0  0
 22 40  1  0  0  0  0
 23 50  1  0  0  0  0
 24 85  1  0  0  0  0
 25 86  1  0  0  0  0
 26 28  2  0  0  0  0
 26 85  1  0  0  0  0
 27 87  1  0  0  0  0
 28 88  1  0  0  0  0
 29 68  2  0  0  0  0
 30 59  1  0  0  0  0
 30 69  2  0  0  0  0
 31 60  1  0  0  0  0
 31 69  1  0  0  0  0
 32 70  1  0  0  0  0
 32 73  1  0  0  0  0
 33 74  1  0  0  0  0
 33 80  2  0  0  0  0
 34 48  1  0  0  0  0
 34 75  1  0  0  0  0
 34 81  2  0  0  0  0
 35 63  1  0  0  0  0
 35 71  1  0  0  0  0
 35 82  2  0  0  0  0
 36 64  1  0  0  0  0
 36 76  1  0  0  0  0
 36 83  2  0  0  0  0
 37 72  1  0  0  0  0
 37 77  1  0  0  0  0
 37 84  2  0  0  0  0
 38 41  1  0  0  0  0
 39 48  1  0  0  0  0
 40 71  1  0  0  0  0
 41 43  1  0  0  0  0
 42 44  1  0  0  0  0
 42 45  1  0  0  0  0
 43 47  1  0  0  0  0
 44 49  1  0  0  0  0
 45 72  1  0  0  0  0
 46 49  1  0  0  0  0
 46 72  1  0  0  0  0
 47 75  1  0  0  0  0
 48 71  1  0  0  0  0
 49 70  1  0  0  0  0
 51 64  1  0  0  0  0
 52 65  1  0  0  0  0
 53 65  1  0  0  0  0
 54 66  1  0  0  0  0
 55 67  1  0  0  0  0
 56 67  1  0  0  0  0
 57 67  1  0  0  0  0
 58 78  1  0  0  0  0
 59 66  1  0  0  0  0
 60 79  1  0  0  0  0
 61 62  1  0  0  0  0
 61 77  1  0  0  0  0
 62 79  1  0  0  0  0
 63 67  1  0  0  0  0
 63 76  1  0  0  0  0
 64 78  1  0  0  0  0
 65 79  1  0  0  0  0
 66 86  1  0  0  0  0
 68 70  1  0  0  0  0
M  CHG  2  78   1  79   1
M  ISO  4  37 100  66 101  77 100  86 101
M  END
> <Batch ID>
0112

> <Smiles>
CNC(C)C(=O)NC(C(=O)N1Cc2cc([101O:1][101CH:1](C)Cc3cc(C)cc(CN(CC[100NH:0][100C:0](=O)N4CCCC(n5nc(-c6ccc(Oc7ccc(F)cc7F)cc6)c(C(N)=O)c5N)C4)C(C)C)n3)ccc2CC1C(=O)NC1CCCc2ccccc21)C(C)(C)C

> <Shape>
0.215

> <Color>
0.093

> <Negative vol penalty>
0.000

$$$$

  -OEChem-04052320033D

 83 91  0     1  0  0  0  0  0999 V2000
  -15.5552  -19.7424   26.6930 C   0  0  0  0  0  0  0  0  0  0  0  0
  -16.5132  -19.2725   25.8003 C   0  0  0  0  0  0  0  0  0  0  0  0
  -23.0751   -9.8685   19.9418 C   0  0  0  0  0  0  0  0  0  0  0  0
  -23.8380   -9.8758   22.2342 C   0  0  0  0  0  0  0  0  0  0  0  0
  -15.5103  -21.0980   27.0157 C   0  0  0  0  0  0  0  0  0  0  0  0
  -17.4262  -20.1582   25.2290 C   0  0  0  0  0  0  0  0  0  0  0  0
  -23.2673  -19.0070   23.7931 C   0  0  0  0  0  0  0  0  0  0  0  0
  -22.3324   -8.7148   20.1926 C   0  0  0  0  0  0  0  0  0  0  0  0
  -23.0951   -8.7222   22.4850 C   0  0  0  0  0  0  0  0  0  0  0  0
  -23.8892  -18.6721   22.5911 C   0  0  0  0  0  0  0  0  0  0  0  0
  -19.8683   -7.9221   23.0916 C   0  0  0  0  0  0  0  0  0  0  0  0
  -19.1129   -7.8816   24.2635 C   0  0  0  0  0  0  0  0  0  0  0  0
  -24.4506  -20.9921   22.2422 C   0  0  0  0  0  0  0  0  0  0  0  0
  -28.4427  -18.3709   19.5858 C   0  0  0  0  0  0  0  0  0  0  0  0
  -20.3565   -5.9450   24.9982 C   0  0  0  0  0  0  0  0  0  0  0  0
  -28.3401  -18.7535   21.9310 C   0  0  0  0  0  0  0  0  0  0  0  0
  -23.8280  -10.4490   20.9625 C   0  0  0  0  0  0  0  0  0  0  0  0
  -24.1680  -12.9744   20.8422 C   0  0  0  0  0  0  0  0  0  0  0  0
  -16.4293  -21.9992   26.4554 C   0  0  0  0  0  0  0  0  0  0  0  0
  -23.2227  -20.3406   24.2240 C   0  0  0  0  0  0  0  0  0  0  0  0
  -17.3926  -21.5274   25.5435 C   0  0  0  0  0  0  0  0  0  0  0  0
  -23.8297  -21.3409   23.4513 C   0  0  0  0  0  0  0  0  0  0  0  0
  -29.0869  -18.4031   20.8176 C   0  0  0  0  0  0  0  0  0  0  0  0
  -27.0906  -18.6855   19.5061 C   0  0  0  0  0  0  0  0  0  0  0  0
  -22.3423   -8.1417   21.4642 C   0  0  0  0  0  0  0  0  0  0  0  0
  -24.4785  -19.6651   21.8140 C   0  0  0  0  0  0  0  0  0  0  0  0
  -20.8678   -6.9740   22.8730 C   0  0  0  0  0  0  0  0  0  0  0  0
  -19.3570   -6.8931   25.2168 C   0  0  0  0  0  0  0  0  0  0  0  0
  -21.1119   -5.9855   23.8263 C   0  0  0  0  0  0  0  0  0  0  0  0
  -24.5959  -11.6404   20.7039 C   0  0  0  0  0  0  0  0  0  0  0  0
  -26.4331  -19.0232   20.6781 C   0  0  0  0  0  0  0  0  0  1  0  0
  -25.2592  -13.7246   20.4776 C   0  0  0  0  0  0  0  0  0  0  0  0
  -22.8977  -13.4893   21.2628 C   0  0  0  0  0  0  0  0  0  0  0  0
  -20.9018  -22.4294   24.8189 C   0  0  0  0  0  0  0  0  0  0  0  0
  -23.3590  -24.2715   25.8634 C   0  0  0  0  0  0  0  0  0  0  0  0
  -26.6939  -24.9878   25.7523 C   0  0  0  0  0  0  0  0  0  0  0  0
  -30.7424  -14.7473   20.6590 C   0  0  0  0  0  0  0  0  0  0  0  0
  -16.3115  -23.4632   26.7982 C   0  0  0  0  0  0  0  0  0  0  0  0
  -22.5713  -20.6818   25.5362 C   0  0  0  0  0  0  0  0  0  0  0  0
  -23.8271  -22.7849   23.8794 C   0  0  0  0  0  0  0  0  0  0  0  0
  -17.5528  -24.2751   26.4373 C   0  0  0  0  0  0  0  0  0  0  0  0
  -29.6034  -12.3622   18.2735 C   0  0  0  0  0  0  0  0  0  0  0  0
  -18.0240  -23.9318   25.0278 C   0  0  0  0  0  0  0  0  0  0  0  0
  -28.1667  -12.0675   18.7083 C   0  0  0  0  0  0  0  0  0  0  0  0
  -30.5219  -12.5835   19.4733 C   0  0  0  0  0  0  0  0  0  0  0  0
  -28.6215  -13.3133   20.8623 C   0  0  0  0  0  0  0  0  0  0  0  0
  -18.4159  -22.4530   24.9220 C   0  0  1  0  0  0  0  0  0  0  0  0
  -22.1362  -22.1413   25.6256 C   0  0  1  0  0  0  0  0  0  0  0  0
  -27.6459  -13.1381   19.6859 C   0  0  2  0  0  0  0  0  0  0  0  0
  -26.3821  -17.2462   17.5618 C   0  0  0  0  0  0  0  0  0  0  0  0
  -26.9677  -19.6696   17.1886 C   0  0  0  0  0  0  0  0  0  0  0  0
  -28.4006  -26.5724   26.6869 C   0  0  0  0  0  0  0  0  0  0  0  0
  -22.3534  -26.4574   23.9871 C   0  0  0  0  0  0  0  0  0  0  0  0
  -24.5679  -27.5974   24.2412 C   0  0  0  0  0  0  0  0  0  0  0  0
  -23.0996  -27.2708   26.2312 C   0  0  0  0  0  0  0  0  0  0  0  0
  -28.2127  -22.7870   27.0207 C   0  0  0  0  0  0  0  0  0  0  0  0
  -30.8084  -16.8978   21.8960 C   0  0  0  0  0  0  0  0  0  0  0  0
  -26.3899  -18.6526   18.1922 C   0  0  0  0  0  0  0  0  0  0  0  0
  -30.5322  -18.0721   20.9359 C   0  0  2  0  0  0  0  0  0  0  0  0
  -24.2869  -25.2776   25.2264 C   0  0  1  0  0  0  0  0  0  0  0  0
  -27.7098  -25.2280   26.8544 C   0  0  2  0  0  0  0  0  0  0  0  0
  -23.5754  -26.6240   24.9122 C   0  0  0  0  0  0  0  0  0  0  0  0
  -27.0251  -19.0653   21.8928 N   0  0  0  0  0  0  0  0  0  0  0  0
  -25.8603  -11.5454   20.2840 N   0  0  0  0  0  0  0  0  0  0  0  0
  -26.2362  -12.8293   20.1552 N   0  0  0  0  0  0  0  0  0  0  0  0
  -23.1722  -23.0690   25.1670 N   0  0  0  0  0  0  0  0  0  0  0  0
  -29.9718  -13.6116   20.3600 N   0  0  0  0  0  0  0  0  0  0  0  0
  -25.4686  -15.0562   20.4044 N   0  0  0  0  0  0  0  0  0  0  0  0
  -21.8868  -12.5794   21.6013 N   0  0  0  0  0  0  0  0  0  0  0  0
  -19.7205  -22.2326   25.5084 N   0  0  0  0  0  0  0  0  0  0  0  0
  -25.4317  -25.4015   26.1222 N   0  0  0  0  0  0  0  0  0  0  0  0
  -30.1438  -15.6757   21.5019 N   0  0  0  0  0  0  0  0  0  0  0  0
  -31.3715  -19.2395   21.3884 N   0  3  0  0  0  0  0  0  0  0  0  0
  -28.7498  -24.1605   26.8419 N   0  3  0  0  0  0  0  0  0  0  0  0
  -22.6607  -14.7197   21.3205 O   0  0  0  0  0  0  0  0  0  0  0  0
  -21.0128  -22.8040   23.6574 O   0  0  0  0  0  0  0  0  0  0  0  0
  -22.8255  -24.5396   26.9428 O   0  0  0  0  0  0  0  0  0  0  0  0
  -26.9911  -24.4869   24.6700 O   0  0  0  0  0  0  0  0  0  0  0  0
  -31.8777  -14.9236   20.2039 O   0  0  0  0  0  0  0  0  0  0  0  0
  -21.6174   -7.0161   21.7094 O   0  0  0  0  0  0  0  0  0  0  0  0
  -25.0857  -19.3410   20.6400 O   0  0  0  0  0  0  0  0  0  1  0  0
  -18.6325   -6.8552   26.3428 F   0  0  0  0  0  0  0  0  0  0  0  0
  -22.0716   -5.0726   23.6224 F   0  0  0  0  0  0  0  0  0  0  0  0
  1  2  1  0  0  0  0
  1  5  2  0  0  0  0
  2  6  2  0  0  0  0
  3  8  2  0  0  0  0
  3 17  1  0  0  0  0
  4  9  1  0  0  0  0
  4 17  2  0  0  0  0
  5 19  1  0  0  0  0
  6 21  1  0  0  0  0
  7 10  2  0  0  0  0
  7 20  1  0  0  0  0
  8 25  1  0  0  0  0
  9 25  2  0  0  0  0
 10 26  1  0  0  0  0
 11 12  2  0  0  0  0
 11 27  1  0  0  0  0
 12 28  1  0  0  0  0
 13 22  1  0  0  0  0
 13 26  2  0  0  0  0
 14 23  2  0  0  0  0
 14 24  1  0  0  0  0
 15 28  2  0  0  0  0
 15 29  1  0  0  0  0
 16 23  1  0  0  0  0
 16 63  2  0  0  0  0
 17 30  1  0  0  0  0
 18 30  1  0  0  0  0
 18 32  2  0  0  0  0
 18 33  1  0  0  0  0
 19 21  2  0  0  0  0
 19 38  1  0  0  0  0
 20 22  2  0  0  0  0
 20 39  1  0  0  0  0
 21 47  1  0  0  0  0
 22 40  1  0  0  0  0
 23 59  1  0  0  0  0
 24 31  2  0  0  0  0
 24 58  1  0  0  0  0
 25 80  1  0  0  0  0
 26 81  1  0  0  0  0
 27 29  2  0  0  0  0
 27 80  1  0  0  0  0
 28 82  1  0  0  0  0
 29 83  1  0  0  0  0
 30 64  2  0  0  0  0
 31 63  1  0  0  0  0
 31 81  1  0  0  0  0
 32 65  1  0  0  0  0
 32 68  1  0  0  0  0
 33 69  1  0  0  0  0
 33 75  2  0  0  0  0
 34 48  1  0  0  0  0
 34 70  1  0  0  0  0
 34 76  2  0  0  0  0
 35 60  1  0  0  0  0
 35 66  1  0  0  0  0
 35 77  2  0  0  0  0
 36 61  1  0  0  0  0
 36 71  1  0  0  0  0
 36 78  2  0  0  0  0
 37 67  1  0  0  0  0
 37 72  1  0  0  0  0
 37 79  2  0  0  0  0
 38 41  1  0  0  0  0
 39 48  1  0  0  0  0
 40 66  1  0  0  0  0
 41 43  1  0  0  0  0
 42 44  1  0  0  0  0
 42 45  1  0  0  0  0
 43 47  1  0  0  0  0
 44 49  1  0  0  0  0
 45 67  1  0  0  0  0
 46 49  1  0  0  0  0
 46 67  1  0  0  0  0
 47 70  1  0  0  0  0
 48 66  1  0  0  0  0
 49 65  1  0  0  0  0
 50 58  1  0  0  0  0
 51 58  1  0  0  0  0
 52 61  1  0  0  0  0
 53 62  1  0  0  0  0
 54 62  1  0  0  0  0
 55 62  1  0  0  0  0
 56 74  1  0  0  0  0
 57 59  1  0  0  0  0
 57 72  1  0  0  0  0
 59 73  1  0  0  0  0
 60 62  1  0  0  0  0
 60 71  1  0  0  0  0
 61 74  1  0  0  0  0
 64 65  1  0  0  0  0
M  CHG  2  73   1  74   1
M  ISO  4  31 101  37 100  72 100  81 101
M  END
> <Batch ID>
0112

> <Smiles>
CNC(C)C(=O)NC(C(=O)N1Cc2cc([101O:1][101c:1]3ncc(C(N)C[100NH:0][100C:0](=O)N4CCCC(n5nc(-c6ccc(Oc7ccc(F)cc7F)cc6)c(C(N)=O)c5N)C4)cc3C(C)C)ccc2CC1C(=O)NC1CCCc2ccccc21)C(C)(C)C

> <Shape>
0.194

> <Color>
0.184

> <Negative vol penalty>
0.000

$$$$

  -OEChem-04052320033D

 78 86  0     1  0  0  0  0  0999 V2000
  -30.3658  -22.2860   33.6213 C   0  0  0  0  0  0  0  0  0  0  0  0
  -30.6676  -21.2638   32.7272 C   0  0  0  0  0  0  0  0  0  0  0  0
  -23.1904   -9.8194   19.9319 C   0  0  0  0  0  0  0  0  0  0  0  0
  -23.5682  -10.0000   22.3114 C   0  0  0  0  0  0  0  0  0  0  0  0
  -29.0591  -22.7625   33.7182 C   0  0  0  0  0  0  0  0  0  0  0  0
  -29.6627  -20.7167   31.9302 C   0  0  0  0  0  0  0  0  0  0  0  0
  -31.1120  -20.1172   27.1152 C   0  0  0  0  0  0  0  0  0  0  0  0
  -22.4239   -8.6729   20.1406 C   0  0  0  0  0  0  0  0  0  0  0  0
  -22.8017   -8.8535   22.5201 C   0  0  0  0  0  0  0  0  0  0  0  0
  -31.9263  -19.0228   26.8269 C   0  0  0  0  0  0  0  0  0  0  0  0
  -23.2023   -5.5067   22.2564 C   0  0  0  0  0  0  0  0  0  0  0  0
  -23.7003   -4.5454   23.1359 C   0  0  0  0  0  0  0  0  0  0  0  0
  -30.0041  -17.8150   26.0112 C   0  0  0  0  0  0  0  0  0  0  0  0
  -21.7435   -4.8059   24.5288 C   0  0  0  0  0  0  0  0  0  0  0  0
  -23.7626  -10.4830   21.0173 C   0  0  0  0  0  0  0  0  0  0  0  0
  -24.1018  -12.9995   20.7734 C   0  0  0  0  0  0  0  0  0  0  0  0
  -28.0395  -22.2276   32.9151 C   0  0  0  0  0  0  0  0  0  0  0  0
  -29.7335  -20.0645   26.8633 C   0  0  0  0  0  0  0  0  0  0  0  0
  -28.3408  -21.1856   32.0175 C   0  0  0  0  0  0  0  0  0  0  0  0
  -29.1749  -18.9109   26.2948 C   0  0  0  0  0  0  0  0  0  0  0  0
  -22.2295   -8.1900   21.4347 C   0  0  0  0  0  0  0  0  0  0  0  0
  -31.3720  -17.8705   26.2775 C   0  0  0  0  0  0  0  0  0  0  0  0
  -21.9749   -6.1177   22.5132 C   0  0  0  0  0  0  0  0  0  0  0  0
  -22.9710   -4.1949   24.2720 C   0  0  0  0  0  0  0  0  0  0  0  0
  -21.2455   -5.7672   23.6494 C   0  0  0  0  0  0  0  0  0  0  0  0
  -24.5550  -11.6670   20.8023 C   0  0  0  0  0  0  0  0  0  0  0  0
  -25.2331  -13.7420   20.5382 C   0  0  0  0  0  0  0  0  0  0  0  0
  -22.7766  -13.5197   20.9439 C   0  0  0  0  0  0  0  0  0  0  0  0
  -27.1166  -20.2563   28.6573 C   0  0  0  0  0  0  0  0  0  0  0  0
  -25.6142  -20.2099   25.7828 C   0  0  0  0  0  0  0  0  0  0  0  0
  -25.6996  -19.3447   22.4827 C   0  0  0  0  0  0  0  0  0  0  0  0
  -31.0475  -12.7512   21.5686 C   0  0  0  0  0  0  0  0  0  0  0  0
  -26.6327  -22.7427   33.0892 C   0  0  0  0  0  0  0  0  0  0  0  0
  -28.8731  -21.2633   27.1551 C   0  0  0  0  0  0  0  0  0  0  0  0
  -27.7040  -18.8112   25.9865 C   0  0  0  0  0  0  0  0  0  0  0  0
  -25.6998  -22.3662   31.9411 C   0  0  0  0  0  0  0  0  0  0  0  0
  -29.5209  -13.4685   18.4331 C   0  0  0  0  0  0  0  0  0  0  0  0
  -25.8560  -20.8903   31.5884 C   0  0  0  0  0  0  0  0  0  0  0  0
  -28.0342  -13.2084   18.6822 C   0  0  0  0  0  0  0  0  0  0  0  0
  -31.5428  -14.4663   24.3821 C   0  0  0  0  0  0  0  0  0  0  0  0
  -30.4019  -12.4790   19.1926 C   0  0  0  0  0  0  0  0  0  0  0  0
  -28.6479  -12.1367   20.8898 C   0  0  0  0  0  0  0  0  0  0  0  0
  -31.1370  -12.2967   25.2653 C   0  0  0  0  0  0  0  0  0  0  0  0
  -27.2830  -20.5835   31.1182 C   0  0  1  0  0  0  0  0  0  0  0  0
  -27.3996  -20.9115   27.3351 C   0  0  1  0  0  0  0  0  0  0  0  0
  -27.7208  -13.1446   20.1891 C   0  0  2  0  0  0  0  0  0  0  0  0
  -31.5297  -13.0002   23.9794 C   0  0  1  0  0  0  0  0  0  0  0  0
  -32.2369  -14.4307   25.7387 C   0  0  1  0  0  0  0  0  0  0  0  0
  -24.3087  -19.4012   20.3947 C   0  0  0  0  0  0  0  0  0  0  0  0
  -32.6224  -15.5095   27.9732 C   0  0  0  0  0  0  0  0  0  0  0  0
  -23.9511  -17.8761   26.8303 C   0  0  0  0  0  0  0  0  0  0  0  0
  -23.2910  -17.3767   24.4674 C   0  0  0  0  0  0  0  0  0  0  0  0
  -22.6654  -19.5593   25.5006 C   0  0  0  0  0  0  0  0  0  0  0  0
  -27.6739  -21.0412   21.0746 C   0  0  0  0  0  0  0  0  0  0  0  0
  -25.0770  -19.1304   24.8745 C   0  0  1  0  0  0  0  0  0  0  0  0
  -25.3551  -20.1256   21.2273 C   0  0  2  0  0  0  0  0  0  0  0  0
  -31.8598  -15.5742   26.6587 C   0  0  1  0  0  0  0  0  0  1  0  0
  -23.7736  -18.4864   25.4257 C   0  0  0  0  0  0  0  0  0  0  0  0
  -25.8716  -11.5657   20.6014 N   0  0  0  0  0  0  0  0  0  0  0  0
  -26.2553  -12.8440   20.4439 N   0  0  0  0  0  0  0  0  0  0  0  0
  -26.9033  -20.0074   26.2957 N   0  0  0  0  0  0  0  0  0  0  0  0
  -30.0550  -12.4681   20.6158 N   0  0  0  0  0  0  0  0  0  0  0  0
  -25.4433  -15.0688   20.4049 N   0  0  0  0  0  0  0  0  0  0  0  0
  -21.7297  -12.6176   21.1778 N   0  0  0  0  0  0  0  0  0  0  0  0
  -27.4702  -21.0221   29.7518 N   0  0  0  0  0  0  0  0  0  0  0  0
  -24.9315  -19.7403   23.5572 N   0  0  0  0  0  0  0  0  0  0  0  0
  -30.6330  -12.7260   22.8947 N   0  0  0  0  0  0  0  0  0  0  0  0
  -31.8010  -13.1164   26.3381 N   0  3  0  0  0  0  0  0  0  0  0  0
  -26.5712  -20.3202   20.3882 N   0  3  0  0  0  0  0  0  0  0  0  0
  -22.5256  -14.7467   20.8740 O   0  0  0  0  0  0  0  0  0  0  0  0
  -26.6132  -19.1393   28.6827 O   0  0  0  0  0  0  0  0  0  0  0  0
  -24.9185  -21.2000   26.0225 O   0  0  0  0  0  0  0  0  0  0  0  0
  -26.5613  -18.4686   22.5067 O   0  0  0  0  0  0  0  0  0  0  0  0
  -32.2152  -13.0126   21.2602 O   0  0  0  0  0  0  0  0  0  0  0  0
  -21.4814   -7.0714   21.6388 O   0  0  0  0  0  0  0  0  0  0  0  0
  -32.1644  -16.8007   25.9958 O   0  0  0  0  0  0  0  0  0  1  0  0
  -23.4486   -3.2706   25.1156 F   0  0  0  0  0  0  0  0  0  0  0  0
  -20.0652   -6.3499   23.9007 F   0  0  0  0  0  0  0  0  0  0  0  0
  1  2  1  0  0  0  0
  1  5  2  0  0  0  0
  2  6  2  0  0  0  0
  3  8  2  0  0  0  0
  3 15  1  0  0  0  0
  4  9  1  0  0  0  0
  4 15  2  0  0  0  0
  5 17  1  0  0  0  0
  6 19  1  0  0  0  0
  7 10  2  0  0  0  0
  7 18  1  0  0  0  0
  8 21  1  0  0  0  0
  9 21  2  0  0  0  0
 10 22  1  0  0  0  0
 11 12  2  0  0  0  0
 11 23  1  0  0  0  0
 12 24  1  0  0  0  0
 13 20  1  0  0  0  0
 13 22  2  0  0  0  0
 14 24  2  0  0  0  0
 14 25  1  0  0  0  0
 15 26  1  0  0  0  0
 16 26  1  0  0  0  0
 16 27  2  0  0  0  0
 16 28  1  0  0  0  0
 17 19  2  0  0  0  0
 17 33  1  0  0  0  0
 18 20  2  0  0  0  0
 18 34  1  0  0  0  0
 19 44  1  0  0  0  0
 20 35  1  0  0  0  0
 21 75  1  0  0  0  0
 22 76  1  0  0  0  0
 23 25  2  0  0  0  0
 23 75  1  0  0  0  0
 24 77  1  0  0  0  0
 25 78  1  0  0  0  0
 26 59  2  0  0  0  0
 27 60  1  0  0  0  0
 27 63  1  0  0  0  0
 28 64  1  0  0  0  0
 28 70  2  0  0  0  0
 29 45  1  0  0  0  0
 29 65  1  0  0  0  0
 29 71  2  0  0  0  0
 30 55  1  0  0  0  0
 30 61  1  0  0  0  0
 30 72  2  0  0  0  0
 31 56  1  0  0  0  0
 31 66  1  0  0  0  0
 31 73  2  0  0  0  0
 32 62  1  0  0  0  0
 32 67  1  0  0  0  0
 32 74  2  0  0  0  0
 33 36  1  0  0  0  0
 34 45  1  0  0  0  0
 35 61  1  0  0  0  0
 36 38  1  0  0  0  0
 37 39  1  0  0  0  0
 37 41  1  0  0  0  0
 38 44  1  0  0  0  0
 39 46  1  0  0  0  0
 40 47  1  0  0  0  0
 40 48  1  0  0  0  0
 41 62  1  0  0  0  0
 42 46  1  0  0  0  0
 42 62  1  0  0  0  0
 43 47  1  0  0  0  0
 43 68  1  0  0  0  0
 44 65  1  0  0  0  0
 45 61  1  0  0  0  0
 46 60  1  0  0  0  0
 47 67  1  0  0  0  0
 48 57  1  0  0  0  0
 48 68  1  0  0  0  0
 49 56  1  0  0  0  0
 50 57  1  0  0  0  0
 51 58  1  0  0  0  0
 52 58  1  0  0  0  0
 53 58  1  0  0  0  0
 54 69  1  0  0  0  0
 55 58  1  0  0  0  0
 55 66  1  0  0  0  0
 56 69  1  0  0  0  0
 57 76  1  0  0  0  0
 59 60  1  0  0  0  0
M  CHG  2  68   1  69   1
M  ISO  4  32 100  57 101  67 100  76 101
M  END
> <Batch ID>
0112

> <Smiles>
CNC(C)C(=O)NC(C(=O)N1Cc2cc([101O:1][101CH:1](C)C3CC([100NH:0][100C:0](=O)N4CCCC(n5nc(-c6ccc(Oc7ccc(F)cc7F)cc6)c(C(N)=O)c5N)C4)CN3)ccc2CC1C(=O)NC1CCCc2ccccc21)C(C)(C)C

> <Shape>
0.151

> <Color>
0.182

> <Negative vol penalty>
0.000

$$$$

  -OEChem-04052320033D

 89 98  0     1  0  0  0  0  0999 V2000
  -31.3004  -11.3364   19.6811 C   0  0  0  0  0  0  0  0  0  0  0  0
  -31.0116  -12.6720   19.4201 C   0  0  0  0  0  0  0  0  0  0  0  0
  -19.2010  -28.9447   22.0674 C   0  0  0  0  0  0  0  0  0  0  0  0
  -20.6042  -27.2960   23.1398 C   0  0  0  0  0  0  0  0  0  0  0  0
  -30.2746  -10.4569   20.0249 C   0  0  0  0  0  0  0  0  0  0  0  0
  -29.6966  -13.1287   19.5017 C   0  0  0  0  0  0  0  0  0  0  0  0
  -29.3205  -17.5382   21.9633 C   0  0  0  0  0  0  0  0  0  0  0  0
  -29.3824  -22.3582   17.6577 C   0  0  0  0  0  0  0  0  0  0  0  0
  -18.1609  -28.0176   22.0030 C   0  0  0  0  0  0  0  0  0  0  0  0
  -19.5640  -26.3689   23.0754 C   0  0  0  0  0  0  0  0  0  0  0  0
  -29.6698  -18.6911   21.2614 C   0  0  0  0  0  0  0  0  0  0  0  0
  -18.1786  -24.3363   20.7559 C   0  0  0  0  0  0  0  0  0  0  0  0
  -18.4875  -23.0443   20.3304 C   0  0  0  0  0  0  0  0  0  0  0  0
  -29.9157  -23.4492   16.9714 C   0  0  0  0  0  0  0  0  0  0  0  0
  -27.3354  -19.1427   20.8537 C   0  0  0  0  0  0  0  0  0  0  0  0
  -28.1927  -23.8634   19.1260 C   0  0  0  0  0  0  0  0  0  0  0  0
  -17.7079  -22.1630   22.4405 C   0  0  0  0  0  0  0  0  0  0  0  0
  -20.4227  -28.5839   22.6358 C   0  0  0  0  0  0  0  0  0  0  0  0
  -21.7657  -30.4474   23.7454 C   0  0  0  0  0  0  0  0  0  0  0  0
  -28.9477  -10.9051   20.1201 C   0  0  0  0  0  0  0  0  0  0  0  0
  -27.9744  -17.1725   22.1066 C   0  0  0  0  0  0  0  0  0  0  0  0
  -28.6519  -12.2541   19.8457 C   0  0  0  0  0  0  0  0  0  0  0  0
  -26.9716  -17.9861   21.5601 C   0  0  0  0  0  0  0  0  0  0  0  0
  -28.5208  -22.5653   18.7350 C   0  0  0  0  0  0  0  0  0  0  0  0
  -28.7260  -24.9544   18.4398 C   0  0  0  0  0  0  0  0  0  0  0  0
  -18.3424  -26.7297   22.5070 C   0  0  0  0  0  0  0  0  0  0  0  0
  -28.6773  -19.4920   20.7040 C   0  0  0  0  0  0  0  0  0  0  0  0
  -17.6344  -24.5416   22.0238 C   0  0  0  0  0  0  0  0  0  0  0  0
  -18.2521  -21.9577   21.1727 C   0  0  0  0  0  0  0  0  0  0  0  0
  -17.3991  -23.4549   22.8660 C   0  0  0  0  0  0  0  0  0  0  0  0
  -29.5875  -24.7473   17.3625 C   0  0  0  0  0  0  0  0  0  0  0  0
  -21.4977  -29.5410   22.7022 C   0  0  0  0  0  0  0  0  0  0  0  0
  -22.8841  -31.1280   23.3301 C   0  0  0  0  0  0  0  0  0  0  0  0
  -21.0663  -30.6555   24.9796 C   0  0  0  0  0  0  0  0  0  0  0  0
  -26.2197  -14.6785   21.2092 C   0  0  0  0  0  0  0  0  0  0  0  0
  -23.9302  -16.1488   22.9752 C   0  0  0  0  0  0  0  0  0  0  0  0
  -26.8424  -26.5870   18.7540 C   0  0  0  0  0  0  0  0  0  0  0  0
  -22.7239  -19.0423   24.3240 C   0  0  0  0  0  0  0  0  0  0  0  0
  -27.3306  -29.7514   19.5639 C   0  0  0  0  0  0  0  0  0  0  0  0
  -27.8661   -9.9068   20.4489 C   0  0  0  0  0  0  0  0  0  0  0  0
  -27.6129  -15.9401   22.8896 C   0  0  0  0  0  0  0  0  0  0  0  0
  -25.5108  -17.6484   21.7031 C   0  0  0  0  0  0  0  0  0  0  0  0
  -26.5516  -10.5527   20.8794 C   0  0  0  0  0  0  0  0  0  0  0  0
  -25.1416  -32.5520   19.3594 C   0  0  0  0  0  0  0  0  0  0  0  0
  -26.1786  -11.6875   19.9308 C   0  0  0  0  0  0  0  0  0  0  0  0
  -23.9837  -32.1797   20.2871 C   0  0  0  0  0  0  0  0  0  0  0  0
  -30.1791  -25.9542   20.5682 C   0  0  0  0  0  0  0  0  0  0  0  0
  -25.6798  -31.3341   18.6117 C   0  0  0  0  0  0  0  0  0  0  0  0
  -24.9031  -29.8258   20.3993 C   0  0  0  0  0  0  0  0  0  0  0  0
  -30.7084  -26.2486   21.9626 C   0  0  0  0  0  0  0  0  0  0  0  0
  -29.4189  -28.3920   22.0239 C   0  0  0  0  0  0  0  0  0  0  0  0
  -27.2414  -12.7927   19.9480 C   0  0  1  0  0  0  0  0  0  0  0  0
  -26.2359  -15.3885   22.5334 C   0  0  1  0  0  0  0  0  0  0  0  0
  -28.8091  -26.6087   20.3226 C   0  0  1  0  0  0  0  0  0  0  0  0
  -24.3635  -31.0117   21.2171 C   0  0  2  0  0  0  0  0  0  0  0  0
  -28.8707  -28.1207   20.6261 C   0  0  1  0  0  0  0  0  0  0  0  0
  -20.8135  -19.9352   25.6842 C   0  0  0  0  0  0  0  0  0  0  0  0
  -22.1153  -15.9872   20.5277 C   0  0  0  0  0  0  0  0  0  0  0  0
  -20.6294  -17.6910   21.6036 C   0  0  0  0  0  0  0  0  0  0  0  0
  -20.9851  -15.4787   22.6999 C   0  0  0  0  0  0  0  0  0  0  0  0
  -24.5330  -19.9461   26.4849 C   0  0  0  0  0  0  0  0  0  0  0  0
  -27.9476  -21.3915   19.4730 C   0  0  0  0  0  0  0  0  0  1  0  0
  -28.3491  -26.3291   18.8894 C   0  0  1  0  0  0  0  0  0  0  0  0
  -22.8593  -17.1755   22.6958 C   0  0  1  0  0  0  0  0  0  0  0  0
  -22.2257  -19.3722   25.7195 C   0  0  2  0  0  0  0  0  0  0  0  0
  -21.6748  -16.5887   21.8772 C   0  0  0  0  0  0  0  0  0  0  0  0
  -22.3751  -29.6348   21.6995 N   0  0  0  0  0  0  0  0  0  0  0  0
  -23.2053  -30.6083   22.1107 N   0  0  0  0  0  0  0  0  0  0  0  0
  -25.2083  -16.4299   22.4721 N   0  0  0  0  0  0  0  0  0  0  0  0
  -26.0227  -30.2635   19.5510 N   0  0  0  0  0  0  0  0  0  0  0  0
  -23.6143  -32.1143   23.8927 N   0  0  0  0  0  0  0  0  0  0  0  0
  -19.9370  -29.8702   25.2482 N   0  0  0  0  0  0  0  0  0  0  0  0
  -26.4944  -27.0964   17.5207 N   0  0  0  0  0  0  0  0  0  0  0  0
  -27.0974  -13.6141   21.1308 N   0  0  0  0  0  0  0  0  0  0  0  0
  -22.4755  -17.7277   23.9904 N   0  0  0  0  0  0  0  0  0  0  0  0
  -27.5728  -28.7431   20.4888 N   0  0  0  0  0  0  0  0  0  0  0  0
  -30.7466  -27.7246   22.1708 N   0  3  0  0  0  0  0  0  0  0  0  0
  -23.1169  -20.3783   26.3633 N   0  3  0  0  0  0  0  0  0  0  0  0
  -21.4223  -31.5239   25.8119 O   0  0  0  0  0  0  0  0  0  0  0  0
  -25.4657  -15.0668   20.3247 O   0  0  0  0  0  0  0  0  0  0  0  0
  -23.6448  -15.1382   23.6223 O   0  0  0  0  0  0  0  0  0  0  0  0
  -26.0268  -26.3457   19.6407 O   0  0  0  0  0  0  0  0  0  0  0  0
  -23.2748  -19.8693   23.6006 O   0  0  0  0  0  0  0  0  0  0  0  0
  -28.2183  -30.1660   18.8108 O   0  0  0  0  0  0  0  0  0  0  0  0
  -17.3276  -25.8248   22.4445 O   0  0  0  0  0  0  0  0  0  0  0  0
  -29.0155  -20.6174   20.0178 O   0  0  0  0  0  0  0  0  0  1  0  0
  -18.5474  -20.7169   20.7633 F   0  0  0  0  0  0  0  0  0  0  0  0
  -16.8754  -23.6458   24.0847 F   0  0  0  0  0  0  0  0  0  0  0  0
  -30.2661  -26.0729   16.4899 Cl  0  0  0  0  0  0  0  0  0  0  0  0
  1  2  1  0  0  0  0
  1  5  2  0  0  0  0
  2  6  2  0  0  0  0
  3  9  2  0  0  0  0
  3 18  1  0  0  0  0
  4 10  1  0  0  0  0
  4 18  2  0  0  0  0
  5 20  1  0  0  0  0
  6 22  1  0  0  0  0
  7 11  2  0  0  0  0
  7 21  1  0  0  0  0
  8 14  2  0  0  0  0
  8 24  1  0  0  0  0
  9 26  1  0  0  0  0
 10 26  2  0  0  0  0
 11 27  1  0  0  0  0
 12 13  2  0  0  0  0
 12 28  1  0  0  0  0
 13 29  1  0  0  0  0
 14 31  1  0  0  0  0
 15 23  1  0  0  0  0
 15 27  2  0  0  0  0
 16 24  2  0  0  0  0
 16 25  1  0  0  0  0
 17 29  2  0  0  0  0
 17 30  1  0  0  0  0
 18 32  1  0  0  0  0
 19 32  1  0  0  0  0
 19 33  2  0  0  0  0
 19 34  1  0  0  0  0
 20 22  2  0  0  0  0
 20 40  1  0  0  0  0
 21 23  2  0  0  0  0
 21 41  1  0  0  0  0
 22 52  1  0  0  0  0
 23 42  1  0  0  0  0
 24 62  1  0  0  0  0
 25 31  2  0  0  0  0
 25 63  1  0  0  0  0
 26 85  1  0  0  0  0
 27 86  1  0  0  0  0
 28 30  2  0  0  0  0
 28 85  1  0  0  0  0
 29 87  1  0  0  0  0
 30 88  1  0  0  0  0
 31 89  1  0  0  0  0
 32 67  2  0  0  0  0
 33 68  1  0  0  0  0
 33 71  1  0  0  0  0
 34 72  1  0  0  0  0
 34 79  2  0  0  0  0
 35 53  1  0  0  0  0
 35 74  1  0  0  0  0
 35 80  2  0  0  0  0
 36 64  1  0  0  0  0
 36 69  1  0  0  0  0
 36 81  2  0  0  0  0
 37 63  1  0  0  0  0
 37 73  1  0  0  0  0
 37 82  2  0  0  0  0
 38 65  1  0  0  0  0
 38 75  1  0  0  0  0
 38 83  2  0  0  0  0
 39 70  1  0  0  0  0
 39 76  1  0  0  0  0
 39 84  2  0  0  0  0
 40 43  1  0  0  0  0
 41 53  1  0  0  0  0
 42 69  1  0  0  0  0
 43 45  1  0  0  0  0
 44 46  1  0  0  0  0
 44 48  1  0  0  0  0
 45 52  1  0  0  0  0
 46 55  1  0  0  0  0
 47 50  1  0  0  0  0
 47 54  1  0  0  0  0
 48 70  1  0  0  0  0
 49 55  1  0  0  0  0
 49 70  1  0  0  0  0
 50 77  1  0  0  0  0
 51 56  1  0  0  0  0
 51 77  1  0  0  0  0
 52 74  1  0  0  0  0
 53 69  1  0  0  0  0
 54 56  1  0  0  0  0
 54 63  1  0  0  0  0
 55 68  1  0  0  0  0
 56 76  1  0  0  0  0
 57 65  1  0  0  0  0
 58 66  1  0  0  0  0
 59 66  1  0  0  0  0
 60 66  1  0  0  0  0
 61 78  1  0  0  0  0
 62 86  1  0  0  0  0
 64 66  1  0  0  0  0
 64 75  1  0  0  0  0
 65 78  1  0  0  0  0
 67 68  1  0  0  0  0
M  CHG  2  77   1  78   1
M  ISO  4  39 100  62 101  76 100  86 101
M  END
> <Batch ID>
0112

> <Smiles>
CNC(C)C(=O)NC(C(=O)N1Cc2cc([101O:1][101CH2:1]c3ccc(Cl)c(C(C(N)=O)C4CCNCC4[100NH:0][100C:0](=O)N4CCCC(n5nc(-c6ccc(Oc7ccc(F)cc7F)cc6)c(C(N)=O)c5N)C4)c3)ccc2CC1C(=O)NC1CCCc2ccccc21)C(C)(C)C

> <Shape>
0.262

> <Color>
0.074

> <Negative vol penalty>
0.000

$$$$

  -OEChem-04052320033D

 86 94  0     1  0  0  0  0  0999 V2000
  -19.9774  -30.6271   24.3702 C   0  0  0  0  0  0  0  0  0  0  0  0
  -20.8899  -29.7450   24.9401 C   0  0  0  0  0  0  0  0  0  0  0  0
  -25.7131  -11.6319   22.7937 C   0  0  0  0  0  0  0  0  0  0  0  0
  -29.9730  -23.3511   20.3814 C   0  0  0  0  0  0  0  0  0  0  0  0
  -27.5614  -23.3239   20.5258 C   0  0  0  0  0  0  0  0  0  0  0  0
  -19.0573  -30.1655   23.4298 C   0  0  0  0  0  0  0  0  0  0  0  0
  -20.8821  -28.4005   24.5706 C   0  0  0  0  0  0  0  0  0  0  0  0
  -25.7288  -24.6887   24.0825 C   0  0  0  0  0  0  0  0  0  0  0  0
  -25.3619  -12.3999   21.6836 C   0  0  0  0  0  0  0  0  0  0  0  0
  -25.6554  -12.1868   24.0722 C   0  0  0  0  0  0  0  0  0  0  0  0
  -29.9297  -24.6611   19.9045 C   0  0  0  0  0  0  0  0  0  0  0  0
  -27.5181  -24.6340   20.0489 C   0  0  0  0  0  0  0  0  0  0  0  0
  -26.2714  -23.7363   24.9440 C   0  0  0  0  0  0  0  0  0  0  0  0
  -26.7912  -28.0963   19.2111 C   0  0  0  0  0  0  0  0  0  0  0  0
  -25.9444  -28.9955   19.8591 C   0  0  0  0  0  0  0  0  0  0  0  0
  -25.0570  -22.0043   23.7845 C   0  0  0  0  0  0  0  0  0  0  0  0
  -24.8954  -14.2778   23.1304 C   0  0  0  0  0  0  0  0  0  0  0  0
  -27.1541  -28.6481   21.9215 C   0  0  0  0  0  0  0  0  0  0  0  0
  -28.7888  -22.6824   20.6920 C   0  0  0  0  0  0  0  0  0  0  0  0
  -28.9177  -20.9150   22.5270 C   0  0  0  0  0  0  0  0  0  0  0  0
  -19.0447  -28.8166   23.0415 C   0  0  0  0  0  0  0  0  0  0  0  0
  -24.8362  -24.3067   23.0706 C   0  0  0  0  0  0  0  0  0  0  0  0
  -19.9602  -27.9201   23.6251 C   0  0  0  0  0  0  0  0  0  0  0  0
  -24.5065  -22.9534   22.9098 C   0  0  0  0  0  0  0  0  0  0  0  0
  -24.9530  -13.7228   21.8519 C   0  0  0  0  0  0  0  0  0  0  0  0
  -25.2466  -13.5097   24.2405 C   0  0  0  0  0  0  0  0  0  0  0  0
  -28.7023  -25.3026   19.7382 C   0  0  0  0  0  0  0  0  0  0  0  0
  -25.9333  -22.3943   24.7970 C   0  0  0  0  0  0  0  0  0  0  0  0
  -27.8194  -27.4729   19.9182 C   0  0  0  0  0  0  0  0  0  0  0  0
  -26.1259  -29.2714   21.2143 C   0  0  0  0  0  0  0  0  0  0  0  0
  -28.0008  -27.7489   21.2734 C   0  0  0  0  0  0  0  0  0  0  0  0
  -28.8329  -21.3289   21.1841 C   0  0  0  0  0  0  0  0  0  0  0  0
  -28.9286  -19.5430   22.4634 C   0  0  0  0  0  0  0  0  0  0  0  0
  -28.9810  -21.7004   23.7248 C   0  0  0  0  0  0  0  0  0  0  0  0
  -21.8014  -24.9638   22.3910 C   0  0  0  0  0  0  0  0  0  0  0  0
  -22.4405  -23.2599   19.7057 C   0  0  0  0  0  0  0  0  0  0  0  0
  -24.3514  -20.8888   18.1652 C   0  0  0  0  0  0  0  0  0  0  0  0
  -26.6228  -15.1917   19.4197 C   0  0  0  0  0  0  0  0  0  0  0  0
  -18.0004  -28.3546   22.0562 C   0  0  0  0  0  0  0  0  0  0  0  0
  -24.2804  -25.3428   22.1326 C   0  0  0  0  0  0  0  0  0  0  0  0
  -23.5687  -22.4890   21.8266 C   0  0  0  0  0  0  0  0  0  0  0  0
  -18.3041  -26.9907   21.4414 C   0  0  0  0  0  0  0  0  0  0  0  0
  -29.9981  -16.2260   18.9568 C   0  0  0  0  0  0  0  0  0  0  0  0
  -18.7201  -25.9985   22.5226 C   0  0  0  0  0  0  0  0  0  0  0  0
  -30.0496  -17.6089   19.6088 C   0  0  0  0  0  0  0  0  0  0  0  0
  -28.6629  -15.9813   18.2573 C   0  0  0  0  0  0  0  0  0  0  0  0
  -27.5245  -17.5730   19.7554 C   0  0  0  0  0  0  0  0  0  0  0  0
  -19.9993  -26.4593   23.2317 C   0  0  1  0  0  0  0  0  0  0  0  0
  -22.9812  -24.9065   21.4624 C   0  0  1  0  0  0  0  0  0  0  0  0
  -28.8308  -17.8444   20.5211 C   0  0  2  0  0  0  0  0  0  0  0  0
  -25.2301  -19.4566   16.3014 C   0  0  0  0  0  0  0  0  0  0  0  0
  -26.8200  -14.7271   28.2545 C   0  0  0  0  0  0  0  0  0  0  0  0
  -20.0124  -21.5365   20.3720 C   0  0  0  0  0  0  0  0  0  0  0  0
  -20.8654  -19.8306   18.7500 C   0  0  0  0  0  0  0  0  0  0  0  0
  -20.2503  -22.1118   17.9498 C   0  0  0  0  0  0  0  0  0  0  0  0
  -26.3552  -22.9242   17.3903 C   0  0  0  0  0  0  0  0  0  0  0  0
  -24.5763  -14.5429   20.6645 C   0  0  0  0  0  0  0  0  0  0  0  0
  -25.1852  -14.1066   25.6156 C   0  0  0  0  0  0  0  0  0  0  0  0
  -26.0713  -20.1058   25.4292 C   0  0  0  0  0  0  0  0  0  1  0  0
  -26.7556  -19.2304   26.4612 C   0  0  0  0  0  0  0  0  0  0  0  0
  -27.0024  -17.0065   27.1798 C   0  0  0  0  0  0  0  0  0  0  0  0
  -22.3541  -21.8035   19.3178 C   0  0  1  0  0  0  0  0  0  0  0  0
  -25.0464  -20.8759   16.8157 C   0  0  2  0  0  0  0  0  0  0  0  0
  -26.2346  -15.6918   27.2357 C   0  0  1  0  0  0  0  0  0  0  0  0
  -20.8867  -21.3293   19.1191 C   0  0  0  0  0  0  0  0  0  0  0  0
  -28.7928  -20.3029   20.3299 N   0  0  0  0  0  0  0  0  0  0  0  0
  -28.8528  -19.2307   21.1379 N   0  0  0  0  0  0  0  0  0  0  0  0
  -23.0464  -23.5407   20.9385 N   0  0  0  0  0  0  0  0  0  0  0  0
  -27.5483  -16.2202   19.1774 N   0  0  0  0  0  0  0  0  0  0  0  0
  -28.9954  -18.5853   23.4125 N   0  0  0  0  0  0  0  0  0  0  0  0
  -28.9591  -23.0971   23.6099 N   0  0  0  0  0  0  0  0  0  0  0  0
  -21.1589  -26.1870   22.4097 N   0  0  0  0  0  0  0  0  0  0  0  0
  -23.1983  -21.6444   18.1387 N   0  0  0  0  0  0  0  0  0  0  0  0
  -25.6009  -15.4993   20.3095 N   0  0  0  0  0  0  0  0  0  0  0  0
  -26.3883  -21.5161   16.9181 N   0  3  0  0  0  0  0  0  0  0  0  0
  -26.3013  -15.0461   25.8924 N   0  3  0  0  0  0  0  0  0  0  0  0
  -29.0713  -21.1794   24.8623 O   0  0  0  0  0  0  0  0  0  0  0  0
  -21.4956  -23.9711   23.0413 O   0  0  0  0  0  0  0  0  0  0  0  0
  -21.9935  -24.1173   18.9398 O   0  0  0  0  0  0  0  0  0  0  0  0
  -24.7857  -20.2856   19.1440 O   0  0  0  0  0  0  0  0  0  0  0  0
  -26.7045  -14.0797   18.8869 O   0  0  0  0  0  0  0  0  0  0  0  0
  -28.6596  -26.5810   19.2731 O   0  0  0  0  0  0  0  0  0  0  0  0
  -26.4610  -21.4627   25.6370 O   0  0  0  0  0  0  0  0  0  1  0  0
  -26.3877  -17.8747   26.2379 O   0  0  0  0  0  0  0  0  0  0  0  0
  -25.3137  -30.1361   21.8362 F   0  0  0  0  0  0  0  0  0  0  0  0
  -28.9876  -27.1540   21.9577 F   0  0  0  0  0  0  0  0  0  0  0  0
  1  2  1  0  0  0  0
  1  6  2  0  0  0  0
  2  7  2  0  0  0  0
  3  9  1  0  0  0  0
  3 10  2  0  0  0  0
  4 11  2  0  0  0  0
  4 19  1  0  0  0  0
  5 12  1  0  0  0  0
  5 19  2  0  0  0  0
  6 21  1  0  0  0  0
  7 23  1  0  0  0  0
  8 13  2  0  0  0  0
  8 22  1  0  0  0  0
  9 25  2  0  0  0  0
 10 26  1  0  0  0  0
 11 27  1  0  0  0  0
 12 27  2  0  0  0  0
 13 28  1  0  0  0  0
 14 15  2  0  0  0  0
 14 29  1  0  0  0  0
 15 30  1  0  0  0  0
 16 24  1  0  0  0  0
 16 28  2  0  0  0  0
 17 25  1  0  0  0  0
 17 26  2  0  0  0  0
 18 30  2  0  0  0  0
 18 31  1  0  0  0  0
 19 32  1  0  0  0  0
 20 32  1  0  0  0  0
 20 33  2  0  0  0  0
 20 34  1  0  0  0  0
 21 23  2  0  0  0  0
 21 39  1  0  0  0  0
 22 24  2  0  0  0  0
 22 40  1  0  0  0  0
 23 48  1  0  0  0  0
 24 41  1  0  0  0  0
 25 57  1  0  0  0  0
 26 58  1  0  0  0  0
 27 82  1  0  0  0  0
 28 83  1  0  0  0  0
 29 31  2  0  0  0  0
 29 82  1  0  0  0  0
 30 85  1  0  0  0  0
 31 86  1  0  0  0  0
 32 66  2  0  0  0  0
 33 67  1  0  0  0  0
 33 70  1  0  0  0  0
 34 71  1  0  0  0  0
 34 77  2  0  0  0  0
 35 49  1  0  0  0  0
 35 72  1  0  0  0  0
 35 78  2  0  0  0  0
 36 62  1  0  0  0  0
 36 68  1  0  0  0  0
 36 79  2  0  0  0  0
 37 63  1  0  0  0  0
 37 73  1  0  0  0  0
 37 80  2  0  0  0  0
 38 69  1  0  0  0  0
 38 74  1  0  0  0  0
 38 81  2  0  0  0  0
 39 42  1  0  0  0  0
 40 49  1  0  0  0  0
 41 68  1  0  0  0  0
 42 44  1  0  0  0  0
 43 45  1  0  0  0  0
 43 46  1  0  0  0  0
 44 48  1  0  0  0  0
 45 50  1  0  0  0  0
 46 69  1  0  0  0  0
 47 50  1  0  0  0  0
 47 69  1  0  0  0  0
 48 72  1  0  0  0  0
 49 68  1  0  0  0  0
 50 67  1  0  0  0  0
 51 63  1  0  0  0  0
 52 64  1  0  0  0  0
 53 65  1  0  0  0  0
 54 65  1  0  0  0  0
 55 65  1  0  0  0  0
 56 75  1  0  0  0  0
 57 74  1  0  0  0  0
 58 76  1  0  0  0  0
 59 60  1  0  0  0  0
 59 83  1  0  0  0  0
 60 84  1  0  0  0  0
 61 64  1  0  0  0  0
 61 84  1  0  0  0  0
 62 65  1  0  0  0  0
 62 73  1  0  0  0  0
 63 75  1  0  0  0  0
 64 76  1  0  0  0  0
 66 67  1  0  0  0  0
M  CHG  2  75   1  76   1
M  ISO  4  38 100  59 101  74 100  83 101
M  END
> <Batch ID>
0112

> <Smiles>
CNC(C)C(=O)NC(C(=O)N1Cc2cc([101O:1][101CH2:1]COCC(C)NCc3cccc(C[100NH:0][100C:0](=O)N4CCCC(n5nc(-c6ccc(Oc7ccc(F)cc7F)cc6)c(C(N)=O)c5N)C4)c3)ccc2CC1C(=O)NC1CCCc2ccccc21)C(C)(C)C

> <Shape>
0.182

> <Color>
0.060

> <Negative vol penalty>
0.000

$$$$

  -OEChem-04052320033D

 83 90  0     1  0  0  0  0  0999 V2000
  -25.4778  -23.7845   17.9132 C   0  0  0  0  0  0  0  0  0  0  0  0
  -26.5970  -22.9596   17.9588 C   0  0  0  0  0  0  0  0  0  0  0  0
  -26.8840  -29.0137   19.6677 C   0  0  0  0  0  0  0  0  0  0  0  0
  -25.9721  -27.0597   20.7575 C   0  0  0  0  0  0  0  0  0  0  0  0
  -24.3890  -23.5270   18.7452 C   0  0  0  0  0  0  0  0  0  0  0  0
  -26.6287  -21.8772   18.8374 C   0  0  0  0  0  0  0  0  0  0  0  0
  -29.2906  -16.4436   17.8907 C   0  0  0  0  0  0  0  0  0  0  0  0
  -25.6055  -29.3718   19.2400 C   0  0  0  0  0  0  0  0  0  0  0  0
  -24.6936  -27.4179   20.3299 C   0  0  0  0  0  0  0  0  0  0  0  0
  -30.5188  -15.9186   18.2901 C   0  0  0  0  0  0  0  0  0  0  0  0
  -22.2841  -29.6037   21.2448 C   0  0  0  0  0  0  0  0  0  0  0  0
  -21.2464  -29.5262   22.1735 C   0  0  0  0  0  0  0  0  0  0  0  0
  -29.4472  -14.8610   20.1748 C   0  0  0  0  0  0  0  0  0  0  0  0
  -20.1027  -27.9328   20.7627 C   0  0  0  0  0  0  0  0  0  0  0  0
  -27.0673  -27.8576   20.4264 C   0  0  0  0  0  0  0  0  0  0  0  0
  -29.0190  -27.8619   22.0691 C   0  0  0  0  0  0  0  0  0  0  0  0
  -24.4034  -22.4352   19.6275 C   0  0  0  0  0  0  0  0  0  0  0  0
  -28.1313  -16.1899   18.6378 C   0  0  0  0  0  0  0  0  0  0  0  0
  -25.5396  -21.6056   19.6830 C   0  0  0  0  0  0  0  0  0  0  0  0
  -28.2050  -15.3819   19.7814 C   0  0  0  0  0  0  0  0  0  0  0  0
  -24.5104  -28.5739   19.5711 C   0  0  0  0  0  0  0  0  0  0  0  0
  -30.5978  -15.1295   19.4338 C   0  0  0  0  0  0  0  0  0  0  0  0
  -22.2312  -28.8458   20.0749 C   0  0  0  0  0  0  0  0  0  0  0  0
  -20.1557  -28.6908   21.9325 C   0  0  0  0  0  0  0  0  0  0  0  0
  -21.1405  -28.0104   19.8339 C   0  0  0  0  0  0  0  0  0  0  0  0
  -28.3878  -27.4868   20.8680 C   0  0  0  0  0  0  0  0  0  0  0  0
  -30.2502  -27.2555   22.0138 C   0  0  0  0  0  0  0  0  0  0  0  0
  -28.5357  -28.6848   23.1391 C   0  0  0  0  0  0  0  0  0  0  0  0
  -26.0538  -17.9886   20.2355 C   0  0  0  0  0  0  0  0  0  0  0  0
  -24.4663  -15.1787   20.5622 C   0  0  0  0  0  0  0  0  0  0  0  0
  -30.1141  -18.0359   22.1101 C   0  0  0  0  0  0  0  0  0  0  0  0
  -24.5931  -11.7687   20.6165 C   0  0  0  0  0  0  0  0  0  0  0  0
  -32.2853  -22.4141   19.1380 C   0  0  0  0  0  0  0  0  0  0  0  0
  -23.2221  -22.2247   20.5412 C   0  0  0  0  0  0  0  0  0  0  0  0
  -26.8094  -16.7416   18.1788 C   0  0  0  0  0  0  0  0  0  0  0  0
  -26.9863  -15.0630   20.6069 C   0  0  0  0  0  0  0  0  0  0  0  0
  -23.1828  -20.8371   21.1762 C   0  0  0  0  0  0  0  0  0  0  0  0
  -33.5394  -25.7371   18.8887 C   0  0  0  0  0  0  0  0  0  0  0  0
  -24.5558  -20.4622   21.7251 C   0  0  0  0  0  0  0  0  0  0  0  0
  -32.4182  -26.5962   19.4761 C   0  0  0  0  0  0  0  0  0  0  0  0
  -32.9877  -24.5511   18.1005 C   0  0  0  0  0  0  0  0  0  0  0  0
  -30.9117  -24.5647   19.4285 C   0  0  0  0  0  0  0  0  0  0  0  0
  -25.6016  -20.4072   20.6049 C   0  0  1  0  0  0  0  0  0  0  0  0
  -25.7819  -16.8431   19.3019 C   0  0  1  0  0  0  0  0  0  0  0  0
  -31.4191  -25.7417   20.2792 C   0  0  2  0  0  0  0  0  0  0  0  0
  -23.1408   -9.7484   20.9431 C   0  0  0  0  0  0  0  0  0  0  0  0
  -32.8105  -20.7850   22.3445 C   0  0  0  0  0  0  0  0  0  0  0  0
  -33.8512  -14.5352   18.5897 C   0  0  0  0  0  0  0  0  0  0  0  0
  -24.4373  -15.6887   23.5704 C   0  0  0  0  0  0  0  0  0  0  0  0
  -23.8593  -13.2756   23.9036 C   0  0  0  0  0  0  0  0  0  0  0  0
  -22.3033  -14.7672   22.6479 C   0  0  0  0  0  0  0  0  0  0  0  0
  -25.1771  -10.7653   17.8942 C   0  0  0  0  0  0  0  0  0  0  0  0
  -33.6963  -15.7425   20.7968 C   0  0  0  0  0  0  0  0  0  0  0  0
  -31.4603  -20.3548   20.2504 C   0  0  0  0  0  0  0  0  0  0  0  0
  -32.8463  -16.5099   21.8056 C   0  0  0  0  0  0  0  0  0  0  0  0
  -24.4772  -14.0557   21.5710 C   0  0  1  0  0  0  0  0  0  0  0  0
  -31.5246  -18.6036   22.1352 C   0  0  2  0  0  0  0  0  0  0  0  0
  -23.7363  -10.7179   19.9339 C   0  0  2  0  0  0  0  0  0  0  0  0
  -31.5605  -20.1055   21.7662 C   0  0  1  0  0  0  0  0  0  0  0  0
  -32.9627  -15.3709   19.5028 C   0  0  2  0  0  0  0  0  0  1  0  0
  -23.7928  -14.4542   22.9089 C   0  0  0  0  0  0  0  0  0  0  0  0
  -29.1546  -26.7030   20.1054 N   0  0  0  0  0  0  0  0  0  0  0  0
  -30.2804  -26.5807   20.8290 N   0  0  0  0  0  0  0  0  0  0  0  0
  -25.7179  -15.6308   20.1207 N   0  0  0  0  0  0  0  0  0  0  0  0
  -32.0481  -23.7812   18.9192 N   0  0  0  0  0  0  0  0  0  0  0  0
  -31.2990  -27.2391   22.8636 N   0  0  0  0  0  0  0  0  0  0  0  0
  -27.2481  -29.2284   23.0347 N   0  0  0  0  0  0  0  0  0  0  0  0
  -29.7269  -17.4957   23.3171 N   0  0  0  0  0  0  0  0  0  0  0  0
  -25.4692  -19.1797   19.8498 N   0  0  0  0  0  0  0  0  0  0  0  0
  -23.8704  -12.9061   20.9086 N   0  0  0  0  0  0  0  0  0  0  0  0
  -31.3496  -21.7605   19.9304 N   0  0  0  0  0  0  0  0  0  0  0  0
  -24.5505   -9.9394   18.9583 N   0  3  0  0  0  0  0  0  0  0  0  0
  -32.4092  -17.8078   21.2398 N   0  3  0  0  0  0  0  0  0  0  0  0
  -29.2315  -28.9442   24.1501 O   0  0  0  0  0  0  0  0  0  0  0  0
  -26.7419  -17.8049   21.2328 O   0  0  0  0  0  0  0  0  0  0  0  0
  -23.3870  -15.6331   20.1747 O   0  0  0  0  0  0  0  0  0  0  0  0
  -29.3956  -18.0534   21.1136 O   0  0  0  0  0  0  0  0  0  0  0  0
  -25.7835  -11.5963   20.8690 O   0  0  0  0  0  0  0  0  0  0  0  0
  -33.2618  -21.8213   18.6668 O   0  0  0  0  0  0  0  0  0  0  0  0
  -23.2627  -28.9232   19.1542 O   0  0  0  0  0  0  0  0  0  0  0  0
  -31.7955  -14.6163   19.8262 O   0  0  0  0  0  0  0  0  0  1  0  0
  -19.1599  -28.6153   22.8252 F   0  0  0  0  0  0  0  0  0  0  0  0
  -21.0846  -27.2789   18.7125 F   0  0  0  0  0  0  0  0  0  0  0  0
  1  2  1  0  0  0  0
  1  5  2  0  0  0  0
  2  6  2  0  0  0  0
  3  8  2  0  0  0  0
  3 15  1  0  0  0  0
  4  9  1  0  0  0  0
  4 15  2  0  0  0  0
  5 17  1  0  0  0  0
  6 19  1  0  0  0  0
  7 10  2  0  0  0  0
  7 18  1  0  0  0  0
  8 21  1  0  0  0  0
  9 21  2  0  0  0  0
 10 22  1  0  0  0  0
 11 12  2  0  0  0  0
 11 23  1  0  0  0  0
 12 24  1  0  0  0  0
 13 20  1  0  0  0  0
 13 22  2  0  0  0  0
 14 24  2  0  0  0  0
 14 25  1  0  0  0  0
 15 26  1  0  0  0  0
 16 26  1  0  0  0  0
 16 27  2  0  0  0  0
 16 28  1  0  0  0  0
 17 19  2  0  0  0  0
 17 34  1  0  0  0  0
 18 20  2  0  0  0  0
 18 35  1  0  0  0  0
 19 43  1  0  0  0  0
 20 36  1  0  0  0  0
 21 80  1  0  0  0  0
 22 81  1  0  0  0  0
 23 25  2  0  0  0  0
 23 80  1  0  0  0  0
 24 82  1  0  0  0  0
 25 83  1  0  0  0  0
 26 62  2  0  0  0  0
 27 63  1  0  0  0  0
 27 66  1  0  0  0  0
 28 67  1  0  0  0  0
 28 74  2  0  0  0  0
 29 44  1  0  0  0  0
 29 69  1  0  0  0  0
 29 75  2  0  0  0  0
 30 56  1  0  0  0  0
 30 64  1  0  0  0  0
 30 76  2  0  0  0  0
 31 57  1  0  0  0  0
 31 68  1  0  0  0  0
 31 77  2  0  0  0  0
 32 58  1  0  0  0  0
 32 70  1  0  0  0  0
 32 78  2  0  0  0  0
 33 65  1  0  0  0  0
 33 71  1  0  0  0  0
 33 79  2  0  0  0  0
 34 37  1  0  0  0  0
 35 44  1  0  0  0  0
 36 64  1  0  0  0  0
 37 39  1  0  0  0  0
 38 40  1  0  0  0  0
 38 41  1  0  0  0  0
 39 43  1  0  0  0  0
 40 45  1  0  0  0  0
 41 65  1  0  0  0  0
 42 45  1  0  0  0  0
 42 65  1  0  0  0  0
 43 69  1  0  0  0  0
 44 64  1  0  0  0  0
 45 63  1  0  0  0  0
 46 58  1  0  0  0  0
 47 59  1  0  0  0  0
 48 60  1  0  0  0  0
 49 61  1  0  0  0  0
 50 61  1  0  0  0  0
 51 61  1  0  0  0  0
 52 72  1  0  0  0  0
 53 55  1  0  0  0  0
 53 60  1  0  0  0  0
 54 59  1  0  0  0  0
 54 71  1  0  0  0  0
 55 73  1  0  0  0  0
 56 61  1  0  0  0  0
 56 70  1  0  0  0  0
 57 59  1  0  0  0  0
 57 73  1  0  0  0  0
 58 72  1  0  0  0  0
 60 81  1  0  0  0  0
 62 63  1  0  0  0  0
M  CHG  2  72   1  73   1
M  ISO  4  33 100  60 101  71 100  81 101
M  END
> <Batch ID>
0112

> <Smiles>
CNC(C)C(=O)NC(C(=O)N1Cc2cc([101O:1][101CH:1](C)CCNC(C(N)=O)C(C)C[100NH:0][100C:0](=O)N3CCCC(n4nc(-c5ccc(Oc6ccc(F)cc6F)cc5)c(C(N)=O)c4N)C3)ccc2CC1C(=O)NC1CCCc2ccccc21)C(C)(C)C

> <Shape>
0.203

> <Color>
0.065

> <Negative vol penalty>
0.000

$$$$

  -OEChem-04052320033D

 82 90  0     1  0  0  0  0  0999 V2000
  -17.0955  -26.6482   22.7099 C   0  0  0  0  0  0  0  0  0  0  0  0
  -18.3572  -26.0621   22.7048 C   0  0  0  0  0  0  0  0  0  0  0  0
  -25.3669  -15.3690   21.5935 C   0  0  0  0  0  0  0  0  0  0  0  0
  -24.1172  -15.6005   19.5388 C   0  0  0  0  0  0  0  0  0  0  0  0
  -16.9377  -27.9640   22.2766 C   0  0  0  0  0  0  0  0  0  0  0  0
  -19.4617  -26.7911   22.2654 C   0  0  0  0  0  0  0  0  0  0  0  0
  -25.1894  -26.4448   24.4052 C   0  0  0  0  0  0  0  0  0  0  0  0
  -26.0404  -14.2703   21.0601 C   0  0  0  0  0  0  0  0  0  0  0  0
  -24.7908  -14.5017   19.0053 C   0  0  0  0  0  0  0  0  0  0  0  0
  -26.3214  -25.7698   23.9505 C   0  0  0  0  0  0  0  0  0  0  0  0
  -28.5959  -13.7154   18.9165 C   0  0  0  0  0  0  0  0  0  0  0  0
  -29.9780  -13.6536   19.0941 C   0  0  0  0  0  0  0  0  0  0  0  0
  -27.0565  -27.7730   22.8253 C   0  0  0  0  0  0  0  0  0  0  0  0
  -29.7317  -11.5654   20.2840 C   0  0  0  0  0  0  0  0  0  0  0  0
  -24.4052  -16.0341   20.8329 C   0  0  0  0  0  0  0  0  0  0  0  0
  -22.9011  -17.1931   22.5364 C   0  0  0  0  0  0  0  0  0  0  0  0
  -18.0423  -28.7127   21.8408 C   0  0  0  0  0  0  0  0  0  0  0  0
  -24.9767  -27.7882   24.0638 C   0  0  0  0  0  0  0  0  0  0  0  0
  -19.3183  -28.1177   21.8246 C   0  0  0  0  0  0  0  0  0  0  0  0
  -25.9223  -28.4635   23.2791 C   0  0  0  0  0  0  0  0  0  0  0  0
  -25.7525  -13.8366   19.7660 C   0  0  0  0  0  0  0  0  0  0  0  0
  -27.2537  -26.4330   23.1581 C   0  0  0  0  0  0  0  0  0  0  0  0
  -27.7817  -12.7022   19.4228 C   0  0  0  0  0  0  0  0  0  0  0  0
  -30.5459  -12.5786   19.7778 C   0  0  0  0  0  0  0  0  0  0  0  0
  -28.3496  -11.6272   20.1065 C   0  0  0  0  0  0  0  0  0  0  0  0
  -23.7086  -17.1689   21.3835 C   0  0  0  0  0  0  0  0  0  0  0  0
  -22.4756  -18.4957   22.6303 C   0  0  0  0  0  0  0  0  0  0  0  0
  -22.5657  -16.1330   23.4416 C   0  0  0  0  0  0  0  0  0  0  0  0
  -28.6678  -22.9169   20.4489 C   0  0  0  0  0  0  0  0  0  0  0  0
  -22.7410  -29.3640   22.4444 C   0  0  0  0  0  0  0  0  0  0  0  0
  -24.3944  -31.9653   23.4554 C   0  0  0  0  0  0  0  0  0  0  0  0
  -27.3515  -33.2754   24.5445 C   0  0  0  0  0  0  0  0  0  0  0  0
  -25.0983  -23.4537   19.8985 C   0  0  0  0  0  0  0  0  0  0  0  0
  -17.8150  -30.1160   21.3371 C   0  0  0  0  0  0  0  0  0  0  0  0
  -23.7639  -28.5097   24.5844 C   0  0  0  0  0  0  0  0  0  0  0  0
  -25.7507  -29.9114   22.9013 C   0  0  0  0  0  0  0  0  0  0  0  0
  -19.0944  -30.9431   21.2402 C   0  0  0  0  0  0  0  0  0  0  0  0
  -32.2395  -24.2234   20.8459 C   0  0  0  0  0  0  0  0  0  0  0  0
  -32.3043  -24.1968   22.3679 C   0  0  0  0  0  0  0  0  0  0  0  0
  -21.6469  -22.2075   19.6266 C   0  0  0  0  0  0  0  0  0  0  0  0
  -20.2007  -30.1381   20.5657 C   0  0  0  0  0  0  0  0  0  0  0  0
  -31.0652  -23.4015   20.3270 C   0  0  0  0  0  0  0  0  0  0  0  0
  -30.9923  -24.6656   22.9887 C   0  0  0  0  0  0  0  0  0  0  0  0
  -21.6274  -20.8572   20.3455 C   0  0  0  0  0  0  0  0  0  0  0  0
  -22.6569  -23.1808   20.2189 C   0  0  0  0  0  0  0  0  0  0  0  0
  -24.1406  -21.1909   20.5504 C   0  0  0  0  0  0  0  0  0  0  0  0
  -20.5445  -28.8842   21.3786 C   0  0  1  0  0  0  0  0  0  0  0  0
  -29.7353  -23.8480   20.9440 C   0  0  2  0  0  0  0  0  0  0  0  0
  -23.3904  -29.7303   23.7489 C   0  0  1  0  0  0  0  0  0  0  0  0
  -29.7903  -23.8506   22.4842 C   0  0  2  0  0  0  0  0  0  0  0  0
  -22.8774  -20.6133   21.2075 C   0  0  2  0  0  0  0  0  0  0  0  0
  -27.9060  -23.4599   18.1320 C   0  0  0  0  0  0  0  0  0  0  0  0
  -28.4042  -35.4395   25.2558 C   0  0  0  0  0  0  0  0  0  0  0  0
  -24.5429  -32.8490   20.5387 C   0  0  0  0  0  0  0  0  0  0  0  0
  -26.3626  -34.4419   21.1866 C   0  0  0  0  0  0  0  0  0  0  0  0
  -24.0817  -34.6921   22.1650 C   0  0  0  0  0  0  0  0  0  0  0  0
  -27.9518  -32.2290   27.2470 C   0  0  0  0  0  0  0  0  0  0  0  0
  -28.5004  -24.4088   23.0947 C   0  0  0  0  0  0  0  0  0  1  0  0
  -27.5626  -23.5354   19.6085 C   0  0  1  0  0  0  0  0  0  0  0  0
  -25.5487  -32.7747   22.9154 C   0  0  1  0  0  0  0  0  0  0  0  0
  -27.6803  -34.1835   25.7156 C   0  0  2  0  0  0  0  0  0  0  0  0
  -25.1365  -33.6616   21.7068 C   0  0  0  0  0  0  0  0  0  0  0  0
  -23.7925  -18.3613   20.7876 N   0  0  0  0  0  0  0  0  0  0  0  0
  -23.0321  -19.1470   21.5690 N   0  0  0  0  0  0  0  0  0  0  0  0
  -24.5455  -30.5717   23.4295 N   0  0  0  0  0  0  0  0  0  0  0  0
  -24.0095  -22.6177   20.2134 N   0  0  0  0  0  0  0  0  0  0  0  0
  -21.6833  -19.1359   23.5162 N   0  0  0  0  0  0  0  0  0  0  0  0
  -21.4227  -15.3660   23.1781 N   0  0  0  0  0  0  0  0  0  0  0  0
  -21.3677  -29.2301   22.5176 N   0  0  0  0  0  0  0  0  0  0  0  0
  -26.0890  -33.5203   24.0470 N   0  0  0  0  0  0  0  0  0  0  0  0
  -26.3410  -22.8265   19.9136 N   0  0  0  0  0  0  0  0  0  0  0  0
  -28.5497  -33.4718   26.6948 N   0  3  0  0  0  0  0  0  0  0  0  0
  -23.2499  -15.8842   24.4631 O   0  0  0  0  0  0  0  0  0  0  0  0
  -28.7232  -21.7093   20.6827 O   0  0  0  0  0  0  0  0  0  0  0  0
  -23.4345  -29.2154   21.4450 O   0  0  0  0  0  0  0  0  0  0  0  0
  -23.3984  -32.5484   23.8908 O   0  0  0  0  0  0  0  0  0  0  0  0
  -28.1375  -32.4355   24.1116 O   0  0  0  0  0  0  0  0  0  0  0  0
  -24.9707  -24.6507   19.6235 O   0  0  0  0  0  0  0  0  0  0  0  0
  -26.4097  -12.7646   19.2450 O   0  0  0  0  0  0  0  0  0  0  0  0
  -28.3591  -25.7763   22.7124 O   0  0  0  0  0  0  0  0  0  1  0  0
  -31.8733  -12.5186   19.9469 F   0  0  0  0  0  0  0  0  0  0  0  0
  -27.5726  -10.6503   20.5941 F   0  0  0  0  0  0  0  0  0  0  0  0
  1  2  1  0  0  0  0
  1  5  2  0  0  0  0
  2  6  2  0  0  0  0
  3  8  2  0  0  0  0
  3 15  1  0  0  0  0
  4  9  1  0  0  0  0
  4 15  2  0  0  0  0
  5 17  1  0  0  0  0
  6 19  1  0  0  0  0
  7 10  2  0  0  0  0
  7 18  1  0  0  0  0
  8 21  1  0  0  0  0
  9 21  2  0  0  0  0
 10 22  1  0  0  0  0
 11 12  2  0  0  0  0
 11 23  1  0  0  0  0
 12 24  1  0  0  0  0
 13 20  1  0  0  0  0
 13 22  2  0  0  0  0
 14 24  2  0  0  0  0
 14 25  1  0  0  0  0
 15 26  1  0  0  0  0
 16 26  1  0  0  0  0
 16 27  2  0  0  0  0
 16 28  1  0  0  0  0
 17 19  2  0  0  0  0
 17 34  1  0  0  0  0
 18 20  2  0  0  0  0
 18 35  1  0  0  0  0
 19 47  1  0  0  0  0
 20 36  1  0  0  0  0
 21 79  1  0  0  0  0
 22 80  1  0  0  0  0
 23 25  2  0  0  0  0
 23 79  1  0  0  0  0
 24 81  1  0  0  0  0
 25 82  1  0  0  0  0
 26 63  2  0  0  0  0
 27 64  1  0  0  0  0
 27 67  1  0  0  0  0
 28 68  1  0  0  0  0
 28 73  2  0  0  0  0
 29 48  1  0  0  0  0
 29 59  1  0  0  0  0
 29 74  2  0  0  0  0
 30 49  1  0  0  0  0
 30 69  1  0  0  0  0
 30 75  2  0  0  0  0
 31 60  1  0  0  0  0
 31 65  1  0  0  0  0
 31 76  2  0  0  0  0
 32 61  1  0  0  0  0
 32 70  1  0  0  0  0
 32 77  2  0  0  0  0
 33 66  1  0  0  0  0
 33 71  1  0  0  0  0
 33 78  2  0  0  0  0
 34 37  1  0  0  0  0
 35 49  1  0  0  0  0
 36 65  1  0  0  0  0
 37 41  1  0  0  0  0
 38 39  1  0  0  0  0
 38 42  1  0  0  0  0
 39 43  1  0  0  0  0
 40 44  1  0  0  0  0
 40 45  1  0  0  0  0
 41 47  1  0  0  0  0
 42 48  1  0  0  0  0
 43 50  1  0  0  0  0
 44 51  1  0  0  0  0
 45 66  1  0  0  0  0
 46 51  1  0  0  0  0
 46 66  1  0  0  0  0
 47 69  1  0  0  0  0
 48 50  1  0  0  0  0
 49 65  1  0  0  0  0
 50 58  1  0  0  0  0
 51 64  1  0  0  0  0
 52 59  1  0  0  0  0
 53 61  1  0  0  0  0
 54 62  1  0  0  0  0
 55 62  1  0  0  0  0
 56 62  1  0  0  0  0
 57 72  1  0  0  0  0
 58 80  1  0  0  0  0
 59 71  1  0  0  0  0
 60 62  1  0  0  0  0
 60 70  1  0  0  0  0
 61 72  1  0  0  0  0
 63 64  1  0  0  0  0
M  CHG  1  72   1
M  ISO  4  33 100  58 101  71 100  80 101
M  END
> <Batch ID>
0112

> <Smiles>
CNC(C)C(=O)NC(C(=O)N1Cc2cc([101O:1][101CH2:1]C3CCCCC3C(=O)C(C)[100NH:0][100C:0](=O)N3CCCC(n4nc(-c5ccc(Oc6ccc(F)cc6F)cc5)c(C(N)=O)c4N)C3)ccc2CC1C(=O)NC1CCCc2ccccc21)C(C)(C)C

> <Shape>
0.214

> <Color>
0.074

> <Negative vol penalty>
0.000

$$$$

  -OEChem-04052320033D

 79 86  0     1  0  0  0  0  0999 V2000
  -17.1386  -31.2313   23.4741 C   0  0  0  0  0  0  0  0  0  0  0  0
  -18.4720  -31.5834   23.2911 C   0  0  0  0  0  0  0  0  0  0  0  0
  -24.3058  -13.7097   21.0494 C   0  0  0  0  0  0  0  0  0  0  0  0
  -26.6850  -13.3761   21.3046 C   0  0  0  0  0  0  0  0  0  0  0  0
  -16.7698  -29.8868   23.4916 C   0  0  0  0  0  0  0  0  0  0  0  0
  -19.4377  -30.5910   23.1266 C   0  0  0  0  0  0  0  0  0  0  0  0
  -25.6188  -29.3238   19.7349 C   0  0  0  0  0  0  0  0  0  0  0  0
  -24.1761  -12.4102   20.5596 C   0  0  0  0  0  0  0  0  0  0  0  0
  -26.5553  -12.0765   20.8148 C   0  0  0  0  0  0  0  0  0  0  0  0
  -26.9186  -28.8894   19.9911 C   0  0  0  0  0  0  0  0  0  0  0  0
  -24.0562   -9.2742   21.8181 C   0  0  0  0  0  0  0  0  0  0  0  0
  -23.0089   -8.4967   22.3123 C   0  0  0  0  0  0  0  0  0  0  0  0
  -26.1539  -26.6018   19.9596 C   0  0  0  0  0  0  0  0  0  0  0  0
  -22.1166   -8.2785   20.0777 C   0  0  0  0  0  0  0  0  0  0  0  0
  -25.5602  -14.1927   21.4219 C   0  0  0  0  0  0  0  0  0  0  0  0
  -25.6094  -15.9508   23.2697 C   0  0  0  0  0  0  0  0  0  0  0  0
  -17.7301  -28.8777   23.3175 C   0  0  0  0  0  0  0  0  0  0  0  0
  -24.5731  -28.3993   19.5997 C   0  0  0  0  0  0  0  0  0  0  0  0
  -19.0816  -29.2317   23.1431 C   0  0  0  0  0  0  0  0  0  0  0  0
  -24.8422  -27.0268   19.6991 C   0  0  0  0  0  0  0  0  0  0  0  0
  -25.3008  -11.5936   20.4423 C   0  0  0  0  0  0  0  0  0  0  0  0
  -27.1858  -27.5284   20.1064 C   0  0  0  0  0  0  0  0  0  0  0  0
  -24.1337   -9.5539   20.4538 C   0  0  0  0  0  0  0  0  0  0  0  0
  -22.0391   -7.9988   21.4421 C   0  0  0  0  0  0  0  0  0  0  0  0
  -23.1639   -9.0561   19.5836 C   0  0  0  0  0  0  0  0  0  0  0  0
  -25.6950  -15.5353   21.9274 C   0  0  0  0  0  0  0  0  0  0  0  0
  -25.8059  -17.3093   23.2218 C   0  0  0  0  0  0  0  0  0  0  0  0
  -25.3735  -15.1778   24.4540 C   0  0  0  0  0  0  0  0  0  0  0  0
  -21.8716  -27.8227   21.1723 C   0  0  0  0  0  0  0  0  0  0  0  0
  -21.3760  -25.7098   18.7614 C   0  0  0  0  0  0  0  0  0  0  0  0
  -22.7116  -23.7352   16.3193 C   0  0  0  0  0  0  0  0  0  0  0  0
  -28.6705  -20.7355   19.3603 C   0  0  0  0  0  0  0  0  0  0  0  0
  -17.2906  -27.4369   23.3911 C   0  0  0  0  0  0  0  0  0  0  0  0
  -23.1813  -28.8827   19.2969 C   0  0  0  0  0  0  0  0  0  0  0  0
  -23.7584  -25.9928   19.5421 C   0  0  0  0  0  0  0  0  0  0  0  0
  -18.3204  -26.4568   22.8350 C   0  0  0  0  0  0  0  0  0  0  0  0
  -25.2030  -21.0808   20.3374 C   0  0  0  0  0  0  0  0  0  0  0  0
  -19.7110  -26.7826   23.3705 C   0  0  0  0  0  0  0  0  0  0  0  0
  -24.9336  -19.7228   20.9880 C   0  0  0  0  0  0  0  0  0  0  0  0
  -26.1218  -20.9415   19.1272 C   0  0  0  0  0  0  0  0  0  0  0  0
  -27.1516  -18.9074   20.0630 C   0  0  0  0  0  0  0  0  0  0  0  0
  -20.1547  -28.1848   22.9364 C   0  0  1  0  0  0  0  0  0  0  0  0
  -22.1016  -27.8785   19.6885 C   0  0  1  0  0  0  0  0  0  0  0  0
  -26.2468  -18.9836   21.3062 C   0  0  2  0  0  0  0  0  0  0  0  0
  -28.6753  -23.6304   22.9175 C   0  0  0  0  0  0  0  0  0  0  0  0
  -22.0589  -22.0946   14.5360 C   0  0  0  0  0  0  0  0  0  0  0  0
  -28.9276  -27.3076   22.7069 C   0  0  0  0  0  0  0  0  0  0  0  0
  -20.9323  -23.5726   20.8935 C   0  0  0  0  0  0  0  0  0  0  0  0
  -21.2332  -21.8357   19.1157 C   0  0  0  0  0  0  0  0  0  0  0  0
  -19.3488  -23.4628   18.9609 C   0  0  0  0  0  0  0  0  0  0  0  0
  -23.8262  -25.4447   14.1758 C   0  0  0  0  0  0  0  0  0  0  0  0
  -29.9462  -24.3834   22.5448 C   0  0  0  0  0  0  0  0  0  0  0  0
  -30.0637  -22.6478   18.6128 C   0  0  0  0  0  0  0  0  0  0  0  0
  -30.4968  -23.4603   19.8188 C   0  0  0  0  0  0  0  0  0  0  0  0
  -21.7101  -24.2561   18.5283 C   0  0  1  0  0  0  0  0  0  0  0  0
  -22.3440  -23.5534   14.8576 C   0  0  2  0  0  0  0  0  0  0  0  0
  -29.7780  -25.3125   21.3326 C   0  0  2  0  0  0  0  0  0  0  0  0
  -28.6611  -26.3488   21.5513 C   0  0  2  0  0  0  0  0  0  1  0  0
  -20.8264  -23.3011   19.3795 C   0  0  0  0  0  0  0  0  0  0  0  0
  -25.9275  -16.5479   21.0880 N   0  0  0  0  0  0  0  0  0  0  0  0
  -25.9897  -17.6131   21.9049 N   0  0  0  0  0  0  0  0  0  0  0  0
  -22.4128  -26.5155   19.2531 N   0  0  0  0  0  0  0  0  0  0  0  0
  -27.3613  -20.2462   19.5019 N   0  0  0  0  0  0  0  0  0  0  0  0
  -25.8376  -18.2617   24.1780 N   0  0  0  0  0  0  0  0  0  0  0  0
  -25.1927  -13.7941   24.3238 N   0  0  0  0  0  0  0  0  0  0  0  0
  -20.5911  -28.1723   21.5566 N   0  0  0  0  0  0  0  0  0  0  0  0
  -21.6089  -24.0398   17.0891 N   0  0  0  0  0  0  0  0  0  0  0  0
  -28.7826  -22.0084   18.8145 N   0  0  0  0  0  0  0  0  0  0  0  0
  -23.4564  -24.0190   13.9820 N   0  3  0  0  0  0  0  0  0  0  0  0
  -29.4704  -24.4878   20.1271 N   0  3  0  0  0  0  0  0  0  0  0  0
  -25.3082  -15.7011   25.5922 O   0  0  0  0  0  0  0  0  0  0  0  0
  -22.7875  -27.4860   21.9134 O   0  0  0  0  0  0  0  0  0  0  0  0
  -20.2392  -26.1169   18.5096 O   0  0  0  0  0  0  0  0  0  0  0  0
  -23.8612  -23.6151   16.7369 O   0  0  0  0  0  0  0  0  0  0  0  0
  -29.6664  -20.0877   19.7004 O   0  0  0  0  0  0  0  0  0  0  0  0
  -25.1746  -10.3253   19.9646 O   0  0  0  0  0  0  0  0  0  0  0  0
  -28.4535  -27.1018   20.3571 O   0  0  0  0  0  0  0  0  0  1  0  0
  -21.0343   -7.2509   21.9166 F   0  0  0  0  0  0  0  0  0  0  0  0
  -23.2337   -9.3205   18.2717 F   0  0  0  0  0  0  0  0  0  0  0  0
  1  2  1  0  0  0  0
  1  5  2  0  0  0  0
  2  6  2  0  0  0  0
  3  8  2  0  0  0  0
  3 15  1  0  0  0  0
  4  9  1  0  0  0  0
  4 15  2  0  0  0  0
  5 17  1  0  0  0  0
  6 19  1  0  0  0  0
  7 10  2  0  0  0  0
  7 18  1  0  0  0  0
  8 21  1  0  0  0  0
  9 21  2  0  0  0  0
 10 22  1  0  0  0  0
 11 12  2  0  0  0  0
 11 23  1  0  0  0  0
 12 24  1  0  0  0  0
 13 20  1  0  0  0  0
 13 22  2  0  0  0  0
 14 24  2  0  0  0  0
 14 25  1  0  0  0  0
 15 26  1  0  0  0  0
 16 26  1  0  0  0  0
 16 27  2  0  0  0  0
 16 28  1  0  0  0  0
 17 19  2  0  0  0  0
 17 33  1  0  0  0  0
 18 20  2  0  0  0  0
 18 34  1  0  0  0  0
 19 42  1  0  0  0  0
 20 35  1  0  0  0  0
 21 76  1  0  0  0  0
 22 77  1  0  0  0  0
 23 25  2  0  0  0  0
 23 76  1  0  0  0  0
 24 78  1  0  0  0  0
 25 79  1  0  0  0  0
 26 60  2  0  0  0  0
 27 61  1  0  0  0  0
 27 64  1  0  0  0  0
 28 65  1  0  0  0  0
 28 71  2  0  0  0  0
 29 43  1  0  0  0  0
 29 66  1  0  0  0  0
 29 72  2  0  0  0  0
 30 55  1  0  0  0  0
 30 62  1  0  0  0  0
 30 73  2  0  0  0  0
 31 56  1  0  0  0  0
 31 67  1  0  0  0  0
 31 74  2  0  0  0  0
 32 63  1  0  0  0  0
 32 68  1  0  0  0  0
 32 75  2  0  0  0  0
 33 36  1  0  0  0  0
 34 43  1  0  0  0  0
 35 62  1  0  0  0  0
 36 38  1  0  0  0  0
 37 39  1  0  0  0  0
 37 40  1  0  0  0  0
 38 42  1  0  0  0  0
 39 44  1  0  0  0  0
 40 63  1  0  0  0  0
 41 44  1  0  0  0  0
 41 63  1  0  0  0  0
 42 66  1  0  0  0  0
 43 62  1  0  0  0  0
 44 61  1  0  0  0  0
 45 52  1  0  0  0  0
 46 56  1  0  0  0  0
 47 58  1  0  0  0  0
 48 59  1  0  0  0  0
 49 59  1  0  0  0  0
 50 59  1  0  0  0  0
 51 69  1  0  0  0  0
 52 57  1  0  0  0  0
 53 54  1  0  0  0  0
 53 68  1  0  0  0  0
 54 70  1  0  0  0  0
 55 59  1  0  0  0  0
 55 67  1  0  0  0  0
 56 69  1  0  0  0  0
 57 58  1  0  0  0  0
 57 70  1  0  0  0  0
 58 77  1  0  0  0  0
 60 61  1  0  0  0  0
M  CHG  2  69   1  70   1
M  ISO  4  32 100  58 101  68 100  77 101
M  END
> <Batch ID>
0112

> <Smiles>
CCC(NCC[100NH:0][100C:0](=O)N1CCCC(n2nc(-c3ccc(Oc4ccc(F)cc4F)cc3)c(C(N)=O)c2N)C1)[101CH:1](C)[101O:1]c1ccc2c(c1)CN(C(=O)C(NC(=O)C(C)NC)C(C)(C)C)C(C(=O)NC1CCCc3ccccc31)C2

> <Shape>
0.230

> <Color>
0.101

> <Negative vol penalty>
0.000

$$$$

  -OEChem-04052320033D

 83 92  0     1  0  0  0  0  0999 V2000
  -18.4849  -27.6057   22.9676 C   0  0  0  0  0  0  0  0  0  0  0  0
  -19.2583  -26.8617   22.0823 C   0  0  0  0  0  0  0  0  0  0  0  0
  -23.1062   -9.9125   19.8732 C   0  0  0  0  0  0  0  0  0  0  0  0
  -24.3432   -9.5973   21.9244 C   0  0  0  0  0  0  0  0  0  0  0  0
  -18.7508  -28.9616   23.1541 C   0  0  0  0  0  0  0  0  0  0  0  0
  -20.2975  -27.4735   21.3821 C   0  0  0  0  0  0  0  0  0  0  0  0
  -24.5304  -24.6938   21.3667 C   0  0  0  0  0  0  0  0  0  0  0  0
  -22.5151   -8.6598   20.0371 C   0  0  0  0  0  0  0  0  0  0  0  0
  -23.7520   -8.3446   22.0883 C   0  0  0  0  0  0  0  0  0  0  0  0
  -24.5807  -23.6153   20.4846 C   0  0  0  0  0  0  0  0  0  0  0  0
  -20.7940   -7.1087   23.1573 C   0  0  0  0  0  0  0  0  0  0  0  0
  -20.3136   -6.7813   24.4253 C   0  0  0  0  0  0  0  0  0  0  0  0
  -25.8860  -24.9403   18.9484 C   0  0  0  0  0  0  0  0  0  0  0  0
  -21.8150   -4.8902   24.5059 C   0  0  0  0  0  0  0  0  0  0  0  0
  -24.0203  -10.3813   20.8168 C   0  0  0  0  0  0  0  0  0  0  0  0
  -24.1539  -12.9100   21.1258 C   0  0  0  0  0  0  0  0  0  0  0  0
  -19.7999  -29.5881   22.4631 C   0  0  0  0  0  0  0  0  0  0  0  0
  -25.1493  -25.9092   21.0409 C   0  0  0  0  0  0  0  0  0  0  0  0
  -20.5768  -28.8394   21.5585 C   0  0  0  0  0  0  0  0  0  0  0  0
  -25.8443  -26.0319   19.8292 C   0  0  0  0  0  0  0  0  0  0  0  0
  -22.8380   -7.8758   21.1447 C   0  0  0  0  0  0  0  0  0  0  0  0
  -25.2561  -23.7393   19.2740 C   0  0  0  0  0  0  0  0  0  0  0  0
  -21.7848   -6.3267   22.5636 C   0  0  0  0  0  0  0  0  0  0  0  0
  -20.8241   -5.6721   25.0996 C   0  0  0  0  0  0  0  0  0  0  0  0
  -22.2954   -5.2175   23.2379 C   0  0  0  0  0  0  0  0  0  0  0  0
  -24.6316  -11.6750   20.6478 C   0  0  0  0  0  0  0  0  0  0  0  0
  -25.0873  -13.8254   20.7047 C   0  0  0  0  0  0  0  0  0  0  0  0
  -23.7576  -20.1390   16.9200 C   0  0  0  0  0  0  0  0  0  0  0  0
  -23.9125  -19.1445   15.8983 C   0  0  0  0  0  0  0  0  0  0  0  0
  -24.7639  -20.4654   17.7395 C   0  0  0  0  0  0  0  0  0  0  0  0
  -25.0769  -18.4943   15.7177 C   0  0  0  0  0  0  0  0  0  0  0  0
  -26.0822  -19.7675   17.5767 C   0  0  0  0  0  0  0  0  0  0  0  0
  -22.9723  -13.2034   21.8830 C   0  0  0  0  0  0  0  0  0  0  0  0
  -24.1399  -28.8880   20.5813 C   0  0  0  0  0  0  0  0  0  0  0  0
  -27.3155  -29.5189   20.3810 C   0  0  0  0  0  0  0  0  0  0  0  0
  -30.4630  -28.3678   19.7369 C   0  0  0  0  0  0  0  0  0  0  0  0
  -28.4543  -15.8934   16.7784 C   0  0  0  0  0  0  0  0  0  0  0  0
  -20.0192  -31.0670   22.6621 C   0  0  0  0  0  0  0  0  0  0  0  0
  -25.1087  -27.0545   22.0150 C   0  0  0  0  0  0  0  0  0  0  0  0
  -26.5425  -27.3087   19.4413 C   0  0  0  0  0  0  0  0  0  0  0  0
  -21.3771  -31.5540   22.1629 C   0  0  0  0  0  0  0  0  0  0  0  0
  -29.6775  -13.1573   18.6835 C   0  0  0  0  0  0  0  0  0  0  0  0
  -21.6678  -30.9936   20.7743 C   0  0  0  0  0  0  0  0  0  0  0  0
  -24.3445  -17.5446   13.4670 C   0  0  0  0  0  0  0  0  0  0  0  0
  -25.7992  -17.8907   13.3480 C   0  0  0  0  0  0  0  0  0  0  0  0
  -28.4354  -12.6275   19.4026 C   0  0  0  0  0  0  0  0  0  0  0  0
  -29.3503  -13.6371   17.2710 C   0  0  0  0  0  0  0  0  0  0  0  0
  -27.0138  -14.0899   17.9064 C   0  0  0  0  0  0  0  0  0  0  0  0
  -21.7286  -29.4615   20.7993 C   0  0  1  0  0  0  0  0  0  0  0  0
  -25.2347  -17.4621   14.6573 C   0  0  0  0  0  0  0  0  0  0  0  0
  -25.3370  -28.4101   21.3534 C   0  0  1  0  0  0  0  0  0  0  0  0
  -27.2812  -13.6471   19.3550 C   0  0  1  0  0  0  0  0  0  0  0  0
  -32.8519  -29.1269   19.6168 C   0  0  0  0  0  0  0  0  0  0  0  0
  -26.7532  -30.8558   17.6965 C   0  0  0  0  0  0  0  0  0  0  0  0
  -29.2045  -30.7349   17.2017 C   0  0  0  0  0  0  0  0  0  0  0  0
  -28.3905  -32.0711   19.1445 C   0  0  0  0  0  0  0  0  0  0  0  0
  -31.2845  -26.5043   21.8843 C   0  0  0  0  0  0  0  0  0  0  0  0
  -24.6448  -21.4884   18.8096 C   0  0  0  0  0  0  0  0  0  1  0  0
  -27.4075  -18.1156   16.3700 C   0  0  0  0  0  0  0  0  0  0  0  0
  -28.3317  -29.5465   19.2649 C   0  0  1  0  0  0  0  0  0  0  0  0
  -31.7679  -28.5242   20.4968 C   0  0  2  0  0  0  0  0  0  0  0  0
  -28.1553  -30.7785   18.3331 C   0  0  0  0  0  0  0  0  0  0  0  0
  -25.7791  -11.7918   19.9743 N   0  0  0  0  0  0  0  0  0  0  0  0
  -26.0303  -13.1110   20.0261 N   0  0  0  0  0  0  0  0  0  0  0  0
  -26.1630  -18.8031   16.5546 N   0  0  0  0  0  0  0  0  0  0  0  0
  -26.4689  -28.4021   20.4245 N   0  0  0  0  0  0  0  0  0  0  0  0
  -28.2513  -14.6051   17.3003 N   0  0  0  0  0  0  0  0  0  0  0  0
  -25.1850  -15.1637   20.8522 N   0  0  0  0  0  0  0  0  0  0  0  0
  -22.1224  -12.1450   22.2320 N   0  0  0  0  0  0  0  0  0  0  0  0
  -22.9935  -29.0148   21.3423 N   0  0  0  0  0  0  0  0  0  0  0  0
  -29.6410  -29.4624   19.9029 N   0  0  0  0  0  0  0  0  0  0  0  0
  -27.3632  -16.7514   16.8539 N   0  0  0  0  0  0  0  0  0  0  0  0
  -32.2433  -27.1998   20.9876 N   0  3  0  0  0  0  0  0  0  0  0  0
  -27.0107  -20.0658   18.3295 O   0  0  0  0  0  0  0  0  0  0  0  0
  -22.6703  -14.3718   22.2254 O   0  0  0  0  0  0  0  0  0  0  0  0
  -24.2487  -29.1258   19.3841 O   0  0  0  0  0  0  0  0  0  0  0  0
  -27.2790  -30.4505   21.1888 O   0  0  0  0  0  0  0  0  0  0  0  0
  -30.2009  -27.3758   19.0605 O   0  0  0  0  0  0  0  0  0  0  0  0
  -29.5303  -16.2535   16.2893 O   0  0  0  0  0  0  0  0  0  0  0  0
  -22.2612   -6.6535   21.3050 O   0  0  0  0  0  0  0  0  0  0  0  0
  -25.3061  -22.6884   18.4109 O   0  0  0  0  0  0  0  0  0  1  0  0
  -20.3639   -5.3588   26.3178 F   0  0  0  0  0  0  0  0  0  0  0  0
  -23.2482   -4.4633   22.6731 F   0  0  0  0  0  0  0  0  0  0  0  0
  1  2  1  0  0  0  0
  1  5  2  0  0  0  0
  2  6  2  0  0  0  0
  3  8  2  0  0  0  0
  3 15  1  0  0  0  0
  4  9  1  0  0  0  0
  4 15  2  0  0  0  0
  5 17  1  0  0  0  0
  6 19  1  0  0  0  0
  7 10  2  0  0  0  0
  7 18  1  0  0  0  0
  8 21  1  0  0  0  0
  9 21  2  0  0  0  0
 10 22  1  0  0  0  0
 11 12  2  0  0  0  0
 11 23  1  0  0  0  0
 12 24  1  0  0  0  0
 13 20  1  0  0  0  0
 13 22  2  0  0  0  0
 14 24  2  0  0  0  0
 14 25  1  0  0  0  0
 15 26  1  0  0  0  0
 16 26  1  0  0  0  0
 16 27  2  0  0  0  0
 16 33  1  0  0  0  0
 17 19  2  0  0  0  0
 17 38  1  0  0  0  0
 18 20  2  0  0  0  0
 18 39  1  0  0  0  0
 19 49  1  0  0  0  0
 20 40  1  0  0  0  0
 21 80  1  0  0  0  0
 22 81  1  0  0  0  0
 23 25  2  0  0  0  0
 23 80  1  0  0  0  0
 24 82  1  0  0  0  0
 25 83  1  0  0  0  0
 26 63  2  0  0  0  0
 27 64  1  0  0  0  0
 27 68  1  0  0  0  0
 28 29  1  0  0  0  0
 28 30  2  0  0  0  0
 29 31  2  0  0  0  0
 30 32  1  0  0  0  0
 30 58  1  0  0  0  0
 31 50  1  0  0  0  0
 31 65  1  0  0  0  0
 32 65  1  0  0  0  0
 32 74  2  0  0  0  0
 33 69  1  0  0  0  0
 33 75  2  0  0  0  0
 34 51  1  0  0  0  0
 34 70  1  0  0  0  0
 34 76  2  0  0  0  0
 35 60  1  0  0  0  0
 35 66  1  0  0  0  0
 35 77  2  0  0  0  0
 36 61  1  0  0  0  0
 36 71  1  0  0  0  0
 36 78  2  0  0  0  0
 37 67  1  0  0  0  0
 37 72  1  0  0  0  0
 37 79  2  0  0  0  0
 38 41  1  0  0  0  0
 39 51  1  0  0  0  0
 40 66  1  0  0  0  0
 41 43  1  0  0  0  0
 42 46  1  0  0  0  0
 42 47  1  0  0  0  0
 43 49  1  0  0  0  0
 44 45  1  0  0  0  0
 44 50  1  0  0  0  0
 45 50  1  0  0  0  0
 46 52  1  0  0  0  0
 47 67  1  0  0  0  0
 48 52  1  0  0  0  0
 48 67  1  0  0  0  0
 49 70  1  0  0  0  0
 51 66  1  0  0  0  0
 52 64  1  0  0  0  0
 53 61  1  0  0  0  0
 54 62  1  0  0  0  0
 55 62  1  0  0  0  0
 56 62  1  0  0  0  0
 57 73  1  0  0  0  0
 58 81  1  0  0  0  0
 59 65  1  0  0  0  0
 59 72  1  0  0  0  0
 60 62  1  0  0  0  0
 60 71  1  0  0  0  0
 61 73  1  0  0  0  0
 63 64  1  0  0  0  0
M  CHG  1  73   1
M  ISO  4  37 100  58 101  72 100  81 101
M  END
> <Batch ID>
0112

> <Smiles>
CNC(C)C(=O)NC(C(=O)N1Cc2cc([101O:1][101CH2:1]c3ccc(C4CC4)n(C[100NH:0][100C:0](=O)N4CCCC(n5nc(-c6ccc(Oc7ccc(F)cc7F)cc6)c(C(N)=O)c5N)C4)c3=O)ccc2CC1C(=O)NC1CCCc2ccccc21)C(C)(C)C

> <Shape>
0.263

> <Color>
0.141

> <Negative vol penalty>
0.000

$$$$

  -OEChem-04052320033D

 84 92  0     1  0  0  0  0  0999 V2000
  -34.0340  -21.5559   33.5272 C   0  0  0  0  0  0  0  0  0  0  0  0
  -32.9606  -21.2849   32.6846 C   0  0  0  0  0  0  0  0  0  0  0  0
  -23.0761   -9.8660   19.9431 C   0  0  0  0  0  0  0  0  0  0  0  0
  -23.8391   -9.8757   22.2355 C   0  0  0  0  0  0  0  0  0  0  0  0
  -34.6934  -22.7814   33.4422 C   0  0  0  0  0  0  0  0  0  0  0  0
  -32.5453  -22.2398   31.7572 C   0  0  0  0  0  0  0  0  0  0  0  0
  -31.6444  -20.2484   27.1891 C   0  0  0  0  0  0  0  0  0  0  0  0
  -22.3342   -8.7120   20.1949 C   0  0  0  0  0  0  0  0  0  0  0  0
  -23.0971   -8.7217   22.4873 C   0  0  0  0  0  0  0  0  0  0  0  0
  -30.4396  -19.5682   27.0174 C   0  0  0  0  0  0  0  0  0  0  0  0
  -21.1178   -5.9828   23.8286 C   0  0  0  0  0  0  0  0  0  0  0  0
  -20.3632   -5.9390   25.0008 C   0  0  0  0  0  0  0  0  0  0  0  0
  -29.5003  -21.5146   25.9457 C   0  0  0  0  0  0  0  0  0  0  0  0
  -28.2745  -19.7029   21.5417 C   0  0  0  0  0  0  0  0  0  0  0  0
  -19.1149   -7.8740   24.2695 C   0  0  0  0  0  0  0  0  0  0  0  0
  -30.5884  -18.8277   20.3329 C   0  0  0  0  0  0  0  0  0  0  0  0
  -23.8286  -10.4479   20.9634 C   0  0  0  0  0  0  0  0  0  0  0  0
  -24.1667  -12.9734   20.8411 C   0  0  0  0  0  0  0  0  0  0  0  0
  -34.2921  -23.7481   32.5067 C   0  0  0  0  0  0  0  0  0  0  0  0
  -31.7830  -21.5728   26.7494 C   0  0  0  0  0  0  0  0  0  0  0  0
  -33.1991  -23.4800   31.6605 C   0  0  0  0  0  0  0  0  0  0  0  0
  -30.7088  -22.2086   26.1107 C   0  0  0  0  0  0  0  0  0  0  0  0
  -30.0840  -18.1178   21.4132 C   0  0  0  0  0  0  0  0  0  0  0  0
  -28.9143  -18.5639   22.0210 C   0  0  0  0  0  0  0  0  0  0  0  0
  -22.3447   -8.1399   21.4670 C   0  0  0  0  0  0  0  0  0  0  0  0
  -29.3664  -20.2022   26.3983 C   0  0  0  0  0  0  0  0  0  0  0  0
  -20.8711   -6.9722   22.8768 C   0  0  0  0  0  0  0  0  0  0  0  0
  -19.3617   -6.8846   25.2213 C   0  0  0  0  0  0  0  0  0  0  0  0
  -19.8696   -7.9178   23.0972 C   0  0  0  0  0  0  0  0  0  0  0  0
  -24.5956  -11.6397   20.7038 C   0  0  0  0  0  0  0  0  0  0  0  0
  -28.8247  -20.3727   20.4582 C   0  0  0  0  0  0  0  0  0  0  0  0
  -25.2573  -13.7242   20.4758 C   0  0  0  0  0  0  0  0  0  0  0  0
  -22.8960  -13.4877   21.2613 C   0  0  0  0  0  0  0  0  0  0  0  0
  -32.3826  -24.3550   28.1647 C   0  0  0  0  0  0  0  0  0  0  0  0
  -32.4897  -25.4421   25.1104 C   0  0  0  0  0  0  0  0  0  0  0  0
  -31.5517  -25.0324   21.8548 C   0  0  0  0  0  0  0  0  0  0  0  0
  -30.7398  -14.7511   20.6561 C   0  0  0  0  0  0  0  0  0  0  0  0
  -35.0055  -25.0766   32.4842 C   0  0  0  0  0  0  0  0  0  0  0  0
  -33.0977  -22.2837   26.9181 C   0  0  0  0  0  0  0  0  0  0  0  0
  -30.8127  -23.6225   25.6025 C   0  0  0  0  0  0  0  0  0  0  0  0
  -34.7413  -25.8885   31.2187 C   0  0  0  0  0  0  0  0  0  0  0  0
  -29.6024  -12.3633   18.2726 C   0  0  0  0  0  0  0  0  0  0  0  0
  -33.2512  -25.8994   30.8929 C   0  0  0  0  0  0  0  0  0  0  0  0
  -28.1660  -12.0678   18.7077 C   0  0  0  0  0  0  0  0  0  0  0  0
  -30.5208  -12.5863   19.4721 C   0  0  0  0  0  0  0  0  0  0  0  0
  -28.6199  -13.3157   20.8607 C   0  0  0  0  0  0  0  0  0  0  0  0
  -32.7347  -24.4807   30.6246 C   0  0  1  0  0  0  0  0  0  0  0  0
  -32.9629  -23.8031   26.8934 C   0  0  1  0  0  0  0  0  0  0  0  0
  -27.6444  -13.1388   19.6845 C   0  0  2  0  0  0  0  0  0  0  0  0
  -28.2030  -21.5951   19.8877 C   0  0  0  0  0  0  0  0  0  0  0  0
  -31.7614  -26.1027   19.5947 C   0  0  0  0  0  0  0  0  0  0  0  0
  -25.9615  -17.8691   22.9412 C   0  0  0  0  0  0  0  0  0  0  0  0
  -30.4386  -27.5505   25.9212 C   0  0  0  0  0  0  0  0  0  0  0  0
  -29.9884  -27.9469   23.4905 C   0  0  0  0  0  0  0  0  0  0  0  0
  -32.2591  -28.3874   24.4246 C   0  0  0  0  0  0  0  0  0  0  0  0
  -32.9202  -22.6613   20.7305 C   0  0  0  0  0  0  0  0  0  0  0  0
  -30.8043  -16.9027   21.8914 C   0  0  0  0  0  0  0  0  0  0  0  0
  -27.1068  -17.6750   25.1763 C   0  0  0  0  0  0  0  0  0  0  0  0
  -28.2568  -18.1242   26.0722 C   0  0  0  0  0  0  0  0  0  1  0  0
  -31.4786  -25.9998   24.1380 C   0  0  1  0  0  0  0  0  0  0  0  0
  -32.3470  -25.0866   20.5629 C   0  0  2  0  0  0  0  0  0  0  0  0
  -27.1627  -18.2980   23.7779 C   0  0  1  0  0  0  0  0  0  0  0  0
  -31.0383  -27.4452   24.5048 C   0  0  0  0  0  0  0  0  0  0  0  0
  -25.8601  -11.5453   20.2839 N   0  0  0  0  0  0  0  0  0  0  0  0
  -26.2350  -12.8293   20.1541 N   0  0  0  0  0  0  0  0  0  0  0  0
  -29.9521  -19.9214   19.8917 N   0  3  0  0  0  0  0  0  0  0  0  0
  -32.1168  -24.2777   25.7965 N   0  0  0  0  0  0  0  0  0  0  0  0
  -29.9700  -13.6147   20.3581 N   0  0  0  0  0  0  0  0  0  0  0  0
  -25.4657  -15.0559   20.4015 N   0  0  0  0  0  0  0  0  0  0  0  0
  -21.8858  -12.5774   21.6006 N   0  0  0  0  0  0  0  0  0  0  0  0
  -28.3751  -17.8877   23.1007 N   0  0  0  0  0  0  0  0  0  0  0  0
  -33.1133  -24.0477   29.2966 N   0  0  0  0  0  0  0  0  0  0  0  0
  -32.0751  -25.8751   22.8125 N   0  0  0  0  0  0  0  0  0  0  0  0
  -30.1405  -15.6797   21.4983 N   0  0  0  0  0  0  0  0  0  0  0  0
  -32.3490  -23.7522   19.8994 N   0  3  0  0  0  0  0  0  0  0  0  0
  -22.6581  -14.7181   21.3181 O   0  0  0  0  0  0  0  0  0  0  0  0
  -31.3494  -25.0124   28.1218 O   0  0  0  0  0  0  0  0  0  0  0  0
  -33.5735  -26.0144   25.2505 O   0  0  0  0  0  0  0  0  0  0  0  0
  -30.5627  -24.3171   21.9986 O   0  0  0  0  0  0  0  0  0  0  0  0
  -31.8749  -14.9279   20.2009 O   0  0  0  0  0  0  0  0  0  0  0  0
  -21.6207   -7.0139   21.7131 O   0  0  0  0  0  0  0  0  0  0  0  0
  -28.1891  -19.5408   26.2300 O   0  0  0  0  0  0  0  0  0  1  0  0
  -18.6361   -6.8414   26.3463 F   0  0  0  0  0  0  0  0  0  0  0  0
  -19.6272   -8.8700   22.1860 F   0  0  0  0  0  0  0  0  0  0  0  0
  1  2  1  0  0  0  0
  1  5  2  0  0  0  0
  2  6  2  0  0  0  0
  3  8  2  0  0  0  0
  3 17  1  0  0  0  0
  4  9  1  0  0  0  0
  4 17  2  0  0  0  0
  5 19  1  0  0  0  0
  6 21  1  0  0  0  0
  7 10  2  0  0  0  0
  7 20  1  0  0  0  0
  8 25  1  0  0  0  0
  9 25  2  0  0  0  0
 10 26  1  0  0  0  0
 11 12  2  0  0  0  0
 11 27  1  0  0  0  0
 12 28  1  0  0  0  0
 13 22  1  0  0  0  0
 13 26  2  0  0  0  0
 14 24  1  0  0  0  0
 14 31  2  0  0  0  0
 15 28  2  0  0  0  0
 15 29  1  0  0  0  0
 16 23  1  0  0  0  0
 16 66  2  0  0  0  0
 17 30  1  0  0  0  0
 18 30  1  0  0  0  0
 18 32  2  0  0  0  0
 18 33  1  0  0  0  0
 19 21  2  0  0  0  0
 19 38  1  0  0  0  0
 20 22  2  0  0  0  0
 20 39  1  0  0  0  0
 21 47  1  0  0  0  0
 22 40  1  0  0  0  0
 23 24  2  0  0  0  0
 23 57  1  0  0  0  0
 24 71  1  0  0  0  0
 25 81  1  0  0  0  0
 26 82  1  0  0  0  0
 27 29  2  0  0  0  0
 27 81  1  0  0  0  0
 28 83  1  0  0  0  0
 29 84  1  0  0  0  0
 30 64  2  0  0  0  0
 31 50  1  0  0  0  0
 31 66  1  0  0  0  0
 32 65  1  0  0  0  0
 32 69  1  0  0  0  0
 33 70  1  0  0  0  0
 33 76  2  0  0  0  0
 34 48  1  0  0  0  0
 34 72  1  0  0  0  0
 34 77  2  0  0  0  0
 35 60  1  0  0  0  0
 35 67  1  0  0  0  0
 35 78  2  0  0  0  0
 36 61  1  0  0  0  0
 36 73  1  0  0  0  0
 36 79  2  0  0  0  0
 37 68  1  0  0  0  0
 37 74  1  0  0  0  0
 37 80  2  0  0  0  0
 38 41  1  0  0  0  0
 39 48  1  0  0  0  0
 40 67  1  0  0  0  0
 41 43  1  0  0  0  0
 42 44  1  0  0  0  0
 42 45  1  0  0  0  0
 43 47  1  0  0  0  0
 44 49  1  0  0  0  0
 45 68  1  0  0  0  0
 46 49  1  0  0  0  0
 46 68  1  0  0  0  0
 47 72  1  0  0  0  0
 48 67  1  0  0  0  0
 49 65  1  0  0  0  0
 51 61  1  0  0  0  0
 52 62  1  0  0  0  0
 53 63  1  0  0  0  0
 54 63  1  0  0  0  0
 55 63  1  0  0  0  0
 56 75  1  0  0  0  0
 57 74  1  0  0  0  0
 58 59  1  0  0  0  0
 58 62  1  0  0  0  0
 59 82  1  0  0  0  0
 60 63  1  0  0  0  0
 60 73  1  0  0  0  0
 61 75  1  0  0  0  0
 62 71  1  0  0  0  0
 64 65  1  0  0  0  0
M  CHG  2  66   1  75   1
M  ISO  4  37 100  59 101  74 100  82 101
M  END
> <Batch ID>
0112

> <Smiles>
CNC(C)C(=O)NC(C(=O)N1Cc2cc([101O:1][101CH2:1]CC(C)Nc3cc(C)ncc3C[100NH:0][100C:0](=O)N3CCCC(n4nc(-c5ccc(Oc6ccc(F)cc6F)cc5)c(C(N)=O)c4N)C3)ccc2CC1C(=O)NC1CCCc2ccccc21)C(C)(C)C

> <Shape>
0.200

> <Color>
0.191

> <Negative vol penalty>
0.000

$$$$

  -OEChem-04052320033D

 86 94  0     1  0  0  0  0  0999 V2000
  -25.7863  -32.1926   22.7029 C   0  0  0  0  0  0  0  0  0  0  0  0
  -26.6176  -31.3065   22.0251 C   0  0  0  0  0  0  0  0  0  0  0  0
  -23.0684   -9.9634   19.8832 C   0  0  0  0  0  0  0  0  0  0  0  0
  -23.8673   -9.8518   22.1606 C   0  0  0  0  0  0  0  0  0  0  0  0
  -25.9875  -32.4351   24.0610 C   0  0  0  0  0  0  0  0  0  0  0  0
  -27.6511  -30.6631   22.7050 C   0  0  0  0  0  0  0  0  0  0  0  0
  -27.9310  -25.7299   21.5960 C   0  0  0  0  0  0  0  0  0  0  0  0
  -22.3220   -8.8031   20.0882 C   0  0  0  0  0  0  0  0  0  0  0  0
  -23.1209   -8.6914   22.3655 C   0  0  0  0  0  0  0  0  0  0  0  0
  -28.5229  -25.3827   20.3824 C   0  0  0  0  0  0  0  0  0  0  0  0
  -19.8988   -7.8810   22.9834 C   0  0  0  0  0  0  0  0  0  0  0  0
  -19.1617   -7.7865   24.1638 C   0  0  0  0  0  0  0  0  0  0  0  0
  -30.5744  -24.8608   21.5392 C   0  0  0  0  0  0  0  0  0  0  0  0
  -29.3777  -18.6783   21.2537 C   0  0  0  0  0  0  0  0  0  0  0  0
  -20.4038   -5.8083   24.7809 C   0  0  0  0  0  0  0  0  0  0  0  0
  -31.5393  -18.4719   20.2834 C   0  0  0  0  0  0  0  0  0  0  0  0
  -23.8411  -10.4878   20.9194 C   0  0  0  0  0  0  0  0  0  0  0  0
  -24.1960  -13.0140   20.9197 C   0  0  0  0  0  0  0  0  0  0  0  0
  -27.0180  -31.7871   24.7601 C   0  0  0  0  0  0  0  0  0  0  0  0
  -28.6610  -25.6555   22.7910 C   0  0  0  0  0  0  0  0  0  0  0  0
  -27.8671  -30.8982   24.0735 C   0  0  0  0  0  0  0  0  0  0  0  0
  -29.9887  -25.2052   22.7670 C   0  0  0  0  0  0  0  0  0  0  0  0
  -30.5962  -18.0118   21.1882 C   0  0  0  0  0  0  0  0  0  0  0  0
  -29.1428  -19.7692   20.4241 C   0  0  0  0  0  0  0  0  0  0  0  0
  -22.3482   -8.1671   21.3293 C   0  0  0  0  0  0  0  0  0  0  0  0
  -29.8457  -24.9508   20.3535 C   0  0  0  0  0  0  0  0  0  0  0  0
  -20.8884   -6.9392   22.7017 C   0  0  0  0  0  0  0  0  0  0  0  0
  -19.4142   -6.7501   25.0626 C   0  0  0  0  0  0  0  0  0  0  0  0
  -21.1409   -5.9028   23.6005 C   0  0  0  0  0  0  0  0  0  0  0  0
  -24.6128  -11.6861   20.7082 C   0  0  0  0  0  0  0  0  0  0  0  0
  -30.1510  -20.1508   19.5537 C   0  0  0  0  0  0  0  0  0  0  0  0
  -25.2863  -13.7751   20.5754 C   0  0  0  0  0  0  0  0  0  0  0  0
  -22.9360  -13.5147   21.3858 C   0  0  0  0  0  0  0  0  0  0  0  0
  -29.5794  -27.7557   24.9931 C   0  0  0  0  0  0  0  0  0  0  0  0
  -30.6090  -25.0966   26.5395 C   0  0  0  0  0  0  0  0  0  0  0  0
  -31.6323  -21.8466   26.3469 C   0  0  0  0  0  0  0  0  0  0  0  0
  -30.7784  -14.7552   20.7193 C   0  0  0  0  0  0  0  0  0  0  0  0
  -27.2262  -32.1171   26.2170 C   0  0  0  0  0  0  0  0  0  0  0  0
  -27.9997  -26.0081   24.0952 C   0  0  0  0  0  0  0  0  0  0  0  0
  -30.8093  -25.0882   24.0245 C   0  0  0  0  0  0  0  0  0  0  0  0
  -28.1093  -31.1103   26.9495 C   0  0  0  0  0  0  0  0  0  0  0  0
  -29.5860  -12.4990   18.2365 C   0  0  0  0  0  0  0  0  0  0  0  0
  -29.3555  -30.7962   26.1278 C   0  0  0  0  0  0  0  0  0  0  0  0
  -28.1544  -12.1914   18.6791 C   0  0  0  0  0  0  0  0  0  0  0  0
  -30.5248  -12.6547   19.4309 C   0  0  0  0  0  0  0  0  0  0  0  0
  -28.6514  -13.3253   20.8850 C   0  0  0  0  0  0  0  0  0  0  0  0
  -28.9836  -30.1622   24.7819 C   0  0  1  0  0  0  0  0  0  0  0  0
  -28.9959  -26.3849   25.1875 C   0  0  1  0  0  0  0  0  0  0  0  0
  -27.6563  -13.2148   19.7172 C   0  0  2  0  0  0  0  0  0  0  0  0
  -27.5851  -21.1155   21.8783 C   0  0  0  0  0  0  0  0  0  0  0  0
  -26.6485  -19.5746   20.1167 C   0  0  0  0  0  0  0  0  0  0  0  0
  -32.4449  -19.9494   27.7743 C   0  0  0  0  0  0  0  0  0  0  0  0
  -33.3445  -26.4313   26.7520 C   0  0  0  0  0  0  0  0  0  0  0  0
  -34.3179  -24.1905   27.2992 C   0  0  0  0  0  0  0  0  0  0  0  0
  -32.6161  -25.2118   28.8103 C   0  0  0  0  0  0  0  0  0  0  0  0
  -29.3376  -20.1390   25.5869 C   0  0  0  0  0  0  0  0  0  0  0  0
  -30.8783  -16.8409   22.0607 C   0  0  0  0  0  0  0  0  0  0  0  0
  -30.9749  -21.9960   18.0902 C   0  0  0  0  0  0  0  0  0  0  0  0
  -29.5721  -24.0861   18.1550 C   0  0  0  0  0  0  0  0  0  1  0  0
  -27.8348  -20.4810   20.4968 C   0  0  0  0  0  0  0  0  0  0  0  0
  -31.8936  -24.3040   26.5640 C   0  0  1  0  0  0  0  0  0  0  0  0
  -31.2334  -20.6162   27.1416 C   0  0  2  0  0  0  0  0  0  0  0  0
  -30.3771  -23.1389   17.2719 C   0  0  1  0  0  0  0  0  0  0  0  0
  -33.0284  -25.0384   27.3323 C   0  0  0  0  0  0  0  0  0  0  0  0
  -31.3474  -19.5280   19.4615 N   0  0  0  0  0  0  0  0  0  0  0  0
  -25.8698  -11.6048   20.2637 N   0  0  0  0  0  0  0  0  0  0  0  0
  -26.2521  -12.8912   20.1931 N   0  0  0  0  0  0  0  0  0  0  0  0
  -30.1201  -25.4506   25.2740 N   0  0  0  0  0  0  0  0  0  0  0  0
  -29.9956  -13.6405   20.3765 N   0  0  0  0  0  0  0  0  0  0  0  0
  -25.5034  -15.1074   20.5653 N   0  0  0  0  0  0  0  0  0  0  0  0
  -21.9245  -12.5950   21.6948 N   0  0  0  0  0  0  0  0  0  0  0  0
  -29.9215  -21.2367   18.7259 N   0  0  0  0  0  0  0  0  0  0  0  0
  -28.6391  -28.7677   24.9582 N   0  0  0  0  0  0  0  0  0  0  0  0
  -31.5544  -22.9936   27.1082 N   0  0  0  0  0  0  0  0  0  0  0  0
  -30.1993  -15.6438   21.6169 N   0  0  0  0  0  0  0  0  0  0  0  0
  -30.5595  -19.6242   26.2569 N   0  3  0  0  0  0  0  0  0  0  0  0
  -22.7081  -14.7421   21.5086 O   0  0  0  0  0  0  0  0  0  0  0  0
  -30.7931  -27.8859   24.8843 O   0  0  0  0  0  0  0  0  0  0  0  0
  -30.0558  -25.3847   27.6037 O   0  0  0  0  0  0  0  0  0  0  0  0
  -31.9818  -21.7949   25.1698 O   0  0  0  0  0  0  0  0  0  0  0  0
  -31.9075  -14.9473   20.2554 O   0  0  0  0  0  0  0  0  0  0  0  0
  -31.4365  -23.8926   16.6785 O   0  0  0  0  0  0  0  0  0  0  0  0
  -21.6198   -7.0349   21.5297 O   0  0  0  0  0  0  0  0  0  0  0  0
  -30.4261  -24.6119   19.1702 O   0  0  0  0  0  0  0  0  0  1  0  0
  -18.7074   -6.6603   26.1968 F   0  0  0  0  0  0  0  0  0  0  0  0
  -22.0911   -4.9957   23.3359 F   0  0  0  0  0  0  0  0  0  0  0  0
  1  2  1  0  0  0  0
  1  5  2  0  0  0  0
  2  6  2  0  0  0  0
  3  8  2  0  0  0  0
  3 17  1  0  0  0  0
  4  9  1  0  0  0  0
  4 17  2  0  0  0  0
  5 19  1  0  0  0  0
  6 21  1  0  0  0  0
  7 10  2  0  0  0  0
  7 20  1  0  0  0  0
  8 25  1  0  0  0  0
  9 25  2  0  0  0  0
 10 26  1  0  0  0  0
 11 12  2  0  0  0  0
 11 27  1  0  0  0  0
 12 28  1  0  0  0  0
 13 22  1  0  0  0  0
 13 26  2  0  0  0  0
 14 23  2  0  0  0  0
 14 24  1  0  0  0  0
 15 28  2  0  0  0  0
 15 29  1  0  0  0  0
 16 23  1  0  0  0  0
 16 65  2  0  0  0  0
 17 30  1  0  0  0  0
 18 30  1  0  0  0  0
 18 32  2  0  0  0  0
 18 33  1  0  0  0  0
 19 21  2  0  0  0  0
 19 38  1  0  0  0  0
 20 22  2  0  0  0  0
 20 39  1  0  0  0  0
 21 47  1  0  0  0  0
 22 40  1  0  0  0  0
 23 57  1  0  0  0  0
 24 31  2  0  0  0  0
 24 60  1  0  0  0  0
 25 83  1  0  0  0  0
 26 84  1  0  0  0  0
 27 29  2  0  0  0  0
 27 83  1  0  0  0  0
 28 85  1  0  0  0  0
 29 86  1  0  0  0  0
 30 66  2  0  0  0  0
 31 65  1  0  0  0  0
 31 72  1  0  0  0  0
 32 67  1  0  0  0  0
 32 70  1  0  0  0  0
 33 71  1  0  0  0  0
 33 77  2  0  0  0  0
 34 48  1  0  0  0  0
 34 73  1  0  0  0  0
 34 78  2  0  0  0  0
 35 61  1  0  0  0  0
 35 68  1  0  0  0  0
 35 79  2  0  0  0  0
 36 62  1  0  0  0  0
 36 74  1  0  0  0  0
 36 80  2  0  0  0  0
 37 69  1  0  0  0  0
 37 75  1  0  0  0  0
 37 81  2  0  0  0  0
 38 41  1  0  0  0  0
 39 48  1  0  0  0  0
 40 68  1  0  0  0  0
 41 43  1  0  0  0  0
 42 44  1  0  0  0  0
 42 45  1  0  0  0  0
 43 47  1  0  0  0  0
 44 49  1  0  0  0  0
 45 69  1  0  0  0  0
 46 49  1  0  0  0  0
 46 69  1  0  0  0  0
 47 73  1  0  0  0  0
 48 68  1  0  0  0  0
 49 67  1  0  0  0  0
 50 60  1  0  0  0  0
 51 60  1  0  0  0  0
 52 62  1  0  0  0  0
 53 64  1  0  0  0  0
 54 64  1  0  0  0  0
 55 64  1  0  0  0  0
 56 76  1  0  0  0  0
 57 75  1  0  0  0  0
 58 63  1  0  0  0  0
 58 72  1  0  0  0  0
 59 63  1  0  0  0  0
 59 84  1  0  0  0  0
 61 64  1  0  0  0  0
 61 74  1  0  0  0  0
 62 76  1  0  0  0  0
 63 82  1  0  0  0  0
 66 67  1  0  0  0  0
M  CHG  1  76   1
M  ISO  4  37 100  59 101  75 100  84 101
M  END
> <Batch ID>
0112

> <Smiles>
CNC(C)C(=O)NC(C(=O)N1Cc2cc([101O:1][101CH2:1]C(O)CNc3ncc(C[100NH:0][100C:0](=O)N4CCCC(n5nc(-c6ccc(Oc7ccc(F)cc7F)cc6)c(C(N)=O)c5N)C4)cc3C(C)C)ccc2CC1C(=O)NC1CCCc2ccccc21)C(C)(C)C

> <Shape>
0.303

> <Color>
0.190

> <Negative vol penalty>
0.000

$$$$

  -OEChem-04052320033D

 83 91  0     1  0  0  0  0  0999 V2000
  -24.3735  -24.6271   17.8580 C   0  0  0  0  0  0  0  0  0  0  0  0
  -25.3453  -23.8092   18.4256 C   0  0  0  0  0  0  0  0  0  0  0  0
  -22.3189  -28.4200   23.5306 C   0  0  0  0  0  0  0  0  0  0  0  0
  -21.6242  -27.8538   21.2869 C   0  0  0  0  0  0  0  0  0  0  0  0
  -23.0230  -24.3537   18.0707 C   0  0  0  0  0  0  0  0  0  0  0  0
  -24.9671  -22.7180   19.2070 C   0  0  0  0  0  0  0  0  0  0  0  0
  -27.6000  -18.5345   18.1064 C   0  0  0  0  0  0  0  0  0  0  0  0
  -21.1567  -27.8385   24.0372 C   0  0  0  0  0  0  0  0  0  0  0  0
  -20.4620  -27.2723   21.7935 C   0  0  0  0  0  0  0  0  0  0  0  0
  -28.8937  -18.4433   18.6180 C   0  0  0  0  0  0  0  0  0  0  0  0
  -19.5749  -24.3701   23.2804 C   0  0  0  0  0  0  0  0  0  0  0  0
  -19.1981  -23.1278   22.7702 C   0  0  0  0  0  0  0  0  0  0  0  0
  -28.0855  -17.0221   20.3917 C   0  0  0  0  0  0  0  0  0  0  0  0
  -29.7944  -23.6773   22.7506 C   0  0  0  0  0  0  0  0  0  0  0  0
  -17.1082  -24.0733   22.0115 C   0  0  0  0  0  0  0  0  0  0  0  0
  -31.7599  -23.4568   21.4296 C   0  0  0  0  0  0  0  0  0  0  0  0
  -22.5527  -28.4277   22.1554 C   0  0  0  0  0  0  0  0  0  0  0  0
  -24.1630  -30.3683   21.7699 C   0  0  0  0  0  0  0  0  0  0  0  0
  -22.6279  -23.2529   18.8472 C   0  0  0  0  0  0  0  0  0  0  0  0
  -26.5357  -17.8779   18.7409 C   0  0  0  0  0  0  0  0  0  0  0  0
  -23.6100  -22.4304   19.4314 C   0  0  0  0  0  0  0  0  0  0  0  0
  -26.7797  -17.1044   19.8846 C   0  0  0  0  0  0  0  0  0  0  0  0
  -30.7910  -24.2753   21.9874 C   0  0  0  0  0  0  0  0  0  0  0  0
  -29.7971  -22.2985   22.9303 C   0  0  0  0  0  0  0  0  0  0  0  0
  -20.2282  -27.2646   23.1687 C   0  0  0  0  0  0  0  0  0  0  0  0
  -29.1361  -17.6894   19.7625 C   0  0  0  0  0  0  0  0  0  0  0  0
  -18.7183  -25.4640   23.1563 C   0  0  0  0  0  0  0  0  0  0  0  0
  -17.9648  -22.9794   22.1357 C   0  0  0  0  0  0  0  0  0  0  0  0
  -17.4850  -25.3156   22.5218 C   0  0  0  0  0  0  0  0  0  0  0  0
  -23.7528  -29.0288   21.6314 C   0  0  0  0  0  0  0  0  0  0  0  0
  -30.8103  -21.5685   22.3301 C   0  0  0  0  0  0  0  0  0  0  0  0
  -25.3592  -30.4323   21.0980 C   0  0  0  0  0  0  0  0  0  0  0  0
  -23.5203  -31.4574   22.4456 C   0  0  0  0  0  0  0  0  0  0  0  0
  -23.8387  -18.8113   20.1404 C   0  0  0  0  0  0  0  0  0  0  0  0
  -23.2805  -15.6204   20.3109 C   0  0  0  0  0  0  0  0  0  0  0  0
  -24.5552  -12.4553   20.3697 C   0  0  0  0  0  0  0  0  0  0  0  0
  -29.5047  -26.3267   19.7524 C   0  0  0  0  0  0  0  0  0  0  0  0
  -21.1566  -23.0251   19.0880 C   0  0  0  0  0  0  0  0  0  0  0  0
  -25.1505  -17.9644   18.1610 C   0  0  0  0  0  0  0  0  0  0  0  0
  -25.6751  -16.3637   20.5915 C   0  0  0  0  0  0  0  0  0  0  0  0
  -20.8352  -21.6307   19.6196 C   0  0  0  0  0  0  0  0  0  0  0  0
  -27.7293  -28.4043   17.4702 C   0  0  0  0  0  0  0  0  0  0  0  0
  -21.7860  -21.2593   20.7531 C   0  0  0  0  0  0  0  0  0  0  0  0
  -26.5458  -28.9208   18.2904 C   0  0  0  0  0  0  0  0  0  0  0  0
  -28.0780  -26.9616   17.8294 C   0  0  0  0  0  0  0  0  0  0  0  0
  -27.1260  -27.2361   20.0859 C   0  0  0  0  0  0  0  0  0  0  0  0
  -23.2391  -21.2229   20.2647 C   0  0  1  0  0  0  0  0  0  0  0  0
  -24.0558  -17.6738   19.1830 C   0  0  1  0  0  0  0  0  0  0  0  0
  -26.7725  -28.7054   19.7989 C   0  0  2  0  0  0  0  0  0  0  0  0
  -28.7343  -21.6466   23.7446 C   0  0  0  0  0  0  0  0  0  0  0  0
  -23.8548  -10.0526   20.5543 C   0  0  0  0  0  0  0  0  0  0  0  0
  -22.8165  -15.9882   23.3041 C   0  0  0  0  0  0  0  0  0  0  0  0
  -23.0677  -13.5122   23.5765 C   0  0  0  0  0  0  0  0  0  0  0  0
  -21.2130  -14.4301   22.1836 C   0  0  0  0  0  0  0  0  0  0  0  0
  -25.6817  -11.8019   17.7120 C   0  0  0  0  0  0  0  0  0  0  0  0
  -30.8168  -25.7475   21.7777 C   0  0  0  0  0  0  0  0  0  0  0  0
  -31.8313  -18.0332   22.1562 C   0  0  0  0  0  0  0  0  0  0  0  0
  -30.5247  -17.4222   21.6747 C   0  0  0  0  0  0  0  0  0  1  0  0
  -31.9140  -19.5189   21.8431 C   0  0  0  0  0  0  0  0  0  0  0  0
  -23.5847  -14.5340   21.3139 C   0  0  1  0  0  0  0  0  0  0  0  0
  -24.1705  -11.2001   19.6075 C   0  0  2  0  0  0  0  0  0  0  0  0
  -22.6912  -14.6315   22.5825 C   0  0  0  0  0  0  0  0  0  0  0  0
  -31.7953  -22.1139   21.5819 N   0  0  0  0  0  0  0  0  0  0  0  0
  -24.6180  -28.2948   20.9267 N   0  0  0  0  0  0  0  0  0  0  0  0
  -25.5838  -29.1762   20.6163 N   0  0  0  0  0  0  0  0  0  0  0  0
  -24.3369  -16.4845   19.9897 N   0  0  0  0  0  0  0  0  0  0  0  0
  -28.2820  -26.8255   19.2736 N   0  0  0  0  0  0  0  0  0  0  0  0
  -26.2303  -31.4399   20.8780 N   0  0  0  0  0  0  0  0  0  0  0  0
  -22.6226  -32.2553   21.7234 N   0  0  0  0  0  0  0  0  0  0  0  0
  -23.4950  -20.0025   19.5302 N   0  0  0  0  0  0  0  0  0  0  0  0
  -23.4659  -13.2700   20.5951 N   0  0  0  0  0  0  0  0  0  0  0  0
  -29.6175  -26.2358   21.1343 N   0  0  0  0  0  0  0  0  0  0  0  0
  -25.2832  -10.7770   18.7109 N   0  3  0  0  0  0  0  0  0  0  0  0
  -23.7482  -31.7253   23.6497 O   0  0  0  0  0  0  0  0  0  0  0  0
  -23.9718  -18.6219   21.3438 O   0  0  0  0  0  0  0  0  0  0  0  0
  -22.1492  -15.6952   19.8248 O   0  0  0  0  0  0  0  0  0  0  0  0
  -25.7063  -12.6879   20.7323 O   0  0  0  0  0  0  0  0  0  0  0  0
  -30.4294  -25.9926   19.0039 O   0  0  0  0  0  0  0  0  0  0  0  0
  -19.0941  -26.6969   23.6627 O   0  0  0  0  0  0  0  0  0  0  0  0
  -30.3978  -17.5993   20.2645 O   0  0  0  0  0  0  0  0  0  1  0  0
  -30.8487  -20.2071   22.4845 O   0  0  0  0  0  0  0  0  0  0  0  0
  -17.6038  -21.7867   21.6444 F   0  0  0  0  0  0  0  0  0  0  0  0
  -16.6584  -26.3631   22.3984 F   0  0  0  0  0  0  0  0  0  0  0  0
  1  2  1  0  0  0  0
  1  5  2  0  0  0  0
  2  6  2  0  0  0  0
  3  8  2  0  0  0  0
  3 17  1  0  0  0  0
  4  9  1  0  0  0  0
  4 17  2  0  0  0  0
  5 19  1  0  0  0  0
  6 21  1  0  0  0  0
  7 10  2  0  0  0  0
  7 20  1  0  0  0  0
  8 25  1  0  0  0  0
  9 25  2  0  0  0  0
 10 26  1  0  0  0  0
 11 12  2  0  0  0  0
 11 27  1  0  0  0  0
 12 28  1  0  0  0  0
 13 22  1  0  0  0  0
 13 26  2  0  0  0  0
 14 23  2  0  0  0  0
 14 24  1  0  0  0  0
 15 28  2  0  0  0  0
 15 29  1  0  0  0  0
 16 23  1  0  0  0  0
 16 63  2  0  0  0  0
 17 30  1  0  0  0  0
 18 30  1  0  0  0  0
 18 32  2  0  0  0  0
 18 33  1  0  0  0  0
 19 21  2  0  0  0  0
 19 38  1  0  0  0  0
 20 22  2  0  0  0  0
 20 39  1  0  0  0  0
 21 47  1  0  0  0  0
 22 40  1  0  0  0  0
 23 56  1  0  0  0  0
 24 31  2  0  0  0  0
 24 50  1  0  0  0  0
 25 79  1  0  0  0  0
 26 80  1  0  0  0  0
 27 29  2  0  0  0  0
 27 79  1  0  0  0  0
 28 82  1  0  0  0  0
 29 83  1  0  0  0  0
 30 64  2  0  0  0  0
 31 63  1  0  0  0  0
 31 81  1  0  0  0  0
 32 65  1  0  0  0  0
 32 68  1  0  0  0  0
 33 69  1  0  0  0  0
 33 74  2  0  0  0  0
 34 48  1  0  0  0  0
 34 70  1  0  0  0  0
 34 75  2  0  0  0  0
 35 60  1  0  0  0  0
 35 66  1  0  0  0  0
 35 76  2  0  0  0  0
 36 61  1  0  0  0  0
 36 71  1  0  0  0  0
 36 77  2  0  0  0  0
 37 67  1  0  0  0  0
 37 72  1  0  0  0  0
 37 78  2  0  0  0  0
 38 41  1  0  0  0  0
 39 48  1  0  0  0  0
 40 66  1  0  0  0  0
 41 43  1  0  0  0  0
 42 44  1  0  0  0  0
 42 45  1  0  0  0  0
 43 47  1  0  0  0  0
 44 49  1  0  0  0  0
 45 67  1  0  0  0  0
 46 49  1  0  0  0  0
 46 67  1  0  0  0  0
 47 70  1  0  0  0  0
 48 66  1  0  0  0  0
 49 65  1  0  0  0  0
 51 61  1  0  0  0  0
 52 62  1  0  0  0  0
 53 62  1  0  0  0  0
 54 62  1  0  0  0  0
 55 73  1  0  0  0  0
 56 72  1  0  0  0  0
 57 58  1  0  0  0  0
 57 59  1  0  0  0  0
 58 80  1  0  0  0  0
 59 81  1  0  0  0  0
 60 62  1  0  0  0  0
 60 71  1  0  0  0  0
 61 73  1  0  0  0  0
 64 65  1  0  0  0  0
M  CHG  1  73   1
M  ISO  4  37 100  58 101  72 100  80 101
M  END
> <Batch ID>
0112

> <Smiles>
CNC(C)C(=O)NC(C(=O)N1Cc2cc([101O:1][101CH2:1]CCOc3ncc(C[100NH:0][100C:0](=O)N4CCCC(n5nc(-c6ccc(Oc7ccc(F)cc7F)cc6)c(C(N)=O)c5N)C4)cc3C)ccc2CC1C(=O)NC1CCCc2ccccc21)C(C)(C)C

> <Shape>
0.212

> <Color>
0.063

> <Negative vol penalty>
0.000

$$$$

  -OEChem-04052320033D

 82 89  0     1  0  0  0  0  0999 V2000
  -19.1475  -24.5478   21.8114 C   0  0  0  0  0  0  0  0  0  0  0  0
  -20.3878  -24.8527   21.2600 C   0  0  0  0  0  0  0  0  0  0  0  0
  -24.4891  -13.1953   20.1081 C   0  0  0  0  0  0  0  0  0  0  0  0
  -26.8450  -12.7101   20.3350 C   0  0  0  0  0  0  0  0  0  0  0  0
  -18.3095  -25.5726   22.2490 C   0  0  0  0  0  0  0  0  0  0  0  0
  -20.7904  -26.1828   21.1449 C   0  0  0  0  0  0  0  0  0  0  0  0
  -25.5850  -26.8950   22.6110 C   0  0  0  0  0  0  0  0  0  0  0  0
  -24.2067  -11.8294   20.1194 C   0  0  0  0  0  0  0  0  0  0  0  0
  -26.5626  -11.3442   20.3464 C   0  0  0  0  0  0  0  0  0  0  0  0
  -26.5867  -26.5218   21.7159 C   0  0  0  0  0  0  0  0  0  0  0  0
  -23.9366   -9.3605   22.4139 C   0  0  0  0  0  0  0  0  0  0  0  0
  -22.8762   -8.9244   23.2082 C   0  0  0  0  0  0  0  0  0  0  0  0
  -26.8383  -28.8257   21.0465 C   0  0  0  0  0  0  0  0  0  0  0  0
  -21.7711   -8.0430   21.2489 C   0  0  0  0  0  0  0  0  0  0  0  0
  -25.8083  -13.6357   20.2158 C   0  0  0  0  0  0  0  0  0  0  0  0
  -26.1717  -15.9096   21.3135 C   0  0  0  0  0  0  0  0  0  0  0  0
  -18.7061  -26.9155   22.1481 C   0  0  0  0  0  0  0  0  0  0  0  0
  -25.1943  -28.2370   22.7229 C   0  0  0  0  0  0  0  0  0  0  0  0
  -19.9564  -27.2266   21.5803 C   0  0  0  0  0  0  0  0  0  0  0  0
  -25.8333  -29.2136   21.9456 C   0  0  0  0  0  0  0  0  0  0  0  0
  -25.2434  -10.9038   20.2386 C   0  0  0  0  0  0  0  0  0  0  0  0
  -27.2115  -27.4868   20.9314 C   0  0  0  0  0  0  0  0  0  0  0  0
  -23.9143   -9.1380   21.0371 C   0  0  0  0  0  0  0  0  0  0  0  0
  -21.7935   -8.2657   22.6257 C   0  0  0  0  0  0  0  0  0  0  0  0
  -22.8315   -8.4792   20.4546 C   0  0  0  0  0  0  0  0  0  0  0  0
  -26.1007  -15.0465   20.2036 C   0  0  0  0  0  0  0  0  0  0  0  0
  -26.4770  -17.1360   20.7757 C   0  0  0  0  0  0  0  0  0  0  0  0
  -25.9791  -15.6279   22.7060 C   0  0  0  0  0  0  0  0  0  0  0  0
  -22.4922  -29.8355   22.2258 C   0  0  0  0  0  0  0  0  0  0  0  0
  -24.1826  -32.3082   23.4709 C   0  0  0  0  0  0  0  0  0  0  0  0
  -27.2306  -33.7087   24.0995 C   0  0  0  0  0  0  0  0  0  0  0  0
  -28.7954  -24.8291   20.4291 C   0  0  0  0  0  0  0  0  0  0  0  0
  -29.4248  -20.3096   17.2566 C   0  0  0  0  0  0  0  0  0  0  0  0
  -17.7464  -27.9911   22.5913 C   0  0  0  0  0  0  0  0  0  0  0  0
  -24.1307  -28.6269   23.7125 C   0  0  0  0  0  0  0  0  0  0  0  0
  -25.4646  -30.6707   22.0426 C   0  0  0  0  0  0  0  0  0  0  0  0
  -18.4048  -29.3557   22.7778 C   0  0  0  0  0  0  0  0  0  0  0  0
  -26.5209  -18.7035   15.9666 C   0  0  0  0  0  0  0  0  0  0  0  0
  -19.3056  -29.6806   21.5904 C   0  0  0  0  0  0  0  0  0  0  0  0
  -26.1626  -17.6764   17.0421 C   0  0  0  0  0  0  0  0  0  0  0  0
  -28.0325  -18.8557   15.8128 C   0  0  0  0  0  0  0  0  0  0  0  0
  -28.3970  -18.1275   18.1389 C   0  0  0  0  0  0  0  0  0  0  0  0
  -20.4391  -28.6559   21.4613 C   0  0  1  0  0  0  0  0  0  0  0  0
  -23.4555  -29.9521   23.3729 C   0  0  1  0  0  0  0  0  0  0  0  0
  -26.8833  -17.9799   18.3695 C   0  0  2  0  0  0  0  0  0  0  0  0
  -28.2914  -35.7526   25.0966 C   0  0  0  0  0  0  0  0  0  0  0  0
  -27.9661  -26.7761   17.1603 C   0  0  0  0  0  0  0  0  0  0  0  0
  -30.2085  -26.1684   18.0831 C   0  0  0  0  0  0  0  0  0  0  0  0
  -32.2414  -21.3817   18.4752 C   0  0  0  0  0  0  0  0  0  0  0  0
  -23.4452  -33.9045   20.9773 C   0  0  0  0  0  0  0  0  0  0  0  0
  -25.2612  -35.5254   21.5628 C   0  0  0  0  0  0  0  0  0  0  0  0
  -23.3356  -35.1986   23.1146 C   0  0  0  0  0  0  0  0  0  0  0  0
  -28.6357  -32.1159   26.1605 C   0  0  0  0  0  0  0  0  0  0  0  0
  -30.6509  -22.0633   20.3070 C   0  0  0  0  0  0  0  0  0  0  0  0
  -29.2207  -22.3965   20.7308 C   0  0  0  0  0  0  0  0  0  0  0  0
  -25.0809  -33.3814   22.9052 C   0  0  1  0  0  0  0  0  0  0  0  0
  -27.8129  -34.3324   25.3550 C   0  0  2  0  0  0  0  0  0  0  0  0
  -28.1050  -25.8168   19.4931 C   0  0  2  0  0  0  0  0  0  1  0  0
  -28.7190  -25.8072   18.0780 C   0  0  0  0  0  0  0  0  0  0  0  0
  -30.7846  -21.6666   18.8278 C   0  0  2  0  0  0  0  0  0  0  0  0
  -24.2866  -34.4749   22.1365 C   0  0  0  0  0  0  0  0  0  0  0  0
  -26.3413  -15.6716   19.0480 N   0  0  0  0  0  0  0  0  0  0  0  0
  -26.5664  -16.9406   19.4289 N   0  0  0  0  0  0  0  0  0  0  0  0
  -24.4145  -31.0010   23.0202 N   0  0  0  0  0  0  0  0  0  0  0  0
  -28.6552  -19.1441   17.1071 N   0  0  0  0  0  0  0  0  0  0  0  0
  -26.6749  -18.3517   21.3283 N   0  0  0  0  0  0  0  0  0  0  0  0
  -25.6712  -14.3143   23.0856 N   0  0  0  0  0  0  0  0  0  0  0  0
  -21.4755  -28.9234   22.4354 N   0  0  0  0  0  0  0  0  0  0  0  0
  -28.6724  -23.5164   20.0011 N   0  0  0  0  0  0  0  0  0  0  0  0
  -25.8656  -33.8893   24.0253 N   0  0  0  0  0  0  0  0  0  0  0  0
  -29.9739  -20.5103   18.5171 N   0  0  0  0  0  0  0  0  0  0  0  0
  -28.9686  -33.5288   25.8445 N   0  3  0  0  0  0  0  0  0  0  0  0
  -26.0609  -16.5180   23.5860 O   0  0  0  0  0  0  0  0  0  0  0  0
  -22.6580  -30.5233   21.2252 O   0  0  0  0  0  0  0  0  0  0  0  0
  -23.3119  -32.6173   24.2883 O   0  0  0  0  0  0  0  0  0  0  0  0
  -27.9183  -33.1233   23.2660 O   0  0  0  0  0  0  0  0  0  0  0  0
  -29.3709  -25.1870   21.4546 O   0  0  0  0  0  0  0  0  0  0  0  0
  -29.6046  -21.1146   16.3365 O   0  0  0  0  0  0  0  0  0  0  0  0
  -24.9681   -9.5709   20.2499 O   0  0  0  0  0  0  0  0  0  0  0  0
  -28.1890  -27.1252   20.0564 O   0  0  0  0  0  0  0  0  0  1  0  0
  -20.7760   -7.8455   23.3888 F   0  0  0  0  0  0  0  0  0  0  0  0
  -22.8049   -8.2615   19.1326 F   0  0  0  0  0  0  0  0  0  0  0  0
  1  2  1  0  0  0  0
  1  5  2  0  0  0  0
  2  6  2  0  0  0  0
  3  8  2  0  0  0  0
  3 15  1  0  0  0  0
  4  9  1  0  0  0  0
  4 15  2  0  0  0  0
  5 17  1  0  0  0  0
  6 19  1  0  0  0  0
  7 10  2  0  0  0  0
  7 18  1  0  0  0  0
  8 21  1  0  0  0  0
  9 21  2  0  0  0  0
 10 22  1  0  0  0  0
 11 12  2  0  0  0  0
 11 23  1  0  0  0  0
 12 24  1  0  0  0  0
 13 20  1  0  0  0  0
 13 22  2  0  0  0  0
 14 24  2  0  0  0  0
 14 25  1  0  0  0  0
 15 26  1  0  0  0  0
 16 26  1  0  0  0  0
 16 27  2  0  0  0  0
 16 28  1  0  0  0  0
 17 19  2  0  0  0  0
 17 34  1  0  0  0  0
 18 20  2  0  0  0  0
 18 35  1  0  0  0  0
 19 43  1  0  0  0  0
 20 36  1  0  0  0  0
 21 79  1  0  0  0  0
 22 80  1  0  0  0  0
 23 25  2  0  0  0  0
 23 79  1  0  0  0  0
 24 81  1  0  0  0  0
 25 82  1  0  0  0  0
 26 62  2  0  0  0  0
 27 63  1  0  0  0  0
 27 66  1  0  0  0  0
 28 67  1  0  0  0  0
 28 73  2  0  0  0  0
 29 44  1  0  0  0  0
 29 68  1  0  0  0  0
 29 74  2  0  0  0  0
 30 56  1  0  0  0  0
 30 64  1  0  0  0  0
 30 75  2  0  0  0  0
 31 57  1  0  0  0  0
 31 70  1  0  0  0  0
 31 76  2  0  0  0  0
 32 58  1  0  0  0  0
 32 69  1  0  0  0  0
 32 77  2  0  0  0  0
 33 65  1  0  0  0  0
 33 71  1  0  0  0  0
 33 78  2  0  0  0  0
 34 37  1  0  0  0  0
 35 44  1  0  0  0  0
 36 64  1  0  0  0  0
 37 39  1  0  0  0  0
 38 40  1  0  0  0  0
 38 41  1  0  0  0  0
 39 43  1  0  0  0  0
 40 45  1  0  0  0  0
 41 65  1  0  0  0  0
 42 45  1  0  0  0  0
 42 65  1  0  0  0  0
 43 68  1  0  0  0  0
 44 64  1  0  0  0  0
 45 63  1  0  0  0  0
 46 57  1  0  0  0  0
 47 59  1  0  0  0  0
 48 59  1  0  0  0  0
 49 60  1  0  0  0  0
 50 61  1  0  0  0  0
 51 61  1  0  0  0  0
 52 61  1  0  0  0  0
 53 72  1  0  0  0  0
 54 55  1  0  0  0  0
 54 60  1  0  0  0  0
 55 69  1  0  0  0  0
 56 61  1  0  0  0  0
 56 70  1  0  0  0  0
 57 72  1  0  0  0  0
 58 59  1  0  0  0  0
 58 80  1  0  0  0  0
 60 71  1  0  0  0  0
 62 63  1  0  0  0  0
M  CHG  1  72   1
M  ISO  4  33 100  58 101  71 100  80 101
M  END
> <Batch ID>
0112

> <Smiles>
CNC(C)C(=O)NC(C(=O)N1Cc2cc([101O:1][101CH:1](C(=O)NCCC(C)[100NH:0][100C:0](=O)N3CCCC(n4nc(-c5ccc(Oc6ccc(F)cc6F)cc5)c(C(N)=O)c4N)C3)C(C)C)ccc2CC1C(=O)NC1CCCc2ccccc21)C(C)(C)C

> <Shape>
0.289

> <Color>
0.095

> <Negative vol penalty>
0.000

$$$$

  -OEChem-04052320033D

 84 92  0     1  0  0  0  0  0999 V2000
  -19.5117  -27.2169   26.4915 C   0  0  0  0  0  0  0  0  0  0  0  0
  -20.7444  -26.8139   25.9880 C   0  0  0  0  0  0  0  0  0  0  0  0
  -25.9660  -14.1852   18.3506 C   0  0  0  0  0  0  0  0  0  0  0  0
  -27.0075  -14.8890   20.4138 C   0  0  0  0  0  0  0  0  0  0  0  0
  -18.5801  -27.8222   25.6491 C   0  0  0  0  0  0  0  0  0  0  0  0
  -21.0457  -27.0150   24.6415 C   0  0  0  0  0  0  0  0  0  0  0  0
  -26.5256  -28.3496   22.2549 C   0  0  0  0  0  0  0  0  0  0  0  0
  -25.7301  -12.9248   18.8996 C   0  0  0  0  0  0  0  0  0  0  0  0
  -26.7716  -13.6286   20.9628 C   0  0  0  0  0  0  0  0  0  0  0  0
  -27.4997  -27.5613   21.6438 C   0  0  0  0  0  0  0  0  0  0  0  0
  -23.5148  -11.5087   21.0255 C   0  0  0  0  0  0  0  0  0  0  0  0
  -22.2540  -10.9438   20.8338 C   0  0  0  0  0  0  0  0  0  0  0  0
  -26.6149  -28.1560   19.4799 C   0  0  0  0  0  0  0  0  0  0  0  0
  -31.6884  -25.7367   19.5200 C   0  0  0  0  0  0  0  0  0  0  0  0
  -32.2339  -23.8534   18.1084 C   0  0  0  0  0  0  0  0  0  0  0  0
  -23.2667   -9.0714   19.6912 C   0  0  0  0  0  0  0  0  0  0  0  0
  -26.6047  -15.1673   19.1077 C   0  0  0  0  0  0  0  0  0  0  0  0
  -25.9988  -17.5902   18.5881 C   0  0  0  0  0  0  0  0  0  0  0  0
  -18.8739  -28.0396   24.2937 C   0  0  0  0  0  0  0  0  0  0  0  0
  -25.5804  -29.0395   21.4821 C   0  0  0  0  0  0  0  0  0  0  0  0
  -20.1167  -27.6225   23.7798 C   0  0  0  0  0  0  0  0  0  0  0  0
  -25.6314  -28.9544   20.0835 C   0  0  0  0  0  0  0  0  0  0  0  0
  -30.3898  -25.2496   19.6682 C   0  0  0  0  0  0  0  0  0  0  0  0
  -30.9353  -23.3662   18.2566 C   0  0  0  0  0  0  0  0  0  0  0  0
  -26.1329  -12.6465   20.2057 C   0  0  0  0  0  0  0  0  0  0  0  0
  -27.5427  -27.4621   20.2562 C   0  0  0  0  0  0  0  0  0  0  0  0
  -24.6516  -10.8550   20.5500 C   0  0  0  0  0  0  0  0  0  0  0  0
  -30.0133  -24.0643   19.0366 C   0  0  0  0  0  0  0  0  0  0  0  0
  -22.1299   -9.7251   20.1667 C   0  0  0  0  0  0  0  0  0  0  0  0
  -24.5276   -9.6364   19.8828 C   0  0  0  0  0  0  0  0  0  0  0  0
  -32.6104  -25.0387   18.7400 C   0  0  0  0  0  0  0  0  0  0  0  0
  -26.8491  -16.4693   18.5410 C   0  0  0  0  0  0  0  0  0  0  0  0
  -26.6830  -18.5691   17.9098 C   0  0  0  0  0  0  0  0  0  0  0  0
  -24.7060  -17.7338   19.1912 C   0  0  0  0  0  0  0  0  0  0  0  0
  -22.4141  -28.9605   21.2138 C   0  0  0  0  0  0  0  0  0  0  0  0
  -22.9050  -31.5105   19.2699 C   0  0  0  0  0  0  0  0  0  0  0  0
  -25.0287  -33.2260   17.2220 C   0  0  0  0  0  0  0  0  0  0  0  0
  -31.3739  -21.3568   16.8018 C   0  0  0  0  0  0  0  0  0  0  0  0
  -17.8168  -28.6549   23.4113 C   0  0  0  0  0  0  0  0  0  0  0  0
  -24.5526  -29.9069   22.1556 C   0  0  0  0  0  0  0  0  0  0  0  0
  -24.6522  -29.6914   19.2080 C   0  0  0  0  0  0  0  0  0  0  0  0
  -18.3588  -29.1712   22.0809 C   0  0  0  0  0  0  0  0  0  0  0  0
  -30.8551  -18.2972   15.0564 C   0  0  0  0  0  0  0  0  0  0  0  0
  -19.2758  -28.1345   21.4396 C   0  0  0  0  0  0  0  0  0  0  0  0
  -29.6967  -17.6411   15.8112 C   0  0  0  0  0  0  0  0  0  0  0  0
  -31.7968  -19.0431   16.0000 C   0  0  0  0  0  0  0  0  0  0  0  0
  -29.9869  -19.3600   17.6410 C   0  0  0  0  0  0  0  0  0  0  0  0
  -20.4902  -27.8459   22.3304 C   0  0  1  0  0  0  0  0  0  0  0  0
  -23.3212  -30.1559   21.2901 C   0  0  1  0  0  0  0  0  0  0  0  0
  -28.9756  -18.6512   16.7252 C   0  0  2  0  0  0  0  0  0  0  0  0
  -25.1333  -35.2521   15.7450 C   0  0  0  0  0  0  0  0  0  0  0  0
  -21.2959  -30.0362   17.1375 C   0  0  0  0  0  0  0  0  0  0  0  0
  -22.2237  -31.6241   15.4388 C   0  0  0  0  0  0  0  0  0  0  0  0
  -20.8094  -32.4835   17.3053 C   0  0  0  0  0  0  0  0  0  0  0  0
  -27.1879  -34.4388   18.8423 C   0  0  0  0  0  0  0  0  0  0  0  0
  -29.4125  -26.0148   20.5112 C   0  0  0  0  0  0  0  0  0  1  0  0
  -27.0353  -22.3106   20.2794 C   0  0  0  0  0  0  0  0  0  0  0  0
  -26.7224  -21.3526   21.4160 C   0  0  0  0  0  0  0  0  0  0  0  0
  -28.5048  -22.7062   20.2760 C   0  0  0  0  0  0  0  0  0  0  0  0
  -23.1616  -31.6958   17.7938 C   0  0  1  0  0  0  0  0  0  0  0  0
  -25.3779  -34.7011   17.1412 C   0  0  2  0  0  0  0  0  0  0  0  0
  -21.8900  -31.4443   16.9351 C   0  0  0  0  0  0  0  0  0  0  0  0
  -27.9867  -16.7123   17.8845 N   0  0  0  0  0  0  0  0  0  0  0  0
  -27.8558  -17.9971   17.5127 N   0  0  0  0  0  0  0  0  0  0  0  0
  -23.6623  -30.5217   19.9138 N   0  0  0  0  0  0  0  0  0  0  0  0
  -31.0443  -19.9852   16.8314 N   0  0  0  0  0  0  0  0  0  0  0  0
  -26.3899  -19.8546   17.6201 N   0  0  0  0  0  0  0  0  0  0  0  0
  -24.1489  -16.6285   19.8486 N   0  0  0  0  0  0  0  0  0  0  0  0
  -30.5689  -22.1607   17.6083 N   0  0  0  0  0  0  0  0  0  0  0  0
  -21.4648  -28.9096   22.2166 N   0  0  0  0  0  0  0  0  0  0  0  0
  -23.7302  -33.0308   17.6428 N   0  0  0  0  0  0  0  0  0  0  0  0
  -25.2740  -21.0364   21.4001 N   0  3  0  0  0  0  0  0  0  0  0  0
  -26.8122  -34.9134   17.4857 N   0  3  0  0  0  0  0  0  0  0  0  0
  -24.0567  -18.8056   19.1342 O   0  0  0  0  0  0  0  0  0  0  0  0
  -22.5635  -28.1453   20.3110 O   0  0  0  0  0  0  0  0  0  0  0  0
  -22.0688  -32.2219   19.8324 O   0  0  0  0  0  0  0  0  0  0  0  0
  -25.8267  -32.3359   16.9364 O   0  0  0  0  0  0  0  0  0  0  0  0
  -32.2842  -21.7904   16.0910 O   0  0  0  0  0  0  0  0  0  0  0  0
  -25.9027  -11.4168   20.7418 O   0  0  0  0  0  0  0  0  0  0  0  0
  -28.4920  -26.6928   19.6572 O   0  0  0  0  0  0  0  0  0  1  0  0
  -28.7419  -23.5908   19.1840 O   0  0  0  0  0  0  0  0  0  0  0  0
  -20.9192   -9.1819   19.9840 F   0  0  0  0  0  0  0  0  0  0  0  0
  -25.6161   -9.0031   19.4248 F   0  0  0  0  0  0  0  0  0  0  0  0
  -34.2126  -25.6401   18.5572 Cl  0  0  0  0  0  0  0  0  0  0  0  0
  1  2  1  0  0  0  0
  1  5  2  0  0  0  0
  2  6  2  0  0  0  0
  3  8  2  0  0  0  0
  3 17  1  0  0  0  0
  4  9  1  0  0  0  0
  4 17  2  0  0  0  0
  5 19  1  0  0  0  0
  6 21  1  0  0  0  0
  7 10  2  0  0  0  0
  7 20  1  0  0  0  0
  8 25  1  0  0  0  0
  9 25  2  0  0  0  0
 10 26  1  0  0  0  0
 11 12  2  0  0  0  0
 11 27  1  0  0  0  0
 12 29  1  0  0  0  0
 13 22  1  0  0  0  0
 13 26  2  0  0  0  0
 14 23  1  0  0  0  0
 14 31  2  0  0  0  0
 15 24  2  0  0  0  0
 15 31  1  0  0  0  0
 16 29  2  0  0  0  0
 16 30  1  0  0  0  0
 17 32  1  0  0  0  0
 18 32  1  0  0  0  0
 18 33  2  0  0  0  0
 18 34  1  0  0  0  0
 19 21  2  0  0  0  0
 19 39  1  0  0  0  0
 20 22  2  0  0  0  0
 20 40  1  0  0  0  0
 21 48  1  0  0  0  0
 22 41  1  0  0  0  0
 23 28  2  0  0  0  0
 23 56  1  0  0  0  0
 24 28  1  0  0  0  0
 24 69  1  0  0  0  0
 25 79  1  0  0  0  0
 26 80  1  0  0  0  0
 27 30  2  0  0  0  0
 27 79  1  0  0  0  0
 28 81  1  0  0  0  0
 29 82  1  0  0  0  0
 30 83  1  0  0  0  0
 31 84  1  0  0  0  0
 32 63  2  0  0  0  0
 33 64  1  0  0  0  0
 33 67  1  0  0  0  0
 34 68  1  0  0  0  0
 34 74  2  0  0  0  0
 35 49  1  0  0  0  0
 35 70  1  0  0  0  0
 35 75  2  0  0  0  0
 36 60  1  0  0  0  0
 36 65  1  0  0  0  0
 36 76  2  0  0  0  0
 37 61  1  0  0  0  0
 37 71  1  0  0  0  0
 37 77  2  0  0  0  0
 38 66  1  0  0  0  0
 38 69  1  0  0  0  0
 38 78  2  0  0  0  0
 39 42  1  0  0  0  0
 40 49  1  0  0  0  0
 41 65  1  0  0  0  0
 42 44  1  0  0  0  0
 43 45  1  0  0  0  0
 43 46  1  0  0  0  0
 44 48  1  0  0  0  0
 45 50  1  0  0  0  0
 46 66  1  0  0  0  0
 47 50  1  0  0  0  0
 47 66  1  0  0  0  0
 48 70  1  0  0  0  0
 49 65  1  0  0  0  0
 50 64  1  0  0  0  0
 51 61  1  0  0  0  0
 52 62  1  0  0  0  0
 53 62  1  0  0  0  0
 54 62  1  0  0  0  0
 55 73  1  0  0  0  0
 56 80  1  0  0  0  0
 57 58  1  0  0  0  0
 57 59  1  0  0  0  0
 58 72  1  0  0  0  0
 59 81  1  0  0  0  0
 60 62  1  0  0  0  0
 60 71  1  0  0  0  0
 61 73  1  0  0  0  0
 63 64  1  0  0  0  0
M  CHG  2  72   1  73   1
M  ISO  4  38 100  56 101  69 100  80 101
M  END
> <Batch ID>
0112

> <Smiles>
CNC(C)C(=O)NC(C(=O)N1Cc2cc([101O:1][101CH2:1]c3cc(Cl)cc([100NH:0][100C:0](=O)N4CCCC(n5nc(-c6ccc(Oc7ccc(F)cc7F)cc6)c(C(N)=O)c5N)C4)c3OCCCN)ccc2CC1C(=O)NC1CCCc2ccccc21)C(C)(C)C

> <Shape>
0.217

> <Color>
0.101

> <Negative vol penalty>
0.000

$$$$

  -OEChem-04052320033D

 87 95  0     1  0  0  0  0  0999 V2000
  -27.4784  -17.1774   20.0055 C   0  0  0  0  0  0  0  0  0  0  0  0
  -26.6457  -18.2337   20.3606 C   0  0  0  0  0  0  0  0  0  0  0  0
  -23.9876  -14.5809   20.1110 C   0  0  0  0  0  0  0  0  0  0  0  0
  -23.5347  -13.6255   22.2834 C   0  0  0  0  0  0  0  0  0  0  0  0
  -28.8620  -17.3182   20.1046 C   0  0  0  0  0  0  0  0  0  0  0  0
  -27.1960  -19.4312   20.8162 C   0  0  0  0  0  0  0  0  0  0  0  0
  -25.0206  -23.4927   18.7147 C   0  0  0  0  0  0  0  0  0  0  0  0
  -24.9522  -13.6000   19.8807 C   0  0  0  0  0  0  0  0  0  0  0  0
  -24.4993  -12.6445   22.0531 C   0  0  0  0  0  0  0  0  0  0  0  0
  -23.7790  -23.8810   19.2161 C   0  0  0  0  0  0  0  0  0  0  0  0
  -27.7878  -11.5607   18.8687 C   0  0  0  0  0  0  0  0  0  0  0  0
  -29.0092  -11.9641   18.3293 C   0  0  0  0  0  0  0  0  0  0  0  0
  -18.4967  -27.1411   22.7801 C   0  0  0  0  0  0  0  0  0  0  0  0
  -24.8526  -25.5954   20.5303 C   0  0  0  0  0  0  0  0  0  0  0  0
  -20.3597  -25.6281   22.6239 C   0  0  0  0  0  0  0  0  0  0  0  0
  -29.3783  -13.3986   20.2380 C   0  0  0  0  0  0  0  0  0  0  0  0
  -19.2810  -28.0873   22.1403 C   0  0  0  0  0  0  0  0  0  0  0  0
  -23.2789  -14.5937   21.3124 C   0  0  0  0  0  0  0  0  0  0  0  0
  -20.9121  -15.5424   21.2372 C   0  0  0  0  0  0  0  0  0  0  0  0
  -29.4299  -18.5213   20.5524 C   0  0  0  0  0  0  0  0  0  0  0  0
  -26.1906  -24.1469   19.1263 C   0  0  0  0  0  0  0  0  0  0  0  0
  -28.5885  -19.5878   20.9226 C   0  0  0  0  0  0  0  0  0  0  0  0
  -26.1076  -25.2152   20.0307 C   0  0  0  0  0  0  0  0  0  0  0  0
  -19.0538  -25.8905   23.0228 C   0  0  0  0  0  0  0  0  0  0  0  0
  -25.2080  -12.6318   20.8517 C   0  0  0  0  0  0  0  0  0  0  0  0
  -23.6951  -24.9306   20.1263 C   0  0  0  0  0  0  0  0  0  0  0  0
  -27.3615  -12.0763   20.0926 C   0  0  0  0  0  0  0  0  0  0  0  0
  -29.8045  -12.8830   19.0140 C   0  0  0  0  0  0  0  0  0  0  0  0
  -28.1567  -12.9953   20.7773 C   0  0  0  0  0  0  0  0  0  0  0  0
  -22.2829  -15.6070   21.5512 C   0  0  0  0  0  0  0  0  0  0  0  0
  -21.0605  -26.6420   21.9909 C   0  0  0  0  0  0  0  0  0  0  0  0
  -20.4054  -16.7462   21.6619 C   0  0  0  0  0  0  0  0  0  0  0  0
  -20.1637  -14.4883   20.6171 C   0  0  0  0  0  0  0  0  0  0  0  0
  -28.8341  -23.2649   20.6553 C   0  0  0  0  0  0  0  0  0  0  0  0
  -16.8946  -24.0306   26.4384 C   0  0  0  0  0  0  0  0  0  0  0  0
  -29.7775  -26.2901   19.9622 C   0  0  0  0  0  0  0  0  0  0  0  0
  -28.8944  -29.5006   19.2140 C   0  0  0  0  0  0  0  0  0  0  0  0
  -19.9639  -20.6394   25.4823 C   0  0  0  0  0  0  0  0  0  0  0  0
  -30.9294  -18.6102   20.6877 C   0  0  0  0  0  0  0  0  0  0  0  0
  -27.5195  -23.7335   18.5557 C   0  0  0  0  0  0  0  0  0  0  0  0
  -27.3318  -25.9633   20.4889 C   0  0  0  0  0  0  0  0  0  0  0  0
  -31.4450  -20.0405   20.8237 C   0  0  0  0  0  0  0  0  0  0  0  0
  -22.7576  -20.9514   23.2030 C   0  0  0  0  0  0  0  0  0  0  0  0
  -30.6129  -20.8134   21.8420 C   0  0  0  0  0  0  0  0  0  0  0  0
  -22.7661  -19.5720   22.5417 C   0  0  0  0  0  0  0  0  0  0  0  0
  -22.3941  -20.8534   24.6816 C   0  0  0  0  0  0  0  0  0  0  0  0
  -21.1059  -18.7885   24.2937 C   0  0  0  0  0  0  0  0  0  0  0  0
  -29.1485  -20.9110   21.3977 C   0  0  1  0  0  0  0  0  0  0  0  0
  -28.6987  -24.1338   19.4369 C   0  0  1  0  0  0  0  0  0  0  0  0
  -21.4443  -18.8223   22.7923 C   0  0  2  0  0  0  0  0  0  0  0  0
  -14.8429  -23.5763   27.8114 C   0  0  0  0  0  0  0  0  0  0  0  0
  -14.7340  -23.5651   25.2965 C   0  0  0  0  0  0  0  0  0  0  0  0
  -29.8856  -31.7566   18.7394 C   0  0  0  0  0  0  0  0  0  0  0  0
  -30.3679  -26.6531   22.9337 C   0  0  0  0  0  0  0  0  0  0  0  0
  -30.4297  -29.1261   22.5481 C   0  0  0  0  0  0  0  0  0  0  0  0
  -32.0775  -27.6452   21.4016 C   0  0  0  0  0  0  0  0  0  0  0  0
  -27.7009  -29.5841   16.5070 C   0  0  0  0  0  0  0  0  0  0  0  0
  -18.2536  -24.8358   23.7086 C   0  0  0  0  0  0  0  0  0  0  0  0
  -22.4721  -26.3943   21.5468 C   0  0  0  0  0  0  0  0  0  1  0  0
  -18.9540  -22.5761   26.6597 C   0  0  0  0  0  0  0  0  0  0  0  0
  -15.5856  -23.2495   26.5199 C   0  0  0  0  0  0  0  0  0  0  0  0
  -18.0504  -23.3572   25.7114 C   0  0  2  0  0  0  0  0  0  0  0  0
  -29.6638  -27.6294   20.6496 C   0  0  1  0  0  0  0  0  0  0  0  0
  -29.3808  -30.4543   18.1378 C   0  0  2  0  0  0  0  0  0  0  0  0
  -30.6117  -27.7483   21.8763 C   0  0  0  0  0  0  0  0  0  0  0  0
  -20.5530  -27.8692   21.7380 N   0  0  0  0  0  0  0  0  0  0  0  0
  -22.6252  -16.7608   22.1305 N   0  0  0  0  0  0  0  0  0  0  0  0
  -21.4623  -17.4322   22.1839 N   0  0  0  0  0  0  0  0  0  0  0  0
  -28.6087  -25.5176   19.9072 N   0  0  0  0  0  0  0  0  0  0  0  0
  -21.1170  -20.1457   24.8498 N   0  0  0  0  0  0  0  0  0  0  0  0
  -19.1633  -17.2744   21.6360 N   0  0  0  0  0  0  0  0  0  0  0  0
  -20.8402  -13.3192   20.2431 N   0  0  0  0  0  0  0  0  0  0  0  0
  -28.9974  -21.9220   20.3733 N   0  0  0  0  0  0  0  0  0  0  0  0
  -29.8902  -28.6374   19.6195 N   0  0  0  0  0  0  0  0  0  0  0  0
  -20.0595  -21.9301   25.9878 N   0  0  0  0  0  0  0  0  0  0  0  0
  -28.2761  -30.7719   17.1892 N   0  3  0  0  0  0  0  0  0  0  0  0
  -18.8622  -24.3677   24.9846 N   0  3  0  0  0  0  0  0  0  0  0  0
  -18.9347  -14.5870   20.3861 O   0  0  0  0  0  0  0  0  0  0  0  0
  -28.7949  -23.7752   21.7687 O   0  0  0  0  0  0  0  0  0  0  0  0
  -17.0013  -25.1602   26.9185 O   0  0  0  0  0  0  0  0  0  0  0  0
  -30.8615  -25.9453   19.4852 O   0  0  0  0  0  0  0  0  0  0  0  0
  -27.7469  -29.5219   19.6537 O   0  0  0  0  0  0  0  0  0  0  0  0
  -18.9235  -19.9804   25.5843 O   0  0  0  0  0  0  0  0  0  0  0  0
  -26.1489  -11.6743   20.6271 O   0  0  0  0  0  0  0  0  0  0  0  0
  -22.4846  -25.3112   20.6177 O   0  0  0  0  0  0  0  0  0  1  0  0
  -30.9782  -13.2691   18.4967 F   0  0  0  0  0  0  0  0  0  0  0  0
  -27.7531  -13.4932   21.9541 F   0  0  0  0  0  0  0  0  0  0  0  0
  1  2  1  0  0  0  0
  1  5  2  0  0  0  0
  2  6  2  0  0  0  0
  3  8  2  0  0  0  0
  3 18  1  0  0  0  0
  4  9  1  0  0  0  0
  4 18  2  0  0  0  0
  5 20  1  0  0  0  0
  6 22  1  0  0  0  0
  7 10  2  0  0  0  0
  7 21  1  0  0  0  0
  8 25  1  0  0  0  0
  9 25  2  0  0  0  0
 10 26  1  0  0  0  0
 11 12  2  0  0  0  0
 11 27  1  0  0  0  0
 12 28  1  0  0  0  0
 13 17  2  0  0  0  0
 13 24  1  0  0  0  0
 14 23  1  0  0  0  0
 14 26  2  0  0  0  0
 15 24  2  0  0  0  0
 15 31  1  0  0  0  0
 16 28  2  0  0  0  0
 16 29  1  0  0  0  0
 17 66  1  0  0  0  0
 18 30  1  0  0  0  0
 19 30  1  0  0  0  0
 19 32  2  0  0  0  0
 19 33  1  0  0  0  0
 20 22  2  0  0  0  0
 20 39  1  0  0  0  0
 21 23  2  0  0  0  0
 21 40  1  0  0  0  0
 22 48  1  0  0  0  0
 23 41  1  0  0  0  0
 24 58  1  0  0  0  0
 25 84  1  0  0  0  0
 26 85  1  0  0  0  0
 27 29  2  0  0  0  0
 27 84  1  0  0  0  0
 28 86  1  0  0  0  0
 29 87  1  0  0  0  0
 30 67  2  0  0  0  0
 31 59  1  0  0  0  0
 31 66  2  0  0  0  0
 32 68  1  0  0  0  0
 32 71  1  0  0  0  0
 33 72  1  0  0  0  0
 33 78  2  0  0  0  0
 34 49  1  0  0  0  0
 34 73  1  0  0  0  0
 34 79  2  0  0  0  0
 35 61  1  0  0  0  0
 35 62  1  0  0  0  0
 35 80  2  0  0  0  0
 36 63  1  0  0  0  0
 36 69  1  0  0  0  0
 36 81  2  0  0  0  0
 37 64  1  0  0  0  0
 37 74  1  0  0  0  0
 37 82  2  0  0  0  0
 38 70  1  0  0  0  0
 38 75  1  0  0  0  0
 38 83  2  0  0  0  0
 39 42  1  0  0  0  0
 40 49  1  0  0  0  0
 41 69  1  0  0  0  0
 42 44  1  0  0  0  0
 43 45  1  0  0  0  0
 43 46  1  0  0  0  0
 44 48  1  0  0  0  0
 45 50  1  0  0  0  0
 46 70  1  0  0  0  0
 47 50  1  0  0  0  0
 47 70  1  0  0  0  0
 48 73  1  0  0  0  0
 49 69  1  0  0  0  0
 50 68  1  0  0  0  0
 51 61  1  0  0  0  0
 52 61  1  0  0  0  0
 53 64  1  0  0  0  0
 54 65  1  0  0  0  0
 55 65  1  0  0  0  0
 56 65  1  0  0  0  0
 57 76  1  0  0  0  0
 58 77  1  0  0  0  0
 59 85  1  0  0  0  0
 60 62  1  0  0  0  0
 60 75  1  0  0  0  0
 62 77  1  0  0  0  0
 63 65  1  0  0  0  0
 63 74  1  0  0  0  0
 64 76  1  0  0  0  0
 67 68  1  0  0  0  0
M  CHG  2  76   1  77   1
M  ISO  4  38 100  59 101  75 100  85 101
M  END
> <Batch ID>
0112

> <Smiles>
CNC(C)C(=O)NC(C(=O)N1Cc2cc([101O:1][101CH2:1]c3cc(CNC(C[100NH:0][100C:0](=O)N4CCCC(n5nc(-c6ccc(Oc7ccc(F)cc7F)cc6)c(C(N)=O)c5N)C4)C(=O)C(C)C)ccn3)ccc2CC1C(=O)NC1CCCc2ccccc21)C(C)(C)C

> <Shape>
0.208

> <Color>
0.052

> <Negative vol penalty>
0.000

$$$$

  -OEChem-04052320033D

 80 88  0     1  0  0  0  0  0999 V2000
  -17.6136  -26.8859   19.7702 C   0  0  0  0  0  0  0  0  0  0  0  0
  -18.5566  -27.7297   19.1922 C   0  0  0  0  0  0  0  0  0  0  0  0
  -24.0256  -13.2614   20.0845 C   0  0  0  0  0  0  0  0  0  0  0  0
  -26.2351  -13.7642   20.9226 C   0  0  0  0  0  0  0  0  0  0  0  0
  -17.5876  -26.7151   21.1537 C   0  0  0  0  0  0  0  0  0  0  0  0
  -19.4736  -28.4042   19.9976 C   0  0  0  0  0  0  0  0  0  0  0  0
  -26.5640  -27.5074   19.0961 C   0  0  0  0  0  0  0  0  0  0  0  0
  -24.3541  -11.9069   20.0309 C   0  0  0  0  0  0  0  0  0  0  0  0
  -26.5636  -12.4096   20.8691 C   0  0  0  0  0  0  0  0  0  0  0  0
  -27.9361  -27.5511   18.8480 C   0  0  0  0  0  0  0  0  0  0  0  0
  -24.4910   -8.2742   20.0150 C   0  0  0  0  0  0  0  0  0  0  0  0
  -23.5574   -7.3606   20.5040 C   0  0  0  0  0  0  0  0  0  0  0  0
  -28.2449  -29.0087   20.7528 C   0  0  0  0  0  0  0  0  0  0  0  0
  -23.6767   -8.4035   22.6801 C   0  0  0  0  0  0  0  0  0  0  0  0
  -24.9661  -14.1901   20.5303 C   0  0  0  0  0  0  0  0  0  0  0  0
  -23.5948  -16.1855   21.3337 C   0  0  0  0  0  0  0  0  0  0  0  0
  -18.5110  -27.3803   21.9756 C   0  0  0  0  0  0  0  0  0  0  0  0
  -26.0286  -28.2027   20.1839 C   0  0  0  0  0  0  0  0  0  0  0  0
  -19.4591  -28.2432   21.3935 C   0  0  0  0  0  0  0  0  0  0  0  0
  -26.8730  -28.9586   21.0136 C   0  0  0  0  0  0  0  0  0  0  0  0
  -25.6231  -11.4809   20.4232 C   0  0  0  0  0  0  0  0  0  0  0  0
  -28.7744  -28.3001   19.6742 C   0  0  0  0  0  0  0  0  0  0  0  0
  -25.0176   -9.2524   20.8585 C   0  0  0  0  0  0  0  0  0  0  0  0
  -23.1502   -7.4253   21.8366 C   0  0  0  0  0  0  0  0  0  0  0  0
  -24.6105   -9.3171   22.1911 C   0  0  0  0  0  0  0  0  0  0  0  0
  -24.6276  -15.5895   20.5854 C   0  0  0  0  0  0  0  0  0  0  0  0
  -23.6901  -17.5248   21.0445 C   0  0  0  0  0  0  0  0  0  0  0  0
  -22.6352  -15.5824   22.2119 C   0  0  0  0  0  0  0  0  0  0  0  0
  -22.9705  -29.0958   22.1655 C   0  0  0  0  0  0  0  0  0  0  0  0
  -25.2236  -28.5877   24.1844 C   0  0  0  0  0  0  0  0  0  0  0  0
  -27.0904  -27.7833   26.9239 C   0  0  0  0  0  0  0  0  0  0  0  0
  -28.2448  -20.8623   19.3208 C   0  0  0  0  0  0  0  0  0  0  0  0
  -18.4136  -27.2009   23.4700 C   0  0  0  0  0  0  0  0  0  0  0  0
  -24.5485  -28.2339   20.4526 C   0  0  0  0  0  0  0  0  0  0  0  0
  -26.2481  -29.7185   22.1516 C   0  0  0  0  0  0  0  0  0  0  0  0
  -19.6603  -27.6611   24.2212 C   0  0  0  0  0  0  0  0  0  0  0  0
  -25.0897  -20.5179   17.5818 C   0  0  0  0  0  0  0  0  0  0  0  0
  -20.1126  -29.0282   23.7179 C   0  0  0  0  0  0  0  0  0  0  0  0
  -24.5170  -19.2598   18.2371 C   0  0  0  0  0  0  0  0  0  0  0  0
  -30.4298  -23.5733   18.0612 C   0  0  0  0  0  0  0  0  0  0  0  0
  -29.0121  -23.9435   20.1138 C   0  0  0  0  0  0  0  0  0  0  0  0
  -26.6009  -20.4082   17.4015 C   0  0  0  0  0  0  0  0  0  0  0  0
  -26.7810  -18.8624   19.3124 C   0  0  0  0  0  0  0  0  0  0  0  0
  -31.4601  -24.5552   18.6037 C   0  0  0  0  0  0  0  0  0  0  0  0
  -30.0490  -24.9245   20.6451 C   0  0  0  0  0  0  0  0  0  0  0  0
  -20.4863  -28.9730   22.2316 C   0  0  1  0  0  0  0  0  0  0  0  0
  -24.2084  -28.2747   21.9532 C   0  0  1  0  0  0  0  0  0  0  0  0
  -25.2600  -18.9204   19.5429 C   0  0  2  0  0  0  0  0  0  0  0  0
  -29.6445  -22.9031   19.1892 C   0  0  0  0  0  0  0  0  0  0  0  0
  -27.3088  -28.2805   29.3739 C   0  0  0  0  0  0  0  0  0  0  0  0
  -31.8769  -28.9909   20.9362 C   0  0  0  0  0  0  0  0  0  0  0  0
  -26.5048  -31.2751   23.5210 C   0  0  0  0  0  0  0  0  0  0  0  0
  -27.5249  -31.2730   25.8074 C   0  0  0  0  0  0  0  0  0  0  0  0
  -25.0436  -31.2883   25.5506 C   0  0  0  0  0  0  0  0  0  0  0  0
  -26.5886  -24.9610   27.6598 C   0  0  0  0  0  0  0  0  0  0  0  0
  -31.7273  -26.6335   19.9542 C   0  0  0  0  0  0  0  0  0  0  0  0
  -26.3318  -29.1790   25.0184 C   0  0  1  0  0  0  0  0  0  0  0  0
  -26.6914  -27.3655   28.3277 C   0  0  2  0  0  0  0  0  0  0  0  0
  -30.9747  -27.8588   20.4627 C   0  0  2  0  0  0  0  0  0  1  0  0
  -26.3561  -30.7324   24.9563 C   0  0  0  0  0  0  0  0  0  0  0  0
  -25.3274  -16.4774   19.8741 N   0  0  0  0  0  0  0  0  0  0  0  0
  -24.7333  -17.6449   20.1741 N   0  0  0  0  0  0  0  0  0  0  0  0
  -25.2345  -28.8844   22.8160 N   0  0  0  0  0  0  0  0  0  0  0  0
  -27.2495  -20.1023   18.6844 N   0  0  0  0  0  0  0  0  0  0  0  0
  -22.9824  -18.5997   21.4523 N   0  0  0  0  0  0  0  0  0  0  0  0
  -22.9611  -15.4511   23.5687 N   0  0  0  0  0  0  0  0  0  0  0  0
  -21.7945  -28.3779   22.0612 N   0  0  0  0  0  0  0  0  0  0  0  0
  -26.1646  -28.6372   26.3626 N   0  0  0  0  0  0  0  0  0  0  0  0
  -28.6374  -22.0181   18.6570 N   0  0  0  0  0  0  0  0  0  0  0  0
  -30.7733  -25.5684   19.4875 N   0  3  0  0  0  0  0  0  0  0  0  0
  -27.1395  -25.9706   28.6001 N   0  3  0  0  0  0  0  0  0  0  0  0
  -21.5284  -15.1572   21.8024 O   0  0  0  0  0  0  0  0  0  0  0  0
  -23.0735  -30.2927   22.4076 O   0  0  0  0  0  0  0  0  0  0  0  0
  -24.3669  -27.8862   24.7297 O   0  0  0  0  0  0  0  0  0  0  0  0
  -28.1221  -27.3942   26.3811 O   0  0  0  0  0  0  0  0  0  0  0  0
  -28.7434  -20.5377   20.4040 O   0  0  0  0  0  0  0  0  0  0  0  0
  -25.9439  -10.1592   20.3713 O   0  0  0  0  0  0  0  0  0  0  0  0
  -30.1136  -28.3347   19.4290 O   0  0  0  0  0  0  0  0  0  1  0  0
  -22.2524   -6.5489   22.3056 F   0  0  0  0  0  0  0  0  0  0  0  0
  -25.1119  -10.2554   23.0059 F   0  0  0  0  0  0  0  0  0  0  0  0
  1  2  1  0  0  0  0
  1  5  2  0  0  0  0
  2  6  2  0  0  0  0
  3  8  2  0  0  0  0
  3 15  1  0  0  0  0
  4  9  1  0  0  0  0
  4 15  2  0  0  0  0
  5 17  1  0  0  0  0
  6 19  1  0  0  0  0
  7 10  2  0  0  0  0
  7 18  1  0  0  0  0
  8 21  1  0  0  0  0
  9 21  2  0  0  0  0
 10 22  1  0  0  0  0
 11 12  2  0  0  0  0
 11 23  1  0  0  0  0
 12 24  1  0  0  0  0
 13 20  1  0  0  0  0
 13 22  2  0  0  0  0
 14 24  2  0  0  0  0
 14 25  1  0  0  0  0
 15 26  1  0  0  0  0
 16 26  1  0  0  0  0
 16 27  2  0  0  0  0
 16 28  1  0  0  0  0
 17 19  2  0  0  0  0
 17 33  1  0  0  0  0
 18 20  2  0  0  0  0
 18 34  1  0  0  0  0
 19 46  1  0  0  0  0
 20 35  1  0  0  0  0
 21 77  1  0  0  0  0
 22 78  1  0  0  0  0
 23 25  2  0  0  0  0
 23 77  1  0  0  0  0
 24 79  1  0  0  0  0
 25 80  1  0  0  0  0
 26 61  2  0  0  0  0
 27 62  1  0  0  0  0
 27 65  1  0  0  0  0
 28 66  1  0  0  0  0
 28 72  2  0  0  0  0
 29 47  1  0  0  0  0
 29 67  1  0  0  0  0
 29 73  2  0  0  0  0
 30 57  1  0  0  0  0
 30 63  1  0  0  0  0
 30 74  2  0  0  0  0
 31 58  1  0  0  0  0
 31 68  1  0  0  0  0
 31 75  2  0  0  0  0
 32 64  1  0  0  0  0
 32 69  1  0  0  0  0
 32 76  2  0  0  0  0
 33 36  1  0  0  0  0
 34 47  1  0  0  0  0
 35 63  1  0  0  0  0
 36 38  1  0  0  0  0
 37 39  1  0  0  0  0
 37 42  1  0  0  0  0
 38 46  1  0  0  0  0
 39 48  1  0  0  0  0
 40 44  1  0  0  0  0
 40 49  1  0  0  0  0
 41 45  1  0  0  0  0
 41 49  1  0  0  0  0
 42 64  1  0  0  0  0
 43 48  1  0  0  0  0
 43 64  1  0  0  0  0
 44 70  1  0  0  0  0
 45 70  1  0  0  0  0
 46 67  1  0  0  0  0
 47 63  1  0  0  0  0
 48 62  1  0  0  0  0
 49 69  1  0  0  0  0
 50 58  1  0  0  0  0
 51 59  1  0  0  0  0
 52 60  1  0  0  0  0
 53 60  1  0  0  0  0
 54 60  1  0  0  0  0
 55 71  1  0  0  0  0
 56 59  1  0  0  0  0
 56 70  1  0  0  0  0
 57 60  1  0  0  0  0
 57 68  1  0  0  0  0
 58 71  1  0  0  0  0
 59 78  1  0  0  0  0
 61 62  1  0  0  0  0
M  CHG  2  70   1  71   1
M  ISO  4  32 100  59 101  69 100  78 101
M  END
> <Batch ID>
0112

> <Smiles>
CNC(C)C(=O)NC(C(=O)N1Cc2cc([101O:1][101CH:1](C)CN3CCC([100NH:0][100C:0](=O)N4CCCC(n5nc(-c6ccc(Oc7ccc(F)cc7F)cc6)c(C(N)=O)c5N)C4)CC3)ccc2CC1C(=O)NC1CCCc2ccccc21)C(C)(C)C

> <Shape>
0.286

> <Color>
0.081

> <Negative vol penalty>
0.000

$$$$

  -OEChem-04052320033D

 85 93  0     1  0  0  0  0  0999 V2000
  -28.6278  -23.6339   17.5015 C   0  0  0  0  0  0  0  0  0  0  0  0
  -27.4682  -24.3670   17.7267 C   0  0  0  0  0  0  0  0  0  0  0  0
  -28.5033  -18.6050   22.4059 C   0  0  0  0  0  0  0  0  0  0  0  0
  -26.6916  -17.7951   21.0279 C   0  0  0  0  0  0  0  0  0  0  0  0
  -29.7048  -23.7539   18.3773 C   0  0  0  0  0  0  0  0  0  0  0  0
  -27.3894  -25.2292   18.8209 C   0  0  0  0  0  0  0  0  0  0  0  0
  -23.4068  -28.1019   19.1207 C   0  0  0  0  0  0  0  0  0  0  0  0
  -29.3928  -17.7743   21.7247 C   0  0  0  0  0  0  0  0  0  0  0  0
  -27.5812  -16.9644   20.3465 C   0  0  0  0  0  0  0  0  0  0  0  0
  -22.1440  -27.6081   19.4449 C   0  0  0  0  0  0  0  0  0  0  0  0
  -29.1109  -13.9942   20.8649 C   0  0  0  0  0  0  0  0  0  0  0  0
  -28.7164  -12.6774   20.6285 C   0  0  0  0  0  0  0  0  0  0  0  0
  -22.3764  -28.4954   21.6760 C   0  0  0  0  0  0  0  0  0  0  0  0
  -28.9147  -13.0453   18.2489 C   0  0  0  0  0  0  0  0  0  0  0  0
  -27.1526  -18.6154   22.0576 C   0  0  0  0  0  0  0  0  0  0  0  0
  -25.8879  -20.7983   22.4359 C   0  0  0  0  0  0  0  0  0  0  0  0
  -29.6338  -24.6089   19.4895 C   0  0  0  0  0  0  0  0  0  0  0  0
  -24.1698  -28.7878   20.0766 C   0  0  0  0  0  0  0  0  0  0  0  0
  -28.4745  -25.3822   19.7028 C   0  0  0  0  0  0  0  0  0  0  0  0
  -23.6476  -28.9991   21.3606 C   0  0  0  0  0  0  0  0  0  0  0  0
  -28.9318  -16.9540   20.6949 C   0  0  0  0  0  0  0  0  0  0  0  0
  -21.6298  -27.8023   20.7235 C   0  0  0  0  0  0  0  0  0  0  0  0
  -29.4073  -14.8366   19.7934 C   0  0  0  0  0  0  0  0  0  0  0  0
  -28.6182  -12.2029   19.3205 C   0  0  0  0  0  0  0  0  0  0  0  0
  -29.3092  -14.3621   18.4854 C   0  0  0  0  0  0  0  0  0  0  0  0
  -26.2330  -19.4728   22.7613 C   0  0  0  0  0  0  0  0  0  0  0  0
  -24.9858  -21.1658   23.4042 C   0  0  0  0  0  0  0  0  0  0  0  0
  -26.3419  -21.6234   21.3548 C   0  0  0  0  0  0  0  0  0  0  0  0
  -26.9829  -28.2983   21.4732 C   0  0  0  0  0  0  0  0  0  0  0  0
  -26.4300  -31.2359   22.7329 C   0  0  0  0  0  0  0  0  0  0  0  0
  -24.1635  -33.6287   23.6188 C   0  0  0  0  0  0  0  0  0  0  0  0
  -20.5270  -20.0604   26.5732 C   0  0  0  0  0  0  0  0  0  0  0  0
  -30.8318  -24.7063   20.4008 C   0  0  0  0  0  0  0  0  0  0  0  0
  -25.5191  -29.3376   19.7031 C   0  0  0  0  0  0  0  0  0  0  0  0
  -24.4182  -29.7466   22.4170 C   0  0  0  0  0  0  0  0  0  0  0  0
  -30.4943  -25.2987   21.7651 C   0  0  0  0  0  0  0  0  0  0  0  0
  -23.6833  -18.8839   27.7266 C   0  0  0  0  0  0  0  0  0  0  0  0
  -29.6970  -26.5827   21.5915 C   0  0  0  0  0  0  0  0  0  0  0  0
  -24.5973  -19.0358   26.5094 C   0  0  0  0  0  0  0  0  0  0  0  0
  -17.9748  -21.3124   21.3443 C   0  0  0  0  0  0  0  0  0  0  0  0
  -22.2703  -18.4683   27.3230 C   0  0  0  0  0  0  0  0  0  0  0  0
  -18.6666  -22.5476   20.7658 C   0  0  0  0  0  0  0  0  0  0  0  0
  -22.5484  -19.4870   25.0962 C   0  0  0  0  0  0  0  0  0  0  0  0
  -18.5867  -22.8553   23.0816 C   0  0  0  0  0  0  0  0  0  0  0  0
  -28.3548  -26.3032   20.9035 C   0  0  1  0  0  0  0  0  0  0  0  0
  -26.4229  -29.5735   20.9093 C   0  0  1  0  0  0  0  0  0  0  0  0
  -23.9693  -19.9594   25.4484 C   0  0  2  0  0  0  0  0  0  0  0  0
  -17.6574  -21.6960   22.7825 C   0  0  2  0  0  0  0  0  0  0  0  0
  -24.0093  -35.9067   24.6599 C   0  0  0  0  0  0  0  0  0  0  0  0
  -15.6734  -19.5096   23.8095 C   0  0  0  0  0  0  0  0  0  0  0  0
  -17.7786  -18.1255   23.9718 C   0  0  0  0  0  0  0  0  0  0  0  0
  -26.9059  -30.0076   25.4852 C   0  0  0  0  0  0  0  0  0  0  0  0
  -25.8287  -32.0288   26.4965 C   0  0  0  0  0  0  0  0  0  0  0  0
  -27.9227  -32.2696   25.1623 C   0  0  0  0  0  0  0  0  0  0  0  0
  -22.9585  -34.7900   21.1778 C   0  0  0  0  0  0  0  0  0  0  0  0
  -19.1213  -25.8521   22.4737 C   0  0  0  0  0  0  0  0  0  0  0  0
  -19.5518  -24.6079   21.7036 C   0  0  0  0  0  0  0  0  0  0  0  0
  -18.8715  -21.6845   25.6894 C   0  0  0  0  0  0  0  0  0  0  0  0
  -17.6649  -20.9365   25.1540 C   0  0  0  0  0  0  0  0  0  0  0  0
  -20.1788  -26.9466   22.4024 C   0  0  0  0  0  0  0  0  0  1  0  0
  -25.7498  -31.7551   23.9766 C   0  0  1  0  0  0  0  0  0  0  0  0
  -24.1249  -35.1242   23.3611 C   0  0  2  0  0  0  0  0  0  0  0  0
  -17.1063  -19.3309   23.3344 C   0  0  0  0  0  0  0  0  0  0  0  0
  -26.5878  -31.4995   25.2610 C   0  0  0  0  0  0  0  0  0  0  0  0
  -25.6019  -19.0285   23.8514 N   0  0  0  0  0  0  0  0  0  0  0  0
  -24.8511  -20.0806   24.2193 N   0  0  0  0  0  0  0  0  0  0  0  0
  -25.7354  -30.2593   22.0052 N   0  0  0  0  0  0  0  0  0  0  0  0
  -21.7318  -19.3856   26.3159 N   0  0  0  0  0  0  0  0  0  0  0  0
  -18.5340  -23.5733   21.8057 N   0  0  1  0  0  0  0  0  0  0  0  0
  -24.3028  -22.3082   23.6296 N   0  0  0  0  0  0  0  0  0  0  0  0
  -27.2697  -21.0889   20.4505 N   0  0  0  0  0  0  0  0  0  0  0  0
  -27.7245  -27.5614   20.5696 N   0  0  0  0  0  0  0  0  0  0  0  0
  -25.4567  -33.1619   23.7245 N   0  0  0  0  0  0  0  0  0  0  0  0
  -20.0903  -20.9158   25.5690 N   0  0  0  0  0  0  0  0  0  0  0  0
  -22.9606  -35.4712   22.4980 N   0  3  0  0  0  0  0  0  0  0  0  0
  -17.8922  -20.5696   23.7040 N   0  3  1  0  0  0  0  0  0  0  0  0
  -25.9493  -22.8053   21.2050 O   0  0  0  0  0  0  0  0  0  0  0  0
  -26.7599  -28.0054   22.6420 O   0  0  0  0  0  0  0  0  0  0  0  0
  -27.5337  -31.6857   22.4148 O   0  0  0  0  0  0  0  0  0  0  0  0
  -23.1481  -32.9438   23.7201 O   0  0  0  0  0  0  0  0  0  0  0  0
  -19.8906  -19.9157   27.6225 O   0  0  0  0  0  0  0  0  0  0  0  0
  -29.7997  -16.1435   20.0298 O   0  0  0  0  0  0  0  0  0  0  0  0
  -20.3977  -27.3207   21.0428 O   0  0  0  0  0  0  0  0  0  1  0  0
  -28.2408  -10.9379   19.0936 F   0  0  0  0  0  0  0  0  0  0  0  0
  -29.5938  -15.1664   17.4519 F   0  0  0  0  0  0  0  0  0  0  0  0
  1  2  1  0  0  0  0
  1  5  2  0  0  0  0
  2  6  2  0  0  0  0
  3  8  2  0  0  0  0
  3 15  1  0  0  0  0
  4  9  1  0  0  0  0
  4 15  2  0  0  0  0
  5 17  1  0  0  0  0
  6 19  1  0  0  0  0
  7 10  2  0  0  0  0
  7 18  1  0  0  0  0
  8 21  1  0  0  0  0
  9 21  2  0  0  0  0
 10 22  1  0  0  0  0
 11 12  2  0  0  0  0
 11 23  1  0  0  0  0
 12 24  1  0  0  0  0
 13 20  1  0  0  0  0
 13 22  2  0  0  0  0
 14 24  2  0  0  0  0
 14 25  1  0  0  0  0
 15 26  1  0  0  0  0
 16 26  1  0  0  0  0
 16 27  2  0  0  0  0
 16 28  1  0  0  0  0
 17 19  2  0  0  0  0
 17 33  1  0  0  0  0
 18 20  2  0  0  0  0
 18 34  1  0  0  0  0
 19 45  1  0  0  0  0
 20 35  1  0  0  0  0
 21 82  1  0  0  0  0
 22 83  1  0  0  0  0
 23 25  2  0  0  0  0
 23 82  1  0  0  0  0
 24 84  1  0  0  0  0
 25 85  1  0  0  0  0
 26 65  2  0  0  0  0
 27 66  1  0  0  0  0
 27 70  1  0  0  0  0
 28 71  1  0  0  0  0
 28 77  2  0  0  0  0
 29 46  1  0  0  0  0
 29 72  1  0  0  0  0
 29 78  2  0  0  0  0
 30 61  1  0  0  0  0
 30 67  1  0  0  0  0
 30 79  2  0  0  0  0
 31 62  1  0  0  0  0
 31 73  1  0  0  0  0
 31 80  2  0  0  0  0
 32 68  1  0  0  0  0
 32 74  1  0  0  0  0
 32 81  2  0  0  0  0
 33 36  1  0  0  0  0
 34 46  1  0  0  0  0
 35 67  1  0  0  0  0
 36 38  1  0  0  0  0
 37 39  1  0  0  0  0
 37 41  1  0  0  0  0
 38 45  1  0  0  0  0
 39 47  1  0  0  0  0
 40 42  1  0  0  0  0
 40 48  1  0  0  0  0
 41 68  1  0  0  0  0
 42 69  1  0  0  0  0
 43 47  1  0  0  0  0
 43 68  1  0  0  0  0
 44 48  1  0  0  0  0
 44 69  1  0  0  0  0
 45 72  1  0  0  0  0
 46 67  1  0  0  0  0
 47 66  1  0  0  0  0
 48 76  1  0  0  0  0
 49 62  1  0  0  0  0
 50 63  1  0  0  0  0
 51 63  1  0  0  0  0
 52 64  1  0  0  0  0
 53 64  1  0  0  0  0
 54 64  1  0  0  0  0
 55 75  1  0  0  0  0
 56 57  1  0  0  0  0
 56 60  1  0  0  0  0
 57 69  1  0  0  0  0
 58 59  1  0  0  0  0
 58 74  1  0  0  0  0
 59 76  1  0  0  0  0
 60 83  1  0  0  0  0
 61 64  1  0  0  0  0
 61 73  1  0  0  0  0
 62 75  1  0  0  0  0
 63 76  1  0  0  0  0
 65 66  1  0  0  0  0
M  CHG  2  75   1  76   1
M  ISO  4  32 100  60 101  74 100  83 101
M  END
> <Batch ID>
0112

> <Smiles>
CNC(C)C(=O)NC(C(=O)N1Cc2cc([101O:1][101CH2:1]CCN3CCC(N(CC[100NH:0][100C:0](=O)N4CCCC(n5nc(-c6ccc(Oc7ccc(F)cc7F)cc6)c(C(N)=O)c5N)C4)C(C)C)C3)ccc2CC1C(=O)NC1CCCc2ccccc21)C(C)(C)C

> <Shape>
0.240

> <Color>
0.056

> <Negative vol penalty>
0.000

$$$$

  -OEChem-04052320033D

 84 92  0     1  0  0  0  0  0999 V2000
  -38.0115  -19.5032   24.0481 C   0  0  0  0  0  0  0  0  0  0  0  0
  -36.6874  -19.1437   23.8187 C   0  0  0  0  0  0  0  0  0  0  0  0
  -23.1892   -9.8188   19.9320 C   0  0  0  0  0  0  0  0  0  0  0  0
  -23.5633  -10.0008   22.3119 C   0  0  0  0  0  0  0  0  0  0  0  0
  -38.3987  -19.9688   25.3040 C   0  0  0  0  0  0  0  0  0  0  0  0
  -35.7497  -19.2484   24.8454 C   0  0  0  0  0  0  0  0  0  0  0  0
  -31.4044  -21.3415   23.3019 C   0  0  0  0  0  0  0  0  0  0  0  0
  -22.4210   -8.6734   20.1403 C   0  0  0  0  0  0  0  0  0  0  0  0
  -22.7951   -8.8553   22.5202 C   0  0  0  0  0  0  0  0  0  0  0  0
  -30.5235  -20.5283   22.5901 C   0  0  0  0  0  0  0  0  0  0  0  0
  -23.1924   -5.5079   22.2597 C   0  0  0  0  0  0  0  0  0  0  0  0
  -23.6879   -4.5467   23.1407 C   0  0  0  0  0  0  0  0  0  0  0  0
  -29.2219  -20.1950   24.5936 C   0  0  0  0  0  0  0  0  0  0  0  0
  -31.1159  -15.8382   22.2093 C   0  0  0  0  0  0  0  0  0  0  0  0
  -21.7291   -4.8104   24.5302 C   0  0  0  0  0  0  0  0  0  0  0  0
  -29.6654  -16.3474   24.0240 C   0  0  0  0  0  0  0  0  0  0  0  0
  -23.7604  -10.4825   21.0178 C   0  0  0  0  0  0  0  0  0  0  0  0
  -24.1028  -12.9985   20.7725 C   0  0  0  0  0  0  0  0  0  0  0  0
  -37.4633  -20.0885   26.3439 C   0  0  0  0  0  0  0  0  0  0  0  0
  -31.2064  -21.5791   24.6696 C   0  0  0  0  0  0  0  0  0  0  0  0
  -36.1249  -19.7148   26.1168 C   0  0  0  0  0  0  0  0  0  0  0  0
  -30.1003  -21.0137   25.3199 C   0  0  0  0  0  0  0  0  0  0  0  0
  -29.9092  -16.3614   22.6602 C   0  0  0  0  0  0  0  0  0  0  0  0
  -32.0292  -15.3243   23.1232 C   0  0  0  0  0  0  0  0  0  0  0  0
  -22.2240   -8.1916   21.4344 C   0  0  0  0  0  0  0  0  0  0  0  0
  -29.4337  -19.9526   23.2366 C   0  0  0  0  0  0  0  0  0  0  0  0
  -21.9652   -6.1204   22.5140 C   0  0  0  0  0  0  0  0  0  0  0  0
  -22.9562   -4.1979   24.2759 C   0  0  0  0  0  0  0  0  0  0  0  0
  -21.2336   -5.7716   23.6492 C   0  0  0  0  0  0  0  0  0  0  0  0
  -24.5544  -11.6656   20.8032 C   0  0  0  0  0  0  0  0  0  0  0  0
  -31.6907  -15.3570   24.4664 C   0  0  0  0  0  0  0  0  0  0  0  0
  -25.2353  -13.7395   20.5387 C   0  0  0  0  0  0  0  0  0  0  0  0
  -22.7779  -13.5203   20.9404 C   0  0  0  0  0  0  0  0  0  0  0  0
  -32.8666  -20.9813   27.3135 C   0  0  0  0  0  0  0  0  0  0  0  0
  -30.5165  -22.7226   28.7161 C   0  0  0  0  0  0  0  0  0  0  0  0
  -27.3066  -23.8763   28.6060 C   0  0  0  0  0  0  0  0  0  0  0  0
  -30.9296  -12.6912   21.6930 C   0  0  0  0  0  0  0  0  0  0  0  0
  -37.9386  -20.5520   27.6981 C   0  0  0  0  0  0  0  0  0  0  0  0
  -32.1507  -22.4803   25.4171 C   0  0  0  0  0  0  0  0  0  0  0  0
  -29.8318  -21.2540   26.7823 C   0  0  0  0  0  0  0  0  0  0  0  0
  -36.8065  -20.9879   28.6246 C   0  0  0  0  0  0  0  0  0  0  0  0
  -29.5297  -13.4562   18.4445 C   0  0  0  0  0  0  0  0  0  0  0  0
  -35.6750  -19.9651   28.6029 C   0  0  0  0  0  0  0  0  0  0  0  0
  -28.0404  -13.2063   18.6886 C   0  0  0  0  0  0  0  0  0  0  0  0
  -30.3903  -12.4440   19.1948 C   0  0  0  0  0  0  0  0  0  0  0  0
  -28.6457  -12.1344   20.9077 C   0  0  0  0  0  0  0  0  0  0  0  0
  -35.0734  -19.8378   27.1981 C   0  0  1  0  0  0  0  0  0  0  0  0
  -32.1414  -22.2380   26.9233 C   0  0  1  0  0  0  0  0  0  0  0  0
  -27.7229  -13.1391   20.1942 C   0  0  2  0  0  0  0  0  0  0  0  0
  -32.6333  -14.8198   25.4932 C   0  0  0  0  0  0  0  0  0  0  0  0
  -25.6593  -25.2449   29.9139 C   0  0  0  0  0  0  0  0  0  0  0  0
  -34.6101  -12.7295   21.8391 C   0  0  0  0  0  0  0  0  0  0  0  0
  -28.3955  -18.8724   20.1733 C   0  0  0  0  0  0  0  0  0  0  0  0
  -30.1031  -20.3867   30.6351 C   0  0  0  0  0  0  0  0  0  0  0  0
  -27.8935  -21.3832   31.2618 C   0  0  0  0  0  0  0  0  0  0  0  0
  -29.9993  -22.6454   31.7036 C   0  0  0  0  0  0  0  0  0  0  0  0
  -27.0530  -25.8642   26.4281 C   0  0  0  0  0  0  0  0  0  0  0  0
  -28.8959  -16.9280   21.6937 C   0  0  0  0  0  0  0  0  0  0  0  0
  -33.3233  -14.7606   22.6467 C   0  0  0  0  0  0  0  0  0  0  0  0
  -29.1720  -22.4081   29.3263 C   0  0  1  0  0  0  0  0  0  0  0  0
  -26.7256  -25.2608   28.8297 C   0  0  2  0  0  0  0  0  0  0  0  0
  -33.2622  -13.2501   22.3281 C   0  0  1  0  0  0  0  0  0  0  0  0
  -29.1079  -18.4249   21.4433 C   0  0  2  0  0  0  0  0  0  1  0  0
  -29.2978  -21.6996   30.7046 C   0  0  0  0  0  0  0  0  0  0  0  0
  -30.5282  -15.8570   24.9421 N   0  0  0  0  0  0  0  0  0  0  0  0
  -25.8712  -11.5626   20.6046 N   0  0  0  0  0  0  0  0  0  0  0  0
  -26.2567  -12.8403   20.4468 N   0  0  0  0  0  0  0  0  0  0  0  0
  -30.7872  -22.1373   27.4712 N   0  0  0  0  0  0  0  0  0  0  0  0
  -30.0514  -12.4431   20.6249 N   0  0  0  0  0  0  0  0  0  0  0  0
  -25.4472  -15.0660   20.4047 N   0  0  0  0  0  0  0  0  0  0  0  0
  -21.7297  -12.6196   21.1733 N   0  0  0  0  0  0  0  0  0  0  0  0
  -34.1918  -20.9520   26.9230 N   0  0  0  0  0  0  0  0  0  0  0  0
  -28.4374  -23.6679   29.3669 N   0  0  0  0  0  0  0  0  0  0  0  0
  -32.2446  -12.9686   21.3401 N   0  0  0  0  0  0  0  0  0  0  0  0
  -26.1105  -25.7738   27.5729 N   0  3  0  0  0  0  0  0  0  0  0  0
  -22.5284  -14.7476   20.8693 O   0  0  0  0  0  0  0  0  0  0  0  0
  -32.2685  -20.1037   27.9251 O   0  0  0  0  0  0  0  0  0  0  0  0
  -31.2950  -23.4661   29.3185 O   0  0  0  0  0  0  0  0  0  0  0  0
  -26.8052  -23.0600   27.8361 O   0  0  0  0  0  0  0  0  0  0  0  0
  -30.5672  -12.6723   22.8743 O   0  0  0  0  0  0  0  0  0  0  0  0
  -21.4743   -7.0740   21.6380 O   0  0  0  0  0  0  0  0  0  0  0  0
  -28.5727  -19.1580   22.5444 O   0  0  0  0  0  0  0  0  0  1  0  0
  -23.4315   -3.2737   25.1210 F   0  0  0  0  0  0  0  0  0  0  0  0
  -20.0535   -6.3558   23.8982 F   0  0  0  0  0  0  0  0  0  0  0  0
  1  2  1  0  0  0  0
  1  5  2  0  0  0  0
  2  6  2  0  0  0  0
  3  8  2  0  0  0  0
  3 17  1  0  0  0  0
  4  9  1  0  0  0  0
  4 17  2  0  0  0  0
  5 19  1  0  0  0  0
  6 21  1  0  0  0  0
  7 10  2  0  0  0  0
  7 20  1  0  0  0  0
  8 25  1  0  0  0  0
  9 25  2  0  0  0  0
 10 26  1  0  0  0  0
 11 12  2  0  0  0  0
 11 27  1  0  0  0  0
 12 28  1  0  0  0  0
 13 22  1  0  0  0  0
 13 26  2  0  0  0  0
 14 23  2  0  0  0  0
 14 24  1  0  0  0  0
 15 28  2  0  0  0  0
 15 29  1  0  0  0  0
 16 23  1  0  0  0  0
 16 65  2  0  0  0  0
 17 30  1  0  0  0  0
 18 30  1  0  0  0  0
 18 32  2  0  0  0  0
 18 33  1  0  0  0  0
 19 21  2  0  0  0  0
 19 38  1  0  0  0  0
 20 22  2  0  0  0  0
 20 39  1  0  0  0  0
 21 47  1  0  0  0  0
 22 40  1  0  0  0  0
 23 58  1  0  0  0  0
 24 31  2  0  0  0  0
 24 59  1  0  0  0  0
 25 81  1  0  0  0  0
 26 82  1  0  0  0  0
 27 29  2  0  0  0  0
 27 81  1  0  0  0  0
 28 83  1  0  0  0  0
 29 84  1  0  0  0  0
 30 66  2  0  0  0  0
 31 50  1  0  0  0  0
 31 65  1  0  0  0  0
 32 67  1  0  0  0  0
 32 70  1  0  0  0  0
 33 71  1  0  0  0  0
 33 76  2  0  0  0  0
 34 48  1  0  0  0  0
 34 72  1  0  0  0  0
 34 77  2  0  0  0  0
 35 60  1  0  0  0  0
 35 68  1  0  0  0  0
 35 78  2  0  0  0  0
 36 61  1  0  0  0  0
 36 73  1  0  0  0  0
 36 79  2  0  0  0  0
 37 69  1  0  0  0  0
 37 74  1  0  0  0  0
 37 80  2  0  0  0  0
 38 41  1  0  0  0  0
 39 48  1  0  0  0  0
 40 68  1  0  0  0  0
 41 43  1  0  0  0  0
 42 44  1  0  0  0  0
 42 45  1  0  0  0  0
 43 47  1  0  0  0  0
 44 49  1  0  0  0  0
 45 69  1  0  0  0  0
 46 49  1  0  0  0  0
 46 69  1  0  0  0  0
 47 72  1  0  0  0  0
 48 68  1  0  0  0  0
 49 67  1  0  0  0  0
 51 61  1  0  0  0  0
 52 62  1  0  0  0  0
 53 63  1  0  0  0  0
 54 64  1  0  0  0  0
 55 64  1  0  0  0  0
 56 64  1  0  0  0  0
 57 75  1  0  0  0  0
 58 63  1  0  0  0  0
 59 62  1  0  0  0  0
 60 64  1  0  0  0  0
 60 73  1  0  0  0  0
 61 75  1  0  0  0  0
 62 74  1  0  0  0  0
 63 82  1  0  0  0  0
 66 67  1  0  0  0  0
M  CHG  1  75   1
M  ISO  4  37 100  63 101  74 100  82 101
M  END
> <Batch ID>
0112

> <Smiles>
CNC(C)C(=O)NC(C(=O)N1Cc2cc([101O:1][101CH:1](C)Cc3cnc(C)c(CC(C)[100NH:0][100C:0](=O)N4CCCC(n5nc(-c6ccc(Oc7ccc(F)cc7F)cc6)c(C(N)=O)c5N)C4)c3)ccc2CC1C(=O)NC1CCCc2ccccc21)C(C)(C)C

> <Shape>
0.176

> <Color>
0.186

> <Negative vol penalty>
0.000

$$$$

  -OEChem-04052320033D

 83 91  0     1  0  0  0  0  0999 V2000
  -30.7557  -33.3452   24.2728 C   0  0  0  0  0  0  0  0  0  0  0  0
  -30.7897  -32.0170   23.8604 C   0  0  0  0  0  0  0  0  0  0  0  0
  -23.0726  -13.0096   22.1867 C   0  0  0  0  0  0  0  0  0  0  0  0
  -22.6579  -11.7299   20.1799 C   0  0  0  0  0  0  0  0  0  0  0  0
  -29.5356  -33.9501   24.5718 C   0  0  0  0  0  0  0  0  0  0  0  0
  -29.6035  -31.2925   23.7480 C   0  0  0  0  0  0  0  0  0  0  0  0
  -28.3158  -26.9559   19.6199 C   0  0  0  0  0  0  0  0  0  0  0  0
  -21.7710  -13.5085   22.1376 C   0  0  0  0  0  0  0  0  0  0  0  0
  -21.3562  -12.2287   20.1308 C   0  0  0  0  0  0  0  0  0  0  0  0
  -28.3530  -25.5634   19.6795 C   0  0  0  0  0  0  0  0  0  0  0  0
  -18.6617  -12.4376   22.9238 C   0  0  0  0  0  0  0  0  0  0  0  0
  -17.9302  -12.4584   24.1113 C   0  0  0  0  0  0  0  0  0  0  0  0
  -25.9942  -25.5281   20.1837 C   0  0  0  0  0  0  0  0  0  0  0  0
  -17.7088  -14.8576   23.9329 C   0  0  0  0  0  0  0  0  0  0  0  0
  -23.5161  -12.1203   21.2078 C   0  0  0  0  0  0  0  0  0  0  0  0
  -25.3004  -10.4381   21.9108 C   0  0  0  0  0  0  0  0  0  0  0  0
  -28.3331  -33.2356   24.4536 C   0  0  0  0  0  0  0  0  0  0  0  0
  -27.1178  -27.6465   19.8529 C   0  0  0  0  0  0  0  0  0  0  0  0
  -28.3663  -31.8880   24.0470 C   0  0  0  0  0  0  0  0  0  0  0  0
  -25.9439  -26.9291   20.1240 C   0  0  0  0  0  0  0  0  0  0  0  0
  -20.9128  -13.1180   21.1097 C   0  0  0  0  0  0  0  0  0  0  0  0
  -27.1927  -24.8494   19.9643 C   0  0  0  0  0  0  0  0  0  0  0  0
  -18.9168  -13.6268   22.2408 C   0  0  0  0  0  0  0  0  0  0  0  0
  -17.4538  -13.6684   24.6158 C   0  0  0  0  0  0  0  0  0  0  0  0
  -18.4403  -14.8368   22.7454 C   0  0  0  0  0  0  0  0  0  0  0  0
  -24.8608  -11.6051   21.2576 C   0  0  0  0  0  0  0  0  0  0  0  0
  -26.6500  -10.3920   21.6602 C   0  0  0  0  0  0  0  0  0  0  0  0
  -24.5553   -9.4812   22.6756 C   0  0  0  0  0  0  0  0  0  0  0  0
  -26.1327  -29.7651   22.0081 C   0  0  0  0  0  0  0  0  0  0  0  0
  -23.4881  -29.8612   20.1322 C   0  0  0  0  0  0  0  0  0  0  0  0
  -21.5061  -28.2967   17.8364 C   0  0  0  0  0  0  0  0  0  0  0  0
  -30.6690  -14.6188   20.3278 C   0  0  0  0  0  0  0  0  0  0  0  0
  -27.0429  -33.9180   24.8334 C   0  0  0  0  0  0  0  0  0  0  0  0
  -27.0887  -29.1474   19.7585 C   0  0  0  0  0  0  0  0  0  0  0  0
  -24.6281  -27.6222   20.3618 C   0  0  0  0  0  0  0  0  0  0  0  0
  -25.7984  -33.1924   24.3284 C   0  0  0  0  0  0  0  0  0  0  0  0
  -29.9258  -11.7145   18.4596 C   0  0  0  0  0  0  0  0  0  0  0  0
  -25.8991  -31.6975   24.6145 C   0  0  0  0  0  0  0  0  0  0  0  0
  -28.5704  -11.2596   18.9937 C   0  0  0  0  0  0  0  0  0  0  0  0
  -30.4065  -17.6758   22.3976 C   0  0  0  0  0  0  0  0  0  0  0  0
  -29.9993  -13.2341   18.3955 C   0  0  0  0  0  0  0  0  0  0  0  0
  -31.2220  -16.5632   21.7573 C   0  0  0  0  0  0  0  0  0  0  0  0
  -28.9190  -16.3166   21.1287 C   0  0  0  0  0  0  0  0  0  0  0  0
  -28.4122  -13.4484   20.2889 C   0  0  0  0  0  0  0  0  0  0  0  0
  -27.0988  -31.0764   23.8890 C   0  0  1  0  0  0  0  0  0  0  0  0
  -25.9234  -29.7715   20.5202 C   0  0  1  0  0  0  0  0  0  0  0  0
  -29.1952  -17.7807   21.4703 C   0  0  1  0  0  0  0  0  0  0  0  0
  -28.2772  -11.9129   20.3532 C   0  0  1  0  0  0  0  0  0  0  0  0
  -24.2583  -19.2383   21.2720 C   0  0  0  0  0  0  0  0  0  0  0  0
  -19.3932  -28.6095   16.5190 C   0  0  0  0  0  0  0  0  0  0  0  0
  -21.8439  -29.2797   22.6359 C   0  0  0  0  0  0  0  0  0  0  0  0
  -19.9244  -28.6692   21.1489 C   0  0  0  0  0  0  0  0  0  0  0  0
  -20.8454  -30.9870   21.1053 C   0  0  0  0  0  0  0  0  0  0  0  0
  -22.9486  -28.1121   15.2587 C   0  0  0  0  0  0  0  0  0  0  0  0
  -28.0111  -18.4847   22.1087 C   0  0  0  0  0  0  0  0  0  0  0  0
  -25.5807  -19.2172   22.0275 C   0  0  0  0  0  0  0  0  0  0  0  0
  -27.6860  -21.4377   18.8508 C   0  0  0  0  0  0  0  0  0  0  0  0
  -26.9531  -19.2887   19.8916 C   0  0  0  0  0  0  0  0  0  0  0  0
  -28.1830  -22.8265   19.2007 C   0  0  0  0  0  0  0  0  0  1  0  0
  -22.1843  -29.1019   20.0827 C   0  0  1  0  0  0  0  0  0  0  0  0
  -20.9044  -28.7800   16.5291 C   0  0  2  0  0  0  0  0  0  0  0  0
  -26.7368  -18.5705   21.2324 C   0  0  1  0  0  0  0  0  0  0  0  0
  -21.2245  -29.4962   21.2407 C   0  0  0  0  0  0  0  0  0  0  0  0
  -25.8510  -12.2537   20.6388 N   0  0  0  0  0  0  0  0  0  0  0  0
  -26.9261  -11.4916   20.9020 N   0  0  0  0  0  0  0  0  0  0  0  0
  -24.6522  -29.0911   20.2649 N   0  0  0  0  0  0  0  0  0  0  0  0
  -29.6914  -13.8485   19.6883 N   0  0  0  0  0  0  0  0  0  0  0  0
  -30.2456  -15.6953   21.1062 N   0  0  0  0  0  0  0  0  0  0  0  0
  -27.6157   -9.5186   22.0168 N   0  0  0  0  0  0  0  0  0  0  0  0
  -23.1770   -9.6802   22.8344 N   0  0  0  0  0  0  0  0  0  0  0  0
  -26.7952  -30.8788   22.4879 N   0  0  0  0  0  0  0  0  0  0  0  0
  -21.6341  -29.3219   18.7496 N   0  0  0  0  0  0  0  0  0  0  0  0
  -21.4715  -28.0141   15.3834 N   0  3  0  0  0  0  0  0  0  0  0  0
  -27.4703  -20.6631   20.1032 N   0  3  0  0  0  0  0  0  0  0  0  0
  -25.0985   -8.4882   23.2162 O   0  0  0  0  0  0  0  0  0  0  0  0
  -25.7222  -28.8204   22.6719 O   0  0  0  0  0  0  0  0  0  0  0  0
  -23.4748  -31.0919   20.0487 O   0  0  0  0  0  0  0  0  0  0  0  0
  -21.8268  -27.1261   18.0295 O   0  0  0  0  0  0  0  0  0  0  0  0
  -31.8750  -14.3816   20.1763 O   0  0  0  0  0  0  0  0  0  0  0  0
  -19.6424  -13.6044   21.0616 O   0  0  0  0  0  0  0  0  0  0  0  0
  -27.2266  -23.4806   20.0242 O   0  0  0  0  0  0  0  0  0  1  0  0
  -16.7500  -13.6880   25.7553 F   0  0  0  0  0  0  0  0  0  0  0  0
  -18.6812  -15.9824   22.0931 F   0  0  0  0  0  0  0  0  0  0  0  0
  1  2  1  0  0  0  0
  1  5  2  0  0  0  0
  2  6  2  0  0  0  0
  3  8  2  0  0  0  0
  3 15  1  0  0  0  0
  4  9  1  0  0  0  0
  4 15  2  0  0  0  0
  5 17  1  0  0  0  0
  6 19  1  0  0  0  0
  7 10  2  0  0  0  0
  7 18  1  0  0  0  0
  8 21  1  0  0  0  0
  9 21  2  0  0  0  0
 10 22  1  0  0  0  0
 11 12  2  0  0  0  0
 11 23  1  0  0  0  0
 12 24  1  0  0  0  0
 13 20  1  0  0  0  0
 13 22  2  0  0  0  0
 14 24  2  0  0  0  0
 14 25  1  0  0  0  0
 15 26  1  0  0  0  0
 16 26  1  0  0  0  0
 16 27  2  0  0  0  0
 16 28  1  0  0  0  0
 17 19  2  0  0  0  0
 17 33  1  0  0  0  0
 18 20  2  0  0  0  0
 18 34  1  0  0  0  0
 19 45  1  0  0  0  0
 20 35  1  0  0  0  0
 21 80  1  0  0  0  0
 22 81  1  0  0  0  0
 23 25  2  0  0  0  0
 23 80  1  0  0  0  0
 24 82  1  0  0  0  0
 25 83  1  0  0  0  0
 26 64  2  0  0  0  0
 27 65  1  0  0  0  0
 27 69  1  0  0  0  0
 28 70  1  0  0  0  0
 28 75  2  0  0  0  0
 29 46  1  0  0  0  0
 29 71  1  0  0  0  0
 29 76  2  0  0  0  0
 30 60  1  0  0  0  0
 30 66  1  0  0  0  0
 30 77  2  0  0  0  0
 31 61  1  0  0  0  0
 31 72  1  0  0  0  0
 31 78  2  0  0  0  0
 32 67  1  0  0  0  0
 32 68  1  0  0  0  0
 32 79  2  0  0  0  0
 33 36  1  0  0  0  0
 34 46  1  0  0  0  0
 35 66  1  0  0  0  0
 36 38  1  0  0  0  0
 37 39  1  0  0  0  0
 37 41  1  0  0  0  0
 38 45  1  0  0  0  0
 39 48  1  0  0  0  0
 40 42  1  0  0  0  0
 40 47  1  0  0  0  0
 41 67  1  0  0  0  0
 42 68  1  0  0  0  0
 43 47  1  0  0  0  0
 43 68  1  0  0  0  0
 44 48  1  0  0  0  0
 44 67  1  0  0  0  0
 45 71  1  0  0  0  0
 46 66  1  0  0  0  0
 47 55  1  0  0  0  0
 48 65  1  0  0  0  0
 49 56  1  0  0  0  0
 50 61  1  0  0  0  0
 51 63  1  0  0  0  0
 52 63  1  0  0  0  0
 53 63  1  0  0  0  0
 54 73  1  0  0  0  0
 55 62  1  0  0  0  0
 56 62  1  0  0  0  0
 57 59  1  0  0  0  0
 57 74  1  0  0  0  0
 58 62  1  0  0  0  0
 58 74  1  0  0  0  0
 59 81  1  0  0  0  0
 60 63  1  0  0  0  0
 60 72  1  0  0  0  0
 61 73  1  0  0  0  0
 64 65  1  0  0  0  0
M  CHG  2  73   1  74   1
M  ISO  4  32 100  59 101  68 100  81 101
M  END
> <Batch ID>
0112

> <Smiles>
CCC(CNC[101CH2:1][101O:1]c1ccc2c(c1)CN(C(=O)C(NC(=O)C(C)NC)C(C)(C)C)C(C(=O)NC1CCCc3ccccc31)C2)CC1CC[100N:0]([100C:0](=O)N2CCCC(n3nc(-c4ccc(Oc5ccc(F)cc5F)cc4)c(C(N)=O)c3N)C2)C1

> <Shape>
0.277

> <Color>
0.068

> <Negative vol penalty>
0.000

$$$$

  -OEChem-04052320033D

 85 93  0     1  0  0  0  0  0999 V2000
  -23.1151  -35.8373   24.1782 C   0  0  0  0  0  0  0  0  0  0  0  0
  -24.1420  -35.0206   23.7158 C   0  0  0  0  0  0  0  0  0  0  0  0
  -25.1839  -13.8457   22.6810 C   0  0  0  0  0  0  0  0  0  0  0  0
  -26.9680  -14.0354   21.0629 C   0  0  0  0  0  0  0  0  0  0  0  0
  -21.9478  -35.2679   24.6853 C   0  0  0  0  0  0  0  0  0  0  0  0
  -24.0027  -33.6339   23.7613 C   0  0  0  0  0  0  0  0  0  0  0  0
  -26.1843  -29.5803   19.7222 C   0  0  0  0  0  0  0  0  0  0  0  0
  -28.5270  -24.8007   17.0951 C   0  0  0  0  0  0  0  0  0  0  0  0
  -25.0893  -12.4795   22.4166 C   0  0  0  0  0  0  0  0  0  0  0  0
  -26.8734  -12.6691   20.7985 C   0  0  0  0  0  0  0  0  0  0  0  0
  -27.3225  -28.7751   19.7228 C   0  0  0  0  0  0  0  0  0  0  0  0
  -23.7466  -10.4906   20.0362 C   0  0  0  0  0  0  0  0  0  0  0  0
  -22.4715   -9.9501   19.8704 C   0  0  0  0  0  0  0  0  0  0  0  0
  -27.6629  -23.8296   16.6015 C   0  0  0  0  0  0  0  0  0  0  0  0
  -26.0161  -26.9395   20.5849 C   0  0  0  0  0  0  0  0  0  0  0  0
  -22.8568   -8.4678   21.7389 C   0  0  0  0  0  0  0  0  0  0  0  0
  -26.1232  -14.6237   22.0041 C   0  0  0  0  0  0  0  0  0  0  0  0
  -27.0314  -16.6604   23.2430 C   0  0  0  0  0  0  0  0  0  0  0  0
  -21.7902  -33.8737   24.7281 C   0  0  0  0  0  0  0  0  0  0  0  0
  -24.9536  -29.0734   20.1640 C   0  0  0  0  0  0  0  0  0  0  0  0
  -22.8328  -33.0453   24.2707 C   0  0  0  0  0  0  0  0  0  0  0  0
  -24.8632  -27.7395   20.5865 C   0  0  0  0  0  0  0  0  0  0  0  0
  -29.1803  -24.5921   18.3047 C   0  0  0  0  0  0  0  0  0  0  0  0
  -25.9341  -11.8911   21.4754 C   0  0  0  0  0  0  0  0  0  0  0  0
  -27.2391  -27.4554   20.1569 C   0  0  0  0  0  0  0  0  0  0  0  0
  -24.5769  -10.0197   21.0534 C   0  0  0  0  0  0  0  0  0  0  0  0
  -22.0266   -8.9388   20.7217 C   0  0  0  0  0  0  0  0  0  0  0  0
  -24.1319   -9.0083   21.9048 C   0  0  0  0  0  0  0  0  0  0  0  0
  -26.2210  -16.0353   22.2764 C   0  0  0  0  0  0  0  0  0  0  0  0
  -27.4877  -22.6767   17.3496 C   0  0  0  0  0  0  0  0  0  0  0  0
  -28.9370  -23.4051   18.9767 C   0  0  0  0  0  0  0  0  0  0  0  0
  -26.7624  -18.0000   23.1022 C   0  0  0  0  0  0  0  0  0  0  0  0
  -27.9457  -16.0821   24.1839 C   0  0  0  0  0  0  0  0  0  0  0  0
  -22.9491  -29.7913   22.5241 C   0  0  0  0  0  0  0  0  0  0  0  0
  -21.0751  -27.5684   21.0857 C   0  0  0  0  0  0  0  0  0  0  0  0
  -20.8641  -24.8245   19.0675 C   0  0  0  0  0  0  0  0  0  0  0  0
  -24.7632  -21.2979   18.5221 C   0  0  0  0  0  0  0  0  0  0  0  0
  -20.5296  -33.3037   25.3288 C   0  0  0  0  0  0  0  0  0  0  0  0
  -23.7295  -29.9469   20.1319 C   0  0  0  0  0  0  0  0  0  0  0  0
  -23.5615  -27.1413   21.0513 C   0  0  0  0  0  0  0  0  0  0  0  0
  -20.3082  -31.8305   24.9957 C   0  0  0  0  0  0  0  0  0  0  0  0
  -23.2893  -20.9997   21.7494 C   0  0  0  0  0  0  0  0  0  0  0  0
  -21.5935  -31.0366   25.2062 C   0  0  0  0  0  0  0  0  0  0  0  0
  -23.9467  -19.7500   22.3376 C   0  0  0  0  0  0  0  0  0  0  0  0
  -23.0435  -20.8550   20.2492 C   0  0  0  0  0  0  0  0  0  0  0  0
  -24.8903  -19.2357   20.0477 C   0  0  0  0  0  0  0  0  0  0  0  0
  -22.7090  -31.5371   24.2806 C   0  0  1  0  0  0  0  0  0  0  0  0
  -22.6366  -29.4792   21.0880 C   0  0  1  0  0  0  0  0  0  0  0  0
  -25.2092  -19.3560   21.5478 C   0  0  2  0  0  0  0  0  0  0  0  0
  -29.4738  -21.6660   20.7012 C   0  0  0  0  0  0  0  0  0  0  0  0
  -19.2014  -23.2093   18.1063 C   0  0  0  0  0  0  0  0  0  0  0  0
  -32.2912  -26.9835   18.4269 C   0  0  0  0  0  0  0  0  0  0  0  0
  -32.1486  -24.6156   17.6720 C   0  0  0  0  0  0  0  0  0  0  0  0
  -20.8734  -26.1702   23.7903 C   0  0  0  0  0  0  0  0  0  0  0  0
  -20.0395  -24.1334   22.5968 C   0  0  0  0  0  0  0  0  0  0  0  0
  -18.7338  -26.2566   22.4984 C   0  0  0  0  0  0  0  0  0  0  0  0
  -21.5472  -25.5931   16.2924 C   0  0  0  0  0  0  0  0  0  0  0  0
  -29.6131  -23.1254   20.2787 C   0  0  0  0  0  0  0  0  0  0  0  0
  -26.5688  -21.6128   16.8488 C   0  0  0  0  0  0  0  0  0  0  0  0
  -29.3419  -26.9417   19.1719 C   0  0  0  0  0  0  0  0  0  1  0  0
  -30.1298  -25.6558   18.8528 C   0  0  2  0  0  0  0  0  0  0  0  0
  -20.9016  -26.0739   21.2104 C   0  0  1  0  0  0  0  0  0  0  0  0
  -19.9616  -24.5082   17.8885 C   0  0  2  0  0  0  0  0  0  0  0  0
  -31.3396  -25.9024   17.8988 C   0  0  0  0  0  0  0  0  0  0  0  0
  -20.1622  -25.6701   22.5171 C   0  0  0  0  0  0  0  0  0  0  0  0
  -25.4917  -16.9060   21.5737 N   0  0  0  0  0  0  0  0  0  0  0  0
  -28.1047  -22.4385   18.5287 N   0  0  0  0  0  0  0  0  0  0  0  0
  -25.8428  -18.0921   22.0992 N   0  0  0  0  0  0  0  0  0  0  0  0
  -22.3941  -28.0374   21.0073 N   0  0  0  0  0  0  0  0  0  0  0  0
  -24.2802  -20.4820   19.5584 N   0  0  0  0  0  0  0  0  0  0  0  0
  -27.2251  -19.0962   23.7398 N   0  0  0  0  0  0  0  0  0  0  0  0
  -28.1019  -14.6893   24.1940 N   0  0  0  0  0  0  0  0  0  0  0  0
  -22.5137  -31.0360   22.9370 N   0  0  0  0  0  0  0  0  0  0  0  0
  -20.2362  -25.6369   19.9878 N   0  0  0  0  0  0  0  0  0  0  0  0
  -25.9445  -20.8755   17.9247 N   0  0  0  0  0  0  0  0  0  0  0  0
  -20.7660  -24.3785   16.6407 N   0  3  0  0  0  0  0  0  0  0  0  0
  -28.5922  -16.7783   25.0028 O   0  0  0  0  0  0  0  0  0  0  0  0
  -23.5402  -28.9634   23.2075 O   0  0  0  0  0  0  0  0  0  0  0  0
  -20.0769  -28.2923   21.0518 O   0  0  0  0  0  0  0  0  0  0  0  0
  -22.0100  -24.3909   19.1643 O   0  0  0  0  0  0  0  0  0  0  0  0
  -24.1873  -22.3295   18.1598 O   0  0  0  0  0  0  0  0  0  0  0  0
  -25.8423  -10.5579   21.2173 O   0  0  0  0  0  0  0  0  0  0  0  0
  -28.3487  -26.6675   20.1592 O   0  0  0  0  0  0  0  0  0  1  0  0
  -20.8015   -8.4209   20.5633 F   0  0  0  0  0  0  0  0  0  0  0  0
  -24.9246   -8.5527   22.8845 F   0  0  0  0  0  0  0  0  0  0  0  0
  1  2  1  0  0  0  0
  1  5  2  0  0  0  0
  2  6  2  0  0  0  0
  3  9  2  0  0  0  0
  3 17  1  0  0  0  0
  4 10  1  0  0  0  0
  4 17  2  0  0  0  0
  5 19  1  0  0  0  0
  6 21  1  0  0  0  0
  7 11  2  0  0  0  0
  7 20  1  0  0  0  0
  8 14  2  0  0  0  0
  8 23  1  0  0  0  0
  9 24  1  0  0  0  0
 10 24  2  0  0  0  0
 11 25  1  0  0  0  0
 12 13  2  0  0  0  0
 12 26  1  0  0  0  0
 13 27  1  0  0  0  0
 14 30  1  0  0  0  0
 15 22  1  0  0  0  0
 15 25  2  0  0  0  0
 16 27  2  0  0  0  0
 16 28  1  0  0  0  0
 17 29  1  0  0  0  0
 18 29  1  0  0  0  0
 18 32  2  0  0  0  0
 18 33  1  0  0  0  0
 19 21  2  0  0  0  0
 19 38  1  0  0  0  0
 20 22  2  0  0  0  0
 20 39  1  0  0  0  0
 21 47  1  0  0  0  0
 22 40  1  0  0  0  0
 23 31  2  0  0  0  0
 23 61  1  0  0  0  0
 24 82  1  0  0  0  0
 25 83  1  0  0  0  0
 26 28  2  0  0  0  0
 26 82  1  0  0  0  0
 27 84  1  0  0  0  0
 28 85  1  0  0  0  0
 29 66  2  0  0  0  0
 30 59  1  0  0  0  0
 30 67  2  0  0  0  0
 31 58  1  0  0  0  0
 31 67  1  0  0  0  0
 32 68  1  0  0  0  0
 32 71  1  0  0  0  0
 33 72  1  0  0  0  0
 33 77  2  0  0  0  0
 34 48  1  0  0  0  0
 34 73  1  0  0  0  0
 34 78  2  0  0  0  0
 35 62  1  0  0  0  0
 35 69  1  0  0  0  0
 35 79  2  0  0  0  0
 36 63  1  0  0  0  0
 36 74  1  0  0  0  0
 36 80  2  0  0  0  0
 37 70  1  0  0  0  0
 37 75  1  0  0  0  0
 37 81  2  0  0  0  0
 38 41  1  0  0  0  0
 39 48  1  0  0  0  0
 40 69  1  0  0  0  0
 41 43  1  0  0  0  0
 42 44  1  0  0  0  0
 42 45  1  0  0  0  0
 43 47  1  0  0  0  0
 44 49  1  0  0  0  0
 45 70  1  0  0  0  0
 46 49  1  0  0  0  0
 46 70  1  0  0  0  0
 47 73  1  0  0  0  0
 48 69  1  0  0  0  0
 49 68  1  0  0  0  0
 50 58  1  0  0  0  0
 51 63  1  0  0  0  0
 52 64  1  0  0  0  0
 53 64  1  0  0  0  0
 54 65  1  0  0  0  0
 55 65  1  0  0  0  0
 56 65  1  0  0  0  0
 57 76  1  0  0  0  0
 59 75  1  0  0  0  0
 60 61  1  0  0  0  0
 60 83  1  0  0  0  0
 61 64  1  0  0  0  0
 62 65  1  0  0  0  0
 62 74  1  0  0  0  0
 63 76  1  0  0  0  0
 66 68  1  0  0  0  0
M  CHG  1  76   1
M  ISO  4  37 100  60 101  75 100  83 101
M  END
> <Batch ID>
0112

> <Smiles>
CCc1nc(C[100NH:0][100C:0](=O)N2CCCC(n3nc(-c4ccc(Oc5ccc(F)cc5F)cc4)c(C(N)=O)c3N)C2)ccc1C(C(C)C)[101CH2:1][101O:1]c1ccc2c(c1)CN(C(=O)C(NC(=O)C(C)NC)C(C)(C)C)C(C(=O)NC1CCCc3ccccc31)C2

> <Shape>
0.222

> <Color>
0.084

> <Negative vol penalty>
0.000

$$$$

  -OEChem-04052320033D

 83 91  0     1  0  0  0  0  0999 V2000
  -23.7676   -7.9981   21.0405 C   0  0  0  0  0  0  0  0  0  0  0  0
  -24.4087   -9.1225   20.5306 C   0  0  0  0  0  0  0  0  0  0  0  0
  -19.9778  -28.4750   23.3602 C   0  0  0  0  0  0  0  0  0  0  0  0
  -20.0226  -26.4996   21.9699 C   0  0  0  0  0  0  0  0  0  0  0  0
  -22.4676   -8.1020   21.5338 C   0  0  0  0  0  0  0  0  0  0  0  0
  -23.7498  -10.3513   20.5126 C   0  0  0  0  0  0  0  0  0  0  0  0
  -26.6912  -14.1563   22.0984 C   0  0  0  0  0  0  0  0  0  0  0  0
  -29.1257  -23.8418   21.0360 C   0  0  0  0  0  0  0  0  0  0  0  0
  -18.5833  -28.4657   23.3285 C   0  0  0  0  0  0  0  0  0  0  0  0
  -18.6281  -26.4902   21.9382 C   0  0  0  0  0  0  0  0  0  0  0  0
  -27.6297  -14.6545   21.1957 C   0  0  0  0  0  0  0  0  0  0  0  0
  -15.0158  -29.1703   23.3160 C   0  0  0  0  0  0  0  0  0  0  0  0
  -14.3626  -30.3820   23.0911 C   0  0  0  0  0  0  0  0  0  0  0  0
  -29.0577  -22.4545   21.1001 C   0  0  0  0  0  0  0  0  0  0  0  0
  -26.1558  -16.4956   20.6887 C   0  0  0  0  0  0  0  0  0  0  0  0
  -15.4789  -30.5878   20.9583 C   0  0  0  0  0  0  0  0  0  0  0  0
  -29.9424  -23.6470   18.8108 C   0  0  0  0  0  0  0  0  0  0  0  0
  -20.6974  -27.4919   22.6808 C   0  0  0  0  0  0  0  0  0  0  0  0
  -22.9717  -26.8611   23.6490 C   0  0  0  0  0  0  0  0  0  0  0  0
  -21.7960   -9.3347   21.5307 C   0  0  0  0  0  0  0  0  0  0  0  0
  -25.4713  -14.8192   22.2953 C   0  0  0  0  0  0  0  0  0  0  0  0
  -22.4392  -10.4715   21.0050 C   0  0  0  0  0  0  0  0  0  0  0  0
  -25.2046  -16.0052   21.5963 C   0  0  0  0  0  0  0  0  0  0  0  0
  -29.5754  -24.4573   19.8731 C   0  0  0  0  0  0  0  0  0  0  0  0
  -17.9085  -27.4733   22.6175 C   0  0  0  0  0  0  0  0  0  0  0  0
  -27.3609  -15.8227   20.4886 C   0  0  0  0  0  0  0  0  0  0  0  0
  -15.9006  -28.6673   22.3621 C   0  0  0  0  0  0  0  0  0  0  0  0
  -14.5941  -31.0908   21.9122 C   0  0  0  0  0  0  0  0  0  0  0  0
  -16.1321  -29.3761   21.1833 C   0  0  0  0  0  0  0  0  0  0  0  0
  -22.1379  -27.5014   22.7127 C   0  0  0  0  0  0  0  0  0  0  0  0
  -29.4477  -21.7339   19.9827 C   0  0  0  0  0  0  0  0  0  0  0  0
  -24.2463  -27.1739   23.2442 C   0  0  0  0  0  0  0  0  0  0  0  0
  -22.6250  -26.0555   24.7833 C   0  0  0  0  0  0  0  0  0  0  0  0
  -22.4135  -14.0647   21.8660 C   0  0  0  0  0  0  0  0  0  0  0  0
  -21.9087  -16.9287   23.3029 C   0  0  0  0  0  0  0  0  0  0  0  0
  -23.0980  -20.0335   24.0728 C   0  0  0  0  0  0  0  0  0  0  0  0
  -28.0681  -27.7611   19.2199 C   0  0  0  0  0  0  0  0  0  0  0  0
  -20.3742   -9.3880   22.0311 C   0  0  0  0  0  0  0  0  0  0  0  0
  -24.4808  -14.2835   23.2924 C   0  0  0  0  0  0  0  0  0  0  0  0
  -23.9185  -16.7656   21.7865 C   0  0  0  0  0  0  0  0  0  0  0  0
  -19.8830  -10.8040   22.3203 C   0  0  0  0  0  0  0  0  0  0  0  0
  -25.8854  -30.5105   19.8139 C   0  0  0  0  0  0  0  0  0  0  0  0
  -20.2464  -11.7401   21.1720 C   0  0  0  0  0  0  0  0  0  0  0  0
  -24.7821  -29.9185   20.6926 C   0  0  0  0  0  0  0  0  0  0  0  0
  -26.3724  -29.5095   18.7685 C   0  0  0  0  0  0  0  0  0  0  0  0
  -25.6943  -27.6134   20.1893 C   0  0  0  0  0  0  0  0  0  0  0  0
  -21.7666  -11.8271   20.9911 C   0  0  1  0  0  0  0  0  0  0  0  0
  -23.0549  -14.7601   23.0334 C   0  0  1  0  0  0  0  0  0  0  0  0
  -25.2098  -28.5667   21.2951 C   0  0  2  0  0  0  0  0  0  0  0  0
  -30.6080  -26.5580   20.8125 C   0  0  0  0  0  0  0  0  0  0  0  0
  -22.4416  -22.1650   25.2232 C   0  0  0  0  0  0  0  0  0  0  0  0
  -20.1674  -17.6798   20.9125 C   0  0  0  0  0  0  0  0  0  0  0  0
  -20.3284  -20.0714   21.6352 C   0  0  0  0  0  0  0  0  0  0  0  0
  -19.2554  -18.3879   23.1309 C   0  0  0  0  0  0  0  0  0  0  0  0
  -25.2928  -19.7826   26.0422 C   0  0  0  0  0  0  0  0  0  0  0  0
  -29.7181  -18.1720   19.0826 C   0  0  0  0  0  0  0  0  0  0  0  0
  -28.3037  -17.7248   19.4166 C   0  0  0  0  0  0  0  0  0  1  0  0
  -29.8004  -19.6726   18.8504 C   0  0  0  0  0  0  0  0  0  0  0  0
  -29.6595  -25.9388   19.7732 C   0  0  2  0  0  0  0  0  0  0  0  0
  -21.7649  -18.3537   22.8255 C   0  0  1  0  0  0  0  0  0  0  0  0
  -23.1158  -20.8105   25.3768 C   0  0  2  0  0  0  0  0  0  0  0  0
  -20.4025  -18.6080   22.1208 C   0  0  0  0  0  0  0  0  0  0  0  0
  -29.8900  -22.2964   18.8357 N   0  0  0  0  0  0  0  0  0  0  0  0
  -22.8250  -28.1705   21.7832 N   0  0  0  0  0  0  0  0  0  0  0  0
  -24.1041  -27.9525   22.1334 N   0  0  0  0  0  0  0  0  0  0  0  0
  -22.9791  -16.1982   22.7679 N   0  0  0  0  0  0  0  0  0  0  0  0
  -26.7644  -28.2499   19.4052 N   0  0  0  0  0  0  0  0  0  0  0  0
  -25.4637  -26.8563   23.7335 N   0  0  0  0  0  0  0  0  0  0  0  0
  -21.2682  -25.8339   25.0557 N   0  0  0  0  0  0  0  0  0  0  0  0
  -22.3467  -12.6907   21.9972 N   0  0  0  0  0  0  0  0  0  0  0  0
  -22.0026  -19.2001   23.9898 N   0  0  0  0  0  0  0  0  0  0  0  0
  -28.3590  -26.5644   19.8634 N   0  0  0  0  0  0  0  0  0  0  0  0
  -24.5186  -21.0323   25.8284 N   0  3  0  0  0  0  0  0  0  0  0  0
  -23.4924  -25.5608   25.5425 O   0  0  0  0  0  0  0  0  0  0  0  0
  -22.0079  -14.7258   20.9173 O   0  0  0  0  0  0  0  0  0  0  0  0
  -21.1051  -16.4826   24.1256 O   0  0  0  0  0  0  0  0  0  0  0  0
  -23.9667  -20.1565   23.2121 O   0  0  0  0  0  0  0  0  0  0  0  0
  -28.9121  -28.3504   18.5363 O   0  0  0  0  0  0  0  0  0  0  0  0
  -16.5478  -27.4638   22.5866 O   0  0  0  0  0  0  0  0  0  0  0  0
  -28.2749  -16.3107   19.6064 O   0  0  0  0  0  0  0  0  0  1  0  0
  -29.3896  -20.3651   20.0215 O   0  0  0  0  0  0  0  0  0  0  0  0
  -13.9656  -32.2536   21.6956 F   0  0  0  0  0  0  0  0  0  0  0  0
  -16.9802  -28.8974   20.2627 F   0  0  0  0  0  0  0  0  0  0  0  0
  1  2  1  0  0  0  0
  1  5  2  0  0  0  0
  2  6  2  0  0  0  0
  3  9  2  0  0  0  0
  3 18  1  0  0  0  0
  4 10  1  0  0  0  0
  4 18  2  0  0  0  0
  5 20  1  0  0  0  0
  6 22  1  0  0  0  0
  7 11  2  0  0  0  0
  7 21  1  0  0  0  0
  8 14  2  0  0  0  0
  8 24  1  0  0  0  0
  9 25  1  0  0  0  0
 10 25  2  0  0  0  0
 11 26  1  0  0  0  0
 12 13  2  0  0  0  0
 12 27  1  0  0  0  0
 13 28  1  0  0  0  0
 14 31  1  0  0  0  0
 15 23  1  0  0  0  0
 15 26  2  0  0  0  0
 16 28  2  0  0  0  0
 16 29  1  0  0  0  0
 17 24  2  0  0  0  0
 17 63  1  0  0  0  0
 18 30  1  0  0  0  0
 19 30  1  0  0  0  0
 19 32  2  0  0  0  0
 19 33  1  0  0  0  0
 20 22  2  0  0  0  0
 20 38  1  0  0  0  0
 21 23  2  0  0  0  0
 21 39  1  0  0  0  0
 22 47  1  0  0  0  0
 23 40  1  0  0  0  0
 24 59  1  0  0  0  0
 25 79  1  0  0  0  0
 26 80  1  0  0  0  0
 27 29  2  0  0  0  0
 27 79  1  0  0  0  0
 28 82  1  0  0  0  0
 29 83  1  0  0  0  0
 30 64  2  0  0  0  0
 31 63  2  0  0  0  0
 31 81  1  0  0  0  0
 32 65  1  0  0  0  0
 32 68  1  0  0  0  0
 33 69  1  0  0  0  0
 33 74  2  0  0  0  0
 34 48  1  0  0  0  0
 34 70  1  0  0  0  0
 34 75  2  0  0  0  0
 35 60  1  0  0  0  0
 35 66  1  0  0  0  0
 35 76  2  0  0  0  0
 36 61  1  0  0  0  0
 36 71  1  0  0  0  0
 36 77  2  0  0  0  0
 37 67  1  0  0  0  0
 37 72  1  0  0  0  0
 37 78  2  0  0  0  0
 38 41  1  0  0  0  0
 39 48  1  0  0  0  0
 40 66  1  0  0  0  0
 41 43  1  0  0  0  0
 42 44  1  0  0  0  0
 42 45  1  0  0  0  0
 43 47  1  0  0  0  0
 44 49  1  0  0  0  0
 45 67  1  0  0  0  0
 46 49  1  0  0  0  0
 46 67  1  0  0  0  0
 47 70  1  0  0  0  0
 48 66  1  0  0  0  0
 49 65  1  0  0  0  0
 50 59  1  0  0  0  0
 51 61  1  0  0  0  0
 52 62  1  0  0  0  0
 53 62  1  0  0  0  0
 54 62  1  0  0  0  0
 55 73  1  0  0  0  0
 56 57  1  0  0  0  0
 56 58  1  0  0  0  0
 57 80  1  0  0  0  0
 58 81  1  0  0  0  0
 59 72  1  0  0  0  0
 60 62  1  0  0  0  0
 60 71  1  0  0  0  0
 61 73  1  0  0  0  0
 64 65  1  0  0  0  0
M  CHG  1  73   1
M  ISO  4  37 100  57 101  72 100  80 101
M  END
> <Batch ID>
0112

> <Smiles>
CNC(C)C(=O)NC(C(=O)N1Cc2cc([101O:1][101CH2:1]CCOc3ccc(C(C)[100NH:0][100C:0](=O)N4CCCC(n5nc(-c6ccc(Oc7ccc(F)cc7F)cc6)c(C(N)=O)c5N)C4)cn3)ccc2CC1C(=O)NC1CCCc2ccccc21)C(C)(C)C

> <Shape>
0.234

> <Color>
0.108

> <Negative vol penalty>
0.000

$$$$

  -OEChem-04052320033D

 82 90  0     1  0  0  0  0  0999 V2000
  -16.8767  -30.4433   24.1887 C   0  0  0  0  0  0  0  0  0  0  0  0
  -18.1002  -30.8040   24.7441 C   0  0  0  0  0  0  0  0  0  0  0  0
  -26.6387  -13.7518   20.3661 C   0  0  0  0  0  0  0  0  0  0  0  0
  -24.2732  -13.9607   20.8108 C   0  0  0  0  0  0  0  0  0  0  0  0
  -16.8128  -29.4049   23.2605 C   0  0  0  0  0  0  0  0  0  0  0  0
  -19.2604  -30.1257   24.3724 C   0  0  0  0  0  0  0  0  0  0  0  0
  -26.2751  -31.1893   23.3833 C   0  0  0  0  0  0  0  0  0  0  0  0
  -26.6166  -12.4479   20.8609 C   0  0  0  0  0  0  0  0  0  0  0  0
  -24.2511  -12.6567   21.3055 C   0  0  0  0  0  0  0  0  0  0  0  0
  -27.5087  -30.6651   23.7672 C   0  0  0  0  0  0  0  0  0  0  0  0
  -23.4974   -9.2574   22.3518 C   0  0  0  0  0  0  0  0  0  0  0  0
  -22.4548   -8.4256   21.9434 C   0  0  0  0  0  0  0  0  0  0  0  0
  -27.2891  -28.9401   22.0953 C   0  0  0  0  0  0  0  0  0  0  0  0
  -30.4077  -25.9673   21.6548 C   0  0  0  0  0  0  0  0  0  0  0  0
  -23.1488   -8.6848   19.6438 C   0  0  0  0  0  0  0  0  0  0  0  0
  -30.8247  -25.8800   23.8658 C   0  0  0  0  0  0  0  0  0  0  0  0
  -25.4670  -14.5083   20.3411 C   0  0  0  0  0  0  0  0  0  0  0  0
  -25.2753  -16.2644   18.5007 C   0  0  0  0  0  0  0  0  0  0  0  0
  -17.9742  -28.7199   22.8700 C   0  0  0  0  0  0  0  0  0  0  0  0
  -25.5330  -30.5853   22.3581 C   0  0  0  0  0  0  0  0  0  0  0  0
  -19.2118  -29.0762   23.4392 C   0  0  0  0  0  0  0  0  0  0  0  0
  -26.0476  -29.4600   21.6985 C   0  0  0  0  0  0  0  0  0  0  0  0
  -30.8407  -26.7200   22.7742 C   0  0  0  0  0  0  0  0  0  0  0  0
  -25.4228  -11.9003   21.3306 C   0  0  0  0  0  0  0  0  0  0  0  0
  -28.0145  -29.5386   23.1251 C   0  0  0  0  0  0  0  0  0  0  0  0
  -24.3657   -9.8029   21.4061 C   0  0  0  0  0  0  0  0  0  0  0  0
  -22.2805   -8.1393   20.5894 C   0  0  0  0  0  0  0  0  0  0  0  0
  -24.1914   -9.5166   20.0521 C   0  0  0  0  0  0  0  0  0  0  0  0
  -25.4894  -15.8555   19.8307 C   0  0  0  0  0  0  0  0  0  0  0  0
  -30.1401  -24.6903   22.0964 C   0  0  0  0  0  0  0  0  0  0  0  0
  -25.4020  -17.6315   18.5371 C   0  0  0  0  0  0  0  0  0  0  0  0
  -29.6863  -23.5334   21.4381 C   0  0  0  0  0  0  0  0  0  0  0  0
  -24.9875  -15.4786   17.3365 C   0  0  0  0  0  0  0  0  0  0  0  0
  -28.4958  -23.3665   20.7605 C   0  0  0  0  0  0  0  0  0  0  0  0
  -28.2409  -22.0536   20.1343 C   0  0  0  0  0  0  0  0  0  0  0  0
  -22.6816  -29.1929   22.1742 C   0  0  0  0  0  0  0  0  0  0  0  0
  -23.3568  -29.1152   19.0024 C   0  0  0  0  0  0  0  0  0  0  0  0
  -25.7226  -29.1269   16.5428 C   0  0  0  0  0  0  0  0  0  0  0  0
  -17.8486  -27.5729   21.8988 C   0  0  0  0  0  0  0  0  0  0  0  0
  -24.2165  -31.1788   21.9377 C   0  0  0  0  0  0  0  0  0  0  0  0
  -25.2995  -28.7865   20.5782 C   0  0  0  0  0  0  0  0  0  0  0  0
  -19.1781  -27.1525   21.2774 C   0  0  0  0  0  0  0  0  0  0  0  0
  -25.6634  -20.8246   22.4316 C   0  0  0  0  0  0  0  0  0  0  0  0
  -20.2551  -27.0334   22.3510 C   0  0  0  0  0  0  0  0  0  0  0  0
  -25.4093  -19.4289   21.8683 C   0  0  0  0  0  0  0  0  0  0  0  0
  -27.1250  -21.2439   22.2827 C   0  0  0  0  0  0  0  0  0  0  0  0
  -27.3786  -19.7526   20.3200 C   0  0  0  0  0  0  0  0  0  0  0  0
  -20.4960  -28.3806   23.0427 C   0  0  1  0  0  0  0  0  0  0  0  0
  -23.3090  -30.1780   21.2290 C   0  0  1  0  0  0  0  0  0  0  0  0
  -25.9046  -19.3293   20.4168 C   0  0  1  0  0  0  0  0  0  0  0  0
  -27.4117  -24.3867   20.6225 C   0  0  0  0  0  0  0  0  0  0  0  0
  -32.4578  -28.4311   21.8707 C   0  0  0  0  0  0  0  0  0  0  0  0
  -25.9712  -29.0155   14.0482 C   0  0  0  0  0  0  0  0  0  0  0  0
  -22.7866  -26.1188   19.0819 C   0  0  0  0  0  0  0  0  0  0  0  0
  -23.9451  -25.9104   16.8722 C   0  0  0  0  0  0  0  0  0  0  0  0
  -21.8829  -27.2997   17.0711 C   0  0  0  0  0  0  0  0  0  0  0  0
  -30.2519  -23.5029   24.3159 C   0  0  0  0  0  0  0  0  0  0  0  0
  -27.0137  -31.7878   16.4363 C   0  0  0  0  0  0  0  0  0  0  0  0
  -31.2473  -28.1801   22.7728 C   0  0  1  0  0  0  0  0  0  0  0  0
  -24.0444  -28.1384   18.0794 C   0  0  1  0  0  0  0  0  0  0  0  0
  -25.8357  -29.9272   15.2578 C   0  0  2  0  0  0  0  0  0  0  0  0
  -23.1782  -26.8781   17.7985 C   0  0  0  0  0  0  0  0  0  0  0  0
  -25.7337  -16.8800   20.6521 N   0  0  0  0  0  0  0  0  0  0  0  0
  -30.3968  -24.6489   23.4420 N   0  0  0  0  0  0  0  0  0  0  0  0
  -25.6740  -17.9462   19.8361 N   0  0  0  0  0  0  0  0  0  0  0  0
  -27.5923  -21.0843   20.8974 N   0  0  0  0  0  0  0  0  0  0  0  0
  -24.0138  -29.4005   20.2078 N   0  0  0  0  0  0  0  0  0  0  0  0
  -25.3062  -18.5832   17.5845 N   0  0  0  0  0  0  0  0  0  0  0  0
  -24.8917  -14.0873   17.4764 N   0  0  0  0  0  0  0  0  0  0  0  0
  -21.3009  -29.2426   22.2040 N   0  0  0  0  0  0  0  0  0  0  0  0
  -24.4074  -28.8924   16.8843 N   0  0  0  0  0  0  0  0  0  0  0  0
  -30.1446  -29.0398   22.3669 N   0  0  0  0  0  0  0  0  0  1  0  0
  -27.0266  -30.8217   15.3078 N   0  3  0  0  0  0  0  0  0  0  0  0
  -24.8365  -15.9935   16.2026 O   0  0  0  0  0  0  0  0  0  0  0  0
  -28.6227  -21.8936   18.9736 O   0  0  0  0  0  0  0  0  0  0  0  0
  -23.3970  -28.4421   22.8271 O   0  0  0  0  0  0  0  0  0  0  0  0
  -22.2800  -29.6124   18.6632 O   0  0  0  0  0  0  0  0  0  0  0  0
  -26.7029  -28.7446   17.1779 O   0  0  0  0  0  0  0  0  0  0  0  0
  -25.4008  -10.6278   21.8132 O   0  0  0  0  0  0  0  0  0  0  0  0
  -29.2180  -29.0245   23.4983 O   0  0  0  0  0  0  0  0  0  1  0  0
  -21.2801   -7.3393   20.1976 F   0  0  0  0  0  0  0  0  0  0  0  0
  -25.0230  -10.0367   19.1391 F   0  0  0  0  0  0  0  0  0  0  0  0
  1  2  1  0  0  0  0
  1  5  2  0  0  0  0
  2  6  2  0  0  0  0
  3  8  2  0  0  0  0
  3 17  1  0  0  0  0
  4  9  1  0  0  0  0
  4 17  2  0  0  0  0
  5 19  1  0  0  0  0
  6 21  1  0  0  0  0
  7 10  2  0  0  0  0
  7 20  1  0  0  0  0
  8 24  1  0  0  0  0
  9 24  2  0  0  0  0
 10 25  1  0  0  0  0
 11 12  2  0  0  0  0
 11 26  1  0  0  0  0
 12 27  1  0  0  0  0
 13 22  1  0  0  0  0
 13 25  2  0  0  0  0
 14 23  1  0  0  0  0
 14 30  2  0  0  0  0
 15 27  2  0  0  0  0
 15 28  1  0  0  0  0
 16 23  2  0  0  0  0
 16 64  1  0  0  0  0
 17 29  1  0  0  0  0
 18 29  1  0  0  0  0
 18 31  2  0  0  0  0
 18 33  1  0  0  0  0
 19 21  2  0  0  0  0
 19 39  1  0  0  0  0
 20 22  2  0  0  0  0
 20 40  1  0  0  0  0
 21 48  1  0  0  0  0
 22 41  1  0  0  0  0
 23 59  1  0  0  0  0
 24 79  1  0  0  0  0
 25 80  1  0  0  0  0
 26 28  2  0  0  0  0
 26 79  1  0  0  0  0
 27 81  1  0  0  0  0
 28 82  1  0  0  0  0
 29 63  2  0  0  0  0
 30 32  1  0  0  0  0
 30 64  1  0  0  0  0
 31 65  1  0  0  0  0
 31 68  1  0  0  0  0
 32 34  2  0  0  0  0
 33 69  1  0  0  0  0
 33 74  2  0  0  0  0
 34 35  1  0  0  0  0
 34 51  1  0  0  0  0
 35 66  1  0  0  0  0
 35 75  2  0  0  0  0
 36 49  1  0  0  0  0
 36 70  1  0  0  0  0
 36 76  2  0  0  0  0
 37 60  1  0  0  0  0
 37 67  1  0  0  0  0
 37 77  2  0  0  0  0
 38 61  1  0  0  0  0
 38 71  1  0  0  0  0
 38 78  2  0  0  0  0
 39 42  1  0  0  0  0
 40 49  1  0  0  0  0
 41 67  1  0  0  0  0
 42 44  1  0  0  0  0
 43 45  1  0  0  0  0
 43 46  1  0  0  0  0
 44 48  1  0  0  0  0
 45 50  1  0  0  0  0
 46 66  1  0  0  0  0
 47 50  1  0  0  0  0
 47 66  1  0  0  0  0
 48 70  1  0  0  0  0
 49 67  1  0  0  0  0
 50 65  1  0  0  0  0
 52 59  1  0  0  0  0
 53 61  1  0  0  0  0
 54 62  1  0  0  0  0
 55 62  1  0  0  0  0
 56 62  1  0  0  0  0
 57 64  1  0  0  0  0
 58 73  1  0  0  0  0
 59 72  1  0  0  0  0
 60 62  1  0  0  0  0
 60 71  1  0  0  0  0
 61 73  1  0  0  0  0
 63 65  1  0  0  0  0
 72 80  1  0  0  0  0
M  CHG  1  73   1
M  ISO  4  34 100  35 100  72 101  80 101
M  END
> <Batch ID>
0112

> <Smiles>
CNC(C)C(=O)NC(C(=O)N1Cc2cc([101O:1][101NH:1]C(C)c3cc(C=[100C:0](C)[100C:0](=O)N4CCCC(n5nc(-c6ccc(Oc7ccc(F)cc7F)cc6)c(C(N)=O)c5N)C4)n(C)c3)ccc2CC1C(=O)NC1CCCc2ccccc21)C(C)(C)C

> <Shape>
0.259

> <Color>
0.129

> <Negative vol penalty>
0.000

$$$$

  -OEChem-04052320033D

 81 88  0     1  0  0  0  0  0999 V2000
  -22.1814  -11.3466   18.9366 C   0  0  0  0  0  0  0  0  0  0  0  0
  -21.8155  -12.6776   19.1096 C   0  0  0  0  0  0  0  0  0  0  0  0
  -31.3175  -25.1851   18.4643 C   0  0  0  0  0  0  0  0  0  0  0  0
  -32.0002  -26.6004   20.2995 C   0  0  0  0  0  0  0  0  0  0  0  0
  -23.3902  -10.8841   19.4552 C   0  0  0  0  0  0  0  0  0  0  0  0
  -22.6578  -13.5467   19.8021 C   0  0  0  0  0  0  0  0  0  0  0  0
  -23.5264  -19.5046   18.6815 C   0  0  0  0  0  0  0  0  0  0  0  0
  -32.5937  -25.2873   17.9107 C   0  0  0  0  0  0  0  0  0  0  0  0
  -33.2765  -26.7026   19.7459 C   0  0  0  0  0  0  0  0  0  0  0  0
  -22.9973  -20.6554   19.2640 C   0  0  0  0  0  0  0  0  0  0  0  0
  -35.7766  -24.8812   16.2021 C   0  0  0  0  0  0  0  0  0  0  0  0
  -36.3742  -23.7126   15.7300 C   0  0  0  0  0  0  0  0  0  0  0  0
  -24.9418  -20.8248   20.6814 C   0  0  0  0  0  0  0  0  0  0  0  0
  -36.2435  -22.7518   17.9429 C   0  0  0  0  0  0  0  0  0  0  0  0
  -31.0207  -25.8417   19.6587 C   0  0  0  0  0  0  0  0  0  0  0  0
  -29.2475  -24.7694   21.1465 C   0  0  0  0  0  0  0  0  0  0  0  0
  -24.2522  -11.7503   20.1460 C   0  0  0  0  0  0  0  0  0  0  0  0
  -24.7642  -18.9981   19.1029 C   0  0  0  0  0  0  0  0  0  0  0  0
  -23.8787  -13.0951   20.3315 C   0  0  0  0  0  0  0  0  0  0  0  0
  -25.4857  -19.6688   20.1009 C   0  0  0  0  0  0  0  0  0  0  0  0
  -33.5732  -26.0460   18.5515 C   0  0  0  0  0  0  0  0  0  0  0  0
  -23.7036  -21.3141   20.2661 C   0  0  0  0  0  0  0  0  0  0  0  0
  -35.4125  -24.9851   17.5447 C   0  0  0  0  0  0  0  0  0  0  0  0
  -36.6076  -22.6479   16.6004 C   0  0  0  0  0  0  0  0  0  0  0  0
  -35.6459  -23.9204   18.4150 C   0  0  0  0  0  0  0  0  0  0  0  0
  -29.7024  -25.7370   20.2307 C   0  0  0  0  0  0  0  0  0  0  0  0
  -27.9357  -25.1047   21.3770 C   0  0  0  0  0  0  0  0  0  0  0  0
  -29.9481  -23.6661   21.7361 C   0  0  0  0  0  0  0  0  0  0  0  0
  -25.7396  -16.2854   20.4420 C   0  0  0  0  0  0  0  0  0  0  0  0
  -28.6819  -17.5715   19.9829 C   0  0  0  0  0  0  0  0  0  0  0  0
  -21.9033  -24.7800   22.1002 C   0  0  0  0  0  0  0  0  0  0  0  0
  -30.5855  -20.3719   19.5574 C   0  0  0  0  0  0  0  0  0  0  0  0
  -24.3202  -29.3291   22.5604 C   0  0  0  0  0  0  0  0  0  0  0  0
  -25.5266  -11.1932   20.7294 C   0  0  0  0  0  0  0  0  0  0  0  0
  -25.3336  -17.7707   18.4458 C   0  0  0  0  0  0  0  0  0  0  0  0
  -26.8282  -19.1774   20.5748 C   0  0  0  0  0  0  0  0  0  0  0  0
  -26.5356  -12.2679   21.1261 C   0  0  0  0  0  0  0  0  0  0  0  0
  -24.8950  -28.3812   19.0287 C   0  0  0  0  0  0  0  0  0  0  0  0
  -25.8482  -13.3832   21.9075 C   0  0  0  0  0  0  0  0  0  0  0  0
  -26.1999  -27.5903   19.1043 C   0  0  0  0  0  0  0  0  0  0  0  0
  -24.7970  -29.4213   20.1406 C   0  0  0  0  0  0  0  0  0  0  0  0
  -26.2829  -28.0701   21.5829 C   0  0  0  0  0  0  0  0  0  0  0  0
  -24.7770  -14.0745   21.0554 C   0  0  1  0  0  0  0  0  0  0  0  0
  -26.3645  -17.0532   19.3117 C   0  0  1  0  0  0  0  0  0  0  0  0
  -26.3924  -26.9818   20.5043 C   0  0  2  0  0  0  0  0  0  0  0  0
  -32.9641  -21.1083   19.2458 C   0  0  0  0  0  0  0  0  0  0  0  0
  -21.4181  -27.8111   22.1923 C   0  0  0  0  0  0  0  0  0  0  0  0
  -29.2154  -17.0955   22.9492 C   0  0  0  0  0  0  0  0  0  0  0  0
  -31.1539  -18.6711   22.7820 C   0  0  0  0  0  0  0  0  0  0  0  0
  -31.1414  -16.5653   21.4447 C   0  0  0  0  0  0  0  0  0  0  0  0
  -20.7728  -25.0891   24.3132 C   0  0  0  0  0  0  0  0  0  0  0  0
  -23.9068  -28.9283   24.9579 C   0  0  0  0  0  0  0  0  0  0  0  0
  -29.9904  -21.5707   16.9178 C   0  0  0  0  0  0  0  0  0  0  0  0
  -21.3712  -23.3509   22.1277 C   0  0  0  0  0  0  0  0  0  0  0  0
  -23.5395  -27.0666   23.3816 C   0  0  0  0  0  0  0  0  0  0  0  0
  -21.7673  -22.5410   20.8995 C   0  0  0  0  0  0  0  0  0  1  0  0
  -29.5988  -18.4585   20.7902 C   0  0  1  0  0  0  0  0  0  0  0  0
  -31.6715  -20.7084   18.5515 C   0  0  2  0  0  0  0  0  0  0  0  0
  -22.0138  -26.9697   23.3163 C   0  0  2  0  0  0  0  0  0  0  0  0
  -30.2512  -17.7060   21.9841 C   0  0  0  0  0  0  0  0  0  0  0  0
  -28.7564  -26.6207   19.9018 N   0  0  0  0  0  0  0  0  0  0  0  0
  -27.6939  -26.2096   20.6147 N   0  0  0  0  0  0  0  0  0  0  0  0
  -27.3398  -17.9697   19.9060 N   0  0  0  0  0  0  0  0  0  0  0  0
  -25.0267  -28.8240   21.4565 N   0  0  0  0  0  0  0  0  0  0  0  0
  -26.9769  -24.5593   22.1552 N   0  0  0  0  0  0  0  0  0  0  0  0
  -31.2914  -23.4658   21.3899 N   0  0  0  0  0  0  0  0  0  0  0  0
  -25.3906  -14.9887   20.1161 N   0  0  0  0  0  0  0  0  0  0  0  0
  -30.5559  -19.0237   19.8453 N   0  0  0  0  0  0  0  0  0  0  0  0
  -21.5757  -25.5806   23.2002 N   0  0  0  0  0  0  0  0  0  0  0  0
  -24.0219  -28.4293   23.5949 N   0  0  0  0  0  0  0  0  0  0  0  0
  -31.2381  -21.8363   17.6792 N   0  3  0  0  0  0  0  0  0  0  0  0
  -29.3946  -22.8715   22.5334 O   0  0  0  0  0  0  0  0  0  0  0  0
  -25.5867  -16.8287   21.5298 O   0  0  0  0  0  0  0  0  0  0  0  0
  -29.1411  -16.5664   19.4348 O   0  0  0  0  0  0  0  0  0  0  0  0
  -22.5814  -25.1786   21.1497 O   0  0  0  0  0  0  0  0  0  0  0  0
  -29.8405  -21.2207   20.0423 O   0  0  0  0  0  0  0  0  0  0  0  0
  -23.9674  -30.5142   22.6137 O   0  0  0  0  0  0  0  0  0  0  0  0
  -34.8187  -26.1457   18.0117 O   0  0  0  0  0  0  0  0  0  0  0  0
  -23.1892  -22.4373   20.8368 O   0  0  0  0  0  0  0  0  0  1  0  0
  -37.1800  -21.5252   16.1465 F   0  0  0  0  0  0  0  0  0  0  0  0
  -35.2973  -24.0139   19.7056 F   0  0  0  0  0  0  0  0  0  0  0  0
  1  2  1  0  0  0  0
  1  5  2  0  0  0  0
  2  6  2  0  0  0  0
  3  8  2  0  0  0  0
  3 15  1  0  0  0  0
  4  9  1  0  0  0  0
  4 15  2  0  0  0  0
  5 17  1  0  0  0  0
  6 19  1  0  0  0  0
  7 10  2  0  0  0  0
  7 18  1  0  0  0  0
  8 21  1  0  0  0  0
  9 21  2  0  0  0  0
 10 22  1  0  0  0  0
 11 12  2  0  0  0  0
 11 23  1  0  0  0  0
 12 24  1  0  0  0  0
 13 20  1  0  0  0  0
 13 22  2  0  0  0  0
 14 24  2  0  0  0  0
 14 25  1  0  0  0  0
 15 26  1  0  0  0  0
 16 26  1  0  0  0  0
 16 27  2  0  0  0  0
 16 28  1  0  0  0  0
 17 19  2  0  0  0  0
 17 34  1  0  0  0  0
 18 20  2  0  0  0  0
 18 35  1  0  0  0  0
 19 43  1  0  0  0  0
 20 36  1  0  0  0  0
 21 78  1  0  0  0  0
 22 79  1  0  0  0  0
 23 25  2  0  0  0  0
 23 78  1  0  0  0  0
 24 80  1  0  0  0  0
 25 81  1  0  0  0  0
 26 61  2  0  0  0  0
 27 62  1  0  0  0  0
 27 65  1  0  0  0  0
 28 66  1  0  0  0  0
 28 72  2  0  0  0  0
 29 44  1  0  0  0  0
 29 67  1  0  0  0  0
 29 73  2  0  0  0  0
 30 57  1  0  0  0  0
 30 63  1  0  0  0  0
 30 74  2  0  0  0  0
 31 54  1  0  0  0  0
 31 69  1  0  0  0  0
 31 75  2  0  0  0  0
 32 58  1  0  0  0  0
 32 68  1  0  0  0  0
 32 76  2  0  0  0  0
 33 64  1  0  0  0  0
 33 70  1  0  0  0  0
 33 77  2  0  0  0  0
 34 37  1  0  0  0  0
 35 44  1  0  0  0  0
 36 63  1  0  0  0  0
 37 39  1  0  0  0  0
 38 40  1  0  0  0  0
 38 41  1  0  0  0  0
 39 43  1  0  0  0  0
 40 45  1  0  0  0  0
 41 64  1  0  0  0  0
 42 45  1  0  0  0  0
 42 64  1  0  0  0  0
 43 67  1  0  0  0  0
 44 63  1  0  0  0  0
 45 62  1  0  0  0  0
 46 58  1  0  0  0  0
 47 59  1  0  0  0  0
 48 60  1  0  0  0  0
 49 60  1  0  0  0  0
 50 60  1  0  0  0  0
 51 69  1  0  0  0  0
 52 70  1  0  0  0  0
 53 71  1  0  0  0  0
 54 56  1  0  0  0  0
 55 59  1  0  0  0  0
 55 70  1  0  0  0  0
 56 79  1  0  0  0  0
 57 60  1  0  0  0  0
 57 68  1  0  0  0  0
 58 71  1  0  0  0  0
 59 69  1  0  0  0  0
 61 62  1  0  0  0  0
M  CHG  1  71   1
M  ISO  4  33 100  56 101  70 100  79 101
M  END
> <Batch ID>
0112

> <Smiles>
CNC(C)C(=O)NC(C(=O)N1Cc2cc([101O:1][101CH2:1]CC(=O)N(C)C(C)C[100N:0](C)[100C:0](=O)N3CCCC(n4nc(-c5ccc(Oc6ccc(F)cc6F)cc5)c(C(N)=O)c4N)C3)ccc2CC1C(=O)NC1CCCc2ccccc21)C(C)(C)C

> <Shape>
0.192

> <Color>
0.082

> <Negative vol penalty>
0.000

$$$$

  -OEChem-04052320033D

 84 92  0     1  0  0  0  0  0999 V2000
  -16.9568  -29.7687   24.5672 C   0  0  0  0  0  0  0  0  0  0  0  0
  -17.3455  -28.5334   24.0587 C   0  0  0  0  0  0  0  0  0  0  0  0
  -26.3310  -12.4401   19.4337 C   0  0  0  0  0  0  0  0  0  0  0  0
  -25.5900  -14.3010   20.7845 C   0  0  0  0  0  0  0  0  0  0  0  0
  -17.5643  -30.9347   24.1031 C   0  0  0  0  0  0  0  0  0  0  0  0
  -18.3411  -28.4636   23.0849 C   0  0  0  0  0  0  0  0  0  0  0  0
  -22.5363  -24.0519   22.4189 C   0  0  0  0  0  0  0  0  0  0  0  0
  -25.7255  -11.5529   20.3236 C   0  0  0  0  0  0  0  0  0  0  0  0
  -24.9845  -13.4139   21.6745 C   0  0  0  0  0  0  0  0  0  0  0  0
  -22.6020  -22.9387   21.5822 C   0  0  0  0  0  0  0  0  0  0  0  0
  -24.0663   -8.8156   22.0466 C   0  0  0  0  0  0  0  0  0  0  0  0
  -23.3143   -7.7707   21.5098 C   0  0  0  0  0  0  0  0  0  0  0  0
  -23.9432  -24.1981   20.0219 C   0  0  0  0  0  0  0  0  0  0  0  0
  -21.8555   -9.3711   20.4384 C   0  0  0  0  0  0  0  0  0  0  0  0
  -26.2633  -13.8141   19.6642 C   0  0  0  0  0  0  0  0  0  0  0  0
  -26.6076  -14.8858   17.3749 C   0  0  0  0  0  0  0  0  0  0  0  0
  -18.5746  -30.8784   23.1302 C   0  0  0  0  0  0  0  0  0  0  0  0
  -23.1654  -25.2520   22.0576 C   0  0  0  0  0  0  0  0  0  0  0  0
  -18.9617  -29.6301   22.6064 C   0  0  0  0  0  0  0  0  0  0  0  0
  -23.8861  -25.3244   20.8570 C   0  0  0  0  0  0  0  0  0  0  0  0
  -25.0523  -12.0398   21.4440 C   0  0  0  0  0  0  0  0  0  0  0  0
  -23.3031  -23.0125   20.3821 C   0  0  0  0  0  0  0  0  0  0  0  0
  -23.7130  -10.1382   21.7794 C   0  0  0  0  0  0  0  0  0  0  0  0
  -22.2089   -8.0484   20.7057 C   0  0  0  0  0  0  0  0  0  0  0  0
  -22.6076  -10.4160   20.9753 C   0  0  0  0  0  0  0  0  0  0  0  0
  -26.8890  -14.7310   18.7455 C   0  0  0  0  0  0  0  0  0  0  0  0
  -27.4648  -15.8745   16.9578 C   0  0  0  0  0  0  0  0  0  0  0  0
  -25.6562  -14.1974   16.5523 C   0  0  0  0  0  0  0  0  0  0  0  0
  -22.1744  -28.2119   21.4573 C   0  0  0  0  0  0  0  0  0  0  0  0
  -25.3553  -28.8278   21.2990 C   0  0  0  0  0  0  0  0  0  0  0  0
  -28.5124  -27.6454   20.7684 C   0  0  0  0  0  0  0  0  0  0  0  0
  -30.1714  -20.3686   19.6326 C   0  0  0  0  0  0  0  0  0  0  0  0
  -19.1689  -32.1693   22.6252 C   0  0  0  0  0  0  0  0  0  0  0  0
  -23.1076  -26.4357   22.9838 C   0  0  0  0  0  0  0  0  0  0  0  0
  -24.5960  -26.5832   20.4328 C   0  0  0  0  0  0  0  0  0  0  0  0
  -20.4782  -31.9802   21.8634 C   0  0  0  0  0  0  0  0  0  0  0  0
  -31.7327  -17.7926   17.9142 C   0  0  0  0  0  0  0  0  0  0  0  0
  -20.3515  -30.8390   20.8592 C   0  0  0  0  0  0  0  0  0  0  0  0
  -30.6499  -16.7209   17.7954 C   0  0  0  0  0  0  0  0  0  0  0  0
  -26.9448  -19.5827   20.7713 C   0  0  0  0  0  0  0  0  0  0  0  0
  -26.8604  -20.7876   18.5576 C   0  0  0  0  0  0  0  0  0  0  0  0
  -31.6983  -18.4512   19.2881 C   0  0  0  0  0  0  0  0  0  0  0  0
  -29.2776  -17.9951   19.5188 C   0  0  0  0  0  0  0  0  0  0  0  0
  -25.7095  -18.7840   20.3764 C   0  0  0  0  0  0  0  0  0  0  0  0
  -25.6247  -19.9838   18.1745 C   0  0  0  0  0  0  0  0  0  0  0  0
  -20.0554  -29.5114   21.5672 C   0  0  1  0  0  0  0  0  0  0  0  0
  -23.3536  -27.7631   22.2732 C   0  0  1  0  0  0  0  0  0  0  0  0
  -29.2656  -17.2949   18.1444 C   0  0  2  0  0  0  0  0  0  0  0  0
  -27.7437  -20.0244   19.5446 C   0  0  0  0  0  0  0  0  0  0  0  0
  -31.0190  -27.6700   20.6518 C   0  0  0  0  0  0  0  0  0  0  0  0
  -21.1919  -19.1711   18.2463 C   0  0  0  0  0  0  0  0  0  0  0  0
  -29.2694  -22.5047   21.6787 C   0  0  0  0  0  0  0  0  0  0  0  0
  -28.9561  -23.1846   19.2781 C   0  0  0  0  0  0  0  0  0  0  0  0
  -24.8535  -30.0566   18.5516 C   0  0  0  0  0  0  0  0  0  0  0  0
  -27.3143  -29.9109   18.1140 C   0  0  0  0  0  0  0  0  0  0  0  0
  -26.4634  -31.3260   19.9838 C   0  0  0  0  0  0  0  0  0  0  0  0
  -28.7681  -26.8840   23.6169 C   0  0  0  0  0  0  0  0  0  0  0  0
  -23.5752  -18.9025   19.0937 C   0  0  0  0  0  0  0  0  0  0  0  0
  -22.2616  -21.0270   19.5890 C   0  0  0  0  0  0  0  0  0  1  0  0
  -26.3948  -28.8083   20.2044 C   0  0  1  0  0  0  0  0  0  0  0  0
  -29.8014  -27.8296   21.5488 C   0  0  2  0  0  0  0  0  0  0  0  0
  -22.5039  -19.8811   18.5986 C   0  0  2  0  0  0  0  0  0  0  0  0
  -28.5701  -22.1873   20.3629 C   0  0  0  0  0  0  0  0  0  0  0  0
  -26.2416  -30.0022   19.2203 C   0  0  0  0  0  0  0  0  0  0  0  0
  -27.8501  -15.5553   19.1708 N   0  0  0  0  0  0  0  0  0  0  0  0
  -28.1800  -16.2375   18.0609 N   0  0  0  0  0  0  0  0  0  0  0  0
  -24.5048  -27.7154   21.3694 N   0  0  0  0  0  0  0  0  0  0  0  0
  -30.3677  -18.9804   19.5887 N   0  0  0  0  0  0  0  0  0  0  0  0
  -27.6691  -16.4601   15.7588 N   0  0  0  0  0  0  0  0  0  0  0  0
  -24.8547  -13.2098   17.1411 N   0  0  0  0  0  0  0  0  0  0  0  0
  -21.2616  -28.9749   22.1603 N   0  0  0  0  0  0  0  0  0  0  0  0
  -27.6902  -28.7474   20.8728 N   0  0  0  0  0  0  0  0  0  0  0  0
  -28.8791  -20.8247   19.9334 N   0  0  0  0  0  0  0  0  0  0  0  0
  -24.8680  -19.5972   19.4224 N   0  3  0  0  0  0  0  0  0  0  0  0
  -29.8908  -26.8248   22.6458 N   0  3  0  0  0  0  0  0  0  0  0  0
  -25.5323  -14.4390   15.3276 O   0  0  0  0  0  0  0  0  0  0  0  0
  -22.0991  -27.8912   20.2770 O   0  0  0  0  0  0  0  0  0  0  0  0
  -25.3045  -29.7912   22.0677 O   0  0  0  0  0  0  0  0  0  0  0  0
  -28.2617  -26.6274   20.1270 O   0  0  0  0  0  0  0  0  0  0  0  0
  -31.1008  -21.1587   19.4223 O   0  0  0  0  0  0  0  0  0  0  0  0
  -24.4611  -11.1745   22.3125 O   0  0  0  0  0  0  0  0  0  0  0  0
  -23.3683  -21.9276   19.5633 O   0  0  0  0  0  0  0  0  0  1  0  0
  -21.4877   -7.0449   20.1890 F   0  0  0  0  0  0  0  0  0  0  0  0
  -22.2640  -11.6846   20.7141 F   0  0  0  0  0  0  0  0  0  0  0  0
  1  2  1  0  0  0  0
  1  5  2  0  0  0  0
  2  6  2  0  0  0  0
  3  8  2  0  0  0  0
  3 15  1  0  0  0  0
  4  9  1  0  0  0  0
  4 15  2  0  0  0  0
  5 17  1  0  0  0  0
  6 19  1  0  0  0  0
  7 10  2  0  0  0  0
  7 18  1  0  0  0  0
  8 21  1  0  0  0  0
  9 21  2  0  0  0  0
 10 22  1  0  0  0  0
 11 12  2  0  0  0  0
 11 23  1  0  0  0  0
 12 24  1  0  0  0  0
 13 20  1  0  0  0  0
 13 22  2  0  0  0  0
 14 24  2  0  0  0  0
 14 25  1  0  0  0  0
 15 26  1  0  0  0  0
 16 26  1  0  0  0  0
 16 27  2  0  0  0  0
 16 28  1  0  0  0  0
 17 19  2  0  0  0  0
 17 33  1  0  0  0  0
 18 20  2  0  0  0  0
 18 34  1  0  0  0  0
 19 46  1  0  0  0  0
 20 35  1  0  0  0  0
 21 81  1  0  0  0  0
 22 82  1  0  0  0  0
 23 25  2  0  0  0  0
 23 81  1  0  0  0  0
 24 83  1  0  0  0  0
 25 84  1  0  0  0  0
 26 65  2  0  0  0  0
 27 66  1  0  0  0  0
 27 69  1  0  0  0  0
 28 70  1  0  0  0  0
 28 76  2  0  0  0  0
 29 47  1  0  0  0  0
 29 71  1  0  0  0  0
 29 77  2  0  0  0  0
 30 60  1  0  0  0  0
 30 67  1  0  0  0  0
 30 78  2  0  0  0  0
 31 61  1  0  0  0  0
 31 72  1  0  0  0  0
 31 79  2  0  0  0  0
 32 68  1  0  0  0  0
 32 73  1  0  0  0  0
 32 80  2  0  0  0  0
 33 36  1  0  0  0  0
 34 47  1  0  0  0  0
 35 67  1  0  0  0  0
 36 38  1  0  0  0  0
 37 39  1  0  0  0  0
 37 42  1  0  0  0  0
 38 46  1  0  0  0  0
 39 48  1  0  0  0  0
 40 44  1  0  0  0  0
 40 49  1  0  0  0  0
 41 45  1  0  0  0  0
 41 49  1  0  0  0  0
 42 68  1  0  0  0  0
 43 48  1  0  0  0  0
 43 68  1  0  0  0  0
 44 74  1  0  0  0  0
 45 74  1  0  0  0  0
 46 71  1  0  0  0  0
 47 67  1  0  0  0  0
 48 66  1  0  0  0  0
 49 73  1  0  0  0  0
 50 61  1  0  0  0  0
 51 62  1  0  0  0  0
 52 63  1  0  0  0  0
 53 63  1  0  0  0  0
 54 64  1  0  0  0  0
 55 64  1  0  0  0  0
 56 64  1  0  0  0  0
 57 75  1  0  0  0  0
 58 62  1  0  0  0  0
 58 74  1  0  0  0  0
 59 62  1  0  0  0  0
 59 82  1  0  0  0  0
 60 64  1  0  0  0  0
 60 72  1  0  0  0  0
 61 75  1  0  0  0  0
 63 73  1  0  0  0  0
 65 66  1  0  0  0  0
M  CHG  2  74   1  75   1
M  ISO  4  32 100  59 101  73 100  82 101
M  END
> <Batch ID>
0112

> <Smiles>
CNC(C)C(=O)NC(C(=O)N1Cc2cc([101O:1][101CH2:1]C(C)CN3CCC([100N:0](C(C)C)[100C:0](=O)N4CCCC(n5nc(-c6ccc(Oc7ccc(F)cc7F)cc6)c(C(N)=O)c5N)C4)CC3)ccc2CC1C(=O)NC1CCCc2ccccc21)C(C)(C)C

> <Shape>
0.242

> <Color>
0.084

> <Negative vol penalty>
0.000

$$$$

  -OEChem-04052320033D

 84 92  0     1  0  0  0  0  0999 V2000
  -21.6808  -11.8413   21.2030 C   0  0  0  0  0  0  0  0  0  0  0  0
  -21.8532  -13.0614   21.8487 C   0  0  0  0  0  0  0  0  0  0  0  0
  -17.2896  -21.2596   24.9305 C   0  0  0  0  0  0  0  0  0  0  0  0
  -25.0151  -28.0713   19.1200 C   0  0  0  0  0  0  0  0  0  0  0  0
  -25.7749  -28.0567   21.4133 C   0  0  0  0  0  0  0  0  0  0  0  0
  -22.7631  -11.2282   20.5732 C   0  0  0  0  0  0  0  0  0  0  0  0
  -23.1083  -13.6687   21.8659 C   0  0  0  0  0  0  0  0  0  0  0  0
  -22.8823  -18.6254   20.8538 C   0  0  0  0  0  0  0  0  0  0  0  0
  -18.4705  -20.6845   25.4000 C   0  0  0  0  0  0  0  0  0  0  0  0
  -17.0342  -22.6120   25.1576 C   0  0  0  0  0  0  0  0  0  0  0  0
  -26.1759  -28.7446   18.7396 C   0  0  0  0  0  0  0  0  0  0  0  0
  -26.9358  -28.7300   21.0330 C   0  0  0  0  0  0  0  0  0  0  0  0
  -22.4687  -19.4676   21.8850 C   0  0  0  0  0  0  0  0  0  0  0  0
  -30.2659  -30.1260   20.6092 C   0  0  0  0  0  0  0  0  0  0  0  0
  -31.4792  -29.6704   21.1248 C   0  0  0  0  0  0  0  0  0  0  0  0
  -24.7691  -20.0402   22.3319 C   0  0  0  0  0  0  0  0  0  0  0  0
  -31.1073  -27.5161   20.0962 C   0  0  0  0  0  0  0  0  0  0  0  0
  -24.8145  -27.7274   20.4569 C   0  0  0  0  0  0  0  0  0  0  0  0
  -23.4197  -25.6394   20.9066 C   0  0  0  0  0  0  0  0  0  0  0  0
  -24.0300  -11.8329   20.5745 C   0  0  0  0  0  0  0  0  0  0  0  0
  -24.2454  -18.4757   20.5606 C   0  0  0  0  0  0  0  0  0  0  0  0
  -24.2089  -13.0624   21.2367 C   0  0  0  0  0  0  0  0  0  0  0  0
  -25.1972  -19.1974   21.2949 C   0  0  0  0  0  0  0  0  0  0  0  0
  -19.3958  -21.4617   26.0967 C   0  0  0  0  0  0  0  0  0  0  0  0
  -17.9595  -23.3892   25.8542 C   0  0  0  0  0  0  0  0  0  0  0  0
  -19.1404  -22.8141   26.3238 C   0  0  0  0  0  0  0  0  0  0  0  0
  -27.1363  -29.0740   19.6961 C   0  0  0  0  0  0  0  0  0  0  0  0
  -23.4123  -20.1730   22.6262 C   0  0  0  0  0  0  0  0  0  0  0  0
  -29.4732  -29.2767   19.8371 C   0  0  0  0  0  0  0  0  0  0  0  0
  -31.9000  -28.3654   20.8683 C   0  0  0  0  0  0  0  0  0  0  0  0
  -29.8940  -27.9717   19.5807 C   0  0  0  0  0  0  0  0  0  0  0  0
  -23.6153  -27.0324   20.8505 C   0  0  0  0  0  0  0  0  0  0  0  0
  -22.1234  -25.4918   21.3360 C   0  0  0  0  0  0  0  0  0  0  0  0
  -24.3284  -24.5742   20.5983 C   0  0  0  0  0  0  0  0  0  0  0  0
  -26.2935  -16.0451   20.5956 C   0  0  0  0  0  0  0  0  0  0  0  0
  -28.3038  -18.2279   19.2855 C   0  0  0  0  0  0  0  0  0  0  0  0
  -29.1260  -21.5104   18.8427 C   0  0  0  0  0  0  0  0  0  0  0  0
  -17.9339  -26.9048   24.7415 C   0  0  0  0  0  0  0  0  0  0  0  0
  -25.1805  -11.1092   19.9208 C   0  0  0  0  0  0  0  0  0  0  0  0
  -24.6736  -17.5838   19.4276 C   0  0  0  0  0  0  0  0  0  0  0  0
  -26.6714  -19.0872   21.0066 C   0  0  0  0  0  0  0  0  0  0  0  0
  -26.3931  -11.9999   19.6635 C   0  0  0  0  0  0  0  0  0  0  0  0
  -18.4100  -28.8914   21.8255 C   0  0  0  0  0  0  0  0  0  0  0  0
  -26.7148  -12.8338   20.8996 C   0  0  0  0  0  0  0  0  0  0  0  0
  -19.7924  -28.4745   21.3205 C   0  0  0  0  0  0  0  0  0  0  0  0
  -18.3491  -28.9125   23.3512 C   0  0  0  0  0  0  0  0  0  0  0  0
  -20.1568  -27.2440   23.5004 C   0  0  0  0  0  0  0  0  0  0  0  0
  -25.5494  -13.7645   21.2559 C   0  0  1  0  0  0  0  0  0  0  0  0
  -26.1191  -17.1120   19.5521 C   0  0  1  0  0  0  0  0  0  0  0  0
  -20.2510  -27.1538   21.9677 C   0  0  2  0  0  0  0  0  0  0  0  0
  -30.8439  -22.9815   17.7556 C   0  0  0  0  0  0  0  0  0  0  0  0
  -30.2851  -17.5498   21.5047 C   0  0  0  0  0  0  0  0  0  0  0  0
  -31.5205  -19.6555   20.9496 C   0  0  0  0  0  0  0  0  0  0  0  0
  -31.3124  -17.8472   19.2440 C   0  0  0  0  0  0  0  0  0  0  0  0
  -27.0964  -22.8065   17.1223 C   0  0  0  0  0  0  0  0  0  0  0  0
  -20.6645  -20.8155   26.5932 C   0  0  0  0  0  0  0  0  0  0  0  0
  -17.6620  -24.8350   26.0837 C   0  0  0  0  0  0  0  0  0  0  0  0
  -21.8978  -21.1540   25.7529 C   0  0  0  0  0  0  0  0  0  0  0  0
  -21.8098  -20.6444   24.3190 C   0  0  0  0  0  0  0  0  0  1  0  0
  -20.1326  -23.6474   27.0708 C   0  0  0  0  0  0  0  0  0  0  0  0
  -29.2844  -19.2393   19.8282 C   0  0  1  0  0  0  0  0  0  0  0  0
  -29.4949  -22.2973   17.5981 C   0  0  2  0  0  0  0  0  0  0  0  0
  -30.5730  -18.5738   20.3886 C   0  0  0  0  0  0  0  0  0  0  0  0
  -22.5302  -27.7206   21.2149 N   0  0  0  0  0  0  0  0  0  0  0  0
  -21.6401  -26.7561   21.5041 N   0  0  0  0  0  0  0  0  0  0  0  0
  -27.0406  -18.1976   19.8931 N   0  0  0  0  0  0  0  0  0  0  0  0
  -18.7951  -27.6305   23.9020 N   0  0  0  0  0  0  0  0  0  0  0  0
  -21.3612  -24.4052   21.5824 N   0  0  0  0  0  0  0  0  0  0  0  0
  -25.6223  -24.9024   20.1709 N   0  0  0  0  0  0  0  0  0  0  0  0
  -25.5323  -14.9130   20.3755 N   0  0  0  0  0  0  0  0  0  0  0  0
  -29.5246  -20.1936   18.7512 N   0  0  0  0  0  0  0  0  0  0  0  0
  -18.4321  -25.6972   25.2151 N   0  0  0  0  0  0  0  0  0  0  0  0
  -28.4679  -23.3413   17.3219 N   0  3  0  0  0  0  0  0  0  0  0  0
  -23.9976  -23.3672   20.6830 O   0  0  0  0  0  0  0  0  0  0  0  0
  -27.0629  -16.2343   21.5304 O   0  0  0  0  0  0  0  0  0  0  0  0
  -28.6436  -17.4967   18.3519 O   0  0  0  0  0  0  0  0  0  0  0  0
  -28.5457  -22.0144   19.8018 O   0  0  0  0  0  0  0  0  0  0  0  0
  -16.8027  -27.3010   25.0421 O   0  0  0  0  0  0  0  0  0  0  0  0
  -28.2693  -29.7307   19.3253 O   0  0  0  0  0  0  0  0  0  0  0  0
  -23.0113  -20.9952   23.6336 O   0  0  0  0  0  0  0  0  0  1  0  0
  -33.0659  -27.9285   21.3622 F   0  0  0  0  0  0  0  0  0  0  0  0
  -29.1373  -27.1515   18.8387 F   0  0  0  0  0  0  0  0  0  0  0  0
  -19.5670  -24.1860   28.1811 F   0  0  0  0  0  0  0  0  0  0  0  0
  -20.5561  -24.6868   26.3073 F   0  0  0  0  0  0  0  0  0  0  0  0
  1  2  1  0  0  0  0
  1  6  2  0  0  0  0
  2  7  2  0  0  0  0
  3  9  2  0  0  0  0
  3 10  1  0  0  0  0
  4 11  2  0  0  0  0
  4 18  1  0  0  0  0
  5 12  1  0  0  0  0
  5 18  2  0  0  0  0
  6 20  1  0  0  0  0
  7 22  1  0  0  0  0
  8 13  2  0  0  0  0
  8 21  1  0  0  0  0
  9 24  1  0  0  0  0
 10 25  2  0  0  0  0
 11 27  1  0  0  0  0
 12 27  2  0  0  0  0
 13 28  1  0  0  0  0
 14 15  2  0  0  0  0
 14 29  1  0  0  0  0
 15 30  1  0  0  0  0
 16 23  1  0  0  0  0
 16 28  2  0  0  0  0
 17 30  2  0  0  0  0
 17 31  1  0  0  0  0
 18 32  1  0  0  0  0
 19 32  1  0  0  0  0
 19 33  2  0  0  0  0
 19 34  1  0  0  0  0
 20 22  2  0  0  0  0
 20 39  1  0  0  0  0
 21 23  2  0  0  0  0
 21 40  1  0  0  0  0
 22 48  1  0  0  0  0
 23 41  1  0  0  0  0
 24 26  2  0  0  0  0
 24 56  1  0  0  0  0
 25 26  1  0  0  0  0
 25 57  1  0  0  0  0
 26 60  1  0  0  0  0
 27 79  1  0  0  0  0
 28 80  1  0  0  0  0
 29 31  2  0  0  0  0
 29 79  1  0  0  0  0
 30 81  1  0  0  0  0
 31 82  1  0  0  0  0
 32 64  2  0  0  0  0
 33 65  1  0  0  0  0
 33 68  1  0  0  0  0
 34 69  1  0  0  0  0
 34 74  2  0  0  0  0
 35 49  1  0  0  0  0
 35 70  1  0  0  0  0
 35 75  2  0  0  0  0
 36 61  1  0  0  0  0
 36 66  1  0  0  0  0
 36 76  2  0  0  0  0
 37 62  1  0  0  0  0
 37 71  1  0  0  0  0
 37 77  2  0  0  0  0
 38 67  1  0  0  0  0
 38 72  1  0  0  0  0
 38 78  2  0  0  0  0
 39 42  1  0  0  0  0
 40 49  1  0  0  0  0
 41 66  1  0  0  0  0
 42 44  1  0  0  0  0
 43 45  1  0  0  0  0
 43 46  1  0  0  0  0
 44 48  1  0  0  0  0
 45 50  1  0  0  0  0
 46 67  1  0  0  0  0
 47 50  1  0  0  0  0
 47 67  1  0  0  0  0
 48 70  1  0  0  0  0
 49 66  1  0  0  0  0
 50 65  1  0  0  0  0
 51 62  1  0  0  0  0
 52 63  1  0  0  0  0
 53 63  1  0  0  0  0
 54 63  1  0  0  0  0
 55 73  1  0  0  0  0
 56 58  1  0  0  0  0
 57 72  1  0  0  0  0
 58 59  1  0  0  0  0
 59 80  1  0  0  0  0
 60 83  1  0  0  0  0
 60 84  1  0  0  0  0
 61 63  1  0  0  0  0
 61 71  1  0  0  0  0
 62 73  1  0  0  0  0
 64 65  1  0  0  0  0
M  CHG  1  73   1
M  ISO  4  38 100  59 101  72 100  80 101
M  END
> <Batch ID>
0112

> <Smiles>
CNC(C)C(=O)NC(C(=O)N1Cc2cc([101O:1][101CH2:1]CCc3cccc(C[100NH:0][100C:0](=O)N4CCCC(n5nc(-c6ccc(Oc7ccc(F)cc7F)cc6)c(C(N)=O)c5N)C4)c3C(F)F)ccc2CC1C(=O)NC1CCCc2ccccc21)C(C)(C)C

> <Shape>
0.204

> <Color>
0.077

> <Negative vol penalty>
0.000

$$$$

  -OEChem-04052320033D

 81 89  0     1  0  0  0  0  0999 V2000
  -16.7245  -24.8369   23.7768 C   0  0  0  0  0  0  0  0  0  0  0  0
  -17.7326  -24.1435   23.1148 C   0  0  0  0  0  0  0  0  0  0  0  0
  -22.7504  -10.0762   20.1948 C   0  0  0  0  0  0  0  0  0  0  0  0
  -24.0961   -9.7775   22.1789 C   0  0  0  0  0  0  0  0  0  0  0  0
  -16.8850  -26.1916   24.0648 C   0  0  0  0  0  0  0  0  0  0  0  0
  -18.9015  -24.8047   22.7394 C   0  0  0  0  0  0  0  0  0  0  0  0
  -23.0707  -22.1322   23.7978 C   0  0  0  0  0  0  0  0  0  0  0  0
  -21.9753   -8.9737   20.5545 C   0  0  0  0  0  0  0  0  0  0  0  0
  -23.3210   -8.6750   22.5387 C   0  0  0  0  0  0  0  0  0  0  0  0
  -23.3932  -21.0866   22.9337 C   0  0  0  0  0  0  0  0  0  0  0  0
  -19.4567   -8.2948   22.7060 C   0  0  0  0  0  0  0  0  0  0  0  0
  -18.0710   -8.4152   22.6024 C   0  0  0  0  0  0  0  0  0  0  0  0
  -25.0205  -22.4960   21.8453 C   0  0  0  0  0  0  0  0  0  0  0  0
  -18.0287   -6.5781   21.0338 C   0  0  0  0  0  0  0  0  0  0  0  0
  -23.8109  -10.4780   21.0070 C   0  0  0  0  0  0  0  0  0  0  0  0
  -24.1731  -12.9410   20.4500 C   0  0  0  0  0  0  0  0  0  0  0  0
  -18.0605  -26.8674   23.7013 C   0  0  0  0  0  0  0  0  0  0  0  0
  -23.7140  -23.3731   23.6848 C   0  0  0  0  0  0  0  0  0  0  0  0
  -19.0773  -26.1700   23.0216 C   0  0  0  0  0  0  0  0  0  0  0  0
  -24.7061  -23.5549   22.7108 C   0  0  0  0  0  0  0  0  0  0  0  0
  -22.2605   -8.2731   21.7264 C   0  0  0  0  0  0  0  0  0  0  0  0
  -24.3662  -21.2693   21.9555 C   0  0  0  0  0  0  0  0  0  0  0  0
  -20.1285   -7.3162   21.9734 C   0  0  0  0  0  0  0  0  0  0  0  0
  -17.3569   -7.5568   21.7663 C   0  0  0  0  0  0  0  0  0  0  0  0
  -19.4145   -6.4578   21.1373 C   0  0  0  0  0  0  0  0  0  0  0  0
  -24.6123  -11.6164   20.6356 C   0  0  0  0  0  0  0  0  0  0  0  0
  -25.3083  -13.6343   20.1077 C   0  0  0  0  0  0  0  0  0  0  0  0
  -22.8567  -13.4951   20.5758 C   0  0  0  0  0  0  0  0  0  0  0  0
  -22.7683  -26.3404   23.0489 C   0  0  0  0  0  0  0  0  0  0  0  0
  -25.8571  -27.0558   23.7343 C   0  0  0  0  0  0  0  0  0  0  0  0
  -29.0979  -26.0056   23.9373 C   0  0  0  0  0  0  0  0  0  0  0  0
  -30.6143  -14.8539   20.6821 C   0  0  0  0  0  0  0  0  0  0  0  0
  -18.1687  -28.3434   23.9920 C   0  0  0  0  0  0  0  0  0  0  0  0
  -23.3737  -24.4824   24.6418 C   0  0  0  0  0  0  0  0  0  0  0  0
  -25.4406  -24.8613   22.5612 C   0  0  0  0  0  0  0  0  0  0  0  0
  -19.5941  -28.8808   23.8930 C   0  0  0  0  0  0  0  0  0  0  0  0
  -29.9214  -12.0066   18.8472 C   0  0  0  0  0  0  0  0  0  0  0  0
  -20.2676  -28.3764   22.6207 C   0  0  0  0  0  0  0  0  0  0  0  0
  -28.4404  -11.7483   19.1237 C   0  0  0  0  0  0  0  0  0  0  0  0
  -28.8500  -18.1067   20.8655 C   0  0  0  0  0  0  0  0  0  0  0  0
  -28.1356  -16.6781   22.8143 C   0  0  0  0  0  0  0  0  0  0  0  0
  -30.6455  -12.4432   20.1157 C   0  0  0  0  0  0  0  0  0  0  0  0
  -30.1211  -17.2709   20.7427 C   0  0  0  0  0  0  0  0  0  0  0  0
  -29.4217  -15.8734   22.6584 C   0  0  0  0  0  0  0  0  0  0  0  0
  -28.5672  -13.4046   21.0496 C   0  0  0  0  0  0  0  0  0  0  0  0
  -20.3702  -26.8464   22.6201 C   0  0  1  0  0  0  0  0  0  0  0  0
  -23.7273  -25.8654   24.1036 C   0  0  1  0  0  0  0  0  0  0  0  0
  -28.3122  -18.1140   22.3023 C   0  0  0  0  0  0  0  0  0  0  0  0
  -27.7831  -12.9667   19.7962 C   0  0  2  0  0  0  0  0  0  0  0  0
  -31.4038  -26.8270   24.4900 C   0  0  0  0  0  0  0  0  0  0  0  0
  -23.5003  -18.1851   20.7759 C   0  0  0  0  0  0  0  0  0  0  0  0
  -25.9974  -28.4712   21.0349 C   0  0  0  0  0  0  0  0  0  0  0  0
  -28.4938  -28.4279   21.2204 C   0  0  0  0  0  0  0  0  0  0  0  0
  -27.1411  -29.6752   22.9048 C   0  0  0  0  0  0  0  0  0  0  0  0
  -29.3697  -24.0892   26.1761 C   0  0  0  0  0  0  0  0  0  0  0  0
  -25.8953  -18.2088   21.5637 C   0  0  0  0  0  0  0  0  0  0  0  0
  -27.1356  -27.1472   22.9368 C   0  0  1  0  0  0  0  0  0  0  0  0
  -30.1429  -26.1675   25.0264 C   0  0  2  0  0  0  0  0  0  0  0  0
  -26.9980  -18.8866   22.3873 C   0  0  1  0  0  0  0  0  0  0  0  0
  -24.5379  -18.9220   21.6140 C   0  0  1  0  0  0  0  0  0  1  0  0
  -27.1770  -28.4062   22.0255 C   0  0  0  0  0  0  0  0  0  0  0  0
  -25.9241  -11.4743   20.4283 N   0  0  0  0  0  0  0  0  0  0  0  0
  -26.3189  -12.7185   20.1088 N   0  0  0  0  0  0  0  0  0  0  0  0
  -25.0678  -25.9176   23.5166 N   0  0  0  0  0  0  0  0  0  0  0  0
  -29.9886  -13.5989   20.7262 N   0  0  0  0  0  0  0  0  0  0  0  0
  -29.9307  -15.9249   21.2814 N   0  0  0  0  0  0  0  0  0  0  0  0
  -25.5305  -14.9319   19.8089 N   0  0  0  0  0  0  0  0  0  0  0  0
  -22.4570  -13.9910   21.8242 N   0  0  0  0  0  0  0  0  0  0  0  0
  -21.4553  -26.4122   23.4736 N   0  0  0  0  0  0  0  0  0  0  0  0
  -28.2258  -27.0732   23.9035 N   0  0  0  0  0  0  0  0  0  0  0  0
  -26.5982  -18.9459   23.8201 N   0  3  0  0  0  0  0  0  0  0  0  0
  -30.5115  -24.8389   25.5921 N   0  3  0  0  0  0  0  0  0  0  0  0
  -22.0527  -13.5340   19.6137 O   0  0  0  0  0  0  0  0  0  0  0  0
  -23.1887  -26.6223   21.9329 O   0  0  0  0  0  0  0  0  0  0  0  0
  -25.5728  -27.9574   24.5267 O   0  0  0  0  0  0  0  0  0  0  0  0
  -29.0613  -25.0316   23.1887 O   0  0  0  0  0  0  0  0  0  0  0  0
  -31.7140  -15.0119   20.1375 O   0  0  0  0  0  0  0  0  0  0  0  0
  -21.5042   -7.1975   22.0779 O   0  0  0  0  0  0  0  0  0  0  0  0
  -24.6844  -20.2443   21.1051 O   0  0  0  0  0  0  0  0  0  1  0  0
  -16.0260   -7.6715   21.6682 F   0  0  0  0  0  0  0  0  0  0  0  0
  -20.0542   -5.5149   20.4320 F   0  0  0  0  0  0  0  0  0  0  0  0
  1  2  1  0  0  0  0
  1  5  2  0  0  0  0
  2  6  2  0  0  0  0
  3  8  2  0  0  0  0
  3 15  1  0  0  0  0
  4  9  1  0  0  0  0
  4 15  2  0  0  0  0
  5 17  1  0  0  0  0
  6 19  1  0  0  0  0
  7 10  2  0  0  0  0
  7 18  1  0  0  0  0
  8 21  1  0  0  0  0
  9 21  2  0  0  0  0
 10 22  1  0  0  0  0
 11 12  2  0  0  0  0
 11 23  1  0  0  0  0
 12 24  1  0  0  0  0
 13 20  1  0  0  0  0
 13 22  2  0  0  0  0
 14 24  2  0  0  0  0
 14 25  1  0  0  0  0
 15 26  1  0  0  0  0
 16 26  1  0  0  0  0
 16 27  2  0  0  0  0
 16 28  1  0  0  0  0
 17 19  2  0  0  0  0
 17 33  1  0  0  0  0
 18 20  2  0  0  0  0
 18 34  1  0  0  0  0
 19 46  1  0  0  0  0
 20 35  1  0  0  0  0
 21 78  1  0  0  0  0
 22 79  1  0  0  0  0
 23 25  2  0  0  0  0
 23 78  1  0  0  0  0
 24 80  1  0  0  0  0
 25 81  1  0  0  0  0
 26 62  2  0  0  0  0
 27 63  1  0  0  0  0
 27 67  1  0  0  0  0
 28 68  1  0  0  0  0
 28 73  2  0  0  0  0
 29 47  1  0  0  0  0
 29 69  1  0  0  0  0
 29 74  2  0  0  0  0
 30 57  1  0  0  0  0
 30 64  1  0  0  0  0
 30 75  2  0  0  0  0
 31 58  1  0  0  0  0
 31 70  1  0  0  0  0
 31 76  2  0  0  0  0
 32 65  1  0  0  0  0
 32 66  1  0  0  0  0
 32 77  2  0  0  0  0
 33 36  1  0  0  0  0
 34 47  1  0  0  0  0
 35 64  1  0  0  0  0
 36 38  1  0  0  0  0
 37 39  1  0  0  0  0
 37 42  1  0  0  0  0
 38 46  1  0  0  0  0
 39 49  1  0  0  0  0
 40 43  1  0  0  0  0
 40 48  1  0  0  0  0
 41 44  1  0  0  0  0
 41 48  1  0  0  0  0
 42 65  1  0  0  0  0
 43 66  1  0  0  0  0
 44 66  1  0  0  0  0
 45 49  1  0  0  0  0
 45 65  1  0  0  0  0
 46 69  1  0  0  0  0
 47 64  1  0  0  0  0
 48 59  1  0  0  0  0
 49 63  1  0  0  0  0
 50 58  1  0  0  0  0
 51 60  1  0  0  0  0
 52 61  1  0  0  0  0
 53 61  1  0  0  0  0
 54 61  1  0  0  0  0
 55 72  1  0  0  0  0
 56 59  1  0  0  0  0
 56 60  1  0  0  0  0
 57 61  1  0  0  0  0
 57 70  1  0  0  0  0
 58 72  1  0  0  0  0
 59 71  1  0  0  0  0
 60 79  1  0  0  0  0
 62 63  1  0  0  0  0
M  CHG  2  71   1  72   1
M  ISO  4  32 100  60 101  66 100  79 101
M  END
> <Batch ID>
0112

> <Smiles>
CNC(C)C(=O)NC(C(=O)N1Cc2cc([101O:1][101CH:1](C)CC(N)C3CC[100N:0]([100C:0](=O)N4CCCC(n5nc(-c6ccc(Oc7ccc(F)cc7F)cc6)c(C(N)=O)c5N)C4)CC3)ccc2CC1C(=O)NC1CCCc2ccccc21)C(C)(C)C

> <Shape>
0.219

> <Color>
0.152

> <Negative vol penalty>
0.000

$$$$

  -OEChem-04052320033D

 80 88  0     1  0  0  0  0  0999 V2000
  -27.9402  -35.2459   24.7350 C   0  0  0  0  0  0  0  0  0  0  0  0
  -28.7270  -34.1982   24.2675 C   0  0  0  0  0  0  0  0  0  0  0  0
  -24.2967   -9.5470   21.4829 C   0  0  0  0  0  0  0  0  0  0  0  0
  -24.7849  -10.6736   23.5636 C   0  0  0  0  0  0  0  0  0  0  0  0
  -26.5886  -35.0347   25.0046 C   0  0  0  0  0  0  0  0  0  0  0  0
  -28.1629  -32.9382   24.0703 C   0  0  0  0  0  0  0  0  0  0  0  0
  -28.6843  -27.1901   19.8273 C   0  0  0  0  0  0  0  0  0  0  0  0
  -23.9220   -8.4043   22.1895 C   0  0  0  0  0  0  0  0  0  0  0  0
  -24.4102   -9.5309   24.2703 C   0  0  0  0  0  0  0  0  0  0  0  0
  -28.8348  -25.8061   19.9023 C   0  0  0  0  0  0  0  0  0  0  0  0
  -21.2316   -7.3208   23.9277 C   0  0  0  0  0  0  0  0  0  0  0  0
  -20.0574   -6.6752   23.5406 C   0  0  0  0  0  0  0  0  0  0  0  0
  -26.4710  -25.5782   20.3262 C   0  0  0  0  0  0  0  0  0  0  0  0
  -29.2226  -20.8560   18.9697 C   0  0  0  0  0  0  0  0  0  0  0  0
  -28.9941  -21.0078   21.3700 C   0  0  0  0  0  0  0  0  0  0  0  0
  -21.3159   -4.6664   23.0735 C   0  0  0  0  0  0  0  0  0  0  0  0
  -24.7282  -10.6816   22.1699 C   0  0  0  0  0  0  0  0  0  0  0  0
  -24.2880  -12.9335   21.0549 C   0  0  0  0  0  0  0  0  0  0  0  0
  -26.0055  -33.7740   24.8014 C   0  0  0  0  0  0  0  0  0  0  0  0
  -27.4258  -27.7803   20.0123 C   0  0  0  0  0  0  0  0  0  0  0  0
  -26.8026  -32.7096   24.3387 C   0  0  0  0  0  0  0  0  0  0  0  0
  -26.3068  -26.9697   20.2505 C   0  0  0  0  0  0  0  0  0  0  0  0
  -29.1331  -21.6276   20.1282 C   0  0  0  0  0  0  0  0  0  0  0  0
  -29.1731  -19.4645   19.0529 C   0  0  0  0  0  0  0  0  0  0  0  0
  -28.9446  -19.6162   21.4533 C   0  0  0  0  0  0  0  0  0  0  0  0
  -29.0341  -18.8446   20.2947 C   0  0  0  0  0  0  0  0  0  0  0  0
  -23.9787   -8.3962   23.5832 C   0  0  0  0  0  0  0  0  0  0  0  0
  -27.7285  -25.0001   20.1547 C   0  0  0  0  0  0  0  0  0  0  0  0
  -22.4480   -6.6393   23.8877 C   0  0  0  0  0  0  0  0  0  0  0  0
  -20.0995   -5.3480   23.1135 C   0  0  0  0  0  0  0  0  0  0  0  0
  -22.4901   -5.3121   23.4606 C   0  0  0  0  0  0  0  0  0  0  0  0
  -25.1160  -11.8622   21.4404 C   0  0  0  0  0  0  0  0  0  0  0  0
  -25.1277  -13.7951   20.3922 C   0  0  0  0  0  0  0  0  0  0  0  0
  -22.8854  -13.1320   21.2760 C   0  0  0  0  0  0  0  0  0  0  0  0
  -26.1940  -29.8252   22.1110 C   0  0  0  0  0  0  0  0  0  0  0  0
  -23.6174  -29.6872   20.1451 C   0  0  0  0  0  0  0  0  0  0  0  0
  -21.8531  -27.9464   17.7991 C   0  0  0  0  0  0  0  0  0  0  0  0
  -29.9623  -16.5250   19.9719 C   0  0  0  0  0  0  0  0  0  0  0  0
  -24.5512  -33.5819   25.1518 C   0  0  0  0  0  0  0  0  0  0  0  0
  -27.2756  -29.2728   19.9017 C   0  0  0  0  0  0  0  0  0  0  0  0
  -24.9304  -27.5526   20.4362 C   0  0  0  0  0  0  0  0  0  0  0  0
  -23.9447  -32.3121   24.5600 C   0  0  0  0  0  0  0  0  0  0  0  0
  -29.8853  -13.1705   18.7809 C   0  0  0  0  0  0  0  0  0  0  0  0
  -24.8722  -31.1223   24.7854 C   0  0  0  0  0  0  0  0  0  0  0  0
  -28.5696  -12.6192   19.3350 C   0  0  0  0  0  0  0  0  0  0  0  0
  -30.5613  -14.1221   19.7665 C   0  0  0  0  0  0  0  0  0  0  0  0
  -28.3962  -14.6645   20.8093 C   0  0  0  0  0  0  0  0  0  0  0  0
  -26.2216  -31.3349   24.0886 C   0  0  1  0  0  0  0  0  0  0  0  0
  -26.0368  -29.8033   20.6168 C   0  0  1  0  0  0  0  0  0  0  0  0
  -27.6462  -13.7516   19.8255 C   0  0  2  0  0  0  0  0  0  0  0  0
  -29.2710  -18.6648   17.7940 C   0  0  0  0  0  0  0  0  0  0  0  0
  -28.7956  -18.9810   22.7981 C   0  0  0  0  0  0  0  0  0  0  0  0
  -19.7687  -28.0725   16.4074 C   0  0  0  0  0  0  0  0  0  0  0  0
  -21.9409  -28.9892   22.5971 C   0  0  0  0  0  0  0  0  0  0  0  0
  -20.1316  -28.2101   21.0519 C   0  0  0  0  0  0  0  0  0  0  0  0
  -20.8582  -30.5962   21.0161 C   0  0  0  0  0  0  0  0  0  0  0  0
  -23.3948  -27.8636   15.2742 C   0  0  0  0  0  0  0  0  0  0  0  0
  -29.1861  -23.1244   20.0386 C   0  0  0  0  0  0  0  0  0  1  0  0
  -22.3836  -28.8216   20.0590 C   0  0  1  0  0  0  0  0  0  0  0  0
  -21.2593  -28.3683   16.4673 C   0  0  2  0  0  0  0  0  0  0  0  0
  -21.3547  -29.1431   21.1795 C   0  0  0  0  0  0  0  0  0  0  0  0
  -26.3842  -12.0259   21.0547 N   0  0  0  0  0  0  0  0  0  0  0  0
  -26.3594  -13.2101   20.4198 N   0  0  0  0  0  0  0  0  0  0  0  0
  -24.8360  -29.0176   20.3253 N   0  0  0  0  0  0  0  0  0  0  0  0
  -29.6281  -15.1707   20.1840 N   0  0  0  0  0  0  0  0  0  0  0  0
  -24.9251  -14.9884   19.7944 N   0  0  0  0  0  0  0  0  0  0  0  0
  -22.1733  -12.1479   21.9751 N   0  0  0  0  0  0  0  0  0  0  0  0
  -28.9839  -17.4311   20.3796 N   0  0  0  0  0  0  0  0  0  0  0  0
  -26.1014  -31.0865   22.6679 N   0  0  0  0  0  0  0  0  0  0  0  0
  -21.8638  -28.9853   18.7057 N   0  0  0  0  0  0  0  0  0  0  0  0
  -21.9275  -27.6439   15.3494 N   0  3  0  0  0  0  0  0  0  0  0  0
  -22.2781  -14.1441   20.8515 O   0  0  0  0  0  0  0  0  0  0  0  0
  -26.3836  -28.7755   22.7140 O   0  0  0  0  0  0  0  0  0  0  0  0
  -23.5050  -30.9118   20.0487 O   0  0  0  0  0  0  0  0  0  0  0  0
  -22.2629  -26.8079   18.0150 O   0  0  0  0  0  0  0  0  0  0  0  0
  -31.0257  -16.8555   19.4409 O   0  0  0  0  0  0  0  0  0  0  0  0
  -23.6129   -7.2814   24.2731 O   0  0  0  0  0  0  0  0  0  0  0  0
  -27.8727  -23.6489   20.2291 O   0  0  0  0  0  0  0  0  0  1  0  0
  -18.9716   -4.7277   22.7432 F   0  0  0  0  0  0  0  0  0  0  0  0
  -23.6556   -4.6518   23.4212 F   0  0  0  0  0  0  0  0  0  0  0  0
  1  2  1  0  0  0  0
  1  5  2  0  0  0  0
  2  6  2  0  0  0  0
  3  8  2  0  0  0  0
  3 17  1  0  0  0  0
  4  9  1  0  0  0  0
  4 17  2  0  0  0  0
  5 19  1  0  0  0  0
  6 21  1  0  0  0  0
  7 10  2  0  0  0  0
  7 20  1  0  0  0  0
  8 27  1  0  0  0  0
  9 27  2  0  0  0  0
 10 28  1  0  0  0  0
 11 12  2  0  0  0  0
 11 29  1  0  0  0  0
 12 30  1  0  0  0  0
 13 22  1  0  0  0  0
 13 28  2  0  0  0  0
 14 23  1  0  0  0  0
 14 24  2  0  0  0  0
 15 23  2  0  0  0  0
 15 25  1  0  0  0  0
 16 30  2  0  0  0  0
 16 31  1  0  0  0  0
 17 32  1  0  0  0  0
 18 32  1  0  0  0  0
 18 33  2  0  0  0  0
 18 34  1  0  0  0  0
 19 21  2  0  0  0  0
 19 39  1  0  0  0  0
 20 22  2  0  0  0  0
 20 40  1  0  0  0  0
 21 48  1  0  0  0  0
 22 41  1  0  0  0  0
 23 58  1  0  0  0  0
 24 26  1  0  0  0  0
 24 51  1  0  0  0  0
 25 26  2  0  0  0  0
 25 52  1  0  0  0  0
 26 68  1  0  0  0  0
 27 77  1  0  0  0  0
 28 78  1  0  0  0  0
 29 31  2  0  0  0  0
 29 77  1  0  0  0  0
 30 79  1  0  0  0  0
 31 80  1  0  0  0  0
 32 62  2  0  0  0  0
 33 63  1  0  0  0  0
 33 66  1  0  0  0  0
 34 67  1  0  0  0  0
 34 72  2  0  0  0  0
 35 49  1  0  0  0  0
 35 69  1  0  0  0  0
 35 73  2  0  0  0  0
 36 59  1  0  0  0  0
 36 64  1  0  0  0  0
 36 74  2  0  0  0  0
 37 60  1  0  0  0  0
 37 70  1  0  0  0  0
 37 75  2  0  0  0  0
 38 65  1  0  0  0  0
 38 68  1  0  0  0  0
 38 76  2  0  0  0  0
 39 42  1  0  0  0  0
 40 49  1  0  0  0  0
 41 64  1  0  0  0  0
 42 44  1  0  0  0  0
 43 45  1  0  0  0  0
 43 46  1  0  0  0  0
 44 48  1  0  0  0  0
 45 50  1  0  0  0  0
 46 65  1  0  0  0  0
 47 50  1  0  0  0  0
 47 65  1  0  0  0  0
 48 69  1  0  0  0  0
 49 64  1  0  0  0  0
 50 63  1  0  0  0  0
 53 60  1  0  0  0  0
 54 61  1  0  0  0  0
 55 61  1  0  0  0  0
 56 61  1  0  0  0  0
 57 71  1  0  0  0  0
 58 78  1  0  0  0  0
 59 61  1  0  0  0  0
 59 70  1  0  0  0  0
 60 71  1  0  0  0  0
 62 63  1  0  0  0  0
M  CHG  1  71   1
M  ISO  4  38 100  58 101  68 100  78 101
M  END
> <Batch ID>
0112

> <Smiles>
CNC(C)C(=O)NC(C(=O)N1Cc2cc([101O:1][101CH2:1]c3cc(C)c([100NH:0][100C:0](=O)N4CCCC(n5nc(-c6ccc(Oc7ccc(F)cc7F)cc6)c(C(N)=O)c5N)C4)c(C)c3)ccc2CC1C(=O)NC1CCCc2ccccc21)C(C)(C)C

> <Shape>
0.358

> <Color>
0.123

> <Negative vol penalty>
0.000

$$$$

  -OEChem-04052320033D

 90 98  0     1  0  0  0  0  0999 V2000
  -22.3472  -18.2176   18.0917 C   0  0  0  0  0  0  0  0  0  0  0  0
  -22.8131  -18.7304   19.2970 C   0  0  0  0  0  0  0  0  0  0  0  0
  -24.7025  -13.7427   21.0355 C   0  0  0  0  0  0  0  0  0  0  0  0
  -26.8813  -13.1112   20.2041 C   0  0  0  0  0  0  0  0  0  0  0  0
  -22.1955  -19.0600   16.9924 C   0  0  0  0  0  0  0  0  0  0  0  0
  -23.1161  -20.0879   19.4069 C   0  0  0  0  0  0  0  0  0  0  0  0
  -25.4966  -23.2531   24.0374 C   0  0  0  0  0  0  0  0  0  0  0  0
  -24.1905  -12.5103   20.6300 C   0  0  0  0  0  0  0  0  0  0  0  0
  -26.3693  -11.8787   19.7987 C   0  0  0  0  0  0  0  0  0  0  0  0
  -26.7617  -23.6434   24.4744 C   0  0  0  0  0  0  0  0  0  0  0  0
  -24.1916   -9.3211   21.7534 C   0  0  0  0  0  0  0  0  0  0  0  0
  -23.3669   -8.6363   22.6460 C   0  0  0  0  0  0  0  0  0  0  0  0
  -26.4659  -25.7832   23.4006 C   0  0  0  0  0  0  0  0  0  0  0  0
  -21.5682   -8.7018   21.0344 C   0  0  0  0  0  0  0  0  0  0  0  0
  -26.0479  -14.0432   20.8226 C   0  0  0  0  0  0  0  0  0  0  0  0
  -26.6053  -15.8374   22.5482 C   0  0  0  0  0  0  0  0  0  0  0  0
  -22.5089  -20.4260   17.0861 C   0  0  0  0  0  0  0  0  0  0  0  0
  -24.7098  -24.1224   23.2682 C   0  0  0  0  0  0  0  0  0  0  0  0
  -22.9469  -20.9591   18.3155 C   0  0  0  0  0  0  0  0  0  0  0  0
  -25.1901  -25.4025   22.9572 C   0  0  0  0  0  0  0  0  0  0  0  0
  -25.0239  -11.5782   20.0116 C   0  0  0  0  0  0  0  0  0  0  0  0
  -27.2478  -24.9075   24.1535 C   0  0  0  0  0  0  0  0  0  0  0  0
  -23.7045   -9.6963   20.5013 C   0  0  0  0  0  0  0  0  0  0  0  0
  -22.0553   -8.3267   22.2865 C   0  0  0  0  0  0  0  0  0  0  0  0
  -22.3928   -9.3866   20.1418 C   0  0  0  0  0  0  0  0  0  0  0  0
  -26.5772  -15.3164   21.2407 C   0  0  0  0  0  0  0  0  0  0  0  0
  -27.2051  -17.0658   22.4156 C   0  0  0  0  0  0  0  0  0  0  0  0
  -26.1315  -15.2623   23.7732 C   0  0  0  0  0  0  0  0  0  0  0  0
  -23.4894  -24.0401   20.3343 C   0  0  0  0  0  0  0  0  0  0  0  0
  -22.0440  -26.7860   21.2792 C   0  0  0  0  0  0  0  0  0  0  0  0
  -22.0471  -29.4967   23.3526 C   0  0  0  0  0  0  0  0  0  0  0  0
  -27.3261  -21.8749   19.5285 C   0  0  0  0  0  0  0  0  0  0  0  0
  -22.3187  -21.2940   15.8672 C   0  0  0  0  0  0  0  0  0  0  0  0
  -23.3363  -23.6963   22.8272 C   0  0  0  0  0  0  0  0  0  0  0  0
  -24.3765  -26.3807   22.1513 C   0  0  0  0  0  0  0  0  0  0  0  0
  -23.0806  -22.6125   15.9516 C   0  0  0  0  0  0  0  0  0  0  0  0
  -29.6487  -19.1441   18.5129 C   0  0  0  0  0  0  0  0  0  0  0  0
  -22.8044  -23.2879   17.2866 C   0  0  0  0  0  0  0  0  0  0  0  0
  -29.0104  -17.9401   19.2058 C   0  0  0  0  0  0  0  0  0  0  0  0
  -28.3358  -25.0966   17.8414 C   0  0  0  0  0  0  0  0  0  0  0  0
  -28.5994  -20.1867   18.1480 C   0  0  0  0  0  0  0  0  0  0  0  0
  -27.4431  -24.1764   18.6647 C   0  0  0  0  0  0  0  0  0  0  0  0
  -27.1371  -19.4585   19.9997 C   0  0  0  0  0  0  0  0  0  0  0  0
  -29.5826  -22.9952   19.1960 C   0  0  0  0  0  0  0  0  0  0  0  0
  -23.3119  -22.4264   18.4498 C   0  0  1  0  0  0  0  0  0  0  0  0
  -22.8310  -24.4713   21.6142 C   0  0  1  0  0  0  0  0  0  0  0  0
  -29.6477  -25.4574   18.5662 C   0  0  2  0  0  0  0  0  0  0  0  0
  -28.1566  -18.3812   20.4078 C   0  0  1  0  0  0  0  0  0  0  0  0
  -30.0212  -24.3950   19.6172 C   0  0  2  0  0  0  0  0  0  0  0  0
  -21.2092  -31.5973   24.4403 C   0  0  0  0  0  0  0  0  0  0  0  0
  -28.3782  -26.9563   20.1525 C   0  0  0  0  0  0  0  0  0  0  0  0
  -32.6801  -26.1386   24.8795 C   0  0  0  0  0  0  0  0  0  0  0  0
  -33.3746  -23.4154   21.0337 C   0  0  0  0  0  0  0  0  0  0  0  0
  -23.2065  -28.1082   18.7872 C   0  0  0  0  0  0  0  0  0  0  0  0
  -22.7086  -30.3336   19.8205 C   0  0  0  0  0  0  0  0  0  0  0  0
  -20.8471  -28.7545   19.3067 C   0  0  0  0  0  0  0  0  0  0  0  0
  -20.5956  -27.9769   25.4364 C   0  0  0  0  0  0  0  0  0  0  0  0
  -31.7177  -24.9761   22.1972 C   0  0  0  0  0  0  0  0  0  0  0  0
  -31.4308  -23.9246   26.5734 C   0  0  0  0  0  0  0  0  0  0  0  0
  -29.2268  -24.3490   25.3483 C   0  0  0  0  0  0  0  0  0  1  0  0
  -22.4017  -28.2521   21.2361 C   0  0  1  0  0  0  0  0  0  0  0  0
  -20.9515  -30.1178   24.2002 C   0  0  2  0  0  0  0  0  0  0  0  0
  -29.5559  -26.8468   19.2042 C   0  0  2  0  0  0  0  0  0  0  0  0
  -30.5918  -24.9357   25.7661 C   0  0  2  0  0  0  0  0  0  0  0  0
  -31.3524  -25.4693   24.5179 C   0  0  2  0  0  0  0  0  0  0  0  0
  -31.9317  -23.8893   21.1448 C   0  0  1  0  0  0  0  0  0  0  0  0
  -22.3073  -28.8432   19.8012 C   0  0  0  0  0  0  0  0  0  0  0  0
  -27.1162  -16.1461   20.3434 N   0  0  0  0  0  0  0  0  0  0  0  0
  -27.4886  -17.2009   21.0883 N   0  0  0  0  0  0  0  0  0  0  0  0
  -23.0424  -25.9150   21.7378 N   0  0  0  0  0  0  0  0  0  0  0  0
  -27.7972  -20.5715   19.3145 N   0  0  0  0  0  0  0  0  0  0  0  0
  -28.1175  -22.9319   19.0457 N   0  0  0  0  0  0  0  0  0  0  0  0
  -27.5124  -18.0329   23.3060 N   0  0  0  0  0  0  0  0  0  0  0  0
  -27.0133  -14.4757   24.5270 N   0  0  0  0  0  0  0  0  0  0  0  0
  -22.8484  -22.9955   19.6961 N   0  0  0  0  0  0  0  0  0  0  0  0
  -21.5402  -28.9112   22.2118 N   0  0  0  0  0  0  0  0  0  0  0  0
  -31.6044  -24.4250   23.5278 N   0  0  0  0  0  0  0  0  0  0  0  0
  -30.7505  -23.5608   27.8410 N   0  3  0  0  0  0  0  0  0  0  0  0
  -29.3914  -27.8435   18.1158 N   0  3  0  0  0  0  0  0  0  0  0  0
  -31.4975  -24.3957   19.8170 N   0  3  0  0  0  0  0  0  0  0  0  0
  -20.8690  -29.4346   25.5220 N   0  3  0  0  0  0  0  0  0  0  0  0
  -24.9560  -15.4271   24.1788 O   0  0  0  0  0  0  0  0  0  0  0  0
  -24.5031  -24.6136   19.9533 O   0  0  0  0  0  0  0  0  0  0  0  0
  -20.9177  -26.4277   20.9259 O   0  0  0  0  0  0  0  0  0  0  0  0
  -23.2342  -29.5310   23.6690 O   0  0  0  0  0  0  0  0  0  0  0  0
  -26.2711  -22.0877   20.1400 O   0  0  0  0  0  0  0  0  0  0  0  0
  -24.5246  -10.3754   19.6160 O   0  0  0  0  0  0  0  0  0  0  0  0
  -28.4913  -25.2934   24.5812 O   0  0  0  0  0  0  0  0  0  1  0  0
  -21.2640   -7.6677   23.1431 F   0  0  0  0  0  0  0  0  0  0  0  0
  -21.9196   -9.7434   18.9399 F   0  0  0  0  0  0  0  0  0  0  0  0
  1  2  1  0  0  0  0
  1  5  2  0  0  0  0
  2  6  2  0  0  0  0
  3  8  2  0  0  0  0
  3 15  1  0  0  0  0
  4  9  1  0  0  0  0
  4 15  2  0  0  0  0
  5 17  1  0  0  0  0
  6 19  1  0  0  0  0
  7 10  2  0  0  0  0
  7 18  1  0  0  0  0
  8 21  1  0  0  0  0
  9 21  2  0  0  0  0
 10 22  1  0  0  0  0
 11 12  2  0  0  0  0
 11 23  1  0  0  0  0
 12 24  1  0  0  0  0
 13 20  1  0  0  0  0
 13 22  2  0  0  0  0
 14 24  2  0  0  0  0
 14 25  1  0  0  0  0
 15 26  1  0  0  0  0
 16 26  1  0  0  0  0
 16 27  2  0  0  0  0
 16 28  1  0  0  0  0
 17 19  2  0  0  0  0
 17 33  1  0  0  0  0
 18 20  2  0  0  0  0
 18 34  1  0  0  0  0
 19 45  1  0  0  0  0
 20 35  1  0  0  0  0
 21 87  1  0  0  0  0
 22 88  1  0  0  0  0
 23 25  2  0  0  0  0
 23 87  1  0  0  0  0
 24 89  1  0  0  0  0
 25 90  1  0  0  0  0
 26 68  2  0  0  0  0
 27 69  1  0  0  0  0
 27 73  1  0  0  0  0
 28 74  1  0  0  0  0
 28 82  2  0  0  0  0
 29 46  1  0  0  0  0
 29 75  1  0  0  0  0
 29 83  2  0  0  0  0
 30 61  1  0  0  0  0
 30 70  1  0  0  0  0
 30 84  2  0  0  0  0
 31 62  1  0  0  0  0
 31 76  1  0  0  0  0
 31 85  2  0  0  0  0
 32 71  1  0  0  0  0
 32 72  1  0  0  0  0
 32 86  2  0  0  0  0
 33 36  1  0  0  0  0
 34 46  1  0  0  0  0
 35 70  1  0  0  0  0
 36 38  1  0  0  0  0
 37 39  1  0  0  0  0
 37 41  1  0  0  0  0
 38 45  1  0  0  0  0
 39 48  1  0  0  0  0
 40 42  1  0  0  0  0
 40 47  1  0  0  0  0
 41 71  1  0  0  0  0
 42 72  1  0  0  0  0
 43 48  1  0  0  0  0
 43 71  1  0  0  0  0
 44 49  1  0  0  0  0
 44 72  1  0  0  0  0
 45 75  1  0  0  0  0
 46 70  1  0  0  0  0
 47 49  1  0  0  0  0
 47 63  1  0  0  0  0
 48 69  1  0  0  0  0
 49 80  1  0  0  0  0
 50 62  1  0  0  0  0
 51 63  1  0  0  0  0
 52 65  1  0  0  0  0
 53 66  1  0  0  0  0
 54 67  1  0  0  0  0
 55 67  1  0  0  0  0
 56 67  1  0  0  0  0
 57 81  1  0  0  0  0
 58 66  1  0  0  0  0
 58 77  1  0  0  0  0
 59 64  1  0  0  0  0
 59 78  1  0  0  0  0
 60 64  1  0  0  0  0
 60 88  1  0  0  0  0
 61 67  1  0  0  0  0
 61 76  1  0  0  0  0
 62 81  1  0  0  0  0
 63 79  1  0  0  0  0
 64 65  1  0  0  0  0
 65 77  1  0  0  0  0
 66 80  1  0  0  0  0
 68 69  1  0  0  0  0
M  CHG  4  78   1  79   1  80   1  81   1
M  ISO  4  32 100  60 101  72 100  88 101
M  END
> <Batch ID>
0112

> <Smiles>
CNC(C)C(=O)NC(C(=O)N1Cc2cc([101O:1][101CH2:1]C(CN)C(C)NCC(C)NC3C[100N:0]([100C:0](=O)N4CCCC(n5nc(-c6ccc(Oc7ccc(F)cc7F)cc6)c(C(N)=O)c5N)C4)CCC3C(C)N)ccc2CC1C(=O)NC1CCCc2ccccc21)C(C)(C)C

> <Shape>
0.189

> <Color>
0.052

> <Negative vol penalty>
0.000

$$$$

  -OEChem-04052320033D

 80 88  0     1  0  0  0  0  0999 V2000
  -29.3420  -23.8047   17.7633 C   0  0  0  0  0  0  0  0  0  0  0  0
  -28.0864  -23.9882   18.3336 C   0  0  0  0  0  0  0  0  0  0  0  0
  -19.8556  -22.6924   19.7030 C   0  0  0  0  0  0  0  0  0  0  0  0
  -27.5713  -14.9788   21.2396 C   0  0  0  0  0  0  0  0  0  0  0  0
  -25.6516  -15.2606   19.8000 C   0  0  0  0  0  0  0  0  0  0  0  0
  -30.4548  -24.4419   18.3106 C   0  0  0  0  0  0  0  0  0  0  0  0
  -27.9431  -24.8082   19.4524 C   0  0  0  0  0  0  0  0  0  0  0  0
  -23.9650  -27.9200   19.0835 C   0  0  0  0  0  0  0  0  0  0  0  0
  -27.3436  -13.6031   21.2738 C   0  0  0  0  0  0  0  0  0  0  0  0
  -25.4240  -13.8849   19.8342 C   0  0  0  0  0  0  0  0  0  0  0  0
  -22.7056  -27.3754   19.3304 C   0  0  0  0  0  0  0  0  0  0  0  0
  -24.1237  -10.4909   19.8333 C   0  0  0  0  0  0  0  0  0  0  0  0
  -22.8130  -10.0553   20.0279 C   0  0  0  0  0  0  0  0  0  0  0  0
  -19.3696  -23.8328   20.3329 C   0  0  0  0  0  0  0  0  0  0  0  0
  -20.9819  -22.0525   20.2082 C   0  0  0  0  0  0  0  0  0  0  0  0
  -22.7507  -28.2968   21.5594 C   0  0  0  0  0  0  0  0  0  0  0  0
  -22.7480  -11.2008   22.1541 C   0  0  0  0  0  0  0  0  0  0  0  0
  -26.7252  -15.8076   20.5027 C   0  0  0  0  0  0  0  0  0  0  0  0
  -27.7542  -17.9368   19.5459 C   0  0  0  0  0  0  0  0  0  0  0  0
  -30.3236  -25.2777   19.4307 C   0  0  0  0  0  0  0  0  0  0  0  0
  -24.6326  -28.6491   20.0781 C   0  0  0  0  0  0  0  0  0  0  0  0
  -29.0555  -25.4561   20.0160 C   0  0  0  0  0  0  0  0  0  0  0  0
  -24.0174  -28.8518   21.3217 C   0  0  0  0  0  0  0  0  0  0  0  0
  -26.2700  -13.0561   20.5711 C   0  0  0  0  0  0  0  0  0  0  0  0
  -22.0994  -27.5613   20.5694 C   0  0  0  0  0  0  0  0  0  0  0  0
  -24.7466  -11.2814   20.7992 C   0  0  0  0  0  0  0  0  0  0  0  0
  -22.1252  -10.4102   21.1883 C   0  0  0  0  0  0  0  0  0  0  0  0
  -24.0588  -11.6363   21.9595 C   0  0  0  0  0  0  0  0  0  0  0  0
  -26.9595  -17.2288   20.4674 C   0  0  0  0  0  0  0  0  0  0  0  0
  -20.0408  -24.2892   21.4559 C   0  0  0  0  0  0  0  0  0  0  0  0
  -21.5810  -22.5888   21.3366 C   0  0  0  0  0  0  0  0  0  0  0  0
  -27.6505  -19.2485   19.9397 C   0  0  0  0  0  0  0  0  0  0  0  0
  -28.5179  -17.4520   18.4335 C   0  0  0  0  0  0  0  0  0  0  0  0
  -27.3646  -28.2980   21.6644 C   0  0  0  0  0  0  0  0  0  0  0  0
  -26.6042  -31.2227   22.8434 C   0  0  0  0  0  0  0  0  0  0  0  0
  -24.1837  -33.5244   23.5438 C   0  0  0  0  0  0  0  0  0  0  0  0
  -23.4844  -22.2871   22.9590 C   0  0  0  0  0  0  0  0  0  0  0  0
  -31.5629  -25.9076   20.0156 C   0  0  0  0  0  0  0  0  0  0  0  0
  -25.9791  -29.2528   19.7869 C   0  0  0  0  0  0  0  0  0  0  0  0
  -24.6832  -29.6439   22.4161 C   0  0  0  0  0  0  0  0  0  0  0  0
  -31.2669  -27.0575   20.9750 C   0  0  0  0  0  0  0  0  0  0  0  0
  -26.9197  -21.9440   23.8300 C   0  0  0  0  0  0  0  0  0  0  0  0
  -30.1639  -26.6661   21.9532 C   0  0  0  0  0  0  0  0  0  0  0  0
  -27.3936  -20.7642   22.9782 C   0  0  0  0  0  0  0  0  0  0  0  0
  -25.4882  -21.7467   24.3257 C   0  0  0  0  0  0  0  0  0  0  0  0
  -24.9788  -20.2625   22.4266 C   0  0  0  0  0  0  0  0  0  0  0  0
  -28.8557  -26.3575   21.2150 C   0  0  1  0  0  0  0  0  0  0  0  0
  -26.7896  -29.5413   21.0468 C   0  0  1  0  0  0  0  0  0  0  0  0
  -26.3925  -20.4452   21.8505 C   0  0  2  0  0  0  0  0  0  0  0  0
  -19.1059  -25.2085   23.6036 C   0  0  0  0  0  0  0  0  0  0  0  0
  -23.8633  -35.8050   24.5404 C   0  0  0  0  0  0  0  0  0  0  0  0
  -26.9475  -30.0471   25.6381 C   0  0  0  0  0  0  0  0  0  0  0  0
  -25.7201  -32.0307   26.5475 C   0  0  0  0  0  0  0  0  0  0  0  0
  -27.8861  -32.3474   25.3514 C   0  0  0  0  0  0  0  0  0  0  0  0
  -23.0956  -34.6048   21.0125 C   0  0  0  0  0  0  0  0  0  0  0  0
  -20.5777  -26.6621   22.1605 C   0  0  0  0  0  0  0  0  0  1  0  0
  -19.5376  -25.5334   22.1709 C   0  0  1  0  0  0  0  0  0  0  0  0
  -25.8210  -31.7257   24.0320 C   0  0  1  0  0  0  0  0  0  0  0  0
  -24.0986  -35.0138   23.2632 C   0  0  2  0  0  0  0  0  0  0  0  0
  -26.5817  -31.5211   25.3725 C   0  0  0  0  0  0  0  0  0  0  0  0
  -26.3929  -18.0249   21.3780 N   0  0  0  0  0  0  0  0  0  0  0  0
  -21.1378  -23.6945   21.9758 N   0  0  0  0  0  0  0  0  0  0  0  0
  -26.8321  -19.2466   21.0308 N   0  0  0  0  0  0  0  0  0  0  0  0
  -26.0019  -30.2088   22.0852 N   0  0  0  0  0  0  0  0  0  0  0  0
  -24.5958  -21.4525   23.2024 N   0  0  0  0  0  0  0  0  0  0  0  0
  -28.1805  -20.3919   19.4556 N   0  0  0  0  0  0  0  0  0  0  0  0
  -28.5144  -16.0755   18.1698 N   0  0  0  0  0  0  0  0  0  0  0  0
  -22.7270  -21.9281   21.8445 N   0  0  0  0  0  0  0  0  0  0  0  0
  -28.1956  -27.5841   20.8222 N   0  0  0  0  0  0  0  0  0  0  0  0
  -25.4856  -33.1154   23.7413 N   0  0  0  0  0  0  0  0  0  0  0  0
  -22.9806  -35.3002   22.3203 N   0  3  0  0  0  0  0  0  0  0  0  0
  -29.1967  -18.2149   17.7050 O   0  0  0  0  0  0  0  0  0  0  0  0
  -27.0770  -28.0088   22.8199 O   0  0  0  0  0  0  0  0  0  0  0  0
  -27.7065  -31.7165   22.5927 O   0  0  0  0  0  0  0  0  0  0  0  0
  -23.1939  -32.7971   23.5874 O   0  0  0  0  0  0  0  0  0  0  0  0
  -23.2395  -23.2653   23.6696 O   0  0  0  0  0  0  0  0  0  0  0  0
  -26.0477  -11.7137   20.6041 O   0  0  0  0  0  0  0  0  0  0  0  0
  -20.8705  -27.0302   20.8133 O   0  0  0  0  0  0  0  0  0  1  0  0
  -20.8660   -9.9931   21.3743 F   0  0  0  0  0  0  0  0  0  0  0  0
  -24.6515  -12.3965   22.8904 F   0  0  0  0  0  0  0  0  0  0  0  0
  1  2  1  0  0  0  0
  1  6  2  0  0  0  0
  2  7  2  0  0  0  0
  3 14  2  0  0  0  0
  3 15  1  0  0  0  0
  4  9  2  0  0  0  0
  4 18  1  0  0  0  0
  5 10  1  0  0  0  0
  5 18  2  0  0  0  0
  6 20  1  0  0  0  0
  7 22  1  0  0  0  0
  8 11  2  0  0  0  0
  8 21  1  0  0  0  0
  9 24  1  0  0  0  0
 10 24  2  0  0  0  0
 11 25  1  0  0  0  0
 12 13  2  0  0  0  0
 12 26  1  0  0  0  0
 13 27  1  0  0  0  0
 14 30  1  0  0  0  0
 15 31  2  0  0  0  0
 16 23  1  0  0  0  0
 16 25  2  0  0  0  0
 17 27  2  0  0  0  0
 17 28  1  0  0  0  0
 18 29  1  0  0  0  0
 19 29  1  0  0  0  0
 19 32  2  0  0  0  0
 19 33  1  0  0  0  0
 20 22  2  0  0  0  0
 20 38  1  0  0  0  0
 21 23  2  0  0  0  0
 21 39  1  0  0  0  0
 22 47  1  0  0  0  0
 23 40  1  0  0  0  0
 24 77  1  0  0  0  0
 25 78  1  0  0  0  0
 26 28  2  0  0  0  0
 26 77  1  0  0  0  0
 27 79  1  0  0  0  0
 28 80  1  0  0  0  0
 29 61  2  0  0  0  0
 30 57  1  0  0  0  0
 30 62  2  0  0  0  0
 31 62  1  0  0  0  0
 31 68  1  0  0  0  0
 32 63  1  0  0  0  0
 32 66  1  0  0  0  0
 33 67  1  0  0  0  0
 33 72  2  0  0  0  0
 34 48  1  0  0  0  0
 34 69  1  0  0  0  0
 34 73  2  0  0  0  0
 35 58  1  0  0  0  0
 35 64  1  0  0  0  0
 35 74  2  0  0  0  0
 36 59  1  0  0  0  0
 36 70  1  0  0  0  0
 36 75  2  0  0  0  0
 37 65  1  0  0  0  0
 37 68  1  0  0  0  0
 37 76  2  0  0  0  0
 38 41  1  0  0  0  0
 39 48  1  0  0  0  0
 40 64  1  0  0  0  0
 41 43  1  0  0  0  0
 42 44  1  0  0  0  0
 42 45  1  0  0  0  0
 43 47  1  0  0  0  0
 44 49  1  0  0  0  0
 45 65  1  0  0  0  0
 46 49  1  0  0  0  0
 46 65  1  0  0  0  0
 47 69  1  0  0  0  0
 48 64  1  0  0  0  0
 49 63  1  0  0  0  0
 50 57  1  0  0  0  0
 51 59  1  0  0  0  0
 52 60  1  0  0  0  0
 53 60  1  0  0  0  0
 54 60  1  0  0  0  0
 55 71  1  0  0  0  0
 56 57  1  0  0  0  0
 56 78  1  0  0  0  0
 58 60  1  0  0  0  0
 58 70  1  0  0  0  0
 59 71  1  0  0  0  0
 61 63  1  0  0  0  0
M  CHG  1  71   1
M  ISO  4  37 100  56 101  68 100  78 101
M  END
> <Batch ID>
0112

> <Smiles>
CNC(C)C(=O)NC(C(=O)N1Cc2cc([101O:1][101CH2:1]C(C)c3cccc([100NH:0][100C:0](=O)N4CCCC(n5nc(-c6ccc(Oc7ccc(F)cc7F)cc6)c(C(N)=O)c5N)C4)n3)ccc2CC1C(=O)NC1CCCc2ccccc21)C(C)(C)C

> <Shape>
0.287

> <Color>
0.068

> <Negative vol penalty>
0.000

$$$$

  -OEChem-04052320033D

 81 89  0     1  0  0  0  0  0999 V2000
  -37.1065  -26.4746   17.5175 C   0  0  0  0  0  0  0  0  0  0  0  0
  -36.6569  -25.6504   18.5441 C   0  0  0  0  0  0  0  0  0  0  0  0
  -23.2076   -9.8865   19.9617 C   0  0  0  0  0  0  0  0  0  0  0  0
  -23.9079   -9.9865   22.2718 C   0  0  0  0  0  0  0  0  0  0  0  0
  -36.1927  -27.2140   16.7678 C   0  0  0  0  0  0  0  0  0  0  0  0
  -35.2931  -25.5660   18.8224 C   0  0  0  0  0  0  0  0  0  0  0  0
  -33.7468  -20.7964   19.5328 C   0  0  0  0  0  0  0  0  0  0  0  0
  -22.5219   -8.6999   20.2209 C   0  0  0  0  0  0  0  0  0  0  0  0
  -23.2221   -8.7999   22.5311 C   0  0  0  0  0  0  0  0  0  0  0  0
  -34.0275  -20.2133   20.7677 C   0  0  0  0  0  0  0  0  0  0  0  0
  -21.9552   -5.6076   23.7203 C   0  0  0  0  0  0  0  0  0  0  0  0
  -22.6058   -4.6354   24.4799 C   0  0  0  0  0  0  0  0  0  0  0  0
  -31.7686  -20.6614   21.4858 C   0  0  0  0  0  0  0  0  0  0  0  0
  -24.3594   -4.5140   22.8224 C   0  0  0  0  0  0  0  0  0  0  0  0
  -31.6386  -16.8534   24.8340 C   0  0  0  0  0  0  0  0  0  0  0  0
  -32.3878  -16.0322   22.8900 C   0  0  0  0  0  0  0  0  0  0  0  0
  -23.9007  -10.5298   20.9872 C   0  0  0  0  0  0  0  0  0  0  0  0
  -24.1069  -13.0667   20.8157 C   0  0  0  0  0  0  0  0  0  0  0  0
  -34.8162  -27.1312   17.0306 C   0  0  0  0  0  0  0  0  0  0  0  0
  -32.4760  -21.3270   19.2686 C   0  0  0  0  0  0  0  0  0  0  0  0
  -34.3601  -26.3060   18.0763 C   0  0  0  0  0  0  0  0  0  0  0  0
  -31.4736  -21.2484   20.2459 C   0  0  0  0  0  0  0  0  0  0  0  0
  -30.6393  -16.0646   24.3083 C   0  0  0  0  0  0  0  0  0  0  0  0
  -31.1132  -15.5451   23.0784 C   0  0  0  0  0  0  0  0  0  0  0  0
  -22.5291   -8.1566   21.5056 C   0  0  0  0  0  0  0  0  0  0  0  0
  -33.0392  -20.1483   21.7455 C   0  0  0  0  0  0  0  0  0  0  0  0
  -22.5066   -6.0330   22.5116 C   0  0  0  0  0  0  0  0  0  0  0  0
  -23.8080   -4.0886   24.0310 C   0  0  0  0  0  0  0  0  0  0  0  0
  -23.7087   -5.4862   22.0627 C   0  0  0  0  0  0  0  0  0  0  0  0
  -24.6098  -11.7553   20.7199 C   0  0  0  0  0  0  0  0  0  0  0  0
  -25.1653  -13.8671   20.4611 C   0  0  0  0  0  0  0  0  0  0  0  0
  -22.8000  -13.5207   21.1918 C   0  0  0  0  0  0  0  0  0  0  0  0
  -31.3524  -24.2184   18.5747 C   0  0  0  0  0  0  0  0  0  0  0  0
  -28.5639  -22.6110   18.1709 C   0  0  0  0  0  0  0  0  0  0  0  0
  -26.6697  -19.8673   18.8994 C   0  0  0  0  0  0  0  0  0  0  0  0
  -30.9100  -14.1775   20.9726 C   0  0  0  0  0  0  0  0  0  0  0  0
  -33.8705  -27.9856   16.2242 C   0  0  0  0  0  0  0  0  0  0  0  0
  -32.1813  -21.9287   17.9219 C   0  0  0  0  0  0  0  0  0  0  0  0
  -30.0871  -21.7852   20.0048 C   0  0  0  0  0  0  0  0  0  0  0  0
  -32.4110  -27.5528   16.3381 C   0  0  0  0  0  0  0  0  0  0  0  0
  -29.3592  -13.1789   17.9271 C   0  0  0  0  0  0  0  0  0  0  0  0
  -32.0411  -27.3009   17.7963 C   0  0  0  0  0  0  0  0  0  0  0  0
  -27.9268  -12.8379   18.3445 C   0  0  0  0  0  0  0  0  0  0  0  0
  -30.3731  -12.7720   18.9948 C   0  0  0  0  0  0  0  0  0  0  0  0
  -28.6630  -12.9441   20.7598 C   0  0  0  0  0  0  0  0  0  0  0  0
  -32.8865  -26.1688   18.3923 C   0  0  1  0  0  0  0  0  0  0  0  0
  -31.0044  -22.8990   17.9455 C   0  0  1  0  0  0  0  0  0  0  0  0
  -27.6001  -13.3942   19.7442 C   0  0  2  0  0  0  0  0  0  0  0  0
  -29.3201  -15.8163   24.9240 C   0  0  0  0  0  0  0  0  0  0  0  0
  -24.4187  -18.8523   18.4518 C   0  0  0  0  0  0  0  0  0  0  0  0
  -27.2897  -24.5837   20.1189 C   0  0  0  0  0  0  0  0  0  0  0  0
  -25.3704  -22.9948   20.3637 C   0  0  0  0  0  0  0  0  0  0  0  0
  -25.8723  -24.0084   18.1404 C   0  0  0  0  0  0  0  0  0  0  0  0
  -34.0907  -18.3951   25.4717 C   0  0  0  0  0  0  0  0  0  0  0  0
  -35.1818  -16.5454   24.2204 C   0  0  0  0  0  0  0  0  0  0  0  0
  -27.8703  -17.4803   17.6267 C   0  0  0  0  0  0  0  0  0  0  0  0
  -34.2850  -18.5380   22.9746 C   0  0  0  0  0  0  0  0  0  1  0  0
  -27.4107  -22.2289   19.0671 C   0  0  1  0  0  0  0  0  0  0  0  0
  -25.8723  -18.9291   18.0115 C   0  0  2  0  0  0  0  0  0  0  0  0
  -26.5124  -23.4455   19.4281 C   0  0  0  0  0  0  0  0  0  0  0  0
  -34.0288  -17.5737   24.1614 C   0  0  0  0  0  0  0  0  0  0  0  0
  -25.8882  -11.7202   20.3344 N   0  0  0  0  0  0  0  0  0  0  0  0
  -32.6968  -16.8261   23.9635 N   0  0  0  0  0  0  0  0  0  0  0  0
  -26.1975  -13.0195   20.1848 N   0  0  0  0  0  0  0  0  0  0  0  0
  -29.8500  -22.3697   18.6745 N   0  0  0  0  0  0  0  0  0  0  0  0
  -30.0014  -13.3388   20.2931 N   0  0  0  0  0  0  0  0  0  0  0  0
  -25.3043  -15.2062   20.3617 N   0  0  0  0  0  0  0  0  0  0  0  0
  -21.8311  -12.5648   21.5261 N   0  0  0  0  0  0  0  0  0  0  0  0
  -30.4341  -14.6834   22.1817 N   0  0  0  0  0  0  0  0  0  0  0  0
  -32.3915  -24.8824   17.9512 N   0  0  0  0  0  0  0  0  0  0  0  0
  -26.7066  -21.1470   18.3873 N   0  0  0  0  0  0  0  0  0  0  0  0
  -26.4505  -17.5563   18.0573 N   0  3  0  0  0  0  0  0  0  0  0  0
  -22.4954  -14.7374   21.2143 O   0  0  0  0  0  0  0  0  0  0  0  0
  -30.7237  -24.6060   19.5526 O   0  0  0  0  0  0  0  0  0  0  0  0
  -28.3321  -23.0988   17.0619 O   0  0  0  0  0  0  0  0  0  0  0  0
  -27.2030  -19.5024   19.9448 O   0  0  0  0  0  0  0  0  0  0  0  0
  -32.0175  -14.4503   20.5024 O   0  0  0  0  0  0  0  0  0  0  0  0
  -21.8598   -6.9988   21.7590 O   0  0  0  0  0  0  0  0  0  0  0  0
  -33.3106  -19.5803   22.9519 O   0  0  0  0  0  0  0  0  0  1  0  0
  -24.4335   -3.1561   24.7613 F   0  0  0  0  0  0  0  0  0  0  0  0
  -24.2439   -5.8917   20.9030 F   0  0  0  0  0  0  0  0  0  0  0  0
  1  2  1  0  0  0  0
  1  5  2  0  0  0  0
  2  6  2  0  0  0  0
  3  8  2  0  0  0  0
  3 17  1  0  0  0  0
  4  9  1  0  0  0  0
  4 17  2  0  0  0  0
  5 19  1  0  0  0  0
  6 21  1  0  0  0  0
  7 10  2  0  0  0  0
  7 20  1  0  0  0  0
  8 25  1  0  0  0  0
  9 25  2  0  0  0  0
 10 26  1  0  0  0  0
 11 12  2  0  0  0  0
 11 27  1  0  0  0  0
 12 28  1  0  0  0  0
 13 22  1  0  0  0  0
 13 26  2  0  0  0  0
 14 28  2  0  0  0  0
 14 29  1  0  0  0  0
 15 23  2  0  0  0  0
 15 63  1  0  0  0  0
 16 24  2  0  0  0  0
 16 63  1  0  0  0  0
 17 30  1  0  0  0  0
 18 30  1  0  0  0  0
 18 31  2  0  0  0  0
 18 32  1  0  0  0  0
 19 21  2  0  0  0  0
 19 37  1  0  0  0  0
 20 22  2  0  0  0  0
 20 38  1  0  0  0  0
 21 46  1  0  0  0  0
 22 39  1  0  0  0  0
 23 24  1  0  0  0  0
 23 49  1  0  0  0  0
 24 69  1  0  0  0  0
 25 78  1  0  0  0  0
 26 79  1  0  0  0  0
 27 29  2  0  0  0  0
 27 78  1  0  0  0  0
 28 80  1  0  0  0  0
 29 81  1  0  0  0  0
 30 62  2  0  0  0  0
 31 64  1  0  0  0  0
 31 67  1  0  0  0  0
 32 68  1  0  0  0  0
 32 73  2  0  0  0  0
 33 47  1  0  0  0  0
 33 70  1  0  0  0  0
 33 74  2  0  0  0  0
 34 58  1  0  0  0  0
 34 65  1  0  0  0  0
 34 75  2  0  0  0  0
 35 59  1  0  0  0  0
 35 71  1  0  0  0  0
 35 76  2  0  0  0  0
 36 66  1  0  0  0  0
 36 69  1  0  0  0  0
 36 77  2  0  0  0  0
 37 40  1  0  0  0  0
 38 47  1  0  0  0  0
 39 65  1  0  0  0  0
 40 42  1  0  0  0  0
 41 43  1  0  0  0  0
 41 44  1  0  0  0  0
 42 46  1  0  0  0  0
 43 48  1  0  0  0  0
 44 66  1  0  0  0  0
 45 48  1  0  0  0  0
 45 66  1  0  0  0  0
 46 70  1  0  0  0  0
 47 65  1  0  0  0  0
 48 64  1  0  0  0  0
 50 59  1  0  0  0  0
 51 60  1  0  0  0  0
 52 60  1  0  0  0  0
 53 60  1  0  0  0  0
 54 61  1  0  0  0  0
 55 61  1  0  0  0  0
 56 72  1  0  0  0  0
 57 61  1  0  0  0  0
 57 79  1  0  0  0  0
 58 60  1  0  0  0  0
 58 71  1  0  0  0  0
 59 72  1  0  0  0  0
 61 63  1  0  0  0  0
 62 64  1  0  0  0  0
M  CHG  1  72   1
M  ISO  4  36 100  57 101  69 100  79 101
M  END
> <Batch ID>
0112

> <Smiles>
CNC(C)C(=O)NC(C(=O)N1Cc2cc([101O:1][101CH2:1]C(C)(C)n3cc(C)c([100NH:0][100C:0](=O)N4CCCC(n5nc(-c6ccc(Oc7ccc(F)cc7F)cc6)c(C(N)=O)c5N)C4)c3)ccc2CC1C(=O)NC1CCCc2ccccc21)C(C)(C)C

> <Shape>
0.209

> <Color>
0.207

> <Negative vol penalty>
0.000

$$$$

  -OEChem-04052320033D

 81 89  0     1  0  0  0  0  0999 V2000
  -22.7721  -23.2630   20.8432 C   0  0  0  0  0  0  0  0  0  0  0  0
  -23.7188  -22.6798   20.0072 C   0  0  0  0  0  0  0  0  0  0  0  0
  -26.1218  -27.7326   18.8647 C   0  0  0  0  0  0  0  0  0  0  0  0
  -26.3457  -27.5223   21.2611 C   0  0  0  0  0  0  0  0  0  0  0  0
  -22.4438  -22.6546   22.0540 C   0  0  0  0  0  0  0  0  0  0  0  0
  -24.3387  -21.4883   20.3820 C   0  0  0  0  0  0  0  0  0  0  0  0
  -27.0482  -15.4809   17.5738 C   0  0  0  0  0  0  0  0  0  0  0  0
  -24.9896  -28.5282   19.0403 C   0  0  0  0  0  0  0  0  0  0  0  0
  -25.2135  -28.3179   21.4367 C   0  0  0  0  0  0  0  0  0  0  0  0
  -28.2111  -14.7121   17.5930 C   0  0  0  0  0  0  0  0  0  0  0  0
  -21.8572  -27.9469   21.2669 C   0  0  0  0  0  0  0  0  0  0  0  0
  -20.9077  -27.5263   22.1979 C   0  0  0  0  0  0  0  0  0  0  0  0
  -32.8378  -17.0934   20.3188 C   0  0  0  0  0  0  0  0  0  0  0  0
  -27.5070  -13.7096   19.6710 C   0  0  0  0  0  0  0  0  0  0  0  0
  -21.2212  -29.5732   23.4425 C   0  0  0  0  0  0  0  0  0  0  0  0
  -33.1088  -15.8258   19.8529 C   0  0  0  0  0  0  0  0  0  0  0  0
  -31.3637  -15.6669   21.2472 C   0  0  0  0  0  0  0  0  0  0  0  0
  -26.7998  -27.2296   19.9751 C   0  0  0  0  0  0  0  0  0  0  0  0
  -29.3064  -26.8384   19.7074 C   0  0  0  0  0  0  0  0  0  0  0  0
  -23.0530  -21.4500   22.4394 C   0  0  0  0  0  0  0  0  0  0  0  0
  -26.1095  -15.3776   18.6105 C   0  0  0  0  0  0  0  0  0  0  0  0
  -24.0193  -20.8639   21.5997 C   0  0  0  0  0  0  0  0  0  0  0  0
  -26.3317  -14.4763   19.6614 C   0  0  0  0  0  0  0  0  0  0  0  0
  -31.7337  -16.9930   21.2008 C   0  0  0  0  0  0  0  0  0  0  0  0
  -24.5355  -28.8208   20.3262 C   0  0  0  0  0  0  0  0  0  0  0  0
  -28.4420  -13.8284   18.6431 C   0  0  0  0  0  0  0  0  0  0  0  0
  -22.4889  -29.1807   21.4236 C   0  0  0  0  0  0  0  0  0  0  0  0
  -20.5896  -28.3394   23.2857 C   0  0  0  0  0  0  0  0  0  0  0  0
  -22.1708  -29.9939   22.5114 C   0  0  0  0  0  0  0  0  0  0  0  0
  -27.9691  -26.4073   19.7943 C   0  0  0  0  0  0  0  0  0  0  0  0
  -30.0295  -25.6828   19.5393 C   0  0  0  0  0  0  0  0  0  0  0  0
  -29.8468  -28.1648   19.7729 C   0  0  0  0  0  0  0  0  0  0  0  0
  -24.9394  -17.3794   20.7847 C   0  0  0  0  0  0  0  0  0  0  0  0
  -22.9820  -14.8830   21.4621 C   0  0  0  0  0  0  0  0  0  0  0  0
  -22.4481  -11.5134   21.3748 C   0  0  0  0  0  0  0  0  0  0  0  0
  -30.0683  -20.2827   21.3420 C   0  0  0  0  0  0  0  0  0  0  0  0
  -22.7003  -20.8544   23.7794 C   0  0  0  0  0  0  0  0  0  0  0  0
  -24.8474  -16.1943   18.5614 C   0  0  0  0  0  0  0  0  0  0  0  0
  -25.3456  -14.3132   20.7881 C   0  0  0  0  0  0  0  0  0  0  0  0
  -23.1289  -19.3971   23.9300 C   0  0  0  0  0  0  0  0  0  0  0  0
  -28.9756  -21.1060   17.9915 C   0  0  0  0  0  0  0  0  0  0  0  0
  -24.5638  -19.2100   23.4474 C   0  0  0  0  0  0  0  0  0  0  0  0
  -28.7345  -22.6118   18.1116 C   0  0  0  0  0  0  0  0  0  0  0  0
  -28.5606  -20.3763   19.2658 C   0  0  0  0  0  0  0  0  0  0  0  0
  -28.9729  -22.3882   20.6282 C   0  0  0  0  0  0  0  0  0  0  0  0
  -24.6954  -19.5589   21.9600 C   0  0  1  0  0  0  0  0  0  0  0  0
  -24.2048  -16.3840   19.9320 C   0  0  1  0  0  0  0  0  0  0  0  0
  -29.3935  -23.1854   19.3801 C   0  0  2  0  0  0  0  0  0  0  0  0
  -20.7728   -9.7666   22.0377 C   0  0  0  0  0  0  0  0  0  0  0  0
  -32.0728  -11.5640   18.5658 C   0  0  0  0  0  0  0  0  0  0  0  0
  -23.8730  -15.1352   24.3694 C   0  0  0  0  0  0  0  0  0  0  0  0
  -22.9462  -12.8458   24.7792 C   0  0  0  0  0  0  0  0  0  0  0  0
  -21.4309  -14.6928   24.0614 C   0  0  0  0  0  0  0  0  0  0  0  0
  -22.0610  -10.6539   18.5694 C   0  0  0  0  0  0  0  0  0  0  0  0
  -31.0959  -18.1031   21.9341 C   0  0  0  0  0  0  0  0  0  0  0  0
  -32.1509  -13.4777   20.1847 C   0  0  0  0  0  0  0  0  0  0  0  0
  -30.7362  -13.6345   18.0470 C   0  0  0  0  0  0  0  0  0  1  0  0
  -23.0466  -13.6955   22.3920 C   0  0  1  0  0  0  0  0  0  0  0  0
  -21.2492  -10.6947   20.9312 C   0  0  2  0  0  0  0  0  0  0  0  0
  -32.0179  -13.0906   18.6961 C   0  0  2  0  0  0  0  0  0  0  0  0
  -22.8439  -14.0966   23.8804 C   0  0  0  0  0  0  0  0  0  0  0  0
  -27.8470  -25.0813   19.6898 N   0  0  0  0  0  0  0  0  0  0  0  0
  -32.2066  -14.9667   20.4243 N   0  0  0  0  0  0  0  0  0  0  0  0
  -29.1168  -24.6693   19.5355 N   0  0  0  0  0  0  0  0  0  0  0  0
  -24.1297  -15.1384   20.6983 N   0  0  0  0  0  0  0  0  0  0  0  0
  -29.2371  -20.9587   20.4334 N   0  0  0  0  0  0  0  0  0  0  0  0
  -31.3505  -25.4449   19.3957 N   0  0  0  0  0  0  0  0  0  0  0  0
  -28.9630  -29.2383   19.9490 N   0  0  0  0  0  0  0  0  0  0  0  0
  -24.1846  -18.4807   21.1408 N   0  0  0  0  0  0  0  0  0  0  0  0
  -22.0695  -12.7334   21.8940 N   0  0  0  0  0  0  0  0  0  0  0  0
  -30.2618  -18.9299   21.0905 N   0  0  0  0  0  0  0  0  0  0  0  0
  -21.5984   -9.8674   19.7417 N   0  3  0  0  0  0  0  0  0  0  0  0
  -31.0752  -28.3928   19.6617 O   0  0  0  0  0  0  0  0  0  0  0  0
  -26.1044  -17.1635   21.0978 O   0  0  0  0  0  0  0  0  0  0  0  0
  -21.9488  -15.5547   21.4100 O   0  0  0  0  0  0  0  0  0  0  0  0
  -23.6045  -11.1094   21.2746 O   0  0  0  0  0  0  0  0  0  0  0  0
  -30.6034  -20.8446   22.3038 O   0  0  0  0  0  0  0  0  0  0  0  0
  -23.4309  -29.5973   20.4980 O   0  0  0  0  0  0  0  0  0  0  0  0
  -29.5766  -13.0773   18.6646 O   0  0  0  0  0  0  0  0  0  1  0  0
  -19.6766  -27.9360   24.1789 F   0  0  0  0  0  0  0  0  0  0  0  0
  -22.7735  -31.1807   22.6667 F   0  0  0  0  0  0  0  0  0  0  0  0
  1  2  1  0  0  0  0
  1  5  2  0  0  0  0
  2  6  2  0  0  0  0
  3  8  2  0  0  0  0
  3 18  1  0  0  0  0
  4  9  1  0  0  0  0
  4 18  2  0  0  0  0
  5 20  1  0  0  0  0
  6 22  1  0  0  0  0
  7 10  2  0  0  0  0
  7 21  1  0  0  0  0
  8 25  1  0  0  0  0
  9 25  2  0  0  0  0
 10 26  1  0  0  0  0
 11 12  2  0  0  0  0
 11 27  1  0  0  0  0
 12 28  1  0  0  0  0
 13 16  2  0  0  0  0
 13 24  1  0  0  0  0
 14 23  1  0  0  0  0
 14 26  2  0  0  0  0
 15 28  2  0  0  0  0
 15 29  1  0  0  0  0
 16 63  1  0  0  0  0
 17 24  2  0  0  0  0
 17 63  1  0  0  0  0
 18 30  1  0  0  0  0
 19 30  1  0  0  0  0
 19 31  2  0  0  0  0
 19 32  1  0  0  0  0
 20 22  2  0  0  0  0
 20 37  1  0  0  0  0
 21 23  2  0  0  0  0
 21 38  1  0  0  0  0
 22 46  1  0  0  0  0
 23 39  1  0  0  0  0
 24 55  1  0  0  0  0
 25 78  1  0  0  0  0
 26 79  1  0  0  0  0
 27 29  2  0  0  0  0
 27 78  1  0  0  0  0
 28 80  1  0  0  0  0
 29 81  1  0  0  0  0
 30 62  2  0  0  0  0
 31 64  1  0  0  0  0
 31 67  1  0  0  0  0
 32 68  1  0  0  0  0
 32 73  2  0  0  0  0
 33 47  1  0  0  0  0
 33 69  1  0  0  0  0
 33 74  2  0  0  0  0
 34 58  1  0  0  0  0
 34 65  1  0  0  0  0
 34 75  2  0  0  0  0
 35 59  1  0  0  0  0
 35 70  1  0  0  0  0
 35 76  2  0  0  0  0
 36 66  1  0  0  0  0
 36 71  1  0  0  0  0
 36 77  2  0  0  0  0
 37 40  1  0  0  0  0
 38 47  1  0  0  0  0
 39 65  1  0  0  0  0
 40 42  1  0  0  0  0
 41 43  1  0  0  0  0
 41 44  1  0  0  0  0
 42 46  1  0  0  0  0
 43 48  1  0  0  0  0
 44 66  1  0  0  0  0
 45 48  1  0  0  0  0
 45 66  1  0  0  0  0
 46 69  1  0  0  0  0
 47 65  1  0  0  0  0
 48 64  1  0  0  0  0
 49 59  1  0  0  0  0
 50 60  1  0  0  0  0
 51 61  1  0  0  0  0
 52 61  1  0  0  0  0
 53 61  1  0  0  0  0
 54 72  1  0  0  0  0
 55 71  1  0  0  0  0
 56 60  1  0  0  0  0
 56 63  1  0  0  0  0
 57 60  1  0  0  0  0
 57 79  1  0  0  0  0
 58 61  1  0  0  0  0
 58 70  1  0  0  0  0
 59 72  1  0  0  0  0
 62 64  1  0  0  0  0
M  CHG  1  72   1
M  ISO  4  36 100  57 101  71 100  79 101
M  END
> <Batch ID>
0112

> <Smiles>
CNC(C)C(=O)NC(C(=O)N1Cc2cc([101O:1][101CH2:1]C(C)Cn3ccc(C[100NH:0][100C:0](=O)N4CCCC(n5nc(-c6ccc(Oc7ccc(F)cc7F)cc6)c(C(N)=O)c5N)C4)c3)ccc2CC1C(=O)NC1CCCc2ccccc21)C(C)(C)C

> <Shape>
0.265

> <Color>
0.053

> <Negative vol penalty>
0.000

$$$$

  -OEChem-04052320033D

 84 92  0     1  0  0  0  0  0999 V2000
  -31.9340  -32.0021   27.2996 C   0  0  0  0  0  0  0  0  0  0  0  0
  -31.9798  -31.1605   26.1929 C   0  0  0  0  0  0  0  0  0  0  0  0
  -23.0744   -9.8676   19.9431 C   0  0  0  0  0  0  0  0  0  0  0  0
  -23.8310   -9.8793   22.2376 C   0  0  0  0  0  0  0  0  0  0  0  0
  -31.7980  -31.4635   28.5784 C   0  0  0  0  0  0  0  0  0  0  0  0
  -31.8907  -29.7795   26.3644 C   0  0  0  0  0  0  0  0  0  0  0  0
  -29.1982  -25.7684   22.6004 C   0  0  0  0  0  0  0  0  0  0  0  0
  -22.3297   -8.7153   20.1945 C   0  0  0  0  0  0  0  0  0  0  0  0
  -23.0862   -8.7270   22.4890 C   0  0  0  0  0  0  0  0  0  0  0  0
  -29.7041  -24.9199   21.6166 C   0  0  0  0  0  0  0  0  0  0  0  0
  -19.3790   -7.9232   21.6432 C   0  0  0  0  0  0  0  0  0  0  0  0
  -18.0728   -7.8764   21.1562 C   0  0  0  0  0  0  0  0  0  0  0  0
  -29.7563  -23.1112   23.2120 C   0  0  0  0  0  0  0  0  0  0  0  0
  -18.6336   -5.9303   19.8389 C   0  0  0  0  0  0  0  0  0  0  0  0
  -30.8037  -18.9386   22.9344 C   0  0  0  0  0  0  0  0  0  0  0  0
  -31.8306  -17.4392   21.6260 C   0  0  0  0  0  0  0  0  0  0  0  0
  -23.8251  -10.4496   20.9646 C   0  0  0  0  0  0  0  0  0  0  0  0
  -24.1682  -12.9743   20.8396 C   0  0  0  0  0  0  0  0  0  0  0  0
  -31.6975  -30.0758   28.7649 C   0  0  0  0  0  0  0  0  0  0  0  0
  -28.9774  -25.2968   23.9024 C   0  0  0  0  0  0  0  0  0  0  0  0
  -31.7546  -29.2217   27.6470 C   0  0  0  0  0  0  0  0  0  0  0  0
  -29.2451  -23.9551   24.2098 C   0  0  0  0  0  0  0  0  0  0  0  0
  -29.9342  -17.8855   22.7549 C   0  0  0  0  0  0  0  0  0  0  0  0
  -30.5838  -16.9369   21.9270 C   0  0  0  0  0  0  0  0  0  0  0  0
  -22.3356   -8.1450   21.4674 C   0  0  0  0  0  0  0  0  0  0  0  0
  -29.9859  -23.5918   21.9231 C   0  0  0  0  0  0  0  0  0  0  0  0
  -20.3126   -6.9735   21.2281 C   0  0  0  0  0  0  0  0  0  0  0  0
  -17.7001   -6.8800   20.2541 C   0  0  0  0  0  0  0  0  0  0  0  0
  -19.9399   -5.9770   20.3260 C   0  0  0  0  0  0  0  0  0  0  0  0
  -24.5951  -11.6396   20.7054 C   0  0  0  0  0  0  0  0  0  0  0  0
  -25.2612  -13.7225   20.4763 C   0  0  0  0  0  0  0  0  0  0  0  0
  -22.8974  -13.4916   21.2556 C   0  0  0  0  0  0  0  0  0  0  0  0
  -30.1287  -26.0202   26.7756 C   0  0  0  0  0  0  0  0  0  0  0  0
  -27.8727  -23.9166   27.7796 C   0  0  0  0  0  0  0  0  0  0  0  0
  -25.8755  -21.2456   27.0562 C   0  0  0  0  0  0  0  0  0  0  0  0
  -30.7276  -14.7663   20.6566 C   0  0  0  0  0  0  0  0  0  0  0  0
  -31.5992  -29.5374   30.1703 C   0  0  0  0  0  0  0  0  0  0  0  0
  -28.4061  -26.2178   24.9453 C   0  0  0  0  0  0  0  0  0  0  0  0
  -29.0066  -23.3943   25.5872 C   0  0  0  0  0  0  0  0  0  0  0  0
  -31.1345  -28.0848   30.2350 C   0  0  0  0  0  0  0  0  0  0  0  0
  -29.6156  -12.3476   18.2921 C   0  0  0  0  0  0  0  0  0  0  0  0
  -31.8954  -27.2353   29.2218 C   0  0  0  0  0  0  0  0  0  0  0  0
  -28.1752  -12.0576   18.7202 C   0  0  0  0  0  0  0  0  0  0  0  0
  -30.5291  -12.5788   19.4946 C   0  0  0  0  0  0  0  0  0  0  0  0
  -28.6204  -13.3071   20.8714 C   0  0  0  0  0  0  0  0  0  0  0  0
  -31.6361  -27.7199   27.7902 C   0  0  1  0  0  0  0  0  0  0  0  0
  -28.7044  -25.7643   26.3710 C   0  0  1  0  0  0  0  0  0  0  0  0
  -27.6492  -13.1316   19.6926 C   0  0  2  0  0  0  0  0  0  0  0  0
  -27.6236  -18.8902   22.8269 C   0  0  0  0  0  0  0  0  0  0  0  0
  -28.5706  -17.7593   24.8712 C   0  0  0  0  0  0  0  0  0  0  0  0
  -24.1667  -19.7263   28.0903 C   0  0  0  0  0  0  0  0  0  0  0  0
  -34.5619  -21.1974   20.8829 C   0  0  0  0  0  0  0  0  0  0  0  0
  -30.0888  -22.4460   29.2750 C   0  0  0  0  0  0  0  0  0  0  0  0
  -28.5515  -20.4804   29.4784 C   0  0  0  0  0  0  0  0  0  0  0  0
  -27.9396  -22.6548   30.5367 C   0  0  0  0  0  0  0  0  0  0  0  0
  -23.7981  -22.0709   25.1165 C   0  0  0  0  0  0  0  0  0  0  0  0
  -33.1681  -19.5493   22.1744 C   0  0  0  0  0  0  0  0  0  0  0  0
  -32.0552  -21.1379   20.4654 C   0  0  0  0  0  0  0  0  0  0  0  0
  -28.5762  -17.7791   23.3252 C   0  0  0  0  0  0  0  0  0  0  0  0
  -27.8319  -22.4270   28.0210 C   0  0  1  0  0  0  0  0  0  0  0  0
  -24.3961  -21.0007   27.2927 C   0  0  2  0  0  0  0  0  0  0  0  0
  -33.3070  -20.3168   20.8409 C   0  0  1  0  0  0  0  0  0  0  0  0
  -28.6094  -22.0128   29.3022 C   0  0  0  0  0  0  0  0  0  0  0  0
  -25.8605  -11.5423   20.2892 N   0  0  0  0  0  0  0  0  0  0  0  0
  -31.9534  -18.6562   22.2440 N   0  0  0  0  0  0  0  0  0  0  0  0
  -26.2382  -12.8254   20.1586 N   0  0  0  0  0  0  0  0  0  0  0  0
  -28.4529  -24.3361   26.5741 N   0  0  0  0  0  0  0  0  0  0  0  0
  -29.9692  -13.6118   20.3688 N   0  0  0  0  0  0  0  0  0  0  0  0
  -25.4723  -15.0537   20.4007 N   0  0  0  0  0  0  0  0  0  0  0  0
  -21.8846  -12.5836   21.5934 N   0  0  0  0  0  0  0  0  0  0  0  0
  -30.0794  -15.6935   21.4719 N   0  0  0  0  0  0  0  0  0  0  0  0
  -30.3404  -27.2678   27.3305 N   0  0  0  0  0  0  0  0  0  0  0  0
  -26.4217  -22.0535   28.0309 N   0  0  0  0  0  0  0  0  0  0  0  0
  -31.7872  -22.2457   21.3712 N   0  0  0  0  0  0  0  0  0  1  0  0
  -23.6772  -20.8776   25.9931 N   0  3  0  0  0  0  0  0  0  0  0  0
  -22.6616  -14.7224   21.3099 O   0  0  0  0  0  0  0  0  0  0  0  0
  -30.9727  -25.1495   26.5987 O   0  0  0  0  0  0  0  0  0  0  0  0
  -27.4005  -24.6796   28.6261 O   0  0  0  0  0  0  0  0  0  0  0  0
  -26.4864  -20.7649   26.1041 O   0  0  0  0  0  0  0  0  0  0  0  0
  -31.8574  -14.9335   20.1902 O   0  0  0  0  0  0  0  0  0  0  0  0
  -21.6088   -7.0208   21.7131 O   0  0  0  0  0  0  0  0  0  0  0  0
  -30.4804  -22.7617   20.9649 O   0  0  0  0  0  0  0  0  0  1  0  0
  -16.4453   -6.8343   19.7876 F   0  0  0  0  0  0  0  0  0  0  0  0
  -20.8320   -5.0612   19.9244 F   0  0  0  0  0  0  0  0  0  0  0  0
  1  2  1  0  0  0  0
  1  5  2  0  0  0  0
  2  6  2  0  0  0  0
  3  8  2  0  0  0  0
  3 17  1  0  0  0  0
  4  9  1  0  0  0  0
  4 17  2  0  0  0  0
  5 19  1  0  0  0  0
  6 21  1  0  0  0  0
  7 10  2  0  0  0  0
  7 20  1  0  0  0  0
  8 25  1  0  0  0  0
  9 25  2  0  0  0  0
 10 26  1  0  0  0  0
 11 12  2  0  0  0  0
 11 27  1  0  0  0  0
 12 28  1  0  0  0  0
 13 22  1  0  0  0  0
 13 26  2  0  0  0  0
 14 28  2  0  0  0  0
 14 29  1  0  0  0  0
 15 23  2  0  0  0  0
 15 65  1  0  0  0  0
 16 24  2  0  0  0  0
 16 65  1  0  0  0  0
 17 30  1  0  0  0  0
 18 30  1  0  0  0  0
 18 31  2  0  0  0  0
 18 32  1  0  0  0  0
 19 21  2  0  0  0  0
 19 37  1  0  0  0  0
 20 22  2  0  0  0  0
 20 38  1  0  0  0  0
 21 46  1  0  0  0  0
 22 39  1  0  0  0  0
 23 24  1  0  0  0  0
 23 59  1  0  0  0  0
 24 71  1  0  0  0  0
 25 81  1  0  0  0  0
 26 82  1  0  0  0  0
 27 29  2  0  0  0  0
 27 81  1  0  0  0  0
 28 83  1  0  0  0  0
 29 84  1  0  0  0  0
 30 64  2  0  0  0  0
 31 66  1  0  0  0  0
 31 69  1  0  0  0  0
 32 70  1  0  0  0  0
 32 76  2  0  0  0  0
 33 47  1  0  0  0  0
 33 72  1  0  0  0  0
 33 77  2  0  0  0  0
 34 60  1  0  0  0  0
 34 67  1  0  0  0  0
 34 78  2  0  0  0  0
 35 61  1  0  0  0  0
 35 73  1  0  0  0  0
 35 79  2  0  0  0  0
 36 68  1  0  0  0  0
 36 71  1  0  0  0  0
 36 80  2  0  0  0  0
 37 40  1  0  0  0  0
 38 47  1  0  0  0  0
 39 67  1  0  0  0  0
 40 42  1  0  0  0  0
 41 43  1  0  0  0  0
 41 44  1  0  0  0  0
 42 46  1  0  0  0  0
 43 48  1  0  0  0  0
 44 68  1  0  0  0  0
 45 48  1  0  0  0  0
 45 68  1  0  0  0  0
 46 72  1  0  0  0  0
 47 67  1  0  0  0  0
 48 66  1  0  0  0  0
 49 59  1  0  0  0  0
 50 59  1  0  0  0  0
 51 61  1  0  0  0  0
 52 62  1  0  0  0  0
 53 63  1  0  0  0  0
 54 63  1  0  0  0  0
 55 63  1  0  0  0  0
 56 75  1  0  0  0  0
 57 62  1  0  0  0  0
 57 65  1  0  0  0  0
 58 62  1  0  0  0  0
 58 74  1  0  0  0  0
 60 63  1  0  0  0  0
 60 73  1  0  0  0  0
 61 75  1  0  0  0  0
 64 66  1  0  0  0  0
 74 82  1  0  0  0  0
M  CHG  1  75   1
M  ISO  4  36 100  71 100  74 101  82 101
M  END
> <Batch ID>
0112

> <Smiles>
CNC(C)C(=O)NC(C(=O)N1Cc2cc([101O:1][101NH:1]CC(C)Cn3cc([100NH:0][100C:0](=O)N4CCCC(n5nc(-c6ccc(Oc7ccc(F)cc7F)cc6)c(C(N)=O)c5N)C4)c(C(C)C)c3)ccc2CC1C(=O)NC1CCCc2ccccc21)C(C)(C)C

> <Shape>
0.163

> <Color>
0.196

> <Negative vol penalty>
0.000

$$$$

  -OEChem-04052320033D

 83 91  0     1  0  0  0  0  0999 V2000
  -16.9941  -27.7587   22.6808 C   0  0  0  0  0  0  0  0  0  0  0  0
  -17.9406  -27.5327   21.6866 C   0  0  0  0  0  0  0  0  0  0  0  0
  -25.5902  -13.9516   21.4855 C   0  0  0  0  0  0  0  0  0  0  0  0
  -25.0726  -14.6884   19.2436 C   0  0  0  0  0  0  0  0  0  0  0  0
  -17.2625  -28.6674   23.7036 C   0  0  0  0  0  0  0  0  0  0  0  0
  -19.1558  -28.2161   21.7140 C   0  0  0  0  0  0  0  0  0  0  0  0
  -24.6164  -26.0901   19.9343 C   0  0  0  0  0  0  0  0  0  0  0  0
  -24.5992  -12.9744   21.3933 C   0  0  0  0  0  0  0  0  0  0  0  0
  -24.0815  -13.7111   19.1513 C   0  0  0  0  0  0  0  0  0  0  0  0
  -25.3444  -26.2448   18.7554 C   0  0  0  0  0  0  0  0  0  0  0  0
  -24.2362   -9.9194   19.9903 C   0  0  0  0  0  0  0  0  0  0  0  0
  -24.5488   -8.6351   20.4356 C   0  0  0  0  0  0  0  0  0  0  0  0
  -26.5806  -28.0545   19.7633 C   0  0  0  0  0  0  0  0  0  0  0  0
  -29.8010  -25.1541   17.5411 C   0  0  0  0  0  0  0  0  0  0  0  0
  -29.4276  -23.0588   16.3978 C   0  0  0  0  0  0  0  0  0  0  0  0
  -28.8746  -25.1438   15.3098 C   0  0  0  0  0  0  0  0  0  0  0  0
  -22.7639   -8.7634   22.0588 C   0  0  0  0  0  0  0  0  0  0  0  0
  -25.8269  -14.8086   20.4107 C   0  0  0  0  0  0  0  0  0  0  0  0
  -28.2063  -15.6908   20.1503 C   0  0  0  0  0  0  0  0  0  0  0  0
  -18.4854  -29.3552   23.7489 C   0  0  0  0  0  0  0  0  0  0  0  0
  -24.8580  -26.9250   21.0348 C   0  0  0  0  0  0  0  0  0  0  0  0
  -19.4402  -29.1359   22.7377 C   0  0  0  0  0  0  0  0  0  0  0  0
  -25.8561  -27.9066   20.9560 C   0  0  0  0  0  0  0  0  0  0  0  0
  -29.8609  -23.7607   17.5227 C   0  0  0  0  0  0  0  0  0  0  0  0
  -29.3078  -25.8457   16.4346 C   0  0  0  0  0  0  0  0  0  0  0  0
  -23.8449  -12.8542   20.2262 C   0  0  0  0  0  0  0  0  0  0  0  0
  -26.3246  -27.2290   18.6688 C   0  0  0  0  0  0  0  0  0  0  0  0
  -23.1875  -10.6259   20.5794 C   0  0  0  0  0  0  0  0  0  0  0  0
  -23.8126   -8.0570   21.4698 C   0  0  0  0  0  0  0  0  0  0  0  0
  -22.4513  -10.0478   21.6136 C   0  0  0  0  0  0  0  0  0  0  0  0
  -28.9345  -23.7503   15.2913 C   0  0  0  0  0  0  0  0  0  0  0  0
  -26.8501  -15.8186   20.5056 C   0  0  0  0  0  0  0  0  0  0  0  0
  -28.7513  -16.9207   20.4277 C   0  0  0  0  0  0  0  0  0  0  0  0
  -28.9104  -14.5614   19.6170 C   0  0  0  0  0  0  0  0  0  0  0  0
  -23.1332  -29.0349   22.6710 C   0  0  0  0  0  0  0  0  0  0  0  0
  -25.7496  -29.1027   24.5873 C   0  0  0  0  0  0  0  0  0  0  0  0
  -29.1075  -28.5950   24.9249 C   0  0  0  0  0  0  0  0  0  0  0  0
  -28.5258  -22.4943   20.2568 C   0  0  0  0  0  0  0  0  0  0  0  0
  -18.7112  -30.3629   24.8481 C   0  0  0  0  0  0  0  0  0  0  0  0
  -24.0825  -26.7277   22.3084 C   0  0  0  0  0  0  0  0  0  0  0  0
  -26.1680  -28.8153   22.1159 C   0  0  0  0  0  0  0  0  0  0  0  0
  -20.1739  -30.7678   25.0122 C   0  0  0  0  0  0  0  0  0  0  0  0
  -26.8477  -20.8730   22.9460 C   0  0  0  0  0  0  0  0  0  0  0  0
  -20.7983  -31.0751   23.6548 C   0  0  0  0  0  0  0  0  0  0  0  0
  -26.8052  -19.4048   22.5186 C   0  0  0  0  0  0  0  0  0  0  0  0
  -26.6744  -21.8128   21.7549 C   0  0  0  0  0  0  0  0  0  0  0  0
  -27.5693  -20.1111   20.2130 C   0  0  0  0  0  0  0  0  0  0  0  0
  -20.7800  -29.8395   22.7467 C   0  0  1  0  0  0  0  0  0  0  0  0
  -24.0579  -27.9713   23.1917 C   0  0  1  0  0  0  0  0  0  0  0  0
  -27.7957  -19.1257   21.3722 C   0  0  2  0  0  0  0  0  0  0  0  0
  -30.9679  -28.7721   26.5996 C   0  0  0  0  0  0  0  0  0  0  0  0
  -28.6735  -27.9995   15.1548 C   0  0  0  0  0  0  0  0  0  0  0  0
  -30.6732  -27.9474   16.6299 C   0  0  0  0  0  0  0  0  0  0  0  0
  -25.7726  -32.1337   24.2377 C   0  0  0  0  0  0  0  0  0  0  0  0
  -28.1215  -32.1460   25.1043 C   0  0  0  0  0  0  0  0  0  0  0  0
  -26.2605  -31.3478   26.5612 C   0  0  0  0  0  0  0  0  0  0  0  0
  -29.6821  -25.6962   24.7661 C   0  0  0  0  0  0  0  0  0  0  0  0
  -30.3898  -23.0219   18.7055 C   0  0  0  0  0  0  0  0  0  0  0  0
  -28.3717  -27.8701   17.6419 C   0  0  0  0  0  0  0  0  0  1  0  0
  -27.0248  -29.9097   24.6274 C   0  0  1  0  0  0  0  0  0  0  0  0
  -29.9144  -27.8649   25.9833 C   0  0  2  0  0  0  0  0  0  0  0  0
  -29.2439  -27.3845   16.4555 C   0  0  0  0  0  0  0  0  0  0  0  0
  -26.7879  -31.3686   25.1100 C   0  0  0  0  0  0  0  0  0  0  0  0
  -26.5519  -17.0337   20.9732 N   0  0  0  0  0  0  0  0  0  0  0  0
  -27.7284  -17.6806   20.9137 N   0  0  0  0  0  0  0  0  0  0  0  0
  -25.3784  -28.5873   23.3373 N   0  0  0  0  0  0  0  0  0  0  0  0
  -27.6445  -21.4961   20.7039 N   0  0  0  0  0  0  0  0  0  0  0  0
  -30.0010  -17.4153   20.3009 N   0  0  0  0  0  0  0  0  0  0  0  0
  -28.1984  -13.3753   19.3925 N   0  0  0  0  0  0  0  0  0  0  0  0
  -21.8325  -28.9202   23.1229 N   0  0  0  0  0  0  0  0  0  0  0  0
  -27.9613  -29.1526   25.4509 N   0  0  0  0  0  0  0  0  0  0  0  0
  -29.4172  -22.1087   19.2631 N   0  0  0  0  0  0  0  0  0  0  0  0
  -30.6013  -26.6839   25.3878 N   0  3  0  0  0  0  0  0  0  0  0  0
  -30.1383  -14.5978   19.3631 O   0  0  0  0  0  0  0  0  0  0  0  0
  -23.5681  -29.8969   21.9162 O   0  0  0  0  0  0  0  0  0  0  0  0
  -25.1104  -28.9298   25.6280 O   0  0  0  0  0  0  0  0  0  0  0  0
  -29.4606  -28.6670   23.7499 O   0  0  0  0  0  0  0  0  0  0  0  0
  -28.5224  -23.6426   20.7134 O   0  0  0  0  0  0  0  0  0  0  0  0
  -22.8779  -11.9006   20.1357 O   0  0  0  0  0  0  0  0  0  0  0  0
  -27.0362  -27.3826   17.5190 O   0  0  0  0  0  0  0  0  0  1  0  0
  -24.1119   -6.8230   21.8962 F   0  0  0  0  0  0  0  0  0  0  0  0
  -21.4419  -10.7211   22.1825 F   0  0  0  0  0  0  0  0  0  0  0  0
  -28.3987  -22.8842   13.9039 Cl  0  0  0  0  0  0  0  0  0  0  0  0
  1  2  1  0  0  0  0
  1  5  2  0  0  0  0
  2  6  2  0  0  0  0
  3  8  2  0  0  0  0
  3 18  1  0  0  0  0
  4  9  1  0  0  0  0
  4 18  2  0  0  0  0
  5 20  1  0  0  0  0
  6 22  1  0  0  0  0
  7 10  2  0  0  0  0
  7 21  1  0  0  0  0
  8 26  1  0  0  0  0
  9 26  2  0  0  0  0
 10 27  1  0  0  0  0
 11 12  2  0  0  0  0
 11 28  1  0  0  0  0
 12 29  1  0  0  0  0
 13 23  1  0  0  0  0
 13 27  2  0  0  0  0
 14 24  1  0  0  0  0
 14 25  2  0  0  0  0
 15 24  2  0  0  0  0
 15 31  1  0  0  0  0
 16 25  1  0  0  0  0
 16 31  2  0  0  0  0
 17 29  2  0  0  0  0
 17 30  1  0  0  0  0
 18 32  1  0  0  0  0
 19 32  1  0  0  0  0
 19 33  2  0  0  0  0
 19 34  1  0  0  0  0
 20 22  2  0  0  0  0
 20 39  1  0  0  0  0
 21 23  2  0  0  0  0
 21 40  1  0  0  0  0
 22 48  1  0  0  0  0
 23 41  1  0  0  0  0
 24 58  1  0  0  0  0
 25 62  1  0  0  0  0
 26 79  1  0  0  0  0
 27 80  1  0  0  0  0
 28 30  2  0  0  0  0
 28 79  1  0  0  0  0
 29 81  1  0  0  0  0
 30 82  1  0  0  0  0
 31 83  1  0  0  0  0
 32 64  2  0  0  0  0
 33 65  1  0  0  0  0
 33 68  1  0  0  0  0
 34 69  1  0  0  0  0
 34 74  2  0  0  0  0
 35 49  1  0  0  0  0
 35 70  1  0  0  0  0
 35 75  2  0  0  0  0
 36 60  1  0  0  0  0
 36 66  1  0  0  0  0
 36 76  2  0  0  0  0
 37 61  1  0  0  0  0
 37 71  1  0  0  0  0
 37 77  2  0  0  0  0
 38 67  1  0  0  0  0
 38 72  1  0  0  0  0
 38 78  2  0  0  0  0
 39 42  1  0  0  0  0
 40 49  1  0  0  0  0
 41 66  1  0  0  0  0
 42 44  1  0  0  0  0
 43 45  1  0  0  0  0
 43 46  1  0  0  0  0
 44 48  1  0  0  0  0
 45 50  1  0  0  0  0
 46 67  1  0  0  0  0
 47 50  1  0  0  0  0
 47 67  1  0  0  0  0
 48 70  1  0  0  0  0
 49 66  1  0  0  0  0
 50 65  1  0  0  0  0
 51 61  1  0  0  0  0
 52 62  1  0  0  0  0
 53 62  1  0  0  0  0
 54 63  1  0  0  0  0
 55 63  1  0  0  0  0
 56 63  1  0  0  0  0
 57 73  1  0  0  0  0
 58 72  1  0  0  0  0
 59 62  1  0  0  0  0
 59 80  1  0  0  0  0
 60 63  1  0  0  0  0
 60 71  1  0  0  0  0
 61 73  1  0  0  0  0
 64 65  1  0  0  0  0
M  CHG  1  73   1
M  ISO  4  38 100  59 101  72 100  80 101
M  END
> <Batch ID>
0112

> <Smiles>
CNC(C)C(=O)NC(C(=O)N1Cc2cc([101O:1][101CH2:1]C(C)(C)c3cc(Cl)cc(C[100NH:0][100C:0](=O)N4CCCC(n5nc(-c6ccc(Oc7ccc(F)cc7F)cc6)c(C(N)=O)c5N)C4)c3)ccc2CC1C(=O)NC1CCCc2ccccc21)C(C)(C)C

> <Shape>
0.297

> <Color>
0.072

> <Negative vol penalty>
0.000

$$$$

  -OEChem-04052320033D

 86 94  0     1  0  0  0  0  0999 V2000
  -26.9017  -30.9658   22.4058 C   0  0  0  0  0  0  0  0  0  0  0  0
  -26.8504  -29.9085   23.3084 C   0  0  0  0  0  0  0  0  0  0  0  0
  -22.9444  -10.0458   20.5315 C   0  0  0  0  0  0  0  0  0  0  0  0
  -24.4187   -9.0272   22.1520 C   0  0  0  0  0  0  0  0  0  0  0  0
  -26.6717  -30.7353   21.0501 C   0  0  0  0  0  0  0  0  0  0  0  0
  -26.5681  -28.6201   22.8561 C   0  0  0  0  0  0  0  0  0  0  0  0
  -28.8287  -23.3691   25.0522 C   0  0  0  0  0  0  0  0  0  0  0  0
  -22.1919   -8.8726   20.4786 C   0  0  0  0  0  0  0  0  0  0  0  0
  -23.6662   -7.8539   22.0990 C   0  0  0  0  0  0  0  0  0  0  0  0
  -28.3152  -22.4260   25.9413 C   0  0  0  0  0  0  0  0  0  0  0  0
  -20.7507   -6.7073   23.3663 C   0  0  0  0  0  0  0  0  0  0  0  0
  -20.4274   -6.0915   24.5754 C   0  0  0  0  0  0  0  0  0  0  0  0
  -27.5396  -21.1022   24.0798 C   0  0  0  0  0  0  0  0  0  0  0  0
  -21.5982   -4.0982   23.8732 C   0  0  0  0  0  0  0  0  0  0  0  0
  -30.9612  -15.7996   26.1687 C   0  0  0  0  0  0  0  0  0  0  0  0
  -24.0578  -10.1231   21.3682 C   0  0  0  0  0  0  0  0  0  0  0  0
  -24.6440  -12.4299   22.2863 C   0  0  0  0  0  0  0  0  0  0  0  0
  -26.3959  -29.4418   20.5795 C   0  0  0  0  0  0  0  0  0  0  0  0
  -28.6916  -23.1910   23.6680 C   0  0  0  0  0  0  0  0  0  0  0  0
  -26.3328  -28.3722   21.4930 C   0  0  0  0  0  0  0  0  0  0  0  0
  -28.0545  -22.0433   23.1752 C   0  0  0  0  0  0  0  0  0  0  0  0
  -30.4848  -17.0513   25.8469 C   0  0  0  0  0  0  0  0  0  0  0  0
  -30.6781  -17.2325   24.4551 C   0  0  0  0  0  0  0  0  0  0  0  0
  -22.5527   -7.7766   21.2623 C   0  0  0  0  0  0  0  0  0  0  0  0
  -27.6680  -21.2937   25.4553 C   0  0  0  0  0  0  0  0  0  0  0  0
  -21.4977   -6.0186   22.4106 C   0  0  0  0  0  0  0  0  0  0  0  0
  -20.8512   -4.7870   24.8288 C   0  0  0  0  0  0  0  0  0  0  0  0
  -21.9215   -4.7141   22.6641 C   0  0  0  0  0  0  0  0  0  0  0  0
  -24.8359  -11.3346   21.4229 C   0  0  0  0  0  0  0  0  0  0  0  0
  -31.2666  -16.0860   23.9689 C   0  0  0  0  0  0  0  0  0  0  0  0
  -25.6355  -13.3160   21.9424 C   0  0  0  0  0  0  0  0  0  0  0  0
  -23.6577  -12.6285   23.3078 C   0  0  0  0  0  0  0  0  0  0  0  0
  -27.2576  -24.7985   21.3307 C   0  0  0  0  0  0  0  0  0  0  0  0
  -28.7159  -22.5953   19.4488 C   0  0  0  0  0  0  0  0  0  0  0  0
  -30.0976  -19.4878   19.1636 C   0  0  0  0  0  0  0  0  0  0  0  0
  -30.9503  -14.4046   20.6337 C   0  0  0  0  0  0  0  0  0  0  0  0
  -26.1074  -29.2494   19.1117 C   0  0  0  0  0  0  0  0  0  0  0  0
  -29.2746  -24.2044   22.7217 C   0  0  0  0  0  0  0  0  0  0  0  0
  -27.8991  -21.7952   21.6978 C   0  0  0  0  0  0  0  0  0  0  0  0
  -26.1845  -27.7928   18.6615 C   0  0  0  0  0  0  0  0  0  0  0  0
  -28.8032  -13.3442   17.9989 C   0  0  0  0  0  0  0  0  0  0  0  0
  -25.4331  -26.8922   19.6367 C   0  0  0  0  0  0  0  0  0  0  0  0
  -27.5672  -12.8118   18.7261 C   0  0  0  0  0  0  0  0  0  0  0  0
  -30.0872  -13.0289   18.7631 C   0  0  0  0  0  0  0  0  0  0  0  0
  -28.8585  -12.9380   20.8976 C   0  0  0  0  0  0  0  0  0  0  0  0
  -26.0540  -26.9563   21.0374 C   0  0  1  0  0  0  0  0  0  0  0  0
  -28.6251  -24.1760   21.3415 C   0  0  1  0  0  0  0  0  0  0  0  0
  -27.5346  -13.2805   20.1932 C   0  0  2  0  0  0  0  0  0  0  0  0
  -30.3163  -18.4295   23.6680 C   0  0  0  0  0  0  0  0  0  0  0  0
  -31.1714  -17.9553   17.4915 C   0  0  0  0  0  0  0  0  0  0  0  0
  -26.2549  -18.3933   28.2690 C   0  0  0  0  0  0  0  0  0  0  0  0
  -31.0134  -12.8096   25.3246 C   0  0  0  0  0  0  0  0  0  0  0  0
  -33.3018  -13.7951   25.7700 C   0  0  0  0  0  0  0  0  0  0  0  0
  -25.9779  -21.9969   18.2425 C   0  0  0  0  0  0  0  0  0  0  0  0
  -26.9277  -19.8740   17.3153 C   0  0  0  0  0  0  0  0  0  0  0  0
  -27.8522  -22.0740   16.5886 C   0  0  0  0  0  0  0  0  0  0  0  0
  -32.6254  -19.3935   20.6999 C   0  0  0  0  0  0  0  0  0  0  0  0
  -29.8726  -18.0388   26.8085 C   0  0  0  0  0  0  0  0  0  0  0  0
  -31.6843  -15.7373   22.5944 C   0  0  0  0  0  0  0  0  0  0  0  0
  -28.4040  -17.7495   27.1492 C   0  0  0  0  0  0  0  0  0  0  0  0
  -27.8349  -20.2231   27.5723 C   0  0  0  0  0  0  0  0  0  1  0  0
  -28.3485  -21.2301   18.9196 C   0  0  1  0  0  0  0  0  0  0  0  0
  -31.4059  -19.0194   18.5525 C   0  0  2  0  0  0  0  0  0  0  0  0
  -27.7277  -18.7792   28.0811 C   0  0  1  0  0  0  0  0  0  0  0  0
  -32.0172  -13.9003   24.9458 C   0  0  0  0  0  0  0  0  0  0  0  0
  -27.2776  -21.2991   17.7944 C   0  0  0  0  0  0  0  0  0  0  0  0
  -25.8680  -11.5070   20.5929 N   0  0  0  0  0  0  0  0  0  0  0  0
  -31.4337  -15.2218   25.0193 N   0  0  0  0  0  0  0  0  0  0  0  0
  -26.3336  -12.7209   20.9331 N   0  0  0  0  0  0  0  0  0  0  0  0
  -28.4804  -22.8182   20.8128 N   0  0  0  0  0  0  0  0  0  0  0  0
  -29.9918  -13.5007   20.1467 N   0  0  0  0  0  0  0  0  0  0  0  0
  -25.9696  -14.5383   22.4079 N   0  0  0  0  0  0  0  0  0  0  0  0
  -22.7132  -11.6173   23.5303 N   0  0  0  0  0  0  0  0  0  0  0  0
  -27.2609  -26.1596   21.0921 N   0  0  0  0  0  0  0  0  0  0  0  0
  -29.6000  -20.5985   18.5155 N   0  0  0  0  0  0  0  0  0  0  0  0
  -30.7828  -14.8061   21.9533 N   0  0  0  0  0  0  0  0  0  0  0  0
  -32.2932  -18.4470   19.6041 N   0  3  0  0  0  0  0  0  0  0  0  0
  -23.6052  -13.6789   23.9916 O   0  0  0  0  0  0  0  0  0  0  0  0
  -26.2723  -24.0957   21.5230 O   0  0  0  0  0  0  0  0  0  0  0  0
  -29.2010  -23.4308   18.6817 O   0  0  0  0  0  0  0  0  0  0  0  0
  -29.5681  -18.9226   20.1179 O   0  0  0  0  0  0  0  0  0  0  0  0
  -31.8831  -14.8269   19.9419 O   0  0  0  0  0  0  0  0  0  0  0  0
  -21.8186   -6.6317   21.2111 O   0  0  0  0  0  0  0  0  0  0  0  0
  -27.1653  -20.3719   26.3209 O   0  0  0  0  0  0  0  0  0  1  0  0
  -20.5420   -4.1963   25.9905 F   0  0  0  0  0  0  0  0  0  0  0  0
  -22.6405   -4.0478   21.7503 F   0  0  0  0  0  0  0  0  0  0  0  0
  1  2  1  0  0  0  0
  1  5  2  0  0  0  0
  2  6  2  0  0  0  0
  3  8  2  0  0  0  0
  3 16  1  0  0  0  0
  4  9  1  0  0  0  0
  4 16  2  0  0  0  0
  5 18  1  0  0  0  0
  6 20  1  0  0  0  0
  7 10  2  0  0  0  0
  7 19  1  0  0  0  0
  8 24  1  0  0  0  0
  9 24  2  0  0  0  0
 10 25  1  0  0  0  0
 11 12  2  0  0  0  0
 11 26  1  0  0  0  0
 12 27  1  0  0  0  0
 13 21  1  0  0  0  0
 13 25  2  0  0  0  0
 14 27  2  0  0  0  0
 14 28  1  0  0  0  0
 15 22  2  0  0  0  0
 15 68  1  0  0  0  0
 16 29  1  0  0  0  0
 17 29  1  0  0  0  0
 17 31  2  0  0  0  0
 17 32  1  0  0  0  0
 18 20  2  0  0  0  0
 18 37  1  0  0  0  0
 19 21  2  0  0  0  0
 19 38  1  0  0  0  0
 20 46  1  0  0  0  0
 21 39  1  0  0  0  0
 22 23  1  0  0  0  0
 22 58  1  0  0  0  0
 23 30  2  0  0  0  0
 23 49  1  0  0  0  0
 24 83  1  0  0  0  0
 25 84  1  0  0  0  0
 26 28  2  0  0  0  0
 26 83  1  0  0  0  0
 27 85  1  0  0  0  0
 28 86  1  0  0  0  0
 29 67  2  0  0  0  0
 30 59  1  0  0  0  0
 30 68  1  0  0  0  0
 31 69  1  0  0  0  0
 31 72  1  0  0  0  0
 32 73  1  0  0  0  0
 32 78  2  0  0  0  0
 33 47  1  0  0  0  0
 33 74  1  0  0  0  0
 33 79  2  0  0  0  0
 34 62  1  0  0  0  0
 34 70  1  0  0  0  0
 34 80  2  0  0  0  0
 35 63  1  0  0  0  0
 35 75  1  0  0  0  0
 35 81  2  0  0  0  0
 36 71  1  0  0  0  0
 36 76  1  0  0  0  0
 36 82  2  0  0  0  0
 37 40  1  0  0  0  0
 38 47  1  0  0  0  0
 39 70  1  0  0  0  0
 40 42  1  0  0  0  0
 41 43  1  0  0  0  0
 41 44  1  0  0  0  0
 42 46  1  0  0  0  0
 43 48  1  0  0  0  0
 44 71  1  0  0  0  0
 45 48  1  0  0  0  0
 45 71  1  0  0  0  0
 46 74  1  0  0  0  0
 47 70  1  0  0  0  0
 48 69  1  0  0  0  0
 50 63  1  0  0  0  0
 51 64  1  0  0  0  0
 52 65  1  0  0  0  0
 53 65  1  0  0  0  0
 54 66  1  0  0  0  0
 55 66  1  0  0  0  0
 56 66  1  0  0  0  0
 57 77  1  0  0  0  0
 58 60  1  0  0  0  0
 59 76  1  0  0  0  0
 60 64  1  0  0  0  0
 61 64  1  0  0  0  0
 61 84  1  0  0  0  0
 62 66  1  0  0  0  0
 62 75  1  0  0  0  0
 63 77  1  0  0  0  0
 65 68  1  0  0  0  0
 67 69  1  0  0  0  0
M  CHG  1  77   1
M  ISO  4  36 100  61 101  76 100  84 101
M  END
> <Batch ID>
0112

> <Smiles>
CNC(C)C(=O)NC(C(=O)N1Cc2cc([101O:1][101CH2:1]C(C)CCc3cn(C(C)C)c(C[100NH:0][100C:0](=O)N4CCCC(n5nc(-c6ccc(Oc7ccc(F)cc7F)cc6)c(C(N)=O)c5N)C4)c3C)ccc2CC1C(=O)NC1CCCc2ccccc21)C(C)(C)C

> <Shape>
0.253

> <Color>
0.160

> <Negative vol penalty>
0.000

$$$$

  -OEChem-04052320033D

 85 93  0     1  0  0  0  0  0999 V2000
  -19.9090  -22.2918   16.3626 C   0  0  0  0  0  0  0  0  0  0  0  0
  -20.4866  -21.0895   16.7575 C   0  0  0  0  0  0  0  0  0  0  0  0
  -29.8338  -21.9619   18.4819 C   0  0  0  0  0  0  0  0  0  0  0  0
  -29.6722  -22.2449   20.8758 C   0  0  0  0  0  0  0  0  0  0  0  0
  -20.1900  -23.4629   17.0651 C   0  0  0  0  0  0  0  0  0  0  0  0
  -21.3466  -21.0576   17.8547 C   0  0  0  0  0  0  0  0  0  0  0  0
  -20.3989  -17.1662   20.9537 C   0  0  0  0  0  0  0  0  0  0  0  0
  -30.2596  -23.2840   18.3543 C   0  0  0  0  0  0  0  0  0  0  0  0
  -30.0981  -23.5670   20.7483 C   0  0  0  0  0  0  0  0  0  0  0  0
  -20.8645  -15.9119   20.5615 C   0  0  0  0  0  0  0  0  0  0  0  0
  -28.7595  -26.5405   19.8552 C   0  0  0  0  0  0  0  0  0  0  0  0
  -28.0683  -27.5161   20.5734 C   0  0  0  0  0  0  0  0  0  0  0  0
  -22.7508  -16.1548   22.0455 C   0  0  0  0  0  0  0  0  0  0  0  0
  -30.1032  -28.1014   21.7368 C   0  0  0  0  0  0  0  0  0  0  0  0
  -29.5400  -21.4424   19.7427 C   0  0  0  0  0  0  0  0  0  0  0  0
  -27.9539  -19.4938   19.3011 C   0  0  0  0  0  0  0  0  0  0  0  0
  -21.0463  -23.4437   18.1774 C   0  0  0  0  0  0  0  0  0  0  0  0
  -21.1127  -17.9302   21.8881 C   0  0  0  0  0  0  0  0  0  0  0  0
  -21.6404  -22.2297   18.5720 C   0  0  0  0  0  0  0  0  0  0  0  0
  -22.2908  -17.4174   22.4497 C   0  0  0  0  0  0  0  0  0  0  0  0
  -30.3918  -24.0866   19.4875 C   0  0  0  0  0  0  0  0  0  0  0  0
  -22.0421  -15.4073   21.1052 C   0  0  0  0  0  0  0  0  0  0  0  0
  -30.1226  -26.3452   20.0778 C   0  0  0  0  0  0  0  0  0  0  0  0
  -28.7401  -28.2967   21.5141 C   0  0  0  0  0  0  0  0  0  0  0  0
  -30.7944  -27.1257   21.0186 C   0  0  0  0  0  0  0  0  0  0  0  0
  -29.0995  -20.0769   19.8751 C   0  0  0  0  0  0  0  0  0  0  0  0
  -27.9844  -18.1877   19.7250 C   0  0  0  0  0  0  0  0  0  0  0  0
  -26.9520  -20.0802   18.4598 C   0  0  0  0  0  0  0  0  0  0  0  0
  -22.5572  -20.7612   21.8363 C   0  0  0  0  0  0  0  0  0  0  0  0
  -22.9414  -20.1872   25.0058 C   0  0  0  0  0  0  0  0  0  0  0  0
  -23.1416  -17.9024   27.5329 C   0  0  0  0  0  0  0  0  0  0  0  0
  -30.7633  -13.4409   20.6691 C   0  0  0  0  0  0  0  0  0  0  0  0
  -21.3574  -24.7433   18.8765 C   0  0  0  0  0  0  0  0  0  0  0  0
  -20.5830  -19.2698   22.3207 C   0  0  0  0  0  0  0  0  0  0  0  0
  -23.0834  -18.1892   23.4717 C   0  0  0  0  0  0  0  0  0  0  0  0
  -21.9843  -24.5580   20.2560 C   0  0  0  0  0  0  0  0  0  0  0  0
  -30.8616  -15.9261   23.2169 C   0  0  0  0  0  0  0  0  0  0  0  0
  -23.1004  -23.5197   20.2000 C   0  0  0  0  0  0  0  0  0  0  0  0
  -30.3236  -17.1801   22.5256 C   0  0  0  0  0  0  0  0  0  0  0  0
  -25.7089  -12.5101   21.7379 C   0  0  0  0  0  0  0  0  0  0  0  0
  -25.8882  -13.2930   19.3346 C   0  0  0  0  0  0  0  0  0  0  0  0
  -24.2232  -12.8619   21.7382 C   0  0  0  0  0  0  0  0  0  0  0  0
  -24.4022  -13.6434   19.3408 C   0  0  0  0  0  0  0  0  0  0  0  0
  -31.7081  -15.0787   22.2696 C   0  0  0  0  0  0  0  0  0  0  0  0
  -30.5076  -15.9713   20.3112 C   0  0  0  0  0  0  0  0  0  0  0  0
  -22.5589  -22.1503   19.7721 C   0  0  1  0  0  0  0  0  0  0  0  0
  -21.6624  -20.1819   22.8954 C   0  0  1  0  0  0  0  0  0  0  0  0
  -29.6016  -16.8295   21.2107 C   0  0  2  0  0  0  0  0  0  0  0  0
  -26.1857  -12.1709   20.3270 C   0  0  0  0  0  0  0  0  0  0  0  0
  -23.9080  -13.9818   20.7476 C   0  0  0  0  0  0  0  0  0  1  0  0
  -23.4979  -17.7323   30.0111 C   0  0  0  0  0  0  0  0  0  0  0  0
  -29.8630  -12.6647   16.5511 C   0  0  0  0  0  0  0  0  0  0  0  0
  -31.9629  -11.9366   17.6802 C   0  0  0  0  0  0  0  0  0  0  0  0
  -27.8495  -10.2450   18.5886 C   0  0  0  0  0  0  0  0  0  0  0  0
  -25.9228  -20.7018   24.6099 C   0  0  0  0  0  0  0  0  0  0  0  0
  -26.3342  -19.6115   26.8258 C   0  0  0  0  0  0  0  0  0  0  0  0
  -24.9615  -21.6903   26.6963 C   0  0  0  0  0  0  0  0  0  0  0  0
  -20.4864  -16.6623   27.9467 C   0  0  0  0  0  0  0  0  0  0  0  0
  -28.0410  -10.8495   21.3332 C   0  0  0  0  0  0  0  0  0  0  0  0
  -23.9956  -19.5126   25.8500 C   0  0  1  0  0  0  0  0  0  0  0  0
  -22.4720  -17.8448   28.8941 C   0  0  2  0  0  0  0  0  0  0  0  0
  -30.4481  -11.7192   17.6119 C   0  0  0  0  0  0  0  0  0  0  0  0
  -29.7493  -11.9256   18.9854 C   0  0  2  0  0  0  0  0  0  0  0  0
  -28.2255  -11.6697   18.9892 C   0  0  2  0  0  0  0  0  0  0  0  0
  -25.2898  -20.3651   25.9748 C   0  0  0  0  0  0  0  0  0  0  0  0
  -29.8060  -19.2122   20.6080 N   0  0  0  0  0  0  0  0  0  0  0  0
  -29.1025  -18.0725   20.4974 N   0  0  0  0  0  0  0  0  0  0  0  0
  -22.5279  -19.4968   23.8576 N   0  0  0  0  0  0  0  0  0  0  0  0
  -30.9650  -14.7798   21.0430 N   0  0  0  0  0  0  0  0  0  0  0  0
  -27.1634  -17.1381   19.5089 N   0  0  0  0  0  0  0  0  0  0  0  0
  -27.1411  -20.0453   17.0715 N   0  0  0  0  0  0  0  0  0  0  0  0
  -21.8900  -21.5026   20.8800 N   0  0  0  0  0  0  0  0  0  0  0  0
  -23.3596  -19.2015   27.1255 N   0  0  0  0  0  0  0  0  0  0  0  0
  -30.0436  -13.2458   19.4966 N   0  0  0  0  0  0  0  0  0  0  0  0
  -21.5600  -16.6688   28.9734 N   0  3  0  0  0  0  0  0  0  0  0  0
  -27.6532  -11.9332   20.3591 N   0  3  1  0  0  0  0  0  0  0  0  0
  -25.9274  -20.6338   18.9260 O   0  0  0  0  0  0  0  0  0  0  0  0
  -23.7637  -20.5522   21.8842 O   0  0  0  0  0  0  0  0  0  0  0  0
  -22.4960  -21.2829   25.3561 O   0  0  0  0  0  0  0  0  0  0  0  0
  -23.4445  -16.8956   26.8965 O   0  0  0  0  0  0  0  0  0  0  0  0
  -31.1881  -12.4899   21.3339 O   0  0  0  0  0  0  0  0  0  0  0  0
  -30.8076  -25.3766   19.3634 O   0  0  0  0  0  0  0  0  0  0  0  0
  -22.4991  -14.1836   20.7237 O   0  0  0  0  0  0  0  0  0  1  0  0
  -28.0765  -29.2346   22.2026 F   0  0  0  0  0  0  0  0  0  0  0  0
  -32.1042  -26.9435   21.2359 F   0  0  0  0  0  0  0  0  0  0  0  0
  1  2  1  0  0  0  0
  1  5  2  0  0  0  0
  2  6  2  0  0  0  0
  3  8  2  0  0  0  0
  3 15  1  0  0  0  0
  4  9  1  0  0  0  0
  4 15  2  0  0  0  0
  5 17  1  0  0  0  0
  6 19  1  0  0  0  0
  7 10  2  0  0  0  0
  7 18  1  0  0  0  0
  8 21  1  0  0  0  0
  9 21  2  0  0  0  0
 10 22  1  0  0  0  0
 11 12  2  0  0  0  0
 11 23  1  0  0  0  0
 12 24  1  0  0  0  0
 13 20  1  0  0  0  0
 13 22  2  0  0  0  0
 14 24  2  0  0  0  0
 14 25  1  0  0  0  0
 15 26  1  0  0  0  0
 16 26  1  0  0  0  0
 16 27  2  0  0  0  0
 16 28  1  0  0  0  0
 17 19  2  0  0  0  0
 17 33  1  0  0  0  0
 18 20  2  0  0  0  0
 18 34  1  0  0  0  0
 19 46  1  0  0  0  0
 20 35  1  0  0  0  0
 21 82  1  0  0  0  0
 22 83  1  0  0  0  0
 23 25  2  0  0  0  0
 23 82  1  0  0  0  0
 24 84  1  0  0  0  0
 25 85  1  0  0  0  0
 26 66  2  0  0  0  0
 27 67  1  0  0  0  0
 27 70  1  0  0  0  0
 28 71  1  0  0  0  0
 28 77  2  0  0  0  0
 29 47  1  0  0  0  0
 29 72  1  0  0  0  0
 29 78  2  0  0  0  0
 30 60  1  0  0  0  0
 30 68  1  0  0  0  0
 30 79  2  0  0  0  0
 31 61  1  0  0  0  0
 31 73  1  0  0  0  0
 31 80  2  0  0  0  0
 32 69  1  0  0  0  0
 32 74  1  0  0  0  0
 32 81  2  0  0  0  0
 33 36  1  0  0  0  0
 34 47  1  0  0  0  0
 35 68  1  0  0  0  0
 36 38  1  0  0  0  0
 37 39  1  0  0  0  0
 37 44  1  0  0  0  0
 38 46  1  0  0  0  0
 39 48  1  0  0  0  0
 40 42  1  0  0  0  0
 40 49  1  0  0  0  0
 41 43  1  0  0  0  0
 41 49  1  0  0  0  0
 42 50  1  0  0  0  0
 43 50  1  0  0  0  0
 44 69  1  0  0  0  0
 45 48  1  0  0  0  0
 45 69  1  0  0  0  0
 46 72  1  0  0  0  0
 47 68  1  0  0  0  0
 48 67  1  0  0  0  0
 49 76  1  0  0  0  0
 50 83  1  0  0  0  0
 51 61  1  0  0  0  0
 52 62  1  0  0  0  0
 53 62  1  0  0  0  0
 54 64  1  0  0  0  0
 55 65  1  0  0  0  0
 56 65  1  0  0  0  0
 57 65  1  0  0  0  0
 58 75  1  0  0  0  0
 59 76  1  0  0  0  0
 60 65  1  0  0  0  0
 60 73  1  0  0  0  0
 61 75  1  0  0  0  0
 62 63  1  0  0  0  0
 63 64  1  0  0  0  0
 63 74  1  0  0  0  0
 64 76  1  0  0  0  0
 66 67  1  0  0  0  0
M  CHG  2  75   1  76   1
M  ISO  4  32 100  50 101  74 100  83 101
M  END
> <Batch ID>
0112

> <Smiles>
CNC(C)C(=O)NC(C(=O)N1Cc2cc([101O:1][101CH:1]3CCC(N(C)C(C)C([100NH:0][100C:0](=O)N4CCCC(n5nc(-c6ccc(Oc7ccc(F)cc7F)cc6)c(C(N)=O)c5N)C4)C(C)C)CC3)ccc2CC1C(=O)NC1CCCc2ccccc21)C(C)(C)C

> <Shape>
0.206

> <Color>
0.052

> <Negative vol penalty>
0.000

$$$$

  -OEChem-04052320033D

 84 92  0     1  0  0  0  0  0999 V2000
  -22.2201   -8.5353   20.7749 C   0  0  0  0  0  0  0  0  0  0  0  0
  -21.7626   -9.8399   20.9302 C   0  0  0  0  0  0  0  0  0  0  0  0
  -21.2805  -28.4266   20.6762 C   0  0  0  0  0  0  0  0  0  0  0  0
  -21.9035  -27.2724   22.7051 C   0  0  0  0  0  0  0  0  0  0  0  0
  -23.5293   -8.2103   21.1275 C   0  0  0  0  0  0  0  0  0  0  0  0
  -22.6137  -10.8201   21.4394 C   0  0  0  0  0  0  0  0  0  0  0  0
  -24.0120  -17.8255   20.9052 C   0  0  0  0  0  0  0  0  0  0  0  0
  -20.0471  -27.7753   20.6844 C   0  0  0  0  0  0  0  0  0  0  0  0
  -20.6701  -26.6211   22.7134 C   0  0  0  0  0  0  0  0  0  0  0  0
  -24.1613  -18.9580   21.7045 C   0  0  0  0  0  0  0  0  0  0  0  0
  -19.2243  -24.0035   21.1358 C   0  0  0  0  0  0  0  0  0  0  0  0
  -19.2167  -22.6334   21.3973 C   0  0  0  0  0  0  0  0  0  0  0  0
  -27.2429  -22.4181   21.3426 C   0  0  0  0  0  0  0  0  0  0  0  0
  -26.4269  -18.2983   22.2056 C   0  0  0  0  0  0  0  0  0  0  0  0
  -17.8208  -23.0106   23.3329 C   0  0  0  0  0  0  0  0  0  0  0  0
  -28.5726  -22.7340   21.1709 C   0  0  0  0  0  0  0  0  0  0  0  0
  -22.2087  -28.1751   21.6865 C   0  0  0  0  0  0  0  0  0  0  0  0
  -23.7987  -30.0790   22.2823 C   0  0  0  0  0  0  0  0  0  0  0  0
  -24.3999   -9.1891   21.6322 C   0  0  0  0  0  0  0  0  0  0  0  0
  -25.0672  -16.9137   20.7585 C   0  0  0  0  0  0  0  0  0  0  0  0
  -23.9354  -10.5076   21.8003 C   0  0  0  0  0  0  0  0  0  0  0  0
  -26.2893  -17.1564   21.4018 C   0  0  0  0  0  0  0  0  0  0  0  0
  -26.8684  -22.8536   22.6377 C   0  0  0  0  0  0  0  0  0  0  0  0
  -19.7418  -26.8726   21.7030 C   0  0  0  0  0  0  0  0  0  0  0  0
  -25.3679  -19.1931   22.3571 C   0  0  0  0  0  0  0  0  0  0  0  0
  -18.5303  -24.8772   21.9729 C   0  0  0  0  0  0  0  0  0  0  0  0
  -18.5149  -22.1370   22.4958 C   0  0  0  0  0  0  0  0  0  0  0  0
  -17.8285  -24.3808   23.0714 C   0  0  0  0  0  0  0  0  0  0  0  0
  -23.4833  -28.8472   21.6783 C   0  0  0  0  0  0  0  0  0  0  0  0
  -27.9807  -23.4225   23.2179 C   0  0  0  0  0  0  0  0  0  0  0  0
  -25.1257  -30.2759   21.9879 C   0  0  0  0  0  0  0  0  0  0  0  0
  -22.9666  -30.9658   23.0418 C   0  0  0  0  0  0  0  0  0  0  0  0
  -25.4906  -13.8416   21.4565 C   0  0  0  0  0  0  0  0  0  0  0  0
  -28.2975  -14.2741   19.8892 C   0  0  0  0  0  0  0  0  0  0  0  0
  -30.7318  -16.4267   18.8465 C   0  0  0  0  0  0  0  0  0  0  0  0
  -29.6122  -26.5316   20.6833 C   0  0  0  0  0  0  0  0  0  0  0  0
  -25.7919   -8.7798   22.0439 C   0  0  0  0  0  0  0  0  0  0  0  0
  -24.8991  -15.7107   19.8714 C   0  0  0  0  0  0  0  0  0  0  0  0
  -27.4596  -16.2188   21.2608 C   0  0  0  0  0  0  0  0  0  0  0  0
  -26.7449   -9.9586   22.2247 C   0  0  0  0  0  0  0  0  0  0  0  0
  -28.4239  -29.2276   18.6842 C   0  0  0  0  0  0  0  0  0  0  0  0
  -26.0798  -11.0623   23.0410 C   0  0  0  0  0  0  0  0  0  0  0  0
  -27.0514  -29.5469   19.2794 C   0  0  0  0  0  0  0  0  0  0  0  0
  -28.7148  -27.7286   18.7089 C   0  0  0  0  0  0  0  0  0  0  0  0
  -27.1998  -27.4112   20.6267 C   0  0  0  0  0  0  0  0  0  0  0  0
  -24.8361  -11.6041   22.3260 C   0  0  1  0  0  0  0  0  0  0  0  0
  -25.8695  -14.5819   20.2051 C   0  0  1  0  0  0  0  0  0  0  0  0
  -26.8848  -28.9161   20.6749 C   0  0  2  0  0  0  0  0  0  0  0  0
  -28.1523  -24.0342   24.5528 C   0  0  0  0  0  0  0  0  0  0  0  0
  -24.6404  -23.9627   23.0085 C   0  0  0  0  0  0  0  0  0  0  0  0
  -32.9204  -16.4806   17.6200 C   0  0  0  0  0  0  0  0  0  0  0  0
  -29.7021  -13.1443   22.3510 C   0  0  0  0  0  0  0  0  0  0  0  0
  -31.8483  -14.0895   21.4742 C   0  0  0  0  0  0  0  0  0  0  0  0
  -30.6267  -12.3515   20.1666 C   0  0  0  0  0  0  0  0  0  0  0  0
  -31.0810  -23.1635   23.7244 C   0  0  0  0  0  0  0  0  0  0  0  0
  -31.2023  -23.5027   21.2696 C   0  0  0  0  0  0  0  0  0  0  0  0
  -29.6402  -18.1959   16.7400 C   0  0  0  0  0  0  0  0  0  0  0  0
  -30.3707  -25.3645   22.7380 C   0  0  0  0  0  0  0  0  0  0  0  0
  -24.7621  -21.4541   22.7778 C   0  0  0  0  0  0  0  0  0  1  0  0
  -25.4899  -22.7147   23.2643 C   0  0  1  0  0  0  0  0  0  0  0  0
  -29.6906  -14.6970   20.2882 C   0  0  1  0  0  0  0  0  0  0  0  0
  -31.4095  -16.6049   17.4999 C   0  0  2  0  0  0  0  0  0  0  0  0
  -30.4444  -13.5874   21.0744 C   0  0  0  0  0  0  0  0  0  0  0  0
  -30.3583  -23.8260   22.5259 C   0  0  0  0  0  0  0  0  0  0  0  0
  -24.5259  -28.3002   21.0475 N   0  0  0  0  0  0  0  0  0  0  0  0
  -29.0105  -23.3445   22.3171 N   0  0  0  0  0  0  0  0  0  0  0  0
  -25.5094  -29.1925   21.2536 N   0  0  0  0  0  0  0  0  0  0  0  0
  -27.2438  -15.0534   20.3875 N   0  0  0  0  0  0  0  0  0  0  0  0
  -28.5403  -27.1926   20.0610 N   0  0  0  0  0  0  0  0  0  0  0  0
  -25.9901  -31.2685   22.2880 N   0  0  0  0  0  0  0  0  0  0  0  0
  -21.6270  -30.6106   23.2502 N   0  0  0  0  0  0  0  0  0  0  0  0
  -25.2184  -12.5016   21.2570 N   0  0  0  0  0  0  0  0  0  0  0  0
  -30.3571  -15.1170   19.0603 N   0  0  0  0  0  0  0  0  0  0  0  0
  -29.3646  -26.0598   21.9665 N   0  0  0  0  0  0  0  0  0  0  0  0
  -31.0919  -17.9464   16.9337 N   0  3  0  0  0  0  0  0  0  0  0  0
  -23.3940  -32.0493   23.5075 O   0  0  0  0  0  0  0  0  0  0  0  0
  -25.4496  -14.4415   22.5243 O   0  0  0  0  0  0  0  0  0  0  0  0
  -28.1499  -13.2928   19.1564 O   0  0  0  0  0  0  0  0  0  0  0  0
  -30.5559  -17.3555   19.6319 O   0  0  0  0  0  0  0  0  0  0  0  0
  -30.7104  -26.3782   20.1378 O   0  0  0  0  0  0  0  0  0  0  0  0
  -18.5382  -26.2371   21.7115 O   0  0  0  0  0  0  0  0  0  0  0  0
  -25.5160  -20.2974   23.1384 O   0  0  0  0  0  0  0  0  0  1  0  0
  -18.5063  -20.8211   22.7459 F   0  0  0  0  0  0  0  0  0  0  0  0
  -17.1589  -25.2151   23.8784 F   0  0  0  0  0  0  0  0  0  0  0  0
  1  2  1  0  0  0  0
  1  5  2  0  0  0  0
  2  6  2  0  0  0  0
  3  8  2  0  0  0  0
  3 17  1  0  0  0  0
  4  9  1  0  0  0  0
  4 17  2  0  0  0  0
  5 19  1  0  0  0  0
  6 21  1  0  0  0  0
  7 10  2  0  0  0  0
  7 20  1  0  0  0  0
  8 24  1  0  0  0  0
  9 24  2  0  0  0  0
 10 25  1  0  0  0  0
 11 12  2  0  0  0  0
 11 26  1  0  0  0  0
 12 27  1  0  0  0  0
 13 16  2  0  0  0  0
 13 23  1  0  0  0  0
 14 22  1  0  0  0  0
 14 25  2  0  0  0  0
 15 27  2  0  0  0  0
 15 28  1  0  0  0  0
 16 66  1  0  0  0  0
 17 29  1  0  0  0  0
 18 29  1  0  0  0  0
 18 31  2  0  0  0  0
 18 32  1  0  0  0  0
 19 21  2  0  0  0  0
 19 37  1  0  0  0  0
 20 22  2  0  0  0  0
 20 38  1  0  0  0  0
 21 46  1  0  0  0  0
 22 39  1  0  0  0  0
 23 30  2  0  0  0  0
 23 60  1  0  0  0  0
 24 81  1  0  0  0  0
 25 82  1  0  0  0  0
 26 28  2  0  0  0  0
 26 81  1  0  0  0  0
 27 83  1  0  0  0  0
 28 84  1  0  0  0  0
 29 65  2  0  0  0  0
 30 49  1  0  0  0  0
 30 66  1  0  0  0  0
 31 67  1  0  0  0  0
 31 70  1  0  0  0  0
 32 71  1  0  0  0  0
 32 76  2  0  0  0  0
 33 47  1  0  0  0  0
 33 72  1  0  0  0  0
 33 77  2  0  0  0  0
 34 61  1  0  0  0  0
 34 68  1  0  0  0  0
 34 78  2  0  0  0  0
 35 62  1  0  0  0  0
 35 73  1  0  0  0  0
 35 79  2  0  0  0  0
 36 69  1  0  0  0  0
 36 74  1  0  0  0  0
 36 80  2  0  0  0  0
 37 40  1  0  0  0  0
 38 47  1  0  0  0  0
 39 68  1  0  0  0  0
 40 42  1  0  0  0  0
 41 43  1  0  0  0  0
 41 44  1  0  0  0  0
 42 46  1  0  0  0  0
 43 48  1  0  0  0  0
 44 69  1  0  0  0  0
 45 48  1  0  0  0  0
 45 69  1  0  0  0  0
 46 72  1  0  0  0  0
 47 68  1  0  0  0  0
 48 67  1  0  0  0  0
 50 60  1  0  0  0  0
 51 62  1  0  0  0  0
 52 63  1  0  0  0  0
 53 63  1  0  0  0  0
 54 63  1  0  0  0  0
 55 64  1  0  0  0  0
 56 64  1  0  0  0  0
 57 75  1  0  0  0  0
 58 64  1  0  0  0  0
 58 74  1  0  0  0  0
 59 60  1  0  0  0  0
 59 82  1  0  0  0  0
 61 63  1  0  0  0  0
 61 73  1  0  0  0  0
 62 75  1  0  0  0  0
 64 66  1  0  0  0  0
 65 67  1  0  0  0  0
M  CHG  1  75   1
M  ISO  4  36 100  59 101  74 100  82 101
M  END
> <Batch ID>
0112

> <Smiles>
CNC(C)C(=O)NC(C(=O)N1Cc2cc([101O:1][101CH2:1]C(C)c3ccn(C(C)(C)C[100NH:0][100C:0](=O)N4CCCC(n5nc(-c6ccc(Oc7ccc(F)cc7F)cc6)c(C(N)=O)c5N)C4)c3C)ccc2CC1C(=O)NC1CCCc2ccccc21)C(C)(C)C

> <Shape>
0.248

> <Color>
0.062

> <Negative vol penalty>
0.000

$$$$

  -OEChem-04052320033D

 80 87  0     1  0  0  0  0  0999 V2000
  -17.3605  -26.7958   19.9829 C   0  0  0  0  0  0  0  0  0  0  0  0
  -18.6611  -26.8457   19.4916 C   0  0  0  0  0  0  0  0  0  0  0  0
  -26.7188  -12.5366   21.4526 C   0  0  0  0  0  0  0  0  0  0  0  0
  -26.2029  -13.5052   19.3002 C   0  0  0  0  0  0  0  0  0  0  0  0
  -17.0884  -27.2350   21.2779 C   0  0  0  0  0  0  0  0  0  0  0  0
  -19.6902  -27.3359   20.2947 C   0  0  0  0  0  0  0  0  0  0  0  0
  -25.5072  -25.4235   20.3998 C   0  0  0  0  0  0  0  0  0  0  0  0
  -26.0818  -11.3551   21.0736 C   0  0  0  0  0  0  0  0  0  0  0  0
  -25.5658  -12.3236   18.9212 C   0  0  0  0  0  0  0  0  0  0  0  0
  -26.6676  -25.9166   19.8047 C   0  0  0  0  0  0  0  0  0  0  0  0
  -24.2768   -8.2097   20.8038 C   0  0  0  0  0  0  0  0  0  0  0  0
  -23.4135   -7.6131   21.7226 C   0  0  0  0  0  0  0  0  0  0  0  0
  -27.2071  -27.0893   21.8425 C   0  0  0  0  0  0  0  0  0  0  0  0
  -22.0488   -9.6067   21.7349 C   0  0  0  0  0  0  0  0  0  0  0  0
  -26.7793  -13.6117   20.5659 C   0  0  0  0  0  0  0  0  0  0  0  0
  -28.7939  -15.1620   20.7796 C   0  0  0  0  0  0  0  0  0  0  0  0
  -18.1163  -27.7218   22.1007 C   0  0  0  0  0  0  0  0  0  0  0  0
  -25.1819  -25.7690   21.7193 C   0  0  0  0  0  0  0  0  0  0  0  0
  -19.4314  -27.7832   21.6015 C   0  0  0  0  0  0  0  0  0  0  0  0
  -26.0433  -26.5972   22.4529 C   0  0  0  0  0  0  0  0  0  0  0  0
  -25.5053  -11.2485   19.8079 C   0  0  0  0  0  0  0  0  0  0  0  0
  -27.5163  -26.7520   20.5251 C   0  0  0  0  0  0  0  0  0  0  0  0
  -24.0262   -9.5049   20.3505 C   0  0  0  0  0  0  0  0  0  0  0  0
  -22.2995   -8.3116   22.1882 C   0  0  0  0  0  0  0  0  0  0  0  0
  -22.9122  -10.2034   20.8161 C   0  0  0  0  0  0  0  0  0  0  0  0
  -27.4367  -14.8328   20.9570 C   0  0  0  0  0  0  0  0  0  0  0  0
  -28.9149  -16.4206   21.3160 C   0  0  0  0  0  0  0  0  0  0  0  0
  -29.8508  -14.3984   20.1832 C   0  0  0  0  0  0  0  0  0  0  0  0
  -22.7736  -27.3127   23.1052 C   0  0  0  0  0  0  0  0  0  0  0  0
  -24.2672  -26.3935   25.8340 C   0  0  0  0  0  0  0  0  0  0  0  0
  -27.1590  -25.4360   27.3727 C   0  0  0  0  0  0  0  0  0  0  0  0
  -27.0310  -21.6326   21.9729 C   0  0  0  0  0  0  0  0  0  0  0  0
  -17.7657  -28.2293   23.4769 C   0  0  0  0  0  0  0  0  0  0  0  0
  -23.9402  -25.2072   22.3557 C   0  0  0  0  0  0  0  0  0  0  0  0
  -25.7498  -26.9817   23.8793 C   0  0  0  0  0  0  0  0  0  0  0  0
  -18.9752  -28.3851   24.3951 C   0  0  0  0  0  0  0  0  0  0  0  0
  -25.6908  -19.1283   24.1197 C   0  0  0  0  0  0  0  0  0  0  0  0
  -20.1111  -29.0956   23.6658 C   0  0  0  0  0  0  0  0  0  0  0  0
  -26.1321  -17.8154   23.4703 C   0  0  0  0  0  0  0  0  0  0  0  0
  -25.3475  -20.1874   23.0745 C   0  0  0  0  0  0  0  0  0  0  0  0
  -26.8475  -19.1289   21.4303 C   0  0  0  0  0  0  0  0  0  0  0  0
  -20.5788  -28.2852   22.4509 C   0  0  1  0  0  0  0  0  0  0  0  0
  -23.4445  -26.0387   23.5347 C   0  0  1  0  0  0  0  0  0  0  0  0
  -27.2579  -18.0478   22.4447 C   0  0  2  0  0  0  0  0  0  0  0  0
  -28.6555  -24.6061   29.2083 C   0  0  0  0  0  0  0  0  0  0  0  0
  -30.0920  -28.9813   20.7408 C   0  0  0  0  0  0  0  0  0  0  0  0
  -24.2353  -29.3220   26.6898 C   0  0  0  0  0  0  0  0  0  0  0  0
  -25.9554  -28.7626   28.4209 C   0  0  0  0  0  0  0  0  0  0  0  0
  -23.7022  -27.6963   28.5139 C   0  0  0  0  0  0  0  0  0  0  0  0
  -31.2237  -22.4015   21.2733 C   0  0  0  0  0  0  0  0  0  0  0  0
  -29.6281  -22.8507   23.1647 C   0  0  0  0  0  0  0  0  0  0  0  0
  -26.6782  -22.6081   26.6442 C   0  0  0  0  0  0  0  0  0  0  0  0
  -30.9507  -26.6419   20.3635 C   0  0  0  0  0  0  0  0  0  0  0  0
  -28.7777  -22.9466   20.7973 C   0  0  0  0  0  0  0  0  0  0  0  0
  -30.6711  -25.1422   20.3195 C   0  0  0  0  0  0  0  0  0  0  0  0
  -25.3361  -26.9868   26.7197 C   0  0  1  0  0  0  0  0  0  0  0  0
  -27.4649  -24.2876   28.3172 C   0  0  2  0  0  0  0  0  0  0  0  0
  -29.7574  -27.4963   20.8067 C   0  0  2  0  0  0  0  0  0  1  0  0
  -24.8120  -28.1864   27.5586 C   0  0  0  0  0  0  0  0  0  0  0  0
  -29.9861  -23.1869   21.7146 C   0  0  0  0  0  0  0  0  0  0  0  0
  -26.7450  -15.8038   21.5592 N   0  0  0  0  0  0  0  0  0  0  0  0
  -27.6713  -16.7556   21.7649 N   0  0  0  0  0  0  0  0  0  0  0  0
  -24.5204  -26.4120   24.4552 N   0  0  0  0  0  0  0  0  0  0  0  0
  -26.4568  -20.3608   22.1337 N   0  0  0  0  0  0  0  0  0  0  0  0
  -29.9626  -17.2624   21.4428 N   0  0  0  0  0  0  0  0  0  0  0  0
  -29.5534  -13.1239   19.6818 N   0  0  0  0  0  0  0  0  0  0  0  0
  -21.4179  -27.1834   22.8710 N   0  0  0  0  0  0  0  0  0  0  0  0
  -25.8633  -25.8849   27.5174 N   0  0  0  0  0  0  0  0  0  0  0  0
  -28.0814  -21.7082   21.0664 N   0  0  0  0  0  0  0  0  0  0  0  0
  -27.7731  -23.0504   27.5457 N   0  3  0  0  0  0  0  0  0  0  0  0
  -30.3312  -24.6348   21.6695 N   0  3  0  0  0  0  0  0  0  0  0  0
  -31.0276  -14.8269   20.1122 O   0  0  0  0  0  0  0  0  0  0  0  0
  -23.4366  -28.3375   22.9958 O   0  0  0  0  0  0  0  0  0  0  0  0
  -23.2483  -25.9242   26.3472 O   0  0  0  0  0  0  0  0  0  0  0  0
  -27.9877  -25.8919   26.5879 O   0  0  0  0  0  0  0  0  0  0  0  0
  -26.6402  -22.6260   22.5953 O   0  0  0  0  0  0  0  0  0  0  0  0
  -24.8838  -10.0956   19.4377 O   0  0  0  0  0  0  0  0  0  0  0  0
  -28.6492  -27.2352   19.9464 O   0  0  0  0  0  0  0  0  0  1  0  0
  -21.4697   -7.7379   23.0694 F   0  0  0  0  0  0  0  0  0  0  0  0
  -22.6655  -11.4475   20.3834 F   0  0  0  0  0  0  0  0  0  0  0  0
  1  2  1  0  0  0  0
  1  5  2  0  0  0  0
  2  6  2  0  0  0  0
  3  8  2  0  0  0  0
  3 15  1  0  0  0  0
  4  9  1  0  0  0  0
  4 15  2  0  0  0  0
  5 17  1  0  0  0  0
  6 19  1  0  0  0  0
  7 10  2  0  0  0  0
  7 18  1  0  0  0  0
  8 21  1  0  0  0  0
  9 21  2  0  0  0  0
 10 22  1  0  0  0  0
 11 12  2  0  0  0  0
 11 23  1  0  0  0  0
 12 24  1  0  0  0  0
 13 20  1  0  0  0  0
 13 22  2  0  0  0  0
 14 24  2  0  0  0  0
 14 25  1  0  0  0  0
 15 26  1  0  0  0  0
 16 26  1  0  0  0  0
 16 27  2  0  0  0  0
 16 28  1  0  0  0  0
 17 19  2  0  0  0  0
 17 33  1  0  0  0  0
 18 20  2  0  0  0  0
 18 34  1  0  0  0  0
 19 42  1  0  0  0  0
 20 35  1  0  0  0  0
 21 77  1  0  0  0  0
 22 78  1  0  0  0  0
 23 25  2  0  0  0  0
 23 77  1  0  0  0  0
 24 79  1  0  0  0  0
 25 80  1  0  0  0  0
 26 61  2  0  0  0  0
 27 62  1  0  0  0  0
 27 65  1  0  0  0  0
 28 66  1  0  0  0  0
 28 72  2  0  0  0  0
 29 43  1  0  0  0  0
 29 67  1  0  0  0  0
 29 73  2  0  0  0  0
 30 56  1  0  0  0  0
 30 63  1  0  0  0  0
 30 74  2  0  0  0  0
 31 57  1  0  0  0  0
 31 68  1  0  0  0  0
 31 75  2  0  0  0  0
 32 64  1  0  0  0  0
 32 69  1  0  0  0  0
 32 76  2  0  0  0  0
 33 36  1  0  0  0  0
 34 43  1  0  0  0  0
 35 63  1  0  0  0  0
 36 38  1  0  0  0  0
 37 39  1  0  0  0  0
 37 40  1  0  0  0  0
 38 42  1  0  0  0  0
 39 44  1  0  0  0  0
 40 64  1  0  0  0  0
 41 44  1  0  0  0  0
 41 64  1  0  0  0  0
 42 67  1  0  0  0  0
 43 63  1  0  0  0  0
 44 62  1  0  0  0  0
 45 57  1  0  0  0  0
 46 58  1  0  0  0  0
 47 59  1  0  0  0  0
 48 59  1  0  0  0  0
 49 59  1  0  0  0  0
 50 60  1  0  0  0  0
 51 60  1  0  0  0  0
 52 70  1  0  0  0  0
 53 55  1  0  0  0  0
 53 58  1  0  0  0  0
 54 60  1  0  0  0  0
 54 69  1  0  0  0  0
 55 71  1  0  0  0  0
 56 59  1  0  0  0  0
 56 68  1  0  0  0  0
 57 70  1  0  0  0  0
 58 78  1  0  0  0  0
 60 71  1  0  0  0  0
 61 62  1  0  0  0  0
M  CHG  2  70   1  71   1
M  ISO  4  32 100  58 101  69 100  78 101
M  END
> <Batch ID>
0112

> <Smiles>
CNC(C)C(=O)NC(C(=O)N1Cc2cc([101O:1][101CH:1](C)CCNC(C)(C)C[100NH:0][100C:0](=O)N3CCCC(n4nc(-c5ccc(Oc6ccc(F)cc6F)cc5)c(C(N)=O)c4N)C3)ccc2CC1C(=O)NC1CCCc2ccccc21)C(C)(C)C

> <Shape>
0.215

> <Color>
0.077

> <Negative vol penalty>
0.000

$$$$

  -OEChem-04052320033D

 80 88  0     1  0  0  0  0  0999 V2000
  -21.7308  -22.0153   18.5300 C   0  0  0  0  0  0  0  0  0  0  0  0
  -22.6060  -21.4886   19.4745 C   0  0  0  0  0  0  0  0  0  0  0  0
  -23.2127  -15.9463   22.3396 C   0  0  0  0  0  0  0  0  0  0  0  0
  -22.2496  -15.5578   20.1582 C   0  0  0  0  0  0  0  0  0  0  0  0
  -22.2217  -22.8017   17.4885 C   0  0  0  0  0  0  0  0  0  0  0  0
  -23.9728  -21.7471   19.3773 C   0  0  0  0  0  0  0  0  0  0  0  0
  -27.9138  -22.5058   24.0032 C   0  0  0  0  0  0  0  0  0  0  0  0
  -22.2058  -16.8700   22.6197 C   0  0  0  0  0  0  0  0  0  0  0  0
  -21.2426  -16.4814   20.4383 C   0  0  0  0  0  0  0  0  0  0  0  0
  -28.8215  -21.6413   24.6135 C   0  0  0  0  0  0  0  0  0  0  0  0
  -19.6827  -19.0632   24.0477 C   0  0  0  0  0  0  0  0  0  0  0  0
  -19.0698  -18.9950   25.2988 C   0  0  0  0  0  0  0  0  0  0  0  0
  -30.5819  -22.5094   23.2111 C   0  0  0  0  0  0  0  0  0  0  0  0
  -18.3478  -16.7392   24.8220 C   0  0  0  0  0  0  0  0  0  0  0  0
  -23.2347  -15.2903   21.1088 C   0  0  0  0  0  0  0  0  0  0  0  0
  -24.2545  -12.9522   21.0740 C   0  0  0  0  0  0  0  0  0  0  0  0
  -23.5940  -23.0779   17.3841 C   0  0  0  0  0  0  0  0  0  0  0  0
  -28.3318  -23.3724   22.9831 C   0  0  0  0  0  0  0  0  0  0  0  0
  -24.4827  -22.5368   18.3327 C   0  0  0  0  0  0  0  0  0  0  0  0
  -29.6781  -23.3858   22.5913 C   0  0  0  0  0  0  0  0  0  0  0  0
  -21.2207  -17.1375   21.6691 C   0  0  0  0  0  0  0  0  0  0  0  0
  -30.1552  -21.6409   24.2155 C   0  0  0  0  0  0  0  0  0  0  0  0
  -19.6281  -17.9695   23.1836 C   0  0  0  0  0  0  0  0  0  0  0  0
  -18.4024  -17.8330   25.6859 C   0  0  0  0  0  0  0  0  0  0  0  0
  -18.9607  -16.8075   23.5708 C   0  0  0  0  0  0  0  0  0  0  0  0
  -24.2750  -14.3365   20.8186 C   0  0  0  0  0  0  0  0  0  0  0  0
  -25.4687  -12.5008   20.6174 C   0  0  0  0  0  0  0  0  0  0  0  0
  -23.2295  -12.1464   21.6706 C   0  0  0  0  0  0  0  0  0  0  0  0
  -27.5986  -23.7407   19.9122 C   0  0  0  0  0  0  0  0  0  0  0  0
  -29.5237  -26.3392   20.1660 C   0  0  0  0  0  0  0  0  0  0  0  0
  -32.0824  -27.9009   21.7972 C   0  0  0  0  0  0  0  0  0  0  0  0
  -30.7375  -15.3460   20.0532 C   0  0  0  0  0  0  0  0  0  0  0  0
  -24.0833  -23.8940   16.2139 C   0  0  0  0  0  0  0  0  0  0  0  0
  -27.3458  -24.3177   22.3533 C   0  0  0  0  0  0  0  0  0  0  0  0
  -30.1816  -24.3111   21.5149 C   0  0  0  0  0  0  0  0  0  0  0  0
  -25.5009  -24.4304   16.3957 C   0  0  0  0  0  0  0  0  0  0  0  0
  -28.6082  -14.0088   17.2349 C   0  0  0  0  0  0  0  0  0  0  0  0
  -26.4266  -23.3304   16.9055 C   0  0  0  0  0  0  0  0  0  0  0  0
  -27.4551  -13.3588   18.0020 C   0  0  0  0  0  0  0  0  0  0  0  0
  -29.8573  -14.1524   18.0915 C   0  0  0  0  0  0  0  0  0  0  0  0
  -29.7790  -17.6622   20.3934 C   0  0  0  0  0  0  0  0  0  0  0  0
  -28.2344  -14.9693   19.8100 C   0  0  0  0  0  0  0  0  0  0  0  0
  -31.6616  -16.8784   21.7547 C   0  0  0  0  0  0  0  0  0  0  0  0
  -29.2340  -18.3736   21.6213 C   0  0  0  0  0  0  0  0  0  0  0  0
  -25.9690  -22.8152   18.2754 C   0  0  1  0  0  0  0  0  0  0  0  0
  -27.7751  -24.7940   20.9690 C   0  0  1  0  0  0  0  0  0  0  0  0
  -27.5014  -13.6495   19.5147 C   0  0  1  0  0  0  0  0  0  0  0  0
  -31.0540  -17.6278   22.9423 C   0  0  1  0  0  0  0  0  0  0  0  0
  -33.4585  -29.9989   21.7512 C   0  0  0  0  0  0  0  0  0  0  0  0
  -32.8056  -18.9020   26.1714 C   0  0  0  0  0  0  0  0  0  0  0  0
  -31.0876  -25.2581   17.7795 C   0  0  0  0  0  0  0  0  0  0  0  0
  -32.9445  -26.8288   18.3736 C   0  0  0  0  0  0  0  0  0  0  0  0
  -30.7051  -27.7293   17.7432 C   0  0  0  0  0  0  0  0  0  0  0  0
  -31.1842  -28.6878   24.5051 C   0  0  0  0  0  0  0  0  0  0  0  0
  -32.1402  -18.1357   23.8800 C   0  0  0  0  0  0  0  0  0  0  0  0
  -30.5375  -19.5582   25.2981 C   0  0  0  0  0  0  0  0  0  1  0  0
  -30.9999  -26.5978   19.9849 C   0  0  1  0  0  0  0  0  0  0  0  0
  -32.2255  -29.3175   22.3239 C   0  0  2  0  0  0  0  0  0  0  0  0
  -31.6248  -18.4754   25.2918 C   0  0  2  0  0  0  0  0  0  0  0  0
  -31.4247  -26.5846   18.4893 C   0  0  0  0  0  0  0  0  0  0  0  0
  -25.4121  -14.7381   20.2445 N   0  0  0  0  0  0  0  0  0  0  0  0
  -26.1175  -13.5994   20.1354 N   0  0  0  0  0  0  0  0  0  0  0  0
  -29.1778  -25.2121   20.9250 N   0  0  0  0  0  0  0  0  0  0  0  0
  -29.6196  -14.9349   19.3075 N   0  0  0  0  0  0  0  0  0  0  0  0
  -30.6173  -16.5284   20.7936 N   0  0  0  0  0  0  0  0  0  0  0  0
  -26.0340  -11.2753   20.5853 N   0  0  0  0  0  0  0  0  0  0  0  0
  -22.0445  -12.7706   22.0834 N   0  0  0  0  0  0  0  0  0  0  0  0
  -26.3511  -23.7436   19.3178 N   0  0  0  0  0  0  0  0  0  0  0  0
  -31.2824  -27.8516   20.6752 N   0  0  0  0  0  0  0  0  0  0  0  0
  -32.3409  -29.3084   23.8097 N   0  3  0  0  0  0  0  0  0  0  0  0
  -23.3672  -10.9123   21.8476 O   0  0  0  0  0  0  0  0  0  0  0  0
  -28.5260  -22.9825   19.6539 O   0  0  0  0  0  0  0  0  0  0  0  0
  -28.7075  -27.1127   19.6590 O   0  0  0  0  0  0  0  0  0  0  0  0
  -32.6288  -26.9353   22.3258 O   0  0  0  0  0  0  0  0  0  0  0  0
  -31.7786  -14.6764   20.0743 O   0  0  0  0  0  0  0  0  0  0  0  0
  -30.3068  -18.7614   22.4836 O   0  0  0  0  0  0  0  0  0  0  0  0
  -20.2378  -18.0386   21.9422 O   0  0  0  0  0  0  0  0  0  0  0  0
  -31.0498  -20.7914   24.8135 O   0  0  0  0  0  0  0  0  0  1  0  0
  -17.8152  -17.7670   26.8880 F   0  0  0  0  0  0  0  0  0  0  0  0
  -18.9059  -15.7531   22.7456 F   0  0  0  0  0  0  0  0  0  0  0  0
  1  2  1  0  0  0  0
  1  5  2  0  0  0  0
  2  6  2  0  0  0  0
  3  8  2  0  0  0  0
  3 15  1  0  0  0  0
  4  9  1  0  0  0  0
  4 15  2  0  0  0  0
  5 17  1  0  0  0  0
  6 19  1  0  0  0  0
  7 10  2  0  0  0  0
  7 18  1  0  0  0  0
  8 21  1  0  0  0  0
  9 21  2  0  0  0  0
 10 22  1  0  0  0  0
 11 12  2  0  0  0  0
 11 23  1  0  0  0  0
 12 24  1  0  0  0  0
 13 20  1  0  0  0  0
 13 22  2  0  0  0  0
 14 24  2  0  0  0  0
 14 25  1  0  0  0  0
 15 26  1  0  0  0  0
 16 26  1  0  0  0  0
 16 27  2  0  0  0  0
 16 28  1  0  0  0  0
 17 19  2  0  0  0  0
 17 33  1  0  0  0  0
 18 20  2  0  0  0  0
 18 34  1  0  0  0  0
 19 45  1  0  0  0  0
 20 35  1  0  0  0  0
 21 77  1  0  0  0  0
 22 78  1  0  0  0  0
 23 25  2  0  0  0  0
 23 77  1  0  0  0  0
 24 79  1  0  0  0  0
 25 80  1  0  0  0  0
 26 61  2  0  0  0  0
 27 62  1  0  0  0  0
 27 66  1  0  0  0  0
 28 67  1  0  0  0  0
 28 71  2  0  0  0  0
 29 46  1  0  0  0  0
 29 68  1  0  0  0  0
 29 72  2  0  0  0  0
 30 57  1  0  0  0  0
 30 63  1  0  0  0  0
 30 73  2  0  0  0  0
 31 58  1  0  0  0  0
 31 69  1  0  0  0  0
 31 74  2  0  0  0  0
 32 64  1  0  0  0  0
 32 65  1  0  0  0  0
 32 75  2  0  0  0  0
 33 36  1  0  0  0  0
 34 46  1  0  0  0  0
 35 63  1  0  0  0  0
 36 38  1  0  0  0  0
 37 39  1  0  0  0  0
 37 40  1  0  0  0  0
 38 45  1  0  0  0  0
 39 47  1  0  0  0  0
 40 64  1  0  0  0  0
 41 44  1  0  0  0  0
 41 65  1  0  0  0  0
 42 47  1  0  0  0  0
 42 64  1  0  0  0  0
 43 48  1  0  0  0  0
 43 65  1  0  0  0  0
 44 76  1  0  0  0  0
 45 68  1  0  0  0  0
 46 63  1  0  0  0  0
 47 62  1  0  0  0  0
 48 55  1  0  0  0  0
 48 76  1  0  0  0  0
 49 58  1  0  0  0  0
 50 59  1  0  0  0  0
 51 60  1  0  0  0  0
 52 60  1  0  0  0  0
 53 60  1  0  0  0  0
 54 70  1  0  0  0  0
 55 59  1  0  0  0  0
 56 59  1  0  0  0  0
 56 78  1  0  0  0  0
 57 60  1  0  0  0  0
 57 69  1  0  0  0  0
 58 70  1  0  0  0  0
 61 62  1  0  0  0  0
M  CHG  1  70   1
M  ISO  4  32 100  56 101  65 100  78 101
M  END
> <Batch ID>
0112

> <Smiles>
CNC(C)C(=O)NC(C(=O)N1Cc2cc([101O:1][101CH2:1]C(C)CC3C[100N:0]([100C:0](=O)N4CCCC(n5nc(-c6ccc(Oc7ccc(F)cc7F)cc6)c(C(N)=O)c5N)C4)CCO3)ccc2CC1C(=O)NC1CCCc2ccccc21)C(C)(C)C

> <Shape>
0.156

> <Color>
0.104

> <Negative vol penalty>
0.000

$$$$

  -OEChem-04052320033D

 84 91  0     1  0  0  0  0  0999 V2000
  -23.4912  -31.6097   20.3981 C   0  0  0  0  0  0  0  0  0  0  0  0
  -24.6188  -30.8948   20.0072 C   0  0  0  0  0  0  0  0  0  0  0  0
  -22.9828   -9.8717   19.9878 C   0  0  0  0  0  0  0  0  0  0  0  0
  -23.7078   -9.9285   22.2918 C   0  0  0  0  0  0  0  0  0  0  0  0
  -23.5403  -32.4229   21.5296 C   0  0  0  0  0  0  0  0  0  0  0  0
  -25.7967  -30.9936   20.7470 C   0  0  0  0  0  0  0  0  0  0  0  0
  -27.9698  -26.4906   21.5502 C   0  0  0  0  0  0  0  0  0  0  0  0
  -22.2108   -8.7420   20.2585 C   0  0  0  0  0  0  0  0  0  0  0  0
  -22.9358   -8.7988   22.5625 C   0  0  0  0  0  0  0  0  0  0  0  0
  -28.6886  -25.9330   20.4937 C   0  0  0  0  0  0  0  0  0  0  0  0
  -23.1642   -5.4569   22.1041 C   0  0  0  0  0  0  0  0  0  0  0  0
  -23.7468   -4.4399   22.8604 C   0  0  0  0  0  0  0  0  0  0  0  0
  -30.7453  -26.6909   21.5011 C   0  0  0  0  0  0  0  0  0  0  0  0
  -22.0237   -4.6978   24.5343 C   0  0  0  0  0  0  0  0  0  0  0  0
  -23.7314  -10.4650   21.0044 C   0  0  0  0  0  0  0  0  0  0  0  0
  -24.1287  -12.9780   20.8183 C   0  0  0  0  0  0  0  0  0  0  0  0
  -24.7165  -32.5242   22.2892 C   0  0  0  0  0  0  0  0  0  0  0  0
  -28.6336  -27.1631   22.5862 C   0  0  0  0  0  0  0  0  0  0  0  0
  -25.8620  -31.8100   21.8889 C   0  0  0  0  0  0  0  0  0  0  0  0
  -30.0328  -27.2539   22.5708 C   0  0  0  0  0  0  0  0  0  0  0  0
  -22.1873   -8.2055   21.5459 C   0  0  0  0  0  0  0  0  0  0  0  0
  -30.0764  -26.0356   20.4675 C   0  0  0  0  0  0  0  0  0  0  0  0
  -22.0115   -6.0944   22.5629 C   0  0  0  0  0  0  0  0  0  0  0  0
  -23.1765   -4.0603   24.0755 C   0  0  0  0  0  0  0  0  0  0  0  0
  -21.4412   -5.7148   23.7780 C   0  0  0  0  0  0  0  0  0  0  0  0
  -24.5295  -11.6317   20.7252 C   0  0  0  0  0  0  0  0  0  0  0  0
  -25.2420  -13.6938   20.4513 C   0  0  0  0  0  0  0  0  0  0  0  0
  -22.8633  -13.5320   21.2024 C   0  0  0  0  0  0  0  0  0  0  0  0
  -28.6108  -30.1379   23.7059 C   0  0  0  0  0  0  0  0  0  0  0  0
  -30.5240  -28.8742   26.0004 C   0  0  0  0  0  0  0  0  0  0  0  0
  -32.7134  -26.4234   26.9209 C   0  0  0  0  0  0  0  0  0  0  0  0
  -30.7427  -14.6031   20.6972 C   0  0  0  0  0  0  0  0  0  0  0  0
  -24.7356  -33.4528   23.4774 C   0  0  0  0  0  0  0  0  0  0  0  0
  -27.8457  -27.7358   23.7323 C   0  0  0  0  0  0  0  0  0  0  0  0
  -30.7946  -27.9479   23.6692 C   0  0  0  0  0  0  0  0  0  0  0  0
  -25.9111  -33.2108   24.4207 C   0  0  0  0  0  0  0  0  0  0  0  0
  -29.5909  -12.1755   18.3613 C   0  0  0  0  0  0  0  0  0  0  0  0
  -27.2092  -33.0725   23.6316 C   0  0  0  0  0  0  0  0  0  0  0  0
  -28.1411  -11.9244   18.7796 C   0  0  0  0  0  0  0  0  0  0  0  0
  -30.4942  -12.4114   19.5697 C   0  0  0  0  0  0  0  0  0  0  0  0
  -28.5877  -13.2214   20.9049 C   0  0  0  0  0  0  0  0  0  0  0  0
  -27.1508  -31.8717   22.6796 C   0  0  1  0  0  0  0  0  0  0  0  0
  -28.5871  -28.8454   24.4717 C   0  0  1  0  0  0  0  0  0  0  0  0
  -27.6280  -13.0336   19.7174 C   0  0  2  0  0  0  0  0  0  0  0  0
  -31.3572  -25.0305   16.6432 C   0  0  0  0  0  0  0  0  0  0  0  0
  -34.1400  -25.6778   28.8460 C   0  0  0  0  0  0  0  0  0  0  0  0
  -27.4758  -19.8129   18.9808 C   0  0  0  0  0  0  0  0  0  0  0  0
  -32.5369  -31.0756   25.3583 C   0  0  0  0  0  0  0  0  0  0  0  0
  -34.2717  -29.7509   26.5846 C   0  0  0  0  0  0  0  0  0  0  0  0
  -32.2607  -30.5934   27.7966 C   0  0  0  0  0  0  0  0  0  0  0  0
  -31.2678  -23.8507   27.1464 C   0  0  0  0  0  0  0  0  0  0  0  0
  -31.1527  -23.9174   17.6628 C   0  0  0  0  0  0  0  0  0  0  0  0
  -30.8356  -16.7864   21.8736 C   0  0  0  0  0  0  0  0  0  0  0  0
  -30.0889  -23.2146   19.8381 C   0  0  0  0  0  0  0  0  0  0  0  0
  -29.4142  -20.9389   20.1940 C   0  0  0  0  0  0  0  0  0  0  0  0
  -30.5912  -17.9052   20.8794 C   0  0  0  0  0  0  0  0  0  0  0  0
  -32.0121  -28.6793   26.1636 C   0  0  1  0  0  0  0  0  0  0  0  0
  -32.7873  -25.5530   28.1624 C   0  0  2  0  0  0  0  0  0  0  0  0
  -30.2246  -24.3392   18.8073 C   0  0  1  0  0  0  0  0  0  1  0  0
  -28.8775  -19.6519   19.5603 C   0  0  1  0  0  0  0  0  0  0  0  0
  -32.7561  -30.0133   26.4539 C   0  0  0  0  0  0  0  0  0  0  0  0
  -25.7982  -11.4975   20.3298 N   0  0  0  0  0  0  0  0  0  0  0  0
  -26.2043  -12.7687   20.1712 N   0  0  0  0  0  0  0  0  0  0  0  0
  -29.9789  -28.4972   24.7649 N   0  0  0  0  0  0  0  0  0  0  0  0
  -29.9523  -13.4762   20.4174 N   0  0  0  0  0  0  0  0  0  0  0  0
  -25.4818  -15.0179   20.3439 N   0  0  0  0  0  0  0  0  0  0  0  0
  -21.8272  -12.6542   21.5493 N   0  0  0  0  0  0  0  0  0  0  0  0
  -27.3577  -30.6386   23.4083 N   0  0  0  0  0  0  0  0  0  0  0  0
  -32.1798  -27.6642   27.1980 N   0  0  0  0  0  0  0  0  0  0  0  0
  -30.1508  -15.5680   21.5030 N   0  0  0  0  0  0  0  0  0  0  0  0
  -29.5261  -22.0158   19.2218 N   0  0  0  0  0  0  0  0  0  0  0  0
  -32.5711  -24.1223   27.8057 N   0  3  0  0  0  0  0  0  0  0  0  0
  -22.6525  -14.7684   21.2211 O   0  0  0  0  0  0  0  0  0  0  0  0
  -29.6863  -30.6443   23.4084 O   0  0  0  0  0  0  0  0  0  0  0  0
  -29.8684  -29.3369   26.9372 O   0  0  0  0  0  0  0  0  0  0  0  0
  -33.0946  -26.0420   25.8164 O   0  0  0  0  0  0  0  0  0  0  0  0
  -31.8889  -14.7417   20.2568 O   0  0  0  0  0  0  0  0  0  0  0  0
  -28.4819  -18.9239   22.0394 O   0  0  0  0  0  0  0  0  0  0  0  0
  -28.1605  -17.2219   20.2032 O   0  0  0  0  0  0  0  0  0  0  0  0
  -21.4339   -7.1033   21.8105 O   0  0  0  0  0  0  0  0  0  0  0  0
  -30.7804  -25.4928   19.4372 O   0  0  0  0  0  0  0  0  0  1  0  0
  -23.7352   -3.0827   24.8010 F   0  0  0  0  0  0  0  0  0  0  0  0
  -20.3331   -6.3228   24.2233 F   0  0  0  0  0  0  0  0  0  0  0  0
  -28.8756  -18.3475   20.7697 S   0  0  0  0  0  0  0  0  0  0  0  0
  1  2  1  0  0  0  0
  1  5  2  0  0  0  0
  2  6  2  0  0  0  0
  3  8  2  0  0  0  0
  3 15  1  0  0  0  0
  4  9  1  0  0  0  0
  4 15  2  0  0  0  0
  5 17  1  0  0  0  0
  6 19  1  0  0  0  0
  7 10  2  0  0  0  0
  7 18  1  0  0  0  0
  8 21  1  0  0  0  0
  9 21  2  0  0  0  0
 10 22  1  0  0  0  0
 11 12  2  0  0  0  0
 11 23  1  0  0  0  0
 12 24  1  0  0  0  0
 13 20  1  0  0  0  0
 13 22  2  0  0  0  0
 14 24  2  0  0  0  0
 14 25  1  0  0  0  0
 15 26  1  0  0  0  0
 16 26  1  0  0  0  0
 16 27  2  0  0  0  0
 16 28  1  0  0  0  0
 17 19  2  0  0  0  0
 17 33  1  0  0  0  0
 18 20  2  0  0  0  0
 18 34  1  0  0  0  0
 19 42  1  0  0  0  0
 20 35  1  0  0  0  0
 21 80  1  0  0  0  0
 22 81  1  0  0  0  0
 23 25  2  0  0  0  0
 23 80  1  0  0  0  0
 24 82  1  0  0  0  0
 25 83  1  0  0  0  0
 26 62  2  0  0  0  0
 27 63  1  0  0  0  0
 27 66  1  0  0  0  0
 28 67  1  0  0  0  0
 28 73  2  0  0  0  0
 29 43  1  0  0  0  0
 29 68  1  0  0  0  0
 29 74  2  0  0  0  0
 30 57  1  0  0  0  0
 30 64  1  0  0  0  0
 30 75  2  0  0  0  0
 31 58  1  0  0  0  0
 31 69  1  0  0  0  0
 31 76  2  0  0  0  0
 32 65  1  0  0  0  0
 32 70  1  0  0  0  0
 32 77  2  0  0  0  0
 33 36  1  0  0  0  0
 34 43  1  0  0  0  0
 35 64  1  0  0  0  0
 36 38  1  0  0  0  0
 37 39  1  0  0  0  0
 37 40  1  0  0  0  0
 38 42  1  0  0  0  0
 39 44  1  0  0  0  0
 40 65  1  0  0  0  0
 41 44  1  0  0  0  0
 41 65  1  0  0  0  0
 42 68  1  0  0  0  0
 43 64  1  0  0  0  0
 44 63  1  0  0  0  0
 45 52  1  0  0  0  0
 46 58  1  0  0  0  0
 47 60  1  0  0  0  0
 48 61  1  0  0  0  0
 49 61  1  0  0  0  0
 50 61  1  0  0  0  0
 51 72  1  0  0  0  0
 52 59  1  0  0  0  0
 53 56  1  0  0  0  0
 53 70  1  0  0  0  0
 54 59  1  0  0  0  0
 54 71  1  0  0  0  0
 55 60  1  0  0  0  0
 55 71  1  0  0  0  0
 56 84  1  0  0  0  0
 57 61  1  0  0  0  0
 57 69  1  0  0  0  0
 58 72  1  0  0  0  0
 59 81  1  0  0  0  0
 60 84  1  0  0  0  0
 62 63  1  0  0  0  0
 78 84  2  0  0  0  0
 79 84  2  0  0  0  0
M  CHG  1  72   1
M  ISO  4  32 100  59 101  70 100  81 101
M  END
> <Batch ID>
0112

> <Smiles>
CC[101CH:1](CNCC(C)S(=O)(=O)CC[100NH:0][100C:0](=O)N1CCCC(n2nc(-c3ccc(Oc4ccc(F)cc4F)cc3)c(C(N)=O)c2N)C1)[101O:1]c1ccc2c(c1)CN(C(=O)C(NC(=O)C(C)NC)C(C)(C)C)C(C(=O)NC1CCCc3ccccc31)C2

> <Shape>
0.347

> <Color>
0.215

> <Negative vol penalty>
0.000

$$$$

  -OEChem-04052320033D

 86 94  0     1  0  0  0  0  0999 V2000
  -22.2761  -36.5428   17.3061 C   0  0  0  0  0  0  0  0  0  0  0  0
  -22.4278  -35.2233   16.8921 C   0  0  0  0  0  0  0  0  0  0  0  0
  -23.3801  -10.1864   21.3601 C   0  0  0  0  0  0  0  0  0  0  0  0
  -22.6874  -12.4710   20.9887 C   0  0  0  0  0  0  0  0  0  0  0  0
  -23.0681  -37.0437   18.3385 C   0  0  0  0  0  0  0  0  0  0  0  0
  -23.3724  -34.4042   17.5095 C   0  0  0  0  0  0  0  0  0  0  0  0
  -24.4813  -27.5729   19.3585 C   0  0  0  0  0  0  0  0  0  0  0  0
  -22.3347  -10.0169   22.2677 C   0  0  0  0  0  0  0  0  0  0  0  0
  -21.6418  -12.3015   21.8963 C   0  0  0  0  0  0  0  0  0  0  0  0
  -25.4320  -26.5618   19.2256 C   0  0  0  0  0  0  0  0  0  0  0  0
  -19.0013   -9.4613   22.1526 C   0  0  0  0  0  0  0  0  0  0  0  0
  -18.2435   -8.2941   22.0579 C   0  0  0  0  0  0  0  0  0  0  0  0
  -26.6894  -27.5121   21.0518 C   0  0  0  0  0  0  0  0  0  0  0  0
  -18.8702   -7.7041   24.3154 C   0  0  0  0  0  0  0  0  0  0  0  0
  -23.5565  -11.4135   20.7205 C   0  0  0  0  0  0  0  0  0  0  0  0
  -24.6048  -11.3543   18.3956 C   0  0  0  0  0  0  0  0  0  0  0  0
  -24.0162  -36.2275   18.9754 C   0  0  0  0  0  0  0  0  0  0  0  0
  -24.6334  -28.5691   20.3336 C   0  0  0  0  0  0  0  0  0  0  0  0
  -24.1787  -34.8950   18.5505 C   0  0  0  0  0  0  0  0  0  0  0  0
  -25.7379  -28.5333   21.1968 C   0  0  0  0  0  0  0  0  0  0  0  0
  -21.4655  -11.0744   22.5359 C   0  0  0  0  0  0  0  0  0  0  0  0
  -26.5377  -26.5329   20.0703 C   0  0  0  0  0  0  0  0  0  0  0  0
  -19.6937   -9.7498   23.3286 C   0  0  0  0  0  0  0  0  0  0  0  0
  -18.1779   -7.4155   23.1393 C   0  0  0  0  0  0  0  0  0  0  0  0
  -19.6282   -8.8712   24.4100 C   0  0  0  0  0  0  0  0  0  0  0  0
  -24.6366  -11.5893   19.7833 C   0  0  0  0  0  0  0  0  0  0  0  0
  -25.8704  -11.6689   17.9649 C   0  0  0  0  0  0  0  0  0  0  0  0
  -23.5274  -10.8928   17.5698 C   0  0  0  0  0  0  0  0  0  0  0  0
  -24.9794  -31.7283   20.2778 C   0  0  0  0  0  0  0  0  0  0  0  0
  -29.5527  -18.3413   21.0589 C   0  0  0  0  0  0  0  0  0  0  0  0
  -24.7407  -31.4207   23.4982 C   0  0  0  0  0  0  0  0  0  0  0  0
  -25.0834  -29.4345   26.2522 C   0  0  0  0  0  0  0  0  0  0  0  0
  -30.1360  -15.2708   20.1288 C   0  0  0  0  0  0  0  0  0  0  0  0
  -24.8822  -36.8272   20.0548 C   0  0  0  0  0  0  0  0  0  0  0  0
  -23.5853  -29.6376   20.4817 C   0  0  0  0  0  0  0  0  0  0  0  0
  -25.9371  -29.5678   22.2731 C   0  0  0  0  0  0  0  0  0  0  0  0
  -25.5994  -35.7852   20.9093 C   0  0  0  0  0  0  0  0  0  0  0  0
  -30.4138  -11.7847   19.4601 C   0  0  0  0  0  0  0  0  0  0  0  0
  -26.2372  -34.7177   20.0259 C   0  0  0  0  0  0  0  0  0  0  0  0
  -28.4322  -22.2207   19.3699 C   0  0  0  0  0  0  0  0  0  0  0  0
  -30.8558  -22.9298   19.3970 C   0  0  0  0  0  0  0  0  0  0  0  0
  -28.7501  -21.0969   20.3545 C   0  0  0  0  0  0  0  0  0  0  0  0
  -31.1734  -21.8061   20.3819 C   0  0  0  0  0  0  0  0  0  0  0  0
  -28.9618  -11.3182   19.3419 C   0  0  0  0  0  0  0  0  0  0  0  0
  -30.5742  -12.8654   20.5271 C   0  0  0  0  0  0  0  0  0  0  0  0
  -28.2252  -13.5593   20.2548 C   0  0  0  0  0  0  0  0  0  0  0  0
  -25.1753  -33.9682   19.2123 C   0  0  1  0  0  0  0  0  0  0  0  0
  -24.1065  -30.8942   21.1723 C   0  0  1  0  0  0  0  0  0  0  0  0
  -29.4012  -23.4000   19.5233 C   0  0  0  0  0  0  0  0  0  0  0  0
  -30.2047  -20.6268   20.2279 C   0  0  0  0  0  0  0  0  0  0  0  0
  -28.0036  -12.5095   19.1524 C   0  0  2  0  0  0  0  0  0  0  0  0
  -24.8515  -29.4739   28.7506 C   0  0  0  0  0  0  0  0  0  0  0  0
  -30.0899  -25.6382   18.6268 C   0  0  0  0  0  0  0  0  0  0  0  0
  -31.9684  -19.0797   21.0754 C   0  0  0  0  0  0  0  0  0  0  0  0
  -30.3094  -20.1066   22.6697 C   0  0  0  0  0  0  0  0  0  0  0  0
  -27.3614  -32.9683   23.7147 C   0  0  0  0  0  0  0  0  0  0  0  0
  -27.5611  -32.1629   26.0768 C   0  0  0  0  0  0  0  0  0  0  0  0
  -25.6341  -33.5995   25.4095 C   0  0  0  0  0  0  0  0  0  0  0  0
  -23.0036  -27.3294   26.2084 C   0  0  0  0  0  0  0  0  0  0  0  0
  -29.5393  -17.6430   19.7098 C   0  0  0  0  0  0  0  0  0  0  0  0
  -27.6601  -25.0019   18.6378 C   0  0  0  0  0  0  0  0  0  1  0  0
  -25.7188  -31.1972   24.6262 C   0  0  1  0  0  0  0  0  0  0  0  0
  -24.1601  -29.1763   27.4291 C   0  0  2  0  0  0  0  0  0  0  0  0
  -29.0950  -24.4871   18.4948 C   0  0  2  0  0  0  0  0  0  0  0  0
  -30.5116  -19.5389   21.2553 C   0  0  0  0  0  0  0  0  0  0  0  0
  -26.5664  -32.4634   24.9354 C   0  0  0  0  0  0  0  0  0  0  0  0
  -25.8282  -12.0199   20.2061 N   0  0  0  0  0  0  0  0  0  0  0  0
  -26.5568  -12.0578   19.0775 N   0  0  0  0  0  0  0  0  0  0  0  0
  -24.8881  -30.5958   22.3741 N   0  0  0  0  0  0  0  0  0  0  0  0
  -29.6385  -13.9670   20.2889 N   0  0  0  0  0  0  0  0  0  0  0  0
  -26.4521  -11.6480   16.7469 N   0  0  0  0  0  0  0  0  0  0  0  0
  -22.2935  -10.6162   18.1742 N   0  0  0  0  0  0  0  0  0  0  0  0
  -24.4922  -33.0000   20.0432 N   0  0  0  0  0  0  0  0  0  0  0  0
  -24.9343  -30.7126   25.7567 N   0  0  0  0  0  0  0  0  0  0  0  0
  -29.1821  -16.2549   19.9005 N   0  0  0  0  0  0  0  0  0  0  0  0
  -23.7195  -27.7527   27.4393 N   0  3  0  0  0  0  0  0  0  0  0  0
  -23.6598  -10.7150   16.3351 O   0  0  0  0  0  0  0  0  0  0  0  0
  -26.0187  -31.2539   19.8347 O   0  0  0  0  0  0  0  0  0  0  0  0
  -28.7957  -17.9798   21.9635 O   0  0  0  0  0  0  0  0  0  0  0  0
  -23.8733  -32.2902   23.6133 O   0  0  0  0  0  0  0  0  0  0  0  0
  -25.8620  -28.5883   25.8182 O   0  0  0  0  0  0  0  0  0  0  0  0
  -31.3416  -15.5371   20.1800 O   0  0  0  0  0  0  0  0  0  0  0  0
  -20.4451  -10.9094   23.4213 O   0  0  0  0  0  0  0  0  0  0  0  0
  -27.4675  -25.5475   19.9422 O   0  0  0  0  0  0  0  0  0  1  0  0
  -17.4488   -6.2955   23.0488 F   0  0  0  0  0  0  0  0  0  0  0  0
  -20.2902   -9.1436   25.5428 F   0  0  0  0  0  0  0  0  0  0  0  0
  1  2  1  0  0  0  0
  1  5  2  0  0  0  0
  2  6  2  0  0  0  0
  3  8  2  0  0  0  0
  3 15  1  0  0  0  0
  4  9  1  0  0  0  0
  4 15  2  0  0  0  0
  5 17  1  0  0  0  0
  6 19  1  0  0  0  0
  7 10  2  0  0  0  0
  7 18  1  0  0  0  0
  8 21  1  0  0  0  0
  9 21  2  0  0  0  0
 10 22  1  0  0  0  0
 11 12  2  0  0  0  0
 11 23  1  0  0  0  0
 12 24  1  0  0  0  0
 13 20  1  0  0  0  0
 13 22  2  0  0  0  0
 14 24  2  0  0  0  0
 14 25  1  0  0  0  0
 15 26  1  0  0  0  0
 16 26  1  0  0  0  0
 16 27  2  0  0  0  0
 16 28  1  0  0  0  0
 17 19  2  0  0  0  0
 17 34  1  0  0  0  0
 18 20  2  0  0  0  0
 18 35  1  0  0  0  0
 19 47  1  0  0  0  0
 20 36  1  0  0  0  0
 21 83  1  0  0  0  0
 22 84  1  0  0  0  0
 23 25  2  0  0  0  0
 23 83  1  0  0  0  0
 24 85  1  0  0  0  0
 25 86  1  0  0  0  0
 26 67  2  0  0  0  0
 27 68  1  0  0  0  0
 27 71  1  0  0  0  0
 28 72  1  0  0  0  0
 28 77  2  0  0  0  0
 29 48  1  0  0  0  0
 29 73  1  0  0  0  0
 29 78  2  0  0  0  0
 30 60  1  0  0  0  0
 30 65  1  0  0  0  0
 30 79  2  0  0  0  0
 31 62  1  0  0  0  0
 31 69  1  0  0  0  0
 31 80  2  0  0  0  0
 32 63  1  0  0  0  0
 32 74  1  0  0  0  0
 32 81  2  0  0  0  0
 33 70  1  0  0  0  0
 33 75  1  0  0  0  0
 33 82  2  0  0  0  0
 34 37  1  0  0  0  0
 35 48  1  0  0  0  0
 36 69  1  0  0  0  0
 37 39  1  0  0  0  0
 38 44  1  0  0  0  0
 38 45  1  0  0  0  0
 39 47  1  0  0  0  0
 40 42  1  0  0  0  0
 40 49  1  0  0  0  0
 41 43  1  0  0  0  0
 41 49  1  0  0  0  0
 42 50  1  0  0  0  0
 43 50  1  0  0  0  0
 44 51  1  0  0  0  0
 45 70  1  0  0  0  0
 46 51  1  0  0  0  0
 46 70  1  0  0  0  0
 47 73  1  0  0  0  0
 48 69  1  0  0  0  0
 49 64  1  0  0  0  0
 50 65  1  0  0  0  0
 51 68  1  0  0  0  0
 52 63  1  0  0  0  0
 53 64  1  0  0  0  0
 54 65  1  0  0  0  0
 55 65  1  0  0  0  0
 56 66  1  0  0  0  0
 57 66  1  0  0  0  0
 58 66  1  0  0  0  0
 59 76  1  0  0  0  0
 60 75  1  0  0  0  0
 61 64  1  0  0  0  0
 61 84  1  0  0  0  0
 62 66  1  0  0  0  0
 62 74  1  0  0  0  0
 63 76  1  0  0  0  0
 67 68  1  0  0  0  0
M  CHG  1  76   1
M  ISO  4  33 100  61 101  75 100  84 101
M  END
> <Batch ID>
0112

> <Smiles>
CNC(C)C(=O)NC(C(=O)N1Cc2cc([101O:1][101CH2:1]C(C)C3CCC(C(C)(C)C(=O)C[100NH:0][100C:0](=O)N4CCCC(n5nc(-c6ccc(Oc7ccc(F)cc7F)cc6)c(C(N)=O)c5N)C4)CC3)ccc2CC1C(=O)NC1CCCc2ccccc21)C(C)(C)C

> <Shape>
0.276

> <Color>
0.083

> <Negative vol penalty>
0.000

$$$$

  -OEChem-04052320033D

 83 91  0     1  0  0  0  0  0999 V2000
  -24.7959  -32.9096   21.2736 C   0  0  0  0  0  0  0  0  0  0  0  0
  -24.9790  -31.6584   20.6936 C   0  0  0  0  0  0  0  0  0  0  0  0
  -23.2292   -9.7186   20.7396 C   0  0  0  0  0  0  0  0  0  0  0  0
  -23.9433  -10.3246   22.9666 C   0  0  0  0  0  0  0  0  0  0  0  0
  -25.8399  -33.5108   21.9755 C   0  0  0  0  0  0  0  0  0  0  0  0
  -26.2066  -31.0081   20.8142 C   0  0  0  0  0  0  0  0  0  0  0  0
  -27.1437  -24.9779   21.3277 C   0  0  0  0  0  0  0  0  0  0  0  0
  -22.5417   -8.6215   21.2585 C   0  0  0  0  0  0  0  0  0  0  0  0
  -23.2559   -9.2275   23.4856 C   0  0  0  0  0  0  0  0  0  0  0  0
  -27.4979  -24.0012   20.3981 C   0  0  0  0  0  0  0  0  0  0  0  0
  -20.0627   -8.4230   24.2450 C   0  0  0  0  0  0  0  0  0  0  0  0
  -19.2864   -8.6270   25.3858 C   0  0  0  0  0  0  0  0  0  0  0  0
  -28.1950  -20.1115   21.9739 C   0  0  0  0  0  0  0  0  0  0  0  0
  -29.8101  -24.2317   21.0460 C   0  0  0  0  0  0  0  0  0  0  0  0
  -20.6127   -6.9982   26.5796 C   0  0  0  0  0  0  0  0  0  0  0  0
  -28.4925  -19.4944   23.1688 C   0  0  0  0  0  0  0  0  0  0  0  0
  -23.9300  -10.5702   21.5936 C   0  0  0  0  0  0  0  0  0  0  0  0
  -24.1421  -13.0054   20.8639 C   0  0  0  0  0  0  0  0  0  0  0  0
  -27.0779  -32.8633   22.1130 C   0  0  0  0  0  0  0  0  0  0  0  0
  -28.1230  -25.5977   22.1172 C   0  0  0  0  0  0  0  0  0  0  0  0
  -27.2686  -31.6018   21.5174 C   0  0  0  0  0  0  0  0  0  0  0  0
  -29.4653  -25.2141   21.9868 C   0  0  0  0  0  0  0  0  0  0  0  0
  -28.9169  -19.4373   20.9583 C   0  0  0  0  0  0  0  0  0  0  0  0
  -22.5550   -8.3760   22.6315 C   0  0  0  0  0  0  0  0  0  0  0  0
  -28.8317  -23.6300   20.2551 C   0  0  0  0  0  0  0  0  0  0  0  0
  -21.1139   -7.5065   24.2715 C   0  0  0  0  0  0  0  0  0  0  0  0
  -19.5614   -7.9147   26.5531 C   0  0  0  0  0  0  0  0  0  0  0  0
  -21.3889   -6.7942   25.4388 C   0  0  0  0  0  0  0  0  0  0  0  0
  -24.6408  -11.7033   21.0580 C   0  0  0  0  0  0  0  0  0  0  0  0
  -29.6335  -18.4285   21.5635 C   0  0  0  0  0  0  0  0  0  0  0  0
  -25.2005  -13.7033   20.3355 C   0  0  0  0  0  0  0  0  0  0  0  0
  -22.8386  -13.5365   21.1368 C   0  0  0  0  0  0  0  0  0  0  0  0
  -29.1723  -28.5785   22.4597 C   0  0  0  0  0  0  0  0  0  0  0  0
  -30.9157  -27.2744   24.8643 C   0  0  0  0  0  0  0  0  0  0  0  0
  -32.3586  -24.4939   26.2186 C   0  0  0  0  0  0  0  0  0  0  0  0
  -30.6190  -15.0388   20.3027 C   0  0  0  0  0  0  0  0  0  0  0  0
  -28.1917  -33.5736   22.8406 C   0  0  0  0  0  0  0  0  0  0  0  0
  -27.7211  -26.6304   23.1343 C   0  0  0  0  0  0  0  0  0  0  0  0
  -30.5523  -25.8346   22.8246 C   0  0  0  0  0  0  0  0  0  0  0  0
  -29.3417  -32.6530   23.2413 C   0  0  0  0  0  0  0  0  0  0  0  0
  -29.6534  -12.0867   18.5622 C   0  0  0  0  0  0  0  0  0  0  0  0
  -29.7411  -31.7579   22.0725 C   0  0  0  0  0  0  0  0  0  0  0  0
  -28.2252  -11.8281   19.0450 C   0  0  0  0  0  0  0  0  0  0  0  0
  -30.5345  -12.6430   19.6785 C   0  0  0  0  0  0  0  0  0  0  0  0
  -28.5709  -13.5830   20.8337 C   0  0  0  0  0  0  0  0  0  0  0  0
  -28.5777  -30.8539   21.6474 C   0  0  1  0  0  0  0  0  0  0  0  0
  -28.8645  -27.5625   23.5231 C   0  0  1  0  0  0  0  0  0  0  0  0
  -27.6300  -13.0739   19.7283 C   0  0  2  0  0  0  0  0  0  0  0  0
  -33.7495  -23.7482   28.1697 C   0  0  0  0  0  0  0  0  0  0  0  0
  -28.8304  -16.7544   24.5948 C   0  0  0  0  0  0  0  0  0  0  0  0
  -30.7776  -18.3368   24.9276 C   0  0  0  0  0  0  0  0  0  0  0  0
  -33.3915  -28.4928   23.5619 C   0  0  0  0  0  0  0  0  0  0  0  0
  -34.7950  -26.9632   24.9615 C   0  0  0  0  0  0  0  0  0  0  0  0
  -33.3341  -28.6632   26.0564 C   0  0  0  0  0  0  0  0  0  0  0  0
  -30.2433  -22.6573   27.1732 C   0  0  0  0  0  0  0  0  0  0  0  0
  -28.8985  -19.7693   19.4876 C   0  0  0  0  0  0  0  0  0  0  0  0
  -30.5489  -17.4257   20.9786 C   0  0  0  0  0  0  0  0  0  0  0  0
  -30.1491  -20.5090   19.0075 C   0  0  0  0  0  0  0  0  0  0  0  0
  -30.3241  -21.8797   19.6508 C   0  0  0  0  0  0  0  0  0  1  0  0
  -32.2801  -26.6372   24.9717 C   0  0  1  0  0  0  0  0  0  0  0  0
  -32.3400  -23.9355   27.6301 C   0  0  2  0  0  0  0  0  0  0  0  0
  -29.9165  -17.5863   23.9099 C   0  0  0  0  0  0  0  0  0  0  0  0
  -33.4302  -27.6786   24.8706 C   0  0  0  0  0  0  0  0  0  0  0  0
  -25.9168  -11.5787   20.6833 N   0  0  0  0  0  0  0  0  0  0  0  0
  -29.3676  -18.4726   22.9072 N   0  0  0  0  0  0  0  0  0  0  0  0
  -26.2287  -12.8114   20.2483 N   0  0  0  0  0  0  0  0  0  0  0  0
  -30.1100  -26.8442   23.8006 N   0  0  0  0  0  0  0  0  0  0  0  0
  -29.9141  -13.8240   20.2838 N   0  0  0  0  0  0  0  0  0  0  0  0
  -25.3426  -14.9866   19.9414 N   0  0  0  0  0  0  0  0  0  0  0  0
  -21.8691  -12.6821   21.6794 N   0  0  0  0  0  0  0  0  0  0  0  0
  -28.4381  -29.7443   22.5659 N   0  0  0  0  0  0  0  0  0  0  0  0
  -32.2759  -25.8703   26.2128 N   0  0  0  0  0  0  0  0  0  0  0  0
  -29.9562  -16.1099   20.8894 N   0  0  0  0  0  0  0  0  0  0  0  0
  -31.6477  -22.6160   27.6560 N   0  3  0  0  0  0  0  0  0  0  0  0
  -22.5375  -14.7292   20.8911 O   0  0  0  0  0  0  0  0  0  0  0  0
  -30.0148  -28.3241   21.6069 O   0  0  0  0  0  0  0  0  0  0  0  0
  -30.5747  -28.1174   25.6978 O   0  0  0  0  0  0  0  0  0  0  0  0
  -32.4421  -23.7808   25.2211 O   0  0  0  0  0  0  0  0  0  0  0  0
  -31.7528  -15.1613   19.8268 O   0  0  0  0  0  0  0  0  0  0  0  0
  -21.8841   -7.3056   23.1383 O   0  0  0  0  0  0  0  0  0  0  0  0
  -29.1803  -22.6774   19.3479 O   0  0  0  0  0  0  0  0  0  1  0  0
  -18.8168   -8.1119   27.6490 F   0  0  0  0  0  0  0  0  0  0  0  0
  -22.3983   -5.9132   25.4706 F   0  0  0  0  0  0  0  0  0  0  0  0
  1  2  1  0  0  0  0
  1  5  2  0  0  0  0
  2  6  2  0  0  0  0
  3  8  2  0  0  0  0
  3 17  1  0  0  0  0
  4  9  1  0  0  0  0
  4 17  2  0  0  0  0
  5 19  1  0  0  0  0
  6 21  1  0  0  0  0
  7 10  2  0  0  0  0
  7 20  1  0  0  0  0
  8 24  1  0  0  0  0
  9 24  2  0  0  0  0
 10 25  1  0  0  0  0
 11 12  2  0  0  0  0
 11 26  1  0  0  0  0
 12 27  1  0  0  0  0
 13 16  2  0  0  0  0
 13 23  1  0  0  0  0
 14 22  1  0  0  0  0
 14 25  2  0  0  0  0
 15 27  2  0  0  0  0
 15 28  1  0  0  0  0
 16 65  1  0  0  0  0
 17 29  1  0  0  0  0
 18 29  1  0  0  0  0
 18 31  2  0  0  0  0
 18 32  1  0  0  0  0
 19 21  2  0  0  0  0
 19 37  1  0  0  0  0
 20 22  2  0  0  0  0
 20 38  1  0  0  0  0
 21 46  1  0  0  0  0
 22 39  1  0  0  0  0
 23 30  2  0  0  0  0
 23 56  1  0  0  0  0
 24 80  1  0  0  0  0
 25 81  1  0  0  0  0
 26 28  2  0  0  0  0
 26 80  1  0  0  0  0
 27 82  1  0  0  0  0
 28 83  1  0  0  0  0
 29 64  2  0  0  0  0
 30 57  1  0  0  0  0
 30 65  1  0  0  0  0
 31 66  1  0  0  0  0
 31 69  1  0  0  0  0
 32 70  1  0  0  0  0
 32 75  2  0  0  0  0
 33 47  1  0  0  0  0
 33 71  1  0  0  0  0
 33 76  2  0  0  0  0
 34 60  1  0  0  0  0
 34 67  1  0  0  0  0
 34 77  2  0  0  0  0
 35 61  1  0  0  0  0
 35 72  1  0  0  0  0
 35 78  2  0  0  0  0
 36 68  1  0  0  0  0
 36 73  1  0  0  0  0
 36 79  2  0  0  0  0
 37 40  1  0  0  0  0
 38 47  1  0  0  0  0
 39 67  1  0  0  0  0
 40 42  1  0  0  0  0
 41 43  1  0  0  0  0
 41 44  1  0  0  0  0
 42 46  1  0  0  0  0
 43 48  1  0  0  0  0
 44 68  1  0  0  0  0
 45 48  1  0  0  0  0
 45 68  1  0  0  0  0
 46 71  1  0  0  0  0
 47 67  1  0  0  0  0
 48 66  1  0  0  0  0
 49 61  1  0  0  0  0
 50 62  1  0  0  0  0
 51 62  1  0  0  0  0
 52 63  1  0  0  0  0
 53 63  1  0  0  0  0
 54 63  1  0  0  0  0
 55 74  1  0  0  0  0
 56 58  1  0  0  0  0
 57 73  1  0  0  0  0
 58 59  1  0  0  0  0
 59 81  1  0  0  0  0
 60 63  1  0  0  0  0
 60 72  1  0  0  0  0
 61 74  1  0  0  0  0
 62 65  1  0  0  0  0
 64 66  1  0  0  0  0
M  CHG  1  74   1
M  ISO  4  36 100  59 101  73 100  81 101
M  END
> <Batch ID>
0112

> <Smiles>
CNC(C)C(=O)NC(C(=O)N1Cc2cc([101O:1][101CH2:1]CCc3ccn(C(C)C)c3C[100NH:0][100C:0](=O)N3CCCC(n4nc(-c5ccc(Oc6ccc(F)cc6F)cc5)c(C(N)=O)c4N)C3)ccc2CC1C(=O)NC1CCCc2ccccc21)C(C)(C)C

> <Shape>
0.238

> <Color>
0.174

> <Negative vol penalty>
0.000

$$$$

  -OEChem-04052320033D

 86 94  0     1  0  0  0  0  0999 V2000
  -26.3537  -37.2454   23.1948 C   0  0  0  0  0  0  0  0  0  0  0  0
  -27.0298  -36.1578   22.6514 C   0  0  0  0  0  0  0  0  0  0  0  0
  -22.7558  -10.4781   21.7052 C   0  0  0  0  0  0  0  0  0  0  0  0
  -24.6545   -9.0046   21.4592 C   0  0  0  0  0  0  0  0  0  0  0  0
  -25.2990  -37.0365   24.0825 C   0  0  0  0  0  0  0  0  0  0  0  0
  -26.6524  -34.8605   22.9964 C   0  0  0  0  0  0  0  0  0  0  0  0
  -26.7659  -29.9117   19.3906 C   0  0  0  0  0  0  0  0  0  0  0  0
  -21.8941   -9.3878   21.5860 C   0  0  0  0  0  0  0  0  0  0  0  0
  -23.7928   -7.9142   21.3401 C   0  0  0  0  0  0  0  0  0  0  0  0
  -27.6832  -28.8704   19.2554 C   0  0  0  0  0  0  0  0  0  0  0  0
  -21.9665   -5.9487   23.3948 C   0  0  0  0  0  0  0  0  0  0  0  0
  -22.2774   -4.7969   24.1175 C   0  0  0  0  0  0  0  0  0  0  0  0
  -26.3639  -27.5211   20.7580 C   0  0  0  0  0  0  0  0  0  0  0  0
  -22.4158   -3.5418   22.0577 C   0  0  0  0  0  0  0  0  0  0  0  0
  -24.1360  -10.2865   21.6418 C   0  0  0  0  0  0  0  0  0  0  0  0
  -25.5830  -11.9315   22.9487 C   0  0  0  0  0  0  0  0  0  0  0  0
  -24.9022  -35.7358   24.4310 C   0  0  0  0  0  0  0  0  0  0  0  0
  -25.6446  -29.7691   20.2205 C   0  0  0  0  0  0  0  0  0  0  0  0
  -25.5924  -34.6340   23.8906 C   0  0  0  0  0  0  0  0  0  0  0  0
  -25.4325  -28.5611   20.9000 C   0  0  0  0  0  0  0  0  0  0  0  0
  -22.4126   -8.1058   21.4035 C   0  0  0  0  0  0  0  0  0  0  0  0
  -27.4838  -27.6760   19.9414 C   0  0  0  0  0  0  0  0  0  0  0  0
  -21.8801   -5.8970   22.0036 C   0  0  0  0  0  0  0  0  0  0  0  0
  -22.5021   -3.5935   23.4490 C   0  0  0  0  0  0  0  0  0  0  0  0
  -22.1048   -4.6936   21.3350 C   0  0  0  0  0  0  0  0  0  0  0  0
  -25.0266  -11.4126   21.7642 C   0  0  0  0  0  0  0  0  0  0  0  0
  -26.3519  -12.9904   22.5317 C   0  0  0  0  0  0  0  0  0  0  0  0
  -25.4195  -11.4952   24.3047 C   0  0  0  0  0  0  0  0  0  0  0  0
  -24.5841  -31.2409   22.8306 C   0  0  0  0  0  0  0  0  0  0  0  0
  -21.9911  -29.3465   22.3725 C   0  0  0  0  0  0  0  0  0  0  0  0
  -20.6923  -26.4854   21.0406 C   0  0  0  0  0  0  0  0  0  0  0  0
  -26.5431  -17.6076   19.3502 C   0  0  0  0  0  0  0  0  0  0  0  0
  -23.7871  -35.5606   25.4312 C   0  0  0  0  0  0  0  0  0  0  0  0
  -24.6504  -30.8921   20.3346 C   0  0  0  0  0  0  0  0  0  0  0  0
  -24.2340  -28.3503   21.7875 C   0  0  0  0  0  0  0  0  0  0  0  0
  -23.2065  -34.1490   25.4549 C   0  0  0  0  0  0  0  0  0  0  0  0
  -27.7868  -14.4086   17.9002 C   0  0  0  0  0  0  0  0  0  0  0  0
  -24.3249  -33.1120   25.4790 C   0  0  0  0  0  0  0  0  0  0  0  0
  -27.1680  -13.3898   18.8573 C   0  0  0  0  0  0  0  0  0  0  0  0
  -27.6079  -20.4940   17.1639 C   0  0  0  0  0  0  0  0  0  0  0  0
  -26.9195  -15.6564   17.7918 C   0  0  0  0  0  0  0  0  0  0  0  0
  -26.8559  -19.8110   18.2994 C   0  0  0  0  0  0  0  0  0  0  0  0
  -26.0131  -15.3033   20.0614 C   0  0  0  0  0  0  0  0  0  0  0  0
  -28.7541  -18.1837   18.2382 C   0  0  0  0  0  0  0  0  0  0  0  0
  -25.1964  -33.2113   24.2212 C   0  0  1  0  0  0  0  0  0  0  0  0
  -23.8150  -30.8232   21.6093 C   0  0  1  0  0  0  0  0  0  0  0  0
  -29.1282  -20.5586   17.4114 C   0  0  2  0  0  0  0  0  0  0  0  0
  -26.8596  -14.0290   20.2229 C   0  0  1  0  0  0  0  0  0  0  0  0
  -29.5886  -19.4537   18.3810 C   0  0  2  0  0  0  0  0  0  0  0  0
  -18.5501  -25.1903   20.8641 C   0  0  0  0  0  0  0  0  0  0  0  0
  -29.7290  -22.9076   16.7554 C   0  0  0  0  0  0  0  0  0  0  0  0
  -29.9622  -25.8662   21.4524 C   0  0  0  0  0  0  0  0  0  0  0  0
  -22.3257  -28.4048   25.2554 C   0  0  0  0  0  0  0  0  0  0  0  0
  -20.8147  -26.4793   24.7283 C   0  0  0  0  0  0  0  0  0  0  0  0
  -19.9589  -28.8164   24.5604 C   0  0  0  0  0  0  0  0  0  0  0  0
  -20.6710  -26.6990   18.0889 C   0  0  0  0  0  0  0  0  0  0  0  0
  -31.7155  -18.5662   19.3239 C   0  0  0  0  0  0  0  0  0  0  0  0
  -31.1806  -18.2194   16.9168 C   0  0  0  0  0  0  0  0  0  0  0  0
  -28.5760  -22.4826   18.9853 C   0  0  0  0  0  0  0  0  0  0  0  0
  -28.0924  -24.3809   20.5349 C   0  0  0  0  0  0  0  0  0  0  0  0
  -21.5844  -27.9639   22.8218 C   0  0  1  0  0  0  0  0  0  0  0  0
  -19.4437  -26.2354   20.2143 C   0  0  2  0  0  0  0  0  0  0  0  0
  -29.5406  -21.9413   17.9252 C   0  0  1  0  0  0  0  0  0  0  0  0
  -28.5326  -25.7859   20.9331 C   0  0  2  0  0  0  0  0  0  1  0  0
  -21.1946  -27.9205   24.3263 C   0  0  0  0  0  0  0  0  0  0  0  0
  -25.4093  -12.0865   20.6764 N   0  0  0  0  0  0  0  0  0  0  0  0
  -26.2144  -13.0397   21.1756 N   0  0  0  0  0  0  0  0  0  0  0  0
  -23.2938  -29.4801   21.8716 N   0  0  0  0  0  0  0  0  0  0  0  0
  -26.6354  -16.2286   19.1125 N   0  0  0  0  0  0  0  0  0  0  0  0
  -27.3400  -18.4515   18.5567 N   0  0  0  0  0  0  0  0  0  0  0  0
  -27.1253  -13.8750   23.1963 N   0  0  0  0  0  0  0  0  0  0  0  0
  -24.5940  -10.3908   24.5563 N   0  0  0  0  0  0  0  0  0  0  0  0
  -24.5289  -32.5963   23.0940 N   0  0  0  0  0  0  0  0  0  0  0  0
  -20.5229  -27.5364   21.9170 N   0  0  0  0  0  0  0  0  0  0  0  0
  -19.8115  -25.7574   18.8515 N   0  3  0  0  0  0  0  0  0  0  0  0
  -28.9702  -23.8277   19.4669 N   0  3  0  0  0  0  0  0  0  0  0  0
  -31.0159  -19.1231   18.1111 N   0  3  0  0  0  0  0  0  0  0  0  0
  -25.9755  -12.0779   25.2664 O   0  0  0  0  0  0  0  0  0  0  0  0
  -25.1821  -30.3959   23.4864 O   0  0  0  0  0  0  0  0  0  0  0  0
  -21.1803  -30.2724   22.4560 O   0  0  0  0  0  0  0  0  0  0  0  0
  -21.7144  -25.8130   20.9233 O   0  0  0  0  0  0  0  0  0  0  0  0
  -25.8107  -18.0619   20.2388 O   0  0  0  0  0  0  0  0  0  0  0  0
  -21.5721   -7.0415   21.2874 O   0  0  0  0  0  0  0  0  0  0  0  0
  -28.3831  -26.6524   19.8110 O   0  0  0  0  0  0  0  0  0  1  0  0
  -22.8022   -2.4878   24.1430 F   0  0  0  0  0  0  0  0  0  0  0  0
  -22.0244   -4.6380   19.9985 F   0  0  0  0  0  0  0  0  0  0  0  0
  1  2  1  0  0  0  0
  1  5  2  0  0  0  0
  2  6  2  0  0  0  0
  3  8  2  0  0  0  0
  3 15  1  0  0  0  0
  4  9  1  0  0  0  0
  4 15  2  0  0  0  0
  5 17  1  0  0  0  0
  6 19  1  0  0  0  0
  7 10  2  0  0  0  0
  7 18  1  0  0  0  0
  8 21  1  0  0  0  0
  9 21  2  0  0  0  0
 10 22  1  0  0  0  0
 11 12  2  0  0  0  0
 11 23  1  0  0  0  0
 12 24  1  0  0  0  0
 13 20  1  0  0  0  0
 13 22  2  0  0  0  0
 14 24  2  0  0  0  0
 14 25  1  0  0  0  0
 15 26  1  0  0  0  0
 16 26  1  0  0  0  0
 16 27  2  0  0  0  0
 16 28  1  0  0  0  0
 17 19  2  0  0  0  0
 17 33  1  0  0  0  0
 18 20  2  0  0  0  0
 18 34  1  0  0  0  0
 19 45  1  0  0  0  0
 20 35  1  0  0  0  0
 21 83  1  0  0  0  0
 22 84  1  0  0  0  0
 23 25  2  0  0  0  0
 23 83  1  0  0  0  0
 24 85  1  0  0  0  0
 25 86  1  0  0  0  0
 26 66  2  0  0  0  0
 27 67  1  0  0  0  0
 27 71  1  0  0  0  0
 28 72  1  0  0  0  0
 28 78  2  0  0  0  0
 29 46  1  0  0  0  0
 29 73  1  0  0  0  0
 29 79  2  0  0  0  0
 30 61  1  0  0  0  0
 30 68  1  0  0  0  0
 30 80  2  0  0  0  0
 31 62  1  0  0  0  0
 31 74  1  0  0  0  0
 31 81  2  0  0  0  0
 32 69  1  0  0  0  0
 32 70  1  0  0  0  0
 32 82  2  0  0  0  0
 33 36  1  0  0  0  0
 34 46  1  0  0  0  0
 35 68  1  0  0  0  0
 36 38  1  0  0  0  0
 37 39  1  0  0  0  0
 37 41  1  0  0  0  0
 38 45  1  0  0  0  0
 39 48  1  0  0  0  0
 40 42  1  0  0  0  0
 40 47  1  0  0  0  0
 41 69  1  0  0  0  0
 42 70  1  0  0  0  0
 43 48  1  0  0  0  0
 43 69  1  0  0  0  0
 44 49  1  0  0  0  0
 44 70  1  0  0  0  0
 45 73  1  0  0  0  0
 46 68  1  0  0  0  0
 47 49  1  0  0  0  0
 47 63  1  0  0  0  0
 48 67  1  0  0  0  0
 49 77  1  0  0  0  0
 50 62  1  0  0  0  0
 51 63  1  0  0  0  0
 52 64  1  0  0  0  0
 53 65  1  0  0  0  0
 54 65  1  0  0  0  0
 55 65  1  0  0  0  0
 56 75  1  0  0  0  0
 57 77  1  0  0  0  0
 58 77  1  0  0  0  0
 59 63  1  0  0  0  0
 59 76  1  0  0  0  0
 60 64  1  0  0  0  0
 60 76  1  0  0  0  0
 61 65  1  0  0  0  0
 61 74  1  0  0  0  0
 62 75  1  0  0  0  0
 64 84  1  0  0  0  0
 66 67  1  0  0  0  0
M  CHG  3  75   1  76   1  77   1
M  ISO  4  32 100  64 101  70 100  84 101
M  END
> <Batch ID>
0112

> <Smiles>
CNC(C)C(=O)NC(C(=O)N1Cc2cc([101O:1][101CH:1](C)CNCC(C)C3CC[100N:0]([100C:0](=O)N4CCCC(n5nc(-c6ccc(Oc7ccc(F)cc7F)cc6)c(C(N)=O)c5N)C4)CC3N(C)C)ccc2CC1C(=O)NC1CCCc2ccccc21)C(C)(C)C

> <Shape>
0.329

> <Color>
0.101

> <Negative vol penalty>
0.000

$$$$

  -OEChem-04052320033D

 84 92  0     1  0  0  0  0  0999 V2000
  -21.7160  -11.6199   19.7714 C   0  0  0  0  0  0  0  0  0  0  0  0
  -21.6152  -12.7282   20.6063 C   0  0  0  0  0  0  0  0  0  0  0  0
  -26.0734  -29.7650   21.2454 C   0  0  0  0  0  0  0  0  0  0  0  0
  -24.8505  -27.9042   20.3077 C   0  0  0  0  0  0  0  0  0  0  0  0
  -22.9709  -11.1152   19.4332 C   0  0  0  0  0  0  0  0  0  0  0  0
  -22.7693  -13.3317   21.1044 C   0  0  0  0  0  0  0  0  0  0  0  0
  -22.6087  -18.3837   20.7936 C   0  0  0  0  0  0  0  0  0  0  0  0
  -27.2051  -29.3849   20.5240 C   0  0  0  0  0  0  0  0  0  0  0  0
  -25.9822  -27.5241   19.5862 C   0  0  0  0  0  0  0  0  0  0  0  0
  -21.8519  -19.0568   21.7517 C   0  0  0  0  0  0  0  0  0  0  0  0
  -29.6552  -27.0697   20.7721 C   0  0  0  0  0  0  0  0  0  0  0  0
  -30.8780  -27.0614   21.4430 C   0  0  0  0  0  0  0  0  0  0  0  0
  -19.6979  -22.6284   27.5663 C   0  0  0  0  0  0  0  0  0  0  0  0
  -23.8667  -19.5656   22.9770 C   0  0  0  0  0  0  0  0  0  0  0  0
  -31.7472  -28.6850   19.8791 C   0  0  0  0  0  0  0  0  0  0  0  0
  -20.3438  -21.4263   27.8064 C   0  0  0  0  0  0  0  0  0  0  0  0
  -24.8962  -29.0246   21.1374 C   0  0  0  0  0  0  0  0  0  0  0  0
  -20.8785  -22.7371   25.4737 C   0  0  0  0  0  0  0  0  0  0  0  0
  -22.7087  -30.2950   21.4670 C   0  0  0  0  0  0  0  0  0  0  0  0
  -24.1413  -11.7188   19.9196 C   0  0  0  0  0  0  0  0  0  0  0  0
  -24.0014  -18.2870   20.9259 C   0  0  0  0  0  0  0  0  0  0  0  0
  -24.0411  -12.8338   20.7734 C   0  0  0  0  0  0  0  0  0  0  0  0
  -24.6391  -18.8929   22.0178 C   0  0  0  0  0  0  0  0  0  0  0  0
  -19.9760  -23.2900   26.3754 C   0  0  0  0  0  0  0  0  0  0  0  0
  -27.1595  -28.2645   19.6943 C   0  0  0  0  0  0  0  0  0  0  0  0
  -22.4806  -19.6454   22.8451 C   0  0  0  0  0  0  0  0  0  0  0  0
  -29.4783  -27.8856   19.6546 C   0  0  0  0  0  0  0  0  0  0  0  0
  -31.9240  -27.8690   20.9966 C   0  0  0  0  0  0  0  0  0  0  0  0
  -30.5243  -28.6933   19.2081 C   0  0  0  0  0  0  0  0  0  0  0  0
  -23.7270  -29.4164   21.8828 C   0  0  0  0  0  0  0  0  0  0  0  0
  -21.4717  -21.5303   25.8076 C   0  0  0  0  0  0  0  0  0  0  0  0
  -21.8353  -30.3341   22.5263 C   0  0  0  0  0  0  0  0  0  0  0  0
  -21.1900  -23.4100   24.2189 C   0  0  0  0  0  0  0  0  0  0  0  0
  -22.5650  -31.0116   20.2335 C   0  0  0  0  0  0  0  0  0  0  0  0
  -26.0621  -15.8893   21.2551 C   0  0  0  0  0  0  0  0  0  0  0  0
  -28.2622  -18.2560   20.9711 C   0  0  0  0  0  0  0  0  0  0  0  0
  -29.0077  -21.5716   21.2845 C   0  0  0  0  0  0  0  0  0  0  0  0
  -20.6259  -26.4935   26.9577 C   0  0  0  0  0  0  0  0  0  0  0  0
  -25.4741  -11.1087   19.5646 C   0  0  0  0  0  0  0  0  0  0  0  0
  -24.8062  -17.5804   19.8698 C   0  0  0  0  0  0  0  0  0  0  0  0
  -26.1336  -18.8350   22.1955 C   0  0  0  0  0  0  0  0  0  0  0  0
  -26.6582  -12.0342   19.8323 C   0  0  0  0  0  0  0  0  0  0  0  0
  -21.6994  -29.8722   27.2865 C   0  0  0  0  0  0  0  0  0  0  0  0
  -26.5363  -12.6713   21.2129 C   0  0  0  0  0  0  0  0  0  0  0  0
  -22.2489  -30.2178   25.9013 C   0  0  0  0  0  0  0  0  0  0  0  0
  -22.0034  -28.4255   27.6693 C   0  0  0  0  0  0  0  0  0  0  0  0
  -22.1173  -27.7648   25.2977 C   0  0  0  0  0  0  0  0  0  0  0  0
  -25.2706  -13.5312   21.3138 C   0  0  1  0  0  0  0  0  0  0  0  0
  -26.1643  -17.1020   20.3738 C   0  0  1  0  0  0  0  0  0  0  0  0
  -21.7868  -29.1971   24.8441 C   0  0  2  0  0  0  0  0  0  0  0  0
  -19.8107  -24.4091   22.3588 C   0  0  0  0  0  0  0  0  0  0  0  0
  -30.8985  -23.1995   21.0157 C   0  0  0  0  0  0  0  0  0  0  0  0
  -29.4899  -17.2570   23.5797 C   0  0  0  0  0  0  0  0  0  0  0  0
  -30.7242  -19.4286   23.7492 C   0  0  0  0  0  0  0  0  0  0  0  0
  -31.1508  -17.9005   21.8242 C   0  0  0  0  0  0  0  0  0  0  0  0
  -27.5470  -23.1051   19.2172 C   0  0  0  0  0  0  0  0  0  0  0  0
  -19.2932  -24.5875   26.0913 C   0  0  0  0  0  0  0  0  0  0  0  0
  -22.4534  -20.8819   24.8764 C   0  0  0  0  0  0  0  0  0  1  0  0
  -20.3709  -23.1258   22.9522 C   0  0  1  0  0  0  0  0  0  0  0  0
  -28.9715  -19.1775   21.9337 C   0  0  1  0  0  0  0  0  0  0  0  0
  -29.7028  -22.5408   20.3454 C   0  0  2  0  0  0  0  0  0  0  0  0
  -30.0557  -18.4405   22.7697 C   0  0  0  0  0  0  0  0  0  0  0  0
  -21.2266  -20.8581   26.9548 N   0  0  0  0  0  0  0  0  0  0  0  0
  -23.5210  -28.9325   23.1105 N   0  0  0  0  0  0  0  0  0  0  0  0
  -22.3632  -29.5090   23.4754 N   0  0  0  0  0  0  0  0  0  0  0  0
  -26.8763  -18.1274   21.1394 N   0  0  0  0  0  0  0  0  0  0  0  0
  -21.5385  -27.5083   26.6259 N   0  0  0  0  0  0  0  0  0  0  0  0
  -20.6749  -30.9935   22.7292 N   0  0  0  0  0  0  0  0  0  0  0  0
  -23.5537  -30.8574   19.2522 N   0  0  0  0  0  0  0  0  0  0  0  0
  -25.4673  -14.8004   20.6469 N   0  0  0  0  0  0  0  0  0  0  0  0
  -29.4836  -20.2860   21.1354 N   0  0  0  0  0  0  0  0  0  0  0  0
  -20.2319  -25.6721   25.9085 N   0  0  0  0  0  0  0  0  0  0  0  0
  -21.2289  -22.4798   21.9110 N   0  3  0  0  0  0  0  0  0  0  0  0
  -28.7589  -23.6098   19.9127 N   0  3  0  0  0  0  0  0  0  0  0  0
  -22.1152  -24.2359   24.1449 O   0  0  0  0  0  0  0  0  0  0  0  0
  -21.5973  -31.7791   20.0147 O   0  0  0  0  0  0  0  0  0  0  0  0
  -26.4925  -15.9375   22.4015 O   0  0  0  0  0  0  0  0  0  0  0  0
  -28.9128  -17.6774   20.0972 O   0  0  0  0  0  0  0  0  0  0  0  0
  -28.1329  -21.9206   22.0740 O   0  0  0  0  0  0  0  0  0  0  0  0
  -20.1901  -26.3346   28.1031 O   0  0  0  0  0  0  0  0  0  0  0  0
  -28.2634  -27.8934   18.9900 O   0  0  0  0  0  0  0  0  0  0  0  0
  -21.7442  -20.3025   23.7821 O   0  0  0  0  0  0  0  0  0  1  0  0
  -33.0978  -27.8620   21.6419 F   0  0  0  0  0  0  0  0  0  0  0  0
  -30.3600  -29.4801   18.1359 F   0  0  0  0  0  0  0  0  0  0  0  0
  1  2  1  0  0  0  0
  1  5  2  0  0  0  0
  2  6  2  0  0  0  0
  3  8  2  0  0  0  0
  3 17  1  0  0  0  0
  4  9  1  0  0  0  0
  4 17  2  0  0  0  0
  5 20  1  0  0  0  0
  6 22  1  0  0  0  0
  7 10  2  0  0  0  0
  7 21  1  0  0  0  0
  8 25  1  0  0  0  0
  9 25  2  0  0  0  0
 10 26  1  0  0  0  0
 11 12  2  0  0  0  0
 11 27  1  0  0  0  0
 12 28  1  0  0  0  0
 13 16  1  0  0  0  0
 13 24  2  0  0  0  0
 14 23  1  0  0  0  0
 14 26  2  0  0  0  0
 15 28  2  0  0  0  0
 15 29  1  0  0  0  0
 16 63  2  0  0  0  0
 17 30  1  0  0  0  0
 18 24  1  0  0  0  0
 18 31  2  0  0  0  0
 18 33  1  0  0  0  0
 19 30  1  0  0  0  0
 19 32  2  0  0  0  0
 19 34  1  0  0  0  0
 20 22  2  0  0  0  0
 20 39  1  0  0  0  0
 21 23  2  0  0  0  0
 21 40  1  0  0  0  0
 22 48  1  0  0  0  0
 23 41  1  0  0  0  0
 24 57  1  0  0  0  0
 25 81  1  0  0  0  0
 26 82  1  0  0  0  0
 27 29  2  0  0  0  0
 27 81  1  0  0  0  0
 28 83  1  0  0  0  0
 29 84  1  0  0  0  0
 30 64  2  0  0  0  0
 31 58  1  0  0  0  0
 31 63  1  0  0  0  0
 32 65  1  0  0  0  0
 32 68  1  0  0  0  0
 33 59  1  0  0  0  0
 33 75  2  0  0  0  0
 34 69  1  0  0  0  0
 34 76  2  0  0  0  0
 35 49  1  0  0  0  0
 35 70  1  0  0  0  0
 35 77  2  0  0  0  0
 36 60  1  0  0  0  0
 36 66  1  0  0  0  0
 36 78  2  0  0  0  0
 37 61  1  0  0  0  0
 37 71  1  0  0  0  0
 37 79  2  0  0  0  0
 38 67  1  0  0  0  0
 38 72  1  0  0  0  0
 38 80  2  0  0  0  0
 39 42  1  0  0  0  0
 40 49  1  0  0  0  0
 41 66  1  0  0  0  0
 42 44  1  0  0  0  0
 43 45  1  0  0  0  0
 43 46  1  0  0  0  0
 44 48  1  0  0  0  0
 45 50  1  0  0  0  0
 46 67  1  0  0  0  0
 47 50  1  0  0  0  0
 47 67  1  0  0  0  0
 48 70  1  0  0  0  0
 49 66  1  0  0  0  0
 50 65  1  0  0  0  0
 51 59  1  0  0  0  0
 52 61  1  0  0  0  0
 53 62  1  0  0  0  0
 54 62  1  0  0  0  0
 55 62  1  0  0  0  0
 56 74  1  0  0  0  0
 57 72  1  0  0  0  0
 58 82  1  0  0  0  0
 59 73  1  0  0  0  0
 60 62  1  0  0  0  0
 60 71  1  0  0  0  0
 61 74  1  0  0  0  0
 64 65  1  0  0  0  0
M  CHG  2  73   1  74   1
M  ISO  4  38 100  58 101  72 100  82 101
M  END
> <Batch ID>
0112

> <Smiles>
CNC(C)C(=O)NC(C(=O)N1Cc2cc([101O:1][101CH2:1]c3nccc(C[100NH:0][100C:0](=O)N4CCCC(n5nc(-c6ccc(Oc7ccc(F)cc7F)cc6)c(C(N)=O)c5N)C4)c3C(=O)C(C)N)ccc2CC1C(=O)NC1CCCc2ccccc21)C(C)(C)C

> <Shape>
0.202

> <Color>
0.067

> <Negative vol penalty>
0.000

$$$$

  -OEChem-04052320033D

 87 95  0     1  0  0  0  0  0999 V2000
  -29.6840  -13.7798   18.1209 C   0  0  0  0  0  0  0  0  0  0  0  0
  -29.0941  -15.0394   18.1463 C   0  0  0  0  0  0  0  0  0  0  0  0
  -30.2448  -21.4506   21.2508 C   0  0  0  0  0  0  0  0  0  0  0  0
  -28.3577  -21.1080   19.7816 C   0  0  0  0  0  0  0  0  0  0  0  0
  -28.9245  -12.6495   18.4204 C   0  0  0  0  0  0  0  0  0  0  0  0
  -27.7440  -15.1695   18.4701 C   0  0  0  0  0  0  0  0  0  0  0  0
  -25.1231  -19.7693   21.5488 C   0  0  0  0  0  0  0  0  0  0  0  0
  -30.5818  -20.1023   21.1325 C   0  0  0  0  0  0  0  0  0  0  0  0
  -28.6948  -19.7596   19.6632 C   0  0  0  0  0  0  0  0  0  0  0  0
  -24.4218  -20.8990   21.1297 C   0  0  0  0  0  0  0  0  0  0  0  0
  -31.7293  -16.6716   21.5031 C   0  0  0  0  0  0  0  0  0  0  0  0
  -32.0665  -15.9813   22.6673 C   0  0  0  0  0  0  0  0  0  0  0  0
  -22.3413  -19.7266   21.4706 C   0  0  0  0  0  0  0  0  0  0  0  0
  -29.8833  -16.4608   23.5841 C   0  0  0  0  0  0  0  0  0  0  0  0
  -21.5499  -27.2879   19.5140 C   0  0  0  0  0  0  0  0  0  0  0  0
  -29.1327  -21.9535   20.5754 C   0  0  0  0  0  0  0  0  0  0  0  0
  -29.2240  -24.4074   19.8844 C   0  0  0  0  0  0  0  0  0  0  0  0
  -27.5669  -12.7666   18.7575 C   0  0  0  0  0  0  0  0  0  0  0  0
  -24.4380  -18.6042   21.9222 C   0  0  0  0  0  0  0  0  0  0  0  0
  -26.9654  -14.0396   18.7731 C   0  0  0  0  0  0  0  0  0  0  0  0
  -23.0362  -18.5843   21.8965 C   0  0  0  0  0  0  0  0  0  0  0  0
  -20.3874  -26.7432   20.0131 C   0  0  0  0  0  0  0  0  0  0  0  0
  -19.7064  -27.7690   20.7138 C   0  0  0  0  0  0  0  0  0  0  0  0
  -29.8068  -19.2568   20.3387 C   0  0  0  0  0  0  0  0  0  0  0  0
  -23.0308  -20.8769   21.0878 C   0  0  0  0  0  0  0  0  0  0  0  0
  -30.4691  -17.2567   21.3795 C   0  0  0  0  0  0  0  0  0  0  0  0
  -31.1435  -15.8758   23.7078 C   0  0  0  0  0  0  0  0  0  0  0  0
  -29.5461  -17.1512   22.4199 C   0  0  0  0  0  0  0  0  0  0  0  0
  -28.7837  -23.3461   20.6978 C   0  0  0  0  0  0  0  0  0  0  0  0
  -20.4733  -28.9094   20.6213 C   0  0  0  0  0  0  0  0  0  0  0  0
  -28.6121  -25.5192   20.4097 C   0  0  0  0  0  0  0  0  0  0  0  0
  -30.1071  -24.3898   18.7550 C   0  0  0  0  0  0  0  0  0  0  0  0
  -24.3425  -15.6153   20.8446 C   0  0  0  0  0  0  0  0  0  0  0  0
  -22.4986  -15.1402   23.4706 C   0  0  0  0  0  0  0  0  0  0  0  0
  -20.4202  -16.4671   25.8300 C   0  0  0  0  0  0  0  0  0  0  0  0
  -24.0995  -28.0720   22.4750 C   0  0  0  0  0  0  0  0  0  0  0  0
  -26.7751  -11.5117   19.0276 C   0  0  0  0  0  0  0  0  0  0  0  0
  -25.2082  -17.4028   22.3974 C   0  0  0  0  0  0  0  0  0  0  0  0
  -22.2527  -17.3650   22.3065 C   0  0  0  0  0  0  0  0  0  0  0  0
  -25.4428  -11.7707   19.7264 C   0  0  0  0  0  0  0  0  0  0  0  0
  -26.0602  -26.1394   24.7328 C   0  0  0  0  0  0  0  0  0  0  0  0
  -24.7027  -12.9230   19.0546 C   0  0  0  0  0  0  0  0  0  0  0  0
  -26.9749  -25.3239   23.8173 C   0  0  0  0  0  0  0  0  0  0  0  0
  -24.6693  -26.3170   24.1279 C   0  0  0  0  0  0  0  0  0  0  0  0
  -25.5690  -26.0611   21.8478 C   0  0  0  0  0  0  0  0  0  0  0  0
  -25.5098  -14.2238   19.1440 C   0  0  1  0  0  0  0  0  0  0  0  0
  -24.4254  -16.1001   22.2643 C   0  0  1  0  0  0  0  0  0  0  0  0
  -26.9999  -25.9027   22.3898 C   0  0  2  0  0  0  0  0  0  0  0  0
  -18.4122  -27.6418   21.4152 C   0  0  0  0  0  0  0  0  0  0  0  0
  -19.1044  -25.1080   18.5734 C   0  0  0  0  0  0  0  0  0  0  0  0
  -20.1770  -30.2890   22.7100 C   0  0  0  0  0  0  0  0  0  0  0  0
  -18.9678  -30.9310   20.5932 C   0  0  0  0  0  0  0  0  0  0  0  0
  -19.0383  -15.8243   27.8236 C   0  0  0  0  0  0  0  0  0  0  0  0
  -20.3909  -13.9398   21.6196 C   0  0  0  0  0  0  0  0  0  0  0  0
  -18.7211  -14.1994   23.4669 C   0  0  0  0  0  0  0  0  0  0  0  0
  -20.7023  -12.7160   23.7782 C   0  0  0  0  0  0  0  0  0  0  0  0
  -21.9742  -18.2360   27.6230 C   0  0  0  0  0  0  0  0  0  0  0  0
  -22.6611  -29.5197   19.5556 C   0  0  0  0  0  0  0  0  0  0  0  0
  -23.6280  -29.7550   20.7132 C   0  0  0  0  0  0  0  0  0  0  0  0
  -21.8626  -24.3025   21.0623 C   0  0  0  0  0  0  0  0  0  0  0  0
  -22.9437  -23.2482   20.9293 C   0  0  0  0  0  0  0  0  0  1  0  0
  -19.9331  -25.3123   19.8391 C   0  0  1  0  0  0  0  0  0  0  0  0
  -20.2387  -30.2635   21.1659 C   0  0  0  0  0  0  0  0  0  0  0  0
  -21.0211  -15.2240   23.7689 C   0  0  1  0  0  0  0  0  0  0  0  0
  -20.3908  -16.3250   27.3410 C   0  0  2  0  0  0  0  0  0  0  0  0
  -20.2233  -14.0423   23.1487 C   0  0  0  0  0  0  0  0  0  0  0  0
  -27.9561  -23.7476   21.6662 N   0  0  0  0  0  0  0  0  0  0  0  0
  -21.5914  -28.6052   19.8896 N   0  0  0  0  0  0  0  0  0  0  0  0
  -27.8716  -25.0736   21.4648 N   0  0  0  0  0  0  0  0  0  0  0  0
  -23.0514  -16.2135   22.7577 N   0  0  0  0  0  0  0  0  0  0  0  0
  -24.7632  -26.8709   22.7750 N   0  0  0  0  0  0  0  0  0  0  0  0
  -28.6406  -26.8247   20.0674 N   0  0  0  0  0  0  0  0  0  0  0  0
  -30.6475  -23.1622   18.3485 N   0  0  0  0  0  0  0  0  0  0  0  0
  -25.3930  -14.8013   20.4658 N   0  0  0  0  0  0  0  0  0  0  0  0
  -20.9027  -15.3290   25.2192 N   0  0  0  0  0  0  0  0  0  0  0  0
  -24.2456  -28.5306   21.1716 N   0  0  0  0  0  0  0  0  0  0  0  0
  -20.6647  -17.6381   27.9903 N   0  3  0  0  0  0  0  0  0  0  0  0
  -21.0671  -24.3494   19.8096 N   0  3  0  0  0  0  0  0  0  0  0  0
  -30.4210  -25.4342   18.1351 O   0  0  0  0  0  0  0  0  0  0  0  0
  -23.3949  -15.9534   20.1450 O   0  0  0  0  0  0  0  0  0  0  0  0
  -23.1400  -14.1621   23.8622 O   0  0  0  0  0  0  0  0  0  0  0  0
  -20.0485  -17.4846   25.2493 O   0  0  0  0  0  0  0  0  0  0  0  0
  -23.4310  -28.6926   23.3086 O   0  0  0  0  0  0  0  0  0  0  0  0
  -30.1355  -17.9411   20.2227 O   0  0  0  0  0  0  0  0  0  0  0  0
  -22.3438  -21.9780   20.6784 O   0  0  0  0  0  0  0  0  0  1  0  0
  -31.4669  -15.2115   24.8250 F   0  0  0  0  0  0  0  0  0  0  0  0
  -28.3334  -17.7102   22.3064 F   0  0  0  0  0  0  0  0  0  0  0  0
  1  2  1  0  0  0  0
  1  5  2  0  0  0  0
  2  6  2  0  0  0  0
  3  8  2  0  0  0  0
  3 16  1  0  0  0  0
  4  9  1  0  0  0  0
  4 16  2  0  0  0  0
  5 18  1  0  0  0  0
  6 20  1  0  0  0  0
  7 10  2  0  0  0  0
  7 19  1  0  0  0  0
  8 24  1  0  0  0  0
  9 24  2  0  0  0  0
 10 25  1  0  0  0  0
 11 12  2  0  0  0  0
 11 26  1  0  0  0  0
 12 27  1  0  0  0  0
 13 21  1  0  0  0  0
 13 25  2  0  0  0  0
 14 27  2  0  0  0  0
 14 28  1  0  0  0  0
 15 22  2  0  0  0  0
 15 68  1  0  0  0  0
 16 29  1  0  0  0  0
 17 29  1  0  0  0  0
 17 31  2  0  0  0  0
 17 32  1  0  0  0  0
 18 20  2  0  0  0  0
 18 37  1  0  0  0  0
 19 21  2  0  0  0  0
 19 38  1  0  0  0  0
 20 46  1  0  0  0  0
 21 39  1  0  0  0  0
 22 23  1  0  0  0  0
 22 62  1  0  0  0  0
 23 30  2  0  0  0  0
 23 49  1  0  0  0  0
 24 84  1  0  0  0  0
 25 85  1  0  0  0  0
 26 28  2  0  0  0  0
 26 84  1  0  0  0  0
 27 86  1  0  0  0  0
 28 87  1  0  0  0  0
 29 67  2  0  0  0  0
 30 63  1  0  0  0  0
 30 68  1  0  0  0  0
 31 69  1  0  0  0  0
 31 72  1  0  0  0  0
 32 73  1  0  0  0  0
 32 79  2  0  0  0  0
 33 47  1  0  0  0  0
 33 74  1  0  0  0  0
 33 80  2  0  0  0  0
 34 64  1  0  0  0  0
 34 70  1  0  0  0  0
 34 81  2  0  0  0  0
 35 65  1  0  0  0  0
 35 75  1  0  0  0  0
 35 82  2  0  0  0  0
 36 71  1  0  0  0  0
 36 76  1  0  0  0  0
 36 83  2  0  0  0  0
 37 40  1  0  0  0  0
 38 47  1  0  0  0  0
 39 70  1  0  0  0  0
 40 42  1  0  0  0  0
 41 43  1  0  0  0  0
 41 44  1  0  0  0  0
 42 46  1  0  0  0  0
 43 48  1  0  0  0  0
 44 71  1  0  0  0  0
 45 48  1  0  0  0  0
 45 71  1  0  0  0  0
 46 74  1  0  0  0  0
 47 70  1  0  0  0  0
 48 69  1  0  0  0  0
 50 62  1  0  0  0  0
 51 63  1  0  0  0  0
 52 63  1  0  0  0  0
 53 65  1  0  0  0  0
 54 66  1  0  0  0  0
 55 66  1  0  0  0  0
 56 66  1  0  0  0  0
 57 77  1  0  0  0  0
 58 59  1  0  0  0  0
 58 68  1  0  0  0  0
 59 76  1  0  0  0  0
 60 61  1  0  0  0  0
 60 78  1  0  0  0  0
 61 85  1  0  0  0  0
 62 78  1  0  0  0  0
 64 66  1  0  0  0  0
 64 75  1  0  0  0  0
 65 77  1  0  0  0  0
 67 69  1  0  0  0  0
M  CHG  2  77   1  78   1
M  ISO  4  36 100  61 101  76 100  85 101
M  END
> <Batch ID>
0112

> <Smiles>
CNC(C)C(=O)NC(C(=O)N1Cc2cc([101O:1][101CH2:1]CNC(C)c3cn(CC[100NH:0][100C:0](=O)N4CCCC(n5nc(-c6ccc(Oc7ccc(F)cc7F)cc6)c(C(N)=O)c5N)C4)c(C(C)C)c3C)ccc2CC1C(=O)NC1CCCc2ccccc21)C(C)(C)C

> <Shape>
0.200

> <Color>
0.073

> <Negative vol penalty>
0.000

$$$$

  -OEChem-04052320033D

 84 92  0     1  0  0  0  0  0999 V2000
  -30.4986  -24.3929   17.1705 C   0  0  0  0  0  0  0  0  0  0  0  0
  -31.1388  -23.1975   17.4814 C   0  0  0  0  0  0  0  0  0  0  0  0
  -23.1932   -9.8168   19.9318 C   0  0  0  0  0  0  0  0  0  0  0  0
  -23.5728   -9.9983   22.3109 C   0  0  0  0  0  0  0  0  0  0  0  0
  -30.3617  -25.3825   18.1430 C   0  0  0  0  0  0  0  0  0  0  0  0
  -31.6434  -22.9915   18.7649 C   0  0  0  0  0  0  0  0  0  0  0  0
  -31.8519  -17.6950   21.8325 C   0  0  0  0  0  0  0  0  0  0  0  0
  -31.3736  -13.3193   26.4286 C   0  0  0  0  0  0  0  0  0  0  0  0
  -22.4293   -8.6687   20.1413 C   0  0  0  0  0  0  0  0  0  0  0  0
  -22.8089   -8.8502   22.5204 C   0  0  0  0  0  0  0  0  0  0  0  0
  -32.8711  -16.7642   22.0288 C   0  0  0  0  0  0  0  0  0  0  0  0
  -23.2162   -5.5042   22.2565 C   0  0  0  0  0  0  0  0  0  0  0  0
  -23.7171   -4.5440   23.1355 C   0  0  0  0  0  0  0  0  0  0  0  0
  -30.6532  -13.0282   25.2755 C   0  0  0  0  0  0  0  0  0  0  0  0
  -33.4016  -17.7996   24.1420 C   0  0  0  0  0  0  0  0  0  0  0  0
  -21.7610   -4.8004   24.5302 C   0  0  0  0  0  0  0  0  0  0  0  0
  -23.7650  -10.4816   21.0167 C   0  0  0  0  0  0  0  0  0  0  0  0
  -24.0987  -12.9989   20.7723 C   0  0  0  0  0  0  0  0  0  0  0  0
  -30.8564  -25.1846   19.4418 C   0  0  0  0  0  0  0  0  0  0  0  0
  -31.6065  -18.6935   22.7861 C   0  0  0  0  0  0  0  0  0  0  0  0
  -31.5142  -23.9799   19.7554 C   0  0  0  0  0  0  0  0  0  0  0  0
  -32.3770  -18.7403   23.9567 C   0  0  0  0  0  0  0  0  0  0  0  0
  -32.7183  -13.6600   26.3341 C   0  0  0  0  0  0  0  0  0  0  0  0
  -22.2371   -8.1854   21.4356 C   0  0  0  0  0  0  0  0  0  0  0  0
  -33.6480  -16.8182   23.1823 C   0  0  0  0  0  0  0  0  0  0  0  0
  -21.9878   -6.1127   22.5144 C   0  0  0  0  0  0  0  0  0  0  0  0
  -22.9895   -4.1921   24.2723 C   0  0  0  0  0  0  0  0  0  0  0  0
  -21.2602   -5.7607   23.6512 C   0  0  0  0  0  0  0  0  0  0  0  0
  -24.5547  -11.6673   20.8009 C   0  0  0  0  0  0  0  0  0  0  0  0
  -33.2913  -13.6952   25.0731 C   0  0  0  0  0  0  0  0  0  0  0  0
  -31.3186  -13.0918   24.0619 C   0  0  0  0  0  0  0  0  0  0  0  0
  -25.2283  -13.7436   20.5361 C   0  0  0  0  0  0  0  0  0  0  0  0
  -22.7726  -13.5162   20.9440 C   0  0  0  0  0  0  0  0  0  0  0  0
  -31.7045  -21.8707   22.7832 C   0  0  0  0  0  0  0  0  0  0  0  0
  -30.4752  -21.5228   25.7648 C   0  0  0  0  0  0  0  0  0  0  0  0
  -30.0749  -19.5516   28.5218 C   0  0  0  0  0  0  0  0  0  0  0  0
  -31.0353  -12.7944   21.5764 C   0  0  0  0  0  0  0  0  0  0  0  0
  -30.7266  -26.3023   20.4461 C   0  0  0  0  0  0  0  0  0  0  0  0
  -30.4859  -19.6737   22.5720 C   0  0  0  0  0  0  0  0  0  0  0  0
  -32.1407  -19.7801   25.0205 C   0  0  0  0  0  0  0  0  0  0  0  0
  -30.9577  -25.8559   21.8875 C   0  0  0  0  0  0  0  0  0  0  0  0
  -29.5193  -13.4726   18.4270 C   0  0  0  0  0  0  0  0  0  0  0  0
  -32.2055  -24.9836   21.9826 C   0  0  0  0  0  0  0  0  0  0  0  0
  -28.0319  -13.2137   18.6774 C   0  0  0  0  0  0  0  0  0  0  0  0
  -30.4029  -12.4894   19.1927 C   0  0  0  0  0  0  0  0  0  0  0  0
  -28.6449  -12.1448   20.8839 C   0  0  0  0  0  0  0  0  0  0  0  0
  -32.0530  -23.7092   21.1434 C   0  0  1  0  0  0  0  0  0  0  0  0
  -30.6597  -20.9632   23.3685 C   0  0  1  0  0  0  0  0  0  0  0  0
  -27.7166  -13.1514   20.1848 C   0  0  2  0  0  0  0  0  0  0  0  0
  -29.0552  -19.5551   30.8148 C   0  0  0  0  0  0  0  0  0  0  0  0
  -36.3987  -15.9580   25.0050 C   0  0  0  0  0  0  0  0  0  0  0  0
  -34.1502  -12.7259   28.1606 C   0  0  0  0  0  0  0  0  0  0  0  0
  -32.7604  -23.2737   26.7757 C   0  0  0  0  0  0  0  0  0  0  0  0
  -32.2579  -22.4707   29.0932 C   0  0  0  0  0  0  0  0  0  0  0  0
  -30.5388  -23.7530   27.8192 C   0  0  0  0  0  0  0  0  0  0  0  0
  -28.2888  -17.2871   27.8576 C   0  0  0  0  0  0  0  0  0  0  0  0
  -34.7486  -14.0577   24.9104 C   0  0  0  0  0  0  0  0  0  0  0  0
  -31.0563  -21.3706   27.1498 C   0  0  1  0  0  0  0  0  0  0  0  0
  -28.8473  -19.2123   29.3478 C   0  0  2  0  0  0  0  0  0  0  0  0
  -34.9537  -15.5650   24.7253 C   0  0  2  0  0  0  0  0  0  1  0  0
  -33.4963  -13.9716   27.5653 C   0  0  0  0  0  0  0  0  0  0  0  0
  -31.6594  -22.6985   27.6887 C   0  0  0  0  0  0  0  0  0  0  0  0
  -25.8713  -11.5687   20.5988 N   0  0  0  0  0  0  0  0  0  0  0  0
  -32.6237  -13.4189   23.9304 N   0  0  0  0  0  0  0  0  0  0  0  0
  -26.2523  -12.8478   20.4409 N   0  0  0  0  0  0  0  0  0  0  0  0
  -31.0375  -20.7201   24.7622 N   0  0  0  0  0  0  0  0  0  0  0  0
  -30.0501  -12.4875   20.6141 N   0  0  0  0  0  0  0  0  0  0  0  0
  -25.4356  -15.0709   20.4025 N   0  0  0  0  0  0  0  0  0  0  0  0
  -21.7279  -12.6120   21.1789 N   0  0  0  0  0  0  0  0  0  0  0  0
  -30.5755  -12.7935   22.8929 N   0  0  0  0  0  0  0  0  0  0  0  0
  -31.2191  -22.7474   21.8318 N   0  0  0  0  0  0  0  0  0  0  0  0
  -29.9923  -20.8170   27.9804 N   0  0  0  0  0  0  0  0  0  0  0  0
  -28.5390  -17.7579   29.2442 N   0  3  0  0  0  0  0  0  0  0  0  0
  -22.5190  -14.7428   20.8744 O   0  0  0  0  0  0  0  0  0  0  0  0
  -32.8648  -21.7829   23.1674 O   0  0  0  0  0  0  0  0  0  0  0  0
  -29.5513  -22.3193   25.5809 O   0  0  0  0  0  0  0  0  0  0  0  0
  -31.0148  -18.7734   28.3748 O   0  0  0  0  0  0  0  0  0  0  0  0
  -32.1946  -13.0666   21.2542 O   0  0  0  0  0  0  0  0  0  0  0  0
  -21.4915   -7.0653   21.6403 O   0  0  0  0  0  0  0  0  0  0  0  0
  -34.6439  -15.9113   23.3760 O   0  0  0  0  0  0  0  0  0  1  0  0
  -23.4699   -3.2688   25.1155 F   0  0  0  0  0  0  0  0  0  0  0  0
  -20.0789   -6.3409   23.9036 F   0  0  0  0  0  0  0  0  0  0  0  0
  -32.7321  -14.5340   28.5571 F   0  0  0  0  0  0  0  0  0  0  0  0
  -34.4980  -14.8854   27.3524 F   0  0  0  0  0  0  0  0  0  0  0  0
  1  2  1  0  0  0  0
  1  5  2  0  0  0  0
  2  6  2  0  0  0  0
  3  9  2  0  0  0  0
  3 17  1  0  0  0  0
  4 10  1  0  0  0  0
  4 17  2  0  0  0  0
  5 19  1  0  0  0  0
  6 21  1  0  0  0  0
  7 11  2  0  0  0  0
  7 20  1  0  0  0  0
  8 14  2  0  0  0  0
  8 23  1  0  0  0  0
  9 24  1  0  0  0  0
 10 24  2  0  0  0  0
 11 25  1  0  0  0  0
 12 13  2  0  0  0  0
 12 26  1  0  0  0  0
 13 27  1  0  0  0  0
 14 31  1  0  0  0  0
 15 22  1  0  0  0  0
 15 25  2  0  0  0  0
 16 27  2  0  0  0  0
 16 28  1  0  0  0  0
 17 29  1  0  0  0  0
 18 29  1  0  0  0  0
 18 32  2  0  0  0  0
 18 33  1  0  0  0  0
 19 21  2  0  0  0  0
 19 38  1  0  0  0  0
 20 22  2  0  0  0  0
 20 39  1  0  0  0  0
 21 47  1  0  0  0  0
 22 40  1  0  0  0  0
 23 30  2  0  0  0  0
 23 61  1  0  0  0  0
 24 79  1  0  0  0  0
 25 80  1  0  0  0  0
 26 28  2  0  0  0  0
 26 79  1  0  0  0  0
 27 81  1  0  0  0  0
 28 82  1  0  0  0  0
 29 63  2  0  0  0  0
 30 57  1  0  0  0  0
 30 64  1  0  0  0  0
 31 64  2  0  0  0  0
 31 70  1  0  0  0  0
 32 65  1  0  0  0  0
 32 68  1  0  0  0  0
 33 69  1  0  0  0  0
 33 74  2  0  0  0  0
 34 48  1  0  0  0  0
 34 71  1  0  0  0  0
 34 75  2  0  0  0  0
 35 58  1  0  0  0  0
 35 66  1  0  0  0  0
 35 76  2  0  0  0  0
 36 59  1  0  0  0  0
 36 72  1  0  0  0  0
 36 77  2  0  0  0  0
 37 67  1  0  0  0  0
 37 70  1  0  0  0  0
 37 78  2  0  0  0  0
 38 41  1  0  0  0  0
 39 48  1  0  0  0  0
 40 66  1  0  0  0  0
 41 43  1  0  0  0  0
 42 44  1  0  0  0  0
 42 45  1  0  0  0  0
 43 47  1  0  0  0  0
 44 49  1  0  0  0  0
 45 67  1  0  0  0  0
 46 49  1  0  0  0  0
 46 67  1  0  0  0  0
 47 71  1  0  0  0  0
 48 66  1  0  0  0  0
 49 65  1  0  0  0  0
 50 59  1  0  0  0  0
 51 60  1  0  0  0  0
 52 61  1  0  0  0  0
 53 62  1  0  0  0  0
 54 62  1  0  0  0  0
 55 62  1  0  0  0  0
 56 73  1  0  0  0  0
 57 60  1  0  0  0  0
 58 62  1  0  0  0  0
 58 72  1  0  0  0  0
 59 73  1  0  0  0  0
 60 80  1  0  0  0  0
 61 83  1  0  0  0  0
 61 84  1  0  0  0  0
 63 65  1  0  0  0  0
M  CHG  1  73   1
M  ISO  4  37 100  60 101  70 100  80 101
M  END
> <Batch ID>
0112

> <Smiles>
CNC(C)C(=O)NC(C(=O)N1Cc2cc([101O:1][101CH:1](C)Cc3nc([100NH:0][100C:0](=O)N4CCCC(n5nc(-c6ccc(Oc7ccc(F)cc7F)cc6)c(C(N)=O)c5N)C4)ccc3C(C)(F)F)ccc2CC1C(=O)NC1CCCc2ccccc21)C(C)(C)C

> <Shape>
0.188

> <Color>
0.186

> <Negative vol penalty>
0.000

$$$$

  -OEChem-04052320033D

 80 87  0     1  0  0  0  0  0999 V2000
  -20.2198  -31.1348   23.5584 C   0  0  0  0  0  0  0  0  0  0  0  0
  -21.4958  -30.6021   23.4059 C   0  0  0  0  0  0  0  0  0  0  0  0
  -26.5655  -17.7254   19.8659 C   0  0  0  0  0  0  0  0  0  0  0  0
  -28.3214  -17.7614   21.5249 C   0  0  0  0  0  0  0  0  0  0  0  0
  -19.1003  -30.3297   23.3523 C   0  0  0  0  0  0  0  0  0  0  0  0
  -21.6531  -29.2635   23.0481 C   0  0  0  0  0  0  0  0  0  0  0  0
  -25.1479  -28.6144   19.4411 C   0  0  0  0  0  0  0  0  0  0  0  0
  -26.0018  -16.6108   20.4867 C   0  0  0  0  0  0  0  0  0  0  0  0
  -27.7577  -16.6468   22.1458 C   0  0  0  0  0  0  0  0  0  0  0  0
  -26.4847  -28.6589   19.8344 C   0  0  0  0  0  0  0  0  0  0  0  0
  -24.3024  -13.5365   21.4273 C   0  0  0  0  0  0  0  0  0  0  0  0
  -23.8891  -12.4801   20.6157 C   0  0  0  0  0  0  0  0  0  0  0  0
  -26.5613  -26.2478   19.8253 C   0  0  0  0  0  0  0  0  0  0  0  0
  -26.1491  -12.2213   19.8017 C   0  0  0  0  0  0  0  0  0  0  0  0
  -27.7254  -18.3007   20.3850 C   0  0  0  0  0  0  0  0  0  0  0  0
  -28.0293  -20.8057   20.0101 C   0  0  0  0  0  0  0  0  0  0  0  0
  -19.2439  -28.9832   22.9824 C   0  0  0  0  0  0  0  0  0  0  0  0
  -24.5035  -27.3841   19.2472 C   0  0  0  0  0  0  0  0  0  0  0  0
  -20.5345  -28.4393   22.8382 C   0  0  0  0  0  0  0  0  0  0  0  0
  -25.2170  -26.1904   19.4271 C   0  0  0  0  0  0  0  0  0  0  0  0
  -26.5978  -16.0715   21.6267 C   0  0  0  0  0  0  0  0  0  0  0  0
  -27.1908  -27.4755   20.0294 C   0  0  0  0  0  0  0  0  0  0  0  0
  -25.6390  -13.9355   21.4260 C   0  0  0  0  0  0  0  0  0  0  0  0
  -24.8124  -11.8224   19.8029 C   0  0  0  0  0  0  0  0  0  0  0  0
  -26.5623  -13.2778   20.6133 C   0  0  0  0  0  0  0  0  0  0  0  0
  -28.3085  -19.4518   19.7438 C   0  0  0  0  0  0  0  0  0  0  0  0
  -28.8363  -21.4998   19.1421 C   0  0  0  0  0  0  0  0  0  0  0  0
  -27.1218  -21.3841   20.9575 C   0  0  0  0  0  0  0  0  0  0  0  0
  -22.0211  -25.9167   20.5844 C   0  0  0  0  0  0  0  0  0  0  0  0
  -22.5297  -23.7483   18.2261 C   0  0  0  0  0  0  0  0  0  0  0  0
  -32.3955  -26.9400   18.4465 C   0  0  0  0  0  0  0  0  0  0  0  0
  -24.7030  -22.3440   16.0009 C   0  0  0  0  0  0  0  0  0  0  0  0
  -33.7768  -22.2972   16.6721 C   0  0  0  0  0  0  0  0  0  0  0  0
  -18.0045  -28.1398   22.8167 C   0  0  0  0  0  0  0  0  0  0  0  0
  -23.0687  -27.3534   18.7971 C   0  0  0  0  0  0  0  0  0  0  0  0
  -24.5771  -24.8440   19.2124 C   0  0  0  0  0  0  0  0  0  0  0  0
  -18.2542  -26.8297   22.0740 C   0  0  0  0  0  0  0  0  0  0  0  0
  -31.5877  -19.8995   15.2108 C   0  0  0  0  0  0  0  0  0  0  0  0
  -19.4952  -26.1330   22.6228 C   0  0  0  0  0  0  0  0  0  0  0  0
  -30.5206  -19.6766   16.2839 C   0  0  0  0  0  0  0  0  0  0  0  0
  -32.9694  -20.1140   15.8248 C   0  0  0  0  0  0  0  0  0  0  0  0
  -31.9699  -20.9588   17.9131 C   0  0  0  0  0  0  0  0  0  0  0  0
  -20.7459  -26.9984   22.4268 C   0  0  1  0  0  0  0  0  0  0  0  0
  -22.3668  -26.0397   19.1273 C   0  0  1  0  0  0  0  0  0  0  0  0
  -30.5501  -20.7935   17.3445 C   0  0  2  0  0  0  0  0  0  0  0  0
  -24.8389  -20.5681   14.2332 C   0  0  0  0  0  0  0  0  0  0  0  0
  -22.6352  -21.6028   20.3930 C   0  0  0  0  0  0  0  0  0  0  0  0
  -23.6938  -20.0669   18.7231 C   0  0  0  0  0  0  0  0  0  0  0  0
  -21.3904  -20.9394   18.3278 C   0  0  0  0  0  0  0  0  0  0  0  0
  -25.3721  -24.3207   13.9024 C   0  0  0  0  0  0  0  0  0  0  0  0
  -30.9436  -27.1241   18.8632 C   0  0  0  0  0  0  0  0  0  0  0  0
  -33.7934  -25.6030   16.8783 C   0  0  0  0  0  0  0  0  0  0  0  0
  -34.4721  -24.4750   17.6380 C   0  0  0  0  0  0  0  0  0  0  0  0
  -29.2630  -28.6419   19.9898 C   0  0  0  0  0  0  0  0  0  1  0  0
  -23.3653  -22.4991   18.0844 C   0  0  1  0  0  0  0  0  0  0  0  0
  -24.5704  -22.0372   14.5201 C   0  0  2  0  0  0  0  0  0  0  0  0
  -30.7322  -28.2450   19.8809 C   0  0  1  0  0  0  0  0  0  0  0  0
  -22.7830  -21.3022   18.8881 C   0  0  0  0  0  0  0  0  0  0  0  0
  -29.2213  -19.2931   18.7818 N   0  0  0  0  0  0  0  0  0  0  0  0
  -29.5228  -20.5563   18.4359 N   0  0  0  0  0  0  0  0  0  0  0  0
  -23.1704  -24.8663   18.7786 N   0  0  0  0  0  0  0  0  0  0  0  0
  -32.9291  -21.1872   16.8210 N   0  0  0  0  0  0  0  0  0  0  0  0
  -29.0186  -22.8191   18.9216 N   0  0  0  0  0  0  0  0  0  0  0  0
  -26.3693  -20.5265   21.7714 N   0  0  0  0  0  0  0  0  0  0  0  0
  -21.2015  -26.9248   21.0552 N   0  0  0  0  0  0  0  0  0  0  0  0
  -32.5241  -25.9695   17.4634 N   0  0  0  0  0  0  0  0  0  0  0  0
  -23.4910  -22.2523   16.6520 N   0  0  0  0  0  0  0  0  0  0  0  0
  -33.6706  -23.2717   17.6569 N   0  0  0  0  0  0  0  0  0  0  0  0
  -31.1798  -27.7633   21.2241 N   0  3  0  0  0  0  0  0  0  0  0  0
  -25.5372  -22.8540   13.7333 N   0  3  0  0  0  0  0  0  0  0  0  0
  -26.9702  -22.6245   21.0672 O   0  0  0  0  0  0  0  0  0  0  0  0
  -22.4638  -24.9760   21.2331 O   0  0  0  0  0  0  0  0  0  0  0  0
  -21.3538  -23.7348   17.8534 O   0  0  0  0  0  0  0  0  0  0  0  0
  -33.3214  -27.5885   18.9262 O   0  0  0  0  0  0  0  0  0  0  0  0
  -25.7752  -22.6323   16.5281 O   0  0  0  0  0  0  0  0  0  0  0  0
  -34.5659  -22.4138   15.7284 O   0  0  0  0  0  0  0  0  0  0  0  0
  -26.0479  -14.9840   22.2329 O   0  0  0  0  0  0  0  0  0  0  0  0
  -28.4956  -27.5160   20.4139 O   0  0  0  0  0  0  0  0  0  1  0  0
  -24.4157  -10.8069   19.0248 F   0  0  0  0  0  0  0  0  0  0  0  0
  -27.8480  -13.6558   20.6087 F   0  0  0  0  0  0  0  0  0  0  0  0
  1  2  1  0  0  0  0
  1  5  2  0  0  0  0
  2  6  2  0  0  0  0
  3  8  2  0  0  0  0
  3 15  1  0  0  0  0
  4  9  1  0  0  0  0
  4 15  2  0  0  0  0
  5 17  1  0  0  0  0
  6 19  1  0  0  0  0
  7 10  2  0  0  0  0
  7 18  1  0  0  0  0
  8 21  1  0  0  0  0
  9 21  2  0  0  0  0
 10 22  1  0  0  0  0
 11 12  2  0  0  0  0
 11 23  1  0  0  0  0
 12 24  1  0  0  0  0
 13 20  1  0  0  0  0
 13 22  2  0  0  0  0
 14 24  2  0  0  0  0
 14 25  1  0  0  0  0
 15 26  1  0  0  0  0
 16 26  1  0  0  0  0
 16 27  2  0  0  0  0
 16 28  1  0  0  0  0
 17 19  2  0  0  0  0
 17 34  1  0  0  0  0
 18 20  2  0  0  0  0
 18 35  1  0  0  0  0
 19 43  1  0  0  0  0
 20 36  1  0  0  0  0
 21 77  1  0  0  0  0
 22 78  1  0  0  0  0
 23 25  2  0  0  0  0
 23 77  1  0  0  0  0
 24 79  1  0  0  0  0
 25 80  1  0  0  0  0
 26 59  2  0  0  0  0
 27 60  1  0  0  0  0
 27 63  1  0  0  0  0
 28 64  1  0  0  0  0
 28 71  2  0  0  0  0
 29 44  1  0  0  0  0
 29 65  1  0  0  0  0
 29 72  2  0  0  0  0
 30 55  1  0  0  0  0
 30 61  1  0  0  0  0
 30 73  2  0  0  0  0
 31 51  1  0  0  0  0
 31 66  1  0  0  0  0
 31 74  2  0  0  0  0
 32 56  1  0  0  0  0
 32 67  1  0  0  0  0
 32 75  2  0  0  0  0
 33 62  1  0  0  0  0
 33 68  1  0  0  0  0
 33 76  2  0  0  0  0
 34 37  1  0  0  0  0
 35 44  1  0  0  0  0
 36 61  1  0  0  0  0
 37 39  1  0  0  0  0
 38 40  1  0  0  0  0
 38 41  1  0  0  0  0
 39 43  1  0  0  0  0
 40 45  1  0  0  0  0
 41 62  1  0  0  0  0
 42 45  1  0  0  0  0
 42 62  1  0  0  0  0
 43 65  1  0  0  0  0
 44 61  1  0  0  0  0
 45 60  1  0  0  0  0
 46 56  1  0  0  0  0
 47 58  1  0  0  0  0
 48 58  1  0  0  0  0
 49 58  1  0  0  0  0
 50 70  1  0  0  0  0
 51 57  1  0  0  0  0
 52 53  1  0  0  0  0
 52 66  1  0  0  0  0
 53 68  1  0  0  0  0
 54 57  1  0  0  0  0
 54 78  1  0  0  0  0
 55 58  1  0  0  0  0
 55 67  1  0  0  0  0
 56 70  1  0  0  0  0
 57 69  1  0  0  0  0
 59 60  1  0  0  0  0
M  CHG  2  69   1  70   1
M  ISO  4  33 100  54 101  68 100  78 101
M  END
> <Batch ID>
0112

> <Smiles>
CNC(C)C(=O)NC(C(=O)N1Cc2cc([101O:1][101CH2:1]C(N)CC(=O)NCC[100NH:0][100C:0](=O)N3CCCC(n4nc(-c5ccc(Oc6ccc(F)cc6F)cc5)c(C(N)=O)c4N)C3)ccc2CC1C(=O)NC1CCCc2ccccc21)C(C)(C)C

> <Shape>
0.210

> <Color>
0.073

> <Negative vol penalty>
0.000

$$$$

  -OEChem-04052320033D

 89 98  0     1  0  0  0  0  0999 V2000
  -22.5042  -33.5289   28.1985 C   0  0  0  0  0  0  0  0  0  0  0  0
  -23.6996  -33.2417   27.5474 C   0  0  0  0  0  0  0  0  0  0  0  0
  -23.6758   -9.4713   19.7603 C   0  0  0  0  0  0  0  0  0  0  0  0
  -24.5176   -9.3811   22.0231 C   0  0  0  0  0  0  0  0  0  0  0  0
  -30.6336  -23.8493   21.3131 C   0  0  0  0  0  0  0  0  0  0  0  0
  -21.3613  -32.7817   27.9168 C   0  0  0  0  0  0  0  0  0  0  0  0
  -23.7531  -32.2062   26.6150 C   0  0  0  0  0  0  0  0  0  0  0  0
  -27.1347  -32.0177   21.5125 C   0  0  0  0  0  0  0  0  0  0  0  0
  -23.2268   -8.1557   19.8749 C   0  0  0  0  0  0  0  0  0  0  0  0
  -24.0686   -8.0655   22.1377 C   0  0  0  0  0  0  0  0  0  0  0  0
  -28.3593  -31.4188   21.2204 C   0  0  0  0  0  0  0  0  0  0  0  0
  -21.1385   -6.4744   22.6885 C   0  0  0  0  0  0  0  0  0  0  0  0
  -20.4647   -6.1206   23.8574 C   0  0  0  0  0  0  0  0  0  0  0  0
  -30.8850  -25.1430   20.8699 C   0  0  0  0  0  0  0  0  0  0  0  0
  -27.2011  -29.5106   20.3059 C   0  0  0  0  0  0  0  0  0  0  0  0
  -22.1476   -4.4506   24.3221 C   0  0  0  0  0  0  0  0  0  0  0  0
  -24.3212  -10.0840   20.8344 C   0  0  0  0  0  0  0  0  0  0  0  0
  -29.3496  -23.3246   21.2167 C   0  0  0  0  0  0  0  0  0  0  0  0
  -24.0720  -12.6154   21.0290 C   0  0  0  0  0  0  0  0  0  0  0  0
  -21.3984  -31.7429   26.9733 C   0  0  0  0  0  0  0  0  0  0  0  0
  -25.9321  -31.3617   21.2129 C   0  0  0  0  0  0  0  0  0  0  0  0
  -22.6099  -31.4435   26.3214 C   0  0  0  0  0  0  0  0  0  0  0  0
  -25.9625  -30.1044   20.5929 C   0  0  0  0  0  0  0  0  0  0  0  0
  -23.4232   -7.4528   21.0636 C   0  0  0  0  0  0  0  0  0  0  0  0
  -28.3927  -30.1638   20.6197 C   0  0  0  0  0  0  0  0  0  0  0  0
  -22.3168   -5.8162   22.3363 C   0  0  0  0  0  0  0  0  0  0  0  0
  -20.9693   -5.1088   24.6743 C   0  0  0  0  0  0  0  0  0  0  0  0
  -22.8214   -4.8043   23.1531 C   0  0  0  0  0  0  0  0  0  0  0  0
  -24.7857  -11.4429   20.7165 C   0  0  0  0  0  0  0  0  0  0  0  0
  -29.8265  -25.8651   20.3425 C   0  0  0  0  0  0  0  0  0  0  0  0
  -28.3598  -24.1281   20.6739 C   0  0  0  0  0  0  0  0  0  0  0  0
  -24.9467  -13.6357   20.7451 C   0  0  0  0  0  0  0  0  0  0  0  0
  -29.0873  -21.9597   21.6846 C   0  0  0  0  0  0  0  0  0  0  0  0
  -22.7378  -12.7686   21.5310 C   0  0  0  0  0  0  0  0  0  0  0  0
  -29.6758  -20.8384   21.2262 C   0  0  0  0  0  0  0  0  0  0  0  0
  -23.4787  -30.2836   22.9224 C   0  0  0  0  0  0  0  0  0  0  0  0
  -22.2076  -29.6848   19.9987 C   0  0  0  0  0  0  0  0  0  0  0  0
  -22.7301  -29.0861   16.6798 C   0  0  0  0  0  0  0  0  0  0  0  0
  -30.2720  -15.5341   21.3682 C   0  0  0  0  0  0  0  0  0  0  0  0
  -20.1489  -30.9321   26.7368 C   0  0  0  0  0  0  0  0  0  0  0  0
  -24.6192  -32.0330   21.5100 C   0  0  0  0  0  0  0  0  0  0  0  0
  -24.6996  -29.3672   20.2324 C   0  0  0  0  0  0  0  0  0  0  0  0
  -20.1980  -30.0955   25.4609 C   0  0  0  0  0  0  0  0  0  0  0  0
  -29.3742  -13.6245   18.3211 C   0  0  0  0  0  0  0  0  0  0  0  0
  -21.5294  -29.3584   25.3568 C   0  0  0  0  0  0  0  0  0  0  0  0
  -28.0805  -12.9269   18.7376 C   0  0  0  0  0  0  0  0  0  0  0  0
  -28.6965  -18.6077   20.6946 C   0  0  0  0  0  0  0  0  0  0  0  0
  -30.4975  -18.8169   22.4503 C   0  0  0  0  0  0  0  0  0  0  0  0
  -30.2792  -13.9010   19.5176 C   0  0  0  0  0  0  0  0  0  0  0  0
  -28.3734  -17.2064   21.2199 C   0  0  0  0  0  0  0  0  0  0  0  0
  -30.1188  -17.4281   22.9557 C   0  0  0  0  0  0  0  0  0  0  0  0
  -28.3196  -13.9684   21.0268 C   0  0  0  0  0  0  0  0  0  0  0  0
  -22.7018  -30.3442   25.2854 C   0  0  1  0  0  0  0  0  0  0  0  0
  -29.2953  -19.5036   21.7869 C   0  0  0  0  0  0  0  0  0  0  0  0
  -23.4590  -31.0496   21.6299 C   0  0  1  0  0  0  0  0  0  0  0  0
  -27.3666  -13.7158   19.8487 C   0  0  2  0  0  0  0  0  0  0  0  0
  -26.9578  -23.6270   20.5407 C   0  0  0  0  0  0  0  0  0  0  0  0
  -30.7411  -20.7871   20.1654 C   0  0  0  0  0  0  0  0  0  0  0  0
  -21.4987  -28.5970   14.5486 C   0  0  0  0  0  0  0  0  0  0  0  0
  -31.0844  -28.4584   21.8379 C   0  0  0  0  0  0  0  0  0  0  0  0
  -21.7558  -26.8119   20.9218 C   0  0  0  0  0  0  0  0  0  0  0  0
  -21.4318  -26.1663   18.5247 C   0  0  0  0  0  0  0  0  0  0  0  0
  -19.8729  -27.7908   19.5986 C   0  0  0  0  0  0  0  0  0  0  0  0
  -23.7528  -31.5448   15.3886 C   0  0  0  0  0  0  0  0  0  0  0  0
  -30.0602  -27.2566   19.8566 C   0  0  0  0  0  0  0  0  0  0  0  0
  -22.2297  -28.5172   19.0421 C   0  0  1  0  0  0  0  0  0  0  0  0
  -22.0924  -29.6795   15.4366 C   0  0  2  0  0  0  0  0  0  0  0  0
  -29.8518  -28.3158   20.9541 C   0  0  2  0  0  0  0  0  0  1  0  0
  -21.3465  -27.3344   19.5302 C   0  0  0  0  0  0  0  0  0  0  0  0
  -26.0187  -11.6937   20.2683 N   0  0  0  0  0  0  0  0  0  0  0  0
  -28.5659  -25.3892   20.2326 N   0  0  0  0  0  0  0  0  0  0  0  0
  -26.0866  -13.0356   20.2970 N   0  0  0  0  0  0  0  0  0  0  0  0
  -23.4408  -30.0623   20.5487 N   0  0  0  0  0  0  0  0  0  0  0  0
  -29.5658  -14.6099   20.5802 N   0  0  0  0  0  0  0  0  0  0  0  0
  -29.5433  -16.6164   21.8837 N   0  0  0  0  0  0  0  0  0  0  0  0
  -24.8442  -14.9785   20.8376 N   0  0  0  0  0  0  0  0  0  0  0  0
  -21.9764  -11.6159   21.7675 N   0  0  0  0  0  0  0  0  0  0  0  0
  -22.8079  -30.9079   23.9567 N   0  0  0  0  0  0  0  0  0  0  0  0
  -21.8477  -29.0500   17.7388 N   0  0  0  0  0  0  0  0  0  0  0  0
  -23.1048  -30.4339   14.6449 N   0  3  0  0  0  0  0  0  0  0  0  0
  -22.2298  -13.8949   21.7474 O   0  0  0  0  0  0  0  0  0  0  0  0
  -24.0583  -29.2053   22.9769 O   0  0  0  0  0  0  0  0  0  0  0  0
  -21.1367  -30.2460   20.2433 O   0  0  0  0  0  0  0  0  0  0  0  0
  -23.8933  -28.6903   16.7076 O   0  0  0  0  0  0  0  0  0  0  0  0
  -31.4811  -15.4002   21.5946 O   0  0  0  0  0  0  0  0  0  0  0  0
  -22.9850   -6.1690   21.1758 O   0  0  0  0  0  0  0  0  0  0  0  0
  -29.5933  -29.5734   20.3326 O   0  0  0  0  0  0  0  0  0  1  0  0
  -20.3230   -4.7703   25.7976 F   0  0  0  0  0  0  0  0  0  0  0  0
  -23.9536   -4.1692   22.8206 F   0  0  0  0  0  0  0  0  0  0  0  0
  1  2  1  0  0  0  0
  1  6  2  0  0  0  0
  2  7  2  0  0  0  0
  3  9  2  0  0  0  0
  3 17  1  0  0  0  0
  4 10  1  0  0  0  0
  4 17  2  0  0  0  0
  5 14  2  0  0  0  0
  5 18  1  0  0  0  0
  6 20  1  0  0  0  0
  7 22  1  0  0  0  0
  8 11  2  0  0  0  0
  8 21  1  0  0  0  0
  9 24  1  0  0  0  0
 10 24  2  0  0  0  0
 11 25  1  0  0  0  0
 12 13  2  0  0  0  0
 12 26  1  0  0  0  0
 13 27  1  0  0  0  0
 14 30  1  0  0  0  0
 15 23  1  0  0  0  0
 15 25  2  0  0  0  0
 16 27  2  0  0  0  0
 16 28  1  0  0  0  0
 17 29  1  0  0  0  0
 18 31  2  0  0  0  0
 18 33  1  0  0  0  0
 19 29  1  0  0  0  0
 19 32  2  0  0  0  0
 19 34  1  0  0  0  0
 20 22  2  0  0  0  0
 20 40  1  0  0  0  0
 21 23  2  0  0  0  0
 21 41  1  0  0  0  0
 22 53  1  0  0  0  0
 23 42  1  0  0  0  0
 24 86  1  0  0  0  0
 25 87  1  0  0  0  0
 26 28  2  0  0  0  0
 26 86  1  0  0  0  0
 27 88  1  0  0  0  0
 28 89  1  0  0  0  0
 29 70  2  0  0  0  0
 30 65  1  0  0  0  0
 30 71  2  0  0  0  0
 31 57  1  0  0  0  0
 31 71  1  0  0  0  0
 32 72  1  0  0  0  0
 32 76  1  0  0  0  0
 33 35  2  0  0  0  0
 34 77  1  0  0  0  0
 34 81  2  0  0  0  0
 35 54  1  0  0  0  0
 35 58  1  0  0  0  0
 36 55  1  0  0  0  0
 36 78  1  0  0  0  0
 36 82  2  0  0  0  0
 37 66  1  0  0  0  0
 37 73  1  0  0  0  0
 37 83  2  0  0  0  0
 38 67  1  0  0  0  0
 38 79  1  0  0  0  0
 38 84  2  0  0  0  0
 39 74  1  0  0  0  0
 39 75  1  0  0  0  0
 39 85  2  0  0  0  0
 40 43  1  0  0  0  0
 41 55  1  0  0  0  0
 42 73  1  0  0  0  0
 43 45  1  0  0  0  0
 44 46  1  0  0  0  0
 44 49  1  0  0  0  0
 45 53  1  0  0  0  0
 46 56  1  0  0  0  0
 47 50  1  0  0  0  0
 47 54  1  0  0  0  0
 48 51  1  0  0  0  0
 48 54  1  0  0  0  0
 49 74  1  0  0  0  0
 50 75  1  0  0  0  0
 51 75  1  0  0  0  0
 52 56  1  0  0  0  0
 52 74  1  0  0  0  0
 53 78  1  0  0  0  0
 55 73  1  0  0  0  0
 56 72  1  0  0  0  0
 59 67  1  0  0  0  0
 60 68  1  0  0  0  0
 61 69  1  0  0  0  0
 62 69  1  0  0  0  0
 63 69  1  0  0  0  0
 64 80  1  0  0  0  0
 65 68  1  0  0  0  0
 66 69  1  0  0  0  0
 66 79  1  0  0  0  0
 67 80  1  0  0  0  0
 68 87  1  0  0  0  0
 70 72  1  0  0  0  0
M  CHG  1  80   1
M  ISO  4  39 100  68 101  75 100  87 101
M  END
> <Batch ID>
0112

> <Smiles>
CNC(C)C(=O)NC(C(=O)N1Cc2cc([101O:1][101CH:1](C)Cc3ccc(C=C(C)C4CC[100N:0]([100C:0](=O)N5CCCC(n6nc(-c7ccc(Oc8ccc(F)cc8F)cc7)c(C(N)=O)c6N)C5)CC4)c(C)n3)ccc2CC1C(=O)NC1CCCc2ccccc21)C(C)(C)C

> <Shape>
0.319

> <Color>
0.137

> <Negative vol penalty>
0.000

$$$$

  -OEChem-04052320033D

 86 94  0     1  0  0  0  0  0999 V2000
  -16.5955  -29.3712   23.1672 C   0  0  0  0  0  0  0  0  0  0  0  0
  -17.4604  -29.0755   22.1184 C   0  0  0  0  0  0  0  0  0  0  0  0
  -26.7081  -12.9643   21.8062 C   0  0  0  0  0  0  0  0  0  0  0  0
  -26.1007  -14.4176   19.9742 C   0  0  0  0  0  0  0  0  0  0  0  0
  -17.0925  -29.5016   24.4633 C   0  0  0  0  0  0  0  0  0  0  0  0
  -18.8229  -28.9111   22.3649 C   0  0  0  0  0  0  0  0  0  0  0  0
  -24.5035  -25.1981   20.0711 C   0  0  0  0  0  0  0  0  0  0  0  0
  -29.5863  -23.0236   18.3527 C   0  0  0  0  0  0  0  0  0  0  0  0
  -25.4072  -12.4620   21.8391 C   0  0  0  0  0  0  0  0  0  0  0  0
  -24.7999  -13.9153   20.0070 C   0  0  0  0  0  0  0  0  0  0  0  0
  -25.8128  -25.3935   19.6337 C   0  0  0  0  0  0  0  0  0  0  0  0
  -23.5518  -10.2358   20.0972 C   0  0  0  0  0  0  0  0  0  0  0  0
  -23.3928   -8.8541   20.2036 C   0  0  0  0  0  0  0  0  0  0  0  0
  -29.5603  -21.8604   19.1140 C   0  0  0  0  0  0  0  0  0  0  0  0
  -26.5465  -25.5638   21.9254 C   0  0  0  0  0  0  0  0  0  0  0  0
  -22.1815   -9.1527   22.2726 C   0  0  0  0  0  0  0  0  0  0  0  0
  -27.0548  -13.9421   20.8738 C   0  0  0  0  0  0  0  0  0  0  0  0
  -29.4819  -13.9681   20.0887 C   0  0  0  0  0  0  0  0  0  0  0  0
  -18.4604  -29.3292   24.7274 C   0  0  0  0  0  0  0  0  0  0  0  0
  -24.2036  -25.1950   21.4410 C   0  0  0  0  0  0  0  0  0  0  0  0
  -19.3389  -29.0407   23.6656 C   0  0  0  0  0  0  0  0  0  0  0  0
  -25.2330  -25.3657   22.3777 C   0  0  0  0  0  0  0  0  0  0  0  0
  -30.2732  -24.1385   18.8201 C   0  0  0  0  0  0  0  0  0  0  0  0
  -24.4531  -12.9375   20.9395 C   0  0  0  0  0  0  0  0  0  0  0  0
  -26.8341  -25.5792   20.5608 C   0  0  0  0  0  0  0  0  0  0  0  0
  -23.0257  -11.0759   21.0786 C   0  0  0  0  0  0  0  0  0  0  0  0
  -22.7077   -8.3126   21.2912 C   0  0  0  0  0  0  0  0  0  0  0  0
  -22.3405  -10.5344   22.1662 C   0  0  0  0  0  0  0  0  0  0  0  0
  -28.3983  -14.4617   20.8397 C   0  0  0  0  0  0  0  0  0  0  0  0
  -30.9127  -24.0397   20.0453 C   0  0  0  0  0  0  0  0  0  0  0  0
  -30.2319  -21.8635   20.3259 C   0  0  0  0  0  0  0  0  0  0  0  0
  -30.5263  -14.8027   20.4034 C   0  0  0  0  0  0  0  0  0  0  0  0
  -29.5392  -12.8547   19.1871 C   0  0  0  0  0  0  0  0  0  0  0  0
  -22.3901  -26.9816   23.3443 C   0  0  0  0  0  0  0  0  0  0  0  0
  -23.1994  -24.7535   25.5586 C   0  0  0  0  0  0  0  0  0  0  0  0
  -25.4038  -22.3609   26.5896 C   0  0  0  0  0  0  0  0  0  0  0  0
  -30.7992  -20.4512   22.3334 C   0  0  0  0  0  0  0  0  0  0  0  0
  -18.9580  -29.5267   26.1374 C   0  0  0  0  0  0  0  0  0  0  0  0
  -22.7904  -24.9564   21.8973 C   0  0  0  0  0  0  0  0  0  0  0  0
  -24.9669  -25.3505   23.8600 C   0  0  0  0  0  0  0  0  0  0  0  0
  -20.3587  -28.9674   26.3729 C   0  0  0  0  0  0  0  0  0  0  0  0
  -32.1627  -17.5828   23.9429 C   0  0  0  0  0  0  0  0  0  0  0  0
  -21.2968  -29.3848   25.2448 C   0  0  0  0  0  0  0  0  0  0  0  0
  -31.4552  -16.4117   23.2572 C   0  0  0  0  0  0  0  0  0  0  0  0
  -31.2324  -18.7812   24.1218 C   0  0  0  0  0  0  0  0  0  0  0  0
  -29.8527  -18.0627   22.2115 C   0  0  0  0  0  0  0  0  0  0  0  0
  -20.8196  -28.8307   23.8969 C   0  0  1  0  0  0  0  0  0  0  0  0
  -22.5188  -25.4852   23.3023 C   0  0  1  0  0  0  0  0  0  0  0  0
  -30.7681  -16.8553   21.9507 C   0  0  2  0  0  0  0  0  0  0  0  0
  -31.6670  -25.2040   20.6006 C   0  0  0  0  0  0  0  0  0  0  0  0
  -30.4181  -25.6514   14.2422 C   0  0  0  0  0  0  0  0  0  0  0  0
  -25.8175  -20.7374   28.4578 C   0  0  0  0  0  0  0  0  0  0  0  0
  -32.0951  -26.2416   16.6795 C   0  0  0  0  0  0  0  0  0  0  0  0
  -27.6020  -27.7655   18.9414 C   0  0  0  0  0  0  0  0  0  0  0  0
  -24.1381  -27.0461   27.3398 C   0  0  0  0  0  0  0  0  0  0  0  0
  -25.3782  -25.3696   28.7253 C   0  0  0  0  0  0  0  0  0  0  0  0
  -22.8943  -25.2368   28.5371 C   0  0  0  0  0  0  0  0  0  0  0  0
  -25.2587  -20.0395   24.7596 C   0  0  0  0  0  0  0  0  0  0  0  0
  -29.8567  -25.7060   15.6573 C   0  0  0  0  0  0  0  0  0  0  0  0
  -29.7798  -26.5589   18.5779 C   0  0  0  0  0  0  0  0  0  0  0  0
  -24.3237  -24.5940   26.5533 C   0  0  1  0  0  0  0  0  0  0  0  0
  -25.1910  -20.9427   27.0874 C   0  0  2  0  0  0  0  0  0  0  0  0
  -30.8895  -25.3084   16.7197 C   0  0  2  0  0  0  0  0  0  0  0  0
  -28.2891  -26.4094   18.8727 C   0  0  1  0  0  0  0  0  0  1  0  0
  -24.1886  -25.5639   27.7609 C   0  0  0  0  0  0  0  0  0  0  0  0
  -28.7243  -15.5272   21.5762 N   0  0  0  0  0  0  0  0  0  0  0  0
  -30.9097  -22.9270   20.8130 N   0  0  0  0  0  0  0  0  0  0  0  0
  -30.0245  -15.7099   21.2896 N   0  0  0  0  0  0  0  0  0  0  0  0
  -23.5679  -25.1199   24.2563 N   0  0  0  0  0  0  0  0  0  0  0  0
  -30.6209  -19.1474   22.8424 N   0  0  0  0  0  0  0  0  0  0  0  0
  -31.8158  -14.8417   20.0059 N   0  0  0  0  0  0  0  0  0  0  0  0
  -28.3745  -12.1035   18.9782 N   0  0  0  0  0  0  0  0  0  0  0  0
  -30.1993  -20.6735   21.0943 N   0  0  0  0  0  0  0  0  0  0  0  0
  -21.1568  -27.4283   23.7791 N   0  0  0  0  0  0  0  0  0  0  0  0
  -24.3467  -23.1822   26.9203 N   0  0  0  0  0  0  0  0  0  0  0  0
  -30.3047  -25.3155   18.0608 N   0  0  3  0  0  0  0  0  0  0  0  0
  -25.7993  -19.9650   26.1413 N   0  3  0  0  0  0  0  0  0  0  0  0
  -30.5961  -12.5256   18.5971 O   0  0  0  0  0  0  0  0  0  0  0  0
  -23.3399  -27.6794   23.0087 O   0  0  0  0  0  0  0  0  0  0  0  0
  -22.0377  -24.5533   25.9218 O   0  0  0  0  0  0  0  0  0  0  0  0
  -26.4089  -22.7066   25.9726 O   0  0  0  0  0  0  0  0  0  0  0  0
  -31.4600  -21.2993   22.9384 O   0  0  0  0  0  0  0  0  0  0  0  0
  -23.1837  -12.4475   20.9711 O   0  0  0  0  0  0  0  0  0  0  0  0
  -28.1128  -25.7708   20.1366 O   0  0  0  0  0  0  0  0  0  1  0  0
  -22.5538   -6.9858   21.3925 F   0  0  0  0  0  0  0  0  0  0  0  0
  -21.8319  -11.3366   23.1115 F   0  0  0  0  0  0  0  0  0  0  0  0
  1  2  1  0  0  0  0
  1  5  2  0  0  0  0
  2  6  2  0  0  0  0
  3  9  2  0  0  0  0
  3 17  1  0  0  0  0
  4 10  1  0  0  0  0
  4 17  2  0  0  0  0
  5 19  1  0  0  0  0
  6 21  1  0  0  0  0
  7 11  2  0  0  0  0
  7 20  1  0  0  0  0
  8 14  2  0  0  0  0
  8 23  1  0  0  0  0
  9 24  1  0  0  0  0
 10 24  2  0  0  0  0
 11 25  1  0  0  0  0
 12 13  2  0  0  0  0
 12 26  1  0  0  0  0
 13 27  1  0  0  0  0
 14 31  1  0  0  0  0
 15 22  1  0  0  0  0
 15 25  2  0  0  0  0
 16 27  2  0  0  0  0
 16 28  1  0  0  0  0
 17 29  1  0  0  0  0
 18 29  1  0  0  0  0
 18 32  2  0  0  0  0
 18 33  1  0  0  0  0
 19 21  2  0  0  0  0
 19 38  1  0  0  0  0
 20 22  2  0  0  0  0
 20 39  1  0  0  0  0
 21 47  1  0  0  0  0
 22 40  1  0  0  0  0
 23 30  2  0  0  0  0
 23 76  1  0  0  0  0
 24 83  1  0  0  0  0
 25 84  1  0  0  0  0
 26 28  2  0  0  0  0
 26 83  1  0  0  0  0
 27 85  1  0  0  0  0
 28 86  1  0  0  0  0
 29 66  2  0  0  0  0
 30 50  1  0  0  0  0
 30 67  1  0  0  0  0
 31 67  2  0  0  0  0
 31 73  1  0  0  0  0
 32 68  1  0  0  0  0
 32 71  1  0  0  0  0
 33 72  1  0  0  0  0
 33 78  2  0  0  0  0
 34 48  1  0  0  0  0
 34 74  1  0  0  0  0
 34 79  2  0  0  0  0
 35 61  1  0  0  0  0
 35 69  1  0  0  0  0
 35 80  2  0  0  0  0
 36 62  1  0  0  0  0
 36 75  1  0  0  0  0
 36 81  2  0  0  0  0
 37 70  1  0  0  0  0
 37 73  1  0  0  0  0
 37 82  2  0  0  0  0
 38 41  1  0  0  0  0
 39 48  1  0  0  0  0
 40 69  1  0  0  0  0
 41 43  1  0  0  0  0
 42 44  1  0  0  0  0
 42 45  1  0  0  0  0
 43 47  1  0  0  0  0
 44 49  1  0  0  0  0
 45 70  1  0  0  0  0
 46 49  1  0  0  0  0
 46 70  1  0  0  0  0
 47 74  1  0  0  0  0
 48 69  1  0  0  0  0
 49 68  1  0  0  0  0
 51 59  1  0  0  0  0
 52 62  1  0  0  0  0
 53 63  1  0  0  0  0
 54 64  1  0  0  0  0
 55 65  1  0  0  0  0
 56 65  1  0  0  0  0
 57 65  1  0  0  0  0
 58 77  1  0  0  0  0
 59 63  1  0  0  0  0
 60 64  1  0  0  0  0
 60 76  1  0  0  0  0
 61 65  1  0  0  0  0
 61 75  1  0  0  0  0
 62 77  1  0  0  0  0
 63 76  1  0  0  0  0
 64 84  1  0  0  0  0
 66 68  1  0  0  0  0
M  CHG  1  77   1
M  ISO  4  37 100  64 101  73 100  84 101
M  END
> <Batch ID>
0112

> <Smiles>
CCC(C)N(C[101CH:1](C)[101O:1]c1ccc2c(c1)CN(C(=O)C(NC(=O)C(C)NC)C(C)(C)C)C(C(=O)NC1CCCc3ccccc31)C2)c1ccc([100NH:0][100C:0](=O)N2CCCC(n3nc(-c4ccc(Oc5ccc(F)cc5F)cc4)c(C(N)=O)c3N)C2)nc1C

> <Shape>
0.244

> <Color>
0.070

> <Negative vol penalty>
0.000

$$$$

  -OEChem-04052320033D

 82 90  0     1  0  0  0  0  0999 V2000
  -24.7924  -35.4128   22.2879 C   0  0  0  0  0  0  0  0  0  0  0  0
  -25.5523  -34.2538   22.1671 C   0  0  0  0  0  0  0  0  0  0  0  0
  -27.4221  -12.0638   20.2767 C   0  0  0  0  0  0  0  0  0  0  0  0
  -27.2754  -13.0532   18.0775 C   0  0  0  0  0  0  0  0  0  0  0  0
  -23.5195  -35.3545   22.8539 C   0  0  0  0  0  0  0  0  0  0  0  0
  -25.0402  -33.0359   22.6132 C   0  0  0  0  0  0  0  0  0  0  0  0
  -25.8251  -29.2734   19.3159 C   0  0  0  0  0  0  0  0  0  0  0  0
  -27.0179  -10.8364   19.7515 C   0  0  0  0  0  0  0  0  0  0  0  0
  -26.8713  -11.8258   17.5522 C   0  0  0  0  0  0  0  0  0  0  0  0
  -27.1020  -28.7149   19.2794 C   0  0  0  0  0  0  0  0  0  0  0  0
  -24.1284   -9.3679   18.7930 C   0  0  0  0  0  0  0  0  0  0  0  0
  -23.1587   -8.6515   19.4943 C   0  0  0  0  0  0  0  0  0  0  0  0
  -26.3283  -26.8728   20.6313 C   0  0  0  0  0  0  0  0  0  0  0  0
  -24.7047   -6.8133   19.7544 C   0  0  0  0  0  0  0  0  0  0  0  0
  -27.5508  -13.1722   19.4397 C   0  0  0  0  0  0  0  0  0  0  0  0
  -29.2857  -14.9187   20.1087 C   0  0  0  0  0  0  0  0  0  0  0  0
  -22.9877  -34.1338   23.2984 C   0  0  0  0  0  0  0  0  0  0  0  0
  -24.7912  -28.6404   20.0207 C   0  0  0  0  0  0  0  0  0  0  0  0
  -23.7596  -32.9615   23.1869 C   0  0  0  0  0  0  0  0  0  0  0  0
  -25.0386  -27.4241   20.6731 C   0  0  0  0  0  0  0  0  0  0  0  0
  -26.7425  -10.7174   18.3893 C   0  0  0  0  0  0  0  0  0  0  0  0
  -27.3545  -27.5159   19.9395 C   0  0  0  0  0  0  0  0  0  0  0  0
  -25.3863   -8.8070   18.5723 C   0  0  0  0  0  0  0  0  0  0  0  0
  -23.4468   -7.3742   19.9751 C   0  0  0  0  0  0  0  0  0  0  0  0
  -25.6745   -7.5297   19.0530 C   0  0  0  0  0  0  0  0  0  0  0  0
  -27.9678  -14.4404   19.9817 C   0  0  0  0  0  0  0  0  0  0  0  0
  -29.1467  -16.1617   20.6763 C   0  0  0  0  0  0  0  0  0  0  0  0
  -30.5248  -14.2951   19.7461 C   0  0  0  0  0  0  0  0  0  0  0  0
  -22.9644  -29.4186   22.5028 C   0  0  0  0  0  0  0  0  0  0  0  0
  -30.8784  -27.2447   20.5208 C   0  0  0  0  0  0  0  0  0  0  0  0
  -21.4588  -26.6408   21.7683 C   0  0  0  0  0  0  0  0  0  0  0  0
  -21.6112  -23.5622   20.3035 C   0  0  0  0  0  0  0  0  0  0  0  0
  -26.3242  -21.0968   20.4812 C   0  0  0  0  0  0  0  0  0  0  0  0
  -21.6259  -34.1283   23.9466 C   0  0  0  0  0  0  0  0  0  0  0  0
  -23.4127  -29.2422   20.0282 C   0  0  0  0  0  0  0  0  0  0  0  0
  -23.9579  -26.6944   21.4268 C   0  0  0  0  0  0  0  0  0  0  0  0
  -21.0072  -32.7368   24.0522 C   0  0  0  0  0  0  0  0  0  0  0  0
  -25.1427  -18.4219   22.7593 C   0  0  0  0  0  0  0  0  0  0  0  0
  -22.0291  -31.7371   24.5841 C   0  0  0  0  0  0  0  0  0  0  0  0
  -25.8277  -17.1795   22.1928 C   0  0  0  0  0  0  0  0  0  0  0  0
  -28.3581  -23.5916   19.1868 C   0  0  0  0  0  0  0  0  0  0  0  0
  -29.7069  -22.0616   20.6773 C   0  0  0  0  0  0  0  0  0  0  0  0
  -24.9027  -19.4767   21.6838 C   0  0  0  0  0  0  0  0  0  0  0  0
  -27.5360  -22.3835   18.7459 C   0  0  0  0  0  0  0  0  0  0  0  0
  -28.8378  -20.8842   20.2255 C   0  0  0  0  0  0  0  0  0  0  0  0
  -26.8187  -18.6227   20.3715 C   0  0  0  0  0  0  0  0  0  0  0  0
  -23.2289  -31.6176   23.6366 C   0  0  1  0  0  0  0  0  0  0  0  0
  -22.5631  -28.7747   21.2059 C   0  0  1  0  0  0  0  0  0  0  0  0
  -27.1143  -17.5591   21.4398 C   0  0  2  0  0  0  0  0  0  0  0  0
  -29.7584  -23.1502   19.6074 C   0  0  0  0  0  0  0  0  0  0  0  0
  -20.2349  -21.5035   19.8977 C   0  0  0  0  0  0  0  0  0  0  0  0
  -21.8744  -25.7938   24.6700 C   0  0  0  0  0  0  0  0  0  0  0  0
  -21.3658  -23.4406   23.9830 C   0  0  0  0  0  0  0  0  0  0  0  0
  -19.6321  -25.2156   23.7255 C   0  0  0  0  0  0  0  0  0  0  0  0
  -21.7896  -23.8810   17.3666 C   0  0  0  0  0  0  0  0  0  0  0  0
  -31.8323  -26.3548   19.7547 C   0  0  0  0  0  0  0  0  0  0  0  0
  -29.7042  -27.8547   19.7972 C   0  0  0  0  0  0  0  0  0  1  0  0
  -31.1152  -25.1851   19.1007 C   0  0  0  0  0  0  0  0  0  0  0  0
  -21.6257  -25.1954   22.1708 C   0  0  1  0  0  0  0  0  0  0  0  0
  -20.6683  -22.8536   19.3480 C   0  0  2  0  0  0  0  0  0  0  0  0
  -21.1456  -24.9259   23.6249 C   0  0  0  0  0  0  0  0  0  0  0  0
  -27.0585  -15.3088   20.4324 N   0  0  0  0  0  0  0  0  0  0  0  0
  -31.0896  -27.4786   21.7754 N   0  0  0  0  0  0  0  0  0  0  0  0
  -27.8062  -16.3451   20.8483 N   0  0  0  0  0  0  0  0  0  0  0  0
  -22.6283  -27.3262   21.4101 N   0  0  0  0  0  0  0  0  0  0  0  0
  -26.1298  -19.7866   20.9499 N   0  0  0  0  0  0  0  0  0  0  0  0
  -27.5151  -21.3516   19.7845 N   0  0  0  0  0  0  0  0  0  0  0  0
  -30.0416  -17.1047   21.0400 N   0  0  0  0  0  0  0  0  0  0  0  0
  -30.4868  -13.0161   19.1740 N   0  0  0  0  0  0  0  0  0  0  0  0
  -22.8898  -30.7984   22.4927 N   0  0  0  0  0  0  0  0  0  0  0  0
  -20.9336  -24.4069   21.1571 N   0  0  0  0  0  0  0  0  0  0  0  0
  -30.4965  -24.3231   20.1431 N   0  3  0  0  0  0  0  0  0  0  0  0
  -21.3328  -22.6339   18.0322 N   0  3  0  0  0  0  0  0  0  0  0  0
  -31.6338  -14.8486   19.9391 O   0  0  0  0  0  0  0  0  0  0  0  0
  -23.3143  -28.7155   23.4435 O   0  0  0  0  0  0  0  0  0  0  0  0
  -20.3313  -27.1412   21.7648 O   0  0  0  0  0  0  0  0  0  0  0  0
  -22.8269  -23.3815   20.2961 O   0  0  0  0  0  0  0  0  0  0  0  0
  -25.4844  -21.9844   20.6761 O   0  0  0  0  0  0  0  0  0  0  0  0
  -26.3483   -9.5198   17.8765 O   0  0  0  0  0  0  0  0  0  0  0  0
  -28.6123  -26.9635   19.9056 O   0  0  0  0  0  0  0  0  0  1  0  0
  -22.5160   -6.6870   20.6499 F   0  0  0  0  0  0  0  0  0  0  0  0
  -26.8816   -6.9861   18.8451 F   0  0  0  0  0  0  0  0  0  0  0  0
  1  2  1  0  0  0  0
  1  5  2  0  0  0  0
  2  6  2  0  0  0  0
  3  8  2  0  0  0  0
  3 15  1  0  0  0  0
  4  9  1  0  0  0  0
  4 15  2  0  0  0  0
  5 17  1  0  0  0  0
  6 19  1  0  0  0  0
  7 10  2  0  0  0  0
  7 18  1  0  0  0  0
  8 21  1  0  0  0  0
  9 21  2  0  0  0  0
 10 22  1  0  0  0  0
 11 12  2  0  0  0  0
 11 23  1  0  0  0  0
 12 24  1  0  0  0  0
 13 20  1  0  0  0  0
 13 22  2  0  0  0  0
 14 24  2  0  0  0  0
 14 25  1  0  0  0  0
 15 26  1  0  0  0  0
 16 26  1  0  0  0  0
 16 27  2  0  0  0  0
 16 28  1  0  0  0  0
 17 19  2  0  0  0  0
 17 34  1  0  0  0  0
 18 20  2  0  0  0  0
 18 35  1  0  0  0  0
 19 47  1  0  0  0  0
 20 36  1  0  0  0  0
 21 79  1  0  0  0  0
 22 80  1  0  0  0  0
 23 25  2  0  0  0  0
 23 79  1  0  0  0  0
 24 81  1  0  0  0  0
 25 82  1  0  0  0  0
 26 62  2  0  0  0  0
 27 64  1  0  0  0  0
 27 68  1  0  0  0  0
 28 69  1  0  0  0  0
 28 74  2  0  0  0  0
 29 48  1  0  0  0  0
 29 70  1  0  0  0  0
 29 75  2  0  0  0  0
 30 56  1  0  0  0  0
 30 57  1  0  0  0  0
 30 63  2  0  0  0  0
 31 59  1  0  0  0  0
 31 65  1  0  0  0  0
 31 76  2  0  0  0  0
 32 60  1  0  0  0  0
 32 71  1  0  0  0  0
 32 77  2  0  0  0  0
 33 66  1  0  0  0  0
 33 67  1  0  0  0  0
 33 78  2  0  0  0  0
 34 37  1  0  0  0  0
 35 48  1  0  0  0  0
 36 65  1  0  0  0  0
 37 39  1  0  0  0  0
 38 40  1  0  0  0  0
 38 43  1  0  0  0  0
 39 47  1  0  0  0  0
 40 49  1  0  0  0  0
 41 44  1  0  0  0  0
 41 50  1  0  0  0  0
 42 45  1  0  0  0  0
 42 50  1  0  0  0  0
 43 66  1  0  0  0  0
 44 67  1  0  0  0  0
 45 67  1  0  0  0  0
 46 49  1  0  0  0  0
 46 66  1  0  0  0  0
 47 70  1  0  0  0  0
 48 65  1  0  0  0  0
 49 64  1  0  0  0  0
 50 72  1  0  0  0  0
 51 60  1  0  0  0  0
 52 61  1  0  0  0  0
 53 61  1  0  0  0  0
 54 61  1  0  0  0  0
 55 73  1  0  0  0  0
 56 58  1  0  0  0  0
 57 80  1  0  0  0  0
 58 72  1  0  0  0  0
 59 61  1  0  0  0  0
 59 71  1  0  0  0  0
 60 73  1  0  0  0  0
 62 64  1  0  0  0  0
M  CHG  2  72   1  73   1
M  ISO  4  33 100  57 101  67 100  80 101
M  END
> <Batch ID>
0112

> <Smiles>
CNC(C)C(=O)NC(C(=O)N1Cc2cc([101O:1][101CH2:1]C(=N)CCNC3CC[100N:0]([100C:0](=O)N4CCCC(n5nc(-c6ccc(Oc7ccc(F)cc7F)cc6)c(C(N)=O)c5N)C4)CC3)ccc2CC1C(=O)NC1CCCc2ccccc21)C(C)(C)C

> <Shape>
0.238

> <Color>
0.076

> <Negative vol penalty>
0.000

$$$$

  -OEChem-04052320033D

 85 93  0     1  0  0  0  0  0999 V2000
  -42.8540  -22.4203   22.3551 C   0  0  0  0  0  0  0  0  0  0  0  0
  -41.9993  -21.7364   21.4965 C   0  0  0  0  0  0  0  0  0  0  0  0
  -23.1660   -9.7746   20.1168 C   0  0  0  0  0  0  0  0  0  0  0  0
  -23.8215  -10.0672   22.4237 C   0  0  0  0  0  0  0  0  0  0  0  0
  -42.3370  -23.0930   23.4615 C   0  0  0  0  0  0  0  0  0  0  0  0
  -40.6272  -21.7238   21.7445 C   0  0  0  0  0  0  0  0  0  0  0  0
  -36.1339  -21.7156   17.5833 C   0  0  0  0  0  0  0  0  0  0  0  0
  -22.4564   -8.6251   20.4642 C   0  0  0  0  0  0  0  0  0  0  0  0
  -23.1118   -8.9177   22.7711 C   0  0  0  0  0  0  0  0  0  0  0  0
  -35.3491  -20.6929   17.0522 C   0  0  0  0  0  0  0  0  0  0  0  0
  -21.7708   -5.8603   24.2078 C   0  0  0  0  0  0  0  0  0  0  0  0
  -22.3906   -4.9495   25.0633 C   0  0  0  0  0  0  0  0  0  0  0  0
  -33.6177  -21.1979   18.6542 C   0  0  0  0  0  0  0  0  0  0  0  0
  -24.1748   -4.6583   23.4604 C   0  0  0  0  0  0  0  0  0  0  0  0
  -35.0215  -16.2728   20.7199 C   0  0  0  0  0  0  0  0  0  0  0  0
  -23.8486  -10.4956   21.0965 C   0  0  0  0  0  0  0  0  0  0  0  0
  -24.0986  -13.0044   20.7082 C   0  0  0  0  0  0  0  0  0  0  0  0
  -40.9568  -23.0968   23.7178 C   0  0  0  0  0  0  0  0  0  0  0  0
  -35.6701  -22.4813   18.6627 C   0  0  0  0  0  0  0  0  0  0  0  0
  -40.0914  -22.3960   22.8562 C   0  0  0  0  0  0  0  0  0  0  0  0
  -34.3974  -22.2313   19.1955 C   0  0  0  0  0  0  0  0  0  0  0  0
  -33.8878  -16.4139   19.9503 C   0  0  0  0  0  0  0  0  0  0  0  0
  -34.3017  -16.4906   18.5976 C   0  0  0  0  0  0  0  0  0  0  0  0
  -22.4293   -8.1966   21.7914 C   0  0  0  0  0  0  0  0  0  0  0  0
  -34.0920  -20.4320   17.5895 C   0  0  0  0  0  0  0  0  0  0  0  0
  -22.3529   -6.1701   22.9786 C   0  0  0  0  0  0  0  0  0  0  0  0
  -23.5926   -4.3485   24.6896 C   0  0  0  0  0  0  0  0  0  0  0  0
  -23.5549   -5.5691   22.6050 C   0  0  0  0  0  0  0  0  0  0  0  0
  -24.5823  -11.6827   20.7382 C   0  0  0  0  0  0  0  0  0  0  0  0
  -35.6757  -16.3938   18.5817 C   0  0  0  0  0  0  0  0  0  0  0  0
  -25.1764  -13.7556   20.3075 C   0  0  0  0  0  0  0  0  0  0  0  0
  -22.7918  -13.5082   21.0152 C   0  0  0  0  0  0  0  0  0  0  0  0
  -36.6486  -22.9758   21.6463 C   0  0  0  0  0  0  0  0  0  0  0  0
  -34.2422  -25.1510   21.6613 C   0  0  0  0  0  0  0  0  0  0  0  0
  -31.2680  -26.1903   20.3494 C   0  0  0  0  0  0  0  0  0  0  0  0
  -30.4750  -15.0637   20.7079 C   0  0  0  0  0  0  0  0  0  0  0  0
  -40.4497  -23.7985   24.9527 C   0  0  0  0  0  0  0  0  0  0  0  0
  -36.5178  -23.5984   19.2068 C   0  0  0  0  0  0  0  0  0  0  0  0
  -33.8451  -23.0378   20.3414 C   0  0  0  0  0  0  0  0  0  0  0  0
  -38.9440  -24.0495   24.9357 C   0  0  0  0  0  0  0  0  0  0  0  0
  -29.6689  -12.3465   18.4574 C   0  0  0  0  0  0  0  0  0  0  0  0
  -38.1981  -22.7921   24.5007 C   0  0  0  0  0  0  0  0  0  0  0  0
  -28.2231  -12.0420   18.8538 C   0  0  0  0  0  0  0  0  0  0  0  0
  -30.5108  -12.7128   19.6761 C   0  0  0  0  0  0  0  0  0  0  0  0
  -28.5257  -13.5427   20.8778 C   0  0  0  0  0  0  0  0  0  0  0  0
  -38.5945  -22.3799   23.0778 C   0  0  1  0  0  0  0  0  0  0  0  0
  -36.1580  -23.9779   20.6400 C   0  0  1  0  0  0  0  0  0  0  0  0
  -27.6174  -13.1873   19.6866 C   0  0  2  0  0  0  0  0  0  0  0  0
  -36.6231  -16.4155   17.4461 C   0  0  0  0  0  0  0  0  0  0  0  0
  -29.5262  -27.9804   20.5920 C   0  0  0  0  0  0  0  0  0  0  0  0
  -31.5825  -17.2665   16.1384 C   0  0  0  0  0  0  0  0  0  0  0  0
  -33.1858  -23.7791   24.1736 C   0  0  0  0  0  0  0  0  0  0  0  0
  -31.0072  -24.9606   23.8184 C   0  0  0  0  0  0  0  0  0  0  0  0
  -33.0857  -26.2774   24.2288 C   0  0  0  0  0  0  0  0  0  0  0  0
  -31.6971  -27.1450   17.5812 C   0  0  0  0  0  0  0  0  0  0  0  0
  -32.5021  -16.4729   20.4581 C   0  0  0  0  0  0  0  0  0  0  0  0
  -37.4765  -16.1296   20.3087 C   0  0  0  0  0  0  0  0  0  0  0  0
  -38.2551  -17.4382   20.2794 C   0  0  0  0  0  0  0  0  0  0  0  0
  -32.4287  -18.7748   17.9679 C   0  0  0  0  0  0  0  0  0  1  0  0
  -32.7725  -25.1170   22.0045 C   0  0  1  0  0  0  0  0  0  0  0  0
  -30.7977  -27.5535   19.8753 C   0  0  2  0  0  0  0  0  0  0  0  0
  -32.2116  -17.3298   17.5240 C   0  0  2  0  0  0  0  0  0  0  0  0
  -32.5237  -25.0169   23.5360 C   0  0  0  0  0  0  0  0  0  0  0  0
  -25.8674  -11.5959   20.3845 N   0  0  0  0  0  0  0  0  0  0  0  0
  -36.1022  -16.2615   19.8773 N   0  0  0  0  0  0  0  0  0  0  0  0
  -26.2003  -12.8725   20.1285 N   0  0  0  0  0  0  0  0  0  0  0  0
  -34.7143  -24.1151   20.8428 N   0  0  0  0  0  0  0  0  0  0  0  0
  -29.8891  -13.8211   20.4144 N   0  0  0  0  0  0  0  0  0  0  0  0
  -25.3387  -15.0787   20.0943 N   0  0  0  0  0  0  0  0  0  0  0  0
  -21.8013  -12.5990   21.4112 N   0  0  0  0  0  0  0  0  0  0  0  0
  -33.4834  -16.6357   17.4925 N   0  0  0  0  0  0  0  0  0  0  0  0
  -37.9292  -23.2194   22.1046 N   0  0  0  0  0  0  0  0  0  0  0  0
  -32.1799  -26.2941   21.3785 N   0  0  0  0  0  0  0  0  0  0  0  0
  -31.7706  -15.2448   20.2394 N   0  0  0  0  0  0  0  0  0  0  0  0
  -37.6523  -18.4164   21.2178 N   0  3  0  0  0  0  0  0  0  0  0  0
  -30.5251  -27.5268   18.4104 N   0  3  0  0  0  0  0  0  0  0  0  0
  -22.5062  -14.7263   20.9248 O   0  0  0  0  0  0  0  0  0  0  0  0
  -35.9187  -22.0509   21.9833 O   0  0  0  0  0  0  0  0  0  0  0  0
  -34.9440  -26.0670   22.0973 O   0  0  0  0  0  0  0  0  0  0  0  0
  -30.8639  -25.1384   19.8587 O   0  0  0  0  0  0  0  0  0  0  0  0
  -29.8850  -15.9490   21.3365 O   0  0  0  0  0  0  0  0  0  0  0  0
  -21.7367   -7.0752   22.1308 O   0  0  0  0  0  0  0  0  0  0  0  0
  -33.3243  -19.4340   17.0735 O   0  0  0  0  0  0  0  0  0  1  0  0
  -24.1885   -3.4750   25.5118 F   0  0  0  0  0  0  0  0  0  0  0  0
  -24.1195   -5.8636   21.4259 F   0  0  0  0  0  0  0  0  0  0  0  0
  1  2  1  0  0  0  0
  1  5  2  0  0  0  0
  2  6  2  0  0  0  0
  3  8  2  0  0  0  0
  3 16  1  0  0  0  0
  4  9  1  0  0  0  0
  4 16  2  0  0  0  0
  5 18  1  0  0  0  0
  6 20  1  0  0  0  0
  7 10  2  0  0  0  0
  7 19  1  0  0  0  0
  8 24  1  0  0  0  0
  9 24  2  0  0  0  0
 10 25  1  0  0  0  0
 11 12  2  0  0  0  0
 11 26  1  0  0  0  0
 12 27  1  0  0  0  0
 13 21  1  0  0  0  0
 13 25  2  0  0  0  0
 14 27  2  0  0  0  0
 14 28  1  0  0  0  0
 15 22  2  0  0  0  0
 15 65  1  0  0  0  0
 16 29  1  0  0  0  0
 17 29  1  0  0  0  0
 17 31  2  0  0  0  0
 17 32  1  0  0  0  0
 18 20  2  0  0  0  0
 18 37  1  0  0  0  0
 19 21  2  0  0  0  0
 19 38  1  0  0  0  0
 20 46  1  0  0  0  0
 21 39  1  0  0  0  0
 22 23  1  0  0  0  0
 22 56  1  0  0  0  0
 23 30  2  0  0  0  0
 23 71  1  0  0  0  0
 24 82  1  0  0  0  0
 25 83  1  0  0  0  0
 26 28  2  0  0  0  0
 26 82  1  0  0  0  0
 27 84  1  0  0  0  0
 28 85  1  0  0  0  0
 29 64  2  0  0  0  0
 30 49  1  0  0  0  0
 30 65  1  0  0  0  0
 31 66  1  0  0  0  0
 31 69  1  0  0  0  0
 32 70  1  0  0  0  0
 32 77  2  0  0  0  0
 33 47  1  0  0  0  0
 33 72  1  0  0  0  0
 33 78  2  0  0  0  0
 34 60  1  0  0  0  0
 34 67  1  0  0  0  0
 34 79  2  0  0  0  0
 35 61  1  0  0  0  0
 35 73  1  0  0  0  0
 35 80  2  0  0  0  0
 36 68  1  0  0  0  0
 36 74  1  0  0  0  0
 36 81  2  0  0  0  0
 37 40  1  0  0  0  0
 38 47  1  0  0  0  0
 39 67  1  0  0  0  0
 40 42  1  0  0  0  0
 41 43  1  0  0  0  0
 41 44  1  0  0  0  0
 42 46  1  0  0  0  0
 43 48  1  0  0  0  0
 44 68  1  0  0  0  0
 45 48  1  0  0  0  0
 45 68  1  0  0  0  0
 46 72  1  0  0  0  0
 47 67  1  0  0  0  0
 48 66  1  0  0  0  0
 50 61  1  0  0  0  0
 51 62  1  0  0  0  0
 52 63  1  0  0  0  0
 53 63  1  0  0  0  0
 54 63  1  0  0  0  0
 55 76  1  0  0  0  0
 56 74  1  0  0  0  0
 57 58  1  0  0  0  0
 57 65  1  0  0  0  0
 58 75  1  0  0  0  0
 59 62  1  0  0  0  0
 59 83  1  0  0  0  0
 60 63  1  0  0  0  0
 60 73  1  0  0  0  0
 61 76  1  0  0  0  0
 62 71  1  0  0  0  0
 64 66  1  0  0  0  0
M  CHG  2  75   1  76   1
M  ISO  4  36 100  59 101  74 100  83 101
M  END
> <Batch ID>
0112

> <Smiles>
CNC(C)C(=O)NC(C(=O)N1Cc2cc([101O:1][101CH2:1]C(C)Nc3c(C[100NH:0][100C:0](=O)N4CCCC(n5nc(-c6ccc(Oc7ccc(F)cc7F)cc6)c(C(N)=O)c5N)C4)cn(CCN)c3C)ccc2CC1C(=O)NC1CCCc2ccccc21)C(C)(C)C

> <Shape>
0.178

> <Color>
0.180

> <Negative vol penalty>
0.000

$$$$

  -OEChem-04052320033D

 82 90  0     1  0  0  0  0  0999 V2000
  -23.9373  -30.9388   26.9409 C   0  0  0  0  0  0  0  0  0  0  0  0
  -23.4366  -30.8717   25.6447 C   0  0  0  0  0  0  0  0  0  0  0  0
  -27.5480  -16.8185   21.6132 C   0  0  0  0  0  0  0  0  0  0  0  0
  -25.8037  -16.6327   19.9520 C   0  0  0  0  0  0  0  0  0  0  0  0
  -25.3010  -31.1394   27.1507 C   0  0  0  0  0  0  0  0  0  0  0  0
  -24.2993  -31.0063   24.5574 C   0  0  0  0  0  0  0  0  0  0  0  0
  -23.4205  -27.5698   20.9431 C   0  0  0  0  0  0  0  0  0  0  0  0
  -27.7312  -15.4363   21.5756 C   0  0  0  0  0  0  0  0  0  0  0  0
  -25.9869  -15.2504   19.9143 C   0  0  0  0  0  0  0  0  0  0  0  0
  -22.3337  -27.7965   20.0997 C   0  0  0  0  0  0  0  0  0  0  0  0
  -25.1141  -12.5699   21.7808 C   0  0  0  0  0  0  0  0  0  0  0  0
  -23.9754  -11.7646   21.7982 C   0  0  0  0  0  0  0  0  0  0  0  0
  -23.8302  -28.6479   18.4101 C   0  0  0  0  0  0  0  0  0  0  0  0
  -24.6059  -10.8269   19.6627 C   0  0  0  0  0  0  0  0  0  0  0  0
  -26.5842  -17.4168   20.8015 C   0  0  0  0  0  0  0  0  0  0  0  0
  -27.3473  -19.8373   20.5442 C   0  0  0  0  0  0  0  0  0  0  0  0
  -26.1822  -31.2669   26.0654 C   0  0  0  0  0  0  0  0  0  0  0  0
  -24.7214  -27.8912   20.5298 C   0  0  0  0  0  0  0  0  0  0  0  0
  -25.6758  -31.2102   24.7529 C   0  0  0  0  0  0  0  0  0  0  0  0
  -24.9321  -28.4220   19.2492 C   0  0  0  0  0  0  0  0  0  0  0  0
  -26.9506  -14.6522   20.7261 C   0  0  0  0  0  0  0  0  0  0  0  0
  -22.5382  -28.3383   18.8341 C   0  0  0  0  0  0  0  0  0  0  0  0
  -25.9987  -12.5038   20.7044 C   0  0  0  0  0  0  0  0  0  0  0  0
  -23.7213  -10.8931   20.7392 C   0  0  0  0  0  0  0  0  0  0  0  0
  -25.7446  -11.6323   19.6453 C   0  0  0  0  0  0  0  0  0  0  0  0
  -26.3942  -18.8445   20.8403 C   0  0  0  0  0  0  0  0  0  0  0  0
  -26.6775  -21.0222   20.7287 C   0  0  0  0  0  0  0  0  0  0  0  0
  -28.7156  -19.7008   20.1384 C   0  0  0  0  0  0  0  0  0  0  0  0
  -20.3431  -25.5799   15.7658 C   0  0  0  0  0  0  0  0  0  0  0  0
  -26.9719  -29.8880   21.5553 C   0  0  0  0  0  0  0  0  0  0  0  0
  -28.7567  -28.4310   19.2718 C   0  0  0  0  0  0  0  0  0  0  0  0
  -28.8465  -26.6704   16.3497 C   0  0  0  0  0  0  0  0  0  0  0  0
  -20.8811  -22.5066   20.5080 C   0  0  0  0  0  0  0  0  0  0  0  0
  -27.6413  -31.5298   26.3421 C   0  0  0  0  0  0  0  0  0  0  0  0
  -25.8857  -27.6157   21.4412 C   0  0  0  0  0  0  0  0  0  0  0  0
  -26.3110  -28.7653   18.7500 C   0  0  0  0  0  0  0  0  0  0  0  0
  -28.5434  -31.2883   25.1345 C   0  0  0  0  0  0  0  0  0  0  0  0
  -23.1006  -22.9470   23.2569 C   0  0  0  0  0  0  0  0  0  0  0  0
  -27.9498  -31.9347   23.8869 C   0  0  0  0  0  0  0  0  0  0  0  0
  -24.2824  -22.0351   22.9225 C   0  0  0  0  0  0  0  0  0  0  0  0
  -20.6316  -23.8927   17.5460 C   0  0  0  0  0  0  0  0  0  0  0  0
  -21.7733  -22.3364   22.8127 C   0  0  0  0  0  0  0  0  0  0  0  0
  -22.9024  -21.0216   21.0605 C   0  0  0  0  0  0  0  0  0  0  0  0
  -19.5428  -23.2839   15.3493 C   0  0  0  0  0  0  0  0  0  0  0  0
  -19.9217  -21.5127   17.0824 C   0  0  0  0  0  0  0  0  0  0  0  0
  -26.5834  -31.3269   23.5476 C   0  0  1  0  0  0  0  0  0  0  0  0
  -19.7332  -24.3687   16.4010 C   0  0  2  0  0  0  0  0  0  0  0  0
  -27.1140  -28.4590   21.1131 C   0  0  1  0  0  0  0  0  0  0  0  0
  -24.2681  -21.6199   21.4391 C   0  0  2  0  0  0  0  0  0  0  0  0
  -20.1123  -22.5843   18.1496 C   0  0  1  0  0  0  0  0  0  0  0  0
  -30.4523  -25.6549   14.7103 C   0  0  0  0  0  0  0  0  0  0  0  0
  -29.3721  -31.2050   18.1599 C   0  0  0  0  0  0  0  0  0  0  0  0
  -30.1485  -30.1094   16.0468 C   0  0  0  0  0  0  0  0  0  0  0  0
  -31.3223  -29.6398   18.1972 C   0  0  0  0  0  0  0  0  0  0  0  0
  -27.7769  -23.9496   16.8105 C   0  0  0  0  0  0  0  0  0  0  0  0
  -20.4404  -28.0609   15.8993 C   0  0  0  0  0  0  0  0  0  0  0  0
  -21.7196  -28.4734   16.6053 C   0  0  0  0  0  0  0  0  0  1  0  0
  -29.0198  -28.6720   17.8050 C   0  0  1  0  0  0  0  0  0  0  0  0
  -29.6059  -25.4178   15.9513 C   0  0  2  0  0  0  0  0  0  0  0  0
  -29.9394  -29.9020   17.5621 C   0  0  0  0  0  0  0  0  0  0  0  0
  -25.2092  -19.3542   21.1869 N   0  0  0  0  0  0  0  0  0  0  0  0
  -25.4133  -20.6803   21.1097 N   0  0  0  0  0  0  0  0  0  0  0  0
  -27.4165  -28.4834   19.6806 N   0  0  0  0  0  0  0  0  0  0  0  0
  -21.8254  -21.9661   21.3963 N   0  0  0  0  0  0  0  0  0  0  0  0
  -27.0525  -22.3127   20.6008 N   0  0  0  0  0  0  0  0  0  0  0  0
  -29.2450  -18.4108   19.9968 N   0  0  0  0  0  0  0  0  0  0  0  0
  -26.7478  -30.0379   22.9105 N   0  0  0  0  0  0  0  0  0  0  0  0
  -19.9696  -26.7786   16.3514 N   0  0  0  0  0  0  0  0  0  0  0  0
  -29.5449  -27.4191   17.2732 N   0  0  0  0  0  0  0  0  0  0  0  0
  -21.0054  -22.1087   19.1825 N   0  0  0  0  0  0  0  0  0  0  0  0
  -19.0296  -22.0460   16.0078 N   0  3  0  0  0  0  0  0  0  0  0  0
  -28.6564  -24.3048   15.6671 N   0  3  0  0  0  0  0  0  0  0  0  0
  -29.4519  -20.6935   19.9241 O   0  0  0  0  0  0  0  0  0  0  0  0
  -21.1012  -25.4452   14.8125 O   0  0  0  0  0  0  0  0  0  0  0  0
  -27.0605  -30.7880   20.7283 O   0  0  0  0  0  0  0  0  0  0  0  0
  -29.7046  -28.1976   20.0259 O   0  0  0  0  0  0  0  0  0  0  0  0
  -27.7456  -26.9580   15.8850 O   0  0  0  0  0  0  0  0  0  0  0  0
  -19.9963  -23.2903   20.8684 O   0  0  0  0  0  0  0  0  0  0  0  0
  -27.1292  -13.3034   20.6889 O   0  0  0  0  0  0  0  0  0  0  0  0
  -21.4791  -28.5612   18.0091 O   0  0  0  0  0  0  0  0  0  1  0  0
  -22.6285  -10.1186   20.7568 F   0  0  0  0  0  0  0  0  0  0  0  0
  -26.5914  -11.5635   18.6090 F   0  0  0  0  0  0  0  0  0  0  0  0
  1  2  1  0  0  0  0
  1  5  2  0  0  0  0
  2  6  2  0  0  0  0
  3  8  2  0  0  0  0
  3 15  1  0  0  0  0
  4  9  1  0  0  0  0
  4 15  2  0  0  0  0
  5 17  1  0  0  0  0
  6 19  1  0  0  0  0
  7 10  2  0  0  0  0
  7 18  1  0  0  0  0
  8 21  1  0  0  0  0
  9 21  2  0  0  0  0
 10 22  1  0  0  0  0
 11 12  2  0  0  0  0
 11 23  1  0  0  0  0
 12 24  1  0  0  0  0
 13 20  1  0  0  0  0
 13 22  2  0  0  0  0
 14 24  2  0  0  0  0
 14 25  1  0  0  0  0
 15 26  1  0  0  0  0
 16 26  1  0  0  0  0
 16 27  2  0  0  0  0
 16 28  1  0  0  0  0
 17 19  2  0  0  0  0
 17 34  1  0  0  0  0
 18 20  2  0  0  0  0
 18 35  1  0  0  0  0
 19 46  1  0  0  0  0
 20 36  1  0  0  0  0
 21 79  1  0  0  0  0
 22 80  1  0  0  0  0
 23 25  2  0  0  0  0
 23 79  1  0  0  0  0
 24 81  1  0  0  0  0
 25 82  1  0  0  0  0
 26 61  2  0  0  0  0
 27 62  1  0  0  0  0
 27 65  1  0  0  0  0
 28 66  1  0  0  0  0
 28 73  2  0  0  0  0
 29 47  1  0  0  0  0
 29 68  1  0  0  0  0
 29 74  2  0  0  0  0
 30 48  1  0  0  0  0
 30 67  1  0  0  0  0
 30 75  2  0  0  0  0
 31 58  1  0  0  0  0
 31 63  1  0  0  0  0
 31 76  2  0  0  0  0
 32 59  1  0  0  0  0
 32 69  1  0  0  0  0
 32 77  2  0  0  0  0
 33 64  1  0  0  0  0
 33 70  1  0  0  0  0
 33 78  2  0  0  0  0
 34 37  1  0  0  0  0
 35 48  1  0  0  0  0
 36 63  1  0  0  0  0
 37 39  1  0  0  0  0
 38 40  1  0  0  0  0
 38 42  1  0  0  0  0
 39 46  1  0  0  0  0
 40 49  1  0  0  0  0
 41 47  1  0  0  0  0
 41 50  1  0  0  0  0
 42 64  1  0  0  0  0
 43 49  1  0  0  0  0
 43 64  1  0  0  0  0
 44 47  1  0  0  0  0
 44 71  1  0  0  0  0
 45 50  1  0  0  0  0
 45 71  1  0  0  0  0
 46 67  1  0  0  0  0
 48 63  1  0  0  0  0
 49 62  1  0  0  0  0
 50 70  1  0  0  0  0
 51 59  1  0  0  0  0
 52 60  1  0  0  0  0
 53 60  1  0  0  0  0
 54 60  1  0  0  0  0
 55 72  1  0  0  0  0
 56 57  1  0  0  0  0
 56 68  1  0  0  0  0
 57 80  1  0  0  0  0
 58 60  1  0  0  0  0
 58 69  1  0  0  0  0
 59 72  1  0  0  0  0
 61 62  1  0  0  0  0
M  CHG  2  71   1  72   1
M  ISO  4  33 100  57 101  70 100  80 101
M  END
> <Batch ID>
0112

> <Smiles>
CNC(C)C(=O)NC(C(=O)N1Cc2cc([101O:1][101CH2:1]CNC(=O)C3CNCC([100NH:0][100C:0](=O)N4CCCC(n5nc(-c6ccc(Oc7ccc(F)cc7F)cc6)c(C(N)=O)c5N)C4)C3)ccc2CC1C(=O)NC1CCCc2ccccc21)C(C)(C)C

> <Shape>
0.189

> <Color>
0.042

> <Negative vol penalty>
0.000

$$$$

  -OEChem-04052320033D

 86 94  0     1  0  0  0  0  0999 V2000
  -29.3997  -35.5123   20.3508 C   0  0  0  0  0  0  0  0  0  0  0  0
  -29.4607  -34.1250   20.4349 C   0  0  0  0  0  0  0  0  0  0  0  0
  -21.5797  -11.4481   20.4303 C   0  0  0  0  0  0  0  0  0  0  0  0
  -21.4101  -12.4162   18.2233 C   0  0  0  0  0  0  0  0  0  0  0  0
  -28.4612  -36.2147   21.1056 C   0  0  0  0  0  0  0  0  0  0  0  0
  -28.5838  -33.4393   21.2747 C   0  0  0  0  0  0  0  0  0  0  0  0
  -26.5667  -29.3560   19.0604 C   0  0  0  0  0  0  0  0  0  0  0  0
  -23.9028  -23.6327   18.8206 C   0  0  0  0  0  0  0  0  0  0  0  0
  -22.6995  -22.9648   19.0478 C   0  0  0  0  0  0  0  0  0  0  0  0
  -20.7816  -10.3792   20.0228 C   0  0  0  0  0  0  0  0  0  0  0  0
  -20.6120  -11.3473   17.8157 C   0  0  0  0  0  0  0  0  0  0  0  0
  -27.3660  -28.2168   18.9769 C   0  0  0  0  0  0  0  0  0  0  0  0
  -21.1571   -7.5239   18.2510 C   0  0  0  0  0  0  0  0  0  0  0  0
  -21.5622   -6.2385   18.6103 C   0  0  0  0  0  0  0  0  0  0  0  0
  -26.2278  -27.2853   20.8889 C   0  0  0  0  0  0  0  0  0  0  0  0
  -24.5480  -21.9300   17.2326 C   0  0  0  0  0  0  0  0  0  0  0  0
  -19.4939   -5.9244   19.8189 C   0  0  0  0  0  0  0  0  0  0  0  0
  -21.8939  -12.4666   19.5306 C   0  0  0  0  0  0  0  0  0  0  0  0
  -24.1210  -13.6599   19.8819 C   0  0  0  0  0  0  0  0  0  0  0  0
  -27.5659  -35.5365   21.9478 C   0  0  0  0  0  0  0  0  0  0  0  0
  -25.5976  -29.4733   20.0672 C   0  0  0  0  0  0  0  0  0  0  0  0
  -27.6333  -34.1334   22.0425 C   0  0  0  0  0  0  0  0  0  0  0  0
  -25.4157  -28.4259   20.9815 C   0  0  0  0  0  0  0  0  0  0  0  0
  -24.8270  -23.1153   17.9130 C   0  0  0  0  0  0  0  0  0  0  0  0
  -22.4204  -21.7795   18.3674 C   0  0  0  0  0  0  0  0  0  0  0  0
  -23.3447  -21.2621   17.4598 C   0  0  0  0  0  0  0  0  0  0  0  0
  -20.2978  -10.3287   18.7155 C   0  0  0  0  0  0  0  0  0  0  0  0
  -27.1986  -27.1824   19.8929 C   0  0  0  0  0  0  0  0  0  0  0  0
  -19.9203   -8.0096   18.6756 C   0  0  0  0  0  0  0  0  0  0  0  0
  -20.7306   -5.4387   19.3943 C   0  0  0  0  0  0  0  0  0  0  0  0
  -19.0888   -7.2099   19.4596 C   0  0  0  0  0  0  0  0  0  0  0  0
  -22.7178  -13.5714   19.9511 C   0  0  0  0  0  0  0  0  0  0  0  0
  -24.4130  -14.8974   20.4014 C   0  0  0  0  0  0  0  0  0  0  0  0
  -25.0753  -12.7087   19.3918 C   0  0  0  0  0  0  0  0  0  0  0  0
  -25.1165  -31.4664   22.4962 C   0  0  0  0  0  0  0  0  0  0  0  0
  -22.3484  -29.8035   22.8042 C   0  0  0  0  0  0  0  0  0  0  0  0
  -20.6282  -26.9107   22.2394 C   0  0  0  0  0  0  0  0  0  0  0  0
  -21.2744  -19.9771   20.8455 C   0  0  0  0  0  0  0  0  0  0  0  0
  -26.6003  -36.3424   22.7801 C   0  0  0  0  0  0  0  0  0  0  0  0
  -24.7253  -30.6971   20.1274 C   0  0  0  0  0  0  0  0  0  0  0  0
  -24.3756  -28.4940   22.0688 C   0  0  0  0  0  0  0  0  0  0  0  0
  -25.4583  -35.5130   23.3618 C   0  0  0  0  0  0  0  0  0  0  0  0
  -22.7606  -18.1391   23.5082 C   0  0  0  0  0  0  0  0  0  0  0  0
  -25.9944  -34.2253   23.9793 C   0  0  0  0  0  0  0  0  0  0  0  0
  -23.0447  -16.7680   22.8922 C   0  0  0  0  0  0  0  0  0  0  0  0
  -21.4572  -18.7353   22.9812 C   0  0  0  0  0  0  0  0  0  0  0  0
  -21.6428  -17.4358   20.8954 C   0  0  0  0  0  0  0  0  0  0  0  0
  -26.6826  -33.3520   22.9233 C   0  0  1  0  0  0  0  0  0  0  0  0
  -24.1192  -30.9316   21.5077 C   0  0  1  0  0  0  0  0  0  0  0  0
  -22.9752  -16.8190   21.3541 C   0  0  2  0  0  0  0  0  0  0  0  0
  -24.0849  -18.8874   17.0519 C   0  0  0  0  0  0  0  0  0  0  0  0
  -23.0020  -20.2065   15.1966 C   0  0  0  0  0  0  0  0  0  0  0  0
  -18.3965  -25.8355   22.6404 C   0  0  0  0  0  0  0  0  0  0  0  0
  -29.6085  -23.6710   19.4586 C   0  0  0  0  0  0  0  0  0  0  0  0
  -23.1031  -29.3309   25.7226 C   0  0  0  0  0  0  0  0  0  0  0  0
  -21.3835  -27.5129   25.8004 C   0  0  0  0  0  0  0  0  0  0  0  0
  -20.6896  -29.8649   25.3426 C   0  0  0  0  0  0  0  0  0  0  0  0
  -20.1146  -26.6252   19.3388 C   0  0  0  0  0  0  0  0  0  0  0  0
  -26.1283  -23.8374   17.6679 C   0  0  0  0  0  0  0  0  0  0  0  0
  -21.1260  -21.0816   18.6280 C   0  0  0  0  0  0  0  0  0  0  0  0
  -27.2685  -23.4019   18.5987 C   0  0  0  0  0  0  0  0  0  0  0  0
  -28.4406  -25.6913   18.5182 C   0  0  0  0  0  0  0  0  0  1  0  0
  -23.0677  -19.9945   16.7201 C   0  0  0  0  0  0  0  0  0  0  0  0
  -21.9225  -28.5665   23.5575 C   0  0  1  0  0  0  0  0  0  0  0  0
  -19.2406  -26.6570   21.6784 C   0  0  2  0  0  0  0  0  0  0  0  0
  -28.5976  -24.1680   18.4173 C   0  0  1  0  0  0  0  0  0  0  0  0
  -21.7957  -28.8181   25.0866 C   0  0  0  0  0  0  0  0  0  0  0  0
  -22.1572  -14.6654   20.4735 N   0  0  0  0  0  0  0  0  0  0  0  0
  -23.2136  -15.4531   20.7374 N   0  0  0  0  0  0  0  0  0  0  0  0
  -23.5516  -29.7139   22.0901 N   0  0  0  0  0  0  0  0  0  0  0  0
  -21.4559  -18.7564   21.5164 N   0  0  0  0  0  0  0  0  0  0  0  0
  -25.5761  -15.5535   20.5991 N   0  0  0  0  0  0  0  0  0  0  0  0
  -24.6045  -11.4865   18.8927 N   0  0  0  0  0  0  0  0  0  0  0  0
  -25.6978  -32.6617   22.1184 N   0  0  0  0  0  0  0  0  0  0  0  0
  -20.6918  -28.1061   22.9236 N   0  0  0  0  0  0  0  0  0  0  0  0
  -21.2929  -19.9092   19.4577 N   0  0  0  0  0  0  0  0  0  0  0  0
  -19.3311  -25.9206   20.3859 N   0  3  0  0  0  0  0  0  0  0  0  0
  -26.3100  -12.9290   19.4115 O   0  0  0  0  0  0  0  0  0  0  0  0
  -25.3409  -30.8415   23.5262 O   0  0  0  0  0  0  0  0  0  0  0  0
  -21.6360  -30.8099   22.8421 O   0  0  0  0  0  0  0  0  0  0  0  0
  -21.5613  -26.1250   22.0891 O   0  0  0  0  0  0  0  0  0  0  0  0
  -21.1135  -21.0488   21.4392 O   0  0  0  0  0  0  0  0  0  0  0  0
  -19.5192   -9.2857   18.3174 O   0  0  0  0  0  0  0  0  0  0  0  0
  -27.9779  -26.0696   19.8140 O   0  0  0  0  0  0  0  0  0  1  0  0
  -21.1192   -4.2038   19.7380 F   0  0  0  0  0  0  0  0  0  0  0  0
  -17.8990   -7.6706   19.8695 F   0  0  0  0  0  0  0  0  0  0  0  0
  1  2  1  0  0  0  0
  1  5  2  0  0  0  0
  2  6  2  0  0  0  0
  3 10  2  0  0  0  0
  3 18  1  0  0  0  0
  4 11  1  0  0  0  0
  4 18  2  0  0  0  0
  5 20  1  0  0  0  0
  6 22  1  0  0  0  0
  7 12  2  0  0  0  0
  7 21  1  0  0  0  0
  8  9  2  0  0  0  0
  8 24  1  0  0  0  0
  9 25  1  0  0  0  0
 10 27  1  0  0  0  0
 11 27  2  0  0  0  0
 12 28  1  0  0  0  0
 13 14  2  0  0  0  0
 13 29  1  0  0  0  0
 14 30  1  0  0  0  0
 15 23  1  0  0  0  0
 15 28  2  0  0  0  0
 16 24  2  0  0  0  0
 16 26  1  0  0  0  0
 17 30  2  0  0  0  0
 17 31  1  0  0  0  0
 18 32  1  0  0  0  0
 19 32  1  0  0  0  0
 19 33  2  0  0  0  0
 19 34  1  0  0  0  0
 20 22  2  0  0  0  0
 20 39  1  0  0  0  0
 21 23  2  0  0  0  0
 21 40  1  0  0  0  0
 22 48  1  0  0  0  0
 23 41  1  0  0  0  0
 24 59  1  0  0  0  0
 25 26  2  0  0  0  0
 25 60  1  0  0  0  0
 26 63  1  0  0  0  0
 27 83  1  0  0  0  0
 28 84  1  0  0  0  0
 29 31  2  0  0  0  0
 29 83  1  0  0  0  0
 30 85  1  0  0  0  0
 31 86  1  0  0  0  0
 32 68  2  0  0  0  0
 33 69  1  0  0  0  0
 33 72  1  0  0  0  0
 34 73  1  0  0  0  0
 34 78  2  0  0  0  0
 35 49  1  0  0  0  0
 35 74  1  0  0  0  0
 35 79  2  0  0  0  0
 36 64  1  0  0  0  0
 36 70  1  0  0  0  0
 36 80  2  0  0  0  0
 37 65  1  0  0  0  0
 37 75  1  0  0  0  0
 37 81  2  0  0  0  0
 38 71  1  0  0  0  0
 38 76  1  0  0  0  0
 38 82  2  0  0  0  0
 39 42  1  0  0  0  0
 40 49  1  0  0  0  0
 41 70  1  0  0  0  0
 42 44  1  0  0  0  0
 43 45  1  0  0  0  0
 43 46  1  0  0  0  0
 44 48  1  0  0  0  0
 45 50  1  0  0  0  0
 46 71  1  0  0  0  0
 47 50  1  0  0  0  0
 47 71  1  0  0  0  0
 48 74  1  0  0  0  0
 49 70  1  0  0  0  0
 50 69  1  0  0  0  0
 51 63  1  0  0  0  0
 52 63  1  0  0  0  0
 53 65  1  0  0  0  0
 54 66  1  0  0  0  0
 55 67  1  0  0  0  0
 56 67  1  0  0  0  0
 57 67  1  0  0  0  0
 58 77  1  0  0  0  0
 59 61  1  0  0  0  0
 60 76  1  0  0  0  0
 61 66  1  0  0  0  0
 62 66  1  0  0  0  0
 62 84  1  0  0  0  0
 64 67  1  0  0  0  0
 64 75  1  0  0  0  0
 65 77  1  0  0  0  0
 68 69  1  0  0  0  0
M  CHG  1  77   1
M  ISO  4  38 100  62 101  76 100  84 101
M  END
> <Batch ID>
0112

> <Smiles>
CNC(C)C(=O)NC(C(=O)N1Cc2cc([101O:1][101CH2:1]C(C)CCc3ccc(C[100NH:0][100C:0](=O)N4CCCC(n5nc(-c6ccc(Oc7ccc(F)cc7F)cc6)c(C(N)=O)c5N)C4)c(C(C)C)c3)ccc2CC1C(=O)NC1CCCc2ccccc21)C(C)(C)C

> <Shape>
0.194

> <Color>
0.095

> <Negative vol penalty>
0.000

$$$$

  -OEChem-04052320033D

 89 97  0     1  0  0  0  0  0999 V2000
  -17.1698  -13.3872   23.0666 C   0  0  0  0  0  0  0  0  0  0  0  0
  -18.1079  -14.4144   23.0598 C   0  0  0  0  0  0  0  0  0  0  0  0
  -27.3010  -24.5699   19.5638 C   0  0  0  0  0  0  0  0  0  0  0  0
  -28.8413  -25.1492   21.3326 C   0  0  0  0  0  0  0  0  0  0  0  0
  -17.5872  -12.0644   23.2081 C   0  0  0  0  0  0  0  0  0  0  0  0
  -19.4640  -14.1196   23.1956 C   0  0  0  0  0  0  0  0  0  0  0  0
  -22.3467  -16.6787   19.9113 C   0  0  0  0  0  0  0  0  0  0  0  0
  -27.5295  -23.2158   19.8082 C   0  0  0  0  0  0  0  0  0  0  0  0
  -29.0699  -23.7950   21.5771 C   0  0  0  0  0  0  0  0  0  0  0  0
  -22.6150  -18.0147   20.2060 C   0  0  0  0  0  0  0  0  0  0  0  0
  -27.9817  -19.6085   19.7284 C   0  0  0  0  0  0  0  0  0  0  0  0
  -28.1877  -18.7752   18.6289 C   0  0  0  0  0  0  0  0  0  0  0  0
  -24.7847  -17.3859   21.0524 C   0  0  0  0  0  0  0  0  0  0  0  0
  -30.1150  -20.0872   17.9956 C   0  0  0  0  0  0  0  0  0  0  0  0
  -27.9569  -25.5366   20.3260 C   0  0  0  0  0  0  0  0  0  0  0  0
  -27.9570  -27.6343   18.8744 C   0  0  0  0  0  0  0  0  0  0  0  0
  -18.9499  -11.7524   23.3359 C   0  0  0  0  0  0  0  0  0  0  0  0
  -23.2926  -15.6832   20.1954 C   0  0  0  0  0  0  0  0  0  0  0  0
  -19.9000  -12.7916   23.3402 C   0  0  0  0  0  0  0  0  0  0  0  0
  -24.5270  -16.0383   20.7579 C   0  0  0  0  0  0  0  0  0  0  0  0
  -28.4139  -22.8283   20.8149 C   0  0  0  0  0  0  0  0  0  0  0  0
  -23.8330  -18.3681   20.7793 C   0  0  0  0  0  0  0  0  0  0  0  0
  -28.8423  -20.6812   19.9614 C   0  0  0  0  0  0  0  0  0  0  0  0
  -29.2543  -19.0145   17.7625 C   0  0  0  0  0  0  0  0  0  0  0  0
  -29.9090  -20.9205   19.0950 C   0  0  0  0  0  0  0  0  0  0  0  0
  -27.7217  -26.9356   20.0736 C   0  0  0  0  0  0  0  0  0  0  0  0
  -27.5735  -28.9245   19.1478 C   0  0  0  0  0  0  0  0  0  0  0  0
  -28.4757  -27.1596   17.6249 C   0  0  0  0  0  0  0  0  0  0  0  0
  -23.4548  -25.7064   22.0898 C   0  0  0  0  0  0  0  0  0  0  0  0
  -23.3548  -13.1177   22.0710 C   0  0  0  0  0  0  0  0  0  0  0  0
  -26.2104  -12.6068   20.6195 C   0  0  0  0  0  0  0  0  0  0  0  0
  -28.8861  -13.9106   18.9500 C   0  0  0  0  0  0  0  0  0  0  0  0
  -23.7465  -31.2902   23.0987 C   0  0  0  0  0  0  0  0  0  0  0  0
  -19.3493  -10.3116   23.5338 C   0  0  0  0  0  0  0  0  0  0  0  0
  -22.9985  -14.2499   19.8468 C   0  0  0  0  0  0  0  0  0  0  0  0
  -25.5842  -15.0101   21.0637 C   0  0  0  0  0  0  0  0  0  0  0  0
  -20.8349  -10.0532   23.2961 C   0  0  0  0  0  0  0  0  0  0  0  0
  -27.2117  -32.0367   22.7637 C   0  0  0  0  0  0  0  0  0  0  0  0
  -21.6801  -11.1074   24.0040 C   0  0  0  0  0  0  0  0  0  0  0  0
  -27.7565  -30.8770   21.9281 C   0  0  0  0  0  0  0  0  0  0  0  0
  -21.0837  -25.7667   23.0708 C   0  0  0  0  0  0  0  0  0  0  0  0
  -26.1248  -31.5733   23.7312 C   0  0  0  0  0  0  0  0  0  0  0  0
  -25.5596  -29.6707   22.2702 C   0  0  0  0  0  0  0  0  0  0  0  0
  -21.3820  -12.5099   23.4601 C   0  0  1  0  0  0  0  0  0  0  0  0
  -22.3354  -26.4908   22.6896 C   0  0  2  0  0  0  0  0  0  0  0  0
  -23.8299  -13.2563   20.6523 C   0  0  1  0  0  0  0  0  0  0  0  0
  -21.0911  -26.6845   21.8814 C   0  0  2  0  0  0  0  0  0  0  0  0
  -26.6190  -30.0986   21.2402 C   0  0  2  0  0  0  0  0  0  0  0  0
  -31.0805  -13.2522   17.9260 C   0  0  0  0  0  0  0  0  0  0  0  0
  -24.0167  -21.0289   23.6365 C   0  0  0  0  0  0  0  0  0  0  0  0
  -27.4488  -12.4163   23.4016 C   0  0  0  0  0  0  0  0  0  0  0  0
  -29.6986  -12.7142   22.3444 C   0  0  0  0  0  0  0  0  0  0  0  0
  -28.3017  -10.7311   21.7624 C   0  0  0  0  0  0  0  0  0  0  0  0
  -21.3401  -31.2078   19.8599 C   0  0  0  0  0  0  0  0  0  0  0  0
  -19.2044  -30.8988   21.1174 C   0  0  0  0  0  0  0  0  0  0  0  0
  -28.0277  -14.7942   16.2591 C   0  0  0  0  0  0  0  0  0  0  0  0
  -24.4216  -22.5511   21.6288 C   0  0  0  0  0  0  0  0  0  0  0  0
  -20.8452  -28.9496   20.8158 C   0  0  0  0  0  0  0  0  0  0  0  0
  -24.9219  -23.7327   22.4572 C   0  0  0  0  0  0  0  0  0  0  0  0
  -21.4100  -30.8836   22.3677 C   0  0  0  0  0  0  0  0  0  0  0  0
  -22.9846  -20.5022   21.3973 C   0  0  0  0  0  0  0  0  0  1  0  0
  -27.6381  -13.0118   20.8965 C   0  0  1  0  0  0  0  0  0  0  0  0
  -29.5951  -13.4691   17.6824 C   0  0  2  0  0  0  0  0  0  0  0  0
  -20.3749  -27.9894   21.9382 C   0  0  1  0  0  0  0  0  0  0  0  0
  -23.4264  -21.6210   22.3520 C   0  0  1  0  0  0  0  0  0  0  0  0
  -28.2513  -12.2377   22.0974 C   0  0  0  0  0  0  0  0  0  0  0  0
  -20.6838  -30.4841   21.0583 C   0  0  0  0  0  0  0  0  0  0  0  0
  -27.2272  -27.7171   21.0373 N   0  0  0  0  0  0  0  0  0  0  0  0
  -27.1487  -28.9204   20.4439 N   0  0  0  0  0  0  0  0  0  0  0  0
  -25.2469  -13.6213   20.7103 N   0  0  0  0  0  0  0  0  0  0  0  0
  -25.0756  -30.8433   23.0155 N   0  0  0  0  0  0  0  0  0  0  0  0
  -27.5616  -30.0508   18.4038 N   0  0  0  0  0  0  0  0  0  0  0  0
  -29.8614  -27.1986   17.4186 N   0  0  0  0  0  0  0  0  0  0  0  0
  -22.0400  -12.7084   22.1865 N   0  0  0  0  0  0  0  0  0  0  0  0
  -23.8628  -24.6209   22.8497 N   0  0  0  0  0  0  0  0  0  0  0  0
  -28.3621  -12.8391   19.6418 N   0  0  0  0  0  0  0  0  0  0  0  0
  -22.8156  -30.5451   22.3853 N   0  0  0  0  0  0  0  0  0  0  0  0
  -18.8839  -27.8296   21.8273 N   0  3  0  0  0  0  0  0  0  0  0  0
  -29.4391  -14.4986   16.6162 N   0  3  0  0  0  0  0  0  0  0  0  0
  -27.7310  -26.7293   16.7118 O   0  0  0  0  0  0  0  0  0  0  0  0
  -23.9241  -26.0510   21.0115 O   0  0  0  0  0  0  0  0  0  0  0  0
  -24.1244  -13.3624   22.9926 O   0  0  0  0  0  0  0  0  0  0  0  0
  -25.9603  -11.4350   20.3262 O   0  0  0  0  0  0  0  0  0  0  0  0
  -28.8084  -15.0879   19.2942 O   0  0  0  0  0  0  0  0  0  0  0  0
  -23.4149  -32.2830   23.7555 O   0  0  0  0  0  0  0  0  0  0  0  0
  -28.6370  -21.5071   21.0538 O   0  0  0  0  0  0  0  0  0  0  0  0
  -24.0972  -19.6713   21.0686 O   0  0  0  0  0  0  0  0  0  1  0  0
  -29.4529  -18.2133   16.7077 F   0  0  0  0  0  0  0  0  0  0  0  0
  -30.7399  -21.9488   19.3144 F   0  0  0  0  0  0  0  0  0  0  0  0
  1  2  1  0  0  0  0
  1  5  2  0  0  0  0
  2  6  2  0  0  0  0
  3  8  2  0  0  0  0
  3 15  1  0  0  0  0
  4  9  1  0  0  0  0
  4 15  2  0  0  0  0
  5 17  1  0  0  0  0
  6 19  1  0  0  0  0
  7 10  2  0  0  0  0
  7 18  1  0  0  0  0
  8 21  1  0  0  0  0
  9 21  2  0  0  0  0
 10 22  1  0  0  0  0
 11 12  2  0  0  0  0
 11 23  1  0  0  0  0
 12 24  1  0  0  0  0
 13 20  1  0  0  0  0
 13 22  2  0  0  0  0
 14 24  2  0  0  0  0
 14 25  1  0  0  0  0
 15 26  1  0  0  0  0
 16 26  1  0  0  0  0
 16 27  2  0  0  0  0
 16 28  1  0  0  0  0
 17 19  2  0  0  0  0
 17 34  1  0  0  0  0
 18 20  2  0  0  0  0
 18 35  1  0  0  0  0
 19 44  1  0  0  0  0
 20 36  1  0  0  0  0
 21 86  1  0  0  0  0
 22 87  1  0  0  0  0
 23 25  2  0  0  0  0
 23 86  1  0  0  0  0
 24 88  1  0  0  0  0
 25 89  1  0  0  0  0
 26 68  2  0  0  0  0
 27 69  1  0  0  0  0
 27 72  1  0  0  0  0
 28 73  1  0  0  0  0
 28 80  2  0  0  0  0
 29 45  1  0  0  0  0
 29 75  1  0  0  0  0
 29 81  2  0  0  0  0
 30 46  1  0  0  0  0
 30 74  1  0  0  0  0
 30 82  2  0  0  0  0
 31 62  1  0  0  0  0
 31 70  1  0  0  0  0
 31 83  2  0  0  0  0
 32 63  1  0  0  0  0
 32 76  1  0  0  0  0
 32 84  2  0  0  0  0
 33 71  1  0  0  0  0
 33 77  1  0  0  0  0
 33 85  2  0  0  0  0
 34 37  1  0  0  0  0
 35 46  1  0  0  0  0
 36 70  1  0  0  0  0
 37 39  1  0  0  0  0
 38 40  1  0  0  0  0
 38 42  1  0  0  0  0
 39 44  1  0  0  0  0
 40 48  1  0  0  0  0
 41 45  1  0  0  0  0
 41 47  1  0  0  0  0
 42 71  1  0  0  0  0
 43 48  1  0  0  0  0
 43 71  1  0  0  0  0
 44 74  1  0  0  0  0
 45 47  1  0  0  0  0
 46 70  1  0  0  0  0
 47 64  1  0  0  0  0
 48 69  1  0  0  0  0
 49 63  1  0  0  0  0
 50 65  1  0  0  0  0
 51 66  1  0  0  0  0
 52 66  1  0  0  0  0
 53 66  1  0  0  0  0
 54 67  1  0  0  0  0
 55 67  1  0  0  0  0
 56 79  1  0  0  0  0
 57 59  1  0  0  0  0
 57 65  1  0  0  0  0
 58 64  1  0  0  0  0
 58 67  1  0  0  0  0
 59 75  1  0  0  0  0
 60 67  1  0  0  0  0
 60 77  1  0  0  0  0
 61 65  1  0  0  0  0
 61 87  1  0  0  0  0
 62 66  1  0  0  0  0
 62 76  1  0  0  0  0
 63 79  1  0  0  0  0
 64 78  1  0  0  0  0
 68 69  1  0  0  0  0
M  CHG  2  78   1  79   1
M  ISO  4  33 100  61 101  77 100  87 101
M  END
> <Batch ID>
0112

> <Smiles>
CNC(C)C(=O)NC(C(=O)N1Cc2cc([101O:1][101CH2:1]C(C)CCNC(=O)C3CC3C(N)CC(C)(C)C[100NH:0][100C:0](=O)N3CCCC(n4nc(-c5ccc(Oc6ccc(F)cc6F)cc5)c(C(N)=O)c4N)C3)ccc2CC1C(=O)NC1CCCc2ccccc21)C(C)(C)C

> <Shape>
0.250

> <Color>
0.054

> <Negative vol penalty>
0.000

$$$$

  -OEChem-04052320033D

 87 95  0     1  0  0  0  0  0999 V2000
  -26.8729  -21.0244   27.4653 C   0  0  0  0  0  0  0  0  0  0  0  0
  -27.3974  -21.3528   26.2193 C   0  0  0  0  0  0  0  0  0  0  0  0
  -24.3573   -9.2631   21.3922 C   0  0  0  0  0  0  0  0  0  0  0  0
  -24.3798  -10.6931   23.3395 C   0  0  0  0  0  0  0  0  0  0  0  0
  -25.5904  -21.4460   27.8136 C   0  0  0  0  0  0  0  0  0  0  0  0
  -26.6391  -22.1020   25.3204 C   0  0  0  0  0  0  0  0  0  0  0  0
  -29.3195  -25.7945   23.1235 C   0  0  0  0  0  0  0  0  0  0  0  0
  -24.1987   -8.1470   22.2136 C   0  0  0  0  0  0  0  0  0  0  0  0
  -24.2212   -9.5770   24.1609 C   0  0  0  0  0  0  0  0  0  0  0  0
  -30.1754  -25.4288   22.0855 C   0  0  0  0  0  0  0  0  0  0  0  0
  -23.4257   -4.9569   23.7759 C   0  0  0  0  0  0  0  0  0  0  0  0
  -22.4774   -4.0052   23.4009 C   0  0  0  0  0  0  0  0  0  0  0  0
  -28.5348  -26.1696   20.4797 C   0  0  0  0  0  0  0  0  0  0  0  0
  -28.7256  -20.2467   20.0611 C   0  0  0  0  0  0  0  0  0  0  0  0
  -20.7431   -5.6823   23.5307 C   0  0  0  0  0  0  0  0  0  0  0  0
  -31.0310  -19.2041   21.0829 C   0  0  0  0  0  0  0  0  0  0  0  0
  -24.4479  -10.5362   21.9551 C   0  0  0  0  0  0  0  0  0  0  0  0
  -23.5947  -12.4791   20.5393 C   0  0  0  0  0  0  0  0  0  0  0  0
  -24.8197  -22.2090   26.9222 C   0  0  0  0  0  0  0  0  0  0  0  0
  -28.0582  -26.3413   22.8468 C   0  0  0  0  0  0  0  0  0  0  0  0
  -25.3445  -22.5331   25.6565 C   0  0  0  0  0  0  0  0  0  0  0  0
  -27.6657  -26.5438   21.5159 C   0  0  0  0  0  0  0  0  0  0  0  0
  -28.6646  -19.1127   20.8634 C   0  0  0  0  0  0  0  0  0  0  0  0
  -29.8347  -18.5752   21.3880 C   0  0  0  0  0  0  0  0  0  0  0  0
  -24.1306   -8.3039   23.5980 C   0  0  0  0  0  0  0  0  0  0  0  0
  -29.7820  -25.6137   20.7633 C   0  0  0  0  0  0  0  0  0  0  0  0
  -23.0327   -6.2712   24.0284 C   0  0  0  0  0  0  0  0  0  0  0  0
  -21.1361   -4.3679   23.2783 C   0  0  0  0  0  0  0  0  0  0  0  0
  -21.6915   -6.6339   23.9058 C   0  0  0  0  0  0  0  0  0  0  0  0
  -24.6124  -11.6894   21.1072 C   0  0  0  0  0  0  0  0  0  0  0  0
  -29.9716  -20.8009   19.8155 C   0  0  0  0  0  0  0  0  0  0  0  0
  -24.2652  -13.4420   19.8254 C   0  0  0  0  0  0  0  0  0  0  0  0
  -22.1705  -12.3535   20.6475 C   0  0  0  0  0  0  0  0  0  0  0  0
  -25.0580  -25.4702   23.4330 C   0  0  0  0  0  0  0  0  0  0  0  0
  -24.3783  -28.3831   22.1779 C   0  0  0  0  0  0  0  0  0  0  0  0
  -25.3381  -30.9655   20.1638 C   0  0  0  0  0  0  0  0  0  0  0  0
  -29.7427  -15.8095   20.3190 C   0  0  0  0  0  0  0  0  0  0  0  0
  -23.4204  -22.6017   27.3250 C   0  0  0  0  0  0  0  0  0  0  0  0
  -27.1574  -26.7553   23.9779 C   0  0  0  0  0  0  0  0  0  0  0  0
  -26.3302  -27.1457   21.1658 C   0  0  0  0  0  0  0  0  0  0  0  0
  -22.8263  -23.7107   26.4604 C   0  0  0  0  0  0  0  0  0  0  0  0
  -28.3625  -14.1825   17.4686 C   0  0  0  0  0  0  0  0  0  0  0  0
  -23.0633  -23.4198   24.9819 C   0  0  0  0  0  0  0  0  0  0  0  0
  -27.1531  -13.4303   18.0267 C   0  0  0  0  0  0  0  0  0  0  0  0
  -29.5271  -14.1906   18.4564 C   0  0  0  0  0  0  0  0  0  0  0  0
  -27.9838  -13.9384   20.3613 C   0  0  0  0  0  0  0  0  0  0  0  0
  -24.5624  -23.3653   24.6637 C   0  0  1  0  0  0  0  0  0  0  0  0
  -25.6876  -26.8270   23.5757 C   0  0  1  0  0  0  0  0  0  0  0  0
  -26.7645  -13.9511   19.4235 C   0  0  2  0  0  0  0  0  0  0  0  0
  -26.6419  -17.9816   19.8718 C   0  0  0  0  0  0  0  0  0  0  0  0
  -26.3965  -19.4393   21.9139 C   0  0  0  0  0  0  0  0  0  0  0  0
  -24.5562  -33.1905   19.3061 C   0  0  0  0  0  0  0  0  0  0  0  0
  -29.0061  -17.4769   23.5734 C   0  0  0  0  0  0  0  0  0  0  0  0
  -31.2753  -16.9802   22.6729 C   0  0  0  0  0  0  0  0  0  0  0  0
  -22.4835  -26.9706   20.2480 C   0  0  0  0  0  0  0  0  0  0  0  0
  -22.4763  -29.0451   18.8464 C   0  0  0  0  0  0  0  0  0  0  0  0
  -21.6088  -29.1184   21.1841 C   0  0  0  0  0  0  0  0  0  0  0  0
  -27.6259  -32.3771   21.4018 C   0  0  0  0  0  0  0  0  0  0  0  0
  -30.9381  -23.8554   17.8273 C   0  0  0  0  0  0  0  0  0  0  0  0
  -31.2364  -22.6204   18.6687 C   0  0  0  0  0  0  0  0  0  0  0  0
  -30.0084  -24.8408   18.5256 C   0  0  0  0  0  0  0  0  0  1  0  0
  -27.3374  -18.4911   21.1478 C   0  0  0  0  0  0  0  0  0  0  0  0
  -24.0978  -28.9108   20.7916 C   0  0  1  0  0  0  0  0  0  0  0  0
  -25.3458  -32.4672   20.3860 C   0  0  2  0  0  0  0  0  0  0  0  0
  -29.8267  -17.3628   22.2528 C   0  0  0  0  0  0  0  0  0  0  0  0
  -22.6911  -28.4981   20.2738 C   0  0  0  0  0  0  0  0  0  0  0  0
  -31.1300  -20.3070   20.3074 N   0  0  0  0  0  0  0  0  0  0  0  0
  -25.8364  -12.1138   20.7820 N   0  0  0  0  0  0  0  0  0  0  0  0
  -25.5921  -13.1806   20.0020 N   0  0  0  0  0  0  0  0  0  0  0  0
  -25.4824  -27.5285   22.3069 N   0  0  0  0  0  0  0  0  0  0  0  0
  -29.0924  -14.6967   19.7606 N   0  0  0  0  0  0  0  0  0  0  0  0
  -23.8434  -14.4784   19.0702 N   0  0  0  0  0  0  0  0  0  0  0  0
  -21.6489  -11.3074   21.4208 N   0  0  0  0  0  0  0  0  0  0  0  0
  -30.0168  -21.9309   19.0140 N   0  0  0  0  0  0  0  0  0  0  0  0
  -25.1103  -24.7022   24.5806 N   0  0  0  0  0  0  0  0  0  0  0  0
  -24.3128  -30.3525   20.8524 N   0  0  0  0  0  0  0  0  0  0  0  0
  -29.2643  -16.2283   21.5545 N   0  0  0  0  0  0  0  0  0  0  0  0
  -26.7429  -32.9856   20.3736 N   0  3  0  0  0  0  0  0  0  0  0  0
  -21.3837  -13.1356   20.0620 O   0  0  0  0  0  0  0  0  0  0  0  0
  -24.5603  -25.1448   22.3616 O   0  0  0  0  0  0  0  0  0  0  0  0
  -23.6491  -28.7225   23.1131 O   0  0  0  0  0  0  0  0  0  0  0  0
  -26.1574  -30.3940   19.4477 O   0  0  0  0  0  0  0  0  0  0  0  0
  -30.6766  -16.3903   19.7556 O   0  0  0  0  0  0  0  0  0  0  0  0
  -23.9756   -7.2151   24.3998 O   0  0  0  0  0  0  0  0  0  0  0  0
  -30.6153  -25.2570   19.7483 O   0  0  0  0  0  0  0  0  0  1  0  0
  -20.2258   -3.4543   22.9167 F   0  0  0  0  0  0  0  0  0  0  0  0
  -21.3081   -7.8954   24.1459 F   0  0  0  0  0  0  0  0  0  0  0  0
  1  2  1  0  0  0  0
  1  5  2  0  0  0  0
  2  6  2  0  0  0  0
  3  8  2  0  0  0  0
  3 17  1  0  0  0  0
  4  9  1  0  0  0  0
  4 17  2  0  0  0  0
  5 19  1  0  0  0  0
  6 21  1  0  0  0  0
  7 10  2  0  0  0  0
  7 20  1  0  0  0  0
  8 25  1  0  0  0  0
  9 25  2  0  0  0  0
 10 26  1  0  0  0  0
 11 12  2  0  0  0  0
 11 27  1  0  0  0  0
 12 28  1  0  0  0  0
 13 22  1  0  0  0  0
 13 26  2  0  0  0  0
 14 23  2  0  0  0  0
 14 31  1  0  0  0  0
 15 28  2  0  0  0  0
 15 29  1  0  0  0  0
 16 24  2  0  0  0  0
 16 67  1  0  0  0  0
 17 30  1  0  0  0  0
 18 30  1  0  0  0  0
 18 32  2  0  0  0  0
 18 33  1  0  0  0  0
 19 21  2  0  0  0  0
 19 38  1  0  0  0  0
 20 22  2  0  0  0  0
 20 39  1  0  0  0  0
 21 47  1  0  0  0  0
 22 40  1  0  0  0  0
 23 24  1  0  0  0  0
 23 62  1  0  0  0  0
 24 65  1  0  0  0  0
 25 84  1  0  0  0  0
 26 85  1  0  0  0  0
 27 29  2  0  0  0  0
 27 84  1  0  0  0  0
 28 86  1  0  0  0  0
 29 87  1  0  0  0  0
 30 68  2  0  0  0  0
 31 67  2  0  0  0  0
 31 74  1  0  0  0  0
 32 69  1  0  0  0  0
 32 72  1  0  0  0  0
 33 73  1  0  0  0  0
 33 79  2  0  0  0  0
 34 48  1  0  0  0  0
 34 75  1  0  0  0  0
 34 80  2  0  0  0  0
 35 63  1  0  0  0  0
 35 70  1  0  0  0  0
 35 81  2  0  0  0  0
 36 64  1  0  0  0  0
 36 76  1  0  0  0  0
 36 82  2  0  0  0  0
 37 71  1  0  0  0  0
 37 77  1  0  0  0  0
 37 83  2  0  0  0  0
 38 41  1  0  0  0  0
 39 48  1  0  0  0  0
 40 70  1  0  0  0  0
 41 43  1  0  0  0  0
 42 44  1  0  0  0  0
 42 45  1  0  0  0  0
 43 47  1  0  0  0  0
 44 49  1  0  0  0  0
 45 71  1  0  0  0  0
 46 49  1  0  0  0  0
 46 71  1  0  0  0  0
 47 75  1  0  0  0  0
 48 70  1  0  0  0  0
 49 69  1  0  0  0  0
 50 62  1  0  0  0  0
 51 62  1  0  0  0  0
 52 64  1  0  0  0  0
 53 65  1  0  0  0  0
 54 65  1  0  0  0  0
 55 66  1  0  0  0  0
 56 66  1  0  0  0  0
 57 66  1  0  0  0  0
 58 78  1  0  0  0  0
 59 60  1  0  0  0  0
 59 61  1  0  0  0  0
 60 74  1  0  0  0  0
 61 85  1  0  0  0  0
 63 66  1  0  0  0  0
 63 76  1  0  0  0  0
 64 78  1  0  0  0  0
 65 77  1  0  0  0  0
 68 69  1  0  0  0  0
M  CHG  1  78   1
M  ISO  4  37 100  61 101  77 100  85 101
M  END
> <Batch ID>
0112

> <Smiles>
CNC(C)C(=O)NC(C(=O)N1Cc2cc([101O:1][101CH2:1]CCNc3cc(C(C)C)c(C(C)(C)[100NH:0][100C:0](=O)N4CCCC(n5nc(-c6ccc(Oc7ccc(F)cc7F)cc6)c(C(N)=O)c5N)C4)cn3)ccc2CC1C(=O)NC1CCCc2ccccc21)C(C)(C)C

> <Shape>
0.250

> <Color>
0.085

> <Negative vol penalty>
0.000

$$$$

  -OEChem-04052320033D

 86 94  0     1  0  0  0  0  0999 V2000
  -29.1575  -35.5753   17.6268 C   0  0  0  0  0  0  0  0  0  0  0  0
  -28.9920  -34.2017   17.4815 C   0  0  0  0  0  0  0  0  0  0  0  0
  -24.3135   -8.7373   20.0794 C   0  0  0  0  0  0  0  0  0  0  0  0
  -22.9805  -10.5616   20.9350 C   0  0  0  0  0  0  0  0  0  0  0  0
  -29.0472  -36.1601   18.8877 C   0  0  0  0  0  0  0  0  0  0  0  0
  -28.7172  -33.4118   18.5974 C   0  0  0  0  0  0  0  0  0  0  0  0
  -25.1787  -28.4171   18.7909 C   0  0  0  0  0  0  0  0  0  0  0  0
  -23.4759   -7.8246   20.7204 C   0  0  0  0  0  0  0  0  0  0  0  0
  -22.1428   -9.6489   21.5759 C   0  0  0  0  0  0  0  0  0  0  0  0
  -25.4758  -27.0553   18.7587 C   0  0  0  0  0  0  0  0  0  0  0  0
  -20.4351   -6.4413   20.1975 C   0  0  0  0  0  0  0  0  0  0  0  0
  -20.0206   -5.3231   19.4741 C   0  0  0  0  0  0  0  0  0  0  0  0
  -25.3919  -26.9860   21.1685 C   0  0  0  0  0  0  0  0  0  0  0  0
  -27.2568  -19.9090   23.6880 C   0  0  0  0  0  0  0  0  0  0  0  0
  -26.4184  -17.8135   22.8572 C   0  0  0  0  0  0  0  0  0  0  0  0
  -21.0607   -3.8799   21.1089 C   0  0  0  0  0  0  0  0  0  0  0  0
  -24.0659  -10.1059   20.1867 C   0  0  0  0  0  0  0  0  0  0  0  0
  -24.7926  -11.5601   18.2208 C   0  0  0  0  0  0  0  0  0  0  0  0
  -28.7614  -35.3783   20.0180 C   0  0  0  0  0  0  0  0  0  0  0  0
  -24.9965  -29.0770   20.0148 C   0  0  0  0  0  0  0  0  0  0  0  0
  -28.6043  -33.9865   19.8747 C   0  0  0  0  0  0  0  0  0  0  0  0
  -25.0901  -28.3556   21.2135 C   0  0  0  0  0  0  0  0  0  0  0  0
  -26.1834  -19.0880   23.3608 C   0  0  0  0  0  0  0  0  0  0  0  0
  -22.3905   -8.2804   21.4686 C   0  0  0  0  0  0  0  0  0  0  0  0
  -25.5853  -26.3401   19.9476 C   0  0  0  0  0  0  0  0  0  0  0  0
  -21.1626   -6.2789   21.3766 C   0  0  0  0  0  0  0  0  0  0  0  0
  -20.3333   -4.0424   19.9298 C   0  0  0  0  0  0  0  0  0  0  0  0
  -21.4753   -4.9982   21.8322 C   0  0  0  0  0  0  0  0  0  0  0  0
  -24.9311  -11.0492   19.5253 C   0  0  0  0  0  0  0  0  0  0  0  0
  -28.5357  -19.4124   23.4946 C   0  0  0  0  0  0  0  0  0  0  0  0
  -27.7349  -17.4107   22.7007 C   0  0  0  0  0  0  0  0  0  0  0  0
  -25.8598  -12.4115   18.0704 C   0  0  0  0  0  0  0  0  0  0  0  0
  -23.7890  -11.2892   17.2334 C   0  0  0  0  0  0  0  0  0  0  0  0
  -26.4663  -31.4607   21.5185 C   0  0  0  0  0  0  0  0  0  0  0  0
  -24.0161  -31.1291   23.6183 C   0  0  0  0  0  0  0  0  0  0  0  0
  -21.6008  -29.1254   24.9592 C   0  0  0  0  0  0  0  0  0  0  0  0
  -29.1952  -15.5010   21.9479 C   0  0  0  0  0  0  0  0  0  0  0  0
  -28.6984  -36.0490   21.3675 C   0  0  0  0  0  0  0  0  0  0  0  0
  -24.6502  -30.5406   20.0315 C   0  0  0  0  0  0  0  0  0  0  0  0
  -24.8834  -29.0130   22.5528 C   0  0  0  0  0  0  0  0  0  0  0  0
  -28.0344  -35.1928   22.4428 C   0  0  0  0  0  0  0  0  0  0  0  0
  -30.3492  -13.0941   19.5915 C   0  0  0  0  0  0  0  0  0  0  0  0
  -28.5804  -33.7690   22.4041 C   0  0  0  0  0  0  0  0  0  0  0  0
  -29.0772  -12.3471   19.1839 C   0  0  0  0  0  0  0  0  0  0  0  0
  -30.3343  -13.4739   21.0711 C   0  0  0  0  0  0  0  0  0  0  0  0
  -27.8709  -13.4643   21.1032 C   0  0  0  0  0  0  0  0  0  0  0  0
  -28.2808  -33.0996   21.0574 C   0  0  1  0  0  0  0  0  0  0  0  0
  -24.9922  -31.2204   21.3537 C   0  0  1  0  0  0  0  0  0  0  0  0
  -27.8111  -13.1178   19.6065 C   0  0  2  0  0  0  0  0  0  0  0  0
  -29.7118  -20.2661   23.8342 C   0  0  0  0  0  0  0  0  0  0  0  0
  -19.7775  -29.1219   26.6835 C   0  0  0  0  0  0  0  0  0  0  0  0
  -23.3665  -20.3011   19.9587 C   0  0  0  0  0  0  0  0  0  0  0  0
  -26.1073  -30.8736   25.8255 C   0  0  0  0  0  0  0  0  0  0  0  0
  -24.3220  -29.9422   27.3132 C   0  0  0  0  0  0  0  0  0  0  0  0
  -24.1190  -32.2656   26.4283 C   0  0  0  0  0  0  0  0  0  0  0  0
  -19.5171  -28.6038   22.9232 C   0  0  0  0  0  0  0  0  0  0  0  0
  -25.1313  -22.7947   20.4645 C   0  0  0  0  0  0  0  0  0  0  0  0
  -24.5600  -21.8853   21.5546 C   0  0  0  0  0  0  0  0  0  0  0  0
  -23.9098  -19.5205   22.2747 C   0  0  0  0  0  0  0  0  0  0  0  0
  -25.3582  -24.2100   20.9806 C   0  0  0  0  0  0  0  0  0  1  0  0
  -24.7673  -19.5789   23.5514 C   0  0  1  0  0  0  0  0  0  0  0  0
  -23.7788  -30.3092   24.8635 C   0  0  1  0  0  0  0  0  0  0  0  0
  -20.1252  -29.3651   25.2231 C   0  0  2  0  0  0  0  0  0  0  0  0
  -24.3765  -20.4202   21.1072 C   0  0  1  0  0  0  0  0  0  0  0  0
  -24.5877  -30.8354   26.0826 C   0  0  0  0  0  0  0  0  0  0  0  0
  -26.0020  -11.5354   20.1584 N   0  0  0  0  0  0  0  0  0  0  0  0
  -28.8034  -18.1800   23.0076 N   0  0  0  0  0  0  0  0  0  0  0  0
  -26.5461  -12.3606   19.2479 N   0  0  0  0  0  0  0  0  0  0  0  0
  -24.5530  -30.4472   22.5171 N   0  0  0  0  0  0  0  0  0  0  0  0
  -29.1078  -14.2048   21.3974 N   0  0  0  0  0  0  0  0  0  0  0  0
  -26.2688  -13.1912   17.0471 N   0  0  0  0  0  0  0  0  0  0  0  0
  -22.7633  -10.3890   17.5527 N   0  0  0  0  0  0  0  0  0  0  0  0
  -27.9639  -16.1104   22.1864 N   0  0  0  0  0  0  0  0  0  0  0  0
  -26.9006  -32.6673   21.0039 N   0  0  0  0  0  0  0  0  0  0  0  0
  -22.3346  -30.2876   25.0689 N   0  0  0  0  0  0  0  0  0  0  0  0
  -19.2946  -28.4553   24.3845 N   0  3  0  0  0  0  0  0  0  0  0  0
  -23.8105  -11.8169   16.0956 O   0  0  0  0  0  0  0  0  0  0  0  0
  -27.1581  -30.6147   22.0729 O   0  0  0  0  0  0  0  0  0  0  0  0
  -23.7289  -32.3287   23.6203 O   0  0  0  0  0  0  0  0  0  0  0  0
  -22.0574  -28.0173   24.6869 O   0  0  0  0  0  0  0  0  0  0  0  0
  -30.2826  -16.0420   22.1646 O   0  0  0  0  0  0  0  0  0  0  0  0
  -24.1537  -18.7650   24.5554 O   0  0  0  0  0  0  0  0  0  0  0  0
  -21.5728   -7.3900   22.0940 O   0  0  0  0  0  0  0  0  0  0  0  0
  -25.8758  -25.0110   19.9190 O   0  0  0  0  0  0  0  0  0  1  0  0
  -19.9338   -2.9687   19.2358 F   0  0  0  0  0  0  0  0  0  0  0  0
  -22.1729   -4.8358   22.9649 F   0  0  0  0  0  0  0  0  0  0  0  0
  1  2  1  0  0  0  0
  1  5  2  0  0  0  0
  2  6  2  0  0  0  0
  3  8  2  0  0  0  0
  3 17  1  0  0  0  0
  4  9  1  0  0  0  0
  4 17  2  0  0  0  0
  5 19  1  0  0  0  0
  6 21  1  0  0  0  0
  7 10  2  0  0  0  0
  7 20  1  0  0  0  0
  8 24  1  0  0  0  0
  9 24  2  0  0  0  0
 10 25  1  0  0  0  0
 11 12  2  0  0  0  0
 11 26  1  0  0  0  0
 12 27  1  0  0  0  0
 13 22  1  0  0  0  0
 13 25  2  0  0  0  0
 14 23  1  0  0  0  0
 14 30  2  0  0  0  0
 15 23  2  0  0  0  0
 15 31  1  0  0  0  0
 16 27  2  0  0  0  0
 16 28  1  0  0  0  0
 17 29  1  0  0  0  0
 18 29  1  0  0  0  0
 18 32  2  0  0  0  0
 18 33  1  0  0  0  0
 19 21  2  0  0  0  0
 19 38  1  0  0  0  0
 20 22  2  0  0  0  0
 20 39  1  0  0  0  0
 21 47  1  0  0  0  0
 22 40  1  0  0  0  0
 23 61  1  0  0  0  0
 24 83  1  0  0  0  0
 25 84  1  0  0  0  0
 26 28  2  0  0  0  0
 26 83  1  0  0  0  0
 27 85  1  0  0  0  0
 28 86  1  0  0  0  0
 29 66  2  0  0  0  0
 30 50  1  0  0  0  0
 30 67  1  0  0  0  0
 31 67  2  0  0  0  0
 31 73  1  0  0  0  0
 32 68  1  0  0  0  0
 32 71  1  0  0  0  0
 33 72  1  0  0  0  0
 33 77  2  0  0  0  0
 34 48  1  0  0  0  0
 34 74  1  0  0  0  0
 34 78  2  0  0  0  0
 35 62  1  0  0  0  0
 35 69  1  0  0  0  0
 35 79  2  0  0  0  0
 36 63  1  0  0  0  0
 36 75  1  0  0  0  0
 36 80  2  0  0  0  0
 37 70  1  0  0  0  0
 37 73  1  0  0  0  0
 37 81  2  0  0  0  0
 38 41  1  0  0  0  0
 39 48  1  0  0  0  0
 40 69  1  0  0  0  0
 41 43  1  0  0  0  0
 42 44  1  0  0  0  0
 42 45  1  0  0  0  0
 43 47  1  0  0  0  0
 44 49  1  0  0  0  0
 45 70  1  0  0  0  0
 46 49  1  0  0  0  0
 46 70  1  0  0  0  0
 47 74  1  0  0  0  0
 48 69  1  0  0  0  0
 49 68  1  0  0  0  0
 51 63  1  0  0  0  0
 52 64  1  0  0  0  0
 53 65  1  0  0  0  0
 54 65  1  0  0  0  0
 55 65  1  0  0  0  0
 56 76  1  0  0  0  0
 57 58  1  0  0  0  0
 57 60  1  0  0  0  0
 58 64  1  0  0  0  0
 59 61  1  0  0  0  0
 59 64  1  0  0  0  0
 60 84  1  0  0  0  0
 61 82  1  0  0  0  0
 62 65  1  0  0  0  0
 62 75  1  0  0  0  0
 63 76  1  0  0  0  0
 66 68  1  0  0  0  0
M  CHG  1  76   1
M  ISO  4  37 100  60 101  73 100  84 101
M  END
> <Batch ID>
0112

> <Smiles>
CNC(C)C(=O)NC(C(=O)N1Cc2cc([101O:1][101CH2:1]CCC(C)CC(O)c3cc(C)nc([100NH:0][100C:0](=O)N4CCCC(n5nc(-c6ccc(Oc7ccc(F)cc7F)cc6)c(C(N)=O)c5N)C4)c3)ccc2CC1C(=O)NC1CCCc2ccccc21)C(C)(C)C

> <Shape>
0.216

> <Color>
0.089

> <Negative vol penalty>
0.000

$$$$

  -OEChem-04052320033D

 87 95  0     1  0  0  0  0  0999 V2000
  -24.1793  -37.8258   21.6946 C   0  0  0  0  0  0  0  0  0  0  0  0
  -25.0680  -36.9796   21.0391 C   0  0  0  0  0  0  0  0  0  0  0  0
  -24.4442   -9.4530   21.4427 C   0  0  0  0  0  0  0  0  0  0  0  0
  -22.5044  -10.3687   20.3312 C   0  0  0  0  0  0  0  0  0  0  0  0
  -23.4746  -37.3681   22.8072 C   0  0  0  0  0  0  0  0  0  0  0  0
  -25.2532  -35.6754   21.4965 C   0  0  0  0  0  0  0  0  0  0  0  0
  -26.6775  -29.0723   19.1119 C   0  0  0  0  0  0  0  0  0  0  0  0
  -23.7404   -8.2770   21.7021 C   0  0  0  0  0  0  0  0  0  0  0  0
  -21.8006   -9.1927   20.5905 C   0  0  0  0  0  0  0  0  0  0  0  0
  -27.5580  -28.0141   19.3325 C   0  0  0  0  0  0  0  0  0  0  0  0
  -21.4139   -7.2015   23.9055 C   0  0  0  0  0  0  0  0  0  0  0  0
  -21.5106   -6.6584   25.1867 C   0  0  0  0  0  0  0  0  0  0  0  0
  -26.2273  -27.3074   21.2164 C   0  0  0  0  0  0  0  0  0  0  0  0
  -28.7847  -23.8278   20.1725 C   0  0  0  0  0  0  0  0  0  0  0  0
  -22.4349   -4.6292   24.2566 C   0  0  0  0  0  0  0  0  0  0  0  0
  -23.8261  -10.4989   20.7573 C   0  0  0  0  0  0  0  0  0  0  0  0
  -27.3778  -22.5439   18.7039 C   0  0  0  0  0  0  0  0  0  0  0  0
  -25.3375  -12.0035   19.3574 C   0  0  0  0  0  0  0  0  0  0  0  0
  -23.6441  -36.0546   23.2726 C   0  0  0  0  0  0  0  0  0  0  0  0
  -25.5694  -29.2627   19.9500 C   0  0  0  0  0  0  0  0  0  0  0  0
  -24.5511  -35.2001   22.6172 C   0  0  0  0  0  0  0  0  0  0  0  0
  -25.3328  -28.3672   21.0028 C   0  0  0  0  0  0  0  0  0  0  0  0
  -22.4186   -8.1468   21.2760 C   0  0  0  0  0  0  0  0  0  0  0  0
  -27.3347  -27.1331   20.3866 C   0  0  0  0  0  0  0  0  0  0  0  0
  -21.8276   -6.4584   22.7999 C   0  0  0  0  0  0  0  0  0  0  0  0
  -28.4972  -22.6318   19.5240 C   0  0  0  0  0  0  0  0  0  0  0  0
  -22.0211   -5.3723   25.3622 C   0  0  0  0  0  0  0  0  0  0  0  0
  -22.3381   -5.1723   22.9755 C   0  0  0  0  0  0  0  0  0  0  0  0
  -24.5524  -11.7142   20.4895 C   0  0  0  0  0  0  0  0  0  0  0  0
  -26.5842  -23.6715   18.5666 C   0  0  0  0  0  0  0  0  0  0  0  0
  -27.9281  -24.8979   19.9696 C   0  0  0  0  0  0  0  0  0  1  0  0
  -25.8080  -13.2743   19.5814 C   0  0  0  0  0  0  0  0  0  0  0  0
  -27.0575  -21.3008   18.0146 C   0  0  0  0  0  0  0  0  0  0  0  0
  -25.6164  -11.1957   18.2061 C   0  0  0  0  0  0  0  0  0  0  0  0
  -24.6103  -31.5739   21.9100 C   0  0  0  0  0  0  0  0  0  0  0  0
  -21.9492  -29.7342   22.1475 C   0  0  0  0  0  0  0  0  0  0  0  0
  -20.5326  -26.6407   21.8829 C   0  0  0  0  0  0  0  0  0  0  0  0
  -24.9914  -18.5497   21.2086 C   0  0  0  0  0  0  0  0  0  0  0  0
  -22.8957  -35.6199   24.5077 C   0  0  0  0  0  0  0  0  0  0  0  0
  -24.6142  -30.3933   19.6825 C   0  0  0  0  0  0  0  0  0  0  0  0
  -24.1466  -28.5159   21.9189 C   0  0  0  0  0  0  0  0  0  0  0  0
  -22.8694  -34.1061   24.7027 C   0  0  0  0  0  0  0  0  0  0  0  0
  -25.6803  -16.1462   23.7434 C   0  0  0  0  0  0  0  0  0  0  0  0
  -24.2610  -33.5169   24.4956 C   0  0  0  0  0  0  0  0  0  0  0  0
  -25.5069  -14.8036   23.0312 C   0  0  0  0  0  0  0  0  0  0  0  0
  -24.6726  -17.1816   23.2490 C   0  0  0  0  0  0  0  0  0  0  0  0
  -24.4805  -16.0362   21.0752 C   0  0  0  0  0  0  0  0  0  0  0  0
  -24.7608  -33.7709   23.0682 C   0  0  1  0  0  0  0  0  0  0  0  0
  -23.8033  -30.7938   20.9110 C   0  0  1  0  0  0  0  0  0  0  0  0
  -25.5110  -14.9762   21.5003 C   0  0  2  0  0  0  0  0  0  0  0  0
  -24.2635  -24.5549   18.2199 C   0  0  0  0  0  0  0  0  0  0  0  0
  -18.3469  -25.4432   22.1768 C   0  0  0  0  0  0  0  0  0  0  0  0
  -22.3125  -29.8194   25.1758 C   0  0  0  0  0  0  0  0  0  0  0  0
  -20.7303  -27.8869   25.3501 C   0  0  0  0  0  0  0  0  0  0  0  0
  -19.9463  -30.0570   24.4020 C   0  0  0  0  0  0  0  0  0  0  0  0
  -28.7651  -18.8833   17.7750 C   0  0  0  0  0  0  0  0  0  0  0  0
  -20.4576  -25.8364   19.0357 C   0  0  0  0  0  0  0  0  0  0  0  0
  -30.4449  -21.7485   20.5641 C   0  0  0  0  0  0  0  0  0  0  0  0
  -25.3678  -23.6403   17.6994 C   0  0  0  0  0  0  0  0  0  0  0  0
  -25.2992  -19.7829   19.0770 C   0  0  0  0  0  0  0  0  0  0  0  0
  -26.7861  -20.0049   18.8067 C   0  0  1  0  0  0  0  0  0  0  0  0
  -21.5078  -28.6035   23.0451 C   0  0  1  0  0  0  0  0  0  0  0  0
  -19.2599  -26.1705   21.2019 C   0  0  2  0  0  0  0  0  0  0  0  0
  -21.1477  -29.0897   24.4773 C   0  0  0  0  0  0  0  0  0  0  0  0
  -24.5235  -12.7202   21.3677 N   0  0  0  0  0  0  0  0  0  0  0  0
  -26.8314  -24.8503   19.1805 N   0  0  0  0  0  0  0  0  0  0  0  0
  -25.2964  -13.6540   20.7873 N   0  0  0  0  0  0  0  0  0  0  0  0
  -23.2450  -29.6408   21.6203 N   0  0  0  0  0  0  0  0  0  0  0  0
  -24.7283  -17.2983   21.7898 N   0  0  0  0  0  0  0  0  0  0  0  0
  -26.6054  -14.0927   18.8626 N   0  0  0  0  0  0  0  0  0  0  0  0
  -25.0525   -9.9145   18.1363 N   0  0  0  0  0  0  0  0  0  0  0  0
  -24.1356  -32.8507   22.1426 N   0  0  0  0  0  0  0  0  0  0  0  0
  -20.4148  -27.9329   22.3493 N   0  0  0  0  0  0  0  0  0  0  0  0
  -25.0332  -18.5712   19.8199 N   0  0  0  0  0  0  0  0  0  0  0  0
  -27.3147  -18.8107   18.0742 N   0  3  0  0  0  0  0  0  0  0  0  0
  -19.5843  -25.2435   20.0810 N   0  3  0  0  0  0  0  0  0  0  0  0
  -26.9924  -21.2745   16.7691 O   0  0  0  0  0  0  0  0  0  0  0  0
  -26.3575  -11.5919   17.2748 O   0  0  0  0  0  0  0  0  0  0  0  0
  -25.5900  -31.0554   22.4323 O   0  0  0  0  0  0  0  0  0  0  0  0
  -21.1703  -30.6625   21.9168 O   0  0  0  0  0  0  0  0  0  0  0  0
  -21.5301  -25.9312   21.9935 O   0  0  0  0  0  0  0  0  0  0  0  0
  -25.1807  -19.5711   21.8779 O   0  0  0  0  0  0  0  0  0  0  0  0
  -21.7316   -6.9993   21.5287 O   0  0  0  0  0  0  0  0  0  0  0  0
  -28.1929  -26.0998   20.6045 O   0  0  0  0  0  0  0  0  0  1  0  0
  -29.3219  -21.5627   19.7049 O   0  0  0  0  0  0  0  0  0  0  0  0
  -22.1154   -4.8514   26.5927 F   0  0  0  0  0  0  0  0  0  0  0  0
  -22.7383   -4.4540   21.9173 F   0  0  0  0  0  0  0  0  0  0  0  0
  1  2  1  0  0  0  0
  1  5  2  0  0  0  0
  2  6  2  0  0  0  0
  3  8  2  0  0  0  0
  3 16  1  0  0  0  0
  4  9  1  0  0  0  0
  4 16  2  0  0  0  0
  5 19  1  0  0  0  0
  6 21  1  0  0  0  0
  7 10  2  0  0  0  0
  7 20  1  0  0  0  0
  8 23  1  0  0  0  0
  9 23  2  0  0  0  0
 10 24  1  0  0  0  0
 11 12  2  0  0  0  0
 11 25  1  0  0  0  0
 12 27  1  0  0  0  0
 13 22  1  0  0  0  0
 13 24  2  0  0  0  0
 14 26  2  0  0  0  0
 14 31  1  0  0  0  0
 15 27  2  0  0  0  0
 15 28  1  0  0  0  0
 16 29  1  0  0  0  0
 17 26  1  0  0  0  0
 17 30  2  0  0  0  0
 17 33  1  0  0  0  0
 18 29  1  0  0  0  0
 18 32  2  0  0  0  0
 18 34  1  0  0  0  0
 19 21  2  0  0  0  0
 19 39  1  0  0  0  0
 20 22  2  0  0  0  0
 20 40  1  0  0  0  0
 21 48  1  0  0  0  0
 22 41  1  0  0  0  0
 23 83  1  0  0  0  0
 24 84  1  0  0  0  0
 25 28  2  0  0  0  0
 25 83  1  0  0  0  0
 26 85  1  0  0  0  0
 27 86  1  0  0  0  0
 28 87  1  0  0  0  0
 29 65  2  0  0  0  0
 30 59  1  0  0  0  0
 30 66  1  0  0  0  0
 31 66  2  0  0  0  0
 31 84  1  0  0  0  0
 32 67  1  0  0  0  0
 32 70  1  0  0  0  0
 33 61  1  0  0  0  0
 33 77  2  0  0  0  0
 34 71  1  0  0  0  0
 34 78  2  0  0  0  0
 35 49  1  0  0  0  0
 35 72  1  0  0  0  0
 35 79  2  0  0  0  0
 36 62  1  0  0  0  0
 36 68  1  0  0  0  0
 36 80  2  0  0  0  0
 37 63  1  0  0  0  0
 37 73  1  0  0  0  0
 37 81  2  0  0  0  0
 38 69  1  0  0  0  0
 38 74  1  0  0  0  0
 38 82  2  0  0  0  0
 39 42  1  0  0  0  0
 40 49  1  0  0  0  0
 41 68  1  0  0  0  0
 42 44  1  0  0  0  0
 43 45  1  0  0  0  0
 43 46  1  0  0  0  0
 44 48  1  0  0  0  0
 45 50  1  0  0  0  0
 46 69  1  0  0  0  0
 47 50  1  0  0  0  0
 47 69  1  0  0  0  0
 48 72  1  0  0  0  0
 49 68  1  0  0  0  0
 50 67  1  0  0  0  0
 51 59  1  0  0  0  0
 52 63  1  0  0  0  0
 53 64  1  0  0  0  0
 54 64  1  0  0  0  0
 55 64  1  0  0  0  0
 56 75  1  0  0  0  0
 57 76  1  0  0  0  0
 58 85  1  0  0  0  0
 60 61  1  0  0  0  0
 60 74  1  0  0  0  0
 61 75  1  0  0  0  0
 62 64  1  0  0  0  0
 62 73  1  0  0  0  0
 63 76  1  0  0  0  0
 65 67  1  0  0  0  0
M  CHG  2  75   1  76   1
M  ISO  4  31 101  38 100  74 100  84 101
M  END
> <Batch ID>
0112

> <Smiles>
CCc1n[101c:1]([101O:1]c2ccc3c(c2)CN(C(=O)C(NC(=O)C(C)NC)C(C)(C)C)C(C(=O)NC2CCCc4ccccc42)C3)cc(OC)c1C(=O)C(C[100NH:0][100C:0](=O)N1CCCC(n2nc(-c3ccc(Oc4ccc(F)cc4F)cc3)c(C(N)=O)c2N)C1)NC

> <Shape>
0.309

> <Color>
0.102

> <Negative vol penalty>
0.000

$$$$

  -OEChem-04052320033D

 88 97  0     1  0  0  0  0  0999 V2000
  -16.9106  -28.5210   24.0228 C   0  0  0  0  0  0  0  0  0  0  0  0
  -17.5741  -27.6850   23.1304 C   0  0  0  0  0  0  0  0  0  0  0  0
  -23.9043  -12.2955   24.5726 C   0  0  0  0  0  0  0  0  0  0  0  0
  -25.3474  -10.6903   23.4872 C   0  0  0  0  0  0  0  0  0  0  0  0
  -17.3559  -29.8283   24.2141 C   0  0  0  0  0  0  0  0  0  0  0  0
  -18.6826  -28.1563   22.4279 C   0  0  0  0  0  0  0  0  0  0  0  0
  -22.5067  -24.8367   22.3793 C   0  0  0  0  0  0  0  0  0  0  0  0
  -23.5237  -11.3260   25.5004 C   0  0  0  0  0  0  0  0  0  0  0  0
  -24.9668   -9.7208   24.4150 C   0  0  0  0  0  0  0  0  0  0  0  0
  -22.4088  -23.7657   21.4922 C   0  0  0  0  0  0  0  0  0  0  0  0
  -22.3293   -7.6705   24.9359 C   0  0  0  0  0  0  0  0  0  0  0  0
  -22.0138   -6.4004   24.4535 C   0  0  0  0  0  0  0  0  0  0  0  0
  -23.8728  -24.9125   19.9557 C   0  0  0  0  0  0  0  0  0  0  0  0
  -23.7841   -5.4508   25.7957 C   0  0  0  0  0  0  0  0  0  0  0  0
  -25.5975  -21.4028   18.0988 C   0  0  0  0  0  0  0  0  0  0  0  0
  -25.8231  -20.1111   19.9141 C   0  0  0  0  0  0  0  0  0  0  0  0
  -24.8162  -11.9776   23.5660 C   0  0  0  0  0  0  0  0  0  0  0  0
  -24.3733  -13.6747   21.7136 C   0  0  0  0  0  0  0  0  0  0  0  0
  -18.4763  -30.3128   23.5209 C   0  0  0  0  0  0  0  0  0  0  0  0
  -23.2809  -25.9603   22.0560 C   0  0  0  0  0  0  0  0  0  0  0  0
  -19.1425  -29.4717   22.6092 C   0  0  0  0  0  0  0  0  0  0  0  0
  -23.9809  -25.9954   20.8416 C   0  0  0  0  0  0  0  0  0  0  0  0
  -26.9386  -21.3619   18.4104 C   0  0  0  0  0  0  0  0  0  0  0  0
  -27.0813  -20.5447   19.5589 C   0  0  0  0  0  0  0  0  0  0  0  0
  -24.0549  -10.0386   25.4216 C   0  0  0  0  0  0  0  0  0  0  0  0
  -23.0896  -23.8047   20.2789 C   0  0  0  0  0  0  0  0  0  0  0  0
  -23.3723   -7.8308   25.8482 C   0  0  0  0  0  0  0  0  0  0  0  0
  -22.7412   -5.2905   24.8834 C   0  0  0  0  0  0  0  0  0  0  0  0
  -24.0997   -6.7209   26.2781 C   0  0  0  0  0  0  0  0  0  0  0  0
  -25.2093  -12.9786   22.6070 C   0  0  0  0  0  0  0  0  0  0  0  0
  -25.2229  -14.5054   21.0247 C   0  0  0  0  0  0  0  0  0  0  0  0
  -22.9554  -13.5791   21.5234 C   0  0  0  0  0  0  0  0  0  0  0  0
  -22.6761  -29.0495   21.6148 C   0  0  0  0  0  0  0  0  0  0  0  0
  -25.9066  -29.2521   21.4019 C   0  0  0  0  0  0  0  0  0  0  0  0
  -28.8696  -27.6946   20.7373 C   0  0  0  0  0  0  0  0  0  0  0  0
  -29.4809  -18.1116   20.9216 C   0  0  0  0  0  0  0  0  0  0  0  0
  -18.8918  -31.7481   23.7255 C   0  0  0  0  0  0  0  0  0  0  0  0
  -23.3975  -27.0958   23.0355 C   0  0  0  0  0  0  0  0  0  0  0  0
  -24.8416  -27.1696   20.4560 C   0  0  0  0  0  0  0  0  0  0  0  0
  -20.3005  -32.0521   23.2219 C   0  0  0  0  0  0  0  0  0  0  0  0
  -21.4381  -19.7098   17.7777 C   0  0  0  0  0  0  0  0  0  0  0  0
  -21.5998  -18.7667   18.9640 C   0  0  0  0  0  0  0  0  0  0  0  0
  -30.2766  -14.6418   20.8583 C   0  0  0  0  0  0  0  0  0  0  0  0
  -20.5078  -31.4651   21.8293 C   0  0  0  0  0  0  0  0  0  0  0  0
  -28.9625  -13.9581   21.2398 C   0  0  0  0  0  0  0  0  0  0  0  0
  -22.7645  -20.4529   17.6437 C   0  0  0  0  0  0  0  0  0  0  0  0
  -23.0173  -18.9835   19.4866 C   0  0  0  0  0  0  0  0  0  0  0  0
  -30.4730  -15.9515   21.6187 C   0  0  0  0  0  0  0  0  0  0  0  0
  -28.0385  -16.2209   21.8918 C   0  0  0  0  0  0  0  0  0  0  0  0
  -20.3638  -29.9385   21.8471 C   0  0  1  0  0  0  0  0  0  0  0  0
  -23.8019  -28.4122   22.3789 C   0  0  1  0  0  0  0  0  0  0  0  0
  -27.7695  -14.9240   21.1095 C   0  0  2  0  0  0  0  0  0  0  0  0
  -23.4185  -20.4083   19.0431 C   0  0  0  0  0  0  0  0  0  0  0  0
  -27.8773  -23.5863   17.6862 C   0  0  0  0  0  0  0  0  0  0  0  0
  -28.1581  -21.5598   16.2132 C   0  0  0  0  0  0  0  0  0  0  0  0
  -31.3379  -28.1287   20.6091 C   0  0  0  0  0  0  0  0  0  0  0  0
  -25.5164  -30.6658   18.7263 C   0  0  0  0  0  0  0  0  0  0  0  0
  -27.9275  -30.2214   18.2191 C   0  0  0  0  0  0  0  0  0  0  0  0
  -27.3073  -31.6443   20.1718 C   0  0  0  0  0  0  0  0  0  0  0  0
  -29.4441  -25.7271   22.8722 C   0  0  0  0  0  0  0  0  0  0  0  0
  -22.7883  -21.4656   19.9726 C   0  0  0  0  0  0  0  0  0  1  0  0
  -28.6882  -21.2215   21.3721 C   0  0  0  0  0  0  0  0  0  0  0  0
  -28.0198  -22.0467   17.6742 C   0  0  0  0  0  0  0  0  0  0  0  0
  -28.3397  -20.2124   20.2554 C   0  0  1  0  0  0  0  0  0  0  0  0
  -26.9126  -29.1495   20.2811 C   0  0  1  0  0  0  0  0  0  0  0  0
  -30.1868  -27.6716   21.4915 C   0  0  2  0  0  0  0  0  0  0  0  0
  -26.8983  -30.3988   19.3557 C   0  0  0  0  0  0  0  0  0  0  0  0
  -26.4917  -13.3358   22.4978 N   0  0  0  0  0  0  0  0  0  0  0  0
  -24.9291  -20.6386   19.0193 N   0  0  0  0  0  0  0  0  0  0  0  0
  -26.4678  -14.2654   21.5275 N   0  0  0  0  0  0  0  0  0  0  0  0
  -24.9187  -28.2580   21.4445 N   0  0  0  0  0  0  0  0  0  0  0  0
  -29.3072  -16.8229   21.4527 N   0  0  0  0  0  0  0  0  0  0  0  0
  -25.0192  -15.4103   20.0439 N   0  0  0  0  0  0  0  0  0  0  0  0
  -22.2346  -12.6747   22.3152 N   0  0  0  0  0  0  0  0  0  0  0  0
  -21.5600  -29.3242   22.3820 N   0  0  0  0  0  0  0  0  0  0  0  0
  -28.2017  -28.8882   20.9123 N   0  0  0  0  0  0  0  0  0  0  0  0
  -28.3236  -18.8696   20.7917 N   0  0  0  0  0  0  0  0  0  0  0  0
  -27.6391  -21.2325   22.4238 N   0  3  0  0  0  0  0  0  0  0  0  0
  -30.4833  -26.2931   21.9741 N   0  3  0  0  0  0  0  0  0  0  0  0
  -22.3480  -14.2631   20.6651 O   0  0  0  0  0  0  0  0  0  0  0  0
  -22.8105  -29.2768   20.4182 O   0  0  0  0  0  0  0  0  0  0  0  0
  -25.9982  -30.1760   22.2141 O   0  0  0  0  0  0  0  0  0  0  0  0
  -28.4745  -26.7499   20.0577 O   0  0  0  0  0  0  0  0  0  0  0  0
  -30.5846  -18.5519   20.5829 O   0  0  0  0  0  0  0  0  0  0  0  0
  -23.6839   -9.0924   26.3268 O   0  0  0  0  0  0  0  0  0  0  0  0
  -22.9953  -22.7609   19.4108 O   0  0  0  0  0  0  0  0  0  1  0  0
  -22.4370   -4.0706   24.4212 F   0  0  0  0  0  0  0  0  0  0  0  0
  -25.1020   -6.8685   27.1553 F   0  0  0  0  0  0  0  0  0  0  0  0
  1  2  1  0  0  0  0
  1  5  2  0  0  0  0
  2  6  2  0  0  0  0
  3  8  2  0  0  0  0
  3 17  1  0  0  0  0
  4  9  1  0  0  0  0
  4 17  2  0  0  0  0
  5 19  1  0  0  0  0
  6 21  1  0  0  0  0
  7 10  2  0  0  0  0
  7 20  1  0  0  0  0
  8 25  1  0  0  0  0
  9 25  2  0  0  0  0
 10 26  1  0  0  0  0
 11 12  2  0  0  0  0
 11 27  1  0  0  0  0
 12 28  1  0  0  0  0
 13 22  1  0  0  0  0
 13 26  2  0  0  0  0
 14 28  2  0  0  0  0
 14 29  1  0  0  0  0
 15 23  2  0  0  0  0
 15 69  1  0  0  0  0
 16 24  2  0  0  0  0
 16 69  1  0  0  0  0
 17 30  1  0  0  0  0
 18 30  1  0  0  0  0
 18 31  2  0  0  0  0
 18 32  1  0  0  0  0
 19 21  2  0  0  0  0
 19 37  1  0  0  0  0
 20 22  2  0  0  0  0
 20 38  1  0  0  0  0
 21 50  1  0  0  0  0
 22 39  1  0  0  0  0
 23 24  1  0  0  0  0
 23 63  1  0  0  0  0
 24 64  1  0  0  0  0
 25 85  1  0  0  0  0
 26 86  1  0  0  0  0
 27 29  2  0  0  0  0
 27 85  1  0  0  0  0
 28 87  1  0  0  0  0
 29 88  1  0  0  0  0
 30 68  2  0  0  0  0
 31 70  1  0  0  0  0
 31 73  1  0  0  0  0
 32 74  1  0  0  0  0
 32 80  2  0  0  0  0
 33 51  1  0  0  0  0
 33 75  1  0  0  0  0
 33 81  2  0  0  0  0
 34 65  1  0  0  0  0
 34 71  1  0  0  0  0
 34 82  2  0  0  0  0
 35 66  1  0  0  0  0
 35 76  1  0  0  0  0
 35 83  2  0  0  0  0
 36 72  1  0  0  0  0
 36 77  1  0  0  0  0
 36 84  2  0  0  0  0
 37 40  1  0  0  0  0
 38 51  1  0  0  0  0
 39 71  1  0  0  0  0
 40 44  1  0  0  0  0
 41 42  1  0  0  0  0
 41 46  1  0  0  0  0
 42 47  1  0  0  0  0
 43 45  1  0  0  0  0
 43 48  1  0  0  0  0
 44 50  1  0  0  0  0
 45 52  1  0  0  0  0
 46 53  1  0  0  0  0
 47 53  1  0  0  0  0
 48 72  1  0  0  0  0
 49 52  1  0  0  0  0
 49 72  1  0  0  0  0
 50 75  1  0  0  0  0
 51 71  1  0  0  0  0
 52 70  1  0  0  0  0
 53 61  1  0  0  0  0
 53 69  1  0  0  0  0
 54 63  1  0  0  0  0
 55 63  1  0  0  0  0
 56 66  1  0  0  0  0
 57 67  1  0  0  0  0
 58 67  1  0  0  0  0
 59 67  1  0  0  0  0
 60 79  1  0  0  0  0
 61 86  1  0  0  0  0
 62 64  1  0  0  0  0
 62 78  1  0  0  0  0
 64 77  1  0  0  0  0
 65 67  1  0  0  0  0
 65 76  1  0  0  0  0
 66 79  1  0  0  0  0
 68 70  1  0  0  0  0
M  CHG  2  78   1  79   1
M  ISO  4  36 100  61 101  77 100  86 101
M  END
> <Batch ID>
0112

> <Smiles>
CNC(C)C(=O)NC(C(=O)N1Cc2cc([101O:1][101CH2:1]C3(n4cc(C(C)C)c(C(CN)[100NH:0][100C:0](=O)N5CCCC(n6nc(-c7ccc(Oc8ccc(F)cc8F)cc7)c(C(N)=O)c6N)C5)c4)CCCC3)ccc2CC1C(=O)NC1CCCc2ccccc21)C(C)(C)C

> <Shape>
0.235

> <Color>
0.123

> <Negative vol penalty>
0.000

$$$$

  -OEChem-04052320033D

 86 95  0     1  0  0  0  0  0999 V2000
  -19.4233  -27.7219   26.5435 C   0  0  0  0  0  0  0  0  0  0  0  0
  -20.6875  -27.3087   26.1357 C   0  0  0  0  0  0  0  0  0  0  0  0
  -24.7035   -9.1238   21.5457 C   0  0  0  0  0  0  0  0  0  0  0  0
  -22.9797  -10.7383   21.0370 C   0  0  0  0  0  0  0  0  0  0  0  0
  -18.4614  -28.0603   25.5927 C   0  0  0  0  0  0  0  0  0  0  0  0
  -20.9903  -27.2325   24.7767 C   0  0  0  0  0  0  0  0  0  0  0  0
  -26.3901  -28.4059   22.1364 C   0  0  0  0  0  0  0  0  0  0  0  0
  -23.8512   -8.5011   22.4575 C   0  0  0  0  0  0  0  0  0  0  0  0
  -22.1273  -10.1156   21.9488 C   0  0  0  0  0  0  0  0  0  0  0  0
  -27.4251  -27.5756   21.7086 C   0  0  0  0  0  0  0  0  0  0  0  0
  -21.2407   -6.3542   22.3618 C   0  0  0  0  0  0  0  0  0  0  0  0
  -21.1667   -4.9616   22.3332 C   0  0  0  0  0  0  0  0  0  0  0  0
  -26.5267  -27.6190   19.4702 C   0  0  0  0  0  0  0  0  0  0  0  0
  -21.9290   -4.8741   24.6242 C   0  0  0  0  0  0  0  0  0  0  0  0
  -24.2677  -10.2424   20.8354 C   0  0  0  0  0  0  0  0  0  0  0  0
  -25.2828  -10.5987   18.5224 C   0  0  0  0  0  0  0  0  0  0  0  0
  -18.7555  -27.9976   24.2215 C   0  0  0  0  0  0  0  0  0  0  0  0
  -25.4077  -28.8408   21.2351 C   0  0  0  0  0  0  0  0  0  0  0  0
  -20.0309  -27.5691   23.8066 C   0  0  0  0  0  0  0  0  0  0  0  0
  -25.4816  -28.4568   19.8886 C   0  0  0  0  0  0  0  0  0  0  0  0
  -22.5631   -8.9969   22.6591 C   0  0  0  0  0  0  0  0  0  0  0  0
  -27.4919  -27.1796   20.3760 C   0  0  0  0  0  0  0  0  0  0  0  0
  -21.6589   -7.0068   23.5215 C   0  0  0  0  0  0  0  0  0  0  0  0
  -21.5108   -4.2216   23.4644 C   0  0  0  0  0  0  0  0  0  0  0  0
  -22.0030   -6.2667   24.6527 C   0  0  0  0  0  0  0  0  0  0  0  0
  -25.1479  -10.8865   19.8938 C   0  0  0  0  0  0  0  0  0  0  0  0
  -26.2382  -11.4803   18.0790 C   0  0  0  0  0  0  0  0  0  0  0  0
  -24.6051   -9.6220   17.7209 C   0  0  0  0  0  0  0  0  0  0  0  0
  -22.2586  -28.4774   21.0020 C   0  0  0  0  0  0  0  0  0  0  0  0
  -22.5906  -30.5709   18.5465 C   0  0  0  0  0  0  0  0  0  0  0  0
  -24.6118  -31.9471   16.1658 C   0  0  0  0  0  0  0  0  0  0  0  0
  -27.8542  -16.9088   18.4015 C   0  0  0  0  0  0  0  0  0  0  0  0
  -17.6682  -28.3279   23.2299 C   0  0  0  0  0  0  0  0  0  0  0  0
  -24.3128  -29.7579   21.7067 C   0  0  0  0  0  0  0  0  0  0  0  0
  -24.4633  -28.9128   18.8769 C   0  0  0  0  0  0  0  0  0  0  0  0
  -18.1883  -28.5795   21.8169 C   0  0  0  0  0  0  0  0  0  0  0  0
  -30.0586  -13.9662   18.8878 C   0  0  0  0  0  0  0  0  0  0  0  0
  -19.1844  -27.4967   21.4141 C   0  0  0  0  0  0  0  0  0  0  0  0
  -29.0421  -12.8237   18.8714 C   0  0  0  0  0  0  0  0  0  0  0  0
  -30.2381  -19.0399   20.2146 C   0  0  0  0  0  0  0  0  0  0  0  0
  -30.1480  -23.2055   21.1333 C   0  0  0  0  0  0  0  0  0  0  0  0
  -28.4163  -23.5770   19.3410 C   0  0  0  0  0  0  0  0  0  0  0  0
  -29.5972  -15.1189   18.0056 C   0  0  0  0  0  0  0  0  0  0  0  0
  -29.9988  -17.6731   19.5807 C   0  0  0  0  0  0  0  0  0  0  0  0
  -27.2287  -14.5219   18.3382 C   0  0  0  0  0  0  0  0  0  0  0  0
  -28.5343  -19.2871   18.5661 C   0  0  0  0  0  0  0  0  0  0  0  0
  -30.5958  -21.9277   20.4385 C   0  0  0  0  0  0  0  0  0  0  0  0
  -20.4052  -27.4974   22.3420 C   0  0  1  0  0  0  0  0  0  0  0  0
  -23.0774  -29.7229   20.8122 C   0  0  1  0  0  0  0  0  0  0  0  0
  -29.5483  -24.2191   20.1536 C   0  0  1  0  0  0  0  0  0  0  0  0
  -27.6310  -13.3289   19.2234 C   0  0  1  0  0  0  0  0  0  0  0  0
  -29.7699  -19.9786   19.1127 C   0  0  1  0  0  0  0  0  0  0  0  0
  -28.8413  -22.2879   18.6271 C   0  0  1  0  0  0  0  0  0  0  0  0
  -24.5901  -33.6046   14.2818 C   0  0  0  0  0  0  0  0  0  0  0  0
  -30.1266  -23.6169   15.1706 C   0  0  0  0  0  0  0  0  0  0  0  0
  -27.9010  -22.6714   15.8152 C   0  0  0  0  0  0  0  0  0  0  0  0
  -21.1164  -28.5552   16.7933 C   0  0  0  0  0  0  0  0  0  0  0  0
  -21.9496  -29.7973   14.7855 C   0  0  0  0  0  0  0  0  0  0  0  0
  -20.4552  -30.9388   16.4245 C   0  0  0  0  0  0  0  0  0  0  0  0
  -26.6594  -33.6363   17.4745 C   0  0  0  0  0  0  0  0  0  0  0  0
  -29.0432  -25.4544   20.8985 C   0  0  0  0  0  0  0  0  0  1  0  0
  -29.7905  -22.5429   17.4575 C   0  0  0  0  0  0  0  0  0  0  0  0
  -22.8513  -30.4480   17.0647 C   0  0  1  0  0  0  0  0  0  0  0  0
  -24.8562  -33.3903   15.7637 C   0  0  2  0  0  0  0  0  0  0  0  0
  -29.1594  -23.3741   16.3300 C   0  0  0  0  0  0  0  0  0  0  0  0
  -21.6114  -29.9245   16.2862 C   0  0  0  0  0  0  0  0  0  0  0  0
  -25.9532  -11.8735   20.2952 N   0  0  0  0  0  0  0  0  0  0  0  0
  -26.6034  -12.2137   19.1694 N   0  0  0  0  0  0  0  0  0  0  0  0
  -23.4083  -29.8034   19.3881 N   0  0  0  0  0  0  0  0  0  0  0  0
  -28.2532  -15.5676   18.3799 N   0  0  0  0  0  0  0  0  0  0  0  0
  -28.8144  -17.8624   18.7365 N   0  0  0  0  0  0  0  0  0  0  0  0
  -26.7931  -11.6919   16.8667 N   0  0  0  0  0  0  0  0  0  0  0  0
  -23.6527   -8.7977   18.3355 N   0  0  0  0  0  0  0  0  0  0  0  0
  -21.3031  -28.5782   21.9952 N   0  0  0  0  0  0  0  0  0  0  0  0
  -23.3254  -31.7554   16.6238 N   0  0  0  0  0  0  0  0  0  0  0  0
  -29.4505  -21.3134   19.6448 N   0  3  2  0  0  0  0  0  0  0  0  0
  -26.2675  -33.7754   16.0483 N   0  3  0  0  0  0  0  0  0  0  0  0
  -24.8491   -9.4732   16.4995 O   0  0  0  0  0  0  0  0  0  0  0  0
  -22.4765  -27.4980   20.2984 O   0  0  0  0  0  0  0  0  0  0  0  0
  -21.6992  -31.3257   18.9432 O   0  0  0  0  0  0  0  0  0  0  0  0
  -25.4744  -31.0760   16.0786 O   0  0  0  0  0  0  0  0  0  0  0  0
  -26.6809  -17.2359   18.1793 O   0  0  0  0  0  0  0  0  0  0  0  0
  -21.7311   -8.3894   23.5486 O   0  0  0  0  0  0  0  0  0  0  0  0
  -28.5102  -26.3611   19.9520 O   0  0  0  0  0  0  0  0  0  1  0  0
  -21.4382   -2.8843   23.4373 F   0  0  0  0  0  0  0  0  0  0  0  0
  -22.4044   -6.8881   25.7702 F   0  0  0  0  0  0  0  0  0  0  0  0
  1  2  1  0  0  0  0
  1  5  2  0  0  0  0
  2  6  2  0  0  0  0
  3  8  2  0  0  0  0
  3 15  1  0  0  0  0
  4  9  1  0  0  0  0
  4 15  2  0  0  0  0
  5 17  1  0  0  0  0
  6 19  1  0  0  0  0
  7 10  2  0  0  0  0
  7 18  1  0  0  0  0
  8 21  1  0  0  0  0
  9 21  2  0  0  0  0
 10 22  1  0  0  0  0
 11 12  2  0  0  0  0
 11 23  1  0  0  0  0
 12 24  1  0  0  0  0
 13 20  1  0  0  0  0
 13 22  2  0  0  0  0
 14 24  2  0  0  0  0
 14 25  1  0  0  0  0
 15 26  1  0  0  0  0
 16 26  1  0  0  0  0
 16 27  2  0  0  0  0
 16 28  1  0  0  0  0
 17 19  2  0  0  0  0
 17 33  1  0  0  0  0
 18 20  2  0  0  0  0
 18 34  1  0  0  0  0
 19 48  1  0  0  0  0
 20 35  1  0  0  0  0
 21 83  1  0  0  0  0
 22 84  1  0  0  0  0
 23 25  2  0  0  0  0
 23 83  1  0  0  0  0
 24 85  1  0  0  0  0
 25 86  1  0  0  0  0
 26 67  2  0  0  0  0
 27 68  1  0  0  0  0
 27 72  1  0  0  0  0
 28 73  1  0  0  0  0
 28 78  2  0  0  0  0
 29 49  1  0  0  0  0
 29 74  1  0  0  0  0
 29 79  2  0  0  0  0
 30 63  1  0  0  0  0
 30 69  1  0  0  0  0
 30 80  2  0  0  0  0
 31 64  1  0  0  0  0
 31 75  1  0  0  0  0
 31 81  2  0  0  0  0
 32 70  1  0  0  0  0
 32 71  1  0  0  0  0
 32 82  2  0  0  0  0
 33 36  1  0  0  0  0
 34 49  1  0  0  0  0
 35 69  1  0  0  0  0
 36 38  1  0  0  0  0
 37 39  1  0  0  0  0
 37 43  1  0  0  0  0
 38 48  1  0  0  0  0
 39 51  1  0  0  0  0
 40 44  1  0  0  0  0
 40 52  1  0  0  0  0
 41 47  1  0  0  0  0
 41 50  1  0  0  0  0
 42 50  1  0  0  0  0
 42 53  1  0  0  0  0
 43 70  1  0  0  0  0
 44 71  1  0  0  0  0
 45 51  1  0  0  0  0
 45 70  1  0  0  0  0
 46 52  1  0  0  0  0
 46 71  1  0  0  0  0
 47 76  1  0  0  0  0
 48 74  1  0  0  0  0
 49 69  1  0  0  0  0
 50 61  1  0  0  0  0
 51 68  1  0  0  0  0
 52 76  1  0  0  0  0
 53 62  1  0  0  0  0
 53 76  1  0  0  0  0
 54 64  1  0  0  0  0
 55 65  1  0  0  0  0
 56 65  1  0  0  0  0
 57 66  1  0  0  0  0
 58 66  1  0  0  0  0
 59 66  1  0  0  0  0
 60 77  1  0  0  0  0
 61 84  1  0  0  0  0
 62 65  1  0  0  0  0
 63 66  1  0  0  0  0
 63 75  1  0  0  0  0
 64 77  1  0  0  0  0
 67 68  1  0  0  0  0
M  CHG  2  76   1  77   1
M  ISO  4  32 100  61 101  71 100  84 101
M  END
> <Batch ID>
0112

> <Smiles>
CNC(C)C(=O)NC(C(=O)N1Cc2cc([101O:1][101CH2:1]C3CCN(C4CC[100N:0]([100C:0](=O)N5CCCC(n6nc(-c7ccc(Oc8ccc(F)cc8F)cc7)c(C(N)=O)c6N)C5)C4)C(CC(C)C)C3)ccc2CC1C(=O)NC1CCCc2ccccc21)C(C)(C)C

> <Shape>
0.280

> <Color>
0.102

> <Negative vol penalty>
0.000

$$$$

  -OEChem-04052320033D

 76 83  0     1  0  0  0  0  0999 V2000
  -24.2700  -36.3270   21.5279 C   0  0  0  0  0  0  0  0  0  0  0  0
  -25.0845  -35.6543   20.6227 C   0  0  0  0  0  0  0  0  0  0  0  0
  -26.5231  -13.1467   21.7495 C   0  0  0  0  0  0  0  0  0  0  0  0
  -25.9285  -13.5331   19.4399 C   0  0  0  0  0  0  0  0  0  0  0  0
  -24.1044  -35.8280   22.8192 C   0  0  0  0  0  0  0  0  0  0  0  0
  -25.7348  -34.4827   21.0086 C   0  0  0  0  0  0  0  0  0  0  0  0
  -27.9520  -28.2010   18.3740 C   0  0  0  0  0  0  0  0  0  0  0  0
  -25.7380  -11.9939   21.7588 C   0  0  0  0  0  0  0  0  0  0  0  0
  -25.1434  -12.3802   19.4491 C   0  0  0  0  0  0  0  0  0  0  0  0
  -29.0964  -27.4082   18.2990 C   0  0  0  0  0  0  0  0  0  0  0  0
  -23.6028   -9.1442   22.4961 C   0  0  0  0  0  0  0  0  0  0  0  0
  -22.7639   -8.9378   23.5912 C   0  0  0  0  0  0  0  0  0  0  0  0
  -28.6732  -26.5967   20.5309 C   0  0  0  0  0  0  0  0  0  0  0  0
  -21.6175  -11.0078   23.1032 C   0  0  0  0  0  0  0  0  0  0  0  0
  -26.6184  -13.9164   20.5900 C   0  0  0  0  0  0  0  0  0  0  0  0
  -28.7926  -15.2053   20.2450 C   0  0  0  0  0  0  0  0  0  0  0  0
  -24.7452  -34.6444   23.2182 C   0  0  0  0  0  0  0  0  0  0  0  0
  -27.1644  -28.2060   19.5342 C   0  0  0  0  0  0  0  0  0  0  0  0
  -25.5786  -33.9681   22.3068 C   0  0  0  0  0  0  0  0  0  0  0  0
  -27.5179  -27.3885   20.6172 C   0  0  0  0  0  0  0  0  0  0  0  0
  -25.0482  -11.6106   20.6086 C   0  0  0  0  0  0  0  0  0  0  0  0
  -29.4587  -26.6080   19.3786 C   0  0  0  0  0  0  0  0  0  0  0  0
  -23.4491  -10.2825   21.7046 C   0  0  0  0  0  0  0  0  0  0  0  0
  -21.7713   -9.8696   23.8948 C   0  0  0  0  0  0  0  0  0  0  0  0
  -22.4565  -11.2142   22.0081 C   0  0  0  0  0  0  0  0  0  0  0  0
  -27.4287  -15.1077   20.5800 C   0  0  0  0  0  0  0  0  0  0  0  0
  -29.0875  -16.5388   20.3913 C   0  0  0  0  0  0  0  0  0  0  0  0
  -29.7107  -14.1821   19.8379 C   0  0  0  0  0  0  0  0  0  0  0  0
  -26.3320  -30.4070   21.6710 C   0  0  0  0  0  0  0  0  0  0  0  0
  -24.4548  -28.0231   22.8179 C   0  0  0  0  0  0  0  0  0  0  0  0
  -23.8702  -24.6718   23.0892 C   0  0  0  0  0  0  0  0  0  0  0  0
  -27.8125  -21.9177   19.6250 C   0  0  0  0  0  0  0  0  0  0  0  0
  -24.5734  -34.1693   24.6392 C   0  0  0  0  0  0  0  0  0  0  0  0
  -25.9183  -29.0466   19.5892 C   0  0  0  0  0  0  0  0  0  0  0  0
  -26.6949  -27.3424   21.8778 C   0  0  0  0  0  0  0  0  0  0  0  0
  -24.9998  -32.7191   24.8524 C   0  0  0  0  0  0  0  0  0  0  0  0
  -26.4091  -20.2947   22.4663 C   0  0  0  0  0  0  0  0  0  0  0  0
  -26.3517  -32.4582   24.1958 C   0  0  0  0  0  0  0  0  0  0  0  0
  -26.6562  -18.8091   22.1981 C   0  0  0  0  0  0  0  0  0  0  0  0
  -26.0889  -21.0546   21.1810 C   0  0  0  0  0  0  0  0  0  0  0  0
  -27.3269  -19.4042   19.8328 C   0  0  0  0  0  0  0  0  0  0  0  0
  -26.2811  -32.6807   22.6802 C   0  0  1  0  0  0  0  0  0  0  0  0
  -25.4737  -29.3635   21.0138 C   0  0  1  0  0  0  0  0  0  0  0  0
  -27.7086  -18.6066   21.0915 C   0  0  2  0  0  0  0  0  0  0  0  0
  -22.2800  -23.0266   24.1199 C   0  0  0  0  0  0  0  0  0  0  0  0
  -25.7421  -28.4906   25.5444 C   0  0  0  0  0  0  0  0  0  0  0  0
  -24.8512  -26.2659   26.2689 C   0  0  0  0  0  0  0  0  0  0  0  0
  -23.2754  -28.0844   25.6113 C   0  0  0  0  0  0  0  0  0  0  0  0
  -23.0881  -23.5952   20.4457 C   0  0  0  0  0  0  0  0  0  0  0  0
  -30.8638  -22.9379   18.7987 C   0  0  0  0  0  0  0  0  0  0  0  0
  -29.5787  -22.6274   18.0326 C   0  0  0  0  0  0  0  0  0  0  0  0
  -30.9542  -25.3556   18.0181 C   0  0  0  0  0  0  0  0  0  1  0  0
  -24.6318  -26.9145   23.8271 C   0  0  1  0  0  0  0  0  0  0  0  0
  -22.6110  -23.8491   22.8843 C   0  0  2  0  0  0  0  0  0  0  0  0
  -31.7154  -24.0386   18.1460 C   0  0  2  0  0  0  0  0  0  0  0  0
  -24.6419  -27.4410   25.2901 C   0  0  0  0  0  0  0  0  0  0  0  0
  -26.8943  -16.2854   20.9141 N   0  0  0  0  0  0  0  0  0  0  0  0
  -27.9277  -17.1355   20.7898 N   0  0  0  0  0  0  0  0  0  0  0  0
  -25.4891  -28.1870   21.8856 N   0  0  0  0  0  0  0  0  0  0  0  0
  -27.1262  -20.8215   20.1732 N   0  0  0  0  0  0  0  0  0  0  0  0
  -30.2232  -17.2474   20.2167 N   0  0  0  0  0  0  0  0  0  0  0  0
  -29.2423  -12.8649   19.7389 N   0  0  0  0  0  0  0  0  0  0  0  0
  -25.6480  -31.5519   22.0326 N   0  0  0  0  0  0  0  0  0  0  0  0
  -23.5829  -25.9391   23.5503 N   0  0  0  0  0  0  0  0  0  0  0  0
  -28.7842  -21.6082   18.6813 N   0  0  0  0  0  0  0  0  0  0  0  0
  -22.7817  -22.9190   21.7325 N   0  3  0  0  0  0  0  0  0  0  0  0
  -30.9151  -14.4260   19.5857 O   0  0  0  0  0  0  0  0  0  0  0  0
  -27.5261  -30.1890   21.8391 O   0  0  0  0  0  0  0  0  0  0  0  0
  -23.4330  -28.7134   22.8508 O   0  0  0  0  0  0  0  0  0  0  0  0
  -24.9963  -24.2328   22.8664 O   0  0  0  0  0  0  0  0  0  0  0  0
  -27.5803  -23.0853   19.9563 O   0  0  0  0  0  0  0  0  0  0  0  0
  -32.1316  -23.6267   16.8473 O   0  0  0  0  0  0  0  0  0  0  0  0
  -24.2822  -10.4855   20.6172 O   0  0  0  0  0  0  0  0  0  0  0  0
  -30.5755  -25.8337   19.3082 O   0  0  0  0  0  0  0  0  0  1  0  0
  -20.9648   -9.6705   24.9455 F   0  0  0  0  0  0  0  0  0  0  0  0
  -22.3032  -12.3090   21.2506 F   0  0  0  0  0  0  0  0  0  0  0  0
  1  2  1  0  0  0  0
  1  5  2  0  0  0  0
  2  6  2  0  0  0  0
  3  8  2  0  0  0  0
  3 15  1  0  0  0  0
  4  9  1  0  0  0  0
  4 15  2  0  0  0  0
  5 17  1  0  0  0  0
  6 19  1  0  0  0  0
  7 10  2  0  0  0  0
  7 18  1  0  0  0  0
  8 21  1  0  0  0  0
  9 21  2  0  0  0  0
 10 22  1  0  0  0  0
 11 12  2  0  0  0  0
 11 23  1  0  0  0  0
 12 24  1  0  0  0  0
 13 20  1  0  0  0  0
 13 22  2  0  0  0  0
 14 24  2  0  0  0  0
 14 25  1  0  0  0  0
 15 26  1  0  0  0  0
 16 26  1  0  0  0  0
 16 27  2  0  0  0  0
 16 28  1  0  0  0  0
 17 19  2  0  0  0  0
 17 33  1  0  0  0  0
 18 20  2  0  0  0  0
 18 34  1  0  0  0  0
 19 42  1  0  0  0  0
 20 35  1  0  0  0  0
 21 73  1  0  0  0  0
 22 74  1  0  0  0  0
 23 25  2  0  0  0  0
 23 73  1  0  0  0  0
 24 75  1  0  0  0  0
 25 76  1  0  0  0  0
 26 57  2  0  0  0  0
 27 58  1  0  0  0  0
 27 61  1  0  0  0  0
 28 62  1  0  0  0  0
 28 67  2  0  0  0  0
 29 43  1  0  0  0  0
 29 63  1  0  0  0  0
 29 68  2  0  0  0  0
 30 53  1  0  0  0  0
 30 59  1  0  0  0  0
 30 69  2  0  0  0  0
 31 54  1  0  0  0  0
 31 64  1  0  0  0  0
 31 70  2  0  0  0  0
 32 60  1  0  0  0  0
 32 65  1  0  0  0  0
 32 71  2  0  0  0  0
 33 36  1  0  0  0  0
 34 43  1  0  0  0  0
 35 59  1  0  0  0  0
 36 38  1  0  0  0  0
 37 39  1  0  0  0  0
 37 40  1  0  0  0  0
 38 42  1  0  0  0  0
 39 44  1  0  0  0  0
 40 60  1  0  0  0  0
 41 44  1  0  0  0  0
 41 60  1  0  0  0  0
 42 63  1  0  0  0  0
 43 59  1  0  0  0  0
 44 58  1  0  0  0  0
 45 54  1  0  0  0  0
 46 56  1  0  0  0  0
 47 56  1  0  0  0  0
 48 56  1  0  0  0  0
 49 66  1  0  0  0  0
 50 51  1  0  0  0  0
 50 55  1  0  0  0  0
 51 65  1  0  0  0  0
 52 55  1  0  0  0  0
 52 74  1  0  0  0  0
 53 56  1  0  0  0  0
 53 64  1  0  0  0  0
 54 66  1  0  0  0  0
 55 72  1  0  0  0  0
 57 58  1  0  0  0  0
M  CHG  1  66   1
M  ISO  4  32 100  52 101  65 100  74 101
M  END
> <Batch ID>
0112

> <Smiles>
CNC(C)C(=O)NC(C(=O)N1Cc2cc([101O:1][101CH2:1]C(O)CC[100NH:0][100C:0](=O)N3CCCC(n4nc(-c5ccc(Oc6ccc(F)cc6F)cc5)c(C(N)=O)c4N)C3)ccc2CC1C(=O)NC1CCCc2ccccc21)C(C)(C)C

> <Shape>
0.254

> <Color>
0.080

> <Negative vol penalty>
0.000

$$$$

  -OEChem-04052320033D

 81 89  0     1  0  0  0  0  0999 V2000
  -28.6837  -37.1685   23.4138 C   0  0  0  0  0  0  0  0  0  0  0  0
  -28.8534  -36.3292   22.3173 C   0  0  0  0  0  0  0  0  0  0  0  0
  -25.4908  -13.5898   22.3619 C   0  0  0  0  0  0  0  0  0  0  0  0
  -26.6628  -13.8160   20.2613 C   0  0  0  0  0  0  0  0  0  0  0  0
  -28.2689  -36.6414   24.6361 C   0  0  0  0  0  0  0  0  0  0  0  0
  -28.6095  -34.9620   22.4429 C   0  0  0  0  0  0  0  0  0  0  0  0
  -26.2108  -29.3512   18.6903 C   0  0  0  0  0  0  0  0  0  0  0  0
  -24.5495  -12.7637   21.7478 C   0  0  0  0  0  0  0  0  0  0  0  0
  -25.7215  -12.9898   19.6472 C   0  0  0  0  0  0  0  0  0  0  0  0
  -26.5770  -28.0515   18.3435 C   0  0  0  0  0  0  0  0  0  0  0  0
  -22.0409  -10.3036   20.8150 C   0  0  0  0  0  0  0  0  0  0  0  0
  -21.6642   -9.1397   21.4851 C   0  0  0  0  0  0  0  0  0  0  0  0
  -25.7880  -27.2647   20.4830 C   0  0  0  0  0  0  0  0  0  0  0  0
  -23.9540   -8.3706   21.4364 C   0  0  0  0  0  0  0  0  0  0  0  0
  -26.5474  -14.1160   21.6187 C   0  0  0  0  0  0  0  0  0  0  0  0
  -28.7176  -14.5759   22.8781 C   0  0  0  0  0  0  0  0  0  0  0  0
  -28.0105  -35.2685   24.7742 C   0  0  0  0  0  0  0  0  0  0  0  0
  -25.6394  -29.6196   19.9425 C   0  0  0  0  0  0  0  0  0  0  0  0
  -28.1922  -34.4159   23.6686 C   0  0  0  0  0  0  0  0  0  0  0  0
  -25.4130  -28.5683   20.8423 C   0  0  0  0  0  0  0  0  0  0  0  0
  -24.6649  -12.4636   20.3905 C   0  0  0  0  0  0  0  0  0  0  0  0
  -26.3683  -27.0084   19.2410 C   0  0  0  0  0  0  0  0  0  0  0  0
  -23.3741  -10.5010   20.4555 C   0  0  0  0  0  0  0  0  0  0  0  0
  -22.6207   -8.1732   21.7958 C   0  0  0  0  0  0  0  0  0  0  0  0
  -24.3307   -9.5345   20.7663 C   0  0  0  0  0  0  0  0  0  0  0  0
  -27.5197  -14.9699   22.2523 C   0  0  0  0  0  0  0  0  0  0  0  0
  -29.2784  -15.7505   23.3165 C   0  0  0  0  0  0  0  0  0  0  0  0
  -28.6194  -23.6020   18.4097 C   0  0  0  0  0  0  0  0  0  0  0  0
  -29.0448  -22.3294   18.4052 C   0  0  0  0  0  0  0  0  0  0  0  0
  -27.6730  -24.1194   17.4335 C   0  0  0  0  0  0  0  0  0  0  0  0
  -27.2069  -23.2899   16.4773 C   0  0  0  0  0  0  0  0  0  0  0  0
  -28.5208  -21.4107   17.3482 C   0  0  0  0  0  0  0  0  0  0  0  0
  -29.2738  -13.2653   23.0478 C   0  0  0  0  0  0  0  0  0  0  0  0
  -26.4680  -31.3815   22.4551 C   0  0  0  0  0  0  0  0  0  0  0  0
  -23.5280  -30.5309   23.5299 C   0  0  0  0  0  0  0  0  0  0  0  0
  -20.9358  -28.3135   23.4283 C   0  0  0  0  0  0  0  0  0  0  0  0
  -28.7635  -21.4370   21.5136 C   0  0  0  0  0  0  0  0  0  0  0  0
  -27.6096  -34.7379   26.1278 C   0  0  0  0  0  0  0  0  0  0  0  0
  -25.2253  -31.0229   20.2910 C   0  0  0  0  0  0  0  0  0  0  0  0
  -24.7844  -28.8004   22.1912 C   0  0  0  0  0  0  0  0  0  0  0  0
  -27.0110  -33.3345   26.0790 C   0  0  0  0  0  0  0  0  0  0  0  0
  -28.0936  -20.1534   24.7663 C   0  0  0  0  0  0  0  0  0  0  0  0
  -27.8631  -32.4208   25.2038 C   0  0  0  0  0  0  0  0  0  0  0  0
  -27.9786  -18.6438   24.5473 C   0  0  0  0  0  0  0  0  0  0  0  0
  -27.5127  -20.9397   23.5932 C   0  0  0  0  0  0  0  0  0  0  0  0
  -27.9421  -19.0641   22.0532 C   0  0  0  0  0  0  0  0  0  0  0  0
  -27.9137  -32.9311   23.7587 C   0  0  1  0  0  0  0  0  0  0  0  0
  -25.1238  -31.2600   21.7946 C   0  0  1  0  0  0  0  0  0  0  0  0
  -28.5651  -18.2287   23.1846 C   0  0  2  0  0  0  0  0  0  0  0  0
  -26.2454  -23.6482   15.3817 C   0  0  0  0  0  0  0  0  0  0  0  0
  -18.6871  -27.8638   24.4473 C   0  0  0  0  0  0  0  0  0  0  0  0
  -24.8834  -29.5419   26.0784 C   0  0  0  0  0  0  0  0  0  0  0  0
  -22.7908  -28.2775   26.6175 C   0  0  0  0  0  0  0  0  0  0  0  0
  -22.7337  -30.7655   26.4475 C   0  0  0  0  0  0  0  0  0  0  0  0
  -19.5789  -28.5103   20.8055 C   0  0  0  0  0  0  0  0  0  0  0  0
  -30.0157  -21.7750   19.3977 C   0  0  0  0  0  0  0  0  0  0  0  0
  -27.3090  -25.5476   17.6171 C   0  0  0  0  0  0  0  0  0  1  0  0
  -22.9776  -29.3847   24.3437 C   0  0  1  0  0  0  0  0  0  0  0  0
  -19.4375  -28.5207   23.2992 C   0  0  2  0  0  0  0  0  0  0  0  0
  -23.3600  -29.4880   25.8472 C   0  0  0  0  0  0  0  0  0  0  0  0
  -27.3297  -16.2915   22.2881 N   0  0  0  0  0  0  0  0  0  0  0  0
  -28.4157  -16.7382   22.9416 N   0  0  0  0  0  0  0  0  0  0  0  0
  -27.6305  -21.9737   16.4523 N   0  0  0  0  0  0  0  0  0  0  0  0
  -24.4025  -30.1909   22.4880 N   0  0  0  0  0  0  0  0  0  0  0  0
  -28.1117  -20.4990   22.3310 N   0  0  0  0  0  0  0  0  0  0  0  0
  -30.4203  -16.0246   23.9823 N   0  0  0  0  0  0  0  0  0  0  0  0
  -28.5672  -12.1683   22.5363 N   0  0  0  0  0  0  0  0  0  0  0  0
  -26.6877  -32.6026   23.0634 N   0  0  0  0  0  0  0  0  0  0  0  0
  -21.5406  -29.3592   24.0931 N   0  0  0  0  0  0  0  0  0  0  0  0
  -29.3089  -20.9346   20.3384 N   0  0  0  0  0  0  0  0  0  0  0  0
  -18.9423  -27.9383   22.0199 N   0  3  0  0  0  0  0  0  0  0  0  0
  -28.8741  -20.2345   17.2976 O   0  0  0  0  0  0  0  0  0  0  0  0
  -30.3569  -13.0713   23.6500 O   0  0  0  0  0  0  0  0  0  0  0  0
  -27.2475  -30.4367   22.4169 O   0  0  0  0  0  0  0  0  0  0  0  0
  -23.1888  -31.6848   23.8039 O   0  0  0  0  0  0  0  0  0  0  0  0
  -21.5115  -27.3213   22.9870 O   0  0  0  0  0  0  0  0  0  0  0  0
  -28.8575  -22.6325   21.8116 O   0  0  0  0  0  0  0  0  0  0  0  0
  -23.7467  -11.6574   19.7909 O   0  0  0  0  0  0  0  0  0  0  0  0
  -26.7255  -25.7390   18.9052 O   0  0  0  0  0  0  0  0  0  1  0  0
  -22.2590   -7.0563   22.4407 F   0  0  0  0  0  0  0  0  0  0  0  0
  -25.6132   -9.7190   20.4246 F   0  0  0  0  0  0  0  0  0  0  0  0
  1  2  1  0  0  0  0
  1  5  2  0  0  0  0
  2  6  2  0  0  0  0
  3  8  2  0  0  0  0
  3 15  1  0  0  0  0
  4  9  1  0  0  0  0
  4 15  2  0  0  0  0
  5 17  1  0  0  0  0
  6 19  1  0  0  0  0
  7 10  2  0  0  0  0
  7 18  1  0  0  0  0
  8 21  1  0  0  0  0
  9 21  2  0  0  0  0
 10 22  1  0  0  0  0
 11 12  2  0  0  0  0
 11 23  1  0  0  0  0
 12 24  1  0  0  0  0
 13 20  1  0  0  0  0
 13 22  2  0  0  0  0
 14 24  2  0  0  0  0
 14 25  1  0  0  0  0
 15 26  1  0  0  0  0
 16 26  1  0  0  0  0
 16 27  2  0  0  0  0
 16 33  1  0  0  0  0
 17 19  2  0  0  0  0
 17 38  1  0  0  0  0
 18 20  2  0  0  0  0
 18 39  1  0  0  0  0
 19 47  1  0  0  0  0
 20 40  1  0  0  0  0
 21 78  1  0  0  0  0
 22 79  1  0  0  0  0
 23 25  2  0  0  0  0
 23 78  1  0  0  0  0
 24 80  1  0  0  0  0
 25 81  1  0  0  0  0
 26 61  2  0  0  0  0
 27 62  1  0  0  0  0
 27 66  1  0  0  0  0
 28 29  2  0  0  0  0
 28 30  1  0  0  0  0
 29 32  1  0  0  0  0
 29 56  1  0  0  0  0
 30 31  2  0  0  0  0
 30 57  1  0  0  0  0
 31 50  1  0  0  0  0
 31 63  1  0  0  0  0
 32 63  1  0  0  0  0
 32 72  2  0  0  0  0
 33 67  1  0  0  0  0
 33 73  2  0  0  0  0
 34 48  1  0  0  0  0
 34 68  1  0  0  0  0
 34 74  2  0  0  0  0
 35 58  1  0  0  0  0
 35 64  1  0  0  0  0
 35 75  2  0  0  0  0
 36 59  1  0  0  0  0
 36 69  1  0  0  0  0
 36 76  2  0  0  0  0
 37 65  1  0  0  0  0
 37 70  1  0  0  0  0
 37 77  2  0  0  0  0
 38 41  1  0  0  0  0
 39 48  1  0  0  0  0
 40 64  1  0  0  0  0
 41 43  1  0  0  0  0
 42 44  1  0  0  0  0
 42 45  1  0  0  0  0
 43 47  1  0  0  0  0
 44 49  1  0  0  0  0
 45 65  1  0  0  0  0
 46 49  1  0  0  0  0
 46 65  1  0  0  0  0
 47 68  1  0  0  0  0
 48 64  1  0  0  0  0
 49 62  1  0  0  0  0
 51 59  1  0  0  0  0
 52 60  1  0  0  0  0
 53 60  1  0  0  0  0
 54 60  1  0  0  0  0
 55 71  1  0  0  0  0
 56 70  1  0  0  0  0
 57 79  1  0  0  0  0
 58 60  1  0  0  0  0
 58 69  1  0  0  0  0
 59 71  1  0  0  0  0
 61 62  1  0  0  0  0
M  CHG  1  71   1
M  ISO  4  37 100  57 101  70 100  79 101
M  END
> <Batch ID>
0112

> <Smiles>
CNC(C)C(=O)NC(C(=O)N1Cc2cc([101O:1][101CH2:1]c3cc(C[100NH:0][100C:0](=O)N4CCCC(n5nc(-c6ccc(Oc7ccc(F)cc7F)cc6)c(C(N)=O)c5N)C4)c(O)nc3C)ccc2CC1C(=O)NC1CCCc2ccccc21)C(C)(C)C

> <Shape>
0.265

> <Color>
0.073

> <Negative vol penalty>
0.000

$$$$

  -OEChem-04052320033D

 88 96  0     1  0  0  0  0  0999 V2000
  -21.3892  -29.7392   28.7628 C   0  0  0  0  0  0  0  0  0  0  0  0
  -21.5276  -28.3954   28.4305 C   0  0  0  0  0  0  0  0  0  0  0  0
  -23.1006   -9.8742   21.4590 C   0  0  0  0  0  0  0  0  0  0  0  0
  -23.8599  -10.7560   23.5764 C   0  0  0  0  0  0  0  0  0  0  0  0
  -21.6926  -30.7233   27.8230 C   0  0  0  0  0  0  0  0  0  0  0  0
  -21.9684  -28.0349   27.1577 C   0  0  0  0  0  0  0  0  0  0  0  0
  -25.4842  -23.2366   25.7010 C   0  0  0  0  0  0  0  0  0  0  0  0
  -22.3792   -8.8862   22.1292 C   0  0  0  0  0  0  0  0  0  0  0  0
  -23.1384   -9.7680   24.2465 C   0  0  0  0  0  0  0  0  0  0  0  0
  -25.1828  -21.9699   25.2028 C   0  0  0  0  0  0  0  0  0  0  0  0
  -23.0157   -5.9311   23.6412 C   0  0  0  0  0  0  0  0  0  0  0  0
  -23.1026   -4.6257   23.1577 C   0  0  0  0  0  0  0  0  0  0  0  0
  -25.6347  -22.7492   22.9650 C   0  0  0  0  0  0  0  0  0  0  0  0
  -26.7317  -18.8474   21.1546 C   0  0  0  0  0  0  0  0  0  0  0  0
  -20.7154   -4.6042   22.7865 C   0  0  0  0  0  0  0  0  0  0  0  0
  -28.0379  -18.0433   22.8030 C   0  0  0  0  0  0  0  0  0  0  0  0
  -23.8410  -10.8090   22.1826 C   0  0  0  0  0  0  0  0  0  0  0  0
  -24.1339  -13.1098   21.1204 C   0  0  0  0  0  0  0  0  0  0  0  0
  -22.1466  -30.3749   26.5412 C   0  0  0  0  0  0  0  0  0  0  0  0
  -25.8532  -24.2738   24.8325 C   0  0  0  0  0  0  0  0  0  0  0  0
  -22.2769  -29.0153   26.1993 C   0  0  0  0  0  0  0  0  0  0  0  0
  -25.9428  -24.0275   23.4550 C   0  0  0  0  0  0  0  0  0  0  0  0
  -26.7302  -18.3175   22.4685 C   0  0  0  0  0  0  0  0  0  0  0  0
  -22.3981   -8.8332   23.5229 C   0  0  0  0  0  0  0  0  0  0  0  0
  -25.2552  -21.7267   23.8343 C   0  0  0  0  0  0  0  0  0  0  0  0
  -21.7786   -6.5731   23.6975 C   0  0  0  0  0  0  0  0  0  0  0  0
  -21.9525   -3.9622   22.7303 C   0  0  0  0  0  0  0  0  0  0  0  0
  -20.6284   -5.9096   23.2701 C   0  0  0  0  0  0  0  0  0  0  0  0
  -24.5870  -11.8295   21.4909 C   0  0  0  0  0  0  0  0  0  0  0  0
  -28.0404  -18.8807   20.7261 C   0  0  0  0  0  0  0  0  0  0  0  0
  -25.2114  -13.6874   20.4944 C   0  0  0  0  0  0  0  0  0  0  0  0
  -22.8536  -13.7223   21.3239 C   0  0  0  0  0  0  0  0  0  0  0  0
  -24.6362  -27.1136   24.0851 C   0  0  0  0  0  0  0  0  0  0  0  0
  -27.3784  -27.4046   22.3770 C   0  0  0  0  0  0  0  0  0  0  0  0
  -29.9664  -25.8683   20.7681 C   0  0  0  0  0  0  0  0  0  0  0  0
  -30.6744  -14.8012   20.2471 C   0  0  0  0  0  0  0  0  0  0  0  0
  -22.4170  -31.4732   25.5434 C   0  0  0  0  0  0  0  0  0  0  0  0
  -26.2011  -25.6275   25.3884 C   0  0  0  0  0  0  0  0  0  0  0  0
  -26.3536  -25.1016   22.4824 C   0  0  0  0  0  0  0  0  0  0  0  0
  -23.2361  -31.0144   24.3397 C   0  0  0  0  0  0  0  0  0  0  0  0
  -29.5835  -11.6746   18.9390 C   0  0  0  0  0  0  0  0  0  0  0  0
  -22.6876  -29.7016   23.7898 C   0  0  0  0  0  0  0  0  0  0  0  0
  -28.1520  -11.5392   19.4608 C   0  0  0  0  0  0  0  0  0  0  0  0
  -30.4960  -12.3469   19.9624 C   0  0  0  0  0  0  0  0  0  0  0  0
  -28.5803  -13.5110   20.9864 C   0  0  0  0  0  0  0  0  0  0  0  0
  -22.7760  -28.5850   24.8370 C   0  0  1  0  0  0  0  0  0  0  0  0
  -26.0670  -26.7476   24.3614 C   0  0  1  0  0  0  0  0  0  0  0  0
  -27.6098  -12.8892   19.9675 C   0  0  2  0  0  0  0  0  0  0  0  0
  -28.3524  -20.8405   19.1720 C   0  0  0  0  0  0  0  0  0  0  0  0
  -28.1044  -18.5142   18.2329 C   0  0  0  0  0  0  0  0  0  0  0  0
  -32.0323  -26.3691   19.4345 C   0  0  0  0  0  0  0  0  0  0  0  0
  -24.1997  -17.7798   22.5632 C   0  0  0  0  0  0  0  0  0  0  0  0
  -25.6496  -28.0618   19.9502 C   0  0  0  0  0  0  0  0  0  0  0  0
  -27.6398  -27.6145   18.4985 C   0  0  0  0  0  0  0  0  0  0  0  0
  -27.7097  -29.4619   20.1733 C   0  0  0  0  0  0  0  0  0  0  0  0
  -31.0173  -19.5864   21.4831 C   0  0  0  0  0  0  0  0  0  0  0  0
  -30.7453  -17.6904   23.0602 C   0  0  0  0  0  0  0  0  0  0  0  0
  -31.7124  -24.5460   22.7586 C   0  0  0  0  0  0  0  0  0  0  0  0
  -30.6983  -17.2597   20.5850 C   0  0  0  0  0  0  0  0  0  0  0  0
  -25.7457  -16.9345   24.3710 C   0  0  0  0  0  0  0  0  0  0  0  0
  -25.2257  -19.3763   24.1954 C   0  0  0  0  0  0  0  0  0  1  0  0
  -28.6055  -19.3394   19.4402 C   0  0  0  0  0  0  0  0  0  0  0  0
  -27.8020  -27.0638   20.9686 C   0  0  1  0  0  0  0  0  0  0  0  0
  -31.4655  -26.1016   20.8201 C   0  0  2  0  0  0  0  0  0  0  0  0
  -25.4928  -18.0896   23.3614 C   0  0  1  0  0  0  0  0  0  0  0  0
  -27.1906  -28.0306   19.9155 C   0  0  0  0  0  0  0  0  0  0  0  0
  -30.2649  -18.2505   21.6997 C   0  0  0  0  0  0  0  0  0  0  0  0
  -25.8535  -11.6063   21.1303 N   0  0  0  0  0  0  0  0  0  0  0  0
  -28.8255  -18.3893   21.7361 N   0  0  0  0  0  0  0  0  0  0  0  0
  -26.2055  -12.7542   20.5265 N   0  0  0  0  0  0  0  0  0  0  0  0
  -26.6777  -26.4102   23.0740 N   0  0  0  0  0  0  0  0  0  0  0  0
  -29.9255  -13.6228   20.4011 N   0  0  0  0  0  0  0  0  0  0  0  0
  -25.3960  -14.8975   19.9251 N   0  0  0  0  0  0  0  0  0  0  0  0
  -21.8594  -12.9883   21.9852 N   0  0  0  0  0  0  0  0  0  0  0  0
  -24.1307  -28.0842   24.9288 N   0  0  0  0  0  0  0  0  0  0  0  0
  -29.2605  -27.0342   20.9769 N   0  0  0  0  0  0  0  0  0  0  0  0
  -30.0572  -15.9674   20.6828 N   0  0  0  0  0  0  0  0  0  0  0  0
  -26.0497  -15.6505   23.6875 N   0  3  0  0  0  0  0  0  0  0  0  0
  -32.1559  -24.9093   21.3881 N   0  3  0  0  0  0  0  0  0  0  0  0
  -22.5936  -14.8798   20.9165 O   0  0  0  0  0  0  0  0  0  0  0  0
  -24.0357  -26.5576   23.1729 O   0  0  0  0  0  0  0  0  0  0  0  0
  -27.6651  -28.5098   22.8439 O   0  0  0  0  0  0  0  0  0  0  0  0
  -29.4712  -24.7630   20.5591 O   0  0  0  0  0  0  0  0  0  0  0  0
  -31.8068  -14.8138   19.7527 O   0  0  0  0  0  0  0  0  0  0  0  0
  -21.6940   -7.8694   24.1771 O   0  0  0  0  0  0  0  0  0  0  0  0
  -24.9609  -20.4914   23.3453 O   0  0  0  0  0  0  0  0  0  1  0  0
  -22.0363   -2.7091   22.2645 F   0  0  0  0  0  0  0  0  0  0  0  0
  -19.4373   -6.5216   23.3206 F   0  0  0  0  0  0  0  0  0  0  0  0
  1  2  1  0  0  0  0
  1  5  2  0  0  0  0
  2  6  2  0  0  0  0
  3  8  2  0  0  0  0
  3 17  1  0  0  0  0
  4  9  1  0  0  0  0
  4 17  2  0  0  0  0
  5 19  1  0  0  0  0
  6 21  1  0  0  0  0
  7 10  2  0  0  0  0
  7 20  1  0  0  0  0
  8 24  1  0  0  0  0
  9 24  2  0  0  0  0
 10 25  1  0  0  0  0
 11 12  2  0  0  0  0
 11 26  1  0  0  0  0
 12 27  1  0  0  0  0
 13 22  1  0  0  0  0
 13 25  2  0  0  0  0
 14 23  1  0  0  0  0
 14 30  2  0  0  0  0
 15 27  2  0  0  0  0
 15 28  1  0  0  0  0
 16 23  2  0  0  0  0
 16 69  1  0  0  0  0
 17 29  1  0  0  0  0
 18 29  1  0  0  0  0
 18 31  2  0  0  0  0
 18 32  1  0  0  0  0
 19 21  2  0  0  0  0
 19 37  1  0  0  0  0
 20 22  2  0  0  0  0
 20 38  1  0  0  0  0
 21 46  1  0  0  0  0
 22 39  1  0  0  0  0
 23 65  1  0  0  0  0
 24 85  1  0  0  0  0
 25 86  1  0  0  0  0
 26 28  2  0  0  0  0
 26 85  1  0  0  0  0
 27 87  1  0  0  0  0
 28 88  1  0  0  0  0
 29 68  2  0  0  0  0
 30 62  1  0  0  0  0
 30 69  1  0  0  0  0
 31 70  1  0  0  0  0
 31 73  1  0  0  0  0
 32 74  1  0  0  0  0
 32 80  2  0  0  0  0
 33 47  1  0  0  0  0
 33 75  1  0  0  0  0
 33 81  2  0  0  0  0
 34 63  1  0  0  0  0
 34 71  1  0  0  0  0
 34 82  2  0  0  0  0
 35 64  1  0  0  0  0
 35 76  1  0  0  0  0
 35 83  2  0  0  0  0
 36 72  1  0  0  0  0
 36 77  1  0  0  0  0
 36 84  2  0  0  0  0
 37 40  1  0  0  0  0
 38 47  1  0  0  0  0
 39 71  1  0  0  0  0
 40 42  1  0  0  0  0
 41 43  1  0  0  0  0
 41 44  1  0  0  0  0
 42 46  1  0  0  0  0
 43 48  1  0  0  0  0
 44 72  1  0  0  0  0
 45 48  1  0  0  0  0
 45 72  1  0  0  0  0
 46 75  1  0  0  0  0
 47 71  1  0  0  0  0
 48 70  1  0  0  0  0
 49 62  1  0  0  0  0
 50 62  1  0  0  0  0
 51 64  1  0  0  0  0
 52 65  1  0  0  0  0
 53 66  1  0  0  0  0
 54 66  1  0  0  0  0
 55 66  1  0  0  0  0
 56 67  1  0  0  0  0
 57 67  1  0  0  0  0
 58 79  1  0  0  0  0
 59 67  1  0  0  0  0
 59 77  1  0  0  0  0
 60 65  1  0  0  0  0
 60 78  1  0  0  0  0
 61 65  1  0  0  0  0
 61 86  1  0  0  0  0
 63 66  1  0  0  0  0
 63 76  1  0  0  0  0
 64 79  1  0  0  0  0
 67 69  1  0  0  0  0
 68 70  1  0  0  0  0
M  CHG  2  78   1  79   1
M  ISO  4  36 100  61 101  77 100  86 101
M  END
> <Batch ID>
0112

> <Smiles>
CNC(C)C(=O)NC(C(=O)N1Cc2cc([101O:1][101CH2:1]C(C)(CN)c3cc(C(C)C)n(C(C)(C)C[100NH:0][100C:0](=O)N4CCCC(n5nc(-c6ccc(Oc7ccc(F)cc7F)cc6)c(C(N)=O)c5N)C4)c3)ccc2CC1C(=O)NC1CCCc2ccccc21)C(C)(C)C

> <Shape>
0.246

> <Color>
0.145

> <Negative vol penalty>
0.000

$$$$

  -OEChem-04052320033D

 84 92  0     1  0  0  0  0  0999 V2000
  -39.1352  -21.0606   19.3284 C   0  0  0  0  0  0  0  0  0  0  0  0
  -37.7610  -21.0953   19.5427 C   0  0  0  0  0  0  0  0  0  0  0  0
  -23.1240   -9.7788   20.0815 C   0  0  0  0  0  0  0  0  0  0  0  0
  -23.9727   -9.9532   22.3367 C   0  0  0  0  0  0  0  0  0  0  0  0
  -39.9303  -22.1307   19.7364 C   0  0  0  0  0  0  0  0  0  0  0  0
  -37.1813  -22.1997   20.1660 C   0  0  0  0  0  0  0  0  0  0  0  0
  -32.9601  -23.7510   17.8379 C   0  0  0  0  0  0  0  0  0  0  0  0
  -22.4601   -8.6004   20.4224 C   0  0  0  0  0  0  0  0  0  0  0  0
  -23.3087   -8.7749   22.6778 C   0  0  0  0  0  0  0  0  0  0  0  0
  -31.7977  -23.0178   18.0721 C   0  0  0  0  0  0  0  0  0  0  0  0
  -23.7729   -5.4495   22.2813 C   0  0  0  0  0  0  0  0  0  0  0  0
  -24.4760   -4.5013   23.0243 C   0  0  0  0  0  0  0  0  0  0  0  0
  -31.0820  -24.6749   19.6724 C   0  0  0  0  0  0  0  0  0  0  0  0
  -22.8364   -4.6701   24.7909 C   0  0  0  0  0  0  0  0  0  0  0  0
  -23.8804  -10.4552   21.0386 C   0  0  0  0  0  0  0  0  0  0  0  0
  -24.0674  -12.9854   20.7734 C   0  0  0  0  0  0  0  0  0  0  0  0
  -39.3588  -23.2531   20.3564 C   0  0  0  0  0  0  0  0  0  0  0  0
  -33.1978  -24.9481   18.5284 C   0  0  0  0  0  0  0  0  0  0  0  0
  -37.9697  -23.2853   20.5839 C   0  0  0  0  0  0  0  0  0  0  0  0
  -32.2471  -25.4227   19.4433 C   0  0  0  0  0  0  0  0  0  0  0  0
  -22.5524   -8.0985   21.7206 C   0  0  0  0  0  0  0  0  0  0  0  0
  -30.8597  -23.4782   18.9915 C   0  0  0  0  0  0  0  0  0  0  0  0
  -22.6017   -6.0081   22.7930 C   0  0  0  0  0  0  0  0  0  0  0  0
  -24.0077   -4.1115   24.2791 C   0  0  0  0  0  0  0  0  0  0  0  0
  -22.1334   -5.6184   24.0478 C   0  0  0  0  0  0  0  0  0  0  0  0
  -24.5669  -11.6721   20.6868 C   0  0  0  0  0  0  0  0  0  0  0  0
  -25.0981  -13.7750   20.3254 C   0  0  0  0  0  0  0  0  0  0  0  0
  -22.7864  -13.4501   21.2191 C   0  0  0  0  0  0  0  0  0  0  0  0
  -35.4244  -25.9636   20.5568 C   0  0  0  0  0  0  0  0  0  0  0  0
  -33.8711  -28.7933   20.2369 C   0  0  0  0  0  0  0  0  0  0  0  0
  -30.9835  -30.4427   19.4701 C   0  0  0  0  0  0  0  0  0  0  0  0
  -30.6785  -14.8195   20.6834 C   0  0  0  0  0  0  0  0  0  0  0  0
  -40.2650  -24.3649   20.8226 C   0  0  0  0  0  0  0  0  0  0  0  0
  -34.4441  -25.7410   18.2448 C   0  0  0  0  0  0  0  0  0  0  0  0
  -32.4453  -26.7123   20.1957 C   0  0  0  0  0  0  0  0  0  0  0  0
  -39.5248  -25.6621   21.1384 C   0  0  0  0  0  0  0  0  0  0  0  0
  -29.4217  -12.5784   18.0115 C   0  0  0  0  0  0  0  0  0  0  0  0
  -38.2880  -25.3784   21.9850 C   0  0  0  0  0  0  0  0  0  0  0  0
  -28.0348  -12.1972   18.5258 C   0  0  0  0  0  0  0  0  0  0  0  0
  -31.2402  -17.7396   22.4706 C   0  0  0  0  0  0  0  0  0  0  0  0
  -29.1979  -18.0000   21.0066 C   0  0  0  0  0  0  0  0  0  0  0  0
  -30.3789  -12.9065   19.1530 C   0  0  0  0  0  0  0  0  0  0  0  0
  -30.8637  -16.2752   22.6789 C   0  0  0  0  0  0  0  0  0  0  0  0
  -28.8755  -16.5185   21.2231 C   0  0  0  0  0  0  0  0  0  0  0  0
  -28.4828  -13.5750   20.5953 C   0  0  0  0  0  0  0  0  0  0  0  0
  -37.3007  -24.4766   21.2345 C   0  0  1  0  0  0  0  0  0  0  0  0
  -34.8244  -26.6836   19.3825 C   0  0  1  0  0  0  0  0  0  0  0  0
  -27.4827  -13.2817   19.4669 C   0  0  2  0  0  0  0  0  0  0  0  0
  -29.9902  -18.5684   22.1819 C   0  0  0  0  0  0  0  0  0  0  0  0
  -30.0099  -32.7517   19.3360 C   0  0  0  0  0  0  0  0  0  0  0  0
  -27.3833  -21.1111   19.7531 C   0  0  0  0  0  0  0  0  0  0  0  0
  -30.2670  -21.0395   24.0714 C   0  0  0  0  0  0  0  0  0  0  0  0
  -32.0012  -21.7503   22.3798 C   0  0  0  0  0  0  0  0  0  0  0  0
  -33.6584  -28.8777   23.2795 C   0  0  0  0  0  0  0  0  0  0  0  0
  -31.9015  -30.6449   23.0380 C   0  0  0  0  0  0  0  0  0  0  0  0
  -34.2166  -31.0692   22.2116 C   0  0  0  0  0  0  0  0  0  0  0  0
  -30.4373  -30.1699   16.5742 C   0  0  0  0  0  0  0  0  0  0  0  0
  -29.2225  -20.8333   21.4881 C   0  0  0  0  0  0  0  0  0  0  0  0
  -29.8038  -21.3484   19.0630 C   0  0  0  0  0  0  0  0  0  1  0  0
  -32.7228  -29.4688   20.9468 C   0  0  1  0  0  0  0  0  0  0  0  0
  -30.7140  -31.6390   18.5752 C   0  0  2  0  0  0  0  0  0  0  0  0
  -28.8231  -20.6572   20.0185 C   0  0  2  0  0  0  0  0  0  0  0  0
  -31.2111  -20.5919   22.9672 C   0  0  0  0  0  0  0  0  0  0  0  0
  -33.1217  -29.9898   22.3564 C   0  0  0  0  0  0  0  0  0  0  0  0
  -25.8176  -11.6259   20.2203 N   0  0  0  0  0  0  0  0  0  0  0  0
  -26.1127  -12.9199   20.0096 N   0  0  0  0  0  0  0  0  0  0  0  0
  -33.6827  -27.4484   19.8884 N   0  0  0  0  0  0  0  0  0  0  0  0
  -29.8130  -13.9046   20.0607 N   0  0  0  0  0  0  0  0  0  0  0  0
  -30.0944  -15.7612   21.5440 N   0  0  0  0  0  0  0  0  0  0  0  0
  -25.2265  -15.1104   20.1746 N   0  0  0  0  0  0  0  0  0  0  0  0
  -21.8441  -12.5045   21.6460 N   0  0  0  0  0  0  0  0  0  0  0  0
  -36.5629  -25.2420   20.2525 N   0  0  0  0  0  0  0  0  0  0  0  0
  -32.2365  -30.5050   20.0423 N   0  0  0  0  0  0  0  0  0  0  0  0
  -29.8560  -31.2413   17.4234 N   0  3  0  0  0  0  0  0  0  0  0  0
  -30.3948  -19.9627   21.8660 N   0  3  1  0  0  0  0  0  0  0  0  0
  -22.4803  -14.6666   21.2227 O   0  0  0  0  0  0  0  0  0  0  0  0
  -34.8946  -26.0571   21.6579 O   0  0  0  0  0  0  0  0  0  0  0  0
  -34.8948  -29.4374   19.9939 O   0  0  0  0  0  0  0  0  0  0  0  0
  -30.1631  -29.5449   19.6470 O   0  0  0  0  0  0  0  0  0  0  0  0
  -31.8988  -14.7964   20.4798 O   0  0  0  0  0  0  0  0  0  0  0  0
  -21.9044   -6.9488   22.0537 O   0  0  0  0  0  0  0  0  0  0  0  0
  -29.7169  -22.7593   19.2240 O   0  0  0  0  0  0  0  0  0  1  0  0
  -24.6821   -3.1998   24.9919 F   0  0  0  0  0  0  0  0  0  0  0  0
  -21.0082   -6.1506   24.5441 F   0  0  0  0  0  0  0  0  0  0  0  0
  1  2  1  0  0  0  0
  1  5  2  0  0  0  0
  2  6  2  0  0  0  0
  3  8  2  0  0  0  0
  3 15  1  0  0  0  0
  4  9  1  0  0  0  0
  4 15  2  0  0  0  0
  5 17  1  0  0  0  0
  6 19  1  0  0  0  0
  7 10  2  0  0  0  0
  7 18  1  0  0  0  0
  8 21  1  0  0  0  0
  9 21  2  0  0  0  0
 10 22  1  0  0  0  0
 11 12  2  0  0  0  0
 11 23  1  0  0  0  0
 12 24  1  0  0  0  0
 13 20  1  0  0  0  0
 13 22  2  0  0  0  0
 14 24  2  0  0  0  0
 14 25  1  0  0  0  0
 15 26  1  0  0  0  0
 16 26  1  0  0  0  0
 16 27  2  0  0  0  0
 16 28  1  0  0  0  0
 17 19  2  0  0  0  0
 17 33  1  0  0  0  0
 18 20  2  0  0  0  0
 18 34  1  0  0  0  0
 19 46  1  0  0  0  0
 20 35  1  0  0  0  0
 21 81  1  0  0  0  0
 22 82  1  0  0  0  0
 23 25  2  0  0  0  0
 23 81  1  0  0  0  0
 24 83  1  0  0  0  0
 25 84  1  0  0  0  0
 26 65  2  0  0  0  0
 27 66  1  0  0  0  0
 27 70  1  0  0  0  0
 28 71  1  0  0  0  0
 28 76  2  0  0  0  0
 29 47  1  0  0  0  0
 29 72  1  0  0  0  0
 29 77  2  0  0  0  0
 30 60  1  0  0  0  0
 30 67  1  0  0  0  0
 30 78  2  0  0  0  0
 31 61  1  0  0  0  0
 31 73  1  0  0  0  0
 31 79  2  0  0  0  0
 32 68  1  0  0  0  0
 32 69  1  0  0  0  0
 32 80  2  0  0  0  0
 33 36  1  0  0  0  0
 34 47  1  0  0  0  0
 35 67  1  0  0  0  0
 36 38  1  0  0  0  0
 37 39  1  0  0  0  0
 37 42  1  0  0  0  0
 38 46  1  0  0  0  0
 39 48  1  0  0  0  0
 40 43  1  0  0  0  0
 40 49  1  0  0  0  0
 41 44  1  0  0  0  0
 41 49  1  0  0  0  0
 42 68  1  0  0  0  0
 43 69  1  0  0  0  0
 44 69  1  0  0  0  0
 45 48  1  0  0  0  0
 45 68  1  0  0  0  0
 46 72  1  0  0  0  0
 47 67  1  0  0  0  0
 48 66  1  0  0  0  0
 49 75  1  0  0  0  0
 50 61  1  0  0  0  0
 51 62  1  0  0  0  0
 52 63  1  0  0  0  0
 53 63  1  0  0  0  0
 54 64  1  0  0  0  0
 55 64  1  0  0  0  0
 56 64  1  0  0  0  0
 57 74  1  0  0  0  0
 58 62  1  0  0  0  0
 58 75  1  0  0  0  0
 59 62  1  0  0  0  0
 59 82  1  0  0  0  0
 60 64  1  0  0  0  0
 60 73  1  0  0  0  0
 61 74  1  0  0  0  0
 63 75  1  0  0  0  0
 65 66  1  0  0  0  0
M  CHG  2  74   1  75   1
M  ISO  4  32 100  59 101  69 100  82 101
M  END
> <Batch ID>
0112

> <Smiles>
CNC(C)C(=O)NC(C(=O)N1Cc2cc([101O:1][101CH2:1]C(C)CN(C(C)C)C3CC[100N:0]([100C:0](=O)N4CCCC(n5nc(-c6ccc(Oc7ccc(F)cc7F)cc6)c(C(N)=O)c5N)C4)CC3)ccc2CC1C(=O)NC1CCCc2ccccc21)C(C)(C)C

> <Shape>
0.227

> <Color>
0.184

> <Negative vol penalty>
0.000

$$$$

  -OEChem-04052320033D

 88 97  0     1  0  0  0  0  0999 V2000
  -26.2249   -5.7492   31.0540 C   0  0  0  0  0  0  0  0  0  0  0  0
  -27.1376   -6.7973   30.9915 C   0  0  0  0  0  0  0  0  0  0  0  0
  -23.2873   -9.8000   19.9143 C   0  0  0  0  0  0  0  0  0  0  0  0
  -23.7398   -9.9409   22.2834 C   0  0  0  0  0  0  0  0  0  0  0  0
  -25.1401   -5.7180   30.1786 C   0  0  0  0  0  0  0  0  0  0  0  0
  -26.9667   -7.8142   30.0528 C   0  0  0  0  0  0  0  0  0  0  0  0
  -28.0623  -14.8381   29.1692 C   0  0  0  0  0  0  0  0  0  0  0  0
  -22.5606   -8.6278   20.1228 C   0  0  0  0  0  0  0  0  0  0  0  0
  -23.0131   -8.7687   22.4919 C   0  0  0  0  0  0  0  0  0  0  0  0
  -28.6547  -15.7321   28.2784 C   0  0  0  0  0  0  0  0  0  0  0  0
  -19.7658   -7.8590   22.7117 C   0  0  0  0  0  0  0  0  0  0  0  0
  -32.9041  -16.5024   24.8811 C   0  0  0  0  0  0  0  0  0  0  0  0
  -18.8642   -7.8379   23.7758 C   0  0  0  0  0  0  0  0  0  0  0  0
  -31.7464  -17.2505   24.6980 C   0  0  0  0  0  0  0  0  0  0  0  0
  -26.6997  -15.6148   26.8700 C   0  0  0  0  0  0  0  0  0  0  0  0
  -20.0698   -5.9904   24.7608 C   0  0  0  0  0  0  0  0  0  0  0  0
  -23.8770  -10.4565   20.9946 C   0  0  0  0  0  0  0  0  0  0  0  0
  -24.1373  -12.9863   20.7953 C   0  0  0  0  0  0  0  0  0  0  0  0
  -24.9505   -6.7400   29.2352 C   0  0  0  0  0  0  0  0  0  0  0  0
  -26.7865  -14.3164   28.9112 C   0  0  0  0  0  0  0  0  0  0  0  0
  -25.8791   -7.7959   29.1631 C   0  0  0  0  0  0  0  0  0  0  0  0
  -26.0923  -14.7163   27.7604 C   0  0  0  0  0  0  0  0  0  0  0  0
  -22.4235   -8.1122   21.4116 C   0  0  0  0  0  0  0  0  0  0  0  0
  -27.9747  -16.1183   27.1271 C   0  0  0  0  0  0  0  0  0  0  0  0
  -20.8194   -6.9458   22.6721 C   0  0  0  0  0  0  0  0  0  0  0  0
  -32.9031  -15.1452   24.5791 C   0  0  0  0  0  0  0  0  0  0  0  0
  -19.0162   -6.9037   24.8003 C   0  0  0  0  0  0  0  0  0  0  0  0
  -20.9715   -6.0115   23.6967 C   0  0  0  0  0  0  0  0  0  0  0  0
  -24.6283  -11.6671   20.7798 C   0  0  0  0  0  0  0  0  0  0  0  0
  -30.6232  -16.5993   24.2144 C   0  0  0  0  0  0  0  0  0  0  0  0
  -31.7280  -14.5881   24.1010 C   0  0  0  0  0  0  0  0  0  0  0  0
  -25.2389  -13.7657   20.5394 C   0  0  0  0  0  0  0  0  0  0  0  0
  -22.8046  -13.4646   21.0210 C   0  0  0  0  0  0  0  0  0  0  0  0
  -25.6117  -11.4046   28.4161 C   0  0  0  0  0  0  0  0  0  0  0  0
  -22.7686  -12.9651   28.4777 C   0  0  0  0  0  0  0  0  0  0  0  0
  -21.0601  -15.8910   28.0688 C   0  0  0  0  0  0  0  0  0  0  0  0
  -31.1102  -12.9204   21.3551 C   0  0  0  0  0  0  0  0  0  0  0  0
  -23.7890   -6.6385   28.2785 C   0  0  0  0  0  0  0  0  0  0  0  0
  -26.1503  -13.3737   29.8955 C   0  0  0  0  0  0  0  0  0  0  0  0
  -24.7121  -14.2009   27.4477 C   0  0  0  0  0  0  0  0  0  0  0  0
  -23.4726   -7.9494   27.5632 C   0  0  0  0  0  0  0  0  0  0  0  0
  -29.2455  -18.5007   20.3849 C   0  0  0  0  0  0  0  0  0  0  0  0
  -29.4594  -13.6599   18.2883 C   0  0  0  0  0  0  0  0  0  0  0  0
  -24.7510   -8.5896   27.0316 C   0  0  0  0  0  0  0  0  0  0  0  0
  -30.0009  -17.9943   21.6170 C   0  0  0  0  0  0  0  0  0  0  0  0
  -27.9898  -13.3520   18.5805 C   0  0  0  0  0  0  0  0  0  0  0  0
  -27.7571  -18.3044   20.6772 C   0  0  0  0  0  0  0  0  0  0  0  0
  -30.3928  -12.6802   18.9962 C   0  0  0  0  0  0  0  0  0  0  0  0
  -28.7072  -12.2519   20.7424 C   0  0  0  0  0  0  0  0  0  0  0  0
  -25.7142   -8.9303   28.1752 C   0  0  1  0  0  0  0  0  0  0  0  0
  -25.0590  -12.5076   29.2738 C   0  0  1  0  0  0  0  0  0  0  0  0
  -28.9351  -17.3866   22.5351 C   0  0  2  0  0  0  0  0  0  0  0  0
  -27.7292  -13.2474   20.0952 C   0  0  2  0  0  0  0  0  0  0  0  0
  -27.6619  -18.1624   22.1912 C   0  0  1  0  0  0  0  0  0  0  0  0
  -18.7407  -16.8457   28.1498 C   0  0  0  0  0  0  0  0  0  0  0  0
  -22.1509  -11.6872   25.7766 C   0  0  0  0  0  0  0  0  0  0  0  0
  -20.3228  -13.3713   25.4763 C   0  0  0  0  0  0  0  0  0  0  0  0
  -20.2222  -11.7477   27.3675 C   0  0  0  0  0  0  0  0  0  0  0  0
  -21.7804  -17.7602   30.2474 C   0  0  0  0  0  0  0  0  0  0  0  0
  -35.1831  -15.0826   25.2527 C   0  0  0  0  0  0  0  0  0  0  0  0
  -31.6738  -13.1343   23.7625 C   0  0  0  0  0  0  0  0  0  0  0  0
  -28.1938  -16.8648   24.8797 C   0  0  0  0  0  0  0  0  0  1  0  0
  -29.3394  -17.3860   24.0014 C   0  0  1  0  0  0  0  0  0  0  0  0
  -21.8969  -13.6401   27.4463 C   0  0  1  0  0  0  0  0  0  0  0  0
  -20.0170  -16.5774   28.9321 C   0  0  2  0  0  0  0  0  0  0  0  0
  -21.1750  -12.6200   26.5213 C   0  0  0  0  0  0  0  0  0  0  0  0
  -25.9397  -11.6078   20.5333 N   0  0  0  0  0  0  0  0  0  0  0  0
  -30.5840  -15.2827   23.9101 N   0  0  0  0  0  0  0  0  0  0  0  0
  -26.2821  -12.8996   20.3916 N   0  0  0  0  0  0  0  0  0  0  0  0
  -24.1350  -13.2765   28.4376 N   0  0  0  0  0  0  0  0  0  0  0  0
  -30.0945  -12.6292   20.4295 N   0  0  0  0  0  0  0  0  0  0  0  0
  -25.4074  -15.1005   20.4286 N   0  0  0  0  0  0  0  0  0  0  0  0
  -21.7919  -12.5281   21.2693 N   0  0  0  0  0  0  0  0  0  0  0  0
  -25.2868  -10.1349   28.8540 N   0  0  0  0  0  0  0  0  0  0  0  0
  -20.9963  -14.5185   28.1849 N   0  0  0  0  0  0  0  0  0  0  0  0
  -30.7414  -12.8553   22.6931 N   0  0  0  0  0  0  0  0  0  0  0  0
  -27.6537  -19.5141   22.8101 N   0  3  0  0  0  0  0  0  0  0  0  0
  -20.5390  -17.8776   29.4399 N   0  3  0  0  0  0  0  0  0  0  0  0
  -22.5172  -14.6851   20.9866 O   0  0  0  0  0  0  0  0  0  0  0  0
  -26.2820  -11.6848   27.4292 O   0  0  0  0  0  0  0  0  0  0  0  0
  -22.2548  -12.1956   29.2934 O   0  0  0  0  0  0  0  0  0  0  0  0
  -21.8499  -16.5103   27.3594 O   0  0  0  0  0  0  0  0  0  0  0  0
  -32.2590  -13.2216   21.0140 O   0  0  0  0  0  0  0  0  0  0  0  0
  -21.7142   -6.9685   21.6155 O   0  0  0  0  0  0  0  0  0  0  0  0
  -34.0282  -14.4059   24.7541 O   0  0  0  0  0  0  0  0  0  0  0  0
  -28.5509  -16.9903   26.2556 O   0  0  0  0  0  0  0  0  0  1  0  0
  -18.1512   -6.8845   25.8228 F   0  0  0  0  0  0  0  0  0  0  0  0
  -21.9824   -5.1324   23.6647 F   0  0  0  0  0  0  0  0  0  0  0  0
  1  2  1  0  0  0  0
  1  5  2  0  0  0  0
  2  6  2  0  0  0  0
  3  8  2  0  0  0  0
  3 17  1  0  0  0  0
  4  9  1  0  0  0  0
  4 17  2  0  0  0  0
  5 19  1  0  0  0  0
  6 21  1  0  0  0  0
  7 10  2  0  0  0  0
  7 20  1  0  0  0  0
  8 23  1  0  0  0  0
  9 23  2  0  0  0  0
 10 24  1  0  0  0  0
 11 13  2  0  0  0  0
 11 25  1  0  0  0  0
 12 14  2  0  0  0  0
 12 26  1  0  0  0  0
 13 27  1  0  0  0  0
 14 30  1  0  0  0  0
 15 22  1  0  0  0  0
 15 24  2  0  0  0  0
 16 27  2  0  0  0  0
 16 28  1  0  0  0  0
 17 29  1  0  0  0  0
 18 29  1  0  0  0  0
 18 32  2  0  0  0  0
 18 33  1  0  0  0  0
 19 21  2  0  0  0  0
 19 38  1  0  0  0  0
 20 22  2  0  0  0  0
 20 39  1  0  0  0  0
 21 50  1  0  0  0  0
 22 40  1  0  0  0  0
 23 84  1  0  0  0  0
 24 86  1  0  0  0  0
 25 28  2  0  0  0  0
 25 84  1  0  0  0  0
 26 31  2  0  0  0  0
 26 85  1  0  0  0  0
 27 87  1  0  0  0  0
 28 88  1  0  0  0  0
 29 67  2  0  0  0  0
 30 63  1  0  0  0  0
 30 68  2  0  0  0  0
 31 61  1  0  0  0  0
 31 68  1  0  0  0  0
 32 69  1  0  0  0  0
 32 72  1  0  0  0  0
 33 73  1  0  0  0  0
 33 79  2  0  0  0  0
 34 51  1  0  0  0  0
 34 74  1  0  0  0  0
 34 80  2  0  0  0  0
 35 64  1  0  0  0  0
 35 70  1  0  0  0  0
 35 81  2  0  0  0  0
 36 65  1  0  0  0  0
 36 75  1  0  0  0  0
 36 82  2  0  0  0  0
 37 71  1  0  0  0  0
 37 76  1  0  0  0  0
 37 83  2  0  0  0  0
 38 41  1  0  0  0  0
 39 51  1  0  0  0  0
 40 70  1  0  0  0  0
 41 44  1  0  0  0  0
 42 45  1  0  0  0  0
 42 47  1  0  0  0  0
 43 46  1  0  0  0  0
 43 48  1  0  0  0  0
 44 50  1  0  0  0  0
 45 52  1  0  0  0  0
 46 53  1  0  0  0  0
 47 54  1  0  0  0  0
 48 71  1  0  0  0  0
 49 53  1  0  0  0  0
 49 71  1  0  0  0  0
 50 74  1  0  0  0  0
 51 70  1  0  0  0  0
 52 54  1  0  0  0  0
 52 63  1  0  0  0  0
 53 69  1  0  0  0  0
 54 77  1  0  0  0  0
 55 65  1  0  0  0  0
 56 66  1  0  0  0  0
 57 66  1  0  0  0  0
 58 66  1  0  0  0  0
 59 78  1  0  0  0  0
 60 85  1  0  0  0  0
 61 76  1  0  0  0  0
 62 63  1  0  0  0  0
 62 86  1  0  0  0  0
 64 66  1  0  0  0  0
 64 75  1  0  0  0  0
 65 78  1  0  0  0  0
 67 69  1  0  0  0  0
M  CHG  2  77   1  78   1
M  ISO  4  37 100  62 101  76 100  86 101
M  END
> <Batch ID>
0112

> <Smiles>
CNC(C)C(=O)NC(C(=O)N1Cc2cc([101O:1][101CH2:1]C(c3ccc(OC)c(C[100NH:0][100C:0](=O)N4CCCC(n5nc(-c6ccc(Oc7ccc(F)cc7F)cc6)c(C(N)=O)c5N)C4)n3)C3CCCC3N)ccc2CC1C(=O)NC1CCCc2ccccc21)C(C)(C)C

> <Shape>
0.159

> <Color>
0.164

> <Negative vol penalty>
0.000

$$$$

  -OEChem-04052320033D

 85 93  0     1  0  0  0  0  0999 V2000
  -28.3296  -23.1170   19.0957 C   0  0  0  0  0  0  0  0  0  0  0  0
  -27.0647  -23.5788   19.4455 C   0  0  0  0  0  0  0  0  0  0  0  0
  -23.9611   -9.9451   21.9982 C   0  0  0  0  0  0  0  0  0  0  0  0
  -22.3483  -10.2760   20.2300 C   0  0  0  0  0  0  0  0  0  0  0  0
  -29.4525  -23.5750   19.7835 C   0  0  0  0  0  0  0  0  0  0  0  0
  -26.9221  -24.4981   20.4842 C   0  0  0  0  0  0  0  0  0  0  0  0
  -23.7413  -28.2635   19.3225 C   0  0  0  0  0  0  0  0  0  0  0  0
  -23.4899   -8.6457   22.1849 C   0  0  0  0  0  0  0  0  0  0  0  0
  -21.8771   -8.9764   20.4166 C   0  0  0  0  0  0  0  0  0  0  0  0
  -22.3764  -27.9874   19.3891 C   0  0  0  0  0  0  0  0  0  0  0  0
  -20.8633   -7.1410   23.6888 C   0  0  0  0  0  0  0  0  0  0  0  0
  -20.6472   -6.7127   24.9985 C   0  0  0  0  0  0  0  0  0  0  0  0
  -22.2708  -29.0596   21.5474 C   0  0  0  0  0  0  0  0  0  0  0  0
  -22.2524   -4.9350   24.6821 C   0  0  0  0  0  0  0  0  0  0  0  0
  -19.9788  -22.9455   20.8732 C   0  0  0  0  0  0  0  0  0  0  0  0
  -20.8692  -23.8612   22.7126 C   0  0  0  0  0  0  0  0  0  0  0  0
  -23.3903  -10.7604   21.0208 C   0  0  0  0  0  0  0  0  0  0  0  0
  -21.1283  -22.2454   21.1659 C   0  0  0  0  0  0  0  0  0  0  0  0
  -24.9078  -12.5179   19.9643 C   0  0  0  0  0  0  0  0  0  0  0  0
  -29.3244  -24.5078   20.8248 C   0  0  0  0  0  0  0  0  0  0  0  0
  -24.3845  -28.9313   20.3746 C   0  0  0  0  0  0  0  0  0  0  0  0
  -28.0442  -24.9681   21.1875 C   0  0  0  0  0  0  0  0  0  0  0  0
  -23.6435  -29.3453   21.4906 C   0  0  0  0  0  0  0  0  0  0  0  0
  -21.6917  -22.8247   22.3295 C   0  0  0  0  0  0  0  0  0  0  0  0
  -22.4479   -8.1613   21.3941 C   0  0  0  0  0  0  0  0  0  0  0  0
  -21.6415  -28.3829   20.5029 C   0  0  0  0  0  0  0  0  0  0  0  0
  -21.7740   -6.4663   22.8756 C   0  0  0  0  0  0  0  0  0  0  0  0
  -21.3417   -5.6097   25.4952 C   0  0  0  0  0  0  0  0  0  0  0  0
  -22.4685   -5.3633   23.3723 C   0  0  0  0  0  0  0  0  0  0  0  0
  -23.8762  -12.1030   20.8278 C   0  0  0  0  0  0  0  0  0  0  0  0
  -24.9837  -13.8769   20.1482 C   0  0  0  0  0  0  0  0  0  0  0  0
  -21.6635  -21.1014   20.3985 C   0  0  0  0  0  0  0  0  0  0  0  0
  -25.7243  -11.7440   19.0755 C   0  0  0  0  0  0  0  0  0  0  0  0
  -26.7249  -28.2005   22.3975 C   0  0  0  0  0  0  0  0  0  0  0  0
  -26.3933  -31.3010   23.2913 C   0  0  0  0  0  0  0  0  0  0  0  0
  -24.4012  -34.0659   23.4756 C   0  0  0  0  0  0  0  0  0  0  0  0
  -22.3085  -18.7019   20.4526 C   0  0  0  0  0  0  0  0  0  0  0  0
  -30.5628  -24.9379   21.5705 C   0  0  0  0  0  0  0  0  0  0  0  0
  -25.8522  -29.2453   20.2755 C   0  0  0  0  0  0  0  0  0  0  0  0
  -24.2827  -30.0830   22.6377 C   0  0  0  0  0  0  0  0  0  0  0  0
  -30.3614  -26.1961   22.4111 C   0  0  0  0  0  0  0  0  0  0  0  0
  -22.9048  -16.8694   23.6219 C   0  0  0  0  0  0  0  0  0  0  0  0
  -29.0694  -26.0992   23.2161 C   0  0  0  0  0  0  0  0  0  0  0  0
  -23.2200  -15.4755   23.0905 C   0  0  0  0  0  0  0  0  0  0  0  0
  -21.9152  -17.6177   22.7298 C   0  0  0  0  0  0  0  0  0  0  0  0
  -22.6637  -16.2876   20.7685 C   0  0  0  0  0  0  0  0  0  0  0  0
  -27.8510  -25.9842   22.2921 C   0  0  1  0  0  0  0  0  0  0  0  0
  -26.5068  -29.4761   21.6341 C   0  0  1  0  0  0  0  0  0  0  0  0
  -23.6980  -15.5530   21.6335 C   0  0  2  0  0  0  0  0  0  0  0  0
  -22.6853  -21.9179   24.4612 C   0  0  0  0  0  0  0  0  0  0  0  0
  -24.0171  -23.5051   23.0252 C   0  0  0  0  0  0  0  0  0  0  0  0
  -24.3952  -36.4385   24.2928 C   0  0  0  0  0  0  0  0  0  0  0  0
  -19.0489  -26.5232   19.2899 C   0  0  0  0  0  0  0  0  0  0  0  0
  -26.0759  -30.3098   26.1595 C   0  0  0  0  0  0  0  0  0  0  0  0
  -25.1452  -32.5555   26.7587 C   0  0  0  0  0  0  0  0  0  0  0  0
  -27.4846  -32.3617   25.9147 C   0  0  0  0  0  0  0  0  0  0  0  0
  -23.9390  -35.1253   20.7511 C   0  0  0  0  0  0  0  0  0  0  0  0
  -19.1613  -26.3847   21.8044 C   0  0  0  0  0  0  0  0  0  0  0  0
  -18.7006  -24.9215   21.8721 C   0  0  0  0  0  0  0  0  0  0  0  0
  -22.9304  -22.4051   23.0143 C   0  0  0  0  0  0  0  0  0  0  0  0
  -25.5574  -32.0361   24.3110 C   0  0  1  0  0  0  0  0  0  0  0  0
  -24.6563  -35.5173   23.1113 C   0  0  2  0  0  0  0  0  0  0  0  0
  -19.9201  -26.7420   20.5203 C   0  0  2  0  0  0  0  0  0  1  0  0
  -26.0538  -31.8002   25.7654 C   0  0  0  0  0  0  0  0  0  0  0  0
  -23.3358  -13.1164   21.5097 N   0  0  0  0  0  0  0  0  0  0  0  0
  -19.8311  -23.9251   21.8202 N   0  0  0  0  0  0  0  0  0  0  0  0
  -24.0304  -14.1815   21.0748 N   0  0  0  0  0  0  0  0  0  0  0  0
  -25.7215  -30.3611   22.4968 N   0  0  0  0  0  0  0  0  0  0  0  0
  -22.3242  -17.6044   21.3186 N   0  0  0  0  0  0  0  0  0  0  0  0
  -25.7723  -14.8291   19.6061 N   0  0  0  0  0  0  0  0  0  0  0  0
  -25.5138  -10.3599   19.0095 N   0  0  0  0  0  0  0  0  0  0  0  0
  -21.8043  -19.9276   21.0336 N   0  0  0  0  0  0  0  0  0  0  0  0
  -27.5136  -27.2776   21.7373 N   0  0  0  0  0  0  0  0  0  0  0  0
  -25.5517  -33.4363   23.9013 N   0  0  0  0  0  0  0  0  0  0  0  0
  -21.9792  -21.3098   19.1205 N   0  3  0  0  0  0  0  0  0  0  0  0
  -23.7707  -35.9325   21.9869 N   0  3  0  0  0  0  0  0  0  0  0  0
  -26.6252  -12.2622   18.3730 O   0  0  0  0  0  0  0  0  0  0  0  0
  -26.2166  -28.0642   23.5041 O   0  0  0  0  0  0  0  0  0  0  0  0
  -27.5965  -31.5566   23.1980 O   0  0  0  0  0  0  0  0  0  0  0  0
  -23.2915  -33.5439   23.3945 O   0  0  0  0  0  0  0  0  0  0  0  0
  -22.6508  -18.6865   19.2751 O   0  0  0  0  0  0  0  0  0  0  0  0
  -21.9880   -6.8932   21.5758 O   0  0  0  0  0  0  0  0  0  0  0  0
  -20.3092  -28.1140   20.5707 O   0  0  0  0  0  0  0  0  0  1  0  0
  -21.1352   -5.1995   26.7534 F   0  0  0  0  0  0  0  0  0  0  0  0
  -23.3455   -4.7118   22.5963 F   0  0  0  0  0  0  0  0  0  0  0  0
  1  2  1  0  0  0  0
  1  5  2  0  0  0  0
  2  6  2  0  0  0  0
  3  8  2  0  0  0  0
  3 17  1  0  0  0  0
  4  9  1  0  0  0  0
  4 17  2  0  0  0  0
  5 20  1  0  0  0  0
  6 22  1  0  0  0  0
  7 10  2  0  0  0  0
  7 21  1  0  0  0  0
  8 25  1  0  0  0  0
  9 25  2  0  0  0  0
 10 26  1  0  0  0  0
 11 12  2  0  0  0  0
 11 27  1  0  0  0  0
 12 28  1  0  0  0  0
 13 23  1  0  0  0  0
 13 26  2  0  0  0  0
 14 28  2  0  0  0  0
 14 29  1  0  0  0  0
 15 18  2  0  0  0  0
 15 66  1  0  0  0  0
 16 24  2  0  0  0  0
 16 66  1  0  0  0  0
 17 30  1  0  0  0  0
 18 24  1  0  0  0  0
 18 32  1  0  0  0  0
 19 30  1  0  0  0  0
 19 31  2  0  0  0  0
 19 33  1  0  0  0  0
 20 22  2  0  0  0  0
 20 38  1  0  0  0  0
 21 23  2  0  0  0  0
 21 39  1  0  0  0  0
 22 47  1  0  0  0  0
 23 40  1  0  0  0  0
 24 60  1  0  0  0  0
 25 82  1  0  0  0  0
 26 83  1  0  0  0  0
 27 29  2  0  0  0  0
 27 82  1  0  0  0  0
 28 84  1  0  0  0  0
 29 85  1  0  0  0  0
 30 65  2  0  0  0  0
 31 67  1  0  0  0  0
 31 70  1  0  0  0  0
 32 72  1  0  0  0  0
 32 75  2  0  0  0  0
 33 71  1  0  0  0  0
 33 77  2  0  0  0  0
 34 48  1  0  0  0  0
 34 73  1  0  0  0  0
 34 78  2  0  0  0  0
 35 61  1  0  0  0  0
 35 68  1  0  0  0  0
 35 79  2  0  0  0  0
 36 62  1  0  0  0  0
 36 74  1  0  0  0  0
 36 80  2  0  0  0  0
 37 69  1  0  0  0  0
 37 72  1  0  0  0  0
 37 81  2  0  0  0  0
 38 41  1  0  0  0  0
 39 48  1  0  0  0  0
 40 68  1  0  0  0  0
 41 43  1  0  0  0  0
 42 44  1  0  0  0  0
 42 45  1  0  0  0  0
 43 47  1  0  0  0  0
 44 49  1  0  0  0  0
 45 69  1  0  0  0  0
 46 49  1  0  0  0  0
 46 69  1  0  0  0  0
 47 73  1  0  0  0  0
 48 68  1  0  0  0  0
 49 67  1  0  0  0  0
 50 60  1  0  0  0  0
 51 60  1  0  0  0  0
 52 62  1  0  0  0  0
 53 63  1  0  0  0  0
 54 64  1  0  0  0  0
 55 64  1  0  0  0  0
 56 64  1  0  0  0  0
 57 76  1  0  0  0  0
 58 59  1  0  0  0  0
 58 63  1  0  0  0  0
 59 66  1  0  0  0  0
 61 64  1  0  0  0  0
 61 74  1  0  0  0  0
 62 76  1  0  0  0  0
 63 83  1  0  0  0  0
 65 67  1  0  0  0  0
M  CHG  2  75   1  76   1
M  ISO  4  37 100  63 101  72 100  83 101
M  END
> <Batch ID>
0112

> <Smiles>
CNC(C)C(=O)NC(C(=O)N1Cc2cc([101O:1][101CH:1](C)CCn3cc(C(N)=[100N:0][100C:0](=O)N4CCCC(n5nc(-c6ccc(Oc7ccc(F)cc7F)cc6)c(C(N)=O)c5N)C4)c(C(C)C)c3)ccc2CC1C(=O)NC1CCCc2ccccc21)C(C)(C)C

> <Shape>
0.284

> <Color>
0.099

> <Negative vol penalty>
0.000

$$$$

  -OEChem-04052320033D

 82 90  0     1  0  0  0  0  0999 V2000
  -15.1864  -20.0656   21.6157 C   0  0  0  0  0  0  0  0  0  0  0  0
  -16.5361  -20.1078   21.2811 C   0  0  0  0  0  0  0  0  0  0  0  0
  -23.0007   -9.8942   19.9817 C   0  0  0  0  0  0  0  0  0  0  0  0
  -23.7312   -9.9440   22.2841 C   0  0  0  0  0  0  0  0  0  0  0  0
  -14.7993  -20.1183   22.9541 C   0  0  0  0  0  0  0  0  0  0  0  0
  -17.4995  -20.2037   22.2847 C   0  0  0  0  0  0  0  0  0  0  0  0
  -24.1819  -18.1330   23.8251 C   0  0  0  0  0  0  0  0  0  0  0  0
  -29.3955  -18.8802   22.1161 C   0  0  0  0  0  0  0  0  0  0  0  0
  -22.2359   -8.7587   20.2488 C   0  0  0  0  0  0  0  0  0  0  0  0
  -22.9664   -8.8085   22.5512 C   0  0  0  0  0  0  0  0  0  0  0  0
  -25.4043  -18.6601   24.2396 C   0  0  0  0  0  0  0  0  0  0  0  0
  -23.2129   -5.4702   22.0760 C   0  0  0  0  0  0  0  0  0  0  0  0
  -23.8032   -4.4529   22.8258 C   0  0  0  0  0  0  0  0  0  0  0  0
  -28.5928  -19.7196   22.8804 C   0  0  0  0  0  0  0  0  0  0  0  0
  -24.6220  -18.6641   26.5215 C   0  0  0  0  0  0  0  0  0  0  0  0
  -22.0830   -4.6927   24.5052 C   0  0  0  0  0  0  0  0  0  0  0  0
  -23.7484  -10.4868   20.9993 C   0  0  0  0  0  0  0  0  0  0  0  0
  -24.1308  -13.0029   20.8245 C   0  0  0  0  0  0  0  0  0  0  0  0
  -15.7588  -20.2052   23.9751 C   0  0  0  0  0  0  0  0  0  0  0  0
  -23.1648  -17.8773   24.7560 C   0  0  0  0  0  0  0  0  0  0  0  0
  -17.1247  -20.2589   23.6379 C   0  0  0  0  0  0  0  0  0  0  0  0
  -23.3885  -18.1314   26.1166 C   0  0  0  0  0  0  0  0  0  0  0  0
  -29.9565  -17.7472   22.6949 C   0  0  0  0  0  0  0  0  0  0  0  0
  -22.2187   -8.2159   21.5336 C   0  0  0  0  0  0  0  0  0  0  0  0
  -25.6235  -18.9284   25.5876 C   0  0  0  0  0  0  0  0  0  0  0  0
  -22.0577   -6.0988   22.5407 C   0  0  0  0  0  0  0  0  0  0  0  0
  -23.2382   -4.0642   24.0405 C   0  0  0  0  0  0  0  0  0  0  0  0
  -21.4927   -5.7100   23.7554 C   0  0  0  0  0  0  0  0  0  0  0  0
  -24.5391  -11.6594   20.7238 C   0  0  0  0  0  0  0  0  0  0  0  0
  -28.3834  -19.3844   24.2084 C   0  0  0  0  0  0  0  0  0  0  0  0
  -29.6862  -17.5004   24.0313 C   0  0  0  0  0  0  0  0  0  0  0  0
  -25.2390  -13.7269   20.4581 C   0  0  0  0  0  0  0  0  0  0  0  0
  -22.8632  -13.5477   21.2144 C   0  0  0  0  0  0  0  0  0  0  0  0
  -20.2091  -18.9584   25.2024 C   0  0  0  0  0  0  0  0  0  0  0  0
  -20.1362  -16.6688   27.4991 C   0  0  0  0  0  0  0  0  0  0  0  0
  -21.8703  -14.6792   29.6628 C   0  0  0  0  0  0  0  0  0  0  0  0
  -30.7350  -14.6668   20.6947 C   0  0  0  0  0  0  0  0  0  0  0  0
  -15.2900  -20.3071   25.4050 C   0  0  0  0  0  0  0  0  0  0  0  0
  -21.8615  -17.2837   24.2962 C   0  0  0  0  0  0  0  0  0  0  0  0
  -22.3363  -17.8557   27.1584 C   0  0  0  0  0  0  0  0  0  0  0  0
  -16.3893  -20.0306   26.4275 C   0  0  0  0  0  0  0  0  0  0  0  0
  -29.5913  -12.2439   18.3498 C   0  0  0  0  0  0  0  0  0  0  0  0
  -17.6613  -20.7891   26.0621 C   0  0  0  0  0  0  0  0  0  0  0  0
  -28.1440  -11.9824   18.7706 C   0  0  0  0  0  0  0  0  0  0  0  0
  -30.4963  -12.4792   19.5572 C   0  0  0  0  0  0  0  0  0  0  0  0
  -28.5885  -13.2717   20.9010 C   0  0  0  0  0  0  0  0  0  0  0  0
  -18.2005  -20.3378   24.6993 C   0  0  1  0  0  0  0  0  0  0  0  0
  -20.7118  -17.5438   25.2647 C   0  0  1  0  0  0  0  0  0  0  0  0
  -27.6269  -13.0841   19.7151 C   0  0  2  0  0  0  0  0  0  0  0  0
  -30.2591  -16.2968   24.7050 C   0  0  0  0  0  0  0  0  0  0  0  0
  -27.4227  -22.1784   26.7655 C   0  0  0  0  0  0  0  0  0  0  0  0
  -21.5340  -12.9383   31.4386 C   0  0  0  0  0  0  0  0  0  0  0  0
  -19.2696  -18.8399   29.4600 C   0  0  0  0  0  0  0  0  0  0  0  0
  -19.8677  -17.2897   31.3328 C   0  0  0  0  0  0  0  0  0  0  0  0
  -18.0713  -16.6604   29.7204 C   0  0  0  0  0  0  0  0  0  0  0  0
  -23.3911  -12.6552   28.1300 C   0  0  0  0  0  0  0  0  0  0  0  0
  -30.8183  -16.8448   21.8815 C   0  0  0  0  0  0  0  0  0  0  0  0
  -28.2979  -21.3416   25.8443 C   0  0  0  0  0  0  0  0  0  0  0  0
  -27.5149  -20.2732   25.0681 C   0  0  2  0  0  0  0  0  0  1  0  0
  -20.4842  -16.6156   28.9671 C   0  0  1  0  0  0  0  0  0  0  0  0
  -21.7778  -13.1933   29.9593 C   0  0  2  0  0  0  0  0  0  0  0  0
  -19.4425  -17.3585   29.8504 C   0  0  0  0  0  0  0  0  0  0  0  0
  -25.8076  -11.5345   20.3246 N   0  0  0  0  0  0  0  0  0  0  0  0
  -28.9113  -18.2926   24.8057 N   0  0  0  0  0  0  0  0  0  0  0  0
  -26.2059  -12.8088   20.1711 N   0  0  0  0  0  0  0  0  0  0  0  0
  -21.0764  -17.2811   26.6583 N   0  0  0  0  0  0  0  0  0  0  0  0
  -29.9504  -13.5367   20.4114 N   0  0  0  0  0  0  0  0  0  0  0  0
  -25.4709  -15.0529   20.3566 N   0  0  0  0  0  0  0  0  0  0  0  0
  -21.8331  -12.6623   21.5596 N   0  0  0  0  0  0  0  0  0  0  0  0
  -18.8854  -19.0689   24.8218 N   0  0  0  0  0  0  0  0  0  0  0  0
  -20.6488  -15.2039   29.2967 N   0  0  0  0  0  0  0  0  0  0  0  0
  -30.1396  -15.6243   21.5067 N   0  0  0  0  0  0  0  0  0  0  0  0
  -23.0409  -12.5070   29.5661 N   0  3  0  0  0  0  0  0  0  0  0  0
  -22.6453  -14.7828   21.2397 O   0  0  0  0  0  0  0  0  0  0  0  0
  -20.9659  -19.8812   25.4806 O   0  0  0  0  0  0  0  0  0  0  0  0
  -19.0726  -16.1785   27.1116 O   0  0  0  0  0  0  0  0  0  0  0  0
  -22.9202  -15.3120   29.7509 O   0  0  0  0  0  0  0  0  0  0  0  0
  -31.8793  -14.8142   20.2521 O   0  0  0  0  0  0  0  0  0  0  0  0
  -21.4724   -7.1080   21.7947 O   0  0  0  0  0  0  0  0  0  0  0  0
  -26.8154  -19.4435   25.9947 O   0  0  0  0  0  0  0  0  0  1  0  0
  -23.8043   -3.0862   24.7597 F   0  0  0  0  0  0  0  0  0  0  0  0
  -20.3823   -6.3094   24.2065 F   0  0  0  0  0  0  0  0  0  0  0  0
  1  2  1  0  0  0  0
  1  5  2  0  0  0  0
  2  6  2  0  0  0  0
  3  9  2  0  0  0  0
  3 17  1  0  0  0  0
  4 10  1  0  0  0  0
  4 17  2  0  0  0  0
  5 19  1  0  0  0  0
  6 21  1  0  0  0  0
  7 11  2  0  0  0  0
  7 20  1  0  0  0  0
  8 14  2  0  0  0  0
  8 23  1  0  0  0  0
  9 24  1  0  0  0  0
 10 24  2  0  0  0  0
 11 25  1  0  0  0  0
 12 13  2  0  0  0  0
 12 26  1  0  0  0  0
 13 27  1  0  0  0  0
 14 30  1  0  0  0  0
 15 22  1  0  0  0  0
 15 25  2  0  0  0  0
 16 27  2  0  0  0  0
 16 28  1  0  0  0  0
 17 29  1  0  0  0  0
 18 29  1  0  0  0  0
 18 32  2  0  0  0  0
 18 33  1  0  0  0  0
 19 21  2  0  0  0  0
 19 38  1  0  0  0  0
 20 22  2  0  0  0  0
 20 39  1  0  0  0  0
 21 47  1  0  0  0  0
 22 40  1  0  0  0  0
 23 31  2  0  0  0  0
 23 57  1  0  0  0  0
 24 79  1  0  0  0  0
 25 80  1  0  0  0  0
 26 28  2  0  0  0  0
 26 79  1  0  0  0  0
 27 81  1  0  0  0  0
 28 82  1  0  0  0  0
 29 63  2  0  0  0  0
 30 59  1  0  0  0  0
 30 64  2  0  0  0  0
 31 50  1  0  0  0  0
 31 64  1  0  0  0  0
 32 65  1  0  0  0  0
 32 68  1  0  0  0  0
 33 69  1  0  0  0  0
 33 74  2  0  0  0  0
 34 48  1  0  0  0  0
 34 70  1  0  0  0  0
 34 75  2  0  0  0  0
 35 60  1  0  0  0  0
 35 66  1  0  0  0  0
 35 76  2  0  0  0  0
 36 61  1  0  0  0  0
 36 71  1  0  0  0  0
 36 77  2  0  0  0  0
 37 67  1  0  0  0  0
 37 72  1  0  0  0  0
 37 78  2  0  0  0  0
 38 41  1  0  0  0  0
 39 48  1  0  0  0  0
 40 66  1  0  0  0  0
 41 43  1  0  0  0  0
 42 44  1  0  0  0  0
 42 45  1  0  0  0  0
 43 47  1  0  0  0  0
 44 49  1  0  0  0  0
 45 67  1  0  0  0  0
 46 49  1  0  0  0  0
 46 67  1  0  0  0  0
 47 70  1  0  0  0  0
 48 66  1  0  0  0  0
 49 65  1  0  0  0  0
 51 58  1  0  0  0  0
 52 61  1  0  0  0  0
 53 62  1  0  0  0  0
 54 62  1  0  0  0  0
 55 62  1  0  0  0  0
 56 73  1  0  0  0  0
 57 72  1  0  0  0  0
 58 59  1  0  0  0  0
 59 80  1  0  0  0  0
 60 62  1  0  0  0  0
 60 71  1  0  0  0  0
 61 73  1  0  0  0  0
 63 65  1  0  0  0  0
M  CHG  1  73   1
M  ISO  4  37 100  59 101  72 100  80 101
M  END
> <Batch ID>
0112

> <Smiles>
CC[101CH:1](c1ccc(C[100NH:0][100C:0](=O)N2CCCC(n3nc(-c4ccc(Oc5ccc(F)cc5F)cc4)c(C(N)=O)c3N)C2)c(C)n1)[101O:1]c1ccc2c(c1)CN(C(=O)C(NC(=O)C(C)NC)C(C)(C)C)C(C(=O)NC1CCCc3ccccc31)C2

> <Shape>
0.175

> <Color>
0.197

> <Negative vol penalty>
0.000

$$$$

  -OEChem-04052320033D

 85 93  0     1  0  0  0  0  0999 V2000
  -18.2388  -23.2081   19.9378 C   0  0  0  0  0  0  0  0  0  0  0  0
  -19.5688  -22.8012   19.9692 C   0  0  0  0  0  0  0  0  0  0  0  0
  -22.7900  -10.3392   21.0859 C   0  0  0  0  0  0  0  0  0  0  0  0
  -24.6166   -8.8923   21.7238 C   0  0  0  0  0  0  0  0  0  0  0  0
  -17.9277  -24.5601   19.7989 C   0  0  0  0  0  0  0  0  0  0  0  0
  -20.5885  -23.7461   19.8607 C   0  0  0  0  0  0  0  0  0  0  0  0
  -26.0552  -23.5958   22.6171 C   0  0  0  0  0  0  0  0  0  0  0  0
  -21.9272   -9.2432   21.0704 C   0  0  0  0  0  0  0  0  0  0  0  0
  -23.7539   -7.7963   21.7084 C   0  0  0  0  0  0  0  0  0  0  0  0
  -27.3169  -23.1975   22.1772 C   0  0  0  0  0  0  0  0  0  0  0  0
  -21.9547   -4.6737   22.1884 C   0  0  0  0  0  0  0  0  0  0  0  0
  -22.0270   -3.7754   23.2529 C   0  0  0  0  0  0  0  0  0  0  0  0
  -27.8495  -25.4901   21.6484 C   0  0  0  0  0  0  0  0  0  0  0  0
  -27.9376  -19.6740   18.0375 C   0  0  0  0  0  0  0  0  0  0  0  0
  -21.4693   -5.5532   24.7910 C   0  0  0  0  0  0  0  0  0  0  0  0
  -26.5909  -21.4695   18.8245 C   0  0  0  0  0  0  0  0  0  0  0  0
  -24.1347  -10.1637   21.4126 C   0  0  0  0  0  0  0  0  0  0  0  0
  -25.3125  -12.1372   22.5195 C   0  0  0  0  0  0  0  0  0  0  0  0
  -18.9442  -25.5230   19.6984 C   0  0  0  0  0  0  0  0  0  0  0  0
  -25.6766  -24.9450   22.5656 C   0  0  0  0  0  0  0  0  0  0  0  0
  -20.2907  -25.1121   19.7190 C   0  0  0  0  0  0  0  0  0  0  0  0
  -26.5834  -25.9032   22.0906 C   0  0  0  0  0  0  0  0  0  0  0  0
  -27.6122  -21.0253   18.0001 C   0  0  0  0  0  0  0  0  0  0  0  0
  -27.2417  -18.8203   18.8861 C   0  0  0  0  0  0  0  0  0  0  0  0
  -22.4092   -7.9718   21.3817 C   0  0  0  0  0  0  0  0  0  0  0  0
  -28.2132  -24.1443   21.6901 C   0  0  0  0  0  0  0  0  0  0  0  0
  -21.6397   -6.0118   22.4250 C   0  0  0  0  0  0  0  0  0  0  0  0
  -21.7843   -4.2151   24.5542 C   0  0  0  0  0  0  0  0  0  0  0  0
  -21.3970   -6.4515   23.7263 C   0  0  0  0  0  0  0  0  0  0  0  0
  -25.0265  -11.2953   21.4282 C   0  0  0  0  0  0  0  0  0  0  0  0
  -26.2372  -19.3632   19.6710 C   0  0  0  0  0  0  0  0  0  0  0  0
  -26.2103  -13.0502   22.0228 C   0  0  0  0  0  0  0  0  0  0  0  0
  -24.8115  -12.0975   23.8623 C   0  0  0  0  0  0  0  0  0  0  0  0
  -23.4036  -26.5812   21.0623 C   0  0  0  0  0  0  0  0  0  0  0  0
  -24.5313  -29.0393   22.8535 C   0  0  0  0  0  0  0  0  0  0  0  0
  -27.1291  -30.3973   24.6011 C   0  0  0  0  0  0  0  0  0  0  0  0
  -27.4790  -16.6016   17.7833 C   0  0  0  0  0  0  0  0  0  0  0  0
  -18.5586  -26.9678   19.5022 C   0  0  0  0  0  0  0  0  0  0  0  0
  -24.3219  -25.3619   23.0688 C   0  0  0  0  0  0  0  0  0  0  0  0
  -26.2331  -27.3669   22.0334 C   0  0  0  0  0  0  0  0  0  0  0  0
  -19.7006  -27.9448   19.7699 C   0  0  0  0  0  0  0  0  0  0  0  0
  -28.7671  -13.1464   17.6699 C   0  0  0  0  0  0  0  0  0  0  0  0
  -20.9790  -27.4722   19.0850 C   0  0  0  0  0  0  0  0  0  0  0  0
  -27.8825  -12.4199   18.6817 C   0  0  0  0  0  0  0  0  0  0  0  0
  -28.0363  -14.3139   17.0134 C   0  0  0  0  0  0  0  0  0  0  0  0
  -26.5786  -14.5610   18.9995 C   0  0  0  0  0  0  0  0  0  0  0  0
  -21.4251  -26.1096   19.6291 C   0  0  1  0  0  0  0  0  0  0  0  0
  -23.8540  -26.6942   22.4913 C   0  0  1  0  0  0  0  0  0  0  0  0
  -27.3008  -13.4059   19.7095 C   0  0  1  0  0  0  0  0  0  0  0  0
  -25.4539  -18.4968   20.6030 C   0  0  0  0  0  0  0  0  0  0  0  0
  -27.4224  -22.6841   16.1013 C   0  0  0  0  0  0  0  0  0  0  0  0
  -27.7631  -32.4342   25.9227 C   0  0  0  0  0  0  0  0  0  0  0  0
  -24.8391  -30.6214   20.2627 C   0  0  0  0  0  0  0  0  0  0  0  0
  -26.3204  -32.2191   21.4962 C   0  0  0  0  0  0  0  0  0  0  0  0
  -23.9406  -31.9389   22.1892 C   0  0  0  0  0  0  0  0  0  0  0  0
  -28.2450  -16.8947   20.1279 C   0  0  0  0  0  0  0  0  0  0  0  0
  -27.6039  -28.8035   27.0493 C   0  0  0  0  0  0  0  0  0  0  0  0
  -30.9331  -23.6285   19.3829 C   0  0  0  0  0  0  0  0  0  0  0  0
  -30.1814  -22.4914   18.7074 C   0  0  0  0  0  0  0  0  0  0  0  0
  -30.0446  -24.5363   20.2244 C   0  0  0  0  0  0  0  0  0  1  0  0
  -28.3492  -21.9795   17.0889 C   0  0  1  0  0  0  0  0  0  0  0  0
  -25.5980  -30.0922   22.6731 C   0  0  1  0  0  0  0  0  0  0  0  0
  -27.1955  -31.0245   25.9819 C   0  0  2  0  0  0  0  0  0  0  0  0
  -25.1807  -31.1901   21.6544 C   0  0  0  0  0  0  0  0  0  0  0  0
  -25.8926  -20.6704   19.6619 N   0  0  0  0  0  0  0  0  0  0  0  0
  -25.6888  -11.6426   20.3215 N   0  0  0  0  0  0  0  0  0  0  0  0
  -26.3998  -12.7130   20.7149 N   0  0  0  0  0  0  0  0  0  0  0  0
  -24.8943  -27.7240   22.5310 N   0  0  0  0  0  0  0  0  0  0  0  0
  -27.4541  -15.2112   18.0122 N   0  0  0  0  0  0  0  0  0  0  0  0
  -26.8482  -14.1007   22.5815 N   0  0  0  0  0  0  0  0  0  0  0  0
  -23.8956  -11.0932   24.2043 N   0  0  0  0  0  0  0  0  0  0  0  0
  -22.0663  -26.2651   20.9172 N   0  0  0  0  0  0  0  0  0  0  0  0
  -25.9011  -30.5989   24.0072 N   0  0  0  0  0  0  0  0  0  0  0  0
  -27.5739  -17.4159   18.9325 N   0  0  0  0  0  0  0  0  0  0  0  0
  -28.0590  -30.2077   26.8809 N   0  3  0  0  0  0  0  0  0  0  0  0
  -29.1049  -23.0213   17.8380 N   0  3  0  0  0  0  0  0  0  0  0  0
  -25.1530  -12.9379   24.7288 O   0  0  0  0  0  0  0  0  0  0  0  0
  -24.2094  -26.7684   20.1583 O   0  0  0  0  0  0  0  0  0  0  0  0
  -23.4193  -29.3706   23.2721 O   0  0  0  0  0  0  0  0  0  0  0  0
  -28.0733  -29.7925   24.0981 O   0  0  0  0  0  0  0  0  0  0  0  0
  -27.4491  -17.0754   16.6413 O   0  0  0  0  0  0  0  0  0  0  0  0
  -21.5675   -6.9022   21.3669 O   0  0  0  0  0  0  0  0  0  0  0  0
  -29.4450  -23.7582   21.2595 O   0  0  0  0  0  0  0  0  0  1  0  0
  -21.8523   -3.3520   25.5763 F   0  0  0  0  0  0  0  0  0  0  0  0
  -21.0928   -7.7356   23.9598 F   0  0  0  0  0  0  0  0  0  0  0  0
  1  2  1  0  0  0  0
  1  5  2  0  0  0  0
  2  6  2  0  0  0  0
  3  8  2  0  0  0  0
  3 17  1  0  0  0  0
  4  9  1  0  0  0  0
  4 17  2  0  0  0  0
  5 19  1  0  0  0  0
  6 21  1  0  0  0  0
  7 10  2  0  0  0  0
  7 20  1  0  0  0  0
  8 25  1  0  0  0  0
  9 25  2  0  0  0  0
 10 26  1  0  0  0  0
 11 12  2  0  0  0  0
 11 27  1  0  0  0  0
 12 28  1  0  0  0  0
 13 22  1  0  0  0  0
 13 26  2  0  0  0  0
 14 23  2  0  0  0  0
 14 24  1  0  0  0  0
 15 28  2  0  0  0  0
 15 29  1  0  0  0  0
 16 23  1  0  0  0  0
 16 65  2  0  0  0  0
 17 30  1  0  0  0  0
 18 30  1  0  0  0  0
 18 32  2  0  0  0  0
 18 33  1  0  0  0  0
 19 21  2  0  0  0  0
 19 38  1  0  0  0  0
 20 22  2  0  0  0  0
 20 39  1  0  0  0  0
 21 47  1  0  0  0  0
 22 40  1  0  0  0  0
 23 61  1  0  0  0  0
 24 31  2  0  0  0  0
 24 74  1  0  0  0  0
 25 82  1  0  0  0  0
 26 83  1  0  0  0  0
 27 29  2  0  0  0  0
 27 82  1  0  0  0  0
 28 84  1  0  0  0  0
 29 85  1  0  0  0  0
 30 66  2  0  0  0  0
 31 50  1  0  0  0  0
 31 65  1  0  0  0  0
 32 67  1  0  0  0  0
 32 70  1  0  0  0  0
 33 71  1  0  0  0  0
 33 77  2  0  0  0  0
 34 48  1  0  0  0  0
 34 72  1  0  0  0  0
 34 78  2  0  0  0  0
 35 62  1  0  0  0  0
 35 68  1  0  0  0  0
 35 79  2  0  0  0  0
 36 63  1  0  0  0  0
 36 73  1  0  0  0  0
 36 80  2  0  0  0  0
 37 69  1  0  0  0  0
 37 74  1  0  0  0  0
 37 81  2  0  0  0  0
 38 41  1  0  0  0  0
 39 48  1  0  0  0  0
 40 68  1  0  0  0  0
 41 43  1  0  0  0  0
 42 44  1  0  0  0  0
 42 45  1  0  0  0  0
 43 47  1  0  0  0  0
 44 49  1  0  0  0  0
 45 69  1  0  0  0  0
 46 49  1  0  0  0  0
 46 69  1  0  0  0  0
 47 72  1  0  0  0  0
 48 68  1  0  0  0  0
 49 67  1  0  0  0  0
 51 61  1  0  0  0  0
 52 63  1  0  0  0  0
 53 64  1  0  0  0  0
 54 64  1  0  0  0  0
 55 64  1  0  0  0  0
 56 74  1  0  0  0  0
 57 75  1  0  0  0  0
 58 59  1  0  0  0  0
 58 60  1  0  0  0  0
 59 76  1  0  0  0  0
 60 83  1  0  0  0  0
 61 76  1  0  0  0  0
 62 64  1  0  0  0  0
 62 73  1  0  0  0  0
 63 75  1  0  0  0  0
 66 67  1  0  0  0  0
M  CHG  2  75   1  76   1
M  ISO  4  37 100  60 101  74 100  83 101
M  END
> <Batch ID>
0112

> <Smiles>
CNC(C)C(=O)NC(C(=O)N1Cc2cc([101O:1][101CH2:1]CCNC(C)c3cnc(C)c([100N:0](C)[100C:0](=O)N4CCCC(n5nc(-c6ccc(Oc7ccc(F)cc7F)cc6)c(C(N)=O)c5N)C4)c3)ccc2CC1C(=O)NC1CCCc2ccccc21)C(C)(C)C

> <Shape>
0.252

> <Color>
0.096

> <Negative vol penalty>
0.000

$$$$

  -OEChem-04052320033D

 85 93  0     1  0  0  0  0  0999 V2000
  -28.5346  -25.1748   15.8679 C   0  0  0  0  0  0  0  0  0  0  0  0
  -27.6482  -25.0547   16.9334 C   0  0  0  0  0  0  0  0  0  0  0  0
  -29.3425  -17.9814   20.3093 C   0  0  0  0  0  0  0  0  0  0  0  0
  -26.9634  -18.4012   20.3371 C   0  0  0  0  0  0  0  0  0  0  0  0
  -29.5608  -26.1173   15.9192 C   0  0  0  0  0  0  0  0  0  0  0  0
  -27.7881  -25.8763   18.0513 C   0  0  0  0  0  0  0  0  0  0  0  0
  -23.3706  -27.7932   19.6187 C   0  0  0  0  0  0  0  0  0  0  0  0
  -29.1257  -16.7993   19.6014 C   0  0  0  0  0  0  0  0  0  0  0  0
  -26.7466  -17.2191   19.6291 C   0  0  0  0  0  0  0  0  0  0  0  0
  -22.5352  -26.9510   20.3512 C   0  0  0  0  0  0  0  0  0  0  0  0
  -29.1689  -13.4880   18.0991 C   0  0  0  0  0  0  0  0  0  0  0  0
  -29.8595  -12.3480   18.5103 C   0  0  0  0  0  0  0  0  0  0  0  0
  -23.2884  -27.9902   22.3937 C   0  0  0  0  0  0  0  0  0  0  0  0
  -28.8151  -12.4992   20.6837 C   0  0  0  0  0  0  0  0  0  0  0  0
  -21.1640  -22.3115   25.3491 C   0  0  0  0  0  0  0  0  0  0  0  0
  -28.2614  -18.7824   20.6772 C   0  0  0  0  0  0  0  0  0  0  0  0
  -28.7047  -21.2868   20.8743 C   0  0  0  0  0  0  0  0  0  0  0  0
  -29.7075  -26.9575   17.0342 C   0  0  0  0  0  0  0  0  0  0  0  0
  -24.1808  -28.7344   20.2701 C   0  0  0  0  0  0  0  0  0  0  0  0
  -28.8180  -26.8300   18.1182 C   0  0  0  0  0  0  0  0  0  0  0  0
  -24.1314  -28.8449   21.6670 C   0  0  0  0  0  0  0  0  0  0  0  0
  -27.8278  -16.4181   19.2612 C   0  0  0  0  0  0  0  0  0  0  0  0
  -22.4961  -27.0475   21.7391 C   0  0  0  0  0  0  0  0  0  0  0  0
  -28.3014  -14.1336   18.9802 C   0  0  0  0  0  0  0  0  0  0  0  0
  -29.6826  -11.8536   19.8026 C   0  0  0  0  0  0  0  0  0  0  0  0
  -28.1245  -13.6392   20.2725 C   0  0  0  0  0  0  0  0  0  0  0  0
  -28.4847  -20.0033   21.4090 C   0  0  0  0  0  0  0  0  0  0  0  0
  -23.3310  -22.2218   26.9057 C   0  0  0  0  0  0  0  0  0  0  0  0
  -22.2115  -21.4758   27.2021 C   0  0  0  0  0  0  0  0  0  0  0  0
  -22.2831  -23.0581   25.0531 C   0  0  0  0  0  0  0  0  0  0  0  0
  -28.8593  -22.0951   21.9740 C   0  0  0  0  0  0  0  0  0  0  0  0
  -28.7639  -21.7106   19.5058 C   0  0  0  0  0  0  0  0  0  0  0  0
  -27.3135  -29.2205   20.5004 C   0  0  0  0  0  0  0  0  0  0  0  0
  -26.3877  -31.9075   22.0640 C   0  0  0  0  0  0  0  0  0  0  0  0
  -23.9894  -33.5250   23.8747 C   0  0  0  0  0  0  0  0  0  0  0  0
  -26.9724  -21.6747   27.6409 C   0  0  0  0  0  0  0  0  0  0  0  0
  -30.8609  -27.9288   17.0645 C   0  0  0  0  0  0  0  0  0  0  0  0
  -25.0566  -29.6536   19.4637 C   0  0  0  0  0  0  0  0  0  0  0  0
  -24.9663  -29.8525   22.4128 C   0  0  0  0  0  0  0  0  0  0  0  0
  -30.7129  -29.0173   18.1244 C   0  0  0  0  0  0  0  0  0  0  0  0
  -30.3383  -21.9863   26.5228 C   0  0  0  0  0  0  0  0  0  0  0  0
  -30.2863  -28.4102   19.4572 C   0  0  0  0  0  0  0  0  0  0  0  0
  -30.2648  -21.6292   25.0371 C   0  0  0  0  0  0  0  0  0  0  0  0
  -29.3747  -21.1425   27.3544 C   0  0  0  0  0  0  0  0  0  0  0  0
  -27.9004  -20.8099   25.4077 C   0  0  0  0  0  0  0  0  0  0  0  0
  -28.9221  -27.7201   19.3376 C   0  0  1  0  0  0  0  0  0  0  0  0
  -26.2213  -30.2254   20.2661 C   0  0  1  0  0  0  0  0  0  0  0  0
  -28.8139  -21.6733   24.5210 C   0  0  2  0  0  0  0  0  0  0  0  0
  -23.5358  -35.6975   25.0460 C   0  0  0  0  0  0  0  0  0  0  0  0
  -22.3684  -21.4036   29.7152 C   0  0  0  0  0  0  0  0  0  0  0  0
  -23.2768  -19.4986   28.3434 C   0  0  0  0  0  0  0  0  0  0  0  0
  -20.8231  -19.8056   28.6015 C   0  0  0  0  0  0  0  0  0  0  0  0
  -28.1990  -31.0437   24.3625 C   0  0  0  0  0  0  0  0  0  0  0  0
  -27.0043  -32.6844   25.8284 C   0  0  0  0  0  0  0  0  0  0  0  0
  -28.2740  -33.4876   23.8370 C   0  0  0  0  0  0  0  0  0  0  0  0
  -21.6742  -34.1166   22.1286 C   0  0  0  0  0  0  0  0  0  0  0  0
  -24.5454  -22.1774   27.7686 C   0  0  0  0  0  0  0  0  0  0  0  0
  -21.1226  -23.9588   23.0362 C   0  0  0  0  0  0  0  0  0  0  0  0
  -21.4169  -24.9351   21.9096 C   0  0  0  0  0  0  0  0  0  1  0  0
  -26.0899  -32.2590   23.5016 C   0  0  1  0  0  0  0  0  0  0  0  0
  -23.3993  -34.9179   23.7474 C   0  0  2  0  0  0  0  0  0  0  0  0
  -22.1626  -20.5898   28.3996 C   0  0  0  0  0  0  0  0  0  0  0  0
  -27.3774  -32.3483   24.3688 C   0  0  0  0  0  0  0  0  0  0  0  0
  -21.1080  -21.5070   26.4289 N   0  0  0  0  0  0  0  0  0  0  0  0
  -28.4977  -19.9920   22.7446 N   0  0  0  0  0  0  0  0  0  0  0  0
  -23.3867  -23.0266   25.8261 N   0  0  0  0  0  0  0  0  0  0  0  0
  -28.7279  -21.2783   23.0583 N   0  0  0  0  0  0  0  0  0  0  0  0
  -25.8113  -30.7245   21.5803 N   0  0  0  0  0  0  0  0  0  0  0  0
  -28.0162  -21.2290   26.8133 N   0  0  0  0  0  0  0  0  0  0  0  0
  -29.0935  -23.4177   22.1095 N   0  0  0  0  0  0  0  0  0  0  0  0
  -28.5836  -20.7506   18.5007 N   0  0  0  0  0  0  0  0  0  0  0  0
  -22.2584  -23.8601   23.9241 N   0  0  0  0  0  0  0  0  0  0  0  0
  -27.8577  -28.7005   19.3415 N   0  0  0  0  0  0  0  0  0  0  0  0
  -25.3062  -33.4890   23.4673 N   0  0  0  0  0  0  0  0  0  0  0  0
  -25.7173  -21.7330   27.0475 N   0  0  0  0  0  0  0  0  0  0  0  0
  -21.9530  -34.8377   23.3972 N   0  3  0  0  0  0  0  0  0  0  0  0
  -28.9870  -22.9022   19.1838 O   0  0  0  0  0  0  0  0  0  0  0  0
  -27.6396  -28.9389   21.6476 O   0  0  0  0  0  0  0  0  0  0  0  0
  -27.0994  -32.6588   21.3927 O   0  0  0  0  0  0  0  0  0  0  0  0
  -23.3475  -32.5658   24.2971 O   0  0  0  0  0  0  0  0  0  0  0  0
  -27.1471  -22.0019   28.8196 O   0  0  0  0  0  0  0  0  0  0  0  0
  -27.6159  -15.2648   18.5702 O   0  0  0  0  0  0  0  0  0  0  0  0
  -21.6820  -26.2262   22.4565 O   0  0  0  0  0  0  0  0  0  1  0  0
  -30.3447  -10.7580   20.1968 F   0  0  0  0  0  0  0  0  0  0  0  0
  -27.2915  -14.2545   21.1230 F   0  0  0  0  0  0  0  0  0  0  0  0
  1  2  1  0  0  0  0
  1  5  2  0  0  0  0
  2  6  2  0  0  0  0
  3  8  2  0  0  0  0
  3 16  1  0  0  0  0
  4  9  1  0  0  0  0
  4 16  2  0  0  0  0
  5 18  1  0  0  0  0
  6 20  1  0  0  0  0
  7 10  2  0  0  0  0
  7 19  1  0  0  0  0
  8 22  1  0  0  0  0
  9 22  2  0  0  0  0
 10 23  1  0  0  0  0
 11 12  2  0  0  0  0
 11 24  1  0  0  0  0
 12 25  1  0  0  0  0
 13 21  1  0  0  0  0
 13 23  2  0  0  0  0
 14 25  2  0  0  0  0
 14 26  1  0  0  0  0
 15 30  1  0  0  0  0
 15 64  2  0  0  0  0
 16 27  1  0  0  0  0
 17 27  1  0  0  0  0
 17 31  2  0  0  0  0
 17 32  1  0  0  0  0
 18 20  2  0  0  0  0
 18 37  1  0  0  0  0
 19 21  2  0  0  0  0
 19 38  1  0  0  0  0
 20 46  1  0  0  0  0
 21 39  1  0  0  0  0
 22 82  1  0  0  0  0
 23 83  1  0  0  0  0
 24 26  2  0  0  0  0
 24 82  1  0  0  0  0
 25 84  1  0  0  0  0
 26 85  1  0  0  0  0
 27 65  2  0  0  0  0
 28 29  2  0  0  0  0
 28 57  1  0  0  0  0
 28 66  1  0  0  0  0
 29 62  1  0  0  0  0
 29 64  1  0  0  0  0
 30 66  2  0  0  0  0
 30 72  1  0  0  0  0
 31 67  1  0  0  0  0
 31 70  1  0  0  0  0
 32 71  1  0  0  0  0
 32 77  2  0  0  0  0
 33 47  1  0  0  0  0
 33 73  1  0  0  0  0
 33 78  2  0  0  0  0
 34 60  1  0  0  0  0
 34 68  1  0  0  0  0
 34 79  2  0  0  0  0
 35 61  1  0  0  0  0
 35 74  1  0  0  0  0
 35 80  2  0  0  0  0
 36 69  1  0  0  0  0
 36 75  1  0  0  0  0
 36 81  2  0  0  0  0
 37 40  1  0  0  0  0
 38 47  1  0  0  0  0
 39 68  1  0  0  0  0
 40 42  1  0  0  0  0
 41 43  1  0  0  0  0
 41 44  1  0  0  0  0
 42 46  1  0  0  0  0
 43 48  1  0  0  0  0
 44 69  1  0  0  0  0
 45 48  1  0  0  0  0
 45 69  1  0  0  0  0
 46 73  1  0  0  0  0
 47 68  1  0  0  0  0
 48 67  1  0  0  0  0
 49 61  1  0  0  0  0
 50 62  1  0  0  0  0
 51 62  1  0  0  0  0
 52 62  1  0  0  0  0
 53 63  1  0  0  0  0
 54 63  1  0  0  0  0
 55 63  1  0  0  0  0
 56 76  1  0  0  0  0
 57 75  1  0  0  0  0
 58 59  1  0  0  0  0
 58 72  1  0  0  0  0
 59 83  1  0  0  0  0
 60 63  1  0  0  0  0
 60 74  1  0  0  0  0
 61 76  1  0  0  0  0
 65 67  1  0  0  0  0
M  CHG  1  76   1
M  ISO  4  36 100  59 101  75 100  83 101
M  END
> <Batch ID>
0112

> <Smiles>
CNC(C)C(=O)NC(C(=O)N1Cc2cc([101O:1][101CH2:1]CNc3cnc(C(C)(C)C)c(C[100NH:0][100C:0](=O)N4CCCC(n5nc(-c6ccc(Oc7ccc(F)cc7F)cc6)c(C(N)=O)c5N)C4)n3)ccc2CC1C(=O)NC1CCCc2ccccc21)C(C)(C)C

> <Shape>
0.226

> <Color>
0.068

> <Negative vol penalty>
0.000

$$$$

  -OEChem-04052320033D

 84 92  0     1  0  0  0  0  0999 V2000
  -26.1068  -32.2414   23.3715 C   0  0  0  0  0  0  0  0  0  0  0  0
  -26.5052  -30.9127   23.2659 C   0  0  0  0  0  0  0  0  0  0  0  0
  -23.0763   -9.8643   19.9400 C   0  0  0  0  0  0  0  0  0  0  0  0
  -23.8408   -9.8698   22.2319 C   0  0  0  0  0  0  0  0  0  0  0  0
  -26.0976  -33.0572   22.2409 C   0  0  0  0  0  0  0  0  0  0  0  0
  -26.8937  -30.3987   22.0292 C   0  0  0  0  0  0  0  0  0  0  0  0
  -31.1099  -27.6089   22.3226 C   0  0  0  0  0  0  0  0  0  0  0  0
  -22.3354   -8.7092   20.1899 C   0  0  0  0  0  0  0  0  0  0  0  0
  -23.0999   -8.7147   22.4818 C   0  0  0  0  0  0  0  0  0  0  0  0
  -30.9813  -26.3105   22.8138 C   0  0  0  0  0  0  0  0  0  0  0  0
  -19.8747   -7.9090   23.0897 C   0  0  0  0  0  0  0  0  0  0  0  0
  -19.1202   -7.8658   24.2620 C   0  0  0  0  0  0  0  0  0  0  0  0
  -31.9189  -20.4727   24.8716 C   0  0  0  0  0  0  0  0  0  0  0  0
  -30.9688  -21.4720   24.5463 C   0  0  0  0  0  0  0  0  0  0  0  0
  -31.0179  -25.4596   20.5568 C   0  0  0  0  0  0  0  0  0  0  0  0
  -20.3672   -5.9300   24.9933 C   0  0  0  0  0  0  0  0  0  0  0  0
  -23.8290  -10.4446   20.9610 C   0  0  0  0  0  0  0  0  0  0  0  0
  -24.1652  -12.9706   20.8438 C   0  0  0  0  0  0  0  0  0  0  0  0
  -26.4954  -32.5556   20.9916 C   0  0  0  0  0  0  0  0  0  0  0  0
  -31.1825  -27.8437   20.9420 C   0  0  0  0  0  0  0  0  0  0  0  0
  -26.8885  -31.2082   20.8806 C   0  0  0  0  0  0  0  0  0  0  0  0
  -31.1499  -26.7617   20.0508 C   0  0  0  0  0  0  0  0  0  0  0  0
  -22.3472   -8.1344   21.4607 C   0  0  0  0  0  0  0  0  0  0  0  0
  -30.9324  -25.2358   21.9308 C   0  0  0  0  0  0  0  0  0  0  0  0
  -20.8754   -6.9627   22.8690 C   0  0  0  0  0  0  0  0  0  0  0  0
  -19.3664   -6.8764   25.2138 C   0  0  0  0  0  0  0  0  0  0  0  0
  -21.1217   -5.9732   23.8208 C   0  0  0  0  0  0  0  0  0  0  0  0
  -24.5950  -11.6375   20.7034 C   0  0  0  0  0  0  0  0  0  0  0  0
  -32.0096  -19.6239   23.7906 C   0  0  0  0  0  0  0  0  0  0  0  0
  -30.5078  -21.2033   23.2764 C   0  0  0  0  0  0  0  0  0  0  0  0
  -25.2550  -13.7230   20.4794 C   0  0  0  0  0  0  0  0  0  0  0  0
  -22.8944  -13.4831   21.2660 C   0  0  0  0  0  0  0  0  0  0  0  0
  -29.3999  -29.4257   18.8388 C   0  0  0  0  0  0  0  0  0  0  0  0
  -31.8236  -28.6848   16.8141 C   0  0  0  0  0  0  0  0  0  0  0  0
  -34.4332  -26.6223   16.0510 C   0  0  0  0  0  0  0  0  0  0  0  0
  -30.7369  -14.7536   20.6581 C   0  0  0  0  0  0  0  0  0  0  0  0
  -26.4237  -33.4627   19.7888 C   0  0  0  0  0  0  0  0  0  0  0  0
  -31.3479  -29.2481   20.4293 C   0  0  0  0  0  0  0  0  0  0  0  0
  -31.2444  -26.9586   18.5606 C   0  0  0  0  0  0  0  0  0  0  0  0
  -27.2076  -32.9431   18.5864 C   0  0  0  0  0  0  0  0  0  0  0  0
  -29.5996  -12.3700   18.2704 C   0  0  0  0  0  0  0  0  0  0  0  0
  -26.9118  -31.4647   18.3548 C   0  0  0  0  0  0  0  0  0  0  0  0
  -28.1637  -12.0725   18.7058 C   0  0  0  0  0  0  0  0  0  0  0  0
  -30.5187  -12.5911   19.4697 C   0  0  0  0  0  0  0  0  0  0  0  0
  -28.6182  -13.3161   20.8611 C   0  0  0  0  0  0  0  0  0  0  0  0
  -27.3406  -30.6207   19.5612 C   0  0  1  0  0  0  0  0  0  0  0  0
  -30.8956  -29.4129   18.9817 C   0  0  1  0  0  0  0  0  0  0  0  0
  -27.6420  -13.1411   19.6852 C   0  0  2  0  0  0  0  0  0  0  0  0
  -32.8460  -18.4211   23.5991 C   0  0  0  0  0  0  0  0  0  0  0  0
  -36.2035  -26.2458   14.3126 C   0  0  0  0  0  0  0  0  0  0  0  0
  -29.7290  -27.4928   14.9428 C   0  0  0  0  0  0  0  0  0  0  0  0
  -31.5798  -26.3199   13.7315 C   0  0  0  0  0  0  0  0  0  0  0  0
  -31.5191  -28.8128   13.7993 C   0  0  0  0  0  0  0  0  0  0  0  0
  -29.4640  -17.9710   20.0739 C   0  0  0  0  0  0  0  0  0  0  0  0
  -28.8542  -18.4167   22.4452 C   0  0  0  0  0  0  0  0  0  0  0  0
  -36.6108  -27.0282   18.0137 C   0  0  0  0  0  0  0  0  0  0  0  0
  -29.4912  -21.9422   22.4404 C   0  0  0  0  0  0  0  0  0  0  0  0
  -30.9429  -19.4621   21.5326 C   0  0  0  0  0  0  0  0  0  0  0  0
  -30.8006  -16.9026   21.8979 C   0  0  0  0  0  0  0  0  0  0  0  0
  -30.1278  -23.0259   21.5771 C   0  0  0  0  0  0  0  0  0  1  0  0
  -32.1302  -27.5305   15.8908 C   0  0  1  0  0  0  0  0  0  0  0  0
  -35.8623  -26.9183   15.6333 C   0  0  2  0  0  0  0  0  0  0  0  0
  -31.2358  -27.5351   14.6190 C   0  0  0  0  0  0  0  0  0  0  0  0
  -30.0451  -18.1887   21.4860 C   0  0  0  0  0  0  0  0  0  0  0  0
  -25.8592  -11.5449   20.2824 N   0  0  0  0  0  0  0  0  0  0  0  0
  -31.1472  -20.0776   22.8270 N   0  0  0  0  0  0  0  0  0  0  0  0
  -26.2331  -12.8295   20.1551 N   0  0  0  0  0  0  0  0  0  0  0  0
  -31.3989  -28.3510   18.1080 N   0  0  0  0  0  0  0  0  0  0  0  0
  -29.9677  -13.6172   20.3582 N   0  0  0  0  0  0  0  0  0  0  0  0
  -25.4623  -15.0550   20.4078 N   0  0  0  0  0  0  0  0  0  0  0  0
  -21.8851  -12.5713   21.6041 N   0  0  0  0  0  0  0  0  0  0  0  0
  -28.7747  -30.4263   19.5580 N   0  0  0  0  0  0  0  0  0  0  0  0
  -33.5613  -27.5974   15.6151 N   0  0  0  0  0  0  0  0  0  0  0  0
  -30.1374  -15.6800   21.5027 N   0  0  0  0  0  0  0  0  0  0  0  0
  -36.8163  -26.4307   16.6692 N   0  3  0  0  0  0  0  0  0  0  0  0
  -22.6556  -14.7131   21.3255 O   0  0  0  0  0  0  0  0  0  0  0  0
  -28.8537  -28.5907   18.1275 O   0  0  0  0  0  0  0  0  0  0  0  0
  -31.9628  -29.8401   16.4048 O   0  0  0  0  0  0  0  0  0  0  0  0
  -34.1210  -25.6238   16.6961 O   0  0  0  0  0  0  0  0  0  0  0  0
  -31.8715  -14.9322   20.2025 O   0  0  0  0  0  0  0  0  0  0  0  0
  -21.6241   -7.0074   21.7050 O   0  0  0  0  0  0  0  0  0  0  0  0
  -30.8063  -23.9675   22.4075 O   0  0  0  0  0  0  0  0  0  1  0  0
  -18.6429   -6.8359   26.3403 F   0  0  0  0  0  0  0  0  0  0  0  0
  -22.0826   -5.0621   23.6150 F   0  0  0  0  0  0  0  0  0  0  0  0
  1  2  1  0  0  0  0
  1  5  2  0  0  0  0
  2  6  2  0  0  0  0
  3  8  2  0  0  0  0
  3 17  1  0  0  0  0
  4  9  1  0  0  0  0
  4 17  2  0  0  0  0
  5 19  1  0  0  0  0
  6 21  1  0  0  0  0
  7 10  2  0  0  0  0
  7 20  1  0  0  0  0
  8 23  1  0  0  0  0
  9 23  2  0  0  0  0
 10 24  1  0  0  0  0
 11 12  2  0  0  0  0
 11 25  1  0  0  0  0
 12 26  1  0  0  0  0
 13 14  1  0  0  0  0
 13 29  2  0  0  0  0
 14 30  2  0  0  0  0
 15 22  1  0  0  0  0
 15 24  2  0  0  0  0
 16 26  2  0  0  0  0
 16 27  1  0  0  0  0
 17 28  1  0  0  0  0
 18 28  1  0  0  0  0
 18 31  2  0  0  0  0
 18 32  1  0  0  0  0
 19 21  2  0  0  0  0
 19 37  1  0  0  0  0
 20 22  2  0  0  0  0
 20 38  1  0  0  0  0
 21 46  1  0  0  0  0
 22 39  1  0  0  0  0
 23 81  1  0  0  0  0
 24 82  1  0  0  0  0
 25 27  2  0  0  0  0
 25 81  1  0  0  0  0
 26 83  1  0  0  0  0
 27 84  1  0  0  0  0
 28 65  2  0  0  0  0
 29 49  1  0  0  0  0
 29 66  1  0  0  0  0
 30 57  1  0  0  0  0
 30 66  1  0  0  0  0
 31 67  1  0  0  0  0
 31 70  1  0  0  0  0
 32 71  1  0  0  0  0
 32 76  2  0  0  0  0
 33 47  1  0  0  0  0
 33 72  1  0  0  0  0
 33 77  2  0  0  0  0
 34 61  1  0  0  0  0
 34 68  1  0  0  0  0
 34 78  2  0  0  0  0
 35 62  1  0  0  0  0
 35 73  1  0  0  0  0
 35 79  2  0  0  0  0
 36 69  1  0  0  0  0
 36 74  1  0  0  0  0
 36 80  2  0  0  0  0
 37 40  1  0  0  0  0
 38 47  1  0  0  0  0
 39 68  1  0  0  0  0
 40 42  1  0  0  0  0
 41 43  1  0  0  0  0
 41 44  1  0  0  0  0
 42 46  1  0  0  0  0
 43 48  1  0  0  0  0
 44 69  1  0  0  0  0
 45 48  1  0  0  0  0
 45 69  1  0  0  0  0
 46 72  1  0  0  0  0
 47 68  1  0  0  0  0
 48 67  1  0  0  0  0
 50 62  1  0  0  0  0
 51 63  1  0  0  0  0
 52 63  1  0  0  0  0
 53 63  1  0  0  0  0
 54 64  1  0  0  0  0
 55 64  1  0  0  0  0
 56 75  1  0  0  0  0
 57 60  1  0  0  0  0
 58 64  1  0  0  0  0
 58 66  1  0  0  0  0
 59 64  1  0  0  0  0
 59 74  1  0  0  0  0
 60 82  1  0  0  0  0
 61 63  1  0  0  0  0
 61 73  1  0  0  0  0
 62 75  1  0  0  0  0
 65 67  1  0  0  0  0
M  CHG  1  75   1
M  ISO  4  36 100  60 101  74 100  82 101
M  END
> <Batch ID>
0112

> <Smiles>
CNC(C)C(=O)NC(C(=O)N1Cc2cc([101O:1][101CH2:1]Cc3ccc(C)n3CC(C)(C)C[100NH:0][100C:0](=O)N3CCCC(n4nc(-c5ccc(Oc6ccc(F)cc6F)cc5)c(C(N)=O)c4N)C3)ccc2CC1C(=O)NC1CCCc2ccccc21)C(C)(C)C

> <Shape>
0.253

> <Color>
0.196

> <Negative vol penalty>
0.000

$$$$

  -OEChem-04052320033D

 85 93  0     1  0  0  0  0  0999 V2000
  -19.4443   -8.9017   21.3530 C   0  0  0  0  0  0  0  0  0  0  0  0
  -19.5264  -10.0445   22.1420 C   0  0  0  0  0  0  0  0  0  0  0  0
  -26.2932  -28.2694   18.9580 C   0  0  0  0  0  0  0  0  0  0  0  0
  -26.2933  -28.0815   21.3666 C   0  0  0  0  0  0  0  0  0  0  0  0
  -20.5996   -8.3586   20.7923 C   0  0  0  0  0  0  0  0  0  0  0  0
  -20.7641  -10.6444   22.3717 C   0  0  0  0  0  0  0  0  0  0  0  0
  -21.8963  -16.6318   22.9836 C   0  0  0  0  0  0  0  0  0  0  0  0
  -24.9455  -28.6279   18.9860 C   0  0  0  0  0  0  0  0  0  0  0  0
  -24.9456  -28.4401   21.3947 C   0  0  0  0  0  0  0  0  0  0  0  0
  -22.0687  -17.4442   24.1034 C   0  0  0  0  0  0  0  0  0  0  0  0
  -21.4127  -28.9554   22.0747 C   0  0  0  0  0  0  0  0  0  0  0  0
  -20.5615  -28.2142   22.8943 C   0  0  0  0  0  0  0  0  0  0  0  0
  -24.4603  -17.1973   23.9067 C   0  0  0  0  0  0  0  0  0  0  0  0
  -25.6839  -20.3333   25.4217 C   0  0  0  0  0  0  0  0  0  0  0  0
  -21.1080  -26.2146   21.6534 C   0  0  0  0  0  0  0  0  0  0  0  0
  -27.1467  -18.5862   26.1031 C   0  0  0  0  0  0  0  0  0  0  0  0
  -26.9671  -27.9961   20.1483 C   0  0  0  0  0  0  0  0  0  0  0  0
  -29.4701  -28.4871   20.1873 C   0  0  0  0  0  0  0  0  0  0  0  0
  -21.8508   -8.9577   21.0073 C   0  0  0  0  0  0  0  0  0  0  0  0
  -23.0060  -16.0863   22.3223 C   0  0  0  0  0  0  0  0  0  0  0  0
  -21.9374  -10.1081   21.8144 C   0  0  0  0  0  0  0  0  0  0  0  0
  -24.2993  -16.3805   22.7772 C   0  0  0  0  0  0  0  0  0  0  0  0
  -25.8556  -19.0761   25.9902 C   0  0  0  0  0  0  0  0  0  0  0  0
  -26.7930  -21.0521   24.9896 C   0  0  0  0  0  0  0  0  0  0  0  0
  -24.2717  -28.7133   20.2043 C   0  0  0  0  0  0  0  0  0  0  0  0
  -23.3508  -17.7247   24.5669 C   0  0  0  0  0  0  0  0  0  0  0  0
  -22.1115  -28.3262   21.0444 C   0  0  0  0  0  0  0  0  0  0  0  0
  -20.4092  -26.8438   22.6837 C   0  0  0  0  0  0  0  0  0  0  0  0
  -21.9591  -26.9558   20.8338 C   0  0  0  0  0  0  0  0  0  0  0  0
  -28.3591  -27.6251   20.1199 C   0  0  0  0  0  0  0  0  0  0  0  0
  -28.0422  -20.4738   25.1475 C   0  0  0  0  0  0  0  0  0  0  0  0
  -30.5578  -27.6509   20.1228 C   0  0  0  0  0  0  0  0  0  0  0  0
  -29.5149  -29.9158   20.2983 C   0  0  0  0  0  0  0  0  0  0  0  0
  -24.0492  -13.1393   21.7472 C   0  0  0  0  0  0  0  0  0  0  0  0
  -26.2748  -14.6926   19.9705 C   0  0  0  0  0  0  0  0  0  0  0  0
  -28.0163  -17.5664   19.3749 C   0  0  0  0  0  0  0  0  0  0  0  0
  -31.3579  -21.8860   21.5289 C   0  0  0  0  0  0  0  0  0  0  0  0
  -23.0778   -8.3071   20.4191 C   0  0  0  0  0  0  0  0  0  0  0  0
  -22.8041  -15.2337   21.0997 C   0  0  0  0  0  0  0  0  0  0  0  0
  -25.5244  -15.8360   22.0906 C   0  0  0  0  0  0  0  0  0  0  0  0
  -24.3022   -9.2187   20.4033 C   0  0  0  0  0  0  0  0  0  0  0  0
  -31.9269  -23.4168   18.3651 C   0  0  0  0  0  0  0  0  0  0  0  0
  -24.4679   -9.9134   21.7512 C   0  0  0  0  0  0  0  0  0  0  0  0
  -31.1773  -24.7467   18.4622 C   0  0  0  0  0  0  0  0  0  0  0  0
  -31.1857  -22.2969   19.0921 C   0  0  0  0  0  0  0  0  0  0  0  0
  -30.0969  -23.9190   20.5944 C   0  0  0  0  0  0  0  0  0  0  0  0
  -23.2585  -10.8018   22.0663 C   0  0  1  0  0  0  0  0  0  0  0  0
  -23.9860  -14.3131   20.8114 C   0  0  1  0  0  0  0  0  0  0  0  0
  -30.8335  -25.0912   19.9238 C   0  0  2  0  0  0  0  0  0  0  0  0
  -25.9773  -23.4080   25.3613 C   0  0  0  0  0  0  0  0  0  0  0  0
  -25.7761  -22.3491   23.0823 C   0  0  0  0  0  0  0  0  0  0  0  0
  -24.3169  -18.5714   27.9192 C   0  0  0  0  0  0  0  0  0  0  0  0
  -29.7932  -18.5192   17.8809 C   0  0  0  0  0  0  0  0  0  0  0  0
  -28.4058  -13.1775   21.5431 C   0  0  0  0  0  0  0  0  0  0  0  0
  -30.0955  -14.8238   20.7048 C   0  0  0  0  0  0  0  0  0  0  0  0
  -28.8615  -13.3752   19.0920 C   0  0  0  0  0  0  0  0  0  0  0  0
  -26.1773  -19.6241   18.3057 C   0  0  0  0  0  0  0  0  0  0  0  0
  -30.4298  -20.5827   24.4313 C   0  0  0  0  0  0  0  0  0  0  0  0
  -31.4554  -21.6175   23.9941 C   0  0  0  0  0  0  0  0  0  0  0  0
  -26.6050  -22.3996   24.3800 C   0  0  0  0  0  0  0  0  0  0  0  0
  -24.6711  -18.2682   26.4689 C   0  0  1  0  0  0  0  0  0  1  0  0
  -27.6432  -15.2709   20.2385 C   0  0  1  0  0  0  0  0  0  0  0  0
  -28.2996  -18.3247   18.0907 C   0  0  2  0  0  0  0  0  0  0  0  0
  -28.7286  -14.1707   20.4089 C   0  0  0  0  0  0  0  0  0  0  0  0
  -28.2484  -19.2550   25.6950 N   0  0  0  0  0  0  0  0  0  0  0  0
  -28.7088  -26.3399   20.0202 N   0  0  0  0  0  0  0  0  0  0  0  0
  -30.0519  -26.3881   20.0243 N   0  0  0  0  0  0  0  0  0  0  0  0
  -25.2747  -15.0023   20.9032 N   0  0  0  0  0  0  0  0  0  0  0  0
  -30.8912  -22.6864   20.4732 N   0  0  0  0  0  0  0  0  0  0  0  0
  -31.8881  -27.8799   20.1413 N   0  0  0  0  0  0  0  0  0  0  0  0
  -28.3044  -30.6201   20.3525 N   0  0  0  0  0  0  0  0  0  0  0  0
  -29.1757  -21.2030   24.7087 N   0  0  0  0  0  0  0  0  0  0  0  0
  -23.3316  -12.0389   21.3188 N   0  0  0  0  0  0  0  0  0  0  0  0
  -27.9092  -16.2096   19.1538 N   0  0  0  0  0  0  0  0  0  0  0  0
  -31.0402  -22.3302   22.8065 N   0  0  0  0  0  0  0  0  0  0  0  0
  -27.6516  -19.6662   18.1275 N   0  3  0  0  0  0  0  0  0  0  0  0
  -30.5964  -30.5505   20.3313 O   0  0  0  0  0  0  0  0  0  0  0  0
  -24.7019  -13.2251   22.7808 O   0  0  0  0  0  0  0  0  0  0  0  0
  -26.0978  -13.9977   18.9668 O   0  0  0  0  0  0  0  0  0  0  0  0
  -27.9051  -18.1217   20.4656 O   0  0  0  0  0  0  0  0  0  0  0  0
  -32.0141  -20.8549   21.3465 O   0  0  0  0  0  0  0  0  0  0  0  0
  -22.9567  -29.0634   20.2321 O   0  0  0  0  0  0  0  0  0  0  0  0
  -23.5219  -18.5168   25.6602 O   0  0  0  0  0  0  0  0  0  1  0  0
  -19.5930  -26.1319   23.4718 F   0  0  0  0  0  0  0  0  0  0  0  0
  -22.6287  -26.3456   19.8463 F   0  0  0  0  0  0  0  0  0  0  0  0
  1  2  1  0  0  0  0
  1  5  2  0  0  0  0
  2  6  2  0  0  0  0
  3  8  2  0  0  0  0
  3 17  1  0  0  0  0
  4  9  1  0  0  0  0
  4 17  2  0  0  0  0
  5 19  1  0  0  0  0
  6 21  1  0  0  0  0
  7 10  2  0  0  0  0
  7 20  1  0  0  0  0
  8 25  1  0  0  0  0
  9 25  2  0  0  0  0
 10 26  1  0  0  0  0
 11 12  2  0  0  0  0
 11 27  1  0  0  0  0
 12 28  1  0  0  0  0
 13 22  1  0  0  0  0
 13 26  2  0  0  0  0
 14 23  2  0  0  0  0
 14 24  1  0  0  0  0
 15 28  2  0  0  0  0
 15 29  1  0  0  0  0
 16 23  1  0  0  0  0
 16 65  2  0  0  0  0
 17 30  1  0  0  0  0
 18 30  1  0  0  0  0
 18 32  2  0  0  0  0
 18 33  1  0  0  0  0
 19 21  2  0  0  0  0
 19 38  1  0  0  0  0
 20 22  2  0  0  0  0
 20 39  1  0  0  0  0
 21 47  1  0  0  0  0
 22 40  1  0  0  0  0
 23 61  1  0  0  0  0
 24 31  2  0  0  0  0
 24 60  1  0  0  0  0
 25 82  1  0  0  0  0
 26 83  1  0  0  0  0
 27 29  2  0  0  0  0
 27 82  1  0  0  0  0
 28 84  1  0  0  0  0
 29 85  1  0  0  0  0
 30 66  2  0  0  0  0
 31 65  1  0  0  0  0
 31 72  1  0  0  0  0
 32 67  1  0  0  0  0
 32 70  1  0  0  0  0
 33 71  1  0  0  0  0
 33 77  2  0  0  0  0
 34 48  1  0  0  0  0
 34 73  1  0  0  0  0
 34 78  2  0  0  0  0
 35 62  1  0  0  0  0
 35 68  1  0  0  0  0
 35 79  2  0  0  0  0
 36 63  1  0  0  0  0
 36 74  1  0  0  0  0
 36 80  2  0  0  0  0
 37 69  1  0  0  0  0
 37 75  1  0  0  0  0
 37 81  2  0  0  0  0
 38 41  1  0  0  0  0
 39 48  1  0  0  0  0
 40 68  1  0  0  0  0
 41 43  1  0  0  0  0
 42 44  1  0  0  0  0
 42 45  1  0  0  0  0
 43 47  1  0  0  0  0
 44 49  1  0  0  0  0
 45 69  1  0  0  0  0
 46 49  1  0  0  0  0
 46 69  1  0  0  0  0
 47 73  1  0  0  0  0
 48 68  1  0  0  0  0
 49 67  1  0  0  0  0
 50 60  1  0  0  0  0
 51 60  1  0  0  0  0
 52 61  1  0  0  0  0
 53 63  1  0  0  0  0
 54 64  1  0  0  0  0
 55 64  1  0  0  0  0
 56 64  1  0  0  0  0
 57 76  1  0  0  0  0
 58 59  1  0  0  0  0
 58 72  1  0  0  0  0
 59 75  1  0  0  0  0
 61 83  1  0  0  0  0
 62 64  1  0  0  0  0
 62 74  1  0  0  0  0
 63 76  1  0  0  0  0
 66 67  1  0  0  0  0
M  CHG  1  76   1
M  ISO  4  37 100  61 101  75 100  83 101
M  END
> <Batch ID>
0112

> <Smiles>
CNC(C)C(=O)NC(C(=O)N1Cc2cc([101O:1][101CH:1](C)c3cnc(NCC[100NH:0][100C:0](=O)N4CCCC(n5nc(-c6ccc(Oc7ccc(F)cc7F)cc6)c(C(N)=O)c5N)C4)c(C(C)C)c3)ccc2CC1C(=O)NC1CCCc2ccccc21)C(C)(C)C

> <Shape>
0.235

> <Color>
0.048

> <Negative vol penalty>
0.000

$$$$

  -OEChem-04052320033D

 84 92  0     1  0  0  0  0  0999 V2000
  -18.5561   -9.3227   19.6159 C   0  0  0  0  0  0  0  0  0  0  0  0
  -18.7353  -10.4646   18.8419 C   0  0  0  0  0  0  0  0  0  0  0  0
  -22.3971  -28.0790   20.7419 C   0  0  0  0  0  0  0  0  0  0  0  0
  -23.5200  -26.7779   22.4399 C   0  0  0  0  0  0  0  0  0  0  0  0
  -19.1399   -9.2396   20.8794 C   0  0  0  0  0  0  0  0  0  0  0  0
  -19.4976  -11.5248   19.3313 C   0  0  0  0  0  0  0  0  0  0  0  0
  -23.9283  -16.7022   17.1224 C   0  0  0  0  0  0  0  0  0  0  0  0
  -27.6716  -20.4221   22.2558 C   0  0  0  0  0  0  0  0  0  0  0  0
  -21.1734  -27.8379   21.3664 C   0  0  0  0  0  0  0  0  0  0  0  0
  -22.2963  -26.5368   23.0644 C   0  0  0  0  0  0  0  0  0  0  0  0
  -24.1051  -18.0819   17.2178 C   0  0  0  0  0  0  0  0  0  0  0  0
  -19.4645  -29.0151   24.0360 C   0  0  0  0  0  0  0  0  0  0  0  0
  -18.5953  -30.0940   24.1971 C   0  0  0  0  0  0  0  0  0  0  0  0
  -26.3846  -20.4012   21.7300 C   0  0  0  0  0  0  0  0  0  0  0  0
  -25.1313  -17.7946   19.3820 C   0  0  0  0  0  0  0  0  0  0  0  0
  -16.9274  -28.9472   22.8780 C   0  0  0  0  0  0  0  0  0  0  0  0
  -23.5704  -27.5489   21.2786 C   0  0  0  0  0  0  0  0  0  0  0  0
  -25.7152  -28.8692   20.8731 C   0  0  0  0  0  0  0  0  0  0  0  0
  -19.9176  -10.2953   21.3806 C   0  0  0  0  0  0  0  0  0  0  0  0
  -24.3425  -15.8579   18.1626 C   0  0  0  0  0  0  0  0  0  0  0  0
  -20.0912  -11.4563   20.6032 C   0  0  0  0  0  0  0  0  0  0  0  0
  -24.9609  -16.4043   19.2962 C   0  0  0  0  0  0  0  0  0  0  0  0
  -28.7602  -20.5951   21.4083 C   0  0  0  0  0  0  0  0  0  0  0  0
  -21.1229  -27.0668   22.5276 C   0  0  0  0  0  0  0  0  0  0  0  0
  -24.7040  -18.6285   18.3490 C   0  0  0  0  0  0  0  0  0  0  0  0
  -19.0652  -27.9023   23.2958 C   0  0  0  0  0  0  0  0  0  0  0  0
  -17.3267  -30.0601   23.6182 C   0  0  0  0  0  0  0  0  0  0  0  0
  -17.7966  -27.8683   22.7169 C   0  0  0  0  0  0  0  0  0  0  0  0
  -24.8347  -27.7972   20.6337 C   0  0  0  0  0  0  0  0  0  0  0  0
  -26.2409  -20.5565   20.3606 C   0  0  0  0  0  0  0  0  0  0  0  0
  -28.5102  -20.7415   20.0533 C   0  0  0  0  0  0  0  0  0  0  0  0
  -26.7639  -28.6508   20.0135 C   0  0  0  0  0  0  0  0  0  0  0  0
  -25.5959  -29.9644   21.7907 C   0  0  0  0  0  0  0  0  0  0  0  0
  -22.8763  -13.8381   20.1309 C   0  0  0  0  0  0  0  0  0  0  0  0
  -25.9091  -13.1369   21.0434 C   0  0  0  0  0  0  0  0  0  0  0  0
  -29.1656  -14.1294   21.2818 C   0  0  0  0  0  0  0  0  0  0  0  0
  -28.9502  -23.7170   17.4195 C   0  0  0  0  0  0  0  0  0  0  0  0
  -20.4895  -10.1790   22.7713 C   0  0  0  0  0  0  0  0  0  0  0  0
  -24.1688  -14.3695   18.0326 C   0  0  0  0  0  0  0  0  0  0  0  0
  -25.4417  -15.5395   20.4317 C   0  0  0  0  0  0  0  0  0  0  0  0
  -21.5927  -11.1929   23.0630 C   0  0  0  0  0  0  0  0  0  0  0  0
  -27.7873  -26.6588   15.7855 C   0  0  0  0  0  0  0  0  0  0  0  0
  -21.1731  -12.5855   22.6032 C   0  0  0  0  0  0  0  0  0  0  0  0
  -26.9782  -27.3809   16.8644 C   0  0  0  0  0  0  0  0  0  0  0  0
  -27.6308  -25.1429   15.8825 C   0  0  0  0  0  0  0  0  0  0  0  0
  -27.1199  -25.2952   18.2887 C   0  0  0  0  0  0  0  0  0  0  0  0
  -20.9316  -12.6171   21.0892 C   0  0  1  0  0  0  0  0  0  0  0  0
  -24.1624  -13.6490   19.3772 C   0  0  1  0  0  0  0  0  0  0  0  0
  -27.2903  -26.8239   18.2663 C   0  0  2  0  0  0  0  0  0  0  0  0
  -30.5259  -19.2876   22.6438 C   0  0  0  0  0  0  0  0  0  0  0  0
  -30.3645  -21.7852   22.9459 C   0  0  0  0  0  0  0  0  0  0  0  0
  -24.2501  -21.9357   19.6697 C   0  0  0  0  0  0  0  0  0  0  0  0
  -31.4054  -13.3556   22.1078 C   0  0  0  0  0  0  0  0  0  0  0  0
  -25.0423  -13.7001   23.9142 C   0  0  0  0  0  0  0  0  0  0  0  0
  -27.4615  -13.8469   24.5421 C   0  0  0  0  0  0  0  0  0  0  0  0
  -26.5346  -11.7112   23.6462 C   0  0  0  0  0  0  0  0  0  0  0  0
  -30.3463  -14.2793   18.5721 C   0  0  0  0  0  0  0  0  0  0  0  0
  -29.6405  -20.9337   19.0961 C   0  0  0  0  0  0  0  0  0  0  0  0
  -30.1962  -22.3619   19.0840 C   0  0  0  0  0  0  0  0  0  0  0  0
  -30.1414  -20.6171   21.9656 C   0  0  0  0  0  0  0  0  0  0  0  0
  -24.8562  -20.5406   19.7548 C   0  0  1  0  0  0  0  0  0  1  0  0
  -26.8632  -13.6717   22.0840 C   0  0  1  0  0  0  0  0  0  0  0  0
  -30.4617  -13.4280   20.9174 C   0  0  2  0  0  0  0  0  0  0  0  0
  -26.4647  -13.2492   23.5262 C   0  0  0  0  0  0  0  0  0  0  0  0
  -25.2848  -26.9600   19.6953 N   0  0  0  0  0  0  0  0  0  0  0  0
  -27.2742  -20.7267   19.5057 N   0  0  0  0  0  0  0  0  0  0  0  0
  -26.4595  -27.5060   19.3374 N   0  0  0  0  0  0  0  0  0  0  0  0
  -25.2437  -14.0907   20.2604 N   0  0  0  0  0  0  0  0  0  0  0  0
  -27.9429  -24.6787   17.2364 N   0  0  0  0  0  0  0  0  0  0  0  0
  -27.9074  -29.3283   19.7774 N   0  0  0  0  0  0  0  0  0  0  0  0
  -24.4539  -30.0366   22.6001 N   0  0  0  0  0  0  0  0  0  0  0  0
  -22.1908  -12.6638   20.3774 N   0  0  0  0  0  0  0  0  0  0  0  0
  -28.1950  -13.2345   21.6797 N   0  0  0  0  0  0  0  0  0  0  0  0
  -29.1870  -23.3368   18.7348 N   0  0  0  0  0  0  0  0  0  0  0  0
  -31.1515  -14.1547   19.8142 N   0  3  0  0  0  0  0  0  0  0  0  0
  -26.4681  -30.8617   21.8782 O   0  0  0  0  0  0  0  0  0  0  0  0
  -22.5322  -14.9656   20.4653 O   0  0  0  0  0  0  0  0  0  0  0  0
  -25.7652  -11.9175   20.9248 O   0  0  0  0  0  0  0  0  0  0  0  0
  -29.0292  -15.3494   21.2231 O   0  0  0  0  0  0  0  0  0  0  0  0
  -29.5947  -23.2369   16.4808 O   0  0  0  0  0  0  0  0  0  0  0  0
  -19.9291  -26.8316   23.1374 O   0  0  0  0  0  0  0  0  0  0  0  0
  -24.8772  -19.9748   18.4450 O   0  0  0  0  0  0  0  0  0  1  0  0
  -16.4915  -31.0956   23.7743 F   0  0  0  0  0  0  0  0  0  0  0  0
  -17.4070  -26.8015   22.0057 F   0  0  0  0  0  0  0  0  0  0  0  0
  1  2  1  0  0  0  0
  1  5  2  0  0  0  0
  2  6  2  0  0  0  0
  3  9  2  0  0  0  0
  3 17  1  0  0  0  0
  4 10  1  0  0  0  0
  4 17  2  0  0  0  0
  5 19  1  0  0  0  0
  6 21  1  0  0  0  0
  7 11  2  0  0  0  0
  7 20  1  0  0  0  0
  8 14  2  0  0  0  0
  8 23  1  0  0  0  0
  9 24  1  0  0  0  0
 10 24  2  0  0  0  0
 11 25  1  0  0  0  0
 12 13  2  0  0  0  0
 12 26  1  0  0  0  0
 13 27  1  0  0  0  0
 14 30  1  0  0  0  0
 15 22  1  0  0  0  0
 15 25  2  0  0  0  0
 16 27  2  0  0  0  0
 16 28  1  0  0  0  0
 17 29  1  0  0  0  0
 18 29  1  0  0  0  0
 18 32  2  0  0  0  0
 18 33  1  0  0  0  0
 19 21  2  0  0  0  0
 19 38  1  0  0  0  0
 20 22  2  0  0  0  0
 20 39  1  0  0  0  0
 21 47  1  0  0  0  0
 22 40  1  0  0  0  0
 23 31  2  0  0  0  0
 23 60  1  0  0  0  0
 24 81  1  0  0  0  0
 25 82  1  0  0  0  0
 26 28  2  0  0  0  0
 26 81  1  0  0  0  0
 27 83  1  0  0  0  0
 28 84  1  0  0  0  0
 29 65  2  0  0  0  0
 30 61  1  0  0  0  0
 30 66  2  0  0  0  0
 31 58  1  0  0  0  0
 31 66  1  0  0  0  0
 32 67  1  0  0  0  0
 32 70  1  0  0  0  0
 33 71  1  0  0  0  0
 33 76  2  0  0  0  0
 34 48  1  0  0  0  0
 34 72  1  0  0  0  0
 34 77  2  0  0  0  0
 35 62  1  0  0  0  0
 35 68  1  0  0  0  0
 35 78  2  0  0  0  0
 36 63  1  0  0  0  0
 36 73  1  0  0  0  0
 36 79  2  0  0  0  0
 37 69  1  0  0  0  0
 37 74  1  0  0  0  0
 37 80  2  0  0  0  0
 38 41  1  0  0  0  0
 39 48  1  0  0  0  0
 40 68  1  0  0  0  0
 41 43  1  0  0  0  0
 42 44  1  0  0  0  0
 42 45  1  0  0  0  0
 43 47  1  0  0  0  0
 44 49  1  0  0  0  0
 45 69  1  0  0  0  0
 46 49  1  0  0  0  0
 46 69  1  0  0  0  0
 47 72  1  0  0  0  0
 48 68  1  0  0  0  0
 49 67  1  0  0  0  0
 50 60  1  0  0  0  0
 51 60  1  0  0  0  0
 52 61  1  0  0  0  0
 53 63  1  0  0  0  0
 54 64  1  0  0  0  0
 55 64  1  0  0  0  0
 56 64  1  0  0  0  0
 57 75  1  0  0  0  0
 58 59  1  0  0  0  0
 59 74  1  0  0  0  0
 61 82  1  0  0  0  0
 62 64  1  0  0  0  0
 62 73  1  0  0  0  0
 63 75  1  0  0  0  0
 65 67  1  0  0  0  0
M  CHG  1  75   1
M  ISO  4  37 100  61 101  74 100  82 101
M  END
> <Batch ID>
0112

> <Smiles>
CNC(C)C(=O)NC(C(=O)N1Cc2cc([101O:1][101CH:1](C)c3ccc(C(C)C)c(CC[100NH:0][100C:0](=O)N4CCCC(n5nc(-c6ccc(Oc7ccc(F)cc7F)cc6)c(C(N)=O)c5N)C4)n3)ccc2CC1C(=O)NC1CCCc2ccccc21)C(C)(C)C

> <Shape>
0.247

> <Color>
0.063

> <Negative vol penalty>
0.000

$$$$

  -OEChem-04052320033D

 83 92  0     1  0  0  0  0  0999 V2000
  -27.2925  -31.4092   14.8593 C   0  0  0  0  0  0  0  0  0  0  0  0
  -27.0141  -30.1555   15.3942 C   0  0  0  0  0  0  0  0  0  0  0  0
  -23.1977   -9.7504   21.5253 C   0  0  0  0  0  0  0  0  0  0  0  0
  -23.7890  -10.8544   23.5914 C   0  0  0  0  0  0  0  0  0  0  0  0
  -27.7412  -32.4358   15.6891 C   0  0  0  0  0  0  0  0  0  0  0  0
  -27.1852  -29.9274   16.7591 C   0  0  0  0  0  0  0  0  0  0  0  0
  -23.7989  -26.2886   20.3366 C   0  0  0  0  0  0  0  0  0  0  0  0
  -28.7581  -19.3450   19.7852 C   0  0  0  0  0  0  0  0  0  0  0  0
  -27.8644  -20.3522   20.1531 C   0  0  0  0  0  0  0  0  0  0  0  0
  -22.5043   -8.7767   22.2441 C   0  0  0  0  0  0  0  0  0  0  0  0
  -23.0956   -9.8807   24.3102 C   0  0  0  0  0  0  0  0  0  0  0  0
  -23.9884  -24.9864   20.7971 C   0  0  0  0  0  0  0  0  0  0  0  0
  -23.2415   -6.0068   24.0355 C   0  0  0  0  0  0  0  0  0  0  0  0
  -23.4339   -4.6741   23.6718 C   0  0  0  0  0  0  0  0  0  0  0  0
  -29.1811  -18.8730   22.1107 C   0  0  0  0  0  0  0  0  0  0  0  0
  -24.9026  -25.8533   22.8542 C   0  0  0  0  0  0  0  0  0  0  0  0
  -21.0753   -4.4644   23.1920 C   0  0  0  0  0  0  0  0  0  0  0  0
  -23.8401  -10.7893   22.1990 C   0  0  0  0  0  0  0  0  0  0  0  0
  -24.0459  -13.0074   20.9558 C   0  0  0  0  0  0  0  0  0  0  0  0
  -27.9087  -32.2230   17.0665 C   0  0  0  0  0  0  0  0  0  0  0  0
  -24.1706  -27.3847   21.1283 C   0  0  0  0  0  0  0  0  0  0  0  0
  -27.6378  -30.9518   17.6079 C   0  0  0  0  0  0  0  0  0  0  0  0
  -28.2952  -19.8927   22.4871 C   0  0  0  0  0  0  0  0  0  0  0  0
  -24.7144  -27.1684   22.4025 C   0  0  0  0  0  0  0  0  0  0  0  0
  -29.4122  -18.6025   20.7636 C   0  0  0  0  0  0  0  0  0  0  0  0
  -27.6057  -20.6285   21.5037 C   0  0  0  0  0  0  0  0  0  0  0  0
  -22.4533   -8.8418   23.6365 C   0  0  0  0  0  0  0  0  0  0  0  0
  -24.5429  -24.7685   22.0549 C   0  0  0  0  0  0  0  0  0  0  0  0
  -21.9659   -6.5684   23.9775 C   0  0  0  0  0  0  0  0  0  0  0  0
  -22.3509   -3.9028   23.2500 C   0  0  0  0  0  0  0  0  0  0  0  0
  -20.8829   -5.7972   23.5558 C   0  0  0  0  0  0  0  0  0  0  0  0
  -24.5569  -11.7952   21.4571 C   0  0  0  0  0  0  0  0  0  0  0  0
  -25.1171  -13.6003   20.3333 C   0  0  0  0  0  0  0  0  0  0  0  0
  -22.7214  -13.5490   21.0449 C   0  0  0  0  0  0  0  0  0  0  0  0
  -26.2458  -29.7727   20.8212 C   0  0  0  0  0  0  0  0  0  0  0  0
  -24.8667  -30.8079   23.5687 C   0  0  0  0  0  0  0  0  0  0  0  0
  -23.1233  -30.0449   26.4016 C   0  0  0  0  0  0  0  0  0  0  0  0
  -30.5065  -15.0469   20.2472 C   0  0  0  0  0  0  0  0  0  0  0  0
  -28.4412  -33.3499   17.9157 C   0  0  0  0  0  0  0  0  0  0  0  0
  -23.9349  -28.7835   20.6281 C   0  0  0  0  0  0  0  0  0  0  0  0
  -28.0473  -20.1646   23.9491 C   0  0  0  0  0  0  0  0  0  0  0  0
  -25.1113  -28.3112   23.2997 C   0  0  0  0  0  0  0  0  0  0  0  0
  -28.2383  -33.1326   19.4130 C   0  0  0  0  0  0  0  0  0  0  0  0
  -27.5069  -21.5769   24.1669 C   0  0  0  0  0  0  0  0  0  0  0  0
  -29.6806  -11.7567   19.1660 C   0  0  0  0  0  0  0  0  0  0  0  0
  -28.6485  -31.7174   19.8075 C   0  0  0  0  0  0  0  0  0  0  0  0
  -28.2347  -11.5715   19.6297 C   0  0  0  0  0  0  0  0  0  0  0  0
  -30.4949  -12.5710   20.1688 C   0  0  0  0  0  0  0  0  0  0  0  0
  -28.4600  -13.6879   20.9966 C   0  0  0  0  0  0  0  0  0  0  0  0
  -27.7873  -30.6725   19.0877 C   0  0  1  0  0  0  0  0  0  0  0  0
  -24.8251  -29.8192   21.3081 C   0  0  1  0  0  0  0  0  0  0  0  0
  -27.5845  -12.9205   19.9911 C   0  0  2  0  0  0  0  0  0  0  0  0
  -26.3265  -21.8534   23.2302 C   0  0  1  0  0  0  0  0  0  0  0  0
  -22.1758  -31.0951   28.4744 C   0  0  0  0  0  0  0  0  0  0  0  0
  -27.6665  -30.9516   24.7728 C   0  0  0  0  0  0  0  0  0  0  0  0
  -26.6100  -31.0695   27.0395 C   0  0  0  0  0  0  0  0  0  0  0  0
  -26.1754  -32.8691   25.3677 C   0  0  0  0  0  0  0  0  0  0  0  0
  -20.3624  -29.2655   25.6744 C   0  0  0  0  0  0  0  0  0  0  0  0
  -30.3612  -17.5213   20.3711 C   0  0  0  0  0  0  0  0  0  0  0  0
  -25.8188  -23.2812   23.4025 C   0  0  0  0  0  0  0  0  0  1  0  0
  -25.1237  -30.5934   25.0407 C   0  0  1  0  0  0  0  0  0  0  0  0
  -21.9018  -30.6852   27.0358 C   0  0  2  0  0  0  0  0  0  0  0  0
  -26.3883  -31.3491   25.5377 C   0  0  0  0  0  0  0  0  0  0  0  0
  -25.8520  -11.6265   21.1771 N   0  0  0  0  0  0  0  0  0  0  0  0
  -26.1638  -12.7405   20.4931 N   0  0  0  0  0  0  0  0  0  0  0  0
  -26.7247  -21.6482   21.8448 N   0  0  0  0  0  0  0  0  0  0  0  0
  -24.8670  -29.6603   22.7632 N   0  0  0  0  0  0  0  0  0  0  0  0
  -29.8246  -13.8388   20.4676 N   0  0  0  0  0  0  0  0  0  0  0  0
  -25.2564  -14.7680   19.6703 N   0  0  0  0  0  0  0  0  0  0  0  0
  -21.7410  -12.8091   21.7200 N   0  0  0  0  0  0  0  0  0  0  0  0
  -26.4884  -30.5676   19.7172 N   0  0  0  0  0  0  0  0  0  0  0  0
  -23.8937  -30.9698   25.7290 N   0  0  0  0  0  0  0  0  0  0  0  0
  -29.7966  -16.2023   20.5505 N   0  0  0  0  0  0  0  0  0  0  0  0
  -20.7553  -29.7332   27.0286 N   0  3  0  0  0  0  0  0  0  0  0  0
  -22.4122  -14.6487   20.5267 O   0  0  0  0  0  0  0  0  0  0  0  0
  -27.0618  -29.0690   21.4048 O   0  0  0  0  0  0  0  0  0  0  0  0
  -24.6656  -31.9507   23.1501 O   0  0  0  0  0  0  0  0  0  0  0  0
  -23.3715  -28.8449   26.4968 O   0  0  0  0  0  0  0  0  0  0  0  0
  -31.6603  -15.0927   19.8074 O   0  0  0  0  0  0  0  0  0  0  0  0
  -21.7766   -7.8919   24.3382 O   0  0  0  0  0  0  0  0  0  0  0  0
  -24.7296  -23.4984   22.5065 O   0  0  0  0  0  0  0  0  0  1  0  0
  -22.5361   -2.6234   22.8993 F   0  0  0  0  0  0  0  0  0  0  0  0
  -19.6553   -6.3314   23.4969 F   0  0  0  0  0  0  0  0  0  0  0  0
  1  2  1  0  0  0  0
  1  5  2  0  0  0  0
  2  6  2  0  0  0  0
  3 10  2  0  0  0  0
  3 18  1  0  0  0  0
  4 11  1  0  0  0  0
  4 18  2  0  0  0  0
  5 20  1  0  0  0  0
  6 22  1  0  0  0  0
  7 12  2  0  0  0  0
  7 21  1  0  0  0  0
  8  9  2  0  0  0  0
  8 25  1  0  0  0  0
  9 26  1  0  0  0  0
 10 27  1  0  0  0  0
 11 27  2  0  0  0  0
 12 28  1  0  0  0  0
 13 14  2  0  0  0  0
 13 29  1  0  0  0  0
 14 30  1  0  0  0  0
 15 23  1  0  0  0  0
 15 25  2  0  0  0  0
 16 24  1  0  0  0  0
 16 28  2  0  0  0  0
 17 30  2  0  0  0  0
 17 31  1  0  0  0  0
 18 32  1  0  0  0  0
 19 32  1  0  0  0  0
 19 33  2  0  0  0  0
 19 34  1  0  0  0  0
 20 22  2  0  0  0  0
 20 39  1  0  0  0  0
 21 24  2  0  0  0  0
 21 40  1  0  0  0  0
 22 50  1  0  0  0  0
 23 26  2  0  0  0  0
 23 41  1  0  0  0  0
 24 42  1  0  0  0  0
 25 59  1  0  0  0  0
 26 66  1  0  0  0  0
 27 80  1  0  0  0  0
 28 81  1  0  0  0  0
 29 31  2  0  0  0  0
 29 80  1  0  0  0  0
 30 82  1  0  0  0  0
 31 83  1  0  0  0  0
 32 64  2  0  0  0  0
 33 65  1  0  0  0  0
 33 69  1  0  0  0  0
 34 70  1  0  0  0  0
 34 75  2  0  0  0  0
 35 51  1  0  0  0  0
 35 71  1  0  0  0  0
 35 76  2  0  0  0  0
 36 61  1  0  0  0  0
 36 67  1  0  0  0  0
 36 77  2  0  0  0  0
 37 62  1  0  0  0  0
 37 72  1  0  0  0  0
 37 78  2  0  0  0  0
 38 68  1  0  0  0  0
 38 73  1  0  0  0  0
 38 79  2  0  0  0  0
 39 43  1  0  0  0  0
 40 51  1  0  0  0  0
 41 44  1  0  0  0  0
 42 67  1  0  0  0  0
 43 46  1  0  0  0  0
 44 53  1  0  0  0  0
 45 47  1  0  0  0  0
 45 48  1  0  0  0  0
 46 50  1  0  0  0  0
 47 52  1  0  0  0  0
 48 68  1  0  0  0  0
 49 52  1  0  0  0  0
 49 68  1  0  0  0  0
 50 71  1  0  0  0  0
 51 67  1  0  0  0  0
 52 65  1  0  0  0  0
 53 60  1  0  0  0  0
 53 66  1  0  0  0  0
 54 62  1  0  0  0  0
 55 63  1  0  0  0  0
 56 63  1  0  0  0  0
 57 63  1  0  0  0  0
 58 74  1  0  0  0  0
 59 73  1  0  0  0  0
 60 81  1  0  0  0  0
 61 63  1  0  0  0  0
 61 72  1  0  0  0  0
 62 74  1  0  0  0  0
 64 65  1  0  0  0  0
M  CHG  1  74   1
M  ISO  4  38 100  60 101  73 100  81 101
M  END
> <Batch ID>
0112

> <Smiles>
CNC(C)C(=O)NC(C(=O)N1Cc2cc([101O:1][101CH2:1]C3CCc4cc(C[100NH:0][100C:0](=O)N5CCCC(n6nc(-c7ccc(Oc8ccc(F)cc8F)cc7)c(C(N)=O)c6N)C5)ccc4N3)ccc2CC1C(=O)NC1CCCc2ccccc21)C(C)(C)C

> <Shape>
0.267

> <Color>
0.164

> <Negative vol penalty>
0.000

$$$$

  -OEChem-04052320033D

 85 92  0     1  0  0  0  0  0999 V2000
  -27.3479  -20.0472   12.3878 C   0  0  0  0  0  0  0  0  0  0  0  0
  -27.0131  -18.8224   12.9562 C   0  0  0  0  0  0  0  0  0  0  0  0
  -26.4457  -27.9375   18.6494 C   0  0  0  0  0  0  0  0  0  0  0  0
  -26.4473  -27.6021   21.0420 C   0  0  0  0  0  0  0  0  0  0  0  0
  -28.2865  -20.8697   13.0096 C   0  0  0  0  0  0  0  0  0  0  0  0
  -27.6175  -18.4187   14.1462 C   0  0  0  0  0  0  0  0  0  0  0  0
  -25.0602  -15.1513   18.6506 C   0  0  0  0  0  0  0  0  0  0  0  0
  -26.1105  -29.2783   18.8375 C   0  0  0  0  0  0  0  0  0  0  0  0
  -26.1121  -28.9430   21.2301 C   0  0  0  0  0  0  0  0  0  0  0  0
  -25.1098  -13.7952   18.9704 C   0  0  0  0  0  0  0  0  0  0  0  0
  -23.3373  -30.8662   21.0501 C   0  0  0  0  0  0  0  0  0  0  0  0
  -22.3332  -31.1599   21.9726 C   0  0  0  0  0  0  0  0  0  0  0  0
  -26.8835  -14.2376   20.5445 C   0  0  0  0  0  0  0  0  0  0  0  0
  -23.8967  -32.4839   23.2530 C   0  0  0  0  0  0  0  0  0  0  0  0
  -26.6140  -27.0993   19.7516 C   0  0  0  0  0  0  0  0  0  0  0  0
  -28.2530  -25.1635   19.4800 C   0  0  0  0  0  0  0  0  0  0  0  0
  -28.8956  -20.4802   14.2129 C   0  0  0  0  0  0  0  0  0  0  0  0
  -25.9307  -16.0607   19.2685 C   0  0  0  0  0  0  0  0  0  0  0  0
  -28.5661  -19.2361   14.7840 C   0  0  0  0  0  0  0  0  0  0  0  0
  -26.8411  -15.6051   20.2327 C   0  0  0  0  0  0  0  0  0  0  0  0
  -25.9437  -29.7811   20.1279 C   0  0  0  0  0  0  0  0  0  0  0  0
  -26.0235  -13.3377   19.9154 C   0  0  0  0  0  0  0  0  0  0  0  0
  -24.6212  -31.3813   21.2290 C   0  0  0  0  0  0  0  0  0  0  0  0
  -22.6128  -31.9687   23.0740 C   0  0  0  0  0  0  0  0  0  0  0  0
  -24.9009  -32.1901   22.3305 C   0  0  0  0  0  0  0  0  0  0  0  0
  -26.9597  -25.7140   19.5579 C   0  0  0  0  0  0  0  0  0  0  0  0
  -28.0432  -23.8191   19.2926 C   0  0  0  0  0  0  0  0  0  0  0  0
  -29.5299  -25.8095   19.5693 C   0  0  0  0  0  0  0  0  0  0  0  0
  -28.2248  -18.0130   18.2539 C   0  0  0  0  0  0  0  0  0  0  0  0
  -28.2179  -18.9955   21.3453 C   0  0  0  0  0  0  0  0  0  0  0  0
  -22.3449  -14.2977   21.6180 C   0  0  0  0  0  0  0  0  0  0  0  0
  -27.5125  -18.2881   24.6086 C   0  0  0  0  0  0  0  0  0  0  0  0
  -23.5366  -20.2992   20.7610 C   0  0  0  0  0  0  0  0  0  0  0  0
  -29.9393  -21.3817   14.8232 C   0  0  0  0  0  0  0  0  0  0  0  0
  -25.8463  -17.5243   18.9320 C   0  0  0  0  0  0  0  0  0  0  0  0
  -27.7835  -16.5435   20.9395 C   0  0  0  0  0  0  0  0  0  0  0  0
  -30.2569  -21.0479   16.2786 C   0  0  0  0  0  0  0  0  0  0  0  0
  -24.8810  -20.7464   17.4308 C   0  0  0  0  0  0  0  0  0  0  0  0
  -30.4565  -19.5454   16.4503 C   0  0  0  0  0  0  0  0  0  0  0  0
  -25.6947  -22.0305   17.6012 C   0  0  0  0  0  0  0  0  0  0  0  0
  -23.5902  -20.7980   18.2428 C   0  0  0  0  0  0  0  0  0  0  0  0
  -24.5992  -22.3523   19.8675 C   0  0  0  0  0  0  0  0  0  0  0  0
  -29.1817  -18.7744   16.0870 C   0  0  1  0  0  0  0  0  0  0  0  0
  -27.1306  -18.2849   19.2472 C   0  0  1  0  0  0  0  0  0  0  0  0
  -25.9274  -22.3531   19.0891 C   0  0  2  0  0  0  0  0  0  0  0  0
  -24.9038   -9.8564   18.7676 C   0  0  0  0  0  0  0  0  0  0  0  0
  -27.6513  -19.2734   26.9123 C   0  0  0  0  0  0  0  0  0  0  0  0
  -26.0299  -10.8495   22.9797 C   0  0  0  0  0  0  0  0  0  0  0  0
  -21.0629  -18.6125   22.0358 C   0  0  0  0  0  0  0  0  0  0  0  0
  -31.2204  -18.4547   21.3931 C   0  0  0  0  0  0  0  0  0  0  0  0
  -31.1240  -18.5320   23.8937 C   0  0  0  0  0  0  0  0  0  0  0  0
  -30.5195  -20.5521   22.5610 C   0  0  0  0  0  0  0  0  0  0  0  0
  -24.5784  -18.1501   24.9703 C   0  0  0  0  0  0  0  0  0  0  0  0
  -22.4467  -15.7245   22.1307 C   0  0  0  0  0  0  0  0  0  0  0  0
  -24.8194   -9.9694   20.2860 C   0  0  0  0  0  0  0  0  0  0  0  0
  -22.4050  -16.7545   20.9994 C   0  0  0  0  0  0  0  0  0  0  0  0
  -23.5458  -11.2187   22.9778 C   0  0  0  0  0  0  0  0  0  0  0  0
  -22.3123  -11.9502   22.4540 C   0  0  0  0  0  0  0  0  0  0  0  0
  -28.9423  -18.5766   22.6019 C   0  0  1  0  0  0  0  0  0  0  0  0
  -26.7847  -19.0836   25.6772 C   0  0  2  0  0  0  0  0  0  0  0  0
  -24.8785  -11.6053   22.2992 C   0  0  2  0  0  0  0  0  0  0  0  0
  -22.4360  -18.2042   21.5070 C   0  0  1  0  0  0  0  0  0  0  0  0
  -24.8879  -11.4268   20.7607 C   0  0  1  0  0  0  0  0  0  1  0  0
  -30.4353  -19.0106   22.5979 C   0  0  0  0  0  0  0  0  0  0  0  0
  -25.9994  -24.7946   19.4301 N   0  0  0  0  0  0  0  0  0  0  0  0
  -26.6897  -23.6527   19.2700 N   0  0  0  0  0  0  0  0  0  0  0  0
  -27.6668  -17.9643   20.5715 N   0  0  0  0  0  0  0  0  0  0  0  0
  -23.8830  -21.0904   19.6531 N   0  0  0  0  0  0  0  0  0  0  0  0
  -28.8862  -22.7750   19.1463 N   0  0  0  0  0  0  0  0  0  0  0  0
  -29.5645  -27.1972   19.7630 N   0  0  0  0  0  0  0  0  0  0  0  0
  -28.2161  -18.8594   17.1617 N   0  0  0  0  0  0  0  0  0  0  0  0
  -22.3839  -13.3709   22.6560 N   0  0  0  0  0  0  0  0  0  0  0  0
  -28.1677  -19.1107   23.7168 N   0  0  0  0  0  0  0  0  0  0  0  0
  -22.8539  -19.1239   20.4724 N   0  0  0  0  0  0  0  0  0  0  0  0
  -25.5343  -18.3820   26.0836 N   0  3  0  0  0  0  0  0  0  0  0  0
  -30.6082  -25.1773   19.4635 O   0  0  0  0  0  0  0  0  0  0  0  0
  -29.0190  -17.1036   18.4637 O   0  0  0  0  0  0  0  0  0  0  0  0
  -28.1376  -20.1940   21.0646 O   0  0  0  0  0  0  0  0  0  0  0  0
  -22.2464  -14.0171   20.4266 O   0  0  0  0  0  0  0  0  0  0  0  0
  -27.5040  -17.0596   24.5711 O   0  0  0  0  0  0  0  0  0  0  0  0
  -23.8196  -20.6143   21.9219 O   0  0  0  0  0  0  0  0  0  0  0  0
  -25.6168  -31.0894   20.3119 O   0  0  0  0  0  0  0  0  0  0  0  0
  -26.0746  -12.0145   20.2289 O   0  0  0  0  0  0  0  0  0  1  0  0
  -21.6481  -32.2519   23.9590 F   0  0  0  0  0  0  0  0  0  0  0  0
  -26.1321  -32.6888   22.5071 F   0  0  0  0  0  0  0  0  0  0  0  0
  1  2  1  0  0  0  0
  1  5  2  0  0  0  0
  2  6  2  0  0  0  0
  3  8  2  0  0  0  0
  3 15  1  0  0  0  0
  4  9  1  0  0  0  0
  4 15  2  0  0  0  0
  5 17  1  0  0  0  0
  6 19  1  0  0  0  0
  7 10  2  0  0  0  0
  7 18  1  0  0  0  0
  8 21  1  0  0  0  0
  9 21  2  0  0  0  0
 10 22  1  0  0  0  0
 11 12  2  0  0  0  0
 11 23  1  0  0  0  0
 12 24  1  0  0  0  0
 13 20  1  0  0  0  0
 13 22  2  0  0  0  0
 14 24  2  0  0  0  0
 14 25  1  0  0  0  0
 15 26  1  0  0  0  0
 16 26  1  0  0  0  0
 16 27  2  0  0  0  0
 16 28  1  0  0  0  0
 17 19  2  0  0  0  0
 17 34  1  0  0  0  0
 18 20  2  0  0  0  0
 18 35  1  0  0  0  0
 19 43  1  0  0  0  0
 20 36  1  0  0  0  0
 21 82  1  0  0  0  0
 22 83  1  0  0  0  0
 23 25  2  0  0  0  0
 23 82  1  0  0  0  0
 24 84  1  0  0  0  0
 25 85  1  0  0  0  0
 26 65  2  0  0  0  0
 27 66  1  0  0  0  0
 27 69  1  0  0  0  0
 28 70  1  0  0  0  0
 28 76  2  0  0  0  0
 29 44  1  0  0  0  0
 29 71  1  0  0  0  0
 29 77  2  0  0  0  0
 30 59  1  0  0  0  0
 30 67  1  0  0  0  0
 30 78  2  0  0  0  0
 31 54  1  0  0  0  0
 31 72  1  0  0  0  0
 31 79  2  0  0  0  0
 32 60  1  0  0  0  0
 32 73  1  0  0  0  0
 32 80  2  0  0  0  0
 33 68  1  0  0  0  0
 33 74  1  0  0  0  0
 33 81  2  0  0  0  0
 34 37  1  0  0  0  0
 35 44  1  0  0  0  0
 36 67  1  0  0  0  0
 37 39  1  0  0  0  0
 38 40  1  0  0  0  0
 38 41  1  0  0  0  0
 39 43  1  0  0  0  0
 40 45  1  0  0  0  0
 41 68  1  0  0  0  0
 42 45  1  0  0  0  0
 42 68  1  0  0  0  0
 43 71  1  0  0  0  0
 44 67  1  0  0  0  0
 45 66  1  0  0  0  0
 46 55  1  0  0  0  0
 47 60  1  0  0  0  0
 48 61  1  0  0  0  0
 49 62  1  0  0  0  0
 50 64  1  0  0  0  0
 51 64  1  0  0  0  0
 52 64  1  0  0  0  0
 53 75  1  0  0  0  0
 54 56  1  0  0  0  0
 55 63  1  0  0  0  0
 56 62  1  0  0  0  0
 57 58  1  0  0  0  0
 57 61  1  0  0  0  0
 58 72  1  0  0  0  0
 59 64  1  0  0  0  0
 59 73  1  0  0  0  0
 60 75  1  0  0  0  0
 61 63  1  0  0  0  0
 62 74  1  0  0  0  0
 63 83  1  0  0  0  0
 65 66  1  0  0  0  0
M  CHG  1  75   1
M  ISO  4  33 100  63 101  74 100  83 101
M  END
> <Batch ID>
0112

> <Smiles>
CC[101CH:1](C(C)CCNC(=O)CCC(C)[100NH:0][100C:0](=O)N1CCCC(n2nc(-c3ccc(Oc4ccc(F)cc4F)cc3)c(C(N)=O)c2N)C1)[101O:1]c1ccc2c(c1)CN(C(=O)C(NC(=O)C(C)NC)C(C)(C)C)C(C(=O)NC1CCCc3ccccc31)C2

> <Shape>
0.187

> <Color>
0.089

> <Negative vol penalty>
0.000

$$$$

  -OEChem-04052320033D

 86 95  0     1  0  0  0  0  0999 V2000
  -17.4952  -25.8798   21.9636 C   0  0  0  0  0  0  0  0  0  0  0  0
  -18.7901  -25.3729   21.9238 C   0  0  0  0  0  0  0  0  0  0  0  0
  -23.5101   -9.5848   20.3722 C   0  0  0  0  0  0  0  0  0  0  0  0
  -23.8951  -10.1991   22.6768 C   0  0  0  0  0  0  0  0  0  0  0  0
  -17.2842  -27.2285   22.2474 C   0  0  0  0  0  0  0  0  0  0  0  0
  -19.8750  -26.2146   22.1666 C   0  0  0  0  0  0  0  0  0  0  0  0
  -23.2917  -24.1338   25.2716 C   0  0  0  0  0  0  0  0  0  0  0  0
  -22.8801   -8.4125   20.7899 C   0  0  0  0  0  0  0  0  0  0  0  0
  -23.2650   -9.0269   23.0946 C   0  0  0  0  0  0  0  0  0  0  0  0
  -24.1574  -23.1881   24.7237 C   0  0  0  0  0  0  0  0  0  0  0  0
  -23.7939   -5.3605   21.9190 C   0  0  0  0  0  0  0  0  0  0  0  0
  -24.1300   -4.1761   21.2635 C   0  0  0  0  0  0  0  0  0  0  0  0
  -25.8790  -24.8696   24.5570 C   0  0  0  0  0  0  0  0  0  0  0  0
  -27.2062  -20.5638   21.7496 C   0  0  0  0  0  0  0  0  0  0  0  0
  -21.8275   -3.8973   20.5867 C   0  0  0  0  0  0  0  0  0  0  0  0
  -24.0177  -10.4781   21.3156 C   0  0  0  0  0  0  0  0  0  0  0  0
  -24.0685  -12.9406   20.6516 C   0  0  0  0  0  0  0  0  0  0  0  0
  -18.3665  -28.0851   22.5034 C   0  0  0  0  0  0  0  0  0  0  0  0
  -23.7104  -25.4593   25.4565 C   0  0  0  0  0  0  0  0  0  0  0  0
  -19.6783  -27.5763   22.4528 C   0  0  0  0  0  0  0  0  0  0  0  0
  -25.0176  -25.8295   25.1098 C   0  0  0  0  0  0  0  0  0  0  0  0
  -28.2153  -19.7472   21.2512 C   0  0  0  0  0  0  0  0  0  0  0  0
  -28.8564  -18.8490   22.0971 C   0  0  0  0  0  0  0  0  0  0  0  0
  -22.7575   -8.1336   22.1511 C   0  0  0  0  0  0  0  0  0  0  0  0
  -25.4503  -23.5566   24.3637 C   0  0  0  0  0  0  0  0  0  0  0  0
  -22.4746   -5.8134   21.9084 C   0  0  0  0  0  0  0  0  0  0  0  0
  -23.1468   -3.4445   20.5973 C   0  0  0  0  0  0  0  0  0  0  0  0
  -21.4914   -5.0818   21.2423 C   0  0  0  0  0  0  0  0  0  0  0  0
  -24.6691  -11.6889   20.8848 C   0  0  0  0  0  0  0  0  0  0  0  0
  -28.4547  -18.8063   23.4224 C   0  0  0  0  0  0  0  0  0  0  0  0
  -26.8782  -20.4442   23.0904 C   0  0  0  0  0  0  0  0  0  0  0  0
  -25.1061  -13.7522   20.2628 C   0  0  0  0  0  0  0  0  0  0  0  0
  -22.6955  -13.3345   20.7755 C   0  0  0  0  0  0  0  0  0  0  0  0
  -22.7810  -28.2829   24.3309 C   0  0  0  0  0  0  0  0  0  0  0  0
  -24.9584  -29.4093   26.4551 C   0  0  0  0  0  0  0  0  0  0  0  0
  -27.7722  -28.8359   28.2991 C   0  0  0  0  0  0  0  0  0  0  0  0
  -30.3303  -15.6113   20.8932 C   0  0  0  0  0  0  0  0  0  0  0  0
  -18.0914  -29.5458   22.7590 C   0  0  0  0  0  0  0  0  0  0  0  0
  -22.7732  -26.4610   26.0735 C   0  0  0  0  0  0  0  0  0  0  0  0
  -25.5224  -27.2348   25.3067 C   0  0  0  0  0  0  0  0  0  0  0  0
  -19.2741  -30.2898   23.3738 C   0  0  0  0  0  0  0  0  0  0  0  0
  -28.2277  -17.0274   26.5245 C   0  0  0  0  0  0  0  0  0  0  0  0
  -29.8750  -12.6255   19.0078 C   0  0  0  0  0  0  0  0  0  0  0  0
  -20.5629  -29.9493   22.6323 C   0  0  0  0  0  0  0  0  0  0  0  0
  -28.1454  -16.8208   25.0157 C   0  0  0  0  0  0  0  0  0  0  0  0
  -29.6249  -17.5826   26.7430 C   0  0  0  0  0  0  0  0  0  0  0  0
  -28.4333  -12.2160   19.3138 C   0  0  0  0  0  0  0  0  0  0  0  0
  -30.5595  -13.2359   20.2288 C   0  0  0  0  0  0  0  0  0  0  0  0
  -28.3903  -13.9488   21.1561 C   0  0  0  0  0  0  0  0  0  0  0  0
  -20.8795  -28.4524   22.7351 C   0  0  1  0  0  0  0  0  0  0  0  0
  -29.1150  -17.8486   24.3912 C   0  0  2  0  0  0  0  0  0  0  0  0
  -23.1379  -27.9044   25.7405 C   0  0  1  0  0  0  0  0  0  0  0  0
  -29.7784  -18.5703   25.5880 C   0  0  2  0  0  0  0  0  0  0  0  0
  -27.6407  -13.3794   19.9395 C   0  0  2  0  0  0  0  0  0  0  0  0
  -28.5909  -19.8536   19.8100 C   0  0  0  0  0  0  0  0  0  0  0  0
  -31.2304  -18.9490   25.3309 C   0  0  0  0  0  0  0  0  0  0  0  0
  -29.3341  -29.9587   29.9106 C   0  0  0  0  0  0  0  0  0  0  0  0
  -26.2237  -30.9546   24.1483 C   0  0  0  0  0  0  0  0  0  0  0  0
  -28.2619  -31.2681   25.5681 C   0  0  0  0  0  0  0  0  0  0  0  0
  -26.0765  -32.2242   26.2980 C   0  0  0  0  0  0  0  0  0  0  0  0
  -27.1644  -26.8772   30.4329 C   0  0  0  0  0  0  0  0  0  0  0  0
  -29.9431  -17.9614   21.5905 C   0  0  0  0  0  0  0  0  0  0  0  0
  -25.7949  -21.3102   23.6630 C   0  0  0  0  0  0  0  0  0  1  0  0
  -26.4342  -29.7238   26.4082 C   0  0  1  0  0  0  0  0  0  0  0  0
  -28.0897  -29.0976   29.7603 C   0  0  2  0  0  0  0  0  0  0  0  0
  -26.7392  -31.0166   25.6000 C   0  0  0  0  0  0  0  0  0  0  0  0
  -25.9861  -11.6995   20.6625 N   0  0  0  0  0  0  0  0  0  0  0  0
  -27.4786  -19.5836   23.9428 N   0  0  0  0  0  0  0  0  0  0  0  0
  -26.2216  -12.9677   20.2855 N   0  0  0  0  0  0  0  0  0  0  0  0
  -24.5664  -28.1795   25.9077 N   0  0  0  0  0  0  0  0  0  0  0  0
  -29.7576  -14.3343   20.7732 N   0  0  0  0  0  0  0  0  0  0  0  0
  -25.1641  -15.0532   19.9071 N   0  0  0  0  0  0  0  0  0  0  0  0
  -21.7598  -12.3755   21.1867 N   0  0  0  0  0  0  0  0  0  0  0  0
  -21.4389  -28.1422   24.0332 N   0  0  0  0  0  0  0  0  0  0  0  0
  -26.8871  -29.7649   27.7944 N   0  0  0  0  0  0  0  0  0  0  0  0
  -29.4996  -16.5967   21.4125 N   0  0  0  0  0  0  0  0  0  0  0  0
  -28.3179  -27.8123   30.4791 N   0  3  0  0  0  0  0  0  0  0  0  0
  -22.3072  -14.4981   20.5131 O   0  0  0  0  0  0  0  0  0  0  0  0
  -23.6579  -28.6751   23.5701 O   0  0  0  0  0  0  0  0  0  0  0  0
  -24.1829  -30.2217   26.9653 O   0  0  0  0  0  0  0  0  0  0  0  0
  -28.2634  -27.9030   27.6675 O   0  0  0  0  0  0  0  0  0  0  0  0
  -31.4939  -15.8563   20.5572 O   0  0  0  0  0  0  0  0  0  0  0  0
  -22.1426   -6.9899   22.5590 O   0  0  0  0  0  0  0  0  0  0  0  0
  -26.2970  -22.6357   23.8281 O   0  0  0  0  0  0  0  0  0  1  0  0
  -23.4700   -2.3079   19.9666 F   0  0  0  0  0  0  0  0  0  0  0  0
  -20.2225   -5.5124   21.2276 F   0  0  0  0  0  0  0  0  0  0  0  0
  1  2  1  0  0  0  0
  1  5  2  0  0  0  0
  2  6  2  0  0  0  0
  3  8  2  0  0  0  0
  3 16  1  0  0  0  0
  4  9  1  0  0  0  0
  4 16  2  0  0  0  0
  5 18  1  0  0  0  0
  6 20  1  0  0  0  0
  7 10  2  0  0  0  0
  7 19  1  0  0  0  0
  8 24  1  0  0  0  0
  9 24  2  0  0  0  0
 10 25  1  0  0  0  0
 11 12  2  0  0  0  0
 11 26  1  0  0  0  0
 12 27  1  0  0  0  0
 13 21  1  0  0  0  0
 13 25  2  0  0  0  0
 14 22  2  0  0  0  0
 14 31  1  0  0  0  0
 15 27  2  0  0  0  0
 15 28  1  0  0  0  0
 16 29  1  0  0  0  0
 17 29  1  0  0  0  0
 17 32  2  0  0  0  0
 17 33  1  0  0  0  0
 18 20  2  0  0  0  0
 18 38  1  0  0  0  0
 19 21  2  0  0  0  0
 19 39  1  0  0  0  0
 20 50  1  0  0  0  0
 21 40  1  0  0  0  0
 22 23  1  0  0  0  0
 22 55  1  0  0  0  0
 23 30  2  0  0  0  0
 23 62  1  0  0  0  0
 24 83  1  0  0  0  0
 25 84  1  0  0  0  0
 26 28  2  0  0  0  0
 26 83  1  0  0  0  0
 27 85  1  0  0  0  0
 28 86  1  0  0  0  0
 29 67  2  0  0  0  0
 30 51  1  0  0  0  0
 30 68  1  0  0  0  0
 31 63  1  0  0  0  0
 31 68  2  0  0  0  0
 32 69  1  0  0  0  0
 32 72  1  0  0  0  0
 33 73  1  0  0  0  0
 33 78  2  0  0  0  0
 34 52  1  0  0  0  0
 34 74  1  0  0  0  0
 34 79  2  0  0  0  0
 35 64  1  0  0  0  0
 35 70  1  0  0  0  0
 35 80  2  0  0  0  0
 36 65  1  0  0  0  0
 36 75  1  0  0  0  0
 36 81  2  0  0  0  0
 37 71  1  0  0  0  0
 37 76  1  0  0  0  0
 37 82  2  0  0  0  0
 38 41  1  0  0  0  0
 39 52  1  0  0  0  0
 40 70  1  0  0  0  0
 41 44  1  0  0  0  0
 42 45  1  0  0  0  0
 42 46  1  0  0  0  0
 43 47  1  0  0  0  0
 43 48  1  0  0  0  0
 44 50  1  0  0  0  0
 45 51  1  0  0  0  0
 46 53  1  0  0  0  0
 47 54  1  0  0  0  0
 48 71  1  0  0  0  0
 49 54  1  0  0  0  0
 49 71  1  0  0  0  0
 50 74  1  0  0  0  0
 51 53  1  0  0  0  0
 52 70  1  0  0  0  0
 53 56  1  0  0  0  0
 54 69  1  0  0  0  0
 57 65  1  0  0  0  0
 58 66  1  0  0  0  0
 59 66  1  0  0  0  0
 60 66  1  0  0  0  0
 61 77  1  0  0  0  0
 62 76  1  0  0  0  0
 63 84  1  0  0  0  0
 64 66  1  0  0  0  0
 64 75  1  0  0  0  0
 65 77  1  0  0  0  0
 67 69  1  0  0  0  0
M  CHG  1  77   1
M  ISO  4  37 100  63 101  76 100  84 101
M  END
> <Batch ID>
0112

> <Smiles>
CNC(C)C(=O)NC(C(=O)N1Cc2cc([101O:1][101CH2:1]c3cc(C)c(C[100NH:0][100C:0](=O)N4CCCC(n5nc(-c6ccc(Oc7ccc(F)cc7F)cc6)c(C(N)=O)c5N)C4)c(C4CCCC4C)n3)ccc2CC1C(=O)NC1CCCc2ccccc21)C(C)(C)C

> <Shape>
0.276

> <Color>
0.185

> <Negative vol penalty>
0.000

$$$$

  -OEChem-04052320033D

 85 93  0     1  0  0  0  0  0999 V2000
  -28.9013  -11.0578   19.8431 C   0  0  0  0  0  0  0  0  0  0  0  0
  -29.0385  -12.4073   19.5341 C   0  0  0  0  0  0  0  0  0  0  0  0
  -20.4024  -28.0020   23.0962 C   0  0  0  0  0  0  0  0  0  0  0  0
  -22.2130  -26.4148   22.8969 C   0  0  0  0  0  0  0  0  0  0  0  0
  -27.6513  -10.5467   20.1896 C   0  0  0  0  0  0  0  0  0  0  0  0
  -27.9253  -13.2463   19.5704 C   0  0  0  0  0  0  0  0  0  0  0  0
  -28.8842  -17.6474   21.8847 C   0  0  0  0  0  0  0  0  0  0  0  0
  -19.5512  -27.1134   22.4393 C   0  0  0  0  0  0  0  0  0  0  0  0
  -21.3618  -25.5262   22.2401 C   0  0  0  0  0  0  0  0  0  0  0  0
  -29.5785  -18.6120   21.1559 C   0  0  0  0  0  0  0  0  0  0  0  0
  -16.8079  -25.1162   21.1353 C   0  0  0  0  0  0  0  0  0  0  0  0
  -15.5330  -24.9258   21.6680 C   0  0  0  0  0  0  0  0  0  0  0  0
  -27.4998  -19.7395   20.6794 C   0  0  0  0  0  0  0  0  0  0  0  0
  -30.5446  -28.0919   21.8735 C   0  0  0  0  0  0  0  0  0  0  0  0
  -29.6906  -28.8206   19.7342 C   0  0  0  0  0  0  0  0  0  0  0  0
  -16.5127  -24.1387   23.7315 C   0  0  0  0  0  0  0  0  0  0  0  0
  -21.7334  -27.6527   23.3249 C   0  0  0  0  0  0  0  0  0  0  0  0
  -22.8444  -28.6598   25.3886 C   0  0  0  0  0  0  0  0  0  0  0  0
  -26.5240  -11.3819   20.2395 C   0  0  0  0  0  0  0  0  0  0  0  0
  -27.4890  -17.7156   22.0074 C   0  0  0  0  0  0  0  0  0  0  0  0
  -26.6587  -12.7457   19.9165 C   0  0  0  0  0  0  0  0  0  0  0  0
  -26.7904  -18.7759   21.4124 C   0  0  0  0  0  0  0  0  0  0  0  0
  -30.0115  -29.0947   21.0637 C   0  0  0  0  0  0  0  0  0  0  0  0
  -30.7568  -26.8149   21.3539 C   0  0  0  0  0  0  0  0  0  0  0  0
  -29.9028  -27.5436   19.2146 C   0  0  0  0  0  0  0  0  0  0  0  0
  -20.0308  -25.8755   22.0113 C   0  0  0  0  0  0  0  0  0  0  0  0
  -28.8860  -19.6567   20.5506 C   0  0  0  0  0  0  0  0  0  0  0  0
  -17.9353  -24.8178   21.9006 C   0  0  0  0  0  0  0  0  0  0  0  0
  -30.4358  -26.5408   20.0244 C   0  0  0  0  0  0  0  0  0  0  0  0
  -15.3854  -24.4371   22.9661 C   0  0  0  0  0  0  0  0  0  0  0  0
  -17.7877  -24.3291   23.1987 C   0  0  0  0  0  0  0  0  0  0  0  0
  -22.6133  -28.5704   24.0029 C   0  0  0  0  0  0  0  0  0  0  0  0
  -23.7545  -29.6801   25.5199 C   0  0  0  0  0  0  0  0  0  0  0  0
  -22.2865  -27.8893   26.4614 C   0  0  0  0  0  0  0  0  0  0  0  0
  -25.0673  -15.8453   21.1465 C   0  0  0  0  0  0  0  0  0  0  0  0
  -23.3145  -18.0082   22.8114 C   0  0  0  0  0  0  0  0  0  0  0  0
  -23.0339  -21.1793   24.0411 C   0  0  0  0  0  0  0  0  0  0  0  0
  -27.8458  -31.9967   21.8124 C   0  0  0  0  0  0  0  0  0  0  0  0
  -25.1846  -10.7742   20.5734 C   0  0  0  0  0  0  0  0  0  0  0  0
  -26.7576  -16.6821   22.8194 C   0  0  0  0  0  0  0  0  0  0  0  0
  -25.2946  -18.9058   21.5312 C   0  0  0  0  0  0  0  0  0  0  0  0
  -24.1253  -11.8059   20.9525 C   0  0  0  0  0  0  0  0  0  0  0  0
  -25.1716  -33.7290   23.4012 C   0  0  0  0  0  0  0  0  0  0  0  0
  -24.1297  -12.9648   19.9607 C   0  0  0  0  0  0  0  0  0  0  0  0
  -24.2336  -32.6115   23.8606 C   0  0  0  0  0  0  0  0  0  0  0  0
  -25.8219  -33.4037   22.0583 C   0  0  0  0  0  0  0  0  0  0  0  0
  -25.5767  -30.9852   22.4641 C   0  0  0  0  0  0  0  0  0  0  0  0
  -25.4794  -13.6926   19.9688 C   0  0  1  0  0  0  0  0  0  0  0  0
  -25.2826  -16.5645   22.4480 C   0  0  1  0  0  0  0  0  0  0  0  0
  -24.9402  -31.2427   23.8407 C   0  0  2  0  0  0  0  0  0  0  0  0
  -31.3282  -25.7545   22.2366 C   0  0  0  0  0  0  0  0  0  0  0  0
  -28.0503  -27.0973   17.5849 C   0  0  0  0  0  0  0  0  0  0  0  0
  -21.4706  -22.6621   25.3275 C   0  0  0  0  0  0  0  0  0  0  0  0
  -21.5693  -18.3186   20.3279 C   0  0  0  0  0  0  0  0  0  0  0  0
  -20.6620  -20.4330   21.3151 C   0  0  0  0  0  0  0  0  0  0  0  0
  -20.3095  -18.2595   22.4875 C   0  0  0  0  0  0  0  0  0  0  0  0
  -25.0043  -21.5663   26.2151 C   0  0  0  0  0  0  0  0  0  0  0  0
  -29.5526  -27.2693   17.7891 C   0  0  0  0  0  0  0  0  0  0  0  0
  -29.7851  -30.4602   21.6189 C   0  0  0  0  0  0  0  0  0  0  0  0
  -30.1140  -22.9430   19.6875 C   0  0  0  0  0  0  0  0  0  0  0  0
  -29.0026  -21.9119   19.8047 C   0  0  0  0  0  0  0  0  0  1  0  0
  -29.5699  -24.3617   19.6277 C   0  0  0  0  0  0  0  0  0  0  0  0
  -22.6129  -19.3018   22.4751 C   0  0  1  0  0  0  0  0  0  0  0  0
  -22.6423  -21.6964   25.4136 C   0  0  2  0  0  0  0  0  0  0  0  0
  -21.3164  -19.0750   21.6474 C   0  0  0  0  0  0  0  0  0  0  0  0
  -23.3194  -29.4630   23.3037 N   0  0  0  0  0  0  0  0  0  0  0  0
  -24.0031  -30.1229   24.2541 N   0  0  0  0  0  0  0  0  0  0  0  0
  -24.6238  -17.8669   22.3302 N   0  0  0  0  0  0  0  0  0  0  0  0
  -26.4758  -32.0938   22.1069 N   0  0  0  0  0  0  0  0  0  0  0  0
  -24.3581  -30.2329   26.5934 N   0  0  0  0  0  0  0  0  0  0  0  0
  -21.3659  -26.8793   26.1501 N   0  0  0  0  0  0  0  0  0  0  0  0
  -25.5782  -14.5616   21.1218 N   0  0  0  0  0  0  0  0  0  0  0  0
  -22.3995  -19.9919   23.7426 N   0  0  0  0  0  0  0  0  0  0  0  0
  -28.3883  -30.7197   21.8879 N   0  0  0  0  0  0  0  0  0  0  0  0
  -23.7900  -22.4054   26.0468 N   0  3  0  0  0  0  0  0  0  0  0  0
  -22.5827  -28.1013   27.6617 O   0  0  0  0  0  0  0  0  0  0  0  0
  -24.4798  -16.4124   20.2328 O   0  0  0  0  0  0  0  0  0  0  0  0
  -22.7253  -17.1573   23.4826 O   0  0  0  0  0  0  0  0  0  0  0  0
  -23.8207  -21.7714   23.3057 O   0  0  0  0  0  0  0  0  0  0  0  0
  -28.5356  -32.9763   21.5100 O   0  0  0  0  0  0  0  0  0  0  0  0
  -19.2004  -25.0081   21.3705 O   0  0  0  0  0  0  0  0  0  0  0  0
  -29.5612  -20.5992   19.8381 O   0  0  0  0  0  0  0  0  0  1  0  0
  -30.6437  -25.2858   19.5142 O   0  0  0  0  0  0  0  0  0  0  0  0
  -14.1610  -24.2557   23.4781 F   0  0  0  0  0  0  0  0  0  0  0  0
  -18.8670  -24.0418   23.9391 F   0  0  0  0  0  0  0  0  0  0  0  0
  1  2  1  0  0  0  0
  1  5  2  0  0  0  0
  2  6  2  0  0  0  0
  3  8  2  0  0  0  0
  3 17  1  0  0  0  0
  4  9  1  0  0  0  0
  4 17  2  0  0  0  0
  5 19  1  0  0  0  0
  6 21  1  0  0  0  0
  7 10  2  0  0  0  0
  7 20  1  0  0  0  0
  8 26  1  0  0  0  0
  9 26  2  0  0  0  0
 10 27  1  0  0  0  0
 11 12  2  0  0  0  0
 11 28  1  0  0  0  0
 12 30  1  0  0  0  0
 13 22  1  0  0  0  0
 13 27  2  0  0  0  0
 14 23  1  0  0  0  0
 14 24  2  0  0  0  0
 15 23  2  0  0  0  0
 15 25  1  0  0  0  0
 16 30  2  0  0  0  0
 16 31  1  0  0  0  0
 17 32  1  0  0  0  0
 18 32  1  0  0  0  0
 18 33  2  0  0  0  0
 18 34  1  0  0  0  0
 19 21  2  0  0  0  0
 19 39  1  0  0  0  0
 20 22  2  0  0  0  0
 20 40  1  0  0  0  0
 21 48  1  0  0  0  0
 22 41  1  0  0  0  0
 23 59  1  0  0  0  0
 24 29  1  0  0  0  0
 24 51  1  0  0  0  0
 25 29  2  0  0  0  0
 25 58  1  0  0  0  0
 26 81  1  0  0  0  0
 27 82  1  0  0  0  0
 28 31  2  0  0  0  0
 28 81  1  0  0  0  0
 29 83  1  0  0  0  0
 30 84  1  0  0  0  0
 31 85  1  0  0  0  0
 32 66  2  0  0  0  0
 33 67  1  0  0  0  0
 33 70  1  0  0  0  0
 34 71  1  0  0  0  0
 34 76  2  0  0  0  0
 35 49  1  0  0  0  0
 35 72  1  0  0  0  0
 35 77  2  0  0  0  0
 36 63  1  0  0  0  0
 36 68  1  0  0  0  0
 36 78  2  0  0  0  0
 37 64  1  0  0  0  0
 37 73  1  0  0  0  0
 37 79  2  0  0  0  0
 38 69  1  0  0  0  0
 38 74  1  0  0  0  0
 38 80  2  0  0  0  0
 39 42  1  0  0  0  0
 40 49  1  0  0  0  0
 41 68  1  0  0  0  0
 42 44  1  0  0  0  0
 43 45  1  0  0  0  0
 43 46  1  0  0  0  0
 44 48  1  0  0  0  0
 45 50  1  0  0  0  0
 46 69  1  0  0  0  0
 47 50  1  0  0  0  0
 47 69  1  0  0  0  0
 48 72  1  0  0  0  0
 49 68  1  0  0  0  0
 50 67  1  0  0  0  0
 52 58  1  0  0  0  0
 53 64  1  0  0  0  0
 54 65  1  0  0  0  0
 55 65  1  0  0  0  0
 56 65  1  0  0  0  0
 57 75  1  0  0  0  0
 59 74  1  0  0  0  0
 60 61  1  0  0  0  0
 60 62  1  0  0  0  0
 61 82  1  0  0  0  0
 62 83  1  0  0  0  0
 63 65  1  0  0  0  0
 63 73  1  0  0  0  0
 64 75  1  0  0  0  0
 66 67  1  0  0  0  0
M  CHG  1  75   1
M  ISO  4  38 100  61 101  74 100  82 101
M  END
> <Batch ID>
0112

> <Smiles>
CCc1cc(C[100NH:0][100C:0](=O)N2CCCC(n3nc(-c4ccc(Oc5ccc(F)cc5F)cc4)c(C(N)=O)c3N)C2)cc(C)c1OCC[101CH2:1][101O:1]c1ccc2c(c1)CN(C(=O)C(NC(=O)C(C)NC)C(C)(C)C)C(C(=O)NC1CCCc3ccccc31)C2

> <Shape>
0.228

> <Color>
0.075

> <Negative vol penalty>
0.000

$$$$

  -OEChem-04052320033D

 83 91  0     1  0  0  0  0  0999 V2000
  -27.8854  -20.9735   27.5015 C   0  0  0  0  0  0  0  0  0  0  0  0
  -28.0843  -22.0571   26.6535 C   0  0  0  0  0  0  0  0  0  0  0  0
  -26.6287  -12.8294   20.4592 C   0  0  0  0  0  0  0  0  0  0  0  0
  -25.1832  -14.1399   19.0343 C   0  0  0  0  0  0  0  0  0  0  0  0
  -26.6078  -20.4398   27.6563 C   0  0  0  0  0  0  0  0  0  0  0  0
  -27.0038  -22.6149   25.9692 C   0  0  0  0  0  0  0  0  0  0  0  0
  -27.8518  -26.7517   23.4451 C   0  0  0  0  0  0  0  0  0  0  0  0
  -25.8369  -11.7046   20.2280 C   0  0  0  0  0  0  0  0  0  0  0  0
  -24.3914  -13.0151   18.8031 C   0  0  0  0  0  0  0  0  0  0  0  0
  -28.5873  -26.7748   22.2610 C   0  0  0  0  0  0  0  0  0  0  0  0
  -22.8886  -10.4667   21.3233 C   0  0  0  0  0  0  0  0  0  0  0  0
  -22.5490   -9.6772   22.4219 C   0  0  0  0  0  0  0  0  0  0  0  0
  -26.5406  -26.9794   21.0007 C   0  0  0  0  0  0  0  0  0  0  0  0
  -23.6491   -7.7837   21.4013 C   0  0  0  0  0  0  0  0  0  0  0  0
  -26.3018  -14.0471   19.8624 C   0  0  0  0  0  0  0  0  0  0  0  0
  -28.4868  -15.3625   19.8053 C   0  0  0  0  0  0  0  0  0  0  0  0
  -25.5137  -20.9841   26.9637 C   0  0  0  0  0  0  0  0  0  0  0  0
  -26.4521  -26.8315   23.4153 C   0  0  0  0  0  0  0  0  0  0  0  0
  -25.7026  -22.1056   26.1306 C   0  0  0  0  0  0  0  0  0  0  0  0
  -25.7898  -26.9597   22.1860 C   0  0  0  0  0  0  0  0  0  0  0  0
  -24.7183  -11.7974   19.4000 C   0  0  0  0  0  0  0  0  0  0  0  0
  -27.9316  -26.8857   21.0383 C   0  0  0  0  0  0  0  0  0  0  0  0
  -23.6084   -9.9147   20.2636 C   0  0  0  0  0  0  0  0  0  0  0  0
  -22.9293   -8.3358   22.4610 C   0  0  0  0  0  0  0  0  0  0  0  0
  -23.9887   -8.5732   20.3027 C   0  0  0  0  0  0  0  0  0  0  0  0
  -27.1190  -15.2095   20.1013 C   0  0  0  0  0  0  0  0  0  0  0  0
  -28.7877  -16.6364   20.2214 C   0  0  0  0  0  0  0  0  0  0  0  0
  -29.4033  -14.4360   19.2076 C   0  0  0  0  0  0  0  0  0  0  0  0
  -24.0767  -24.9211   24.3162 C   0  0  0  0  0  0  0  0  0  0  0  0
  -22.2406  -27.4727   23.5160 C   0  0  0  0  0  0  0  0  0  0  0  0
  -21.9007  -30.3414   21.6989 C   0  0  0  0  0  0  0  0  0  0  0  0
  -27.5513  -22.0686   20.5496 C   0  0  0  0  0  0  0  0  0  0  0  0
  -24.1512  -20.3722   27.1743 C   0  0  0  0  0  0  0  0  0  0  0  0
  -25.6748  -26.8322   24.7030 C   0  0  0  0  0  0  0  0  0  0  0  0
  -24.2900  -27.0690   22.1009 C   0  0  0  0  0  0  0  0  0  0  0  0
  -23.1575  -20.7420   26.0778 C   0  0  0  0  0  0  0  0  0  0  0  0
  -26.1093  -19.9144   22.9903 C   0  0  0  0  0  0  0  0  0  0  0  0
  -23.1721  -22.2460   25.8488 C   0  0  0  0  0  0  0  0  0  0  0  0
  -26.3507  -18.5121   22.4288 C   0  0  0  0  0  0  0  0  0  0  0  0
  -25.8069  -20.9214   21.8828 C   0  0  0  0  0  0  0  0  0  0  0  0
  -33.1070  -23.6460   19.4579 C   0  0  0  0  0  0  0  0  0  0  0  0
  -27.0493  -19.5689   20.2393 C   0  0  0  0  0  0  0  0  0  0  0  0
  -33.3988  -22.4137   20.3123 C   0  0  0  0  0  0  0  0  0  0  0  0
  -30.9671  -22.0804   20.7535 C   0  0  0  0  0  0  0  0  0  0  0  0
  -24.5475  -22.7095   25.3526 C   0  0  1  0  0  0  0  0  0  0  0  0
  -24.2221  -26.4020   24.5243 C   0  0  1  0  0  0  0  0  0  0  0  0
  -27.4134  -18.5299   21.3137 C   0  0  2  0  0  0  0  0  0  0  0  0
  -30.8277  -22.8024   19.3985 C   0  0  1  0  0  0  0  0  0  0  0  0
  -20.2729  -32.1914   21.2243 C   0  0  0  0  0  0  0  0  0  0  0  0
  -20.6348  -25.5967   21.7238 C   0  0  0  0  0  0  0  0  0  0  0  0
  -19.6799  -27.6127   20.5871 C   0  0  0  0  0  0  0  0  0  0  0  0
  -19.2585  -27.2362   23.0168 C   0  0  0  0  0  0  0  0  0  0  0  0
  -32.6150  -25.8908   18.1621 C   0  0  0  0  0  0  0  0  0  0  0  0
  -31.4121  -24.0465   16.9694 C   0  0  0  0  0  0  0  0  0  0  0  0
  -23.7501  -32.3965   22.7551 C   0  0  0  0  0  0  0  0  0  0  0  0
  -29.3380  -23.0726   19.1500 C   0  0  0  0  0  0  0  0  0  0  0  0
  -30.1294  -25.6767   18.4520 C   0  0  0  0  0  0  0  0  0  0  0  0
  -29.8828  -26.1943   19.8676 C   0  0  0  0  0  0  0  0  0  1  0  0
  -21.5616  -27.9474   22.2540 C   0  0  1  0  0  0  0  0  0  0  0  0
  -21.4358  -31.7325   22.0902 C   0  0  2  0  0  0  0  0  0  0  0  0
  -20.3118  -27.0943   21.8966 C   0  0  0  0  0  0  0  0  0  0  0  0
  -31.4468  -24.8945   18.2479 C   0  0  0  0  0  0  0  0  0  0  0  0
  -26.5878  -16.2991   20.6622 N   0  0  0  0  0  0  0  0  0  0  0  0
  -27.6272  -17.1489   20.7221 N   0  0  0  0  0  0  0  0  0  0  0  0
  -23.5740  -27.0587   23.3873 N   0  0  0  0  0  0  0  0  0  0  0  0
  -26.8532  -20.8894   20.8581 N   0  0  0  0  0  0  0  0  0  0  0  0
  -31.6772  -24.0055   19.3845 N   0  0  2  0  0  0  0  0  0  0  0  0
  -29.9292  -17.3569   20.2042 N   0  0  0  0  0  0  0  0  0  0  0  0
  -29.5404  -14.4375   17.8128 N   0  0  0  0  0  0  0  0  0  0  0  0
  -24.5851  -24.1553   25.3480 N   0  0  0  0  0  0  0  0  0  0  0  0
  -21.2808  -29.3655   22.4502 N   0  0  0  0  0  0  0  0  0  0  0  0
  -28.5310  -21.9493   19.5715 N   0  0  0  0  0  0  0  0  0  0  0  0
  -32.3314  -22.2716   21.3357 N   0  3  0  0  0  0  0  0  0  0  0  0
  -22.5489  -32.7121   21.9399 N   0  3  0  0  0  0  0  0  0  0  0  0
  -30.0685  -13.6194   19.8890 O   0  0  0  0  0  0  0  0  0  0  0  0
  -23.5415  -24.5041   23.2957 O   0  0  0  0  0  0  0  0  0  0  0  0
  -21.6134  -27.4760   24.5781 O   0  0  0  0  0  0  0  0  0  0  0  0
  -22.7281  -30.1404   20.8126 O   0  0  0  0  0  0  0  0  0  0  0  0
  -27.3223  -23.1466   21.1085 O   0  0  0  0  0  0  0  0  0  0  0  0
  -23.9455  -10.7000   19.1740 O   0  0  0  0  0  0  0  0  0  0  0  0
  -28.6471  -26.9078   19.8810 O   0  0  0  0  0  0  0  0  0  1  0  0
  -22.6044   -7.5782   23.5167 F   0  0  0  0  0  0  0  0  0  0  0  0
  -24.6814   -8.0376   19.2882 F   0  0  0  0  0  0  0  0  0  0  0  0
  1  2  1  0  0  0  0
  1  5  2  0  0  0  0
  2  6  2  0  0  0  0
  3  8  2  0  0  0  0
  3 15  1  0  0  0  0
  4  9  1  0  0  0  0
  4 15  2  0  0  0  0
  5 17  1  0  0  0  0
  6 19  1  0  0  0  0
  7 10  2  0  0  0  0
  7 18  1  0  0  0  0
  8 21  1  0  0  0  0
  9 21  2  0  0  0  0
 10 22  1  0  0  0  0
 11 12  2  0  0  0  0
 11 23  1  0  0  0  0
 12 24  1  0  0  0  0
 13 20  1  0  0  0  0
 13 22  2  0  0  0  0
 14 24  2  0  0  0  0
 14 25  1  0  0  0  0
 15 26  1  0  0  0  0
 16 26  1  0  0  0  0
 16 27  2  0  0  0  0
 16 28  1  0  0  0  0
 17 19  2  0  0  0  0
 17 33  1  0  0  0  0
 18 20  2  0  0  0  0
 18 34  1  0  0  0  0
 19 45  1  0  0  0  0
 20 35  1  0  0  0  0
 21 80  1  0  0  0  0
 22 81  1  0  0  0  0
 23 25  2  0  0  0  0
 23 80  1  0  0  0  0
 24 82  1  0  0  0  0
 25 83  1  0  0  0  0
 26 63  2  0  0  0  0
 27 64  1  0  0  0  0
 27 68  1  0  0  0  0
 28 69  1  0  0  0  0
 28 75  2  0  0  0  0
 29 46  1  0  0  0  0
 29 70  1  0  0  0  0
 29 76  2  0  0  0  0
 30 59  1  0  0  0  0
 30 65  1  0  0  0  0
 30 77  2  0  0  0  0
 31 60  1  0  0  0  0
 31 71  1  0  0  0  0
 31 78  2  0  0  0  0
 32 66  1  0  0  0  0
 32 72  1  0  0  0  0
 32 79  2  0  0  0  0
 33 36  1  0  0  0  0
 34 46  1  0  0  0  0
 35 65  1  0  0  0  0
 36 38  1  0  0  0  0
 37 39  1  0  0  0  0
 37 40  1  0  0  0  0
 38 45  1  0  0  0  0
 39 47  1  0  0  0  0
 40 66  1  0  0  0  0
 41 43  1  0  0  0  0
 41 67  1  0  0  0  0
 42 47  1  0  0  0  0
 42 66  1  0  0  0  0
 43 73  1  0  0  0  0
 44 48  1  0  0  0  0
 44 73  1  0  0  0  0
 45 70  1  0  0  0  0
 46 65  1  0  0  0  0
 47 64  1  0  0  0  0
 48 56  1  0  0  0  0
 48 67  1  0  0  0  0
 49 60  1  0  0  0  0
 50 61  1  0  0  0  0
 51 61  1  0  0  0  0
 52 61  1  0  0  0  0
 53 62  1  0  0  0  0
 54 62  1  0  0  0  0
 55 74  1  0  0  0  0
 56 72  1  0  0  0  0
 57 58  1  0  0  0  0
 57 62  1  0  0  0  0
 58 81  1  0  0  0  0
 59 61  1  0  0  0  0
 59 71  1  0  0  0  0
 60 74  1  0  0  0  0
 62 67  1  0  0  0  0
 63 64  1  0  0  0  0
M  CHG  2  73   1  74   1
M  ISO  4  32 100  58 101  72 100  81 101
M  END
> <Batch ID>
0112

> <Smiles>
CNC(C)C(=O)NC(C(=O)N1Cc2cc([101O:1][101CH2:1]CC(C)(C)N3CCNCC3C[100NH:0][100C:0](=O)N3CCCC(n4nc(-c5ccc(Oc6ccc(F)cc6F)cc5)c(C(N)=O)c4N)C3)ccc2CC1C(=O)NC1CCCc2ccccc21)C(C)(C)C

> <Shape>
0.220

> <Color>
0.073

> <Negative vol penalty>
0.000

$$$$

  -OEChem-04052320033D

 86 94  0     1  0  0  0  0  0999 V2000
  -15.6115  -25.9076   22.9100 C   0  0  0  0  0  0  0  0  0  0  0  0
  -16.2691  -24.6841   22.9884 C   0  0  0  0  0  0  0  0  0  0  0  0
  -23.6571   -9.9340   21.8396 C   0  0  0  0  0  0  0  0  0  0  0  0
  -24.2971  -11.1591   23.8212 C   0  0  0  0  0  0  0  0  0  0  0  0
  -16.3450  -27.0831   22.7553 C   0  0  0  0  0  0  0  0  0  0  0  0
  -17.6605  -24.6353   22.9110 C   0  0  0  0  0  0  0  0  0  0  0  0
  -23.2635  -20.9265   25.3943 C   0  0  0  0  0  0  0  0  0  0  0  0
  -28.7208  -17.7164   24.4998 C   0  0  0  0  0  0  0  0  0  0  0  0
  -29.9523  -17.2104   24.0837 C   0  0  0  0  0  0  0  0  0  0  0  0
  -23.1153   -8.9264   22.6375 C   0  0  0  0  0  0  0  0  0  0  0  0
  -23.7552  -10.1515   24.6191 C   0  0  0  0  0  0  0  0  0  0  0  0
  -24.3962  -20.2528   24.9394 C   0  0  0  0  0  0  0  0  0  0  0  0
  -20.6916   -9.1814   25.6649 C   0  0  0  0  0  0  0  0  0  0  0  0
  -19.8999   -9.5683   26.7461 C   0  0  0  0  0  0  0  0  0  0  0  0
  -25.5640  -22.3553   24.7517 C   0  0  0  0  0  0  0  0  0  0  0  0
  -21.4251   -8.4625   28.2587 C   0  0  0  0  0  0  0  0  0  0  0  0
  -24.2480  -11.0504   22.4314 C   0  0  0  0  0  0  0  0  0  0  0  0
  -24.1488  -13.2332   21.1150 C   0  0  0  0  0  0  0  0  0  0  0  0
  -17.7467  -27.0497   22.6857 C   0  0  0  0  0  0  0  0  0  0  0  0
  -23.2690  -22.3230   25.5211 C   0  0  0  0  0  0  0  0  0  0  0  0
  -18.4133  -25.8115   22.7539 C   0  0  0  0  0  0  0  0  0  0  0  0
  -24.4309  -23.0441   25.2109 C   0  0  0  0  0  0  0  0  0  0  0  0
  -27.8851  -18.3573   23.5851 C   0  0  0  0  0  0  0  0  0  0  0  0
  -30.3481  -17.3454   22.7530 C   0  0  0  0  0  0  0  0  0  0  0  0
  -28.2810  -18.4923   22.2544 C   0  0  0  0  0  0  0  0  0  0  0  0
  -29.5124  -17.9863   21.8383 C   0  0  0  0  0  0  0  0  0  0  0  0
  -23.1643   -9.0351   24.0273 C   0  0  0  0  0  0  0  0  0  0  0  0
  -25.5457  -20.9675   24.6153 C   0  0  0  0  0  0  0  0  0  0  0  0
  -21.8501   -8.4349   25.8806 C   0  0  0  0  0  0  0  0  0  0  0  0
  -20.2666   -9.2089   28.0430 C   0  0  0  0  0  0  0  0  0  0  0  0
  -22.2168   -8.0755   27.1775 C   0  0  0  0  0  0  0  0  0  0  0  0
  -24.8084  -12.0913   21.6077 C   0  0  0  0  0  0  0  0  0  0  0  0
  -25.1089  -13.8999   20.3937 C   0  0  0  0  0  0  0  0  0  0  0  0
  -22.7897  -13.6537   21.2934 C   0  0  0  0  0  0  0  0  0  0  0  0
  -21.6289  -24.7021   24.1968 C   0  0  0  0  0  0  0  0  0  0  0  0
  -23.2596  -26.5037   26.3457 C   0  0  0  0  0  0  0  0  0  0  0  0
  -30.1002  -19.3035   19.7740 C   0  0  0  0  0  0  0  0  0  0  0  0
  -26.0068  -26.8552   28.3398 C   0  0  0  0  0  0  0  0  0  0  0  0
  -31.0897  -13.9825   20.6668 C   0  0  0  0  0  0  0  0  0  0  0  0
  -18.4938  -28.3421   22.4708 C   0  0  0  0  0  0  0  0  0  0  0  0
  -22.0477  -23.0323   26.0387 C   0  0  0  0  0  0  0  0  0  0  0  0
  -24.4949  -24.5425   25.3490 C   0  0  0  0  0  0  0  0  0  0  0  0
  -19.9866  -28.2403   22.7735 C   0  0  0  0  0  0  0  0  0  0  0  0
  -29.0868  -13.1321   17.8487 C   0  0  0  0  0  0  0  0  0  0  0  0
  -20.5766  -26.9872   22.1345 C   0  0  0  0  0  0  0  0  0  0  0  0
  -27.7037  -12.8719   18.4480 C   0  0  0  0  0  0  0  0  0  0  0  0
  -30.2025  -12.6525   18.7746 C   0  0  0  0  0  0  0  0  0  0  0  0
  -28.7526  -12.9207   20.7494 C   0  0  0  0  0  0  0  0  0  0  0  0
  -19.9229  -25.7200   22.6988 C   0  0  1  0  0  0  0  0  0  0  0  0
  -21.9976  -24.5040   25.6399 C   0  0  1  0  0  0  0  0  0  0  0  0
  -27.5962  -13.4380   19.8767 C   0  0  2  0  0  0  0  0  0  0  0  0
  -27.3797  -19.1824   21.2787 C   0  0  0  0  0  0  0  0  0  0  0  0
  -30.7214  -20.2551   17.5125 C   0  0  0  0  0  0  0  0  0  0  0  0
  -27.0803  -28.4520   29.9508 C   0  0  0  0  0  0  0  0  0  0  0  0
  -24.1552  -28.2528   24.0115 C   0  0  0  0  0  0  0  0  0  0  0  0
  -25.9292  -29.2074   25.4981 C   0  0  0  0  0  0  0  0  0  0  0  0
  -23.5220  -29.5132   26.0767 C   0  0  0  0  0  0  0  0  0  0  0  0
  -25.8691  -24.8959   30.5536 C   0  0  0  0  0  0  0  0  0  0  0  0
  -31.6735  -16.7933   22.3379 C   0  0  0  0  0  0  0  0  0  0  0  0
  -26.5661  -18.8924   24.0597 C   0  0  0  0  0  0  0  0  0  1  0  0
  -30.5393  -19.0013   18.3490 C   0  0  0  0  0  0  0  0  0  0  0  0
  -31.8330  -15.2987   22.6351 C   0  0  0  0  0  0  0  0  0  0  0  0
  -24.5813  -27.2333   26.3449 C   0  0  1  0  0  0  0  0  0  0  0  0
  -26.1493  -27.2594   29.7960 C   0  0  2  0  0  0  0  0  0  0  0  0
  -24.5454  -28.5236   25.4783 C   0  0  0  0  0  0  0  0  0  0  0  0
  -26.0886  -12.0326   21.2311 N   0  0  0  0  0  0  0  0  0  0  0  0
  -26.2410  -13.1460   20.4941 N   0  0  0  0  0  0  0  0  0  0  0  0
  -23.2730  -25.1911   25.8530 N   0  0  0  0  0  0  0  0  0  0  0  0
  -30.0433  -13.2268   20.1128 N   0  0  0  0  0  0  0  0  0  0  0  0
  -25.0867  -15.0516   19.6898 N   0  0  0  0  0  0  0  0  0  0  0  0
  -21.9376  -12.8510   22.0640 N   0  0  0  0  0  0  0  0  0  0  0  0
  -29.9121  -18.1219   20.5040 N   0  0  0  0  0  0  0  0  0  0  0  0
  -20.4599  -25.4142   24.0074 N   0  0  0  0  0  0  0  0  0  0  0  0
  -24.9215  -27.4630   27.7449 N   0  0  0  0  0  0  0  0  0  0  0  0
  -30.8543  -14.4959   21.9364 N   0  0  0  0  0  0  0  0  0  0  0  0
  -26.6978  -26.1282   30.5963 N   0  3  0  0  0  0  0  0  0  0  0  0
  -22.3398  -14.7017   20.7709 O   0  0  0  0  0  0  0  0  0  0  0  0
  -22.3524  -24.2443   23.3201 O   0  0  0  0  0  0  0  0  0  0  0  0
  -22.2538  -27.0748   26.7745 O   0  0  0  0  0  0  0  0  0  0  0  0
  -29.9469  -20.4516   20.1778 O   0  0  0  0  0  0  0  0  0  0  0  0
  -26.7829  -26.0808   27.7844 O   0  0  0  0  0  0  0  0  0  0  0  0
  -32.1528  -14.1892   20.0718 O   0  0  0  0  0  0  0  0  0  0  0  0
  -22.6355   -8.0522   24.8062 O   0  0  0  0  0  0  0  0  0  0  0  0
  -26.6525  -20.3125   24.1705 O   0  0  0  0  0  0  0  0  0  1  0  0
  -19.5071   -9.5819   29.0814 F   0  0  0  0  0  0  0  0  0  0  0  0
  -23.3293   -7.3595   27.3910 F   0  0  0  0  0  0  0  0  0  0  0  0
  1  2  1  0  0  0  0
  1  5  2  0  0  0  0
  2  6  2  0  0  0  0
  3 10  2  0  0  0  0
  3 17  1  0  0  0  0
  4 11  1  0  0  0  0
  4 17  2  0  0  0  0
  5 19  1  0  0  0  0
  6 21  1  0  0  0  0
  7 12  2  0  0  0  0
  7 20  1  0  0  0  0
  8  9  1  0  0  0  0
  8 23  2  0  0  0  0
  9 24  2  0  0  0  0
 10 27  1  0  0  0  0
 11 27  2  0  0  0  0
 12 28  1  0  0  0  0
 13 14  2  0  0  0  0
 13 29  1  0  0  0  0
 14 30  1  0  0  0  0
 15 22  1  0  0  0  0
 15 28  2  0  0  0  0
 16 30  2  0  0  0  0
 16 31  1  0  0  0  0
 17 32  1  0  0  0  0
 18 32  1  0  0  0  0
 18 33  2  0  0  0  0
 18 34  1  0  0  0  0
 19 21  2  0  0  0  0
 19 40  1  0  0  0  0
 20 22  2  0  0  0  0
 20 41  1  0  0  0  0
 21 49  1  0  0  0  0
 22 42  1  0  0  0  0
 23 25  1  0  0  0  0
 23 60  1  0  0  0  0
 24 26  1  0  0  0  0
 24 59  1  0  0  0  0
 25 26  2  0  0  0  0
 25 52  1  0  0  0  0
 26 72  1  0  0  0  0
 27 83  1  0  0  0  0
 28 84  1  0  0  0  0
 29 31  2  0  0  0  0
 29 83  1  0  0  0  0
 30 85  1  0  0  0  0
 31 86  1  0  0  0  0
 32 66  2  0  0  0  0
 33 67  1  0  0  0  0
 33 70  1  0  0  0  0
 34 71  1  0  0  0  0
 34 77  2  0  0  0  0
 35 50  1  0  0  0  0
 35 73  1  0  0  0  0
 35 78  2  0  0  0  0
 36 63  1  0  0  0  0
 36 68  1  0  0  0  0
 36 79  2  0  0  0  0
 37 61  1  0  0  0  0
 37 72  1  0  0  0  0
 37 80  2  0  0  0  0
 38 64  1  0  0  0  0
 38 74  1  0  0  0  0
 38 81  2  0  0  0  0
 39 69  1  0  0  0  0
 39 75  1  0  0  0  0
 39 82  2  0  0  0  0
 40 43  1  0  0  0  0
 41 50  1  0  0  0  0
 42 68  1  0  0  0  0
 43 45  1  0  0  0  0
 44 46  1  0  0  0  0
 44 47  1  0  0  0  0
 45 49  1  0  0  0  0
 46 51  1  0  0  0  0
 47 69  1  0  0  0  0
 48 51  1  0  0  0  0
 48 69  1  0  0  0  0
 49 73  1  0  0  0  0
 50 68  1  0  0  0  0
 51 67  1  0  0  0  0
 53 61  1  0  0  0  0
 54 64  1  0  0  0  0
 55 65  1  0  0  0  0
 56 65  1  0  0  0  0
 57 65  1  0  0  0  0
 58 76  1  0  0  0  0
 59 62  1  0  0  0  0
 60 84  1  0  0  0  0
 62 75  1  0  0  0  0
 63 65  1  0  0  0  0
 63 74  1  0  0  0  0
 64 76  1  0  0  0  0
 66 67  1  0  0  0  0
M  CHG  1  76   1
M  ISO  4  39 100  60 101  75 100  84 101
M  END
> <Batch ID>
0112

> <Smiles>
CCC(=O)Nc1c(CC[100NH:0][100C:0](=O)N2CCCC(n3nc(-c4ccc(Oc5ccc(F)cc5F)cc4)c(C(N)=O)c3N)C2)ccc([101CH2:1][101O:1]c2ccc3c(c2)CN(C(=O)C(NC(=O)C(C)NC)C(C)(C)C)C(C(=O)NC2CCCc4ccccc42)C3)c1C

> <Shape>
0.200

> <Color>
0.147

> <Negative vol penalty>
0.000

$$$$

  -OEChem-04052320033D

 83 91  0     1  0  0  0  0  0999 V2000
  -26.3782  -29.4846   19.3766 C   0  0  0  0  0  0  0  0  0  0  0  0
  -27.1255  -28.3455   19.6583 C   0  0  0  0  0  0  0  0  0  0  0  0
  -23.5008   -9.7996   21.5583 C   0  0  0  0  0  0  0  0  0  0  0  0
  -24.1375  -10.8534   23.6370 C   0  0  0  0  0  0  0  0  0  0  0  0
  -25.1626  -29.6976   20.0254 C   0  0  0  0  0  0  0  0  0  0  0  0
  -26.6580  -27.4191   20.5899 C   0  0  0  0  0  0  0  0  0  0  0  0
  -27.3833  -21.3404   20.4196 C   0  0  0  0  0  0  0  0  0  0  0  0
  -22.8702   -8.7784   22.2691 C   0  0  0  0  0  0  0  0  0  0  0  0
  -23.5069   -9.8323   24.3479 C   0  0  0  0  0  0  0  0  0  0  0  0
  -28.2858  -20.4854   21.0506 C   0  0  0  0  0  0  0  0  0  0  0  0
  -20.3537   -8.9888   25.2233 C   0  0  0  0  0  0  0  0  0  0  0  0
  -19.5462   -9.3541   26.3003 C   0  0  0  0  0  0  0  0  0  0  0  0
  -26.6624  -20.0607   22.7837 C   0  0  0  0  0  0  0  0  0  0  0  0
  -31.4565  -18.2668   24.2474 C   0  0  0  0  0  0  0  0  0  0  0  0
  -31.0704  -16.5636   22.5938 C   0  0  0  0  0  0  0  0  0  0  0  0
  -20.9447   -8.0614   27.7871 C   0  0  0  0  0  0  0  0  0  0  0  0
  -24.1345  -10.8370   22.2423 C   0  0  0  0  0  0  0  0  0  0  0  0
  -24.2153  -13.1016   21.0706 C   0  0  0  0  0  0  0  0  0  0  0  0
  -24.6754  -28.7686   20.9582 C   0  0  0  0  0  0  0  0  0  0  0  0
  -26.1154  -21.5708   20.9726 C   0  0  0  0  0  0  0  0  0  0  0  0
  -25.4354  -27.6205   21.2527 C   0  0  0  0  0  0  0  0  0  0  0  0
  -25.7447  -20.9170   22.1564 C   0  0  0  0  0  0  0  0  0  0  0  0
  -30.8875  -17.8665   23.0436 C   0  0  0  0  0  0  0  0  0  0  0  0
  -22.8732   -8.7948   23.6639 C   0  0  0  0  0  0  0  0  0  0  0  0
  -27.9265  -19.8476   22.2344 C   0  0  0  0  0  0  0  0  0  0  0  0
  -21.4566   -8.1598   25.4280 C   0  0  0  0  0  0  0  0  0  0  0  0
  -19.8417   -8.8904   27.5823 C   0  0  0  0  0  0  0  0  0  0  0  0
  -21.7522   -7.6961   26.7099 C   0  0  0  0  0  0  0  0  0  0  0  0
  -24.7866  -11.8918   21.5086 C   0  0  0  0  0  0  0  0  0  0  0  0
  -32.1937  -17.3336   24.9584 C   0  0  0  0  0  0  0  0  0  0  0  0
  -31.8251  -15.7067   23.3787 C   0  0  0  0  0  0  0  0  0  0  0  0
  -25.2399  -13.7523   20.4278 C   0  0  0  0  0  0  0  0  0  0  0  0
  -22.8780  -13.5932   21.2304 C   0  0  0  0  0  0  0  0  0  0  0  0
  -24.5857  -24.1234   22.0898 C   0  0  0  0  0  0  0  0  0  0  0  0
  -22.0961  -22.0548   22.3025 C   0  0  0  0  0  0  0  0  0  0  0  0
  -21.0280  -18.8247   22.5720 C   0  0  0  0  0  0  0  0  0  0  0  0
  -31.2243  -13.3753   20.9323 C   0  0  0  0  0  0  0  0  0  0  0  0
  -23.3787  -29.0654   21.6690 C   0  0  0  0  0  0  0  0  0  0  0  0
  -25.1435  -22.4752   20.2655 C   0  0  0  0  0  0  0  0  0  0  0  0
  -24.3882  -21.1149   22.7802 C   0  0  0  0  0  0  0  0  0  0  0  0
  -22.7741  -27.8494   22.3662 C   0  0  0  0  0  0  0  0  0  0  0  0
  -29.2565  -12.9304   17.9805 C   0  0  0  0  0  0  0  0  0  0  0  0
  -23.8418  -27.1037   23.1604 C   0  0  0  0  0  0  0  0  0  0  0  0
  -27.8417  -12.6982   18.5075 C   0  0  0  0  0  0  0  0  0  0  0  0
  -30.2998  -12.3027   18.8989 C   0  0  0  0  0  0  0  0  0  0  0  0
  -28.8009  -12.5356   20.8519 C   0  0  0  0  0  0  0  0  0  0  0  0
  -24.9499  -26.5802   22.2387 C   0  0  1  0  0  0  0  0  0  0  0  0
  -24.0681  -23.0366   21.1905 C   0  0  1  0  0  0  0  0  0  0  0  0
  -27.7132  -13.1714   19.9655 C   0  0  2  0  0  0  0  0  0  0  0  0
  -19.4138  -16.9050   22.6521 C   0  0  0  0  0  0  0  0  0  0  0  0
  -31.7414  -18.1907   27.2836 C   0  0  0  0  0  0  0  0  0  0  0  0
  -33.8226  -18.9069   26.0621 C   0  0  0  0  0  0  0  0  0  0  0  0
  -33.6305  -16.6034   26.9778 C   0  0  0  0  0  0  0  0  0  0  0  0
  -21.8248  -22.8775   25.2281 C   0  0  0  0  0  0  0  0  0  0  0  0
  -20.4081  -20.8462   25.5957 C   0  0  0  0  0  0  0  0  0  0  0  0
  -19.6551  -22.6199   24.0114 C   0  0  0  0  0  0  0  0  0  0  0  0
  -21.0914  -18.4976   19.6312 C   0  0  0  0  0  0  0  0  0  0  0  0
  -30.0792  -18.8367   22.2333 C   0  0  0  0  0  0  0  0  0  1  0  0
  -21.5771  -21.1117   23.3609 C   0  0  1  0  0  0  0  0  0  0  0  0
  -19.9653  -18.0487   21.8151 C   0  0  2  0  0  0  0  0  0  0  0  0
  -32.8188  -17.7284   26.2546 C   0  0  0  0  0  0  0  0  0  0  0  0
  -20.8926  -21.8614   24.5386 C   0  0  0  0  0  0  0  0  0  0  0  0
  -26.0743  -11.7782   21.1724 N   0  0  0  0  0  0  0  0  0  0  0  0
  -32.3934  -16.0593   24.5536 N   0  0  0  0  0  0  0  0  0  0  0  0
  -26.3205  -12.9249   20.5162 N   0  0  0  0  0  0  0  0  0  0  0  0
  -23.4754  -22.0136   22.0544 N   0  0  0  0  0  0  0  0  0  0  0  0
  -30.1376  -12.7659   20.2797 N   0  0  0  0  0  0  0  0  0  0  0  0
  -25.3130  -14.9458   19.8012 N   0  0  0  0  0  0  0  0  0  0  0  0
  -21.9511  -12.7971   21.9170 N   0  0  0  0  0  0  0  0  0  0  0  0
  -32.0008  -14.3980   22.9129 N   0  0  0  0  0  0  0  0  0  0  0  0
  -24.5086  -25.3902   21.5433 N   0  0  0  0  0  0  0  0  0  0  0  0
  -20.7095  -20.1625   22.6720 N   0  0  0  0  0  0  0  0  0  0  0  0
  -30.9815  -13.7907   22.2319 N   0  0  0  0  0  0  0  0  0  0  0  0
  -20.5339  -17.4809   20.5600 N   0  3  0  0  0  0  0  0  0  0  0  0
  -22.5113  -14.6982   20.7636 O   0  0  0  0  0  0  0  0  0  0  0  0
  -25.0212  -23.8341   23.1981 O   0  0  0  0  0  0  0  0  0  0  0  0
  -21.3056  -22.7954   21.7124 O   0  0  0  0  0  0  0  0  0  0  0  0
  -22.0378  -18.2962   23.0319 O   0  0  0  0  0  0  0  0  0  0  0  0
  -32.3217  -13.5396   20.3880 O   0  0  0  0  0  0  0  0  0  0  0  0
  -22.2578   -7.7987   24.3578 O   0  0  0  0  0  0  0  0  0  0  0  0
  -28.8058  -19.0131   22.8527 O   0  0  0  0  0  0  0  0  0  1  0  0
  -19.0671   -9.2425   28.6168 F   0  0  0  0  0  0  0  0  0  0  0  0
  -22.8111   -6.9004   26.9131 F   0  0  0  0  0  0  0  0  0  0  0  0
  1  2  1  0  0  0  0
  1  5  2  0  0  0  0
  2  6  2  0  0  0  0
  3  8  2  0  0  0  0
  3 17  1  0  0  0  0
  4  9  1  0  0  0  0
  4 17  2  0  0  0  0
  5 19  1  0  0  0  0
  6 21  1  0  0  0  0
  7 10  2  0  0  0  0
  7 20  1  0  0  0  0
  8 24  1  0  0  0  0
  9 24  2  0  0  0  0
 10 25  1  0  0  0  0
 11 12  2  0  0  0  0
 11 26  1  0  0  0  0
 12 27  1  0  0  0  0
 13 22  1  0  0  0  0
 13 25  2  0  0  0  0
 14 23  2  0  0  0  0
 14 30  1  0  0  0  0
 15 23  1  0  0  0  0
 15 31  2  0  0  0  0
 16 27  2  0  0  0  0
 16 28  1  0  0  0  0
 17 29  1  0  0  0  0
 18 29  1  0  0  0  0
 18 32  2  0  0  0  0
 18 33  1  0  0  0  0
 19 21  2  0  0  0  0
 19 38  1  0  0  0  0
 20 22  2  0  0  0  0
 20 39  1  0  0  0  0
 21 47  1  0  0  0  0
 22 40  1  0  0  0  0
 23 58  1  0  0  0  0
 24 80  1  0  0  0  0
 25 81  1  0  0  0  0
 26 28  2  0  0  0  0
 26 80  1  0  0  0  0
 27 82  1  0  0  0  0
 28 83  1  0  0  0  0
 29 63  2  0  0  0  0
 30 61  1  0  0  0  0
 30 64  2  0  0  0  0
 31 64  1  0  0  0  0
 31 70  1  0  0  0  0
 32 65  1  0  0  0  0
 32 68  1  0  0  0  0
 33 69  1  0  0  0  0
 33 75  2  0  0  0  0
 34 48  1  0  0  0  0
 34 71  1  0  0  0  0
 34 76  2  0  0  0  0
 35 59  1  0  0  0  0
 35 66  1  0  0  0  0
 35 77  2  0  0  0  0
 36 60  1  0  0  0  0
 36 72  1  0  0  0  0
 36 78  2  0  0  0  0
 37 67  1  0  0  0  0
 37 73  1  0  0  0  0
 37 79  2  0  0  0  0
 38 41  1  0  0  0  0
 39 48  1  0  0  0  0
 40 66  1  0  0  0  0
 41 43  1  0  0  0  0
 42 44  1  0  0  0  0
 42 45  1  0  0  0  0
 43 47  1  0  0  0  0
 44 49  1  0  0  0  0
 45 67  1  0  0  0  0
 46 49  1  0  0  0  0
 46 67  1  0  0  0  0
 47 71  1  0  0  0  0
 48 66  1  0  0  0  0
 49 65  1  0  0  0  0
 50 60  1  0  0  0  0
 51 61  1  0  0  0  0
 52 61  1  0  0  0  0
 53 61  1  0  0  0  0
 54 62  1  0  0  0  0
 55 62  1  0  0  0  0
 56 62  1  0  0  0  0
 57 74  1  0  0  0  0
 58 81  1  0  0  0  0
 59 62  1  0  0  0  0
 59 72  1  0  0  0  0
 60 74  1  0  0  0  0
 63 65  1  0  0  0  0
 70 73  1  0  0  0  0
M  CHG  1  74   1
M  ISO  4  37 100  58 101  73 100  81 101
M  END
> <Batch ID>
0112

> <Smiles>
CNC(C)C(=O)NC(C(=O)N1Cc2cc([101O:1][101CH2:1]c3cc(N[100NH:0][100C:0](=O)N4CCCC(n5nc(-c6ccc(Oc7ccc(F)cc7F)cc6)c(C(N)=O)c5N)C4)nc(C(C)(C)C)c3)ccc2CC1C(=O)NC1CCCc2ccccc21)C(C)(C)C

> <Shape>
0.176

> <Color>
0.137

> <Negative vol penalty>
0.000

$$$$

  -OEChem-04052320033D

 82 90  0     1  0  0  0  0  0999 V2000
  -16.8829  -28.7563   19.7318 C   0  0  0  0  0  0  0  0  0  0  0  0
  -18.1391  -28.8453   19.1405 C   0  0  0  0  0  0  0  0  0  0  0  0
  -26.9756  -12.3405   21.8124 C   0  0  0  0  0  0  0  0  0  0  0  0
  -26.2727  -14.0266   20.2314 C   0  0  0  0  0  0  0  0  0  0  0  0
  -16.7736  -28.5169   21.1010 C   0  0  0  0  0  0  0  0  0  0  0  0
  -19.2867  -28.6961   19.9184 C   0  0  0  0  0  0  0  0  0  0  0  0
  -24.5759  -26.1181   18.2199 C   0  0  0  0  0  0  0  0  0  0  0  0
  -31.2606  -22.3609   21.8651 C   0  0  0  0  0  0  0  0  0  0  0  0
  -25.6705  -11.8519   21.8717 C   0  0  0  0  0  0  0  0  0  0  0  0
  -24.9675  -13.5380   20.2905 C   0  0  0  0  0  0  0  0  0  0  0  0
  -25.7821  -26.6576   17.7752 C   0  0  0  0  0  0  0  0  0  0  0  0
  -31.2541  -23.6346   21.2968 C   0  0  0  0  0  0  0  0  0  0  0  0
  -22.5968   -9.9329   22.1640 C   0  0  0  0  0  0  0  0  0  0  0  0
  -22.4185   -8.5508   22.1053 C   0  0  0  0  0  0  0  0  0  0  0  0
  -26.6556  -26.5400   20.0208 C   0  0  0  0  0  0  0  0  0  0  0  0
  -29.8038  -22.8411   19.5349 C   0  0  0  0  0  0  0  0  0  0  0  0
  -23.4784   -8.5062   19.9346 C   0  0  0  0  0  0  0  0  0  0  0  0
  -27.2767  -13.4279   20.9923 C   0  0  0  0  0  0  0  0  0  0  0  0
  -29.6443  -13.5308   20.0481 C   0  0  0  0  0  0  0  0  0  0  0  0
  -17.9204  -28.3552   21.8943 C   0  0  0  0  0  0  0  0  0  0  0  0
  -24.3964  -25.7951   19.5727 C   0  0  0  0  0  0  0  0  0  0  0  0
  -19.1927  -28.4558   21.2997 C   0  0  0  0  0  0  0  0  0  0  0  0
  -25.4470  -25.9942   20.4796 C   0  0  0  0  0  0  0  0  0  0  0  0
  -29.8104  -21.5673   20.1033 C   0  0  0  0  0  0  0  0  0  0  0  0
  -30.5388  -21.3271   21.2684 C   0  0  0  0  0  0  0  0  0  0  0  0
  -24.6665  -12.4506   21.1107 C   0  0  0  0  0  0  0  0  0  0  0  0
  -26.8212  -26.8713   18.6762 C   0  0  0  0  0  0  0  0  0  0  0  0
  -30.5257  -23.8748   20.1317 C   0  0  0  0  0  0  0  0  0  0  0  0
  -23.2159  -10.6018   21.1080 C   0  0  0  0  0  0  0  0  0  0  0  0
  -22.8593   -7.8374   20.9907 C   0  0  0  0  0  0  0  0  0  0  0  0
  -23.6567   -9.8884   19.9933 C   0  0  0  0  0  0  0  0  0  0  0  0
  -28.6246  -13.9334   20.9312 C   0  0  0  0  0  0  0  0  0  0  0  0
  -30.7239  -14.3062   20.3938 C   0  0  0  0  0  0  0  0  0  0  0  0
  -29.6179  -12.5440   19.0082 C   0  0  0  0  0  0  0  0  0  0  0  0
  -22.4349  -26.7787   21.8725 C   0  0  0  0  0  0  0  0  0  0  0  0
  -23.8395  -24.3881   23.5561 C   0  0  0  0  0  0  0  0  0  0  0  0
  -26.5422  -22.3497   23.9891 C   0  0  0  0  0  0  0  0  0  0  0  0
  -31.2387  -19.6515   23.0145 C   0  0  0  0  0  0  0  0  0  0  0  0
  -17.7527  -28.1451   23.3784 C   0  0  0  0  0  0  0  0  0  0  0  0
  -23.0985  -25.1891   20.0316 C   0  0  0  0  0  0  0  0  0  0  0  0
  -25.3120  -25.6454   21.9386 C   0  0  0  0  0  0  0  0  0  0  0  0
  -19.0128  -27.6260   24.0663 C   0  0  0  0  0  0  0  0  0  0  0  0
  -32.6530  -16.5836   24.1390 C   0  0  0  0  0  0  0  0  0  0  0  0
  -20.2336  -28.4216   23.6151 C   0  0  0  0  0  0  0  0  0  0  0  0
  -31.8774  -15.5194   23.3591 C   0  0  0  0  0  0  0  0  0  0  0  0
  -31.7607  -17.7581   24.5367 C   0  0  0  0  0  0  0  0  0  0  0  0
  -30.2396  -17.3094   22.6515 C   0  0  0  0  0  0  0  0  0  0  0  0
  -20.4607  -28.2749   22.1057 C   0  0  1  0  0  0  0  0  0  0  0  0
  -22.8466  -25.3761   21.5245 C   0  0  1  0  0  0  0  0  0  0  0  0
  -31.1112  -16.1368   22.1728 C   0  0  2  0  0  0  0  0  0  0  0  0
  -29.0281  -20.4793   19.4421 C   0  0  0  0  0  0  0  0  0  0  0  0
  -27.9234  -20.4859   24.9461 C   0  0  0  0  0  0  0  0  0  0  0  0
  -30.3561  -27.7436   18.3226 C   0  0  0  0  0  0  0  0  0  0  0  0
  -24.4611  -26.4469   25.7206 C   0  0  0  0  0  0  0  0  0  0  0  0
  -26.1118  -24.8308   26.6859 C   0  0  0  0  0  0  0  0  0  0  0  0
  -23.6936  -24.2277   26.5812 C   0  0  0  0  0  0  0  0  0  0  0  0
  -25.4472  -20.3916   22.0590 C   0  0  0  0  0  0  0  0  0  0  0  0
  -29.3465  -25.5018   18.8596 C   0  0  0  0  0  0  0  0  0  0  0  0
  -25.0517  -24.2787   24.4493 C   0  0  1  0  0  0  0  0  0  0  0  0
  -26.6495  -20.8502   24.1998 C   0  0  2  0  0  0  0  0  0  0  0  0
  -29.1794  -27.0136   18.9490 C   0  0  2  0  0  0  0  0  0  1  0  0
  -24.8317  -24.9545   25.8322 C   0  0  0  0  0  0  0  0  0  0  0  0
  -29.0210  -14.8903   21.7746 N   0  0  0  0  0  0  0  0  0  0  0  0
  -30.3018  -15.0953   21.4230 N   0  0  0  0  0  0  0  0  0  0  0  0
  -24.0215  -25.0613   22.3398 N   0  0  0  0  0  0  0  0  0  0  0  0
  -31.0703  -18.2944   23.3617 N   0  0  0  0  0  0  0  0  0  0  0  0
  -31.9837  -14.3833   19.9147 N   0  0  0  0  0  0  0  0  0  0  0  0
  -28.4273  -11.8387   18.7865 N   0  0  0  0  0  0  0  0  0  0  0  0
  -30.5597  -20.0398   21.8600 N   0  0  0  0  0  0  0  0  0  0  0  0
  -21.0720  -26.9973   21.8084 N   0  0  0  0  0  0  0  0  0  0  0  0
  -25.3773  -22.8585   24.5233 N   0  0  0  0  0  0  0  0  0  0  0  0
  -26.6541  -20.1420   22.8885 N   0  3  0  0  0  0  0  0  0  0  0  0
  -30.6253  -12.2836   18.3075 O   0  0  0  0  0  0  0  0  0  0  0  0
  -23.2904  -27.6012   22.1780 O   0  0  0  0  0  0  0  0  0  0  0  0
  -22.7724  -23.8883   23.9209 O   0  0  0  0  0  0  0  0  0  0  0  0
  -27.4072  -23.0048   23.4119 O   0  0  0  0  0  0  0  0  0  0  0  0
  -31.9558  -20.4065   23.6760 O   0  0  0  0  0  0  0  0  0  0  0  0
  -23.3929  -11.9739   21.1680 O   0  0  0  0  0  0  0  0  0  0  0  0
  -30.5189  -25.1257   19.5740 O   0  0  0  0  0  0  0  0  0  0  0  0
  -27.9993  -27.3984   18.2449 O   0  0  0  0  0  0  0  0  0  1  0  0
  -22.6894   -6.5099   20.9351 F   0  0  0  0  0  0  0  0  0  0  0  0
  -24.2531  -10.5253   18.9762 F   0  0  0  0  0  0  0  0  0  0  0  0
  1  2  1  0  0  0  0
  1  5  2  0  0  0  0
  2  6  2  0  0  0  0
  3  9  2  0  0  0  0
  3 18  1  0  0  0  0
  4 10  1  0  0  0  0
  4 18  2  0  0  0  0
  5 20  1  0  0  0  0
  6 22  1  0  0  0  0
  7 11  2  0  0  0  0
  7 21  1  0  0  0  0
  8 12  2  0  0  0  0
  8 25  1  0  0  0  0
  9 26  1  0  0  0  0
 10 26  2  0  0  0  0
 11 27  1  0  0  0  0
 12 28  1  0  0  0  0
 13 14  2  0  0  0  0
 13 29  1  0  0  0  0
 14 30  1  0  0  0  0
 15 23  1  0  0  0  0
 15 27  2  0  0  0  0
 16 24  1  0  0  0  0
 16 28  2  0  0  0  0
 17 30  2  0  0  0  0
 17 31  1  0  0  0  0
 18 32  1  0  0  0  0
 19 32  1  0  0  0  0
 19 33  2  0  0  0  0
 19 34  1  0  0  0  0
 20 22  2  0  0  0  0
 20 39  1  0  0  0  0
 21 23  2  0  0  0  0
 21 40  1  0  0  0  0
 22 48  1  0  0  0  0
 23 41  1  0  0  0  0
 24 25  2  0  0  0  0
 24 51  1  0  0  0  0
 25 69  1  0  0  0  0
 26 78  1  0  0  0  0
 27 80  1  0  0  0  0
 28 79  1  0  0  0  0
 29 31  2  0  0  0  0
 29 78  1  0  0  0  0
 30 81  1  0  0  0  0
 31 82  1  0  0  0  0
 32 63  2  0  0  0  0
 33 64  1  0  0  0  0
 33 67  1  0  0  0  0
 34 68  1  0  0  0  0
 34 73  2  0  0  0  0
 35 49  1  0  0  0  0
 35 70  1  0  0  0  0
 35 74  2  0  0  0  0
 36 59  1  0  0  0  0
 36 65  1  0  0  0  0
 36 75  2  0  0  0  0
 37 60  1  0  0  0  0
 37 71  1  0  0  0  0
 37 76  2  0  0  0  0
 38 66  1  0  0  0  0
 38 69  1  0  0  0  0
 38 77  2  0  0  0  0
 39 42  1  0  0  0  0
 40 49  1  0  0  0  0
 41 65  1  0  0  0  0
 42 44  1  0  0  0  0
 43 45  1  0  0  0  0
 43 46  1  0  0  0  0
 44 48  1  0  0  0  0
 45 50  1  0  0  0  0
 46 66  1  0  0  0  0
 47 50  1  0  0  0  0
 47 66  1  0  0  0  0
 48 70  1  0  0  0  0
 49 65  1  0  0  0  0
 50 64  1  0  0  0  0
 52 60  1  0  0  0  0
 53 61  1  0  0  0  0
 54 62  1  0  0  0  0
 55 62  1  0  0  0  0
 56 62  1  0  0  0  0
 57 72  1  0  0  0  0
 58 61  1  0  0  0  0
 58 79  1  0  0  0  0
 59 62  1  0  0  0  0
 59 71  1  0  0  0  0
 60 72  1  0  0  0  0
 61 80  1  0  0  0  0
 63 64  1  0  0  0  0
M  CHG  1  72   1
M  ISO  4  38 100  61 101  69 100  80 101
M  END
> <Batch ID>
0112

> <Smiles>
CNC(C)C(=O)NC(C(=O)N1Cc2cc([101O:1][101CH:1](C)COc3ccc([100NH:0][100C:0](=O)N4CCCC(n5nc(-c6ccc(Oc7ccc(F)cc7F)cc6)c(C(N)=O)c5N)C4)c(C)c3)ccc2CC1C(=O)NC1CCCc2ccccc21)C(C)(C)C

> <Shape>
0.240

> <Color>
0.078

> <Negative vol penalty>
0.000

$$$$

  -OEChem-04052320033D

 84 92  0     1  0  0  0  0  0999 V2000
  -25.8072  -37.6106   22.1522 C   0  0  0  0  0  0  0  0  0  0  0  0
  -26.5561  -36.4959   21.7887 C   0  0  0  0  0  0  0  0  0  0  0  0
  -26.7687  -12.7799   20.5708 C   0  0  0  0  0  0  0  0  0  0  0  0
  -25.3537  -14.2641   19.2932 C   0  0  0  0  0  0  0  0  0  0  0  0
  -24.7037  -37.4640   22.9916 C   0  0  0  0  0  0  0  0  0  0  0  0
  -26.2025  -35.2341   22.2654 C   0  0  0  0  0  0  0  0  0  0  0  0
  -26.7312  -29.8992   19.3049 C   0  0  0  0  0  0  0  0  0  0  0  0
  -25.8814  -11.7301   20.3339 C   0  0  0  0  0  0  0  0  0  0  0  0
  -24.4664  -13.2142   19.0562 C   0  0  0  0  0  0  0  0  0  0  0  0
  -27.6916  -28.8898   19.3550 C   0  0  0  0  0  0  0  0  0  0  0  0
  -22.9098  -10.6608   21.5384 C   0  0  0  0  0  0  0  0  0  0  0  0
  -22.5701   -9.8445   22.6171 C   0  0  0  0  0  0  0  0  0  0  0  0
  -26.3233  -27.6742   20.9264 C   0  0  0  0  0  0  0  0  0  0  0  0
  -23.4648   -7.9283   21.4488 C   0  0  0  0  0  0  0  0  0  0  0  0
  -26.9563  -24.2998   22.5553 C   0  0  0  0  0  0  0  0  0  0  0  0
  -26.5048  -14.0470   20.0505 C   0  0  0  0  0  0  0  0  0  0  0  0
  -28.5251  -15.5066   19.5070 C   0  0  0  0  0  0  0  0  0  0  0  0
  -24.3306  -36.1985   23.4710 C   0  0  0  0  0  0  0  0  0  0  0  0
  -25.5627  -29.8087   20.0747 C   0  0  0  0  0  0  0  0  0  0  0  0
  -25.0937  -35.0707   23.1131 C   0  0  0  0  0  0  0  0  0  0  0  0
  -25.3484  -28.6826   20.8823 C   0  0  0  0  0  0  0  0  0  0  0  0
  -24.7303  -11.9472   19.5766 C   0  0  0  0  0  0  0  0  0  0  0  0
  -27.4891  -27.7785   20.1680 C   0  0  0  0  0  0  0  0  0  0  0  0
  -23.5270  -10.1110   20.4148 C   0  0  0  0  0  0  0  0  0  0  0  0
  -22.8476   -8.4783   22.5724 C   0  0  0  0  0  0  0  0  0  0  0  0
  -23.8045   -8.7447   20.3700 C   0  0  0  0  0  0  0  0  0  0  0  0
  -27.4206  -15.1320   20.2954 C   0  0  0  0  0  0  0  0  0  0  0  0
  -27.6162  -24.8685   21.4494 C   0  0  0  0  0  0  0  0  0  0  0  0
  -26.2495  -23.2463   22.0289 C   0  0  0  0  0  0  0  0  0  0  0  0
  -29.0644  -16.5864   20.1625 C   0  0  0  0  0  0  0  0  0  0  0  0
  -29.0193  -14.9301   18.2908 C   0  0  0  0  0  0  0  0  0  0  0  0
  -24.2789  -31.5349   22.4148 C   0  0  0  0  0  0  0  0  0  0  0  0
  -21.7907  -29.4894   22.0313 C   0  0  0  0  0  0  0  0  0  0  0  0
  -20.6856  -26.4362   20.9808 C   0  0  0  0  0  0  0  0  0  0  0  0
  -26.7642  -20.6404   23.9208 C   0  0  0  0  0  0  0  0  0  0  0  0
  -23.1580  -36.0961   24.4140 C   0  0  0  0  0  0  0  0  0  0  0  0
  -24.5241  -30.8933   19.9890 C   0  0  0  0  0  0  0  0  0  0  0  0
  -24.1015  -28.5279   21.7127 C   0  0  0  0  0  0  0  0  0  0  0  0
  -22.6272  -34.6738   24.5738 C   0  0  0  0  0  0  0  0  0  0  0  0
  -29.5161  -18.4674   24.5384 C   0  0  0  0  0  0  0  0  0  0  0  0
  -23.7775  -33.6963   24.7937 C   0  0  0  0  0  0  0  0  0  0  0  0
  -29.3908  -17.3999   23.4499 C   0  0  0  0  0  0  0  0  0  0  0  0
  -28.1485  -18.9206   25.0445 C   0  0  0  0  0  0  0  0  0  0  0  0
  -27.0922  -18.3045   22.9048 C   0  0  0  0  0  0  0  0  0  0  0  0
  -24.7270  -33.6820   23.5897 C   0  0  1  0  0  0  0  0  0  0  0  0
  -23.6083  -30.9414   21.2082 C   0  0  1  0  0  0  0  0  0  0  0  0
  -28.4441  -17.8562   22.3235 C   0  0  2  0  0  0  0  0  0  0  0  0
  -29.9960  -25.6711   21.6386 C   0  0  0  0  0  0  0  0  0  0  0  0
  -18.6070  -25.0382   20.8311 C   0  0  0  0  0  0  0  0  0  0  0  0
  -25.3195  -19.4932   18.7465 C   0  0  0  0  0  0  0  0  0  0  0  0
  -27.6563  -19.3085   17.8710 C   0  0  0  0  0  0  0  0  0  0  0  0
  -21.9650  -28.9143   25.0228 C   0  0  0  0  0  0  0  0  0  0  0  0
  -20.5615  -26.8764   24.6420 C   0  0  0  0  0  0  0  0  0  0  0  0
  -19.6368  -29.1375   24.1373 C   0  0  0  0  0  0  0  0  0  0  0  0
  -20.8540  -26.2943   18.0294 C   0  0  0  0  0  0  0  0  0  0  0  0
  -25.3605  -22.2600   22.6696 C   0  0  0  0  0  0  0  0  0  0  0  0
  -27.0505  -21.2802   19.3048 C   0  0  0  0  0  0  0  0  0  0  0  0
  -26.0082  -22.3274   19.7026 C   0  0  0  0  0  0  0  0  0  0  0  0
  -28.5378  -26.0666   21.4430 C   0  0  1  0  0  0  0  0  0  1  0  0
  -21.4040  -28.1542   22.6200 C   0  0  1  0  0  0  0  0  0  0  0  0
  -19.5046  -26.0356   20.1153 C   0  0  2  0  0  0  0  0  0  0  0  0
  -26.5364  -20.2785   18.2553 C   0  0  0  0  0  0  0  0  0  0  0  0
  -20.9163  -28.2741   24.0915 C   0  0  0  0  0  0  0  0  0  0  0  0
  -27.2663  -15.9105   21.3698 N   0  0  0  0  0  0  0  0  0  0  0  0
  -27.3523  -24.2292   20.3068 N   0  0  0  0  0  0  0  0  0  0  0  0
  -26.5188  -23.2478   20.6918 N   0  0  0  0  0  0  0  0  0  0  0  0
  -28.2810  -16.7850   21.2611 N   0  0  0  0  0  0  0  0  0  0  0  0
  -23.1185  -29.6181   21.5997 N   0  0  0  0  0  0  0  0  0  0  0  0
  -27.2999  -19.3419   23.9272 N   0  0  0  0  0  0  0  0  0  0  0  0
  -30.1277  -17.3758   19.9006 N   0  0  0  0  0  0  0  0  0  0  0  0
  -28.3459  -13.8245   17.7536 N   0  0  0  0  0  0  0  0  0  0  0  0
  -24.1584  -32.9084   22.5067 N   0  0  0  0  0  0  0  0  0  0  0  0
  -20.4210  -27.5762   21.7100 N   0  0  0  0  0  0  0  0  0  0  0  0
  -25.9762  -20.9606   22.8221 N   0  0  0  0  0  0  0  0  0  0  0  0
  -19.9793  -25.4144   18.8465 N   0  3  0  0  0  0  0  0  0  0  0  0
  -30.0378  -15.3718   17.7068 O   0  0  0  0  0  0  0  0  0  0  0  0
  -24.8612  -30.8010   23.2046 O   0  0  0  0  0  0  0  0  0  0  0  0
  -20.9440  -30.3828   21.9506 O   0  0  0  0  0  0  0  0  0  0  0  0
  -21.7364  -25.7993   21.0101 O   0  0  0  0  0  0  0  0  0  0  0  0
  -26.9771  -21.4558   24.8245 O   0  0  0  0  0  0  0  0  0  0  0  0
  -23.8645  -10.9229   19.3449 O   0  0  0  0  0  0  0  0  0  0  0  0
  -28.4252  -26.7921   20.2194 O   0  0  0  0  0  0  0  0  0  1  0  0
  -22.5226   -7.6947   23.6090 F   0  0  0  0  0  0  0  0  0  0  0  0
  -24.3984   -8.2109   19.2939 F   0  0  0  0  0  0  0  0  0  0  0  0
  1  2  1  0  0  0  0
  1  5  2  0  0  0  0
  2  6  2  0  0  0  0
  3  8  2  0  0  0  0
  3 16  1  0  0  0  0
  4  9  1  0  0  0  0
  4 16  2  0  0  0  0
  5 18  1  0  0  0  0
  6 20  1  0  0  0  0
  7 10  2  0  0  0  0
  7 19  1  0  0  0  0
  8 22  1  0  0  0  0
  9 22  2  0  0  0  0
 10 23  1  0  0  0  0
 11 12  2  0  0  0  0
 11 24  1  0  0  0  0
 12 25  1  0  0  0  0
 13 21  1  0  0  0  0
 13 23  2  0  0  0  0
 14 25  2  0  0  0  0
 14 26  1  0  0  0  0
 15 28  1  0  0  0  0
 15 29  2  0  0  0  0
 16 27  1  0  0  0  0
 17 27  1  0  0  0  0
 17 30  2  0  0  0  0
 17 31  1  0  0  0  0
 18 20  2  0  0  0  0
 18 36  1  0  0  0  0
 19 21  2  0  0  0  0
 19 37  1  0  0  0  0
 20 45  1  0  0  0  0
 21 38  1  0  0  0  0
 22 81  1  0  0  0  0
 23 82  1  0  0  0  0
 24 26  2  0  0  0  0
 24 81  1  0  0  0  0
 25 83  1  0  0  0  0
 26 84  1  0  0  0  0
 27 64  2  0  0  0  0
 28 59  1  0  0  0  0
 28 65  2  0  0  0  0
 29 56  1  0  0  0  0
 29 66  1  0  0  0  0
 30 67  1  0  0  0  0
 30 70  1  0  0  0  0
 31 71  1  0  0  0  0
 31 76  2  0  0  0  0
 32 46  1  0  0  0  0
 32 72  1  0  0  0  0
 32 77  2  0  0  0  0
 33 60  1  0  0  0  0
 33 68  1  0  0  0  0
 33 78  2  0  0  0  0
 34 61  1  0  0  0  0
 34 73  1  0  0  0  0
 34 79  2  0  0  0  0
 35 69  1  0  0  0  0
 35 74  1  0  0  0  0
 35 80  2  0  0  0  0
 36 39  1  0  0  0  0
 37 46  1  0  0  0  0
 38 68  1  0  0  0  0
 39 41  1  0  0  0  0
 40 42  1  0  0  0  0
 40 43  1  0  0  0  0
 41 45  1  0  0  0  0
 42 47  1  0  0  0  0
 43 69  1  0  0  0  0
 44 47  1  0  0  0  0
 44 69  1  0  0  0  0
 45 72  1  0  0  0  0
 46 68  1  0  0  0  0
 47 67  1  0  0  0  0
 48 59  1  0  0  0  0
 49 61  1  0  0  0  0
 50 62  1  0  0  0  0
 51 62  1  0  0  0  0
 52 63  1  0  0  0  0
 53 63  1  0  0  0  0
 54 63  1  0  0  0  0
 55 75  1  0  0  0  0
 56 74  1  0  0  0  0
 57 58  1  0  0  0  0
 57 62  1  0  0  0  0
 58 66  1  0  0  0  0
 59 82  1  0  0  0  0
 60 63  1  0  0  0  0
 60 73  1  0  0  0  0
 61 75  1  0  0  0  0
 64 67  1  0  0  0  0
 65 66  1  0  0  0  0
M  CHG  1  75   1
M  ISO  4  35 100  59 101  74 100  82 101
M  END
> <Batch ID>
0112

> <Smiles>
CNC(C)C(=O)NC(C(=O)N1Cc2cc([101O:1][101CH:1](C)c3cc(C[100NH:0][100C:0](=O)N4CCCC(n5nc(-c6ccc(Oc7ccc(F)cc7F)cc6)c(C(N)=O)c5N)C4)n(CCC(C)C)n3)ccc2CC1C(=O)NC1CCCc2ccccc21)C(C)(C)C

> <Shape>
0.262

> <Color>
0.087

> <Negative vol penalty>
0.000

$$$$

  -OEChem-04052320033D

 81 89  0     1  0  0  0  0  0999 V2000
  -19.5619  -30.4430   24.0096 C   0  0  0  0  0  0  0  0  0  0  0  0
  -20.9141  -30.1297   23.9150 C   0  0  0  0  0  0  0  0  0  0  0  0
  -24.9682  -13.8542   21.4416 C   0  0  0  0  0  0  0  0  0  0  0  0
  -26.6498  -13.3707   19.7756 C   0  0  0  0  0  0  0  0  0  0  0  0
  -18.6035  -29.5275   23.5768 C   0  0  0  0  0  0  0  0  0  0  0  0
  -21.3086  -28.9003   23.3886 C   0  0  0  0  0  0  0  0  0  0  0  0
  -25.1824  -29.3396   20.0282 C   0  0  0  0  0  0  0  0  0  0  0  0
  -24.2155  -12.7671   20.9975 C   0  0  0  0  0  0  0  0  0  0  0  0
  -25.8971  -12.2835   19.3315 C   0  0  0  0  0  0  0  0  0  0  0  0
  -26.4731  -29.5173   20.5246 C   0  0  0  0  0  0  0  0  0  0  0  0
  -22.0242   -9.9029   20.5396 C   0  0  0  0  0  0  0  0  0  0  0  0
  -21.4789   -9.0547   21.5033 C   0  0  0  0  0  0  0  0  0  0  0  0
  -26.8994  -27.1599   20.2434 C   0  0  0  0  0  0  0  0  0  0  0  0
  -30.6008  -26.9897   19.6856 C   0  0  0  0  0  0  0  0  0  0  0  0
  -23.6974   -8.5559   22.3197 C   0  0  0  0  0  0  0  0  0  0  0  0
  -26.1853  -14.1561   20.8306 C   0  0  0  0  0  0  0  0  0  0  0  0
  -27.9534  -15.2762   22.2889 C   0  0  0  0  0  0  0  0  0  0  0  0
  -18.9868  -28.2901   23.0359 C   0  0  0  0  0  0  0  0  0  0  0  0
  -24.7358  -28.0667   19.6446 C   0  0  0  0  0  0  0  0  0  0  0  0
  -20.3544  -27.9668   22.9494 C   0  0  0  0  0  0  0  0  0  0  0  0
  -25.6043  -26.9696   19.7380 C   0  0  0  0  0  0  0  0  0  0  0  0
  -29.9176  -26.5873   20.8596 C   0  0  0  0  0  0  0  0  0  0  0  0
  -24.6800  -11.9817   19.9425 C   0  0  0  0  0  0  0  0  0  0  0  0
  -27.3310  -28.4270   20.6344 C   0  0  0  0  0  0  0  0  0  0  0  0
  -23.4062  -10.0776   20.4659 C   0  0  0  0  0  0  0  0  0  0  0  0
  -22.3155   -8.3812   22.3934 C   0  0  0  0  0  0  0  0  0  0  0  0
  -24.2428   -9.4041   21.3559 C   0  0  0  0  0  0  0  0  0  0  0  0
  -26.9629  -15.2793   21.2886 C   0  0  0  0  0  0  0  0  0  0  0  0
  -31.1354  -25.8572   19.1120 C   0  0  0  0  0  0  0  0  0  0  0  0
  -30.0557  -25.2210   20.9679 C   0  0  0  0  0  0  0  0  0  0  0  0
  -28.3867  -16.5783   22.3471 C   0  0  0  0  0  0  0  0  0  0  0  0
  -28.4385  -14.1932   23.0935 C   0  0  0  0  0  0  0  0  0  0  0  0
  -22.3959  -26.0678   20.5248 C   0  0  0  0  0  0  0  0  0  0  0  0
  -23.5758  -24.3700   17.9212 C   0  0  0  0  0  0  0  0  0  0  0  0
  -21.2796  -22.2625   18.3579 C   0  0  0  0  0  0  0  0  0  0  0  0
  -30.0668  -21.1488   19.8507 C   0  0  0  0  0  0  0  0  0  0  0  0
  -17.9133  -27.3137   22.6251 C   0  0  0  0  0  0  0  0  0  0  0  0
  -23.3495  -27.9016   19.0830 C   0  0  0  0  0  0  0  0  0  0  0  0
  -25.1742  -25.5846   19.3360 C   0  0  0  0  0  0  0  0  0  0  0  0
  -18.4251  -26.1854   21.7332 C   0  0  0  0  0  0  0  0  0  0  0  0
  -26.4925  -20.7785   20.2565 C   0  0  0  0  0  0  0  0  0  0  0  0
  -19.7123  -25.5973   22.3022 C   0  0  0  0  0  0  0  0  0  0  0  0
  -26.3814  -19.3035   20.6475 C   0  0  0  0  0  0  0  0  0  0  0  0
  -27.5858  -20.9921   19.2141 C   0  0  0  0  0  0  0  0  0  0  0  0
  -28.8203  -19.0120   20.0079 C   0  0  0  0  0  0  0  0  0  0  0  0
  -20.8226  -26.6534   22.3612 C   0  0  1  0  0  0  0  0  0  0  0  0
  -22.8336  -26.4654   19.1436 C   0  0  1  0  0  0  0  0  0  0  0  0
  -27.7466  -18.7320   21.0749 C   0  0  2  0  0  0  0  0  0  0  0  0
  -31.9376  -25.7085   17.8804 C   0  0  0  0  0  0  0  0  0  0  0  0
  -29.5443  -24.2905   21.9967 C   0  0  0  0  0  0  0  0  0  0  0  0
  -30.0810  -28.0412   22.9096 C   0  0  0  0  0  0  0  0  0  0  0  0
  -19.5643  -20.6034   17.5817 C   0  0  0  0  0  0  0  0  0  0  0  0
  -22.5840  -26.4718   15.9453 C   0  0  0  0  0  0  0  0  0  0  0  0
  -20.7382  -24.9033   15.3120 C   0  0  0  0  0  0  0  0  0  0  0  0
  -23.1147  -24.2503   14.9267 C   0  0  0  0  0  0  0  0  0  0  0  0
  -22.5262  -20.0726   19.9101 C   0  0  0  0  0  0  0  0  0  0  0  0
  -31.1830  -23.3608   19.6341 C   0  0  0  0  0  0  0  0  0  0  0  0
  -29.1755  -27.4963   21.8123 C   0  0  1  0  0  0  0  0  0  1  0  0
  -22.2093  -24.2979   17.2868 C   0  0  1  0  0  0  0  0  0  0  0  0
  -20.9871  -20.7987   18.0818 C   0  0  2  0  0  0  0  0  0  0  0  0
  -22.1650  -24.9890   15.8948 C   0  0  0  0  0  0  0  0  0  0  0  0
  -26.7776  -16.4875   20.7501 N   0  0  0  0  0  0  0  0  0  0  0  0
  -30.7980  -24.7881   19.9003 N   0  0  0  0  0  0  0  0  0  0  0  0
  -27.6576  -17.2558   21.4146 N   0  0  0  0  0  0  0  0  0  0  0  0
  -23.8457  -25.4908   18.7169 N   0  0  0  0  0  0  0  0  0  0  0  0
  -28.8625  -20.4433   19.6921 N   0  0  0  0  0  0  0  0  0  0  0  0
  -29.3164  -17.1983   23.1045 N   0  0  0  0  0  0  0  0  0  0  0  0
  -27.8841  -12.9199   22.9046 N   0  0  0  0  0  0  0  0  0  0  0  0
  -21.3926  -26.8614   21.0473 N   0  0  0  0  0  0  0  0  0  0  0  0
  -21.8435  -22.8858   17.2649 N   0  0  0  0  0  0  0  0  0  0  0  0
  -30.0191  -22.4980   19.5195 N   0  0  0  0  0  0  0  0  0  0  0  0
  -21.1642  -19.9921   19.3223 N   0  3  0  0  0  0  0  0  0  0  0  0
  -29.3255  -14.3532   23.9660 O   0  0  0  0  0  0  0  0  0  0  0  0
  -22.9280  -25.1108   21.0752 O   0  0  0  0  0  0  0  0  0  0  0  0
  -24.3860  -23.4628   17.7124 O   0  0  0  0  0  0  0  0  0  0  0  0
  -21.0291  -22.8002   19.4343 O   0  0  0  0  0  0  0  0  0  0  0  0
  -31.1048  -20.6179   20.2596 O   0  0  0  0  0  0  0  0  0  0  0  0
  -23.9460  -10.9206   19.5090 O   0  0  0  0  0  0  0  0  0  0  0  0
  -28.5915  -28.5978   21.1180 O   0  0  0  0  0  0  0  0  0  1  0  0
  -21.7916   -7.5679   23.3198 F   0  0  0  0  0  0  0  0  0  0  0  0
  -25.5711   -9.5688   21.2907 F   0  0  0  0  0  0  0  0  0  0  0  0
  1  2  1  0  0  0  0
  1  5  2  0  0  0  0
  2  6  2  0  0  0  0
  3  8  2  0  0  0  0
  3 16  1  0  0  0  0
  4  9  1  0  0  0  0
  4 16  2  0  0  0  0
  5 18  1  0  0  0  0
  6 20  1  0  0  0  0
  7 10  2  0  0  0  0
  7 19  1  0  0  0  0
  8 23  1  0  0  0  0
  9 23  2  0  0  0  0
 10 24  1  0  0  0  0
 11 12  2  0  0  0  0
 11 25  1  0  0  0  0
 12 26  1  0  0  0  0
 13 21  1  0  0  0  0
 13 24  2  0  0  0  0
 14 22  1  0  0  0  0
 14 29  2  0  0  0  0
 15 26  2  0  0  0  0
 15 27  1  0  0  0  0
 16 28  1  0  0  0  0
 17 28  1  0  0  0  0
 17 31  2  0  0  0  0
 17 32  1  0  0  0  0
 18 20  2  0  0  0  0
 18 37  1  0  0  0  0
 19 21  2  0  0  0  0
 19 38  1  0  0  0  0
 20 46  1  0  0  0  0
 21 39  1  0  0  0  0
 22 30  2  0  0  0  0
 22 58  1  0  0  0  0
 23 78  1  0  0  0  0
 24 79  1  0  0  0  0
 25 27  2  0  0  0  0
 25 78  1  0  0  0  0
 26 80  1  0  0  0  0
 27 81  1  0  0  0  0
 28 62  2  0  0  0  0
 29 49  1  0  0  0  0
 29 63  1  0  0  0  0
 30 50  1  0  0  0  0
 30 63  1  0  0  0  0
 31 64  1  0  0  0  0
 31 67  1  0  0  0  0
 32 68  1  0  0  0  0
 32 73  2  0  0  0  0
 33 47  1  0  0  0  0
 33 69  1  0  0  0  0
 33 74  2  0  0  0  0
 34 59  1  0  0  0  0
 34 65  1  0  0  0  0
 34 75  2  0  0  0  0
 35 60  1  0  0  0  0
 35 70  1  0  0  0  0
 35 76  2  0  0  0  0
 36 66  1  0  0  0  0
 36 71  1  0  0  0  0
 36 77  2  0  0  0  0
 37 40  1  0  0  0  0
 38 47  1  0  0  0  0
 39 65  1  0  0  0  0
 40 42  1  0  0  0  0
 41 43  1  0  0  0  0
 41 44  1  0  0  0  0
 42 46  1  0  0  0  0
 43 48  1  0  0  0  0
 44 66  1  0  0  0  0
 45 48  1  0  0  0  0
 45 66  1  0  0  0  0
 46 69  1  0  0  0  0
 47 65  1  0  0  0  0
 48 64  1  0  0  0  0
 51 58  1  0  0  0  0
 52 60  1  0  0  0  0
 53 61  1  0  0  0  0
 54 61  1  0  0  0  0
 55 61  1  0  0  0  0
 56 72  1  0  0  0  0
 57 63  1  0  0  0  0
 57 71  1  0  0  0  0
 58 79  1  0  0  0  0
 59 61  1  0  0  0  0
 59 70  1  0  0  0  0
 60 72  1  0  0  0  0
 62 64  1  0  0  0  0
M  CHG  1  72   1
M  ISO  4  36 100  58 101  71 100  79 101
M  END
> <Batch ID>
0112

> <Smiles>
CNC(C)C(=O)NC(C(=O)N1Cc2cc([101O:1][101CH:1](C)c3cc(C)n(C[100NH:0][100C:0](=O)N4CCCC(n5nc(-c6ccc(Oc7ccc(F)cc7F)cc6)c(C(N)=O)c5N)C4)c3C)ccc2CC1C(=O)NC1CCCc2ccccc21)C(C)(C)C

> <Shape>
0.281

> <Color>
0.067

> <Negative vol penalty>
0.000

$$$$

  -OEChem-04052320033D

 86 94  0     1  0  0  0  0  0999 V2000
  -21.1775  -20.6230   24.0602 C   0  0  0  0  0  0  0  0  0  0  0  0
  -22.4650  -20.7428   23.5470 C   0  0  0  0  0  0  0  0  0  0  0  0
  -25.6544  -13.9407   20.9068 C   0  0  0  0  0  0  0  0  0  0  0  0
  -25.7630  -13.9241   18.4933 C   0  0  0  0  0  0  0  0  0  0  0  0
  -20.2309  -21.6139   23.8033 C   0  0  0  0  0  0  0  0  0  0  0  0
  -22.8064  -21.8532   22.7757 C   0  0  0  0  0  0  0  0  0  0  0  0
  -28.2341  -24.6842   22.5982 C   0  0  0  0  0  0  0  0  0  0  0  0
  -24.6846  -12.9389   20.8701 C   0  0  0  0  0  0  0  0  0  0  0  0
  -24.7932  -12.9222   18.4565 C   0  0  0  0  0  0  0  0  0  0  0  0
  -29.3067  -24.6012   21.7115 C   0  0  0  0  0  0  0  0  0  0  0  0
  -24.5812   -9.5867   20.4401 C   0  0  0  0  0  0  0  0  0  0  0  0
  -24.7188   -8.5185   21.3263 C   0  0  0  0  0  0  0  0  0  0  0  0
  -28.4678  -26.5272   20.5258 C   0  0  0  0  0  0  0  0  0  0  0  0
  -31.0297  -24.9422   15.8666 C   0  0  0  0  0  0  0  0  0  0  0  0
  -22.5809   -9.0609   22.3122 C   0  0  0  0  0  0  0  0  0  0  0  0
  -26.1936  -14.4334   19.7183 C   0  0  0  0  0  0  0  0  0  0  0  0
  -28.5911  -15.2991   19.8194 C   0  0  0  0  0  0  0  0  0  0  0  0
  -20.5636  -22.7418   23.0365 C   0  0  0  0  0  0  0  0  0  0  0  0
  -27.2626  -25.6844   22.4486 C   0  0  0  0  0  0  0  0  0  0  0  0
  -21.8630  -22.8595   22.5072 C   0  0  0  0  0  0  0  0  0  0  0  0
  -27.3851  -26.6223   21.4135 C   0  0  0  0  0  0  0  0  0  0  0  0
  -30.0606  -25.1881   14.9003 C   0  0  0  0  0  0  0  0  0  0  0  0
  -28.7335  -24.8607   15.1554 C   0  0  0  0  0  0  0  0  0  0  0  0
  -24.2540  -12.4296   19.6450 C   0  0  0  0  0  0  0  0  0  0  0  0
  -29.4221  -25.5210   20.6734 C   0  0  0  0  0  0  0  0  0  0  0  0
  -23.4434  -10.3921   20.4899 C   0  0  0  0  0  0  0  0  0  0  0  0
  -23.7187   -8.2555   22.2624 C   0  0  0  0  0  0  0  0  0  0  0  0
  -22.4432  -10.1292   21.4259 C   0  0  0  0  0  0  0  0  0  0  0  0
  -27.1951  -15.4687   19.7556 C   0  0  0  0  0  0  0  0  0  0  0  0
  -30.6233  -24.3719   17.0621 C   0  0  0  0  0  0  0  0  0  0  0  0
  -28.4300  -24.2939   16.3828 C   0  0  0  0  0  0  0  0  0  0  0  0
  -29.0921  -16.5779   19.8322 C   0  0  0  0  0  0  0  0  0  0  0  0
  -29.3658  -14.0934   19.8630 C   0  0  0  0  0  0  0  0  0  0  0  0
  -24.1344  -25.7068   21.8854 C   0  0  0  0  0  0  0  0  0  0  0  0
  -24.4639  -28.8968   22.3734 C   0  0  0  0  0  0  0  0  0  0  0  0
  -26.5023  -31.6338   22.3639 C   0  0  0  0  0  0  0  0  0  0  0  0
  -26.9365  -21.6678   17.7582 C   0  0  0  0  0  0  0  0  0  0  0  0
  -19.4931  -23.7637   22.7461 C   0  0  0  0  0  0  0  0  0  0  0  0
  -26.1261  -25.7767   23.4295 C   0  0  0  0  0  0  0  0  0  0  0  0
  -26.3800  -27.7275   21.2217 C   0  0  0  0  0  0  0  0  0  0  0  0
  -20.0425  -25.0923   22.2330 C   0  0  0  0  0  0  0  0  0  0  0  0
  -27.9579  -21.0308   21.1712 C   0  0  0  0  0  0  0  0  0  0  0  0
  -21.0838  -24.8545   21.1440 C   0  0  0  0  0  0  0  0  0  0  0  0
  -28.0091  -19.5021   21.1930 C   0  0  0  0  0  0  0  0  0  0  0  0
  -26.7965  -21.5329   20.3185 C   0  0  0  0  0  0  0  0  0  0  0  0
  -26.8427  -19.4910   18.9393 C   0  0  0  0  0  0  0  0  0  0  0  0
  -22.2786  -24.0613   21.6869 C   0  0  1  0  0  0  0  0  0  0  0  0
  -24.9170  -26.5234   22.8746 C   0  0  1  0  0  0  0  0  0  0  0  0
  -28.0092  -18.9210   19.7667 C   0  0  2  0  0  0  0  0  0  0  0  0
  -30.4727  -25.8012   13.6020 C   0  0  0  0  0  0  0  0  0  0  0  0
  -26.4773  -34.1100   22.7701 C   0  0  0  0  0  0  0  0  0  0  0  0
  -32.8651  -25.0667   18.1440 C   0  0  0  0  0  0  0  0  0  0  0  0
  -32.2479  -22.6675   17.9428 C   0  0  0  0  0  0  0  0  0  0  0  0
  -23.1037  -29.3232   19.6756 C   0  0  0  0  0  0  0  0  0  0  0  0
  -23.9496  -31.6795   19.7001 C   0  0  0  0  0  0  0  0  0  0  0  0
  -22.3753  -30.9029   21.4725 C   0  0  0  0  0  0  0  0  0  0  0  0
  -27.3970  -24.0854   13.2131 C   0  0  0  0  0  0  0  0  0  0  0  0
  -27.0100  -26.3574   14.1810 C   0  0  0  0  0  0  0  0  0  0  0  0
  -28.4580  -31.4081   24.5737 C   0  0  0  0  0  0  0  0  0  0  0  0
  -27.0225  -23.9183   16.7165 C   0  0  0  0  0  0  0  0  0  0  0  0
  -31.0095  -24.1451   19.5585 C   0  0  0  0  0  0  0  0  0  1  0  0
  -24.7681  -30.0868   21.4958 C   0  0  1  0  0  0  0  0  0  0  0  0
  -26.7103  -32.7384   23.3842 C   0  0  2  0  0  0  0  0  0  0  0  0
  -31.6687  -24.0850   18.1563 C   0  0  0  0  0  0  0  0  0  0  0  0
  -23.5673  -30.4762   20.5882 C   0  0  0  0  0  0  0  0  0  0  0  0
  -26.8324  -16.7539   19.7299 N   0  0  0  0  0  0  0  0  0  0  0  0
  -29.3439  -24.0402   17.3462 N   0  0  0  0  0  0  0  0  0  0  0  0
  -28.0079  -17.4035   19.7779 N   0  0  0  0  0  0  0  0  0  0  0  0
  -25.2832  -27.7719   22.2028 N   0  0  0  0  0  0  0  0  0  0  0  0
  -26.8656  -20.9572   18.9679 N   0  0  0  0  0  0  0  0  0  0  0  0
  -30.3499  -17.0654   19.8848 N   0  0  0  0  0  0  0  0  0  0  0  0
  -28.6916  -12.8649   19.8419 N   0  0  0  0  0  0  0  0  0  0  0  0
  -23.1498  -24.9233   22.4566 N   0  0  0  0  0  0  0  0  0  0  0  0
  -25.2110  -31.1509   22.3900 N   0  0  0  0  0  0  0  0  0  0  0  0
  -26.9466  -23.0526   17.8723 N   0  0  0  0  0  0  0  0  0  0  0  0
  -27.7320  -25.0993   14.1948 N   0  0  0  0  0  0  0  0  0  0  0  0
  -28.1002  -32.6934   23.9202 N   0  3  0  0  0  0  0  0  0  0  0  0
  -30.6180  -14.1053   19.9356 O   0  0  0  0  0  0  0  0  0  0  0  0
  -24.4029  -25.7832   20.6922 O   0  0  0  0  0  0  0  0  0  0  0  0
  -23.5380  -28.9654   23.1857 O   0  0  0  0  0  0  0  0  0  0  0  0
  -27.3949  -31.2414   21.6157 O   0  0  0  0  0  0  0  0  0  0  0  0
  -26.9922  -21.1093   16.6573 O   0  0  0  0  0  0  0  0  0  0  0  0
  -23.3079  -11.4518   19.6088 O   0  0  0  0  0  0  0  0  0  0  0  0
  -30.4678  -25.4419   19.8061 O   0  0  0  0  0  0  0  0  0  1  0  0
  -23.8503   -7.2287   23.1124 F   0  0  0  0  0  0  0  0  0  0  0  0
  -21.3474  -10.8988   21.4778 F   0  0  0  0  0  0  0  0  0  0  0  0
  1  2  1  0  0  0  0
  1  5  2  0  0  0  0
  2  6  2  0  0  0  0
  3  8  2  0  0  0  0
  3 16  1  0  0  0  0
  4  9  1  0  0  0  0
  4 16  2  0  0  0  0
  5 18  1  0  0  0  0
  6 20  1  0  0  0  0
  7 10  2  0  0  0  0
  7 19  1  0  0  0  0
  8 24  1  0  0  0  0
  9 24  2  0  0  0  0
 10 25  1  0  0  0  0
 11 12  2  0  0  0  0
 11 26  1  0  0  0  0
 12 27  1  0  0  0  0
 13 21  1  0  0  0  0
 13 25  2  0  0  0  0
 14 22  2  0  0  0  0
 14 30  1  0  0  0  0
 15 27  2  0  0  0  0
 15 28  1  0  0  0  0
 16 29  1  0  0  0  0
 17 29  1  0  0  0  0
 17 32  2  0  0  0  0
 17 33  1  0  0  0  0
 18 20  2  0  0  0  0
 18 38  1  0  0  0  0
 19 21  2  0  0  0  0
 19 39  1  0  0  0  0
 20 47  1  0  0  0  0
 21 40  1  0  0  0  0
 22 23  1  0  0  0  0
 22 50  1  0  0  0  0
 23 31  2  0  0  0  0
 23 76  1  0  0  0  0
 24 83  1  0  0  0  0
 25 84  1  0  0  0  0
 26 28  2  0  0  0  0
 26 83  1  0  0  0  0
 27 85  1  0  0  0  0
 28 86  1  0  0  0  0
 29 66  2  0  0  0  0
 30 64  1  0  0  0  0
 30 67  2  0  0  0  0
 31 60  1  0  0  0  0
 31 67  1  0  0  0  0
 32 68  1  0  0  0  0
 32 71  1  0  0  0  0
 33 72  1  0  0  0  0
 33 78  2  0  0  0  0
 34 48  1  0  0  0  0
 34 73  1  0  0  0  0
 34 79  2  0  0  0  0
 35 62  1  0  0  0  0
 35 69  1  0  0  0  0
 35 80  2  0  0  0  0
 36 63  1  0  0  0  0
 36 74  1  0  0  0  0
 36 81  2  0  0  0  0
 37 70  1  0  0  0  0
 37 75  1  0  0  0  0
 37 82  2  0  0  0  0
 38 41  1  0  0  0  0
 39 48  1  0  0  0  0
 40 69  1  0  0  0  0
 41 43  1  0  0  0  0
 42 44  1  0  0  0  0
 42 45  1  0  0  0  0
 43 47  1  0  0  0  0
 44 49  1  0  0  0  0
 45 70  1  0  0  0  0
 46 49  1  0  0  0  0
 46 70  1  0  0  0  0
 47 73  1  0  0  0  0
 48 69  1  0  0  0  0
 49 68  1  0  0  0  0
 51 63  1  0  0  0  0
 52 64  1  0  0  0  0
 53 64  1  0  0  0  0
 54 65  1  0  0  0  0
 55 65  1  0  0  0  0
 56 65  1  0  0  0  0
 57 76  1  0  0  0  0
 58 76  1  0  0  0  0
 59 77  1  0  0  0  0
 60 75  1  0  0  0  0
 61 64  1  0  0  0  0
 61 84  1  0  0  0  0
 62 65  1  0  0  0  0
 62 74  1  0  0  0  0
 63 77  1  0  0  0  0
 66 68  1  0  0  0  0
M  CHG  1  77   1
M  ISO  4  37 100  61 101  75 100  84 101
M  END
> <Batch ID>
0112

> <Smiles>
CNC(C)C(=O)NC(C(=O)N1Cc2cc([101O:1][101CH2:1]C(C)(C)c3cc(C)c(N(C)C)c(C[100NH:0][100C:0](=O)N4CCCC(n5nc(-c6ccc(Oc7ccc(F)cc7F)cc6)c(C(N)=O)c5N)C4)n3)ccc2CC1C(=O)NC1CCCc2ccccc21)C(C)(C)C

> <Shape>
0.237

> <Color>
0.070

> <Negative vol penalty>
0.000

$$$$

  -OEChem-04052320033D

 87 95  0     1  0  0  0  0  0999 V2000
  -32.0255  -14.1894   21.6529 C   0  0  0  0  0  0  0  0  0  0  0  0
  -31.2832  -15.3462   21.4382 C   0  0  0  0  0  0  0  0  0  0  0  0
  -29.5374  -28.6094   20.7086 C   0  0  0  0  0  0  0  0  0  0  0  0
  -27.8743  -27.3819   19.4579 C   0  0  0  0  0  0  0  0  0  0  0  0
  -31.4808  -12.9448   21.3397 C   0  0  0  0  0  0  0  0  0  0  0  0
  -29.9960  -15.2592   20.9091 C   0  0  0  0  0  0  0  0  0  0  0  0
  -25.2184  -18.8528   22.2380 C   0  0  0  0  0  0  0  0  0  0  0  0
  -30.5070  -27.6803   20.3312 C   0  0  0  0  0  0  0  0  0  0  0  0
  -28.8439  -26.4529   19.0804 C   0  0  0  0  0  0  0  0  0  0  0  0
  -24.6660  -19.9566   21.5898 C   0  0  0  0  0  0  0  0  0  0  0  0
  -30.8039  -23.5595   18.0820 C   0  0  0  0  0  0  0  0  0  0  0  0
  -30.4716  -22.2071   18.1613 C   0  0  0  0  0  0  0  0  0  0  0  0
  -23.0527  -18.5150   20.5228 C   0  0  0  0  0  0  0  0  0  0  0  0
  -30.0851  -22.4414   20.5347 C   0  0  0  0  0  0  0  0  0  0  0  0
  -28.2211  -28.4601   20.2720 C   0  0  0  0  0  0  0  0  0  0  0  0
  -26.8602  -30.5982   19.9816 C   0  0  0  0  0  0  0  0  0  0  0  0
  -30.1827  -12.8417   20.8154 C   0  0  0  0  0  0  0  0  0  0  0  0
  -24.6981  -17.5682   22.0247 C   0  0  0  0  0  0  0  0  0  0  0  0
  -29.4339  -14.0121   20.5872 C   0  0  0  0  0  0  0  0  0  0  0  0
  -23.5986  -17.3969   21.1715 C   0  0  0  0  0  0  0  0  0  0  0  0
  -30.1602  -26.6021   19.5171 C   0  0  0  0  0  0  0  0  0  0  0  0
  -23.5848  -19.7875   20.7298 C   0  0  0  0  0  0  0  0  0  0  0  0
  -30.7768  -24.3529   19.2290 C   0  0  0  0  0  0  0  0  0  0  0  0
  -30.1122  -21.6481   19.3877 C   0  0  0  0  0  0  0  0  0  0  0  0
  -30.4174  -23.7938   20.4553 C   0  0  0  0  0  0  0  0  0  0  0  0
  -27.2189  -29.4192   20.6620 C   0  0  0  0  0  0  0  0  0  0  0  0
  -25.8690  -31.1524   20.7541 C   0  0  0  0  0  0  0  0  0  0  0  0
  -27.3767  -31.1436   18.7604 C   0  0  0  0  0  0  0  0  0  0  0  0
  -25.8444  -14.8531   20.8338 C   0  0  0  0  0  0  0  0  0  0  0  0
  -22.9804  -13.6751   21.7992 C   0  0  0  0  0  0  0  0  0  0  0  0
  -18.4384  -22.8147   22.9039 C   0  0  0  0  0  0  0  0  0  0  0  0
  -19.7126  -14.2787   22.5762 C   0  0  0  0  0  0  0  0  0  0  0  0
  -21.9609  -28.8331   24.6528 C   0  0  0  0  0  0  0  0  0  0  0  0
  -29.6543  -11.4777   20.4480 C   0  0  0  0  0  0  0  0  0  0  0  0
  -25.2883  -16.3914   22.7523 C   0  0  0  0  0  0  0  0  0  0  0  0
  -22.9902  -16.0415   20.9244 C   0  0  0  0  0  0  0  0  0  0  0  0
  -28.1422  -11.4457   20.2412 C   0  0  0  0  0  0  0  0  0  0  0  0
  -24.3482  -31.3981   25.2838 C   0  0  0  0  0  0  0  0  0  0  0  0
  -27.6976  -12.6161   19.3698 C   0  0  0  0  0  0  0  0  0  0  0  0
  -25.3223  -31.2882   24.1095 C   0  0  0  0  0  0  0  0  0  0  0  0
  -19.2062  -28.5998   22.7926 C   0  0  0  0  0  0  0  0  0  0  0  0
  -23.8452  -30.0271   25.7301 C   0  0  0  0  0  0  0  0  0  0  0  0
  -24.2323  -29.0933   23.4824 C   0  0  0  0  0  0  0  0  0  0  0  0
  -18.0198  -27.7279   22.4121 C   0  0  0  0  0  0  0  0  0  0  0  0
  -20.0769  -26.4107   22.5417 C   0  0  0  0  0  0  0  0  0  0  0  0
  -28.0248  -13.9569   20.0381 C   0  0  1  0  0  0  0  0  0  0  0  0
  -25.0057  -15.0600   22.0632 C   0  0  1  0  0  0  0  0  0  0  0  0
  -24.7237  -30.4544   22.9606 C   0  0  2  0  0  0  0  0  0  0  0  0
  -20.1771  -27.6275   23.4403 C   0  0  1  0  0  0  0  0  0  0  0  0
  -17.4102  -22.0121   23.6297 C   0  0  0  0  0  0  0  0  0  0  0  0
  -17.6103  -13.1114   23.2941 C   0  0  0  0  0  0  0  0  0  0  0  0
  -17.6172  -23.5709   18.7122 C   0  0  0  0  0  0  0  0  0  0  0  0
  -22.5950  -12.6278   18.9594 C   0  0  0  0  0  0  0  0  0  0  0  0
  -20.1618  -12.3361   19.4717 C   0  0  0  0  0  0  0  0  0  0  0  0
  -21.8685  -11.0517   20.7601 C   0  0  0  0  0  0  0  0  0  0  0  0
  -19.5730  -15.8293   25.0932 C   0  0  0  0  0  0  0  0  0  0  0  0
  -21.0843  -22.2201   19.7841 C   0  0  0  0  0  0  0  0  0  0  0  0
  -19.5854  -22.2202   19.4802 C   0  0  0  0  0  0  0  0  0  0  0  0
  -18.2691  -25.6801   20.9430 C   0  0  0  0  0  0  0  0  0  0  0  0
  -21.6530  -20.8069   19.7891 C   0  0  0  0  0  0  0  0  0  1  0  0
  -21.6155  -13.5336   21.1698 C   0  0  1  0  0  0  0  0  0  0  0  0
  -18.8606  -13.8442   23.7551 C   0  0  2  0  0  0  0  0  0  0  0  0
  -18.9462  -23.6304   19.4793 C   0  0  2  0  0  0  0  0  0  0  0  0
  -18.7977  -24.2430   20.9005 C   0  0  2  0  0  0  0  0  0  0  0  0
  -21.5727  -12.4127   20.0932 C   0  0  0  0  0  0  0  0  0  0  0  0
  -26.5131  -29.2344   21.7808 N   0  0  0  0  0  0  0  0  0  0  0  0
  -25.7010  -30.3048   21.8094 N   0  0  0  0  0  0  0  0  0  0  0  0
  -23.6066  -14.9211   21.6540 N   0  0  0  0  0  0  0  0  0  0  0  0
  -23.2885  -29.2882   24.5942 N   0  0  0  0  0  0  0  0  0  0  0  0
  -25.1334  -32.2772   20.6270 N   0  0  0  0  0  0  0  0  0  0  0  0
  -28.3936  -30.4459   18.0944 N   0  0  0  0  0  0  0  0  0  0  0  0
  -27.0635  -14.2507   21.0792 N   0  0  0  0  0  0  0  0  0  0  0  0
  -20.6766  -13.3418   22.2699 N   0  0  0  0  0  0  0  0  0  0  0  0
  -17.9691  -23.4179   21.7543 N   0  0  0  0  0  0  0  0  0  0  0  0
  -21.5102  -28.1472   23.5316 N   0  0  0  0  0  0  0  0  0  0  0  0
  -18.5926  -26.3308   22.2494 N   0  3  2  0  0  0  0  0  0  0  0  0
  -18.4424  -15.0290   24.5566 N   0  3  0  0  0  0  0  0  0  0  0  0
  -26.9606  -32.2263   18.2827 O   0  0  0  0  0  0  0  0  0  0  0  0
  -25.4164  -15.2121   19.7431 O   0  0  0  0  0  0  0  0  0  0  0  0
  -23.4697  -12.7176   22.4038 O   0  0  0  0  0  0  0  0  0  0  0  0
  -19.5767  -22.8855   23.3521 O   0  0  0  0  0  0  0  0  0  0  0  0
  -19.5377  -15.3413   21.9838 O   0  0  0  0  0  0  0  0  0  0  0  0
  -21.2298  -29.0285   25.6296 O   0  0  0  0  0  0  0  0  0  0  0  0
  -31.1061  -25.6955   19.1484 O   0  0  0  0  0  0  0  0  0  0  0  0
  -23.0402  -20.8709   20.0906 O   0  0  0  0  0  0  0  0  0  1  0  0
  -29.7917  -20.3497   19.4635 F   0  0  0  0  0  0  0  0  0  0  0  0
  -30.3884  -24.5512   21.5604 F   0  0  0  0  0  0  0  0  0  0  0  0
  1  2  1  0  0  0  0
  1  5  2  0  0  0  0
  2  6  2  0  0  0  0
  3  8  2  0  0  0  0
  3 15  1  0  0  0  0
  4  9  1  0  0  0  0
  4 15  2  0  0  0  0
  5 17  1  0  0  0  0
  6 19  1  0  0  0  0
  7 10  2  0  0  0  0
  7 18  1  0  0  0  0
  8 21  1  0  0  0  0
  9 21  2  0  0  0  0
 10 22  1  0  0  0  0
 11 12  2  0  0  0  0
 11 23  1  0  0  0  0
 12 24  1  0  0  0  0
 13 20  1  0  0  0  0
 13 22  2  0  0  0  0
 14 24  2  0  0  0  0
 14 25  1  0  0  0  0
 15 26  1  0  0  0  0
 16 26  1  0  0  0  0
 16 27  2  0  0  0  0
 16 28  1  0  0  0  0
 17 19  2  0  0  0  0
 17 34  1  0  0  0  0
 18 20  2  0  0  0  0
 18 35  1  0  0  0  0
 19 46  1  0  0  0  0
 20 36  1  0  0  0  0
 21 84  1  0  0  0  0
 22 85  1  0  0  0  0
 23 25  2  0  0  0  0
 23 84  1  0  0  0  0
 24 86  1  0  0  0  0
 25 87  1  0  0  0  0
 26 66  2  0  0  0  0
 27 67  1  0  0  0  0
 27 70  1  0  0  0  0
 28 71  1  0  0  0  0
 28 78  2  0  0  0  0
 29 47  1  0  0  0  0
 29 72  1  0  0  0  0
 29 79  2  0  0  0  0
 30 61  1  0  0  0  0
 30 68  1  0  0  0  0
 30 80  2  0  0  0  0
 31 50  1  0  0  0  0
 31 74  1  0  0  0  0
 31 81  2  0  0  0  0
 32 62  1  0  0  0  0
 32 73  1  0  0  0  0
 32 82  2  0  0  0  0
 33 69  1  0  0  0  0
 33 75  1  0  0  0  0
 33 83  2  0  0  0  0
 34 37  1  0  0  0  0
 35 47  1  0  0  0  0
 36 68  1  0  0  0  0
 37 39  1  0  0  0  0
 38 40  1  0  0  0  0
 38 42  1  0  0  0  0
 39 46  1  0  0  0  0
 40 48  1  0  0  0  0
 41 44  1  0  0  0  0
 41 49  1  0  0  0  0
 42 69  1  0  0  0  0
 43 48  1  0  0  0  0
 43 69  1  0  0  0  0
 44 76  1  0  0  0  0
 45 49  1  0  0  0  0
 45 76  1  0  0  0  0
 46 72  1  0  0  0  0
 47 68  1  0  0  0  0
 48 67  1  0  0  0  0
 49 75  1  0  0  0  0
 51 62  1  0  0  0  0
 52 63  1  0  0  0  0
 53 65  1  0  0  0  0
 54 65  1  0  0  0  0
 55 65  1  0  0  0  0
 56 77  1  0  0  0  0
 57 58  1  0  0  0  0
 57 60  1  0  0  0  0
 58 63  1  0  0  0  0
 59 64  1  0  0  0  0
 59 76  1  0  0  0  0
 60 85  1  0  0  0  0
 61 65  1  0  0  0  0
 61 73  1  0  0  0  0
 62 77  1  0  0  0  0
 63 64  1  0  0  0  0
 64 74  1  0  0  0  0
 66 67  1  0  0  0  0
M  CHG  2  76   1  77   1
M  ISO  4  33 100  60 101  75 100  85 101
M  END
> <Batch ID>
0112

> <Smiles>
CNC(C)C(=O)NC(C(=O)N1Cc2cc([101O:1][101CH2:1]CCC(C)C(CN3CCC([100NH:0][100C:0](=O)N4CCCC(n5nc(-c6ccc(Oc7ccc(F)cc7F)cc6)c(C(N)=O)c5N)C4)C3)NC(C)=O)ccc2CC1C(=O)NC1CCCc2ccccc21)C(C)(C)C

> <Shape>
0.264

> <Color>
0.056

> <Negative vol penalty>
0.000

$$$$

  -OEChem-04052320033D

 86 94  0     1  0  0  0  0  0999 V2000
  -22.5215  -29.0408   27.3053 C   0  0  0  0  0  0  0  0  0  0  0  0
  -23.0954  -28.2407   26.3225 C   0  0  0  0  0  0  0  0  0  0  0  0
  -30.7351  -22.6656   19.1052 C   0  0  0  0  0  0  0  0  0  0  0  0
  -27.9235  -12.9060   18.8523 C   0  0  0  0  0  0  0  0  0  0  0  0
  -28.3892  -13.8957   21.0065 C   0  0  0  0  0  0  0  0  0  0  0  0
  -21.4304  -29.8510   26.9937 C   0  0  0  0  0  0  0  0  0  0  0  0
  -22.5777  -28.2495   25.0277 C   0  0  0  0  0  0  0  0  0  0  0  0
  -26.1943  -28.4937   21.4913 C   0  0  0  0  0  0  0  0  0  0  0  0
  -30.1298  -23.8308   19.5759 C   0  0  0  0  0  0  0  0  0  0  0  0
  -30.0889  -21.4376   19.2475 C   0  0  0  0  0  0  0  0  0  0  0  0
  -29.2251  -12.4073   18.8000 C   0  0  0  0  0  0  0  0  0  0  0  0
  -29.6908  -13.3970   20.9543 C   0  0  0  0  0  0  0  0  0  0  0  0
  -26.8814  -27.3159   21.2008 C   0  0  0  0  0  0  0  0  0  0  0  0
  -32.3145  -10.5680   18.2638 C   0  0  0  0  0  0  0  0  0  0  0  0
  -32.4866   -9.2460   17.8533 C   0  0  0  0  0  0  0  0  0  0  0  0
  -25.5053  -27.0028   19.2444 C   0  0  0  0  0  0  0  0  0  0  0  0
  -31.1282   -8.4945   19.7046 C   0  0  0  0  0  0  0  0  0  0  0  0
  -27.5055  -13.6502   19.9555 C   0  0  0  0  0  0  0  0  0  0  0  0
  -25.0273  -13.5287   20.5480 C   0  0  0  0  0  0  0  0  0  0  0  0
  -20.9053  -29.8770   25.6921 C   0  0  0  0  0  0  0  0  0  0  0  0
  -25.1485  -28.9299   20.6651 C   0  0  0  0  0  0  0  0  0  0  0  0
  -21.4778  -29.0598   24.6988 C   0  0  0  0  0  0  0  0  0  0  0  0
  -24.8082  -28.1878   19.5251 C   0  0  0  0  0  0  0  0  0  0  0  0
  -28.8784  -23.7681   20.1888 C   0  0  0  0  0  0  0  0  0  0  0  0
  -28.2323  -22.5401   20.3311 C   0  0  0  0  0  0  0  0  0  0  0  0
  -30.1088  -12.6528   19.8510 C   0  0  0  0  0  0  0  0  0  0  0  0
  -26.5350  -26.5687   20.0789 C   0  0  0  0  0  0  0  0  0  0  0  0
  -28.8375  -21.3748   19.8605 C   0  0  0  0  0  0  0  0  0  0  0  0
  -31.5494  -10.8532   19.3947 C   0  0  0  0  0  0  0  0  0  0  0  0
  -31.8934   -8.2093   18.5737 C   0  0  0  0  0  0  0  0  0  0  0  0
  -30.9562   -9.8164   20.1151 C   0  0  0  0  0  0  0  0  0  0  0  0
  -26.1613  -14.1661   20.0098 C   0  0  0  0  0  0  0  0  0  0  0  0
  -24.0057  -14.4268   20.3571 C   0  0  0  0  0  0  0  0  0  0  0  0
  -24.9079  -12.2401   21.1652 C   0  0  0  0  0  0  0  0  0  0  0  0
  -22.0373  -29.4425   21.0665 C   0  0  0  0  0  0  0  0  0  0  0  0
  -22.2335  -30.5953   18.0408 C   0  0  0  0  0  0  0  0  0  0  0  0
  -23.8805  -30.6224   15.0519 C   0  0  0  0  0  0  0  0  0  0  0  0
  -23.8747  -20.3795   19.7256 C   0  0  0  0  0  0  0  0  0  0  0  0
  -19.6951  -30.7334   25.4146 C   0  0  0  0  0  0  0  0  0  0  0  0
  -24.4349  -30.2167   20.9774 C   0  0  0  0  0  0  0  0  0  0  0  0
  -23.7067  -28.6235   18.5949 C   0  0  0  0  0  0  0  0  0  0  0  0
  -19.4422  -30.9667   23.9274 C   0  0  0  0  0  0  0  0  0  0  0  0
  -22.6189  -17.9560   17.4395 C   0  0  0  0  0  0  0  0  0  0  0  0
  -19.5524  -29.6559   23.1550 C   0  0  0  0  0  0  0  0  0  0  0  0
  -23.2821  -16.6524   17.8876 C   0  0  0  0  0  0  0  0  0  0  0  0
  -23.5573  -19.1502   17.5985 C   0  0  0  0  0  0  0  0  0  0  0  0
  -24.7975  -18.0056   19.3945 C   0  0  0  0  0  0  0  0  0  0  0  0
  -20.9603  -29.0605   23.2767 C   0  0  1  0  0  0  0  0  0  0  0  0
  -23.0459  -30.2966   20.3517 C   0  0  1  0  0  0  0  0  0  0  0  0
  -23.8707  -16.7811   19.3054 C   0  0  2  0  0  0  0  0  0  0  0  0
  -23.7817  -31.6337   12.7574 C   0  0  0  0  0  0  0  0  0  0  0  0
  -27.8563  -22.0676   23.3066 C   0  0  0  0  0  0  0  0  0  0  0  0
  -22.9367  -21.3754   22.6718 C   0  0  0  0  0  0  0  0  0  0  0  0
  -19.9657  -28.6922   17.3023 C   0  0  0  0  0  0  0  0  0  0  0  0
  -20.5504  -29.0415   14.8931 C   0  0  0  0  0  0  0  0  0  0  0  0
  -19.7907  -30.9690   16.2825 C   0  0  0  0  0  0  0  0  0  0  0  0
  -26.5093  -31.9386   15.3924 C   0  0  0  0  0  0  0  0  0  0  0  0
  -28.9145  -19.0283   19.4817 C   0  0  0  0  0  0  0  0  0  0  0  0
  -26.8914  -22.4664   20.9891 C   0  0  0  0  0  0  0  0  0  0  0  0
  -28.2491  -25.0360   20.6863 C   0  0  0  0  0  0  0  0  0  1  0  0
  -25.4391  -21.5440   22.9041 C   0  0  0  0  0  0  0  0  0  0  0  0
  -22.0960  -30.0017   16.6596 C   0  0  1  0  0  0  0  0  0  0  0  0
  -24.3404  -31.7658   14.1656 C   0  0  2  0  0  0  0  0  0  0  0  0
  -26.8458  -21.5772   22.2586 C   0  0  2  0  0  0  0  0  0  0  0  0
  -24.2611  -21.4761   21.9182 C   0  0  1  0  0  0  0  0  0  0  0  0
  -20.6202  -29.6666   16.3028 C   0  0  0  0  0  0  0  0  0  0  0  0
  -25.8864  -15.3755   19.5141 N   0  0  0  0  0  0  0  0  0  0  0  0
  -24.5680  -15.5053   19.7400 N   0  0  0  0  0  0  0  0  0  0  0  0
  -23.0344  -29.8852   18.9464 N   0  0  0  0  0  0  0  0  0  0  0  0
  -24.0795  -19.2161   18.9656 N   0  0  0  0  0  0  0  0  0  0  0  0
  -22.6903  -14.3912   20.6586 N   0  0  0  0  0  0  0  0  0  0  0  0
  -26.0568  -11.4458   21.2810 N   0  0  0  0  0  0  0  0  0  0  0  0
  -21.8806  -29.7564   22.4031 N   0  0  0  0  0  0  0  0  0  0  0  0
  -22.7327  -30.9435   15.7453 N   0  0  0  0  0  0  0  0  0  0  0  0
  -24.3965  -20.3565   21.0132 N   0  0  0  0  0  0  0  0  0  0  0  0
  -25.8281  -31.7892   14.0806 N   0  3  0  0  0  0  0  0  0  0  0  0
  -23.8117  -11.7992   21.5864 O   0  0  0  0  0  0  0  0  0  0  0  0
  -21.4440  -28.5648   20.4506 O   0  0  0  0  0  0  0  0  0  0  0  0
  -21.6575  -31.6538   18.3042 O   0  0  0  0  0  0  0  0  0  0  0  0
  -24.4775  -29.5502   15.1193 O   0  0  0  0  0  0  0  0  0  0  0  0
  -23.2669  -21.3637   19.2908 O   0  0  0  0  0  0  0  0  0  0  0  0
  -31.3789  -12.1662   19.8004 O   0  0  0  0  0  0  0  0  0  0  0  0
  -28.2224  -20.1662   19.9916 O   0  0  0  0  0  0  0  0  0  0  0  0
  -27.2036  -25.4183   19.7934 O   0  0  0  0  0  0  0  0  0  1  0  0
  -32.0574   -6.9400   18.1786 F   0  0  0  0  0  0  0  0  0  0  0  0
  -30.2191  -10.0843   21.2017 F   0  0  0  0  0  0  0  0  0  0  0  0
  1  2  1  0  0  0  0
  1  6  2  0  0  0  0
  2  7  2  0  0  0  0
  3  9  2  0  0  0  0
  3 10  1  0  0  0  0
  4 11  2  0  0  0  0
  4 18  1  0  0  0  0
  5 12  1  0  0  0  0
  5 18  2  0  0  0  0
  6 20  1  0  0  0  0
  7 22  1  0  0  0  0
  8 13  2  0  0  0  0
  8 21  1  0  0  0  0
  9 24  1  0  0  0  0
 10 28  2  0  0  0  0
 11 26  1  0  0  0  0
 12 26  2  0  0  0  0
 13 27  1  0  0  0  0
 14 15  2  0  0  0  0
 14 29  1  0  0  0  0
 15 30  1  0  0  0  0
 16 23  1  0  0  0  0
 16 27  2  0  0  0  0
 17 30  2  0  0  0  0
 17 31  1  0  0  0  0
 18 32  1  0  0  0  0
 19 32  1  0  0  0  0
 19 33  2  0  0  0  0
 19 34  1  0  0  0  0
 20 22  2  0  0  0  0
 20 39  1  0  0  0  0
 21 23  2  0  0  0  0
 21 40  1  0  0  0  0
 22 48  1  0  0  0  0
 23 41  1  0  0  0  0
 24 25  2  0  0  0  0
 24 60  1  0  0  0  0
 25 28  1  0  0  0  0
 25 59  1  0  0  0  0
 26 82  1  0  0  0  0
 27 84  1  0  0  0  0
 28 83  1  0  0  0  0
 29 31  2  0  0  0  0
 29 82  1  0  0  0  0
 30 85  1  0  0  0  0
 31 86  1  0  0  0  0
 32 67  2  0  0  0  0
 33 68  1  0  0  0  0
 33 71  1  0  0  0  0
 34 72  1  0  0  0  0
 34 77  2  0  0  0  0
 35 49  1  0  0  0  0
 35 73  1  0  0  0  0
 35 78  2  0  0  0  0
 36 62  1  0  0  0  0
 36 69  1  0  0  0  0
 36 79  2  0  0  0  0
 37 63  1  0  0  0  0
 37 74  1  0  0  0  0
 37 80  2  0  0  0  0
 38 70  1  0  0  0  0
 38 75  1  0  0  0  0
 38 81  2  0  0  0  0
 39 42  1  0  0  0  0
 40 49  1  0  0  0  0
 41 69  1  0  0  0  0
 42 44  1  0  0  0  0
 43 45  1  0  0  0  0
 43 46  1  0  0  0  0
 44 48  1  0  0  0  0
 45 50  1  0  0  0  0
 46 70  1  0  0  0  0
 47 50  1  0  0  0  0
 47 70  1  0  0  0  0
 48 73  1  0  0  0  0
 49 69  1  0  0  0  0
 50 68  1  0  0  0  0
 51 63  1  0  0  0  0
 52 64  1  0  0  0  0
 53 65  1  0  0  0  0
 54 66  1  0  0  0  0
 55 66  1  0  0  0  0
 56 66  1  0  0  0  0
 57 76  1  0  0  0  0
 58 83  1  0  0  0  0
 59 64  1  0  0  0  0
 60 84  1  0  0  0  0
 61 64  1  0  0  0  0
 61 65  1  0  0  0  0
 62 66  1  0  0  0  0
 62 74  1  0  0  0  0
 63 76  1  0  0  0  0
 65 75  1  0  0  0  0
 67 68  1  0  0  0  0
M  CHG  1  76   1
M  ISO  4  38 100  60 101  75 100  84 101
M  END
> <Batch ID>
0112

> <Smiles>
CNC(C)C(=O)NC(C(=O)N1Cc2cc([101O:1][101CH2:1]c3cccc(OC)c3CC(C)CC(C)[100NH:0][100C:0](=O)N3CCCC(n4nc(-c5ccc(Oc6ccc(F)cc6F)cc5)c(C(N)=O)c4N)C3)ccc2CC1C(=O)NC1CCCc2ccccc21)C(C)(C)C

> <Shape>
0.227

> <Color>
0.072

> <Negative vol penalty>
0.000

$$$$

  -OEChem-04052320033D

 80 88  0     1  0  0  0  0  0999 V2000
  -16.4372  -29.6593   23.3969 C   0  0  0  0  0  0  0  0  0  0  0  0
  -17.1028  -30.1350   22.2718 C   0  0  0  0  0  0  0  0  0  0  0  0
  -25.9929  -15.0137   21.5509 C   0  0  0  0  0  0  0  0  0  0  0  0
  -25.5196  -16.3360   19.5851 C   0  0  0  0  0  0  0  0  0  0  0  0
  -17.1622  -29.2779   24.5251 C   0  0  0  0  0  0  0  0  0  0  0  0
  -18.4939  -30.2307   22.2745 C   0  0  0  0  0  0  0  0  0  0  0  0
  -23.7305  -27.1258   17.3792 C   0  0  0  0  0  0  0  0  0  0  0  0
  -24.6641  -14.5910   21.5866 C   0  0  0  0  0  0  0  0  0  0  0  0
  -24.1908  -15.9133   19.6207 C   0  0  0  0  0  0  0  0  0  0  0  0
  -24.7593  -26.5013   16.6736 C   0  0  0  0  0  0  0  0  0  0  0  0
  -22.7248  -12.3322   19.9836 C   0  0  0  0  0  0  0  0  0  0  0  0
  -22.4816  -10.9761   20.2014 C   0  0  0  0  0  0  0  0  0  0  0  0
  -26.1967  -26.6553   18.6123 C   0  0  0  0  0  0  0  0  0  0  0  0
  -30.7304  -24.7651   19.6997 C   0  0  0  0  0  0  0  0  0  0  0  0
  -21.2379  -11.5203   22.2000 C   0  0  0  0  0  0  0  0  0  0  0  0
  -29.4840  -23.6501   18.1919 C   0  0  0  0  0  0  0  0  0  0  0  0
  -26.4206  -15.8862   20.5502 C   0  0  0  0  0  0  0  0  0  0  0  0
  -28.8641  -15.7063   19.8397 C   0  0  0  0  0  0  0  0  0  0  0  0
  -18.5636  -29.3599   24.5382 C   0  0  0  0  0  0  0  0  0  0  0  0
  -23.9261  -27.5039   18.7104 C   0  0  0  0  0  0  0  0  0  0  0  0
  -19.2383  -29.8513   23.4044 C   0  0  0  0  0  0  0  0  0  0  0  0
  -25.1657  -27.2699   19.3279 C   0  0  0  0  0  0  0  0  0  0  0  0
  -30.0500  -23.5491   19.4436 C   0  0  0  0  0  0  0  0  0  0  0  0
  -23.7631  -15.0408   20.6215 C   0  0  0  0  0  0  0  0  0  0  0  0
  -25.9894  -26.2669   17.2886 C   0  0  0  0  0  0  0  0  0  0  0  0
  -22.2247  -13.2824   20.8740 C   0  0  0  0  0  0  0  0  0  0  0  0
  -21.7381  -10.5702   21.3096 C   0  0  0  0  0  0  0  0  0  0  0  0
  -21.4812  -12.8764   21.9822 C   0  0  0  0  0  0  0  0  0  0  0  0
  -27.7930  -16.3237   20.5131 C   0  0  0  0  0  0  0  0  0  0  0  0
  -30.5594  -25.5723   18.5967 C   0  0  0  0  0  0  0  0  0  0  0  0
  -29.9478  -16.5042   20.1144 C   0  0  0  0  0  0  0  0  0  0  0  0
  -28.8782  -14.5180   19.0376 C   0  0  0  0  0  0  0  0  0  0  0  0
  -22.4706  -29.0627   21.7971 C   0  0  0  0  0  0  0  0  0  0  0  0
  -24.1351  -26.6548   22.7148 C   0  0  0  0  0  0  0  0  0  0  0  0
  -25.7191  -23.6854   23.2723 C   0  0  0  0  0  0  0  0  0  0  0  0
  -30.5062  -22.2732   21.5674 C   0  0  0  0  0  0  0  0  0  0  0  0
  -19.3012  -28.9806   25.7978 C   0  0  0  0  0  0  0  0  0  0  0  0
  -22.8666  -28.2347   19.4897 C   0  0  0  0  0  0  0  0  0  0  0  0
  -25.3423  -27.7251   20.7508 C   0  0  0  0  0  0  0  0  0  0  0  0
  -20.7966  -28.7597   25.5850 C   0  0  0  0  0  0  0  0  0  0  0  0
  -31.6556  -19.4812   23.4544 C   0  0  0  0  0  0  0  0  0  0  0  0
  -21.3900  -29.8911   24.7515 C   0  0  0  0  0  0  0  0  0  0  0  0
  -30.8976  -18.2976   22.8489 C   0  0  0  0  0  0  0  0  0  0  0  0
  -30.7938  -20.7416   23.5030 C   0  0  0  0  0  0  0  0  0  0  0  0
  -29.4231  -19.9409   21.6191 C   0  0  0  0  0  0  0  0  0  0  0  0
  -20.7480  -29.9464   23.3599 C   0  0  1  0  0  0  0  0  0  0  0  0
  -22.8499  -27.8609   20.9827 C   0  0  1  0  0  0  0  0  0  0  0  0
  -30.2715  -18.6654   21.4894 C   0  0  2  0  0  0  0  0  0  0  0  0
  -31.0565  -26.9387   18.3361 C   0  0  0  0  0  0  0  0  0  0  0  0
  -26.3843  -22.1244   25.1211 C   0  0  0  0  0  0  0  0  0  0  0  0
  -28.0919  -27.2170   15.1565 C   0  0  0  0  0  0  0  0  0  0  0  0
  -26.4013  -28.5437   23.4893 C   0  0  0  0  0  0  0  0  0  0  0  0
  -27.5417  -26.6083   24.5947 C   0  0  0  0  0  0  0  0  0  0  0  0
  -25.3136  -27.3745   25.4139 C   0  0  0  0  0  0  0  0  0  0  0  0
  -24.0941  -21.4801   22.1519 C   0  0  0  0  0  0  0  0  0  0  0  0
  -29.3676  -25.3901   16.3306 C   0  0  0  0  0  0  0  0  0  0  0  0
  -25.4692  -26.1527   23.2060 C   0  0  1  0  0  0  0  0  0  0  0  0
  -25.3217  -22.4693   24.0893 C   0  0  2  0  0  0  0  0  0  0  0  0
  -28.2030  -26.3817   16.4258 C   0  0  2  0  0  0  0  0  0  1  0  0
  -26.1743  -27.1686   24.1485 C   0  0  0  0  0  0  0  0  0  0  0  0
  -28.1627  -17.4284   21.1665 N   0  0  0  0  0  0  0  0  0  0  0  0
  -29.7999  -24.8843   17.6867 N   0  0  0  0  0  0  0  0  0  0  0  0
  -29.4783  -17.5114   20.9051 N   0  0  0  0  0  0  0  0  0  0  0  0
  -24.1379  -27.4062   21.5334 N   0  0  0  0  0  0  0  0  0  0  0  0
  -30.2380  -21.0304   22.1791 N   0  0  0  0  0  0  0  0  0  0  0  0
  -31.2471  -16.4353   19.7544 N   0  0  0  0  0  0  0  0  0  0  0  0
  -27.6767  -13.8191   18.8577 N   0  0  0  0  0  0  0  0  0  0  0  0
  -29.9522  -22.4216   20.2963 N   0  0  0  0  0  0  0  0  0  0  0  0
  -21.2959  -28.9119   22.5091 N   0  0  0  0  0  0  0  0  0  0  0  0
  -25.2170  -24.8502   23.8129 N   0  0  0  0  0  0  0  0  0  0  0  0
  -25.1288  -21.2886   23.2006 N   0  3  0  0  0  0  0  0  0  0  0  0
  -29.9284  -14.0797   18.5100 O   0  0  0  0  0  0  0  0  0  0  0  0
  -23.1908  -30.0540   21.7828 O   0  0  0  0  0  0  0  0  0  0  0  0
  -23.1171  -26.3942   23.3622 O   0  0  0  0  0  0  0  0  0  0  0  0
  -26.4093  -23.6100   22.2582 O   0  0  0  0  0  0  0  0  0  0  0  0
  -31.2005  -23.1313   22.1183 O   0  0  0  0  0  0  0  0  0  0  0  0
  -22.4664  -14.6283   20.6558 O   0  0  0  0  0  0  0  0  0  0  0  0
  -26.9880  -25.6528   16.5954 O   0  0  0  0  0  0  0  0  0  1  0  0
  -21.5033   -9.2680   21.5179 F   0  0  0  0  0  0  0  0  0  0  0  0
  -20.9972  -13.7847   22.8404 F   0  0  0  0  0  0  0  0  0  0  0  0
  1  2  1  0  0  0  0
  1  5  2  0  0  0  0
  2  6  2  0  0  0  0
  3  8  2  0  0  0  0
  3 17  1  0  0  0  0
  4  9  1  0  0  0  0
  4 17  2  0  0  0  0
  5 19  1  0  0  0  0
  6 21  1  0  0  0  0
  7 10  2  0  0  0  0
  7 20  1  0  0  0  0
  8 24  1  0  0  0  0
  9 24  2  0  0  0  0
 10 25  1  0  0  0  0
 11 12  2  0  0  0  0
 11 26  1  0  0  0  0
 12 27  1  0  0  0  0
 13 22  1  0  0  0  0
 13 25  2  0  0  0  0
 14 23  1  0  0  0  0
 14 30  2  0  0  0  0
 15 27  2  0  0  0  0
 15 28  1  0  0  0  0
 16 23  2  0  0  0  0
 16 62  1  0  0  0  0
 17 29  1  0  0  0  0
 18 29  1  0  0  0  0
 18 31  2  0  0  0  0
 18 32  1  0  0  0  0
 19 21  2  0  0  0  0
 19 37  1  0  0  0  0
 20 22  2  0  0  0  0
 20 38  1  0  0  0  0
 21 46  1  0  0  0  0
 22 39  1  0  0  0  0
 23 68  1  0  0  0  0
 24 77  1  0  0  0  0
 25 78  1  0  0  0  0
 26 28  2  0  0  0  0
 26 77  1  0  0  0  0
 27 79  1  0  0  0  0
 28 80  1  0  0  0  0
 29 61  2  0  0  0  0
 30 49  1  0  0  0  0
 30 62  1  0  0  0  0
 31 63  1  0  0  0  0
 31 66  1  0  0  0  0
 32 67  1  0  0  0  0
 32 72  2  0  0  0  0
 33 47  1  0  0  0  0
 33 69  1  0  0  0  0
 33 73  2  0  0  0  0
 34 57  1  0  0  0  0
 34 64  1  0  0  0  0
 34 74  2  0  0  0  0
 35 58  1  0  0  0  0
 35 70  1  0  0  0  0
 35 75  2  0  0  0  0
 36 65  1  0  0  0  0
 36 68  1  0  0  0  0
 36 76  2  0  0  0  0
 37 40  1  0  0  0  0
 38 47  1  0  0  0  0
 39 64  1  0  0  0  0
 40 42  1  0  0  0  0
 41 43  1  0  0  0  0
 41 44  1  0  0  0  0
 42 46  1  0  0  0  0
 43 48  1  0  0  0  0
 44 65  1  0  0  0  0
 45 48  1  0  0  0  0
 45 65  1  0  0  0  0
 46 69  1  0  0  0  0
 47 64  1  0  0  0  0
 48 63  1  0  0  0  0
 50 58  1  0  0  0  0
 51 59  1  0  0  0  0
 52 60  1  0  0  0  0
 53 60  1  0  0  0  0
 54 60  1  0  0  0  0
 55 71  1  0  0  0  0
 56 59  1  0  0  0  0
 56 62  1  0  0  0  0
 57 60  1  0  0  0  0
 57 70  1  0  0  0  0
 58 71  1  0  0  0  0
 59 78  1  0  0  0  0
 61 63  1  0  0  0  0
M  CHG  1  71   1
M  ISO  4  36 100  59 101  68 100  78 101
M  END
> <Batch ID>
0112

> <Smiles>
CNC(C)C(=O)NC(C(=O)N1Cc2cc([101O:1][101CH:1](C)Cn3cc([100NH:0][100C:0](=O)N4CCCC(n5nc(-c6ccc(Oc7ccc(F)cc7F)cc6)c(C(N)=O)c5N)C4)cc3C)ccc2CC1C(=O)NC1CCCc2ccccc21)C(C)(C)C

> <Shape>
0.230

> <Color>
0.055

> <Negative vol penalty>
0.000

$$$$

  -OEChem-04052320033D

 86 94  0     1  0  0  0  0  0999 V2000
  -15.0689  -26.7845   23.5548 C   0  0  0  0  0  0  0  0  0  0  0  0
  -15.8567  -25.6432   23.4448 C   0  0  0  0  0  0  0  0  0  0  0  0
  -30.5716  -20.5289   20.0205 C   0  0  0  0  0  0  0  0  0  0  0  0
  -28.4808  -20.1873   18.8591 C   0  0  0  0  0  0  0  0  0  0  0  0
  -15.5190  -27.9944   23.0279 C   0  0  0  0  0  0  0  0  0  0  0  0
  -17.0949  -25.7109   22.8069 C   0  0  0  0  0  0  0  0  0  0  0  0
  -22.1496  -22.5625   24.2363 C   0  0  0  0  0  0  0  0  0  0  0  0
  -30.7674  -21.7180   19.3182 C   0  0  0  0  0  0  0  0  0  0  0  0
  -28.6766  -21.3765   18.1569 C   0  0  0  0  0  0  0  0  0  0  0  0
  -22.7136  -21.4029   23.7063 C   0  0  0  0  0  0  0  0  0  0  0  0
  -31.6426  -25.0268   18.0931 C   0  0  0  0  0  0  0  0  0  0  0  0
  -32.0708  -26.1421   18.8130 C   0  0  0  0  0  0  0  0  0  0  0  0
  -24.1617  -22.7470   22.3222 C   0  0  0  0  0  0  0  0  0  0  0  0
  -30.0819  -26.0237   20.1795 C   0  0  0  0  0  0  0  0  0  0  0  0
  -29.4282  -19.7635   19.7909 C   0  0  0  0  0  0  0  0  0  0  0  0
  -28.5665  -18.3741   21.7491 C   0  0  0  0  0  0  0  0  0  0  0  0
  -16.7675  -28.0790   22.3917 C   0  0  0  0  0  0  0  0  0  0  0  0
  -22.5805  -23.8252   23.8045 C   0  0  0  0  0  0  0  0  0  0  0  0
  -17.5616  -26.9227   22.2699 C   0  0  0  0  0  0  0  0  0  0  0  0
  -23.6033  -23.9211   22.8501 C   0  0  0  0  0  0  0  0  0  0  0  0
  -29.8199  -22.1419   18.3864 C   0  0  0  0  0  0  0  0  0  0  0  0
  -23.7178  -21.4950   22.7470 C   0  0  0  0  0  0  0  0  0  0  0  0
  -30.4340  -24.4100   18.4163 C   0  0  0  0  0  0  0  0  0  0  0  0
  -31.2905  -26.6406   19.8562 C   0  0  0  0  0  0  0  0  0  0  0  0
  -29.6537  -24.9084   19.4595 C   0  0  0  0  0  0  0  0  0  0  0  0
  -29.2256  -18.5348   20.5157 C   0  0  0  0  0  0  0  0  0  0  0  0
  -28.6427  -17.0271   22.0063 C   0  0  0  0  0  0  0  0  0  0  0  0
  -27.9411  -19.3548   22.5875 C   0  0  0  0  0  0  0  0  0  0  0  0
  -21.2007  -26.2871   22.3420 C   0  0  0  0  0  0  0  0  0  0  0  0
  -24.0577  -27.7184   22.8999 C   0  0  0  0  0  0  0  0  0  0  0  0
  -27.4022  -27.3793   23.4883 C   0  0  0  0  0  0  0  0  0  0  0  0
  -28.0808  -11.8836   20.1176 C   0  0  0  0  0  0  0  0  0  0  0  0
  -17.1908  -29.3984   21.7961 C   0  0  0  0  0  0  0  0  0  0  0  0
  -21.9806  -25.0666   24.4055 C   0  0  0  0  0  0  0  0  0  0  0  0
  -24.1155  -25.2528   22.3679 C   0  0  0  0  0  0  0  0  0  0  0  0
  -18.6796  -29.4680   21.4659 C   0  0  0  0  0  0  0  0  0  0  0  0
  -31.2971  -13.4961   19.6835 C   0  0  0  0  0  0  0  0  0  0  0  0
  -19.1236  -28.2056   20.7337 C   0  0  0  0  0  0  0  0  0  0  0  0
  -30.9776  -14.9607   19.9791 C   0  0  0  0  0  0  0  0  0  0  0  0
  -30.1326  -12.8072   18.9822 C   0  0  0  0  0  0  0  0  0  0  0  0
  -25.8458  -11.3664   21.1520 C   0  0  0  0  0  0  0  0  0  0  0  0
  -28.5138  -14.3606   20.0245 C   0  0  0  0  0  0  0  0  0  0  0  0
  -24.9966  -12.3066   21.9943 C   0  0  0  0  0  0  0  0  0  0  0  0
  -18.9213  -26.9614   21.6068 C   0  0  1  0  0  0  0  0  0  0  0  0
  -22.1374  -26.2966   23.5168 C   0  0  1  0  0  0  0  0  0  0  0  0
  -29.6547  -15.0897   20.7531 C   0  0  2  0  0  0  0  0  0  0  0  0
  -26.0077  -13.0994   19.3508 C   0  0  2  0  0  0  0  0  0  0  0  0
  -25.1698  -14.0571   20.2179 C   0  0  1  0  0  0  0  0  0  0  0  0
  -29.4831  -28.7304   23.8646 C   0  0  0  0  0  0  0  0  0  0  0  0
  -25.0064  -13.3150   17.0585 C   0  0  0  0  0  0  0  0  0  0  0  0
  -25.9629  -11.1184   17.8093 C   0  0  0  0  0  0  0  0  0  0  0  0
  -21.6807  -16.6519   19.5364 C   0  0  0  0  0  0  0  0  0  0  0  0
  -24.1751  -28.3632   19.9199 C   0  0  0  0  0  0  0  0  0  0  0  0
  -26.6193  -28.8339   20.1891 C   0  0  0  0  0  0  0  0  0  0  0  0
  -24.9427  -30.2125   21.4184 C   0  0  0  0  0  0  0  0  0  0  0  0
  -27.8119  -26.2139   26.1777 C   0  0  0  0  0  0  0  0  0  0  0  0
  -24.3152  -15.0400   19.4281 C   0  0  0  0  0  0  0  0  0  0  0  0
  -24.6791  -19.0581   20.2308 C   0  0  0  0  0  0  0  0  0  0  0  0
  -23.2420  -18.5219   20.1751 C   0  0  0  0  0  0  0  0  0  0  0  0
  -24.7536  -20.4315   20.8890 C   0  0  0  0  0  0  0  0  0  1  0  0
  -25.3628  -27.8289   22.1492 C   0  0  1  0  0  0  0  0  0  0  0  0
  -28.3127  -28.0162   24.5225 C   0  0  2  0  0  0  0  0  0  0  0  0
  -25.2270  -12.3812   18.2437 C   0  0  0  0  0  0  0  0  0  0  0  0
  -23.1336  -17.1263   19.5363 C   0  0  1  0  0  0  0  0  0  0  0  0
  -25.2642  -28.7844   20.9266 C   0  0  0  0  0  0  0  0  0  0  0  0
  -29.6868  -17.3819   20.0235 N   0  0  0  0  0  0  0  0  0  0  0  0
  -29.3170  -16.4840   20.9525 N   0  0  0  0  0  0  0  0  0  0  0  0
  -23.4929  -26.4377   22.9810 N   0  0  0  0  0  0  0  0  0  0  0  0
  -28.8759  -12.9737   19.7246 N   0  0  0  0  0  0  0  0  0  0  0  0
  -26.6959  -12.1068   20.2050 N   0  0  0  0  0  0  0  0  0  0  0  0
  -28.1982  -16.2661   23.0289 N   0  0  0  0  0  0  0  0  0  0  0  0
  -27.9534  -20.6937   22.1731 N   0  0  0  0  0  0  0  0  0  0  0  0
  -19.9712  -26.8634   22.5981 N   0  0  0  0  0  0  0  0  0  0  0  0
  -26.3676  -28.2185   23.1325 N   0  0  0  0  0  0  0  0  0  0  0  0
  -23.9520  -16.1424   20.2556 N   0  0  0  0  0  0  0  0  0  0  0  0
  -24.2639  -13.2551   21.1064 N   0  3  0  0  0  0  0  0  0  0  0  0
  -28.8539  -26.9787   25.4454 N   0  3  0  0  0  0  0  0  0  0  0  0
  -27.4022  -19.0552   23.6798 O   0  0  0  0  0  0  0  0  0  0  0  0
  -21.5669  -25.7947   21.2813 O   0  0  0  0  0  0  0  0  0  0  0  0
  -23.5615  -28.7299   23.4021 O   0  0  0  0  0  0  0  0  0  0  0  0
  -27.5921  -26.2515   23.0380 O   0  0  0  0  0  0  0  0  0  0  0  0
  -28.5796  -10.7794   20.3683 O   0  0  0  0  0  0  0  0  0  0  0  0
  -30.0106  -23.3023   17.7011 O   0  0  0  0  0  0  0  0  0  0  0  0
  -24.2738  -20.3561   22.2236 O   0  0  0  0  0  0  0  0  0  1  0  0
  -31.7026  -27.7107   20.5484 F   0  0  0  0  0  0  0  0  0  0  0  0
  -28.4922  -24.3193   19.7755 F   0  0  0  0  0  0  0  0  0  0  0  0
  1  2  1  0  0  0  0
  1  5  2  0  0  0  0
  2  6  2  0  0  0  0
  3  8  2  0  0  0  0
  3 15  1  0  0  0  0
  4  9  1  0  0  0  0
  4 15  2  0  0  0  0
  5 17  1  0  0  0  0
  6 19  1  0  0  0  0
  7 10  2  0  0  0  0
  7 18  1  0  0  0  0
  8 21  1  0  0  0  0
  9 21  2  0  0  0  0
 10 22  1  0  0  0  0
 11 12  2  0  0  0  0
 11 23  1  0  0  0  0
 12 24  1  0  0  0  0
 13 20  1  0  0  0  0
 13 22  2  0  0  0  0
 14 24  2  0  0  0  0
 14 25  1  0  0  0  0
 15 26  1  0  0  0  0
 16 26  1  0  0  0  0
 16 27  2  0  0  0  0
 16 28  1  0  0  0  0
 17 19  2  0  0  0  0
 17 33  1  0  0  0  0
 18 20  2  0  0  0  0
 18 34  1  0  0  0  0
 19 44  1  0  0  0  0
 20 35  1  0  0  0  0
 21 83  1  0  0  0  0
 22 84  1  0  0  0  0
 23 25  2  0  0  0  0
 23 83  1  0  0  0  0
 24 85  1  0  0  0  0
 25 86  1  0  0  0  0
 26 66  2  0  0  0  0
 27 67  1  0  0  0  0
 27 71  1  0  0  0  0
 28 72  1  0  0  0  0
 28 78  2  0  0  0  0
 29 45  1  0  0  0  0
 29 73  1  0  0  0  0
 29 79  2  0  0  0  0
 30 61  1  0  0  0  0
 30 68  1  0  0  0  0
 30 80  2  0  0  0  0
 31 62  1  0  0  0  0
 31 74  1  0  0  0  0
 31 81  2  0  0  0  0
 32 69  1  0  0  0  0
 32 70  1  0  0  0  0
 32 82  2  0  0  0  0
 33 36  1  0  0  0  0
 34 45  1  0  0  0  0
 35 68  1  0  0  0  0
 36 38  1  0  0  0  0
 37 39  1  0  0  0  0
 37 40  1  0  0  0  0
 38 44  1  0  0  0  0
 39 46  1  0  0  0  0
 40 69  1  0  0  0  0
 41 43  1  0  0  0  0
 41 70  1  0  0  0  0
 42 46  1  0  0  0  0
 42 69  1  0  0  0  0
 43 76  1  0  0  0  0
 44 73  1  0  0  0  0
 45 68  1  0  0  0  0
 46 67  1  0  0  0  0
 47 48  1  0  0  0  0
 47 63  1  0  0  0  0
 47 70  1  0  0  0  0
 48 57  1  0  0  0  0
 48 76  1  0  0  0  0
 49 62  1  0  0  0  0
 50 63  1  0  0  0  0
 51 63  1  0  0  0  0
 52 64  1  0  0  0  0
 53 65  1  0  0  0  0
 54 65  1  0  0  0  0
 55 65  1  0  0  0  0
 56 77  1  0  0  0  0
 57 75  1  0  0  0  0
 58 59  1  0  0  0  0
 58 60  1  0  0  0  0
 59 64  1  0  0  0  0
 60 84  1  0  0  0  0
 61 65  1  0  0  0  0
 61 74  1  0  0  0  0
 62 77  1  0  0  0  0
 64 75  1  0  0  0  0
 66 67  1  0  0  0  0
M  CHG  2  76   1  77   1
M  ISO  4  32 100  60 101  70 100  84 101
M  END
> <Batch ID>
0112

> <Smiles>
CNC(C)C(=O)NC(C(=O)N1Cc2cc([101O:1][101CH2:1]CCC(C)NCC3NCC[100N:0]([100C:0](=O)N4CCCC(n5nc(-c6ccc(Oc7ccc(F)cc7F)cc6)c(C(N)=O)c5N)C4)C3C(C)C)ccc2CC1C(=O)NC1CCCc2ccccc21)C(C)(C)C

> <Shape>
0.258

> <Color>
0.051

> <Negative vol penalty>
0.000

$$$$
