
  -OEChem-04052320053D

 89 97  0     1  0  0  0  0  0999 V2000
  -18.9442  -22.2626   28.6874 C   0  0  0  0  0  0  0  0  0  0  0  0
  -19.8850  -22.1371   27.6702 C   0  0  0  0  0  0  0  0  0  0  0  0
  -23.0410   -9.9075   19.9205 C   0  0  0  0  0  0  0  0  0  0  0  0
  -23.7964   -9.8591   22.2149 C   0  0  0  0  0  0  0  0  0  0  0  0
  -17.5999  -22.4559   28.3720 C   0  0  0  0  0  0  0  0  0  0  0  0
  -19.4818  -22.2037   26.3370 C   0  0  0  0  0  0  0  0  0  0  0  0
  -22.5277  -25.1167   23.5295 C   0  0  0  0  0  0  0  0  0  0  0  0
  -22.3014   -8.7454   20.1395 C   0  0  0  0  0  0  0  0  0  0  0  0
  -23.0567   -8.6970   22.4339 C   0  0  0  0  0  0  0  0  0  0  0  0
  -23.7430  -24.5648   23.1269 C   0  0  0  0  0  0  0  0  0  0  0  0
  -23.3623   -5.3915   21.7928 C   0  0  0  0  0  0  0  0  0  0  0  0
  -23.9805   -4.3507   22.4856 C   0  0  0  0  0  0  0  0  0  0  0  0
  -22.8034  -24.0950   20.9554 C   0  0  0  0  0  0  0  0  0  0  0  0
  -22.2751   -4.4739   24.1926 C   0  0  0  0  0  0  0  0  0  0  0  0
  -28.4579  -23.5897   21.3387 C   0  0  0  0  0  0  0  0  0  0  0  0
  -23.7886  -10.4643   20.9582 C   0  0  0  0  0  0  0  0  0  0  0  0
  -24.1204  -12.9931   20.9032 C   0  0  0  0  0  0  0  0  0  0  0  0
  -17.1814  -22.5346   27.0344 C   0  0  0  0  0  0  0  0  0  0  0  0
  -21.4359  -25.1521   22.6502 C   0  0  0  0  0  0  0  0  0  0  0  0
  -18.1305  -22.3969   26.0035 C   0  0  0  0  0  0  0  0  0  0  0  0
  -21.5761  -24.6502   21.3484 C   0  0  0  0  0  0  0  0  0  0  0  0
  -27.3466  -22.8996   21.7700 C   0  0  0  0  0  0  0  0  0  0  0  0
  -27.5734  -21.5260   21.5078 C   0  0  0  0  0  0  0  0  0  0  0  0
  -22.3092   -8.1401   21.3962 C   0  0  0  0  0  0  0  0  0  0  0  0
  -23.8802  -24.0512   21.8406 C   0  0  0  0  0  0  0  0  0  0  0  0
  -22.2004   -5.9736   22.2998 C   0  0  0  0  0  0  0  0  0  0  0  0
  -23.4370   -3.8919   23.6855 C   0  0  0  0  0  0  0  0  0  0  0  0
  -21.6569   -5.5148   23.4997 C   0  0  0  0  0  0  0  0  0  0  0  0
  -24.5533  -11.6645   20.7325 C   0  0  0  0  0  0  0  0  0  0  0  0
  -28.8166  -21.4184   20.9245 C   0  0  0  0  0  0  0  0  0  0  0  0
  -25.2102  -13.7560   20.5614 C   0  0  0  0  0  0  0  0  0  0  0  0
  -29.7850  -19.1336   21.4781 C   0  0  0  0  0  0  0  0  0  0  0  0
  -30.4160  -18.0073   21.1175 C   0  0  0  0  0  0  0  0  0  0  0  0
  -22.8470  -13.4929   21.3325 C   0  0  0  0  0  0  0  0  0  0  0  0
  -29.4819  -20.2299   20.4816 C   0  0  0  0  0  0  0  0  0  0  0  0
  -18.5148  -23.8987   22.6494 C   0  0  0  0  0  0  0  0  0  0  0  0
  -18.1646  -25.7014   19.9755 C   0  0  0  0  0  0  0  0  0  0  0  0
  -19.6391  -27.3011   17.3461 C   0  0  0  0  0  0  0  0  0  0  0  0
  -30.6893  -14.7919   20.7868 C   0  0  0  0  0  0  0  0  0  0  0  0
  -15.7108  -22.6971   26.7422 C   0  0  0  0  0  0  0  0  0  0  0  0
  -20.1398  -25.7751   23.0910 C   0  0  0  0  0  0  0  0  0  0  0  0
  -20.4405  -24.6827   20.3595 C   0  0  0  0  0  0  0  0  0  0  0  0
  -15.4190  -23.1311   25.3080 C   0  0  0  0  0  0  0  0  0  0  0  0
  -29.5661  -12.4644   18.3378 C   0  0  0  0  0  0  0  0  0  0  0  0
  -16.2307  -22.2967   24.3222 C   0  0  0  0  0  0  0  0  0  0  0  0
  -28.1290  -12.1540   18.7602 C   0  0  0  0  0  0  0  0  0  0  0  0
  -30.4800  -12.6583   19.5458 C   0  0  0  0  0  0  0  0  0  0  0  0
  -28.5726  -13.3461   20.9467 C   0  0  0  0  0  0  0  0  0  0  0  0
  -17.7357  -22.4885   24.5454 C   0  0  1  0  0  0  0  0  0  0  0  0
  -18.9395  -25.2925   22.2824 C   0  0  1  0  0  0  0  0  0  0  0  0
  -27.6014  -13.1977   19.7630 C   0  0  2  0  0  0  0  0  0  0  0  0
  -24.9848  -18.7375   20.8531 C   0  0  0  0  0  0  0  0  0  0  0  0
  -19.0909  -28.6558   15.3061 C   0  0  0  0  0  0  0  0  0  0  0  0
  -29.7373  -23.5338   17.9483 C   0  0  0  0  0  0  0  0  0  0  0  0
  -31.9924  -24.3656   18.6472 C   0  0  0  0  0  0  0  0  0  0  0  0
  -17.2734  -23.1646   18.5332 C   0  0  0  0  0  0  0  0  0  0  0  0
  -17.6589  -24.3478   16.3607 C   0  0  0  0  0  0  0  0  0  0  0  0
  -15.9507  -25.2088   17.9619 C   0  0  0  0  0  0  0  0  0  0  0  0
  -21.1594  -29.6353   18.3455 C   0  0  0  0  0  0  0  0  0  0  0  0
  -26.6450  -20.4150   21.8062 C   0  0  0  0  0  0  0  0  0  0  0  0
  -26.1260  -23.5038   22.3997 C   0  0  0  0  0  0  0  0  0  1  0  0
  -30.7440  -16.9105   22.0782 C   0  0  0  0  0  0  0  0  0  0  0  0
  -25.9111  -19.9047   20.5506 C   0  0  0  0  0  0  0  0  0  0  0  0
  -30.6379  -23.0153   20.2721 C   0  0  0  0  0  0  0  0  0  0  0  0
  -18.4054  -25.4849   18.5010 C   0  0  1  0  0  0  0  0  0  0  0  0
  -19.4508  -28.6982   16.7831 C   0  0  2  0  0  0  0  0  0  0  0  0
  -30.5759  -24.0388   19.1245 C   0  0  0  0  0  0  0  0  0  0  0  0
  -17.3431  -24.5490   17.8582 C   0  0  0  0  0  0  0  0  0  0  0  0
  -25.8194  -11.5844   20.3145 N   0  0  0  0  0  0  0  0  0  0  0  0
  -29.3451  -22.6791   20.8270 N   0  0  0  0  0  0  0  0  0  0  0  0
  -26.1913  -12.8724   20.2196 N   0  0  0  0  0  0  0  0  0  0  0  0
  -19.1914  -25.2962   20.8399 N   0  0  0  0  0  0  0  0  0  0  0  0
  -29.9235  -13.6617   20.4566 N   0  0  0  0  0  0  0  0  0  0  0  0
  -25.4153  -15.0897   20.5227 N   0  0  0  0  0  0  0  0  0  0  0  0
  -21.8381  -12.5714   21.6445 N   0  0  0  0  0  0  0  0  0  0  0  0
  -18.1742  -23.7464   23.9799 N   0  0  0  0  0  0  0  0  0  0  0  0
  -18.4746  -26.8122   17.8994 N   0  0  0  0  0  0  0  0  0  0  0  0
  -30.0848  -15.6966   21.6510 N   0  0  0  0  0  0  0  0  0  0  0  0
  -20.7020  -29.4926   16.9393 N   0  3  0  0  0  0  0  0  0  0  0  0
  -22.6056  -14.7207   21.4207 O   0  0  0  0  0  0  0  0  0  0  0  0
  -29.8452  -20.0822   19.2927 O   0  0  0  0  0  0  0  0  0  0  0  0
  -18.4961  -23.0265   21.7889 O   0  0  0  0  0  0  0  0  0  0  0  0
  -17.1074  -26.2179   20.3461 O   0  0  0  0  0  0  0  0  0  0  0  0
  -20.7109  -26.7017   17.2963 O   0  0  0  0  0  0  0  0  0  0  0  0
  -31.8254  -14.9835   20.3402 O   0  0  0  0  0  0  0  0  0  0  0  0
  -21.5874   -7.0062   21.6103 O   0  0  0  0  0  0  0  0  0  0  0  0
  -25.0651  -23.5113   21.4453 O   0  0  0  0  0  0  0  0  0  1  0  0
  -24.0299   -2.8914   24.3500 F   0  0  0  0  0  0  0  0  0  0  0  0
  -20.5402   -6.0692   23.9911 F   0  0  0  0  0  0  0  0  0  0  0  0
  1  2  1  0  0  0  0
  1  5  2  0  0  0  0
  2  6  2  0  0  0  0
  3  8  2  0  0  0  0
  3 16  1  0  0  0  0
  4  9  1  0  0  0  0
  4 16  2  0  0  0  0
  5 18  1  0  0  0  0
  6 20  1  0  0  0  0
  7 10  2  0  0  0  0
  7 19  1  0  0  0  0
  8 24  1  0  0  0  0
  9 24  2  0  0  0  0
 10 25  1  0  0  0  0
 11 12  2  0  0  0  0
 11 26  1  0  0  0  0
 12 27  1  0  0  0  0
 13 21  1  0  0  0  0
 13 25  2  0  0  0  0
 14 27  2  0  0  0  0
 14 28  1  0  0  0  0
 15 22  2  0  0  0  0
 15 70  1  0  0  0  0
 16 29  1  0  0  0  0
 17 29  1  0  0  0  0
 17 31  2  0  0  0  0
 17 34  1  0  0  0  0
 18 20  2  0  0  0  0
 18 40  1  0  0  0  0
 19 21  2  0  0  0  0
 19 41  1  0  0  0  0
 20 49  1  0  0  0  0
 21 42  1  0  0  0  0
 22 23  1  0  0  0  0
 22 61  1  0  0  0  0
 23 30  2  0  0  0  0
 23 60  1  0  0  0  0
 24 86  1  0  0  0  0
 25 87  1  0  0  0  0
 26 28  2  0  0  0  0
 26 86  1  0  0  0  0
 27 88  1  0  0  0  0
 28 89  1  0  0  0  0
 29 69  2  0  0  0  0
 30 35  1  0  0  0  0
 30 70  1  0  0  0  0
 31 71  1  0  0  0  0
 31 74  1  0  0  0  0
 32 33  2  0  0  0  0
 32 35  1  0  0  0  0
 33 62  1  0  0  0  0
 34 75  1  0  0  0  0
 34 80  2  0  0  0  0
 35 81  2  0  0  0  0
 36 50  1  0  0  0  0
 36 76  1  0  0  0  0
 36 82  2  0  0  0  0
 37 65  1  0  0  0  0
 37 72  1  0  0  0  0
 37 83  2  0  0  0  0
 38 66  1  0  0  0  0
 38 77  1  0  0  0  0
 38 84  2  0  0  0  0
 39 73  1  0  0  0  0
 39 78  1  0  0  0  0
 39 85  2  0  0  0  0
 40 43  1  0  0  0  0
 41 50  1  0  0  0  0
 42 72  1  0  0  0  0
 43 45  1  0  0  0  0
 44 46  1  0  0  0  0
 44 47  1  0  0  0  0
 45 49  1  0  0  0  0
 46 51  1  0  0  0  0
 47 73  1  0  0  0  0
 48 51  1  0  0  0  0
 48 73  1  0  0  0  0
 49 76  1  0  0  0  0
 50 72  1  0  0  0  0
 51 71  1  0  0  0  0
 52 63  1  0  0  0  0
 53 66  1  0  0  0  0
 54 67  1  0  0  0  0
 55 67  1  0  0  0  0
 56 68  1  0  0  0  0
 57 68  1  0  0  0  0
 58 68  1  0  0  0  0
 59 79  1  0  0  0  0
 60 63  1  0  0  0  0
 61 87  1  0  0  0  0
 62 78  1  0  0  0  0
 64 67  1  0  0  0  0
 64 70  1  0  0  0  0
 65 68  1  0  0  0  0
 65 77  1  0  0  0  0
 66 79  1  0  0  0  0
 69 71  1  0  0  0  0
M  CHG  1  79   1
M  ISO  4  39 100  61 101  78 100  87 101
M  END
> <Batch ID>
0113

> <Smiles>
CCCc1c([101CH2:1][101O:1]c2ccc3c(c2)CN(C(=O)C(NC(=O)C(C)NC)C(C)(C)C)C(C(=O)NC2CCCc4ccccc42)C3)cn(CC(C)C)c1C(=O)C=CC[100NH:0][100C:0](=O)N1CCCC(n2nc(-c3ccc(Oc4ccc(F)cc4F)cc3)c(C(N)=O)c2N)C1

> <Shape>
0.254

> <Color>
0.201

> <Negative vol penalty>
0.000

$$$$

  -OEChem-04052320053D

 89 98  0     1  0  0  0  0  0999 V2000
  -25.9091  -32.9410   29.9674 C   0  0  0  0  0  0  0  0  0  0  0  0
  -25.7466  -31.6017   30.3067 C   0  0  0  0  0  0  0  0  0  0  0  0
  -23.1047   -9.8590   21.4309 C   0  0  0  0  0  0  0  0  0  0  0  0
  -23.8572  -10.7204   23.5590 C   0  0  0  0  0  0  0  0  0  0  0  0
  -25.9436  -33.3199   28.6260 C   0  0  0  0  0  0  0  0  0  0  0  0
  -25.6174  -30.6405   29.3048 C   0  0  0  0  0  0  0  0  0  0  0  0
  -27.2181  -23.8033   27.8878 C   0  0  0  0  0  0  0  0  0  0  0  0
  -22.3837   -8.8627   22.0891 C   0  0  0  0  0  0  0  0  0  0  0  0
  -23.1362   -9.7241   24.2172 C   0  0  0  0  0  0  0  0  0  0  0  0
  -26.6142  -22.6227   27.4574 C   0  0  0  0  0  0  0  0  0  0  0  0
  -20.6345   -5.8732   23.1967 C   0  0  0  0  0  0  0  0  0  0  0  0
  -20.7217   -4.5724   22.7008 C   0  0  0  0  0  0  0  0  0  0  0  0
  -26.7681  -23.3838   25.1734 C   0  0  0  0  0  0  0  0  0  0  0  0
  -23.1084   -4.5895   23.0757 C   0  0  0  0  0  0  0  0  0  0  0  0
  -30.6861  -19.4469   21.3035 C   0  0  0  0  0  0  0  0  0  0  0  0
  -23.8414  -10.7879   22.1658 C   0  0  0  0  0  0  0  0  0  0  0  0
  -24.1320  -13.1001   21.1281 C   0  0  0  0  0  0  0  0  0  0  0  0
  -25.8245  -32.3617   27.6071 C   0  0  0  0  0  0  0  0  0  0  0  0
  -27.5922  -24.7894   26.9636 C   0  0  0  0  0  0  0  0  0  0  0  0
  -25.6490  -31.0070   27.9486 C   0  0  0  0  0  0  0  0  0  0  0  0
  -27.3788  -24.5749   25.5945 C   0  0  0  0  0  0  0  0  0  0  0  0
  -31.4848  -19.2655   20.1961 C   0  0  0  0  0  0  0  0  0  0  0  0
  -31.3431  -17.9161   19.7887 C   0  0  0  0  0  0  0  0  0  0  0  0
  -22.3995   -8.7953   23.4822 C   0  0  0  0  0  0  0  0  0  0  0  0
  -26.3865  -22.4140   26.1003 C   0  0  0  0  0  0  0  0  0  0  0  0
  -21.7843   -6.5322   23.6320 C   0  0  0  0  0  0  0  0  0  0  0  0
  -21.9586   -3.9306   22.6403 C   0  0  0  0  0  0  0  0  0  0  0  0
  -23.0212   -5.8904   23.5715 C   0  0  0  0  0  0  0  0  0  0  0  0
  -24.5868  -11.8169   21.4865 C   0  0  0  0  0  0  0  0  0  0  0  0
  -25.2097  -13.6864   20.5107 C   0  0  0  0  0  0  0  0  0  0  0  0
  -30.4620  -17.3139   20.6596 C   0  0  0  0  0  0  0  0  0  0  0  0
  -22.8499  -13.7078   21.3350 C   0  0  0  0  0  0  0  0  0  0  0  0
  -26.7672  -27.8170   26.4565 C   0  0  0  0  0  0  0  0  0  0  0  0
  -29.1502  -27.6907   24.2594 C   0  0  0  0  0  0  0  0  0  0  0  0
  -31.0864  -25.7876   22.1913 C   0  0  0  0  0  0  0  0  0  0  0  0
  -30.6529  -14.8331   20.2653 C   0  0  0  0  0  0  0  0  0  0  0  0
  -25.8202  -32.8249   26.1718 C   0  0  0  0  0  0  0  0  0  0  0  0
  -28.2668  -26.0459   27.4417 C   0  0  0  0  0  0  0  0  0  0  0  0
  -27.7803  -25.5935   24.5602 C   0  0  0  0  0  0  0  0  0  0  0  0
  -26.0521  -31.6989   25.1676 C   0  0  0  0  0  0  0  0  0  0  0  0
  -29.5952  -11.6980   18.9501 C   0  0  0  0  0  0  0  0  0  0  0  0
  -25.1809  -30.4935   25.5067 C   0  0  0  0  0  0  0  0  0  0  0  0
  -28.1605  -11.5550   19.4632 C   0  0  0  0  0  0  0  0  0  0  0  0
  -27.6514  -18.2329   22.2431 C   0  0  0  0  0  0  0  0  0  0  0  0
  -30.5018  -12.3691   19.9804 C   0  0  0  0  0  0  0  0  0  0  0  0
  -28.5762  -13.5104   21.0094 C   0  0  0  0  0  0  0  0  0  0  0  0
  -26.6418  -18.0126   23.3586 C   0  0  0  0  0  0  0  0  0  0  0  0
  -28.3453  -18.6877   25.0627 C   0  0  0  0  0  0  0  0  0  0  0  0
  -25.5304  -29.9319   26.8902 C   0  0  1  0  0  0  0  0  0  0  0  0
  -28.1392  -27.2043   26.4572 C   0  0  1  0  0  0  0  0  0  0  0  0
  -29.3964  -18.9119   23.9679 C   0  0  2  0  0  0  0  0  0  0  0  0
  -27.6108  -12.8985   19.9812 C   0  0  2  0  0  0  0  0  0  0  0  0
  -29.0992  -18.0317   22.7265 C   0  0  2  0  0  0  0  0  0  0  0  0
  -32.0166  -17.2735   18.6406 C   0  0  0  0  0  0  0  0  0  0  0  0
  -30.7864  -18.6292   24.5506 C   0  0  0  0  0  0  0  0  0  0  0  0
  -33.4357  -20.8330   20.4971 C   0  0  0  0  0  0  0  0  0  0  0  0
  -31.5130  -21.4859   19.0031 C   0  0  0  0  0  0  0  0  0  0  0  0
  -32.9216  -25.9713   20.4898 C   0  0  0  0  0  0  0  0  0  0  0  0
  -27.1387  -28.7086   22.2032 C   0  0  0  0  0  0  0  0  0  0  0  0
  -28.7146  -27.9750   20.4014 C   0  0  0  0  0  0  0  0  0  0  0  0
  -29.4150  -29.7299   22.0300 C   0  0  0  0  0  0  0  0  0  0  0  0
  -32.9178  -24.1254   23.8167 C   0  0  0  0  0  0  0  0  0  0  0  0
  -25.9147  -18.8628   25.5834 C   0  0  0  0  0  0  0  0  0  0  0  0
  -26.0186  -20.0927   26.4636 C   0  0  0  0  0  0  0  0  0  1  0  0
  -32.3289  -20.2964   19.5601 C   0  0  0  0  0  0  0  0  0  0  0  0
  -29.2377  -27.3272   22.7967 C   0  0  1  0  0  0  0  0  0  0  0  0
  -32.5861  -25.7606   21.9580 C   0  0  2  0  0  0  0  0  0  0  0  0
  -28.6171  -28.4166   21.8772 C   0  0  0  0  0  0  0  0  0  0  0  0
  -25.8547  -11.6001   21.1265 N   0  0  0  0  0  0  0  0  0  0  0  0
  -30.0689  -18.2540   21.5760 N   0  0  0  0  0  0  0  0  0  0  0  0
  -26.2057  -12.7549   20.5354 N   0  0  0  0  0  0  0  0  0  0  0  0
  -28.4308  -26.8085   25.0779 N   0  0  0  0  0  0  0  0  0  0  0  0
  -29.9192  -13.6381   20.4221 N   0  0  0  0  0  0  0  0  0  0  0  0
  -25.3931  -14.9026   19.9543 N   0  0  0  0  0  0  0  0  0  0  0  0
  -21.8558  -12.9650   21.9864 N   0  0  0  0  0  0  0  0  0  0  0  0
  -29.9843  -15.9803   20.6913 N   0  0  0  0  0  0  0  0  0  0  0  0
  -26.7455  -29.1485   26.8255 N   0  0  0  0  0  0  0  0  0  0  0  0
  -30.6446  -27.0495   22.5285 N   0  0  0  0  0  0  0  0  0  0  0  0
  -26.9644  -18.9319   24.5080 N   0  3  2  0  0  0  0  0  0  0  0  0
  -33.1535  -24.4509   22.3865 N   0  3  0  0  0  0  0  0  0  0  0  0
  -22.5884  -14.8689   20.9389 O   0  0  0  0  0  0  0  0  0  0  0  0
  -25.8001  -27.1328   26.1430 O   0  0  0  0  0  0  0  0  0  0  0  0
  -29.7060  -28.7156   24.6621 O   0  0  0  0  0  0  0  0  0  0  0  0
  -30.3771  -24.7899   22.0815 O   0  0  0  0  0  0  0  0  0  0  0  0
  -31.7797  -14.8416   19.7632 O   0  0  0  0  0  0  0  0  0  0  0  0
  -21.6959   -7.8234   24.1248 O   0  0  0  0  0  0  0  0  0  0  0  0
  -25.7967  -21.2628   25.6775 O   0  0  0  0  0  0  0  0  0  1  0  0
  -22.0420   -2.6809   22.1655 F   0  0  0  0  0  0  0  0  0  0  0  0
  -24.1291   -6.5179   23.9894 F   0  0  0  0  0  0  0  0  0  0  0  0
  1  2  1  0  0  0  0
  1  5  2  0  0  0  0
  2  6  2  0  0  0  0
  3  8  2  0  0  0  0
  3 16  1  0  0  0  0
  4  9  1  0  0  0  0
  4 16  2  0  0  0  0
  5 18  1  0  0  0  0
  6 20  1  0  0  0  0
  7 10  2  0  0  0  0
  7 19  1  0  0  0  0
  8 24  1  0  0  0  0
  9 24  2  0  0  0  0
 10 25  1  0  0  0  0
 11 12  2  0  0  0  0
 11 26  1  0  0  0  0
 12 27  1  0  0  0  0
 13 21  1  0  0  0  0
 13 25  2  0  0  0  0
 14 27  2  0  0  0  0
 14 28  1  0  0  0  0
 15 22  2  0  0  0  0
 15 70  1  0  0  0  0
 16 29  1  0  0  0  0
 17 29  1  0  0  0  0
 17 30  2  0  0  0  0
 17 32  1  0  0  0  0
 18 20  2  0  0  0  0
 18 37  1  0  0  0  0
 19 21  2  0  0  0  0
 19 38  1  0  0  0  0
 20 49  1  0  0  0  0
 21 39  1  0  0  0  0
 22 23  1  0  0  0  0
 22 65  1  0  0  0  0
 23 31  2  0  0  0  0
 23 54  1  0  0  0  0
 24 86  1  0  0  0  0
 25 87  1  0  0  0  0
 26 28  2  0  0  0  0
 26 86  1  0  0  0  0
 27 88  1  0  0  0  0
 28 89  1  0  0  0  0
 29 69  2  0  0  0  0
 30 71  1  0  0  0  0
 30 74  1  0  0  0  0
 31 70  1  0  0  0  0
 31 76  1  0  0  0  0
 32 75  1  0  0  0  0
 32 81  2  0  0  0  0
 33 50  1  0  0  0  0
 33 77  1  0  0  0  0
 33 82  2  0  0  0  0
 34 66  1  0  0  0  0
 34 72  1  0  0  0  0
 34 83  2  0  0  0  0
 35 67  1  0  0  0  0
 35 78  1  0  0  0  0
 35 84  2  0  0  0  0
 36 73  1  0  0  0  0
 36 76  1  0  0  0  0
 36 85  2  0  0  0  0
 37 40  1  0  0  0  0
 38 50  1  0  0  0  0
 39 72  1  0  0  0  0
 40 42  1  0  0  0  0
 41 43  1  0  0  0  0
 41 45  1  0  0  0  0
 42 49  1  0  0  0  0
 43 52  1  0  0  0  0
 44 47  1  0  0  0  0
 44 53  1  0  0  0  0
 45 73  1  0  0  0  0
 46 52  1  0  0  0  0
 46 73  1  0  0  0  0
 47 79  1  0  0  0  0
 48 51  1  0  0  0  0
 48 79  1  0  0  0  0
 49 77  1  0  0  0  0
 50 72  1  0  0  0  0
 51 53  1  0  0  0  0
 51 55  1  0  0  0  0
 52 71  1  0  0  0  0
 53 70  1  0  0  0  0
 56 65  1  0  0  0  0
 57 65  1  0  0  0  0
 58 67  1  0  0  0  0
 59 68  1  0  0  0  0
 60 68  1  0  0  0  0
 61 68  1  0  0  0  0
 62 80  1  0  0  0  0
 63 64  1  0  0  0  0
 63 79  1  0  0  0  0
 64 87  1  0  0  0  0
 66 68  1  0  0  0  0
 66 78  1  0  0  0  0
 67 80  1  0  0  0  0
 69 71  1  0  0  0  0
M  CHG  2  79   1  80   1
M  ISO  4  36 100  64 101  76 100  87 101
M  END
> <Batch ID>
0113

> <Smiles>
CNC(C)C(=O)NC(C(=O)N1Cc2cc([101O:1][101CH2:1]CN3CCC(n4cc(C(C)C)c(C)c4[100NH:0][100C:0](=O)N4CCCC(n5nc(-c6ccc(Oc7ccc(F)cc7F)cc6)c(C(N)=O)c5N)C4)C(C)C3)ccc2CC1C(=O)NC1CCCc2ccccc21)C(C)(C)C

> <Shape>
0.213

> <Color>
0.147

> <Negative vol penalty>
0.000

$$$$

  -OEChem-04052320053D

 85 93  0     1  0  0  0  0  0999 V2000
  -24.9901   -8.2943   21.8194 C   0  0  0  0  0  0  0  0  0  0  0  0
  -25.9864   -9.1663   21.3924 C   0  0  0  0  0  0  0  0  0  0  0  0
  -23.8054  -28.6664   21.9003 C   0  0  0  0  0  0  0  0  0  0  0  0
  -25.4902  -30.0493   20.8581 C   0  0  0  0  0  0  0  0  0  0  0  0
  -23.6728   -8.7393   21.9219 C   0  0  0  0  0  0  0  0  0  0  0  0
  -25.6657  -10.4836   21.0665 C   0  0  0  0  0  0  0  0  0  0  0  0
  -29.1461  -15.4454   21.9464 C   0  0  0  0  0  0  0  0  0  0  0  0
  -23.4007  -29.7484   22.6819 C   0  0  0  0  0  0  0  0  0  0  0  0
  -25.0855  -31.1314   21.6398 C   0  0  0  0  0  0  0  0  0  0  0  0
  -29.9838  -16.1663   21.0965 C   0  0  0  0  0  0  0  0  0  0  0  0
  -25.5199  -32.2127   24.8136 C   0  0  0  0  0  0  0  0  0  0  0  0
  -26.5133  -32.9823   25.4189 C   0  0  0  0  0  0  0  0  0  0  0  0
  -28.1930  -17.7230   20.6618 C   0  0  0  0  0  0  0  0  0  0  0  0
  -25.7310  -34.9314   24.2246 C   0  0  0  0  0  0  0  0  0  0  0  0
  -24.8502  -28.8168   20.9884 C   0  0  0  0  0  0  0  0  0  0  0  0
  -24.7807  -27.3376   18.9112 C   0  0  0  0  0  0  0  0  0  0  0  0
  -23.3374  -10.0654   21.6064 C   0  0  0  0  0  0  0  0  0  0  0  0
  -27.8200  -15.8524   22.1522 C   0  0  0  0  0  0  0  0  0  0  0  0
  -24.3425  -10.9464   21.1636 C   0  0  0  0  0  0  0  0  0  0  0  0
  -27.3413  -17.0070   21.5168 C   0  0  0  0  0  0  0  0  0  0  0  0
  -24.0407  -30.9809   22.5517 C   0  0  0  0  0  0  0  0  0  0  0  0
  -29.5064  -17.3036   20.4517 C   0  0  0  0  0  0  0  0  0  0  0  0
  -24.6321  -32.8024   23.9136 C   0  0  0  0  0  0  0  0  0  0  0  0
  -26.6188  -34.3417   25.1244 C   0  0  0  0  0  0  0  0  0  0  0  0
  -24.7376  -34.1617   23.6192 C   0  0  0  0  0  0  0  0  0  0  0  0
  -25.2690  -27.6993   20.1811 C   0  0  0  0  0  0  0  0  0  0  0  0
  -25.4962  -26.2143   18.5754 C   0  0  0  0  0  0  0  0  0  0  0  0
  -23.7707  -27.9612   18.1071 C   0  0  0  0  0  0  0  0  0  0  0  0
  -24.9670  -14.5611   21.6078 C   0  0  0  0  0  0  0  0  0  0  0  0
  -23.9092  -17.1847   23.1952 C   0  0  0  0  0  0  0  0  0  0  0  0
  -24.4769  -20.4053   24.1710 C   0  0  0  0  0  0  0  0  0  0  0  0
  -30.8437  -24.3217   20.2119 C   0  0  0  0  0  0  0  0  0  0  0  0
  -21.8917  -10.4875   21.6874 C   0  0  0  0  0  0  0  0  0  0  0  0
  -26.9372  -15.0791   23.0930 C   0  0  0  0  0  0  0  0  0  0  0  0
  -25.9319  -17.4975   21.7200 C   0  0  0  0  0  0  0  0  0  0  0  0
  -21.6981  -12.0017   21.6819 C   0  0  0  0  0  0  0  0  0  0  0  0
  -27.7469  -22.4793   20.5481 C   0  0  0  0  0  0  0  0  0  0  0  0
  -22.5448  -12.6442   20.5878 C   0  0  0  0  0  0  0  0  0  0  0  0
  -26.7109  -23.5904   20.3685 C   0  0  0  0  0  0  0  0  0  0  0  0
  -28.9617  -22.9766   21.3261 C   0  0  0  0  0  0  0  0  0  0  0  0
  -28.5877  -25.2880   20.5573 C   0  0  0  0  0  0  0  0  0  0  0  0
  -34.4381  -22.4737   17.9520 C   0  0  0  0  0  0  0  0  0  0  0  0
  -32.7132  -21.2472   16.7304 C   0  0  0  0  0  0  0  0  0  0  0  0
  -24.0382  -12.3896   20.8248 C   0  0  1  0  0  0  0  0  0  0  0  0
  -25.4501  -15.2925   22.8282 C   0  0  1  0  0  0  0  0  0  0  0  0
  -33.2504  -22.1687   18.8559 C   0  0  2  0  0  0  0  0  0  0  0  0
  -27.3451  -24.8545   19.7585 C   0  0  2  0  0  0  0  0  0  0  0  0
  -32.0998  -22.0699   17.8526 C   0  0  2  0  0  0  0  0  0  0  0  0
  -23.4131  -22.2998   25.4267 C   0  0  0  0  0  0  0  0  0  0  0  0
  -34.9309  -23.6735   23.3502 C   0  0  0  0  0  0  0  0  0  0  0  0
  -34.1825  -25.4525   21.7584 C   0  0  0  0  0  0  0  0  0  0  0  0
  -22.0864  -17.7378   20.8116 C   0  0  0  0  0  0  0  0  0  0  0  0
  -21.7809  -20.0680   21.6748 C   0  0  0  0  0  0  0  0  0  0  0  0
  -21.0292  -18.1236   23.0449 C   0  0  0  0  0  0  0  0  0  0  0  0
  -29.7558  -21.7072   17.5319 C   0  0  0  0  0  0  0  0  0  0  0  0
  -26.6550  -20.4538   26.1742 C   0  0  0  0  0  0  0  0  0  0  0  0
  -34.0123  -22.9864   21.1136 C   0  0  0  0  0  0  0  0  0  0  0  0
  -31.1086  -20.0105   18.5633 C   0  0  0  0  0  0  0  0  0  0  0  0
  -30.0835  -19.4116   19.5140 C   0  0  0  0  0  0  0  0  0  1  0  0
  -23.5030  -18.5832   22.7976 C   0  0  1  0  0  0  0  0  0  0  0  0
  -24.3306  -21.0904   25.5178 C   0  0  2  0  0  0  0  0  0  0  0  0
  -33.0506  -23.2218   19.9349 C   0  0  2  0  0  0  0  0  0  0  0  0
  -33.9261  -24.0273   22.2499 C   0  0  0  0  0  0  0  0  0  0  0  0
  -22.1259  -18.6181   22.0767 C   0  0  0  0  0  0  0  0  0  0  0  0
  -26.2210  -26.8727   20.6221 N   0  0  0  0  0  0  0  0  0  0  0  0
  -26.3366  -25.9804   19.6239 N   0  0  0  0  0  0  0  0  0  0  0  0
  -25.1055  -16.7038   22.6444 N   0  0  0  0  0  0  0  0  0  0  0  0
  -29.5289  -24.1702   20.6829 N   0  0  0  0  0  0  0  0  0  0  0  0
  -25.4821  -25.4136   17.4886 N   0  0  0  0  0  0  0  0  0  0  0  0
  -23.1354  -29.1078   18.6031 N   0  0  0  0  0  0  0  0  0  0  0  0
  -24.5434  -13.2696   21.8568 N   0  0  0  0  0  0  0  0  0  0  0  0
  -23.5611  -19.3865   24.0141 N   0  0  0  0  0  0  0  0  0  0  0  0
  -31.6732  -23.2190   20.3751 N   0  0  0  0  0  0  0  0  0  0  0  0
  -30.9070  -21.4431   18.3979 N   0  0  1  0  0  0  0  0  0  0  0  0
  -34.1458  -21.7038   16.6930 N   0  3  0  0  0  0  0  0  0  0  0  0
  -25.6600  -21.5453   26.0146 N   0  3  0  0  0  0  0  0  0  0  0  0
  -23.4299  -27.5055   16.9892 O   0  0  0  0  0  0  0  0  0  0  0  0
  -24.9765  -15.1271   20.5209 O   0  0  0  0  0  0  0  0  0  0  0  0
  -23.1950  -16.5452   23.9716 O   0  0  0  0  0  0  0  0  0  0  0  0
  -25.3169  -20.7427   23.3398 O   0  0  0  0  0  0  0  0  0  0  0  0
  -31.2474  -25.3615   19.6800 O   0  0  0  0  0  0  0  0  0  0  0  0
  -23.6459  -32.0371   23.3141 O   0  0  0  0  0  0  0  0  0  0  0  0
  -30.3218  -18.0087   19.6211 O   0  0  0  0  0  0  0  0  0  1  0  0
  -27.5719  -35.0809   25.7070 F   0  0  0  0  0  0  0  0  0  0  0  0
  -23.8869  -34.7341   22.7564 F   0  0  0  0  0  0  0  0  0  0  0  0
  1  2  1  0  0  0  0
  1  5  2  0  0  0  0
  2  6  2  0  0  0  0
  3  8  2  0  0  0  0
  3 15  1  0  0  0  0
  4  9  1  0  0  0  0
  4 15  2  0  0  0  0
  5 17  1  0  0  0  0
  6 19  1  0  0  0  0
  7 10  2  0  0  0  0
  7 18  1  0  0  0  0
  8 21  1  0  0  0  0
  9 21  2  0  0  0  0
 10 22  1  0  0  0  0
 11 12  2  0  0  0  0
 11 23  1  0  0  0  0
 12 24  1  0  0  0  0
 13 20  1  0  0  0  0
 13 22  2  0  0  0  0
 14 24  2  0  0  0  0
 14 25  1  0  0  0  0
 15 26  1  0  0  0  0
 16 26  1  0  0  0  0
 16 27  2  0  0  0  0
 16 28  1  0  0  0  0
 17 19  2  0  0  0  0
 17 33  1  0  0  0  0
 18 20  2  0  0  0  0
 18 34  1  0  0  0  0
 19 44  1  0  0  0  0
 20 35  1  0  0  0  0
 21 82  1  0  0  0  0
 22 83  1  0  0  0  0
 23 25  2  0  0  0  0
 23 82  1  0  0  0  0
 24 84  1  0  0  0  0
 25 85  1  0  0  0  0
 26 65  2  0  0  0  0
 27 66  1  0  0  0  0
 27 69  1  0  0  0  0
 28 70  1  0  0  0  0
 28 77  2  0  0  0  0
 29 45  1  0  0  0  0
 29 71  1  0  0  0  0
 29 78  2  0  0  0  0
 30 60  1  0  0  0  0
 30 67  1  0  0  0  0
 30 79  2  0  0  0  0
 31 61  1  0  0  0  0
 31 72  1  0  0  0  0
 31 80  2  0  0  0  0
 32 68  1  0  0  0  0
 32 73  1  0  0  0  0
 32 81  2  0  0  0  0
 33 36  1  0  0  0  0
 34 45  1  0  0  0  0
 35 67  1  0  0  0  0
 36 38  1  0  0  0  0
 37 39  1  0  0  0  0
 37 40  1  0  0  0  0
 38 44  1  0  0  0  0
 39 47  1  0  0  0  0
 40 68  1  0  0  0  0
 41 47  1  0  0  0  0
 41 68  1  0  0  0  0
 42 46  1  0  0  0  0
 42 75  1  0  0  0  0
 43 48  1  0  0  0  0
 43 75  1  0  0  0  0
 44 71  1  0  0  0  0
 45 67  1  0  0  0  0
 46 48  1  0  0  0  0
 46 62  1  0  0  0  0
 47 66  1  0  0  0  0
 48 74  1  0  0  0  0
 49 61  1  0  0  0  0
 50 63  1  0  0  0  0
 51 63  1  0  0  0  0
 52 64  1  0  0  0  0
 53 64  1  0  0  0  0
 54 64  1  0  0  0  0
 55 74  1  0  0  0  0
 56 76  1  0  0  0  0
 57 62  1  0  0  0  0
 57 63  1  0  0  0  0
 58 59  1  0  0  0  0
 58 74  1  0  0  0  0
 59 83  1  0  0  0  0
 60 64  1  0  0  0  0
 60 72  1  0  0  0  0
 61 76  1  0  0  0  0
 62 73  1  0  0  0  0
 65 66  1  0  0  0  0
M  CHG  2  75   1  76   1
M  ISO  4  32 100  59 101  73 100  83 101
M  END
> <Batch ID>
0113

> <Smiles>
CNC(C)C(=O)NC(C(=O)N1Cc2cc([101O:1][101CH2:1]CN(C)C3CNCC3C(CC(C)C)[100NH:0][100C:0](=O)N3CCCC(n4nc(-c5ccc(Oc6ccc(F)cc6F)cc5)c(C(N)=O)c4N)C3)ccc2CC1C(=O)NC1CCCc2ccccc21)C(C)(C)C

> <Shape>
0.225

> <Color>
0.071

> <Negative vol penalty>
0.000

$$$$

  -OEChem-04052320053D

 91100  0     1  0  0  0  0  0999 V2000
  -31.8460  -28.9114   34.0846 C   0  0  0  0  0  0  0  0  0  0  0  0
  -32.3323  -27.6229   33.8881 C   0  0  0  0  0  0  0  0  0  0  0  0
  -23.0748   -9.8676   19.9425 C   0  0  0  0  0  0  0  0  0  0  0  0
  -23.8383   -9.8755   22.2347 C   0  0  0  0  0  0  0  0  0  0  0  0
  -30.6642  -29.3116   33.4624 C   0  0  0  0  0  0  0  0  0  0  0  0
  -31.6365  -26.7334   33.0701 C   0  0  0  0  0  0  0  0  0  0  0  0
  -34.0363  -22.4378   29.4239 C   0  0  0  0  0  0  0  0  0  0  0  0
  -22.3324   -8.7138   20.1937 C   0  0  0  0  0  0  0  0  0  0  0  0
  -23.0958   -8.7217   22.4859 C   0  0  0  0  0  0  0  0  0  0  0  0
  -34.2217  -21.0657   29.5870 C   0  0  0  0  0  0  0  0  0  0  0  0
  -19.8693   -7.9211   23.0936 C   0  0  0  0  0  0  0  0  0  0  0  0
  -19.1143   -7.8806   24.2657 C   0  0  0  0  0  0  0  0  0  0  0  0
  -32.1568  -20.6528   28.4102 C   0  0  0  0  0  0  0  0  0  0  0  0
  -30.4825  -17.3981   27.7151 C   0  0  0  0  0  0  0  0  0  0  0  0
  -20.3586   -5.9443   25.0004 C   0  0  0  0  0  0  0  0  0  0  0  0
  -32.3992  -16.9371   25.8285 C   0  0  0  0  0  0  0  0  0  0  0  0
  -23.8278  -10.4484   20.9629 C   0  0  0  0  0  0  0  0  0  0  0  0
  -24.1672  -12.9739   20.8421 C   0  0  0  0  0  0  0  0  0  0  0  0
  -29.9586  -28.4297   32.6287 C   0  0  0  0  0  0  0  0  0  0  0  0
  -32.9023  -22.9290   28.7611 C   0  0  0  0  0  0  0  0  0  0  0  0
  -30.4434  -27.1218   32.4372 C   0  0  0  0  0  0  0  0  0  0  0  0
  -31.9606  -22.0315   28.2377 C   0  0  0  0  0  0  0  0  0  0  0  0
  -30.1028  -16.9743   26.4464 C   0  0  0  0  0  0  0  0  0  0  0  0
  -22.3429   -8.1409   21.4654 C   0  0  0  0  0  0  0  0  0  0  0  0
  -33.2805  -20.1730   29.0827 C   0  0  0  0  0  0  0  0  0  0  0  0
  -20.8690   -6.9731   22.8748 C   0  0  0  0  0  0  0  0  0  0  0  0
  -31.0733  -16.7373   25.4794 C   0  0  0  0  0  0  0  0  0  0  0  0
  -19.3589   -6.8923   25.2191 C   0  0  0  0  0  0  0  0  0  0  0  0
  -21.1136   -5.9848   23.8283 C   0  0  0  0  0  0  0  0  0  0  0  0
  -24.5954  -11.6400   20.7039 C   0  0  0  0  0  0  0  0  0  0  0  0
  -31.8348  -17.5682   27.9643 C   0  0  0  0  0  0  0  0  0  0  0  0
  -25.2581  -13.7243   20.4770 C   0  0  0  0  0  0  0  0  0  0  0  0
  -22.8969  -13.4886   21.2629 C   0  0  0  0  0  0  0  0  0  0  0  0
  -30.4501  -24.7779   29.5808 C   0  0  0  0  0  0  0  0  0  0  0  0
  -29.7315  -24.5564   26.4254 C   0  0  0  0  0  0  0  0  0  0  0  0
  -30.0142  -22.8133   23.5050 C   0  0  0  0  0  0  0  0  0  0  0  0
  -30.7412  -14.7484   20.6567 C   0  0  0  0  0  0  0  0  0  0  0  0
  -28.6608  -28.8924   32.0154 C   0  0  0  0  0  0  0  0  0  0  0  0
  -32.7303  -24.4110   28.5700 C   0  0  0  0  0  0  0  0  0  0  0  0
  -30.7363  -22.5071   27.5005 C   0  0  0  0  0  0  0  0  0  0  0  0
  -28.1820  -28.0103   30.8652 C   0  0  0  0  0  0  0  0  0  0  0  0
  -29.6021  -12.3625   18.2720 C   0  0  0  0  0  0  0  0  0  0  0  0
  -24.2915  -17.4876   25.9835 C   0  0  0  0  0  0  0  0  0  0  0  0
  -28.2788  -26.5365   31.2466 C   0  0  0  0  0  0  0  0  0  0  0  0
  -25.7819  -17.6560   26.2631 C   0  0  0  0  0  0  0  0  0  0  0  0
  -28.1655  -12.0676   18.7072 C   0  0  0  0  0  0  0  0  0  0  0  0
  -30.5208  -12.5843   19.4714 C   0  0  0  0  0  0  0  0  0  0  0  0
  -28.6206  -13.3139   20.8609 C   0  0  0  0  0  0  0  0  0  0  0  0
  -23.7744  -18.5656   25.0485 C   0  0  0  0  0  0  0  0  0  0  0  0
  -29.7302  -26.1361   31.5374 C   0  0  1  0  0  0  0  0  0  0  0  0
  -31.2800  -24.8181   28.3289 C   0  0  1  0  0  0  0  0  0  0  0  0
  -26.6053  -17.7176   24.9651 C   0  0  1  0  0  0  0  0  0  0  0  0
  -27.6448  -13.1382   19.6848 C   0  0  2  0  0  0  0  0  0  0  0  0
  -26.0633  -18.8116   24.0242 C   0  0  1  0  0  0  0  0  0  0  0  0
  -26.7337  -18.8314   22.6544 C   0  0  0  0  0  0  0  0  0  0  0  0
  -32.5701  -16.8591   30.2664 C   0  0  0  0  0  0  0  0  0  0  0  0
  -29.2866  -22.8614   21.1039 C   0  0  0  0  0  0  0  0  0  0  0  0
  -26.9466  -23.6241   27.2531 C   0  0  0  0  0  0  0  0  0  0  0  0
  -26.6046  -22.7970   24.9150 C   0  0  0  0  0  0  0  0  0  0  0  0
  -26.9825  -25.2269   25.3337 C   0  0  0  0  0  0  0  0  0  0  0  0
  -32.8082  -22.9618   22.5405 C   0  0  0  0  0  0  0  0  0  0  0  0
  -28.6551  -16.7799   26.1403 C   0  0  0  0  0  0  0  0  0  0  0  0
  -28.0814  -17.9355   25.3071 C   0  0  0  0  0  0  0  0  0  0  0  0
  -30.8070  -16.8991   21.8933 C   0  0  0  0  0  0  0  0  0  0  0  0
  -31.6172  -16.7170   23.1643 C   0  0  0  0  0  0  0  0  0  0  0  0
  -32.2841  -18.0281   29.3323 C   0  0  1  0  0  0  0  0  0  1  0  0
  -28.9123  -23.6120   25.5792 C   0  0  1  0  0  0  0  0  0  0  0  0
  -30.3680  -23.2573   22.0971 C   0  0  2  0  0  0  0  0  0  0  0  0
  -27.3835  -23.8058   25.7858 C   0  0  0  0  0  0  0  0  0  0  0  0
  -32.8064  -17.3480   27.0504 N   0  0  0  0  0  0  0  0  0  0  0  0
  -25.8597  -11.5453   20.2836 N   0  0  0  0  0  0  0  0  0  0  0  0
  -26.2353  -12.8292   20.1546 N   0  0  0  0  0  0  0  0  0  0  0  0
  -30.6098  -23.9656   27.3448 N   0  0  0  0  0  0  0  0  0  0  0  0
  -29.9707  -13.6125   20.3582 N   0  0  0  0  0  0  0  0  0  0  0  0
  -25.4672  -15.0560   20.4035 N   0  0  0  0  0  0  0  0  0  0  0  0
  -21.8863  -12.5785   21.6019 N   0  0  0  0  0  0  0  0  0  0  0  0
  -30.4622  -25.9567   30.3019 N   0  0  0  0  0  0  0  0  0  0  0  0
  -29.3586  -23.8049   24.2037 N   0  0  0  0  0  0  0  0  0  0  0  0
  -30.1425  -15.6767   21.4996 N   0  0  0  0  0  0  0  0  0  0  0  0
  -24.5940  -18.5658   23.8018 N   0  3  0  0  0  0  0  0  0  0  0  0
  -31.6524  -22.6368   21.6657 N   0  3  0  0  0  0  0  0  0  0  0  0
  -22.6596  -14.7190   21.3205 O   0  0  0  0  0  0  0  0  0  0  0  0
  -29.8425  -23.7539   29.8704 O   0  0  0  0  0  0  0  0  0  0  0  0
  -29.6024  -25.7734   26.2711 O   0  0  0  0  0  0  0  0  0  0  0  0
  -30.2885  -21.6971   23.9402 O   0  0  0  0  0  0  0  0  0  0  0  0
  -31.8763  -14.9248   20.2013 O   0  0  0  0  0  0  0  0  0  0  0  0
  -21.6183   -7.0151   21.7110 O   0  0  0  0  0  0  0  0  0  0  0  0
  -30.7488  -16.3235   24.2282 O   0  0  0  0  0  0  0  0  0  0  0  0
  -33.4587  -18.8333   29.2411 O   0  0  0  0  0  0  0  0  0  1  0  0
  -18.6347   -6.8544   26.3453 F   0  0  0  0  0  0  0  0  0  0  0  0
  -22.0735   -5.0722   23.6243 F   0  0  0  0  0  0  0  0  0  0  0  0
  1  2  1  0  0  0  0
  1  5  2  0  0  0  0
  2  6  2  0  0  0  0
  3  8  2  0  0  0  0
  3 17  1  0  0  0  0
  4  9  1  0  0  0  0
  4 17  2  0  0  0  0
  5 19  1  0  0  0  0
  6 21  1  0  0  0  0
  7 10  2  0  0  0  0
  7 20  1  0  0  0  0
  8 24  1  0  0  0  0
  9 24  2  0  0  0  0
 10 25  1  0  0  0  0
 11 12  2  0  0  0  0
 11 26  1  0  0  0  0
 12 28  1  0  0  0  0
 13 22  1  0  0  0  0
 13 25  2  0  0  0  0
 14 23  2  0  0  0  0
 14 31  1  0  0  0  0
 15 28  2  0  0  0  0
 15 29  1  0  0  0  0
 16 27  2  0  0  0  0
 16 70  1  0  0  0  0
 17 30  1  0  0  0  0
 18 30  1  0  0  0  0
 18 32  2  0  0  0  0
 18 33  1  0  0  0  0
 19 21  2  0  0  0  0
 19 38  1  0  0  0  0
 20 22  2  0  0  0  0
 20 39  1  0  0  0  0
 21 50  1  0  0  0  0
 22 40  1  0  0  0  0
 23 27  1  0  0  0  0
 23 62  1  0  0  0  0
 24 87  1  0  0  0  0
 25 89  1  0  0  0  0
 26 29  2  0  0  0  0
 26 87  1  0  0  0  0
 27 88  1  0  0  0  0
 28 90  1  0  0  0  0
 29 91  1  0  0  0  0
 30 71  2  0  0  0  0
 31 66  1  0  0  0  0
 31 70  2  0  0  0  0
 32 72  1  0  0  0  0
 32 75  1  0  0  0  0
 33 76  1  0  0  0  0
 33 82  2  0  0  0  0
 34 51  1  0  0  0  0
 34 77  1  0  0  0  0
 34 83  2  0  0  0  0
 35 67  1  0  0  0  0
 35 73  1  0  0  0  0
 35 84  2  0  0  0  0
 36 68  1  0  0  0  0
 36 78  1  0  0  0  0
 36 85  2  0  0  0  0
 37 74  1  0  0  0  0
 37 79  1  0  0  0  0
 37 86  2  0  0  0  0
 38 41  1  0  0  0  0
 39 51  1  0  0  0  0
 40 73  1  0  0  0  0
 41 44  1  0  0  0  0
 42 46  1  0  0  0  0
 42 47  1  0  0  0  0
 43 45  1  0  0  0  0
 43 49  1  0  0  0  0
 44 50  1  0  0  0  0
 45 52  1  0  0  0  0
 46 53  1  0  0  0  0
 47 74  1  0  0  0  0
 48 53  1  0  0  0  0
 48 74  1  0  0  0  0
 49 80  1  0  0  0  0
 50 77  1  0  0  0  0
 51 73  1  0  0  0  0
 52 54  1  0  0  0  0
 52 63  1  0  0  0  0
 53 72  1  0  0  0  0
 54 55  1  0  0  0  0
 54 80  1  0  0  0  0
 56 66  1  0  0  0  0
 57 68  1  0  0  0  0
 58 69  1  0  0  0  0
 59 69  1  0  0  0  0
 60 69  1  0  0  0  0
 61 81  1  0  0  0  0
 62 63  1  0  0  0  0
 64 65  1  0  0  0  0
 64 79  1  0  0  0  0
 65 88  1  0  0  0  0
 66 89  1  0  0  0  0
 67 69  1  0  0  0  0
 67 78  1  0  0  0  0
 68 81  1  0  0  0  0
 71 72  1  0  0  0  0
M  CHG  2  80   1  81   1
M  ISO  4  37 100  66 101  79 100  89 101
M  END
> <Batch ID>
0113

> <Smiles>
CNC(C)C(=O)NC(C(=O)N1Cc2cc([101O:1][101CH:1](C)c3cc(CCC4CCCNC4C)c(OCC[100NH:0][100C:0](=O)N4CCCC(n5nc(-c6ccc(Oc7ccc(F)cc7F)cc6)c(C(N)=O)c5N)C4)cn3)ccc2CC1C(=O)NC1CCCc2ccccc21)C(C)(C)C

> <Shape>
0.167

> <Color>
0.180

> <Negative vol penalty>
0.000

$$$$

  -OEChem-04052320053D

 85 93  0     1  0  0  0  0  0999 V2000
  -18.7068  -30.5921   24.6137 C   0  0  0  0  0  0  0  0  0  0  0  0
  -20.0826  -30.4509   24.4629 C   0  0  0  0  0  0  0  0  0  0  0  0
  -22.4028  -14.2312   20.4477 C   0  0  0  0  0  0  0  0  0  0  0  0
  -22.9962  -14.9142   22.6879 C   0  0  0  0  0  0  0  0  0  0  0  0
  -17.8455  -29.6439   24.0632 C   0  0  0  0  0  0  0  0  0  0  0  0
  -20.5979  -29.3607   23.7625 C   0  0  0  0  0  0  0  0  0  0  0  0
  -25.5948  -29.2879   20.2225 C   0  0  0  0  0  0  0  0  0  0  0  0
  -22.1200  -12.9474   20.9140 C   0  0  0  0  0  0  0  0  0  0  0  0
  -22.7134  -13.6304   23.1542 C   0  0  0  0  0  0  0  0  0  0  0  0
  -26.9059  -28.8769   20.4589 C   0  0  0  0  0  0  0  0  0  0  0  0
  -21.5862   -9.3912   21.4548 C   0  0  0  0  0  0  0  0  0  0  0  0
  -22.0663   -8.3105   20.7151 C   0  0  0  0  0  0  0  0  0  0  0  0
  -26.4031  -26.7302   19.4801 C   0  0  0  0  0  0  0  0  0  0  0  0
  -29.5561  -22.0979   22.1213 C   0  0  0  0  0  0  0  0  0  0  0  0
  -24.3289   -9.0921   21.0419 C   0  0  0  0  0  0  0  0  0  0  0  0
  -29.5131  -22.9844   24.3279 C   0  0  0  0  0  0  0  0  0  0  0  0
  -22.8410  -15.2146   21.3346 C   0  0  0  0  0  0  0  0  0  0  0  0
  -22.2429  -17.6267   20.7586 C   0  0  0  0  0  0  0  0  0  0  0  0
  -18.3501  -28.5468   23.3475 C   0  0  0  0  0  0  0  0  0  0  0  0
  -24.6735  -28.4178   19.6220 C   0  0  0  0  0  0  0  0  0  0  0  0
  -19.7425  -28.3963   23.2032 C   0  0  0  0  0  0  0  0  0  0  0  0
  -25.0816  -27.1334   19.2348 C   0  0  0  0  0  0  0  0  0  0  0  0
  -29.8638  -23.1341   22.9958 C   0  0  0  0  0  0  0  0  0  0  0  0
  -28.9161  -20.9596   22.5989 C   0  0  0  0  0  0  0  0  0  0  0  0
  -22.2753  -12.6470   22.2673 C   0  0  0  0  0  0  0  0  0  0  0  0
  -27.3095  -27.5969   20.0904 C   0  0  0  0  0  0  0  0  0  0  0  0
  -22.4774  -10.3225   21.9879 C   0  0  0  0  0  0  0  0  0  0  0  0
  -23.4377   -8.1609   20.5087 C   0  0  0  0  0  0  0  0  0  0  0  0
  -23.8488  -10.1729   21.7815 C   0  0  0  0  0  0  0  0  0  0  0  0
  -23.1338  -16.5408   20.8534 C   0  0  0  0  0  0  0  0  0  0  0  0
  -28.6080  -20.9071   23.9488 C   0  0  0  0  0  0  0  0  0  0  0  0
  -23.0023  -18.6501   20.2463 C   0  0  0  0  0  0  0  0  0  0  0  0
  -20.8532  -17.7034   21.1028 C   0  0  0  0  0  0  0  0  0  0  0  0
  -21.9205  -27.1024   20.5134 C   0  0  0  0  0  0  0  0  0  0  0  0
  -21.8803  -26.0466   17.4464 C   0  0  0  0  0  0  0  0  0  0  0  0
  -23.6401  -25.2535   14.6321 C   0  0  0  0  0  0  0  0  0  0  0  0
  -28.8585  -19.8332   20.3463 C   0  0  0  0  0  0  0  0  0  0  0  0
  -17.3817  -27.5225   22.8111 C   0  0  0  0  0  0  0  0  0  0  0  0
  -23.2701  -28.8856   19.3495 C   0  0  0  0  0  0  0  0  0  0  0  0
  -24.1367  -26.1683   18.5685 C   0  0  0  0  0  0  0  0  0  0  0  0
  -17.9930  -26.5968   21.7625 C   0  0  0  0  0  0  0  0  0  0  0  0
  -26.8119  -19.4530   17.4576 C   0  0  0  0  0  0  0  0  0  0  0  0
  -19.3516  -26.0843   22.2298 C   0  0  0  0  0  0  0  0  0  0  0  0
  -25.5528  -18.7674   17.9931 C   0  0  0  0  0  0  0  0  0  0  0  0
  -28.0728  -18.9519   18.1597 C   0  0  0  0  0  0  0  0  0  0  0  0
  -26.7764  -18.3345   20.1616 C   0  0  0  0  0  0  0  0  0  0  0  0
  -20.3387  -27.2407   22.4290 C   0  0  1  0  0  0  0  0  0  0  0  0
  -22.2764  -27.7379   19.1992 C   0  0  1  0  0  0  0  0  0  0  0  0
  -25.4745  -18.8537   19.5300 C   0  0  2  0  0  0  0  0  0  0  0  0
  -26.5400  -20.0534   25.1099 C   0  0  0  0  0  0  0  0  0  0  0  0
  -28.7780  -18.9922   25.5792 C   0  0  0  0  0  0  0  0  0  0  0  0
  -23.3356  -24.3817   12.2987 C   0  0  0  0  0  0  0  0  0  0  0  0
  -31.0605  -27.3757   23.1727 C   0  0  0  0  0  0  0  0  0  0  0  0
  -21.4830  -23.2309   18.5528 C   0  0  0  0  0  0  0  0  0  0  0  0
  -22.1325  -22.3325   16.3080 C   0  0  0  0  0  0  0  0  0  0  0  0
  -20.1025  -23.7640   16.5367 C   0  0  0  0  0  0  0  0  0  0  0  0
  -24.7494  -27.7247   13.4398 C   0  0  0  0  0  0  0  0  0  0  0  0
  -30.5540  -24.3754   22.5122 C   0  0  0  0  0  0  0  0  0  0  0  0
  -29.2565  -27.7618   21.4460 C   0  0  0  0  0  0  0  0  0  1  0  0
  -27.9205  -19.7104   24.5216 C   0  0  0  0  0  0  0  0  0  0  0  0
  -22.3917  -24.8193   16.7315 C   0  0  1  0  0  0  0  0  0  0  0  0
  -23.4284  -25.6215   13.1746 C   0  0  2  0  0  0  0  0  0  0  0  0
  -30.3168  -26.8036   21.9768 C   0  0  2  0  0  0  0  0  0  0  0  0
  -21.5449  -23.5539   17.0465 C   0  0  0  0  0  0  0  0  0  0  0  0
  -28.8909  -21.8937   24.8287 N   0  0  0  0  0  0  0  0  0  0  0  0
  -24.3649  -16.8458   20.4348 N   0  0  0  0  0  0  0  0  0  0  0  0
  -24.2531  -18.1349   20.0719 N   0  0  0  0  0  0  0  0  0  0  0  0
  -22.7735  -26.6701   18.3292 N   0  0  0  0  0  0  0  0  0  0  0  0
  -27.9275  -19.0680   19.6124 N   0  0  0  0  0  0  0  0  0  0  0  0
  -22.7155  -19.9313   19.9324 N   0  0  0  0  0  0  0  0  0  0  0  0
  -20.2279  -16.5591   21.6166 N   0  0  0  0  0  0  0  0  0  0  0  0
  -28.6001  -19.8981   21.7150 N   0  0  0  0  0  0  0  0  0  0  0  0
  -20.8488  -27.6952   21.1532 N   0  0  0  0  0  0  0  0  0  0  0  0
  -22.4455  -25.1648   15.3151 N   0  0  0  0  0  0  0  0  0  0  0  0
  -24.5576  -26.4607   12.6830 N   0  3  0  0  0  0  0  0  0  0  0  0
  -29.6435  -25.5439   22.4070 N   0  3  0  0  0  0  0  0  0  0  0  0
  -20.1816  -18.7509   20.9437 O   0  0  0  0  0  0  0  0  0  0  0  0
  -22.5693  -26.1440   20.9164 O   0  0  0  0  0  0  0  0  0  0  0  0
  -20.7330  -26.4418   17.2243 O   0  0  0  0  0  0  0  0  0  0  0  0
  -24.7534  -25.0601   15.1154 O   0  0  0  0  0  0  0  0  0  0  0  0
  -29.7991  -20.4124   19.7968 O   0  0  0  0  0  0  0  0  0  0  0  0
  -21.9992  -11.3944   22.7227 O   0  0  0  0  0  0  0  0  0  0  0  0
  -28.5884  -27.1931   20.3206 O   0  0  0  0  0  0  0  0  0  1  0  0
  -23.8987   -7.1222   19.7996 F   0  0  0  0  0  0  0  0  0  0  0  0
  -24.7099  -11.0636   22.2922 F   0  0  0  0  0  0  0  0  0  0  0  0
  1  2  1  0  0  0  0
  1  5  2  0  0  0  0
  2  6  2  0  0  0  0
  3  8  2  0  0  0  0
  3 17  1  0  0  0  0
  4  9  1  0  0  0  0
  4 17  2  0  0  0  0
  5 19  1  0  0  0  0
  6 21  1  0  0  0  0
  7 10  2  0  0  0  0
  7 20  1  0  0  0  0
  8 25  1  0  0  0  0
  9 25  2  0  0  0  0
 10 26  1  0  0  0  0
 11 12  2  0  0  0  0
 11 27  1  0  0  0  0
 12 28  1  0  0  0  0
 13 22  1  0  0  0  0
 13 26  2  0  0  0  0
 14 23  2  0  0  0  0
 14 24  1  0  0  0  0
 15 28  2  0  0  0  0
 15 29  1  0  0  0  0
 16 23  1  0  0  0  0
 16 65  2  0  0  0  0
 17 30  1  0  0  0  0
 18 30  1  0  0  0  0
 18 32  2  0  0  0  0
 18 33  1  0  0  0  0
 19 21  2  0  0  0  0
 19 38  1  0  0  0  0
 20 22  2  0  0  0  0
 20 39  1  0  0  0  0
 21 47  1  0  0  0  0
 22 40  1  0  0  0  0
 23 58  1  0  0  0  0
 24 31  2  0  0  0  0
 24 72  1  0  0  0  0
 25 82  1  0  0  0  0
 26 83  1  0  0  0  0
 27 29  2  0  0  0  0
 27 82  1  0  0  0  0
 28 84  1  0  0  0  0
 29 85  1  0  0  0  0
 30 66  2  0  0  0  0
 31 60  1  0  0  0  0
 31 65  1  0  0  0  0
 32 67  1  0  0  0  0
 32 70  1  0  0  0  0
 33 71  1  0  0  0  0
 33 77  2  0  0  0  0
 34 48  1  0  0  0  0
 34 73  1  0  0  0  0
 34 78  2  0  0  0  0
 35 61  1  0  0  0  0
 35 68  1  0  0  0  0
 35 79  2  0  0  0  0
 36 62  1  0  0  0  0
 36 74  1  0  0  0  0
 36 80  2  0  0  0  0
 37 69  1  0  0  0  0
 37 72  1  0  0  0  0
 37 81  2  0  0  0  0
 38 41  1  0  0  0  0
 39 48  1  0  0  0  0
 40 68  1  0  0  0  0
 41 43  1  0  0  0  0
 42 44  1  0  0  0  0
 42 45  1  0  0  0  0
 43 47  1  0  0  0  0
 44 49  1  0  0  0  0
 45 69  1  0  0  0  0
 46 49  1  0  0  0  0
 46 69  1  0  0  0  0
 47 73  1  0  0  0  0
 48 68  1  0  0  0  0
 49 67  1  0  0  0  0
 50 60  1  0  0  0  0
 51 60  1  0  0  0  0
 52 62  1  0  0  0  0
 53 63  1  0  0  0  0
 54 64  1  0  0  0  0
 55 64  1  0  0  0  0
 56 64  1  0  0  0  0
 57 75  1  0  0  0  0
 58 76  1  0  0  0  0
 59 63  1  0  0  0  0
 59 83  1  0  0  0  0
 61 64  1  0  0  0  0
 61 74  1  0  0  0  0
 62 75  1  0  0  0  0
 63 76  1  0  0  0  0
 66 67  1  0  0  0  0
M  CHG  2  75   1  76   1
M  ISO  4  37 100  59 101  72 100  83 101
M  END
> <Batch ID>
0113

> <Smiles>
CNC(C)C(=O)NC(C(=O)N1Cc2cc([101O:1][101CH2:1]C(C)NCc3cnc(C(C)C)c([100NH:0][100C:0](=O)N4CCCC(n5nc(-c6ccc(Oc7ccc(F)cc7F)cc6)c(C(N)=O)c5N)C4)c3)ccc2CC1C(=O)NC1CCCc2ccccc21)C(C)(C)C

> <Shape>
0.206

> <Color>
0.079

> <Negative vol penalty>
0.000

$$$$

  -OEChem-04052320053D

 80 87  0     1  0  0  0  0  0999 V2000
  -17.5532  -19.7611   27.8658 C   0  0  0  0  0  0  0  0  0  0  0  0
  -18.5772  -19.5583   26.9461 C   0  0  0  0  0  0  0  0  0  0  0  0
  -23.0752   -9.8677   19.9426 C   0  0  0  0  0  0  0  0  0  0  0  0
  -23.8381   -9.8761   22.2349 C   0  0  0  0  0  0  0  0  0  0  0  0
  -17.4049  -21.0043   28.4793 C   0  0  0  0  0  0  0  0  0  0  0  0
  -19.4528  -20.5990   26.6386 C   0  0  0  0  0  0  0  0  0  0  0  0
  -25.4130  -20.1250   25.3126 C   0  0  0  0  0  0  0  0  0  0  0  0
  -22.3328   -8.7139   20.1938 C   0  0  0  0  0  0  0  0  0  0  0  0
  -23.0956   -8.7223   22.4862 C   0  0  0  0  0  0  0  0  0  0  0  0
  -26.1061  -20.1049   24.1031 C   0  0  0  0  0  0  0  0  0  0  0  0
  -19.8689   -7.9217   23.0932 C   0  0  0  0  0  0  0  0  0  0  0  0
  -19.1135   -7.8814   24.2651 C   0  0  0  0  0  0  0  0  0  0  0  0
  -26.5268  -22.4711   24.3118 C   0  0  0  0  0  0  0  0  0  0  0  0
  -20.3577   -5.9453   25.0005 C   0  0  0  0  0  0  0  0  0  0  0  0
  -23.8280  -10.4487   20.9631 C   0  0  0  0  0  0  0  0  0  0  0  0
  -24.1673  -12.9742   20.8419 C   0  0  0  0  0  0  0  0  0  0  0  0
  -18.2851  -22.0579   28.1863 C   0  0  0  0  0  0  0  0  0  0  0  0
  -25.2619  -21.3225   26.0266 C   0  0  0  0  0  0  0  0  0  0  0  0
  -19.3154  -21.8579   27.2478 C   0  0  0  0  0  0  0  0  0  0  0  0
  -25.8335  -22.5032   25.5314 C   0  0  0  0  0  0  0  0  0  0  0  0
  -22.3429   -8.1412   21.4657 C   0  0  0  0  0  0  0  0  0  0  0  0
  -26.6606  -21.2786   23.6010 C   0  0  0  0  0  0  0  0  0  0  0  0
  -20.8687   -6.9737   22.8749 C   0  0  0  0  0  0  0  0  0  0  0  0
  -19.3579   -6.8932   25.2187 C   0  0  0  0  0  0  0  0  0  0  0  0
  -21.1131   -5.9856   23.8285 C   0  0  0  0  0  0  0  0  0  0  0  0
  -24.5956  -11.6402   20.7040 C   0  0  0  0  0  0  0  0  0  0  0  0
  -25.2583  -13.7245   20.4770 C   0  0  0  0  0  0  0  0  0  0  0  0
  -22.8969  -13.4889   21.2623 C   0  0  0  0  0  0  0  0  0  0  0  0
  -22.7846  -23.0920   26.9405 C   0  0  0  0  0  0  0  0  0  0  0  0
  -25.0679  -24.7831   28.5053 C   0  0  0  0  0  0  0  0  0  0  0  0
  -28.3497  -25.6885   28.7440 C   0  0  0  0  0  0  0  0  0  0  0  0
  -28.7159  -21.0082   22.5472 C   0  0  0  0  0  0  0  0  0  1  0  0
  -30.7413  -14.7487   20.6579 C   0  0  0  0  0  0  0  0  0  0  0  0
  -18.0561  -23.3979   28.8394 C   0  0  0  0  0  0  0  0  0  0  0  0
  -24.5344  -21.3222   27.3431 C   0  0  0  0  0  0  0  0  0  0  0  0
  -25.7170  -23.8109   26.2695 C   0  0  0  0  0  0  0  0  0  0  0  0
  -19.2551  -24.3374   28.7387 C   0  0  0  0  0  0  0  0  0  0  0  0
  -29.6029  -12.3624   18.2734 C   0  0  0  0  0  0  0  0  0  0  0  0
  -19.8073  -24.3476   27.3168 C   0  0  0  0  0  0  0  0  0  0  0  0
  -28.1663  -12.0675   18.7082 C   0  0  0  0  0  0  0  0  0  0  0  0
  -30.5213  -12.5845   19.4730 C   0  0  0  0  0  0  0  0  0  0  0  0
  -28.6207  -13.3142   20.8618 C   0  0  0  0  0  0  0  0  0  0  0  0
  -20.3004  -22.9548   26.9065 C   0  0  1  0  0  0  0  0  0  0  0  0
  -24.0001  -22.6976   27.7308 C   0  0  1  0  0  0  0  0  0  0  0  0
  -27.6452  -13.1384   19.6855 C   0  0  2  0  0  0  0  0  0  0  0  0
  -29.9065  -27.1127   30.1024 C   0  0  0  0  0  0  0  0  0  0  0  0
  -29.4610  -20.0054   18.8601 C   0  0  0  0  0  0  0  0  0  0  0  0
  -24.0000  -27.2774   27.1096 C   0  0  0  0  0  0  0  0  0  0  0  0
  -26.1213  -28.4508   27.7352 C   0  0  0  0  0  0  0  0  0  0  0  0
  -24.5950  -27.6029   29.5168 C   0  0  0  0  0  0  0  0  0  0  0  0
  -29.9559  -23.3452   29.5735 C   0  0  0  0  0  0  0  0  0  0  0  0
  -29.3620  -21.0134   21.1753 C   0  0  0  0  0  0  0  0  0  0  0  0
  -30.5347  -18.0672   20.9432 C   0  0  0  0  0  0  0  0  0  0  0  0
  -30.8068  -16.8997   21.8941 C   0  0  0  0  0  0  0  0  0  0  0  0
  -25.9532  -25.9566   28.1615 C   0  0  1  0  0  0  0  0  0  0  0  0
  -29.2999  -25.7292   29.9271 C   0  0  2  0  0  0  0  0  0  0  0  0
  -28.8387  -19.8870   20.2613 C   0  0  2  0  0  0  0  0  0  0  0  0
  -29.0499  -18.4632   20.8416 C   0  0  1  0  0  0  0  0  0  0  0  0
  -25.1681  -27.2978   28.1157 C   0  0  0  0  0  0  0  0  0  0  0  0
  -25.8600  -11.5455   20.2841 N   0  0  0  0  0  0  0  0  0  0  0  0
  -26.2356  -12.8293   20.1549 N   0  0  0  0  0  0  0  0  0  0  0  0
  -24.9908  -23.7605   27.5492 N   0  0  0  0  0  0  0  0  0  0  0  0
  -29.9710  -13.6127   20.3594 N   0  0  0  0  0  0  0  0  0  0  0  0
  -25.4674  -15.0562   20.4033 N   0  0  0  0  0  0  0  0  0  0  0  0
  -21.8863  -12.5789   21.6012 N   0  0  0  0  0  0  0  0  0  0  0  0
  -21.5908  -22.6799   27.5014 N   0  0  0  0  0  0  0  0  0  0  0  0
  -27.0483  -25.9379   29.1253 N   0  0  0  0  0  0  0  0  0  0  0  0
  -30.1424  -15.6772   21.5005 N   0  0  0  0  0  0  0  0  0  0  0  0
  -28.3251  -17.4532   20.0189 N   0  3  0  0  0  0  0  0  0  0  0  0
  -30.4079  -24.7511   29.7356 N   0  3  0  0  0  0  0  0  0  0  0  0
  -22.6596  -14.7193   21.3196 O   0  0  0  0  0  0  0  0  0  0  0  0
  -22.9196  -23.7246   25.8997 O   0  0  0  0  0  0  0  0  0  0  0  0
  -24.4725  -24.7708   29.5856 O   0  0  0  0  0  0  0  0  0  0  0  0
  -28.7250  -25.4620   27.5957 O   0  0  0  0  0  0  0  0  0  0  0  0
  -29.3076  -20.8444   23.6058 O   0  0  0  0  0  0  0  0  0  0  0  0
  -31.8765  -14.9251   20.2028 O   0  0  0  0  0  0  0  0  0  0  0  0
  -21.6183   -7.0155   21.7113 O   0  0  0  0  0  0  0  0  0  0  0  0
  -27.3371  -21.2619   22.4204 O   0  0  0  0  0  0  0  0  0  1  0  0
  -18.6335   -6.8556   26.3447 F   0  0  0  0  0  0  0  0  0  0  0  0
  -22.0730   -5.0729   23.6249 F   0  0  0  0  0  0  0  0  0  0  0  0
  1  2  1  0  0  0  0
  1  5  2  0  0  0  0
  2  6  2  0  0  0  0
  3  8  2  0  0  0  0
  3 15  1  0  0  0  0
  4  9  1  0  0  0  0
  4 15  2  0  0  0  0
  5 17  1  0  0  0  0
  6 19  1  0  0  0  0
  7 10  2  0  0  0  0
  7 18  1  0  0  0  0
  8 21  1  0  0  0  0
  9 21  2  0  0  0  0
 10 22  1  0  0  0  0
 11 12  2  0  0  0  0
 11 23  1  0  0  0  0
 12 24  1  0  0  0  0
 13 20  1  0  0  0  0
 13 22  2  0  0  0  0
 14 24  2  0  0  0  0
 14 25  1  0  0  0  0
 15 26  1  0  0  0  0
 16 26  1  0  0  0  0
 16 27  2  0  0  0  0
 16 28  1  0  0  0  0
 17 19  2  0  0  0  0
 17 34  1  0  0  0  0
 18 20  2  0  0  0  0
 18 35  1  0  0  0  0
 19 43  1  0  0  0  0
 20 36  1  0  0  0  0
 21 77  1  0  0  0  0
 22 78  1  0  0  0  0
 23 25  2  0  0  0  0
 23 77  1  0  0  0  0
 24 79  1  0  0  0  0
 25 80  1  0  0  0  0
 26 60  2  0  0  0  0
 27 61  1  0  0  0  0
 27 64  1  0  0  0  0
 28 65  1  0  0  0  0
 28 71  2  0  0  0  0
 29 44  1  0  0  0  0
 29 66  1  0  0  0  0
 29 72  2  0  0  0  0
 30 55  1  0  0  0  0
 30 62  1  0  0  0  0
 30 73  2  0  0  0  0
 31 56  1  0  0  0  0
 31 67  1  0  0  0  0
 31 74  2  0  0  0  0
 32 52  1  0  0  0  0
 32 75  2  0  0  0  0
 32 78  1  0  0  0  0
 33 63  1  0  0  0  0
 33 68  1  0  0  0  0
 33 76  2  0  0  0  0
 34 37  1  0  0  0  0
 35 44  1  0  0  0  0
 36 62  1  0  0  0  0
 37 39  1  0  0  0  0
 38 40  1  0  0  0  0
 38 41  1  0  0  0  0
 39 43  1  0  0  0  0
 40 45  1  0  0  0  0
 41 63  1  0  0  0  0
 42 45  1  0  0  0  0
 42 63  1  0  0  0  0
 43 66  1  0  0  0  0
 44 62  1  0  0  0  0
 45 61  1  0  0  0  0
 46 56  1  0  0  0  0
 47 57  1  0  0  0  0
 48 59  1  0  0  0  0
 49 59  1  0  0  0  0
 50 59  1  0  0  0  0
 51 70  1  0  0  0  0
 52 57  1  0  0  0  0
 53 54  1  0  0  0  0
 53 58  1  0  0  0  0
 54 68  1  0  0  0  0
 55 59  1  0  0  0  0
 55 67  1  0  0  0  0
 56 70  1  0  0  0  0
 57 58  1  0  0  0  0
 58 69  1  0  0  0  0
 60 61  1  0  0  0  0
M  CHG  2  69   1  70   1
M  ISO  4  32 101  33 100  68 100  78 101
M  END
> <Batch ID>
0113

> <Smiles>
CNC(C)C(=O)NC(C(=O)N1Cc2cc([101O:1][101C:1](=O)CC(C)C(N)CC[100NH:0][100C:0](=O)N3CCCC(n4nc(-c5ccc(Oc6ccc(F)cc6F)cc5)c(C(N)=O)c4N)C3)ccc2CC1C(=O)NC1CCCc2ccccc21)C(C)(C)C

> <Shape>
0.202

> <Color>
0.191

> <Negative vol penalty>
0.000

$$$$

  -OEChem-04052320053D

 86 94  0     1  0  0  0  0  0999 V2000
  -30.6421  -24.8298   33.4150 C   0  0  0  0  0  0  0  0  0  0  0  0
  -31.0849  -24.3083   32.2036 C   0  0  0  0  0  0  0  0  0  0  0  0
  -23.2689  -10.1918   22.1581 C   0  0  0  0  0  0  0  0  0  0  0  0
  -23.5254   -9.5599   19.8403 C   0  0  0  0  0  0  0  0  0  0  0  0
  -29.3858  -24.4779   33.9066 C   0  0  0  0  0  0  0  0  0  0  0  0
  -30.2719  -23.4336   31.4836 C   0  0  0  0  0  0  0  0  0  0  0  0
  -30.1373  -24.5297   26.5414 C   0  0  0  0  0  0  0  0  0  0  0  0
  -22.4959   -9.0527   22.3831 C   0  0  0  0  0  0  0  0  0  0  0  0
  -22.7524   -8.4208   20.0653 C   0  0  0  0  0  0  0  0  0  0  0  0
  -31.2309  -24.1354   25.7718 C   0  0  0  0  0  0  0  0  0  0  0  0
  -23.0142   -5.7477   22.8744 C   0  0  0  0  0  0  0  0  0  0  0  0
  -23.2847   -4.9963   24.0180 C   0  0  0  0  0  0  0  0  0  0  0  0
  -29.9894  -22.2156   25.0023 C   0  0  0  0  0  0  0  0  0  0  0  0
  -21.0285   -5.3699   24.7972 C   0  0  0  0  0  0  0  0  0  0  0  0
  -23.7836  -10.4454   20.8866 C   0  0  0  0  0  0  0  0  0  0  0  0
  -24.1906  -12.9631   20.8288 C   0  0  0  0  0  0  0  0  0  0  0  0
  -28.5531  -23.6060   33.1876 C   0  0  0  0  0  0  0  0  0  0  0  0
  -28.9634  -23.7628   26.5558 C   0  0  0  0  0  0  0  0  0  0  0  0
  -29.0038  -23.0686   31.9667 C   0  0  0  0  0  0  0  0  0  0  0  0
  -28.8814  -22.6037   25.7710 C   0  0  0  0  0  0  0  0  0  0  0  0
  -22.2377   -8.1672   21.3367 C   0  0  0  0  0  0  0  0  0  0  0  0
  -31.1581  -22.9766   25.0043 C   0  0  0  0  0  0  0  0  0  0  0  0
  -21.7509   -6.3104   22.6922 C   0  0  0  0  0  0  0  0  0  0  0  0
  -22.2919   -4.8073   24.9793 C   0  0  0  0  0  0  0  0  0  0  0  0
  -20.7581   -6.1214   23.6536 C   0  0  0  0  0  0  0  0  0  0  0  0
  -24.5817  -11.6222   20.6534 C   0  0  0  0  0  0  0  0  0  0  0  0
  -25.2993  -13.6931   20.4762 C   0  0  0  0  0  0  0  0  0  0  0  0
  -22.9371  -13.5007   21.2710 C   0  0  0  0  0  0  0  0  0  0  0  0
  -30.6604  -17.7575   20.9036 C   0  0  0  0  0  0  0  0  0  0  0  0
  -27.3478  -22.1761   28.7865 C   0  0  0  0  0  0  0  0  0  0  0  0
  -33.3837  -21.1293   22.7665 C   0  0  0  0  0  0  0  0  0  0  0  0
  -25.2001  -21.7710   26.3895 C   0  0  0  0  0  0  0  0  0  0  0  0
  -25.3012  -21.0158   22.8629 C   0  0  0  0  0  0  0  0  0  0  0  0
  -30.8091  -14.5640   20.6466 C   0  0  0  0  0  0  0  0  0  0  0  0
  -27.2226  -23.2175   33.7822 C   0  0  0  0  0  0  0  0  0  0  0  0
  -27.7831  -24.2161   27.3705 C   0  0  0  0  0  0  0  0  0  0  0  0
  -27.6368  -21.7562   25.7358 C   0  0  0  0  0  0  0  0  0  0  0  0
  -26.2688  -22.5788   32.7759 C   0  0  0  0  0  0  0  0  0  0  0  0
  -33.2536  -19.6536   18.8067 C   0  0  0  0  0  0  0  0  0  0  0  0
  -29.5919  -12.2725   18.2085 C   0  0  0  0  0  0  0  0  0  0  0  0
  -26.9931  -21.5185   31.9525 C   0  0  0  0  0  0  0  0  0  0  0  0
  -32.1851  -18.6233   19.1563 C   0  0  0  0  0  0  0  0  0  0  0  0
  -28.1504  -12.0051   18.6453 C   0  0  0  0  0  0  0  0  0  0  0  0
  -32.8060  -21.0731   19.1567 C   0  0  0  0  0  0  0  0  0  0  0  0
  -31.3110  -20.1391   20.9836 C   0  0  0  0  0  0  0  0  0  0  0  0
  -30.5233  -12.4383   19.4073 C   0  0  0  0  0  0  0  0  0  0  0  0
  -28.6516  -13.1823   20.8275 C   0  0  0  0  0  0  0  0  0  0  0  0
  -28.1408  -22.1362   31.1445 C   0  0  1  0  0  0  0  0  0  0  0  0
  -31.7721  -18.7225   20.6239 C   0  0  1  0  0  0  0  0  0  0  0  0
  -26.8206  -23.0823   27.7101 C   0  0  1  0  0  0  0  0  0  0  0  0
  -27.6645  -13.0637   19.6536 C   0  0  2  0  0  0  0  0  0  0  0  0
  -32.3507  -21.2120   20.6185 C   0  0  2  0  0  0  0  0  0  0  0  0
  -34.6197  -20.9900   23.6226 C   0  0  0  0  0  0  0  0  0  0  0  0
  -31.7863  -22.6135   20.8684 C   0  0  0  0  0  0  0  0  0  0  0  0
  -30.5023  -17.1341   23.3181 C   0  0  0  0  0  0  0  0  0  0  0  0
  -23.6876  -21.5819   21.0263 C   0  0  0  0  0  0  0  0  0  0  0  0
  -24.0200  -19.0181   26.9721 C   0  0  0  0  0  0  0  0  0  0  0  0
  -23.6704  -18.7240   24.5105 C   0  0  0  0  0  0  0  0  0  0  0  0
  -22.4993  -20.5622   25.7240 C   0  0  0  0  0  0  0  0  0  0  0  0
  -27.4123  -22.3242   21.2535 C   0  0  0  0  0  0  0  0  0  0  0  0
  -32.0805  -21.3913   23.4904 C   0  0  0  0  0  0  0  0  0  1  0  0
  -30.9403  -16.6794   21.9378 C   0  0  1  0  0  0  0  0  0  0  0  0
  -24.9868  -20.7394   25.3082 C   0  0  1  0  0  0  0  0  0  0  0  0
  -24.9852  -21.9647   21.7209 C   0  0  2  0  0  0  0  0  0  0  0  0
  -23.8200  -19.7665   25.6390 C   0  0  0  0  0  0  0  0  0  0  0  0
  -25.8405  -11.5044   20.2227 N   0  0  0  0  0  0  0  0  0  0  0  0
  -33.5288  -21.0505   21.4878 N   0  0  0  0  0  0  0  0  0  0  0  0
  -26.2499  -12.7806   20.1243 N   0  0  0  0  0  0  0  0  0  0  0  0
  -26.5118  -22.2378   26.5544 N   0  0  0  0  0  0  0  0  0  0  0  0
  -30.0064  -13.4574   20.3238 N   0  0  0  0  0  0  0  0  0  0  0  0
  -25.5439  -15.0201   20.4357 N   0  0  0  0  0  0  0  0  0  0  0  0
  -21.9043  -12.6097   21.5929 N   0  0  0  0  0  0  0  0  0  0  0  0
  -27.6263  -22.8196   29.9772 N   0  0  0  0  0  0  0  0  0  0  0  0
  -24.8113  -21.4818   24.0646 N   0  0  0  0  0  0  0  0  0  0  0  0
  -30.2406  -15.4860   21.5170 N   0  0  0  0  0  0  0  0  0  0  0  0
  -26.0820  -21.9446   20.7122 N   0  3  0  0  0  0  0  0  0  0  0  0
  -22.7336  -14.7351   21.3619 O   0  0  0  0  0  0  0  0  0  0  0  0
  -29.5675  -17.8731   20.3484 O   0  0  0  0  0  0  0  0  0  0  0  0
  -27.4899  -20.9813   28.5544 O   0  0  0  0  0  0  0  0  0  0  0  0
  -24.2369  -22.1539   27.0584 O   0  0  0  0  0  0  0  0  0  0  0  0
  -25.9175  -19.9644   22.7042 O   0  0  0  0  0  0  0  0  0  0  0  0
  -31.9458  -14.7216   20.1885 O   0  0  0  0  0  0  0  0  0  0  0  0
  -21.4837   -7.0555   21.5560 O   0  0  0  0  0  0  0  0  0  0  0  0
  -32.2243  -22.5891   24.2526 O   0  0  0  0  0  0  0  0  0  1  0  0
  -22.5513   -4.0844   26.0767 F   0  0  0  0  0  0  0  0  0  0  0  0
  -19.5421   -6.6584   23.4835 F   0  0  0  0  0  0  0  0  0  0  0  0
  1  2  1  0  0  0  0
  1  5  2  0  0  0  0
  2  6  2  0  0  0  0
  3  8  2  0  0  0  0
  3 15  1  0  0  0  0
  4  9  1  0  0  0  0
  4 15  2  0  0  0  0
  5 17  1  0  0  0  0
  6 19  1  0  0  0  0
  7 10  2  0  0  0  0
  7 18  1  0  0  0  0
  8 21  1  0  0  0  0
  9 21  2  0  0  0  0
 10 22  1  0  0  0  0
 11 12  2  0  0  0  0
 11 23  1  0  0  0  0
 12 24  1  0  0  0  0
 13 20  1  0  0  0  0
 13 22  2  0  0  0  0
 14 24  2  0  0  0  0
 14 25  1  0  0  0  0
 15 26  1  0  0  0  0
 16 26  1  0  0  0  0
 16 27  2  0  0  0  0
 16 28  1  0  0  0  0
 17 19  2  0  0  0  0
 17 35  1  0  0  0  0
 18 20  2  0  0  0  0
 18 36  1  0  0  0  0
 19 48  1  0  0  0  0
 20 37  1  0  0  0  0
 21 83  1  0  0  0  0
 22 84  1  0  0  0  0
 23 25  2  0  0  0  0
 23 83  1  0  0  0  0
 24 85  1  0  0  0  0
 25 86  1  0  0  0  0
 26 66  2  0  0  0  0
 27 68  1  0  0  0  0
 27 71  1  0  0  0  0
 28 72  1  0  0  0  0
 28 77  2  0  0  0  0
 29 49  1  0  0  0  0
 29 62  1  0  0  0  0
 29 78  2  0  0  0  0
 30 50  1  0  0  0  0
 30 73  1  0  0  0  0
 30 79  2  0  0  0  0
 31 53  1  0  0  0  0
 31 61  1  0  0  0  0
 31 67  2  0  0  0  0
 32 63  1  0  0  0  0
 32 69  1  0  0  0  0
 32 80  2  0  0  0  0
 33 64  1  0  0  0  0
 33 74  1  0  0  0  0
 33 81  2  0  0  0  0
 34 70  1  0  0  0  0
 34 75  1  0  0  0  0
 34 82  2  0  0  0  0
 35 38  1  0  0  0  0
 36 50  1  0  0  0  0
 37 69  1  0  0  0  0
 38 41  1  0  0  0  0
 39 42  1  0  0  0  0
 39 44  1  0  0  0  0
 40 43  1  0  0  0  0
 40 46  1  0  0  0  0
 41 48  1  0  0  0  0
 42 49  1  0  0  0  0
 43 51  1  0  0  0  0
 44 52  1  0  0  0  0
 45 49  1  0  0  0  0
 45 52  1  0  0  0  0
 46 70  1  0  0  0  0
 47 51  1  0  0  0  0
 47 70  1  0  0  0  0
 48 73  1  0  0  0  0
 50 69  1  0  0  0  0
 51 68  1  0  0  0  0
 52 54  1  0  0  0  0
 52 67  1  0  0  0  0
 55 62  1  0  0  0  0
 56 64  1  0  0  0  0
 57 65  1  0  0  0  0
 58 65  1  0  0  0  0
 59 65  1  0  0  0  0
 60 76  1  0  0  0  0
 61 84  1  0  0  0  0
 62 75  1  0  0  0  0
 63 65  1  0  0  0  0
 63 74  1  0  0  0  0
 64 76  1  0  0  0  0
 66 68  1  0  0  0  0
M  CHG  1  76   1
M  ISO  4  34 100  61 101  75 100  84 101
M  END
> <Batch ID>
0113

> <Smiles>
C=C(NC1(C)CCCC(C(=O)C(C)[100NH:0][100C:0](=O)N2CCCC(n3nc(-c4ccc(Oc5ccc(F)cc5F)cc4)c(C(N)=O)c3N)C2)C1)[101CH2:1][101O:1]c1ccc2c(c1)CN(C(=O)C(NC(=O)C(C)NC)C(C)(C)C)C(C(=O)NC1CCCc3ccccc31)C2

> <Shape>
0.185

> <Color>
0.218

> <Negative vol penalty>
0.000

$$$$

  -OEChem-04052320053D

 82 89  0     1  0  0  0  0  0999 V2000
  -19.1733  -34.0203   22.3069 C   0  0  0  0  0  0  0  0  0  0  0  0
  -20.4716  -33.7914   21.8627 C   0  0  0  0  0  0  0  0  0  0  0  0
  -25.9712  -12.7920   21.2829 C   0  0  0  0  0  0  0  0  0  0  0  0
  -26.2424  -12.8342   18.8825 C   0  0  0  0  0  0  0  0  0  0  0  0
  -18.5804  -33.1373   23.2084 C   0  0  0  0  0  0  0  0  0  0  0  0
  -21.1782  -32.6799   22.3206 C   0  0  0  0  0  0  0  0  0  0  0  0
  -25.2230  -29.3333   19.1669 C   0  0  0  0  0  0  0  0  0  0  0  0
  -24.8455  -11.9807   21.1415 C   0  0  0  0  0  0  0  0  0  0  0  0
  -25.1166  -12.0227   18.7411 C   0  0  0  0  0  0  0  0  0  0  0  0
  -26.6166  -29.3402   19.1254 C   0  0  0  0  0  0  0  0  0  0  0  0
  -24.1852   -8.7161   20.5587 C   0  0  0  0  0  0  0  0  0  0  0  0
  -24.0713   -7.6124   21.4039 C   0  0  0  0  0  0  0  0  0  0  0  0
  -26.6676  -27.5487   20.7401 C   0  0  0  0  0  0  0  0  0  0  0  0
  -21.9986   -8.4949   22.2770 C   0  0  0  0  0  0  0  0  0  0  0  0
  -26.6696  -13.2189   20.1534 C   0  0  0  0  0  0  0  0  0  0  0  0
  -29.1690  -13.6400   20.4423 C   0  0  0  0  0  0  0  0  0  0  0  0
  -19.2766  -32.0092   23.6702 C   0  0  0  0  0  0  0  0  0  0  0  0
  -24.5404  -28.4399   20.0049 C   0  0  0  0  0  0  0  0  0  0  0  0
  -20.5945  -31.7817   23.2302 C   0  0  0  0  0  0  0  0  0  0  0  0
  -25.2653  -27.5307   20.7885 C   0  0  0  0  0  0  0  0  0  0  0  0
  -24.4182  -11.5960   19.8706 C   0  0  0  0  0  0  0  0  0  0  0  0
  -27.3392  -28.4498   19.9142 C   0  0  0  0  0  0  0  0  0  0  0  0
  -23.2058   -9.7093   20.5726 C   0  0  0  0  0  0  0  0  0  0  0  0
  -22.9781   -7.5018   22.2631 C   0  0  0  0  0  0  0  0  0  0  0  0
  -22.1125   -9.5987   21.4318 C   0  0  0  0  0  0  0  0  0  0  0  0
  -27.8322  -14.0575   20.2988 C   0  0  0  0  0  0  0  0  0  0  0  0
  -29.8846  -14.8081   20.5428 C   0  0  0  0  0  0  0  0  0  0  0  0
  -29.7150  -12.3149   20.4812 C   0  0  0  0  0  0  0  0  0  0  0  0
  -22.5615  -28.7467   22.4734 C   0  0  0  0  0  0  0  0  0  0  0  0
  -22.3219  -25.5249   22.1818 C   0  0  0  0  0  0  0  0  0  0  0  0
  -30.3984  -22.2986   17.3701 C   0  0  0  0  0  0  0  0  0  0  0  0
  -23.7165  -22.6015   21.1069 C   0  0  0  0  0  0  0  0  0  0  0  0
  -29.7513  -20.0646   18.2114 C   0  0  0  0  0  0  0  0  0  0  0  0
  -18.6111  -31.1089   24.6808 C   0  0  0  0  0  0  0  0  0  0  0  0
  -23.0363  -28.4269   20.0182 C   0  0  0  0  0  0  0  0  0  0  0  0
  -24.5796  -26.5378   21.6898 C   0  0  0  0  0  0  0  0  0  0  0  0
  -19.2925  -29.7509   24.8287 C   0  0  0  0  0  0  0  0  0  0  0  0
  -28.8397  -19.4636   21.7450 C   0  0  0  0  0  0  0  0  0  0  0  0
  -20.8037  -29.9218   24.9456 C   0  0  0  0  0  0  0  0  0  0  0  0
  -28.5461  -17.9673   21.7153 C   0  0  0  0  0  0  0  0  0  0  0  0
  -28.4827  -20.1477   20.4260 C   0  0  0  0  0  0  0  0  0  0  0  0
  -28.8320  -18.0114   19.2093 C   0  0  0  0  0  0  0  0  0  0  0  0
  -21.3844  -30.5736   23.6849 C   0  0  1  0  0  0  0  0  0  0  0  0
  -22.4553  -27.8231   21.2930 C   0  0  1  0  0  0  0  0  0  0  0  0
  -29.2370  -17.3076   20.5128 C   0  0  2  0  0  0  0  0  0  0  0  0
  -23.3016  -20.1274   21.0433 C   0  0  0  0  0  0  0  0  0  0  0  0
  -31.3702  -23.8662   19.9496 C   0  0  0  0  0  0  0  0  0  0  0  0
  -32.5606  -26.1016   16.9925 C   0  0  0  0  0  0  0  0  0  0  0  0
  -23.0552  -25.3284   25.1371 C   0  0  0  0  0  0  0  0  0  0  0  0
  -23.5518  -22.9005   24.7808 C   0  0  0  0  0  0  0  0  0  0  0  0
  -21.2431  -23.7676   24.4059 C   0  0  0  0  0  0  0  0  0  0  0  0
  -23.7412  -22.5562   18.1478 C   0  0  0  0  0  0  0  0  0  0  0  0
  -30.3650  -23.7660   17.6364 C   0  0  0  0  0  0  0  0  0  0  0  0
  -30.5034  -26.6026   18.4043 C   0  0  0  0  0  0  0  0  0  0  0  0
  -29.3141  -28.8461   18.6499 C   0  0  0  0  0  0  0  0  0  1  0  0
  -23.0665  -24.3416   22.7513 C   0  0  1  0  0  0  0  0  0  0  0  0
  -23.1434  -21.4472   20.3046 C   0  0  2  0  0  0  0  0  0  0  0  0
  -31.5741  -24.2513   18.4733 C   0  0  1  0  0  0  0  0  0  0  0  0
  -31.8272  -25.7930   18.3078 C   0  0  1  0  0  0  0  0  0  0  0  0
  -30.6536  -28.1320   18.4581 C   0  0  1  0  0  0  0  0  0  0  0  0
  -22.7424  -24.1044   24.2533 C   0  0  0  0  0  0  0  0  0  0  0  0
  -27.7035  -15.3869   20.3071 N   0  0  0  0  0  0  0  0  0  0  0  0
  -28.9686  -15.8149   20.4571 N   0  0  0  0  0  0  0  0  0  0  0  0
  -23.1078  -26.5684   21.6726 N   0  0  0  0  0  0  0  0  0  0  0  0
  -29.0745  -19.4567   19.2722 N   0  0  0  0  0  0  0  0  0  0  0  0
  -31.2017  -15.0618   20.6953 N   0  0  0  0  0  0  0  0  0  0  0  0
  -28.8387  -11.2274   20.3638 N   0  0  0  0  0  0  0  0  0  0  0  0
  -21.4868  -29.6036   22.6158 N   0  0  0  0  0  0  0  0  0  0  0  0
  -29.8255  -21.5065   18.2819 N   0  0  0  0  0  0  0  0  0  0  0  0
  -22.7549  -23.2086   21.8866 N   0  0  0  0  0  0  0  0  0  0  0  0
  -30.9954  -21.9218   16.2445 N   0  3  0  0  0  0  0  0  0  0  0  0
  -23.8362  -21.3359   18.9898 N   0  3  0  0  0  0  0  0  0  0  0  0
  -30.9418  -12.1012   20.6324 O   0  0  0  0  0  0  0  0  0  0  0  0
  -23.5448  -28.6853   23.2021 O   0  0  0  0  0  0  0  0  0  0  0  0
  -21.0884  -25.5203   22.1822 O   0  0  0  0  0  0  0  0  0  0  0  0
  -24.8997  -22.9292   21.0507 O   0  0  0  0  0  0  0  0  0  0  0  0
  -30.2434  -19.4826   17.2507 O   0  0  0  0  0  0  0  0  0  0  0  0
  -31.5239  -28.4743   19.5341 O   0  0  0  0  0  0  0  0  0  0  0  0
  -23.3199  -10.8040   19.7323 O   0  0  0  0  0  0  0  0  0  0  0  0
  -28.7090  -28.4550   19.8758 O   0  0  0  0  0  0  0  0  0  1  0  0
  -22.8681   -6.4411   23.0736 F   0  0  0  0  0  0  0  0  0  0  0  0
  -21.1679  -10.5490   21.4488 F   0  0  0  0  0  0  0  0  0  0  0  0
  1  2  1  0  0  0  0
  1  5  2  0  0  0  0
  2  6  2  0  0  0  0
  3  8  2  0  0  0  0
  3 15  1  0  0  0  0
  4  9  1  0  0  0  0
  4 15  2  0  0  0  0
  5 17  1  0  0  0  0
  6 19  1  0  0  0  0
  7 10  2  0  0  0  0
  7 18  1  0  0  0  0
  8 21  1  0  0  0  0
  9 21  2  0  0  0  0
 10 22  1  0  0  0  0
 11 12  2  0  0  0  0
 11 23  1  0  0  0  0
 12 24  1  0  0  0  0
 13 20  1  0  0  0  0
 13 22  2  0  0  0  0
 14 24  2  0  0  0  0
 14 25  1  0  0  0  0
 15 26  1  0  0  0  0
 16 26  1  0  0  0  0
 16 27  2  0  0  0  0
 16 28  1  0  0  0  0
 17 19  2  0  0  0  0
 17 34  1  0  0  0  0
 18 20  2  0  0  0  0
 18 35  1  0  0  0  0
 19 43  1  0  0  0  0
 20 36  1  0  0  0  0
 21 79  1  0  0  0  0
 22 80  1  0  0  0  0
 23 25  2  0  0  0  0
 23 79  1  0  0  0  0
 24 81  1  0  0  0  0
 25 82  1  0  0  0  0
 26 62  2  0  0  0  0
 27 63  1  0  0  0  0
 27 66  1  0  0  0  0
 28 67  1  0  0  0  0
 28 73  2  0  0  0  0
 29 44  1  0  0  0  0
 29 68  1  0  0  0  0
 29 74  2  0  0  0  0
 30 56  1  0  0  0  0
 30 64  1  0  0  0  0
 30 75  2  0  0  0  0
 31 53  1  0  0  0  0
 31 69  1  0  0  0  0
 31 71  2  0  0  0  0
 32 57  1  0  0  0  0
 32 70  1  0  0  0  0
 32 76  2  0  0  0  0
 33 65  1  0  0  0  0
 33 69  1  0  0  0  0
 33 77  2  0  0  0  0
 34 37  1  0  0  0  0
 35 44  1  0  0  0  0
 36 64  1  0  0  0  0
 37 39  1  0  0  0  0
 38 40  1  0  0  0  0
 38 41  1  0  0  0  0
 39 43  1  0  0  0  0
 40 45  1  0  0  0  0
 41 65  1  0  0  0  0
 42 45  1  0  0  0  0
 42 65  1  0  0  0  0
 43 68  1  0  0  0  0
 44 64  1  0  0  0  0
 45 63  1  0  0  0  0
 46 57  1  0  0  0  0
 47 58  1  0  0  0  0
 48 59  1  0  0  0  0
 49 61  1  0  0  0  0
 50 61  1  0  0  0  0
 51 61  1  0  0  0  0
 52 72  1  0  0  0  0
 53 58  1  0  0  0  0
 54 59  1  0  0  0  0
 54 60  1  0  0  0  0
 55 60  1  0  0  0  0
 55 80  1  0  0  0  0
 56 61  1  0  0  0  0
 56 70  1  0  0  0  0
 57 72  1  0  0  0  0
 58 59  1  0  0  0  0
 60 78  1  0  0  0  0
 62 63  1  0  0  0  0
M  CHG  2  71   1  72   1
M  ISO  4  33 100  55 101  69 100  80 101
M  END
> <Batch ID>
0113

> <Smiles>
CNC(C)C(=O)NC(C(=O)N1Cc2cc([101O:1][101CH2:1]C(O)CC(C)C(C)CC(N)=[100N:0][100C:0](=O)N3CCCC(n4nc(-c5ccc(Oc6ccc(F)cc6F)cc5)c(C(N)=O)c4N)C3)ccc2CC1C(=O)NC1CCCc2ccccc21)C(C)(C)C

> <Shape>
0.255

> <Color>
0.081

> <Negative vol penalty>
0.000

$$$$

  -OEChem-04052320052D

  0  0  0     0  0  0  0  0  0999 V2000
M  END
$$$$

  -OEChem-04052320053D

 87 95  0     1  0  0  0  0  0999 V2000
  -30.7156  -26.0711   17.1211 C   0  0  0  0  0  0  0  0  0  0  0  0
  -29.3359  -25.9490   17.2517 C   0  0  0  0  0  0  0  0  0  0  0  0
  -23.9618  -14.1217   21.0511 C   0  0  0  0  0  0  0  0  0  0  0  0
  -25.8018  -14.1439   19.4856 C   0  0  0  0  0  0  0  0  0  0  0  0
  -31.4705  -26.5930   18.1707 C   0  0  0  0  0  0  0  0  0  0  0  0
  -28.7105  -26.3480   18.4325 C   0  0  0  0  0  0  0  0  0  0  0  0
  -23.1618  -28.8802   18.9856 C   0  0  0  0  0  0  0  0  0  0  0  0
  -24.2297  -12.7853   21.3471 C   0  0  0  0  0  0  0  0  0  0  0  0
  -26.0698  -12.8074   19.7816 C   0  0  0  0  0  0  0  0  0  0  0  0
  -21.9167  -28.3479   19.3172 C   0  0  0  0  0  0  0  0  0  0  0  0
  -23.6611   -9.7620   19.9469 C   0  0  0  0  0  0  0  0  0  0  0  0
  -22.5795   -8.8836   20.0103 C   0  0  0  0  0  0  0  0  0  0  0  0
  -22.2496  -29.0143   21.6117 C   0  0  0  0  0  0  0  0  0  0  0  0
  -23.1207   -8.3833   22.3112 C   0  0  0  0  0  0  0  0  0  0  0  0
  -24.7478  -14.8011   20.1202 C   0  0  0  0  0  0  0  0  0  0  0  0
  -23.2792  -16.7125   19.2852 C   0  0  0  0  0  0  0  0  0  0  0  0
  -30.8529  -27.0075   19.3612 C   0  0  0  0  0  0  0  0  0  0  0  0
  -23.9663  -29.4748   19.9683 C   0  0  0  0  0  0  0  0  0  0  0  0
  -29.4580  -26.8747   19.4994 C   0  0  0  0  0  0  0  0  0  0  0  0
  -23.5034  -29.5557   21.2894 C   0  0  0  0  0  0  0  0  0  0  0  0
  -25.2837  -12.1281   20.7124 C   0  0  0  0  0  0  0  0  0  0  0  0
  -21.4616  -28.4123   20.6310 C   0  0  0  0  0  0  0  0  0  0  0  0
  -24.4726   -9.9510   21.0656 C   0  0  0  0  0  0  0  0  0  0  0  0
  -22.3092   -8.1943   21.1924 C   0  0  0  0  0  0  0  0  0  0  0  0
  -24.2023   -9.2618   22.2477 C   0  0  0  0  0  0  0  0  0  0  0  0
  -24.4711  -16.1815   19.8136 C   0  0  0  0  0  0  0  0  0  0  0  0
  -23.5211  -18.0604   19.1795 C   0  0  0  0  0  0  0  0  0  0  0  0
  -22.0622  -16.0470   18.9224 C   0  0  0  0  0  0  0  0  0  0  0  0
  -26.8423  -28.8714   21.1800 C   0  0  0  0  0  0  0  0  0  0  0  0
  -26.3402  -31.6676   22.7457 C   0  0  0  0  0  0  0  0  0  0  0  0
  -22.7603  -23.4962   23.7136 C   0  0  0  0  0  0  0  0  0  0  0  0
  -24.1106  -33.9456   23.9647 C   0  0  0  0  0  0  0  0  0  0  0  0
  -27.2497  -21.7705   22.0404 C   0  0  0  0  0  0  0  0  0  0  0  0
  -31.7161  -27.5216   20.4860 C   0  0  0  0  0  0  0  0  0  0  0  0
  -25.2954  -30.0683   19.5892 C   0  0  0  0  0  0  0  0  0  0  0  0
  -24.3200  -30.2018   22.3776 C   0  0  0  0  0  0  0  0  0  0  0  0
  -30.9329  -28.2694   21.5620 C   0  0  0  0  0  0  0  0  0  0  0  0
  -27.0856  -21.1855   18.5322 C   0  0  0  0  0  0  0  0  0  0  0  0
  -29.6829  -27.4874   21.9529 C   0  0  0  0  0  0  0  0  0  0  0  0
  -18.8513  -25.6575   23.6652 C   0  0  0  0  0  0  0  0  0  0  0  0
  -19.4276  -25.1632   21.2545 C   0  0  0  0  0  0  0  0  0  0  0  0
  -26.2894  -19.8846   18.4151 C   0  0  0  0  0  0  0  0  0  0  0  0
  -20.0232  -24.7900   24.1255 C   0  0  0  0  0  0  0  0  0  0  0  0
  -20.6000  -24.2941   21.7106 C   0  0  0  0  0  0  0  0  0  0  0  0
  -28.0004  -21.1792   19.7550 C   0  0  0  0  0  0  0  0  0  0  0  0
  -26.5296  -19.5773   20.9144 C   0  0  0  0  0  0  0  0  0  0  0  0
  -28.7402  -27.3195   20.7552 C   0  0  1  0  0  0  0  0  0  0  0  0
  -26.2534  -30.1916   20.7700 C   0  0  1  0  0  0  0  0  0  0  0  0
  -19.0580  -26.2569   22.2668 C   0  0  0  0  0  0  0  0  0  0  0  0
  -25.5513  -19.5590   19.7275 C   0  0  2  0  0  0  0  0  0  0  0  0
  -20.3517  -23.7032   23.0996 C   0  0  0  0  0  0  0  0  0  0  0  0
  -21.4531  -20.7066   22.5127 C   0  0  0  0  0  0  0  0  0  0  0  0
  -23.9984  -36.1097   25.2303 C   0  0  0  0  0  0  0  0  0  0  0  0
  -26.9462  -30.1794   25.3395 C   0  0  0  0  0  0  0  0  0  0  0  0
  -25.9115  -32.0840   26.5925 C   0  0  0  0  0  0  0  0  0  0  0  0
  -27.9408  -32.4694   25.1939 C   0  0  0  0  0  0  0  0  0  0  0  0
  -22.7908  -35.3315   21.7072 C   0  0  0  0  0  0  0  0  0  0  0  0
  -23.8734  -22.5549   24.1677 C   0  0  0  0  0  0  0  0  0  0  0  0
  -20.0922  -27.3859   22.2824 C   0  0  0  0  0  0  0  0  0  1  0  0
  -21.2321  -21.4989   23.7561 C   0  0  0  0  0  0  0  0  0  0  0  0
  -26.4038  -22.2290   24.3281 C   0  0  0  0  0  0  0  0  0  0  0  0
  -25.7168  -32.0576   24.0641 C   0  0  1  0  0  0  0  0  0  0  0  0
  -24.0560  -35.4589   23.8570 C   0  0  2  0  0  0  0  0  0  0  0  0
  -25.2469  -23.2282   24.2838 C   0  0  2  0  0  0  0  0  0  0  0  0
  -26.6140  -31.6836   25.2776 C   0  0  0  0  0  0  0  0  0  0  0  0
  -25.4012  -17.1157   20.0284 N   0  0  0  0  0  0  0  0  0  0  0  0
  -24.7938  -18.2474   19.6330 N   0  0  0  0  0  0  0  0  0  0  0  0
  -25.6154  -30.7619   21.9583 N   0  0  0  0  0  0  0  0  0  0  0  0
  -27.2386  -20.8655   20.9662 N   0  0  0  0  0  0  0  0  0  0  0  0
  -22.7673  -19.0921   18.7438 N   0  0  0  0  0  0  0  0  0  0  0  0
  -21.9828  -14.6585   19.0956 N   0  0  0  0  0  0  0  0  0  0  0  0
  -28.0075  -28.5438   20.5132 N   0  0  0  0  0  0  0  0  0  0  0  0
  -25.4085  -33.4801   23.9649 N   0  0  0  0  0  0  0  0  0  0  0  0
  -26.4963  -21.3994   23.1474 N   0  0  0  0  0  0  0  0  0  0  0  0
  -21.4889  -22.9249   23.5276 N   0  0  0  0  0  0  0  0  0  0  0  0
  -25.2806  -24.0535   25.5276 N   0  3  0  0  0  0  0  0  0  0  0  0
  -22.8521  -35.8802   23.0864 N   0  3  0  0  0  0  0  0  0  0  0  0
  -21.0803  -16.6630   18.4431 O   0  0  0  0  0  0  0  0  0  0  0  0
  -26.2819  -28.2004   22.0387 O   0  0  0  0  0  0  0  0  0  0  0  0
  -27.4268  -32.1543   22.4231 O   0  0  0  0  0  0  0  0  0  0  0  0
  -22.9888  -24.6938   23.5248 O   0  0  0  0  0  0  0  0  0  0  0  0
  -23.1028  -33.2468   24.0448 O   0  0  0  0  0  0  0  0  0  0  0  0
  -27.8797  -22.8331   22.0128 O   0  0  0  0  0  0  0  0  0  0  0  0
  -25.5456  -10.8241   21.0012 O   0  0  0  0  0  0  0  0  0  0  0  0
  -20.2469  -27.8929   20.9575 O   0  0  0  0  0  0  0  0  0  1  0  0
  -21.2696   -7.3519   21.2537 F   0  0  0  0  0  0  0  0  0  0  0  0
  -24.9777   -9.4402   23.3261 F   0  0  0  0  0  0  0  0  0  0  0  0
  1  2  1  0  0  0  0
  1  5  2  0  0  0  0
  2  6  2  0  0  0  0
  3  8  2  0  0  0  0
  3 15  1  0  0  0  0
  4  9  1  0  0  0  0
  4 15  2  0  0  0  0
  5 17  1  0  0  0  0
  6 19  1  0  0  0  0
  7 10  2  0  0  0  0
  7 18  1  0  0  0  0
  8 21  1  0  0  0  0
  9 21  2  0  0  0  0
 10 22  1  0  0  0  0
 11 12  2  0  0  0  0
 11 23  1  0  0  0  0
 12 24  1  0  0  0  0
 13 20  1  0  0  0  0
 13 22  2  0  0  0  0
 14 24  2  0  0  0  0
 14 25  1  0  0  0  0
 15 26  1  0  0  0  0
 16 26  1  0  0  0  0
 16 27  2  0  0  0  0
 16 28  1  0  0  0  0
 17 19  2  0  0  0  0
 17 34  1  0  0  0  0
 18 20  2  0  0  0  0
 18 35  1  0  0  0  0
 19 47  1  0  0  0  0
 20 36  1  0  0  0  0
 21 84  1  0  0  0  0
 22 85  1  0  0  0  0
 23 25  2  0  0  0  0
 23 84  1  0  0  0  0
 24 86  1  0  0  0  0
 25 87  1  0  0  0  0
 26 66  2  0  0  0  0
 27 67  1  0  0  0  0
 27 70  1  0  0  0  0
 28 71  1  0  0  0  0
 28 78  2  0  0  0  0
 29 48  1  0  0  0  0
 29 72  1  0  0  0  0
 29 79  2  0  0  0  0
 30 62  1  0  0  0  0
 30 68  1  0  0  0  0
 30 80  2  0  0  0  0
 31 58  1  0  0  0  0
 31 75  1  0  0  0  0
 31 81  2  0  0  0  0
 32 63  1  0  0  0  0
 32 73  1  0  0  0  0
 32 82  2  0  0  0  0
 33 69  1  0  0  0  0
 33 74  1  0  0  0  0
 33 83  2  0  0  0  0
 34 37  1  0  0  0  0
 35 48  1  0  0  0  0
 36 68  1  0  0  0  0
 37 39  1  0  0  0  0
 38 42  1  0  0  0  0
 38 45  1  0  0  0  0
 39 47  1  0  0  0  0
 40 43  1  0  0  0  0
 40 49  1  0  0  0  0
 41 44  1  0  0  0  0
 41 49  1  0  0  0  0
 42 50  1  0  0  0  0
 43 51  1  0  0  0  0
 44 51  1  0  0  0  0
 45 69  1  0  0  0  0
 46 50  1  0  0  0  0
 46 69  1  0  0  0  0
 47 72  1  0  0  0  0
 48 68  1  0  0  0  0
 49 59  1  0  0  0  0
 50 67  1  0  0  0  0
 51 75  1  0  0  0  0
 52 60  1  0  0  0  0
 53 63  1  0  0  0  0
 54 65  1  0  0  0  0
 55 65  1  0  0  0  0
 56 65  1  0  0  0  0
 57 77  1  0  0  0  0
 58 64  1  0  0  0  0
 59 85  1  0  0  0  0
 60 75  1  0  0  0  0
 61 64  1  0  0  0  0
 61 74  1  0  0  0  0
 62 65  1  0  0  0  0
 62 73  1  0  0  0  0
 63 77  1  0  0  0  0
 64 76  1  0  0  0  0
 66 67  1  0  0  0  0
M  CHG  2  76   1  77   1
M  ISO  4  33 100  59 101  74 100  85 101
M  END
> <Batch ID>
0113

> <Smiles>
CCN(C(=O)CC(N)C[100NH:0][100C:0](=O)N1CCCC(n2nc(-c3ccc(Oc4ccc(F)cc4F)cc3)c(C(N)=O)c2N)C1)C1CCC([101CH2:1][101O:1]c2ccc3c(c2)CN(C(=O)C(NC(=O)C(C)NC)C(C)(C)C)C(C(=O)NC2CCCc4ccccc42)C3)CC1

> <Shape>
0.303

> <Color>
0.088

> <Negative vol penalty>
0.000

$$$$

  -OEChem-04052320053D

 83 91  0     1  0  0  0  0  0999 V2000
  -32.0985  -15.2529   20.4059 C   0  0  0  0  0  0  0  0  0  0  0  0
  -31.0792  -16.1994   20.4286 C   0  0  0  0  0  0  0  0  0  0  0  0
  -27.6642  -26.0364   20.1845 C   0  0  0  0  0  0  0  0  0  0  0  0
  -28.8562  -28.0436   19.5621 C   0  0  0  0  0  0  0  0  0  0  0  0
  -31.7967  -13.9104   20.1812 C   0  0  0  0  0  0  0  0  0  0  0  0
  -29.7575  -15.8040   20.2254 C   0  0  0  0  0  0  0  0  0  0  0  0
  -26.5616  -17.9417   23.5211 C   0  0  0  0  0  0  0  0  0  0  0  0
  -28.8089  -25.2793   19.9352 C   0  0  0  0  0  0  0  0  0  0  0  0
  -30.0009  -27.2865   19.3129 C   0  0  0  0  0  0  0  0  0  0  0  0
  -26.1944  -19.2656   23.2846 C   0  0  0  0  0  0  0  0  0  0  0  0
  -31.3140  -22.7735   19.1174 C   0  0  0  0  0  0  0  0  0  0  0  0
  -31.1652  -21.5876   18.3983 C   0  0  0  0  0  0  0  0  0  0  0  0
  -24.1145  -18.5107   22.3236 C   0  0  0  0  0  0  0  0  0  0  0  0
  -30.2791  -22.8332   16.5273 C   0  0  0  0  0  0  0  0  0  0  0  0
  -27.6878  -27.4185   19.9979 C   0  0  0  0  0  0  0  0  0  0  0  0
  -25.2512  -28.0769   19.6278 C   0  0  0  0  0  0  0  0  0  0  0  0
  -30.4697  -13.4970   19.9847 C   0  0  0  0  0  0  0  0  0  0  0  0
  -25.7115  -16.8900   23.1501 C   0  0  0  0  0  0  0  0  0  0  0  0
  -29.4378  -14.4549   19.9964 C   0  0  0  0  0  0  0  0  0  0  0  0
  -24.4722  -17.1743   22.5589 C   0  0  0  0  0  0  0  0  0  0  0  0
  -29.9772  -25.9043   19.4994 C   0  0  0  0  0  0  0  0  0  0  0  0
  -24.9719  -19.5502   22.6831 C   0  0  0  0  0  0  0  0  0  0  0  0
  -30.9453  -23.9893   18.5415 C   0  0  0  0  0  0  0  0  0  0  0  0
  -30.6478  -21.6174   17.1033 C   0  0  0  0  0  0  0  0  0  0  0  0
  -30.4279  -24.0191   17.2465 C   0  0  0  0  0  0  0  0  0  0  0  0
  -26.5056  -28.2011   20.2547 C   0  0  0  0  0  0  0  0  0  0  0  0
  -24.4739  -29.0415   20.2210 C   0  0  0  0  0  0  0  0  0  0  0  0
  -24.8266  -27.1707   18.6011 C   0  0  0  0  0  0  0  0  0  0  0  0
  -25.9261  -14.4327   21.1454 C   0  0  0  0  0  0  0  0  0  0  0  0
  -23.0738  -13.6159   22.4568 C   0  0  0  0  0  0  0  0  0  0  0  0
  -20.0528  -15.3152   23.4582 C   0  0  0  0  0  0  0  0  0  0  0  0
  -25.2457  -31.7337   25.6703 C   0  0  0  0  0  0  0  0  0  0  0  0
  -30.1976  -12.0414   19.6984 C   0  0  0  0  0  0  0  0  0  0  0  0
  -26.1106  -15.4684   23.4365 C   0  0  0  0  0  0  0  0  0  0  0  0
  -23.5146  -16.0823   22.1602 C   0  0  0  0  0  0  0  0  0  0  0  0
  -28.7310  -11.6517   19.8647 C   0  0  0  0  0  0  0  0  0  0  0  0
  -24.7593  -33.3074   22.3554 C   0  0  0  0  0  0  0  0  0  0  0  0
  -27.8267  -12.6711   19.1791 C   0  0  0  0  0  0  0  0  0  0  0  0
  -25.1179  -32.1759   21.3936 C   0  0  0  0  0  0  0  0  0  0  0  0
  -26.3910  -25.8799   24.6256 C   0  0  0  0  0  0  0  0  0  0  0  0
  -25.9355  -24.6170   23.8924 C   0  0  0  0  0  0  0  0  0  0  0  0
  -25.4972  -33.1775   23.6844 C   0  0  0  0  0  0  0  0  0  0  0  0
  -25.6690  -30.7285   23.3891 C   0  0  0  0  0  0  0  0  0  0  0  0
  -23.5347  -25.2025   24.4040 C   0  0  0  0  0  0  0  0  0  0  0  0
  -27.9891  -14.0616   19.8049 C   0  0  1  0  0  0  0  0  0  0  0  0
  -25.3923  -14.4559   22.5497 C   0  0  1  0  0  0  0  0  0  0  0  0
  -24.9070  -30.8040   22.0575 C   0  0  2  0  0  0  0  0  0  0  0  0
  -25.3146  -26.9636   24.6108 C   0  0  2  0  0  0  0  0  0  0  0  0
  -24.5807  -24.0742   24.4008 C   0  0  2  0  0  0  0  0  0  0  0  0
  -24.7363  -23.4657   25.8085 C   0  0  0  0  0  0  0  0  0  0  0  0
  -18.3454  -14.7187   25.1978 C   0  0  0  0  0  0  0  0  0  0  0  0
  -21.5946  -12.2975   20.1365 C   0  0  0  0  0  0  0  0  0  0  0  0
  -19.4473  -13.1100   21.1351 C   0  0  0  0  0  0  0  0  0  0  0  0
  -20.8864  -11.5158   22.4041 C   0  0  0  0  0  0  0  0  0  0  0  0
  -24.9696  -30.2762   27.6398 C   0  0  0  0  0  0  0  0  0  0  0  0
  -20.3501  -17.9295   24.8132 C   0  0  0  0  0  0  0  0  0  0  0  0
  -25.7021  -28.1676   25.4568 C   0  0  0  0  0  0  0  0  0  0  0  0
  -24.1003  -22.9597   23.4533 C   0  0  0  0  0  0  0  0  0  0  0  0
  -24.6670  -29.2852   25.4010 C   0  0  0  0  0  0  0  0  0  0  0  0
  -25.1116  -21.8282   23.3520 C   0  0  0  0  0  0  0  0  0  1  0  0
  -21.6281  -13.9189   22.1455 C   0  0  1  0  0  0  0  0  0  0  0  0
  -19.5738  -15.5563   24.8784 C   0  0  2  0  0  0  0  0  0  0  0  0
  -20.9099  -12.7288   21.4488 C   0  0  0  0  0  0  0  0  0  0  0  0
  -26.5284  -29.1684   21.1754 N   0  0  0  0  0  0  0  0  0  0  0  0
  -25.2787  -29.6609   21.1314 N   0  0  0  0  0  0  0  0  0  0  0  0
  -23.9529  -14.7081   22.4553 N   0  0  0  0  0  0  0  0  0  0  0  0
  -25.3151  -31.8499   24.2722 N   0  0  0  0  0  0  0  0  0  0  0  0
  -23.1875  -29.4119   20.0473 N   0  0  0  0  0  0  0  0  0  0  0  0
  -25.7524  -26.2434   18.1036 N   0  0  0  0  0  0  0  0  0  0  0  0
  -27.2733  -14.1375   21.0604 N   0  0  0  0  0  0  0  0  0  0  0  0
  -21.0172  -14.3312   23.4045 N   0  0  0  0  0  0  0  0  0  0  0  0
  -25.0594  -30.4464   26.1966 N   0  0  0  0  0  0  0  0  0  0  0  0
  -24.0408  -26.3908   25.1570 N   0  3  0  0  0  0  0  0  0  0  0  0
  -19.2263  -16.9927   25.0710 N   0  3  0  0  0  0  0  0  0  0  0  0
  -23.6655  -27.1937   18.1270 O   0  0  0  0  0  0  0  0  0  0  0  0
  -25.1712  -14.6639   20.2082 O   0  0  0  0  0  0  0  0  0  0  0  0
  -23.4095  -12.4540   22.6996 O   0  0  0  0  0  0  0  0  0  0  0  0
  -19.6126  -15.9351   22.4925 O   0  0  0  0  0  0  0  0  0  0  0  0
  -25.3352  -32.7252   26.4057 O   0  0  0  0  0  0  0  0  0  0  0  0
  -31.0944  -25.1659   19.2563 O   0  0  0  0  0  0  0  0  0  0  0  0
  -24.6113  -20.8416   22.4505 O   0  0  0  0  0  0  0  0  0  1  0  0
  -30.5064  -20.4787   16.4123 F   0  0  0  0  0  0  0  0  0  0  0  0
  -30.0731  -25.1842   16.6874 F   0  0  0  0  0  0  0  0  0  0  0  0
  1  2  1  0  0  0  0
  1  5  2  0  0  0  0
  2  6  2  0  0  0  0
  3  8  2  0  0  0  0
  3 15  1  0  0  0  0
  4  9  1  0  0  0  0
  4 15  2  0  0  0  0
  5 17  1  0  0  0  0
  6 19  1  0  0  0  0
  7 10  2  0  0  0  0
  7 18  1  0  0  0  0
  8 21  1  0  0  0  0
  9 21  2  0  0  0  0
 10 22  1  0  0  0  0
 11 12  2  0  0  0  0
 11 23  1  0  0  0  0
 12 24  1  0  0  0  0
 13 20  1  0  0  0  0
 13 22  2  0  0  0  0
 14 24  2  0  0  0  0
 14 25  1  0  0  0  0
 15 26  1  0  0  0  0
 16 26  1  0  0  0  0
 16 27  2  0  0  0  0
 16 28  1  0  0  0  0
 17 19  2  0  0  0  0
 17 33  1  0  0  0  0
 18 20  2  0  0  0  0
 18 34  1  0  0  0  0
 19 45  1  0  0  0  0
 20 35  1  0  0  0  0
 21 80  1  0  0  0  0
 22 81  1  0  0  0  0
 23 25  2  0  0  0  0
 23 80  1  0  0  0  0
 24 82  1  0  0  0  0
 25 83  1  0  0  0  0
 26 64  2  0  0  0  0
 27 65  1  0  0  0  0
 27 68  1  0  0  0  0
 28 69  1  0  0  0  0
 28 75  2  0  0  0  0
 29 46  1  0  0  0  0
 29 70  1  0  0  0  0
 29 76  2  0  0  0  0
 30 61  1  0  0  0  0
 30 66  1  0  0  0  0
 30 77  2  0  0  0  0
 31 62  1  0  0  0  0
 31 71  1  0  0  0  0
 31 78  2  0  0  0  0
 32 67  1  0  0  0  0
 32 72  1  0  0  0  0
 32 79  2  0  0  0  0
 33 36  1  0  0  0  0
 34 46  1  0  0  0  0
 35 66  1  0  0  0  0
 36 38  1  0  0  0  0
 37 39  1  0  0  0  0
 37 42  1  0  0  0  0
 38 45  1  0  0  0  0
 39 47  1  0  0  0  0
 40 41  1  0  0  0  0
 40 48  1  0  0  0  0
 41 49  1  0  0  0  0
 42 67  1  0  0  0  0
 43 47  1  0  0  0  0
 43 67  1  0  0  0  0
 44 49  1  0  0  0  0
 44 73  1  0  0  0  0
 45 70  1  0  0  0  0
 46 66  1  0  0  0  0
 47 65  1  0  0  0  0
 48 57  1  0  0  0  0
 48 73  1  0  0  0  0
 49 50  1  0  0  0  0
 49 58  1  0  0  0  0
 51 62  1  0  0  0  0
 52 63  1  0  0  0  0
 53 63  1  0  0  0  0
 54 63  1  0  0  0  0
 55 72  1  0  0  0  0
 56 74  1  0  0  0  0
 57 59  1  0  0  0  0
 58 60  1  0  0  0  0
 59 72  1  0  0  0  0
 60 81  1  0  0  0  0
 61 63  1  0  0  0  0
 61 71  1  0  0  0  0
 62 74  1  0  0  0  0
 64 65  1  0  0  0  0
M  CHG  2  73   1  74   1
M  ISO  4  32 100  60 101  72 100  81 101
M  END
> <Batch ID>
0113

> <Smiles>
CNC(C)C(=O)NC(C(=O)N1Cc2cc([101O:1][101CH2:1]CC3(C)CCC(CC[100N:0](C)[100C:0](=O)N4CCCC(n5nc(-c6ccc(Oc7ccc(F)cc7F)cc6)c(C(N)=O)c5N)C4)NC3)ccc2CC1C(=O)NC1CCCc2ccccc21)C(C)(C)C

> <Shape>
0.246

> <Color>
0.058

> <Negative vol penalty>
0.000

$$$$

  -OEChem-04052320053D

 86 94  0     1  0  0  0  0  0999 V2000
  -34.2993  -29.7844   21.1576 C   0  0  0  0  0  0  0  0  0  0  0  0
  -33.4917  -28.7915   20.6123 C   0  0  0  0  0  0  0  0  0  0  0  0
  -23.1538   -9.8651   19.9605 C   0  0  0  0  0  0  0  0  0  0  0  0
  -23.8226   -9.9636   22.2800 C   0  0  0  0  0  0  0  0  0  0  0  0
  -35.6718  -29.5740   21.2833 C   0  0  0  0  0  0  0  0  0  0  0  0
  -34.0563  -27.5880   20.1915 C   0  0  0  0  0  0  0  0  0  0  0  0
  -31.5111  -22.0255   20.4852 C   0  0  0  0  0  0  0  0  0  0  0  0
  -22.4406   -8.6939   20.2159 C   0  0  0  0  0  0  0  0  0  0  0  0
  -23.1094   -8.7925   22.5355 C   0  0  0  0  0  0  0  0  0  0  0  0
  -30.8448  -21.2477   19.5392 C   0  0  0  0  0  0  0  0  0  0  0  0
  -21.7614   -5.6328   23.7226 C   0  0  0  0  0  0  0  0  0  0  0  0
  -22.3813   -4.6519   24.4965 C   0  0  0  0  0  0  0  0  0  0  0  0
  -27.7347  -17.9158   22.4743 C   0  0  0  0  0  0  0  0  0  0  0  0
  -27.9255  -17.9765   23.8768 C   0  0  0  0  0  0  0  0  0  0  0  0
  -32.9012  -20.0819   19.0582 C   0  0  0  0  0  0  0  0  0  0  0  0
  -24.1558   -4.4862   22.8653 C   0  0  0  0  0  0  0  0  0  0  0  0
  -23.8449  -10.5000   20.9926 C   0  0  0  0  0  0  0  0  0  0  0  0
  -24.1046  -13.0312   20.8111 C   0  0  0  0  0  0  0  0  0  0  0  0
  -36.2522  -28.3636   20.8726 C   0  0  0  0  0  0  0  0  0  0  0  0
  -32.8821  -21.8444   20.7174 C   0  0  0  0  0  0  0  0  0  0  0  0
  -35.4381  -27.3618   20.3105 C   0  0  0  0  0  0  0  0  0  0  0  0
  -33.5820  -20.8569   20.0095 C   0  0  0  0  0  0  0  0  0  0  0  0
  -22.4183   -8.1576   21.5034 C   0  0  0  0  0  0  0  0  0  0  0  0
  -31.5404  -20.2777   18.8235 C   0  0  0  0  0  0  0  0  0  0  0  0
  -22.3386   -6.0404   22.5199 C   0  0  0  0  0  0  0  0  0  0  0  0
  -23.5786   -4.0786   24.0679 C   0  0  0  0  0  0  0  0  0  0  0  0
  -23.5358   -5.4671   22.0913 C   0  0  0  0  0  0  0  0  0  0  0  0
  -24.5823  -11.7095   20.7293 C   0  0  0  0  0  0  0  0  0  0  0  0
  -28.9158  -17.4779   21.9171 C   0  0  0  0  0  0  0  0  0  0  0  0
  -29.2175  -17.5740   24.1339 C   0  0  0  0  0  0  0  0  0  0  0  0
  -25.1839  -13.8082   20.4678 C   0  0  0  0  0  0  0  0  0  0  0  0
  -22.8018  -13.5135   21.1658 C   0  0  0  0  0  0  0  0  0  0  0  0
  -35.4680  -23.6684   20.4176 C   0  0  0  0  0  0  0  0  0  0  0  0
  -36.9364  -21.1414   21.8248 C   0  0  0  0  0  0  0  0  0  0  0  0
  -36.9342  -17.7955   22.4971 C   0  0  0  0  0  0  0  0  0  0  0  0
  -30.9403  -13.9745   21.0597 C   0  0  0  0  0  0  0  0  0  0  0  0
  -37.7474  -28.2006   20.9848 C   0  0  0  0  0  0  0  0  0  0  0  0
  -33.5805  -22.6733   21.7603 C   0  0  0  0  0  0  0  0  0  0  0  0
  -35.0503  -20.6092   20.2359 C   0  0  0  0  0  0  0  0  0  0  0  0
  -38.2132  -26.7522   20.8602 C   0  0  0  0  0  0  0  0  0  0  0  0
  -29.3936  -13.0275   17.9958 C   0  0  0  0  0  0  0  0  0  0  0  0
  -37.5313  -26.0720   19.6774 C   0  0  0  0  0  0  0  0  0  0  0  0
  -27.9509  -12.7140   18.3959 C   0  0  0  0  0  0  0  0  0  0  0  0
  -30.3846  -12.5991   19.0758 C   0  0  0  0  0  0  0  0  0  0  0  0
  -28.6594  -12.8180   20.8220 C   0  0  0  0  0  0  0  0  0  0  0  0
  -36.0099  -26.0332   19.8653 C   0  0  1  0  0  0  0  0  0  0  0  0
  -35.0890  -22.7539   21.5479 C   0  0  1  0  0  0  0  0  0  0  0  0
  -27.6190  -13.2828   19.7886 C   0  0  2  0  0  0  0  0  0  0  0  0
  -30.0122  -18.7689   26.2156 C   0  0  0  0  0  0  0  0  0  0  0  0
  -38.2859  -16.0143   23.6361 C   0  0  0  0  0  0  0  0  0  0  0  0
  -38.9012  -21.1432   19.4904 C   0  0  0  0  0  0  0  0  0  0  0  0
  -39.5989  -18.8357   20.1666 C   0  0  0  0  0  0  0  0  0  0  0  0
  -39.9423  -20.7491   21.7299 C   0  0  0  0  0  0  0  0  0  0  0  0
  -31.3496  -17.1825   18.2177 C   0  0  0  0  0  0  0  0  0  0  0  0
  -29.0985  -17.9940   17.4672 C   0  0  0  0  0  0  0  0  0  0  0  0
  -34.7412  -17.1758   24.3853 C   0  0  0  0  0  0  0  0  0  0  0  0
  -29.2704  -17.2334   20.4709 C   0  0  0  0  0  0  0  0  0  0  0  0
  -29.8474  -18.4946   19.8125 C   0  0  0  0  0  0  0  0  0  0  0  0
  -31.1721  -16.8113   22.7701 C   0  0  0  0  0  0  0  0  0  0  0  0
  -31.3434  -15.3306   23.0988 C   0  0  0  0  0  0  0  0  0  0  0  0
  -29.9323  -17.4521   25.4212 C   0  0  1  0  0  0  0  0  0  0  0  0
  -37.6020  -19.8801   21.3297 C   0  0  1  0  0  0  0  0  0  0  0  0
  -37.1615  -17.0270   23.7864 C   0  0  2  0  0  0  0  0  0  0  0  0
  -38.9839  -20.1578   20.6733 C   0  0  0  0  0  0  0  0  0  0  0  0
  -30.3102  -18.2971   18.3547 C   0  0  0  0  0  0  0  0  0  1  0  0
  -25.8651  -11.6466   20.3626 N   0  0  0  0  0  0  0  0  0  0  0  0
  -29.8101  -17.2737   22.9353 N   0  0  0  0  0  0  0  0  0  0  0  0
  -26.2026  -12.9386   20.2109 N   0  0  0  0  0  0  0  0  0  0  0  0
  -35.6899  -21.4496   21.2616 N   0  0  0  0  0  0  0  0  0  0  0  0
  -30.0141  -13.1735   20.3715 N   0  0  0  0  0  0  0  0  0  0  0  0
  -25.3513  -15.1437   20.3635 N   0  0  0  0  0  0  0  0  0  0  0  0
  -21.8091  -12.5790   21.4909 N   0  0  0  0  0  0  0  0  0  0  0  0
  -35.6419  -24.9865   20.7945 N   0  0  0  0  0  0  0  0  0  0  0  0
  -37.6539  -18.9714   22.4698 N   0  0  0  0  0  0  0  0  0  0  0  0
  -30.5066  -14.4844   22.2774 N   0  0  0  0  0  0  0  0  0  0  0  0
  -29.3447  -16.4191   26.3508 N   0  3  0  0  0  0  0  0  0  0  0  0
  -35.9225  -16.2986   24.1804 N   0  3  0  0  0  0  0  0  0  0  0  0
  -22.5215  -14.7361   21.1776 O   0  0  0  0  0  0  0  0  0  0  0  0
  -35.5948  -23.2119   19.2875 O   0  0  0  0  0  0  0  0  0  0  0  0
  -37.4983  -21.8241   22.6849 O   0  0  0  0  0  0  0  0  0  0  0  0
  -36.1953  -17.3913   21.6020 O   0  0  0  0  0  0  0  0  0  0  0  0
  -32.0680  -14.2215   20.6191 O   0  0  0  0  0  0  0  0  0  0  0  0
  -21.7223   -7.0149   21.7530 O   0  0  0  0  0  0  0  0  0  0  0  0
  -30.8927  -19.5176   17.8991 O   0  0  0  0  0  0  0  0  0  1  0  0
  -24.1746   -3.1378   24.8121 F   0  0  0  0  0  0  0  0  0  0  0  0
  -24.0957   -5.8555   20.9374 F   0  0  0  0  0  0  0  0  0  0  0  0
  1  2  1  0  0  0  0
  1  5  2  0  0  0  0
  2  6  2  0  0  0  0
  3  8  2  0  0  0  0
  3 17  1  0  0  0  0
  4  9  1  0  0  0  0
  4 17  2  0  0  0  0
  5 19  1  0  0  0  0
  6 21  1  0  0  0  0
  7 10  2  0  0  0  0
  7 20  1  0  0  0  0
  8 23  1  0  0  0  0
  9 23  2  0  0  0  0
 10 24  1  0  0  0  0
 11 12  2  0  0  0  0
 11 25  1  0  0  0  0
 12 26  1  0  0  0  0
 13 14  1  0  0  0  0
 13 29  2  0  0  0  0
 14 30  2  0  0  0  0
 15 22  1  0  0  0  0
 15 24  2  0  0  0  0
 16 26  2  0  0  0  0
 16 27  1  0  0  0  0
 17 28  1  0  0  0  0
 18 28  1  0  0  0  0
 18 31  2  0  0  0  0
 18 32  1  0  0  0  0
 19 21  2  0  0  0  0
 19 37  1  0  0  0  0
 20 22  2  0  0  0  0
 20 38  1  0  0  0  0
 21 46  1  0  0  0  0
 22 39  1  0  0  0  0
 23 83  1  0  0  0  0
 24 84  1  0  0  0  0
 25 27  2  0  0  0  0
 25 83  1  0  0  0  0
 26 85  1  0  0  0  0
 27 86  1  0  0  0  0
 28 66  2  0  0  0  0
 29 57  1  0  0  0  0
 29 67  1  0  0  0  0
 30 61  1  0  0  0  0
 30 67  1  0  0  0  0
 31 68  1  0  0  0  0
 31 71  1  0  0  0  0
 32 72  1  0  0  0  0
 32 78  2  0  0  0  0
 33 47  1  0  0  0  0
 33 73  1  0  0  0  0
 33 79  2  0  0  0  0
 34 62  1  0  0  0  0
 34 69  1  0  0  0  0
 34 80  2  0  0  0  0
 35 63  1  0  0  0  0
 35 74  1  0  0  0  0
 35 81  2  0  0  0  0
 36 70  1  0  0  0  0
 36 75  1  0  0  0  0
 36 82  2  0  0  0  0
 37 40  1  0  0  0  0
 38 47  1  0  0  0  0
 39 69  1  0  0  0  0
 40 42  1  0  0  0  0
 41 43  1  0  0  0  0
 41 44  1  0  0  0  0
 42 46  1  0  0  0  0
 43 48  1  0  0  0  0
 44 70  1  0  0  0  0
 45 48  1  0  0  0  0
 45 70  1  0  0  0  0
 46 73  1  0  0  0  0
 47 69  1  0  0  0  0
 48 68  1  0  0  0  0
 49 61  1  0  0  0  0
 50 63  1  0  0  0  0
 51 64  1  0  0  0  0
 52 64  1  0  0  0  0
 53 64  1  0  0  0  0
 54 65  1  0  0  0  0
 55 65  1  0  0  0  0
 56 77  1  0  0  0  0
 57 58  1  0  0  0  0
 58 65  1  0  0  0  0
 59 60  1  0  0  0  0
 59 67  1  0  0  0  0
 60 75  1  0  0  0  0
 61 76  1  0  0  0  0
 62 64  1  0  0  0  0
 62 74  1  0  0  0  0
 63 77  1  0  0  0  0
 65 84  1  0  0  0  0
 66 68  1  0  0  0  0
M  CHG  2  76   1  77   1
M  ISO  4  36 100  65 101  75 100  84 101
M  END
> <Batch ID>
0113

> <Smiles>
CNC(C)C(=O)NC(C(=O)N1Cc2cc([101O:1][101C:1](C)(C)CCc3ccc(C(C)N)n3CC[100NH:0][100C:0](=O)N3CCCC(n4nc(-c5ccc(Oc6ccc(F)cc6F)cc5)c(C(N)=O)c4N)C3)ccc2CC1C(=O)NC1CCCc2ccccc21)C(C)(C)C

> <Shape>
0.192

> <Color>
0.183

> <Negative vol penalty>
0.000

$$$$

  -OEChem-04052320053D

 87 95  0     1  0  0  0  0  0999 V2000
  -20.6679  -26.4793   22.7944 C   0  0  0  0  0  0  0  0  0  0  0  0
  -21.8086  -26.3013   22.0182 C   0  0  0  0  0  0  0  0  0  0  0  0
  -23.0607   -9.8732   19.9453 C   0  0  0  0  0  0  0  0  0  0  0  0
  -23.7148   -9.9461   22.2699 C   0  0  0  0  0  0  0  0  0  0  0  0
  -20.7888  -26.8012   24.1456 C   0  0  0  0  0  0  0  0  0  0  0  0
  -23.0709  -26.4461   22.5925 C   0  0  0  0  0  0  0  0  0  0  0  0
  -26.2612  -22.7579   21.2273 C   0  0  0  0  0  0  0  0  0  0  0  0
  -22.3046   -8.7278   20.1940 C   0  0  0  0  0  0  0  0  0  0  0  0
  -22.9587   -8.8007   22.5186 C   0  0  0  0  0  0  0  0  0  0  0  0
  -26.8353  -22.8493   19.9601 C   0  0  0  0  0  0  0  0  0  0  0  0
  -21.4909   -5.6896   23.6920 C   0  0  0  0  0  0  0  0  0  0  0  0
  -22.0699   -4.6867   24.4695 C   0  0  0  0  0  0  0  0  0  0  0  0
  -28.8553  -23.7261   20.9449 C   0  0  0  0  0  0  0  0  0  0  0  0
  -31.2574  -18.9640   18.6914 C   0  0  0  0  0  0  0  0  0  0  0  0
  -23.8498   -4.4599   22.8516 C   0  0  0  0  0  0  0  0  0  0  0  0
  -23.7658  -10.4824   20.9833 C   0  0  0  0  0  0  0  0  0  0  0  0
  -24.1162  -13.0030   20.8066 C   0  0  0  0  0  0  0  0  0  0  0  0
  -22.0533  -26.9406   24.7390 C   0  0  0  0  0  0  0  0  0  0  0  0
  -26.9772  -23.1609   22.3637 C   0  0  0  0  0  0  0  0  0  0  0  0
  -23.2089  -26.7715   23.9526 C   0  0  0  0  0  0  0  0  0  0  0  0
  -28.2890  -23.6364   22.2257 C   0  0  0  0  0  0  0  0  0  0  0  0
  -30.8270  -17.7323   19.1717 C   0  0  0  0  0  0  0  0  0  0  0  0
  -29.8461  -17.6803   20.1558 C   0  0  0  0  0  0  0  0  0  0  0  0
  -22.2536   -8.1915   21.4806 C   0  0  0  0  0  0  0  0  0  0  0  0
  -28.1314  -23.3361   19.8184 C   0  0  0  0  0  0  0  0  0  0  0  0
  -22.0913   -6.0776   22.4941 C   0  0  0  0  0  0  0  0  0  0  0  0
  -23.2493   -4.0719   24.0494 C   0  0  0  0  0  0  0  0  0  0  0  0
  -23.2707   -5.4627   22.0740 C   0  0  0  0  0  0  0  0  0  0  0  0
  -24.5475  -11.6653   20.7269 C   0  0  0  0  0  0  0  0  0  0  0  0
  -30.6799  -20.1055   19.2237 C   0  0  0  0  0  0  0  0  0  0  0  0
  -29.3319  -18.8793   20.6227 C   0  0  0  0  0  0  0  0  0  0  0  0
  -25.2248  -13.7417   20.4723 C   0  0  0  0  0  0  0  0  0  0  0  0
  -22.8286  -13.5307   21.1519 C   0  0  0  0  0  0  0  0  0  0  0  0
  -26.5735  -25.3867   24.5967 C   0  0  0  0  0  0  0  0  0  0  0  0
  -29.1589  -23.9574   25.9363 C   0  0  0  0  0  0  0  0  0  0  0  0
  -31.9596  -22.0534   25.5148 C   0  0  0  0  0  0  0  0  0  0  0  0
  -30.7976  -14.4718   21.3256 C   0  0  0  0  0  0  0  0  0  0  0  0
  -22.1336  -27.3358   26.1923 C   0  0  0  0  0  0  0  0  0  0  0  0
  -26.3535  -23.0309   23.7263 C   0  0  0  0  0  0  0  0  0  0  0  0
  -29.1073  -24.0630   23.4161 C   0  0  0  0  0  0  0  0  0  0  0  0
  -23.5092  -27.1029   26.8118 C   0  0  0  0  0  0  0  0  0  0  0  0
  -29.6651  -12.3465   18.5146 C   0  0  0  0  0  0  0  0  0  0  0  0
  -24.6053  -27.6301   25.8913 C   0  0  0  0  0  0  0  0  0  0  0  0
  -28.2176  -12.0373   18.8929 C   0  0  0  0  0  0  0  0  0  0  0  0
  -30.5322  -12.5949   19.7450 C   0  0  0  0  0  0  0  0  0  0  0  0
  -28.5557  -13.3406   21.0301 C   0  0  0  0  0  0  0  0  0  0  0  0
  -24.5958  -26.8957   24.5451 C   0  0  1  0  0  0  0  0  0  0  0  0
  -26.9875  -23.9521   24.7640 C   0  0  1  0  0  0  0  0  0  0  0  0
  -27.6449  -13.1311   19.8111 C   0  0  2  0  0  0  0  0  0  0  0  0
  -31.4335  -16.4852   18.6185 C   0  0  0  0  0  0  0  0  0  0  0  0
  -28.2750  -18.8876   21.6784 C   0  0  0  0  0  0  0  0  0  0  0  0
  -33.9924  -20.7284   26.1547 C   0  0  0  0  0  0  0  0  0  0  0  0
  -29.7885  -15.6614   23.9952 C   0  0  0  0  0  0  0  0  0  0  0  0
  -31.9625  -16.6371   23.1921 C   0  0  0  0  0  0  0  0  0  0  0  0
  -28.0107  -22.3359   16.5571 C   0  0  0  0  0  0  0  0  0  0  0  0
  -30.4777  -26.7075   26.0235 C   0  0  0  0  0  0  0  0  0  0  0  0
  -32.6749  -25.5652   26.3919 C   0  0  0  0  0  0  0  0  0  0  0  0
  -30.8427  -25.3103   28.0654 C   0  0  0  0  0  0  0  0  0  0  0  0
  -30.3849  -19.5662   25.8207 C   0  0  0  0  0  0  0  0  0  0  0  0
  -29.3630  -16.3733   20.6884 C   0  0  0  0  0  0  0  0  0  0  0  0
  -31.1209  -21.4588   18.7259 C   0  0  0  0  0  0  0  0  0  0  0  0
  -30.3082  -21.9733   17.5289 C   0  0  0  0  0  0  0  0  0  0  0  0
  -30.6541  -24.1387   25.8329 C   0  0  1  0  0  0  0  0  0  0  0  0
  -32.4810  -20.8467   26.2742 C   0  0  2  0  0  0  0  0  0  0  0  0
  -30.4837  -16.4396   22.8851 C   0  0  0  0  0  0  0  0  0  0  0  0
  -28.8259  -22.2165   17.8385 C   0  0  1  0  0  0  0  0  0  1  0  0
  -31.1465  -25.4243   26.5556 C   0  0  0  0  0  0  0  0  0  0  0  0
  -25.8300  -11.5575   20.3699 N   0  0  0  0  0  0  0  0  0  0  0  0
  -29.7249  -20.0948   20.1804 N   0  0  0  0  0  0  0  0  0  0  0  0
  -26.2142  -12.8368   20.2222 N   0  0  0  0  0  0  0  0  0  0  0  0
  -28.4511  -23.9229   24.7265 N   0  0  0  0  0  0  0  0  0  0  0  0
  -29.9430  -13.6076   20.6217 N   0  0  0  0  0  0  0  0  0  0  0  0
  -25.4402  -15.0705   20.3708 N   0  0  0  0  0  0  0  0  0  0  0  0
  -21.8010  -12.6316   21.4684 N   0  0  0  0  0  0  0  0  0  0  0  0
  -25.2092  -25.5916   24.6765 N   0  0  0  0  0  0  0  0  0  0  0  0
  -31.2505  -22.9055   26.3347 N   0  0  0  0  0  0  0  0  0  0  0  0
  -30.3176  -15.7611   21.6016 N   0  0  0  0  0  0  0  0  0  0  0  0
  -31.8682  -19.5962   25.7434 N   0  3  0  0  0  0  0  0  0  0  0  0
  -22.5916  -14.7625   21.1630 O   0  0  0  0  0  0  0  0  0  0  0  0
  -27.4285  -26.2446   24.4105 O   0  0  0  0  0  0  0  0  0  0  0  0
  -28.6391  -23.8431   27.0491 O   0  0  0  0  0  0  0  0  0  0  0  0
  -32.1643  -22.2248   24.3151 O   0  0  0  0  0  0  0  0  0  0  0  0
  -31.9289  -14.1148   21.6785 O   0  0  0  0  0  0  0  0  0  0  0  0
  -21.5157   -7.0739   21.7237 O   0  0  0  0  0  0  0  0  0  0  0  0
  -28.6939  -23.4270   18.5826 O   0  0  0  0  0  0  0  0  0  1  0  0
  -23.8060   -3.1099   24.7970 F   0  0  0  0  0  0  0  0  0  0  0  0
  -23.8528   -5.8320   20.9248 F   0  0  0  0  0  0  0  0  0  0  0  0
  1  2  1  0  0  0  0
  1  5  2  0  0  0  0
  2  6  2  0  0  0  0
  3  8  2  0  0  0  0
  3 16  1  0  0  0  0
  4  9  1  0  0  0  0
  4 16  2  0  0  0  0
  5 18  1  0  0  0  0
  6 20  1  0  0  0  0
  7 10  2  0  0  0  0
  7 19  1  0  0  0  0
  8 24  1  0  0  0  0
  9 24  2  0  0  0  0
 10 25  1  0  0  0  0
 11 12  2  0  0  0  0
 11 26  1  0  0  0  0
 12 27  1  0  0  0  0
 13 21  1  0  0  0  0
 13 25  2  0  0  0  0
 14 22  2  0  0  0  0
 14 30  1  0  0  0  0
 15 27  2  0  0  0  0
 15 28  1  0  0  0  0
 16 29  1  0  0  0  0
 17 29  1  0  0  0  0
 17 32  2  0  0  0  0
 17 33  1  0  0  0  0
 18 20  2  0  0  0  0
 18 38  1  0  0  0  0
 19 21  2  0  0  0  0
 19 39  1  0  0  0  0
 20 47  1  0  0  0  0
 21 40  1  0  0  0  0
 22 23  1  0  0  0  0
 22 50  1  0  0  0  0
 23 31  2  0  0  0  0
 23 60  1  0  0  0  0
 24 84  1  0  0  0  0
 25 85  1  0  0  0  0
 26 28  2  0  0  0  0
 26 84  1  0  0  0  0
 27 86  1  0  0  0  0
 28 87  1  0  0  0  0
 29 68  2  0  0  0  0
 30 61  1  0  0  0  0
 30 69  2  0  0  0  0
 31 51  1  0  0  0  0
 31 69  1  0  0  0  0
 32 70  1  0  0  0  0
 32 73  1  0  0  0  0
 33 74  1  0  0  0  0
 33 79  2  0  0  0  0
 34 48  1  0  0  0  0
 34 75  1  0  0  0  0
 34 80  2  0  0  0  0
 35 63  1  0  0  0  0
 35 71  1  0  0  0  0
 35 81  2  0  0  0  0
 36 64  1  0  0  0  0
 36 76  1  0  0  0  0
 36 82  2  0  0  0  0
 37 72  1  0  0  0  0
 37 77  1  0  0  0  0
 37 83  2  0  0  0  0
 38 41  1  0  0  0  0
 39 48  1  0  0  0  0
 40 71  1  0  0  0  0
 41 43  1  0  0  0  0
 42 44  1  0  0  0  0
 42 45  1  0  0  0  0
 43 47  1  0  0  0  0
 44 49  1  0  0  0  0
 45 72  1  0  0  0  0
 46 49  1  0  0  0  0
 46 72  1  0  0  0  0
 47 75  1  0  0  0  0
 48 71  1  0  0  0  0
 49 70  1  0  0  0  0
 52 64  1  0  0  0  0
 53 65  1  0  0  0  0
 54 65  1  0  0  0  0
 55 66  1  0  0  0  0
 56 67  1  0  0  0  0
 57 67  1  0  0  0  0
 58 67  1  0  0  0  0
 59 78  1  0  0  0  0
 60 77  1  0  0  0  0
 61 62  1  0  0  0  0
 62 66  1  0  0  0  0
 63 67  1  0  0  0  0
 63 76  1  0  0  0  0
 64 78  1  0  0  0  0
 65 77  1  0  0  0  0
 66 85  1  0  0  0  0
 68 70  1  0  0  0  0
M  CHG  1  78   1
M  ISO  4  37 100  66 101  77 100  85 101
M  END
> <Batch ID>
0113

> <Smiles>
CNC(C)C(=O)NC(C(=O)N1Cc2cc([101O:1][101CH:1](C)CCc3cc(C)c(C[100N:0](C(C)C)[100C:0](=O)N4CCCC(n5nc(-c6ccc(Oc7ccc(F)cc7F)cc6)c(C(N)=O)c5N)C4)c(C)n3)ccc2CC1C(=O)NC1CCCc2ccccc21)C(C)(C)C

> <Shape>
0.243

> <Color>
0.219

> <Negative vol penalty>
0.000

$$$$

  -OEChem-04052320053D

 83 91  0     1  0  0  0  0  0999 V2000
  -24.6402  -22.6655   25.1244 C   0  0  0  0  0  0  0  0  0  0  0  0
  -24.0832  -21.6487   24.3553 C   0  0  0  0  0  0  0  0  0  0  0  0
  -26.5628  -28.3751   18.8577 C   0  0  0  0  0  0  0  0  0  0  0  0
  -26.0404  -27.1961   20.9008 C   0  0  0  0  0  0  0  0  0  0  0  0
  -25.8686  -23.2176   24.7637 C   0  0  0  0  0  0  0  0  0  0  0  0
  -24.7540  -21.1841   23.2245 C   0  0  0  0  0  0  0  0  0  0  0  0
  -24.7831  -16.1291   22.9229 C   0  0  0  0  0  0  0  0  0  0  0  0
  -26.0848  -29.5592   19.4188 C   0  0  0  0  0  0  0  0  0  0  0  0
  -25.5625  -28.3803   21.4620 C   0  0  0  0  0  0  0  0  0  0  0  0
  -23.6161  -15.5112   22.4756 C   0  0  0  0  0  0  0  0  0  0  0  0
  -22.7562  -30.2590   21.2998 C   0  0  0  0  0  0  0  0  0  0  0  0
  -21.5460  -30.2062   21.9912 C   0  0  0  0  0  0  0  0  0  0  0  0
  -24.5878  -15.2788   20.2800 C   0  0  0  0  0  0  0  0  0  0  0  0
  -19.6185  -15.2553   17.8315 C   0  0  0  0  0  0  0  0  0  0  0  0
  -22.6588  -30.9649   23.9970 C   0  0  0  0  0  0  0  0  0  0  0  0
  -20.8060  -16.7329   19.0466 C   0  0  0  0  0  0  0  0  0  0  0  0
  -26.5405  -27.1934   19.5987 C   0  0  0  0  0  0  0  0  0  0  0  0
  -28.3506  -25.4750   19.0709 C   0  0  0  0  0  0  0  0  0  0  0  0
  -26.5593  -22.7529   23.6334 C   0  0  0  0  0  0  0  0  0  0  0  0
  -25.8590  -16.3366   22.0477 C   0  0  0  0  0  0  0  0  0  0  0  0
  -25.9922  -21.7314   22.8477 C   0  0  0  0  0  0  0  0  0  0  0  0
  -25.7683  -15.8972   20.7192 C   0  0  0  0  0  0  0  0  0  0  0  0
  -20.1286  -15.5360   19.1231 C   0  0  0  0  0  0  0  0  0  0  0  0
  -25.5847  -29.5619   20.7210 C   0  0  0  0  0  0  0  0  0  0  0  0
  -23.5172  -15.0885   21.1533 C   0  0  0  0  0  0  0  0  0  0  0  0
  -23.9178  -30.6646   21.9570 C   0  0  0  0  0  0  0  0  0  0  0  0
  -21.4973  -30.5592   23.3398 C   0  0  0  0  0  0  0  0  0  0  0  0
  -23.8691  -31.0176   23.3055 C   0  0  0  0  0  0  0  0  0  0  0  0
  -27.0336  -25.9697   19.0194 C   0  0  0  0  0  0  0  0  0  0  0  0
  -19.9998  -16.2892   17.0050 C   0  0  0  0  0  0  0  0  0  0  0  0
  -28.3001  -24.2914   18.3759 C   0  0  0  0  0  0  0  0  0  0  0  0
  -29.5153  -26.0353   19.6915 C   0  0  0  0  0  0  0  0  0  0  0  0
  -27.3816  -18.8939   20.9317 C   0  0  0  0  0  0  0  0  0  0  0  0
  -29.3525  -16.6701   19.6307 C   0  0  0  0  0  0  0  0  0  0  0  0
  -29.7826  -13.4675   18.5330 C   0  0  0  0  0  0  0  0  0  0  0  0
  -23.8796  -20.5126   17.3589 C   0  0  0  0  0  0  0  0  0  0  0  0
  -27.8619  -23.4131   23.2564 C   0  0  0  0  0  0  0  0  0  0  0  0
  -27.1210  -16.9806   22.5526 C   0  0  0  0  0  0  0  0  0  0  0  0
  -26.9026  -16.0782   19.7450 C   0  0  0  0  0  0  0  0  0  0  0  0
  -28.6864  -22.6068   22.2562 C   0  0  0  0  0  0  0  0  0  0  0  0
  -25.9140  -22.1252   14.8374 C   0  0  0  0  0  0  0  0  0  0  0  0
  -27.8055  -22.1142   21.1125 C   0  0  0  0  0  0  0  0  0  0  0  0
  -26.5588  -23.2544   15.6432 C   0  0  0  0  0  0  0  0  0  0  0  0
  -24.4711  -21.8889   15.2736 C   0  0  0  0  0  0  0  0  0  0  0  0
  -24.9481  -22.7418   17.5360 C   0  0  0  0  0  0  0  0  0  0  0  0
  -26.7011  -21.1837   21.6280 C   0  0  1  0  0  0  0  0  0  0  0  0
  -27.9597  -17.6040   21.4411 C   0  0  1  0  0  0  0  0  0  0  0  0
  -26.4153  -23.0145   17.1578 C   0  0  2  0  0  0  0  0  0  0  0  0
  -19.7363  -16.4994   15.5664 C   0  0  0  0  0  0  0  0  0  0  0  0
  -31.4914  -11.9564   17.4870 C   0  0  0  0  0  0  0  0  0  0  0  0
  -19.8360  -13.1522   20.0773 C   0  0  0  0  0  0  0  0  0  0  0  0
  -18.6611  -15.0821   21.1130 C   0  0  0  0  0  0  0  0  0  0  0  0
  -28.8981  -18.0261   16.9354 C   0  0  0  0  0  0  0  0  0  0  0  0
  -29.8162  -15.9768   15.8282 C   0  0  0  0  0  0  0  0  0  0  0  0
  -31.2580  -17.3160   17.3613 C   0  0  0  0  0  0  0  0  0  0  0  0
  -29.7379  -11.6230   20.8471 C   0  0  0  0  0  0  0  0  0  0  0  0
  -21.3098  -18.4119   17.2726 C   0  0  0  0  0  0  0  0  0  0  0  0
  -22.8116  -18.2979   17.0245 C   0  0  0  0  0  0  0  0  0  0  0  0
  -21.1568  -14.8686   21.3433 C   0  0  0  0  0  0  0  0  0  1  0  0
  -29.3930  -15.9089   18.3277 C   0  0  1  0  0  0  0  0  0  0  0  0
  -30.8836  -12.4542   18.7891 C   0  0  2  0  0  0  0  0  0  0  0  0
  -19.9577  -14.6647   20.3816 C   0  0  0  0  0  0  0  0  0  0  0  0
  -29.8190  -16.8051   17.1307 C   0  0  0  0  0  0  0  0  0  0  0  0
  -26.2069  -25.1662   18.3449 N   0  0  0  0  0  0  0  0  0  0  0  0
  -20.7214  -17.1814   17.7543 N   0  0  0  0  0  0  0  0  0  0  0  0
  -27.0065  -24.1546   17.9661 N   0  0  0  0  0  0  0  0  0  0  0  0
  -28.1133  -16.7188   20.2848 N   0  0  0  0  0  0  0  0  0  0  0  0
  -24.4061  -21.6486   16.7221 N   0  0  0  0  0  0  0  0  0  0  0  0
  -29.2366  -23.3648   18.0815 N   0  0  0  0  0  0  0  0  0  0  0  0
  -29.3908  -27.2583   20.3646 N   0  0  0  0  0  0  0  0  0  0  0  0
  -27.2362  -19.8672   21.9018 N   0  0  0  0  0  0  0  0  0  0  0  0
  -30.2631  -14.7598   18.5531 N   0  0  0  0  0  0  0  0  0  0  0  0
  -23.3801  -19.5267   16.5167 N   0  0  0  0  0  0  0  0  0  0  0  0
  -30.3452  -11.2817   19.5350 N   0  3  0  0  0  0  0  0  0  0  0  0
  -30.6369  -25.4762   19.6364 O   0  0  0  0  0  0  0  0  0  0  0  0
  -27.0905  -18.9990   19.7460 O   0  0  0  0  0  0  0  0  0  0  0  0
  -30.3840  -17.1959   20.0562 O   0  0  0  0  0  0  0  0  0  0  0  0
  -28.6140  -13.1447   18.3313 O   0  0  0  0  0  0  0  0  0  0  0  0
  -23.8607  -20.3837   18.5877 O   0  0  0  0  0  0  0  0  0  0  0  0
  -25.1185  -30.7172   21.2689 O   0  0  0  0  0  0  0  0  0  0  0  0
  -22.3790  -14.4857   20.7140 O   0  0  0  0  0  0  0  0  0  1  0  0
  -20.3347  -30.5100   24.0033 F   0  0  0  0  0  0  0  0  0  0  0  0
  -24.9815  -31.4092   23.9419 F   0  0  0  0  0  0  0  0  0  0  0  0
  1  2  1  0  0  0  0
  1  5  2  0  0  0  0
  2  6  2  0  0  0  0
  3  8  2  0  0  0  0
  3 17  1  0  0  0  0
  4  9  1  0  0  0  0
  4 17  2  0  0  0  0
  5 19  1  0  0  0  0
  6 21  1  0  0  0  0
  7 10  2  0  0  0  0
  7 20  1  0  0  0  0
  8 24  1  0  0  0  0
  9 24  2  0  0  0  0
 10 25  1  0  0  0  0
 11 12  2  0  0  0  0
 11 26  1  0  0  0  0
 12 27  1  0  0  0  0
 13 22  1  0  0  0  0
 13 25  2  0  0  0  0
 14 23  1  0  0  0  0
 14 30  2  0  0  0  0
 15 27  2  0  0  0  0
 15 28  1  0  0  0  0
 16 23  2  0  0  0  0
 16 65  1  0  0  0  0
 17 29  1  0  0  0  0
 18 29  1  0  0  0  0
 18 31  2  0  0  0  0
 18 32  1  0  0  0  0
 19 21  2  0  0  0  0
 19 37  1  0  0  0  0
 20 22  2  0  0  0  0
 20 38  1  0  0  0  0
 21 46  1  0  0  0  0
 22 39  1  0  0  0  0
 23 62  1  0  0  0  0
 24 80  1  0  0  0  0
 25 81  1  0  0  0  0
 26 28  2  0  0  0  0
 26 80  1  0  0  0  0
 27 82  1  0  0  0  0
 28 83  1  0  0  0  0
 29 64  2  0  0  0  0
 30 49  1  0  0  0  0
 30 65  1  0  0  0  0
 31 66  1  0  0  0  0
 31 69  1  0  0  0  0
 32 70  1  0  0  0  0
 32 75  2  0  0  0  0
 33 47  1  0  0  0  0
 33 71  1  0  0  0  0
 33 76  2  0  0  0  0
 34 60  1  0  0  0  0
 34 67  1  0  0  0  0
 34 77  2  0  0  0  0
 35 61  1  0  0  0  0
 35 72  1  0  0  0  0
 35 78  2  0  0  0  0
 36 68  1  0  0  0  0
 36 73  1  0  0  0  0
 36 79  2  0  0  0  0
 37 40  1  0  0  0  0
 38 47  1  0  0  0  0
 39 67  1  0  0  0  0
 40 42  1  0  0  0  0
 41 43  1  0  0  0  0
 41 44  1  0  0  0  0
 42 46  1  0  0  0  0
 43 48  1  0  0  0  0
 44 68  1  0  0  0  0
 45 48  1  0  0  0  0
 45 68  1  0  0  0  0
 46 71  1  0  0  0  0
 47 67  1  0  0  0  0
 48 66  1  0  0  0  0
 50 61  1  0  0  0  0
 51 62  1  0  0  0  0
 52 62  1  0  0  0  0
 53 63  1  0  0  0  0
 54 63  1  0  0  0  0
 55 63  1  0  0  0  0
 56 74  1  0  0  0  0
 57 58  1  0  0  0  0
 57 65  1  0  0  0  0
 58 73  1  0  0  0  0
 59 62  1  0  0  0  0
 59 81  1  0  0  0  0
 60 63  1  0  0  0  0
 60 72  1  0  0  0  0
 61 74  1  0  0  0  0
 64 66  1  0  0  0  0
M  CHG  1  74   1
M  ISO  4  36 100  59 101  73 100  81 101
M  END
> <Batch ID>
0113

> <Smiles>
CNC(C)C(=O)NC(C(=O)N1Cc2cc([101O:1][101CH2:1]C(C)(C)c3cc(C)n(CC[100NH:0][100C:0](=O)N4CCCC(n5nc(-c6ccc(Oc7ccc(F)cc7F)cc6)c(C(N)=O)c5N)C4)c3)ccc2CC1C(=O)NC1CCCc2ccccc21)C(C)(C)C

> <Shape>
0.190

> <Color>
0.081

> <Negative vol penalty>
0.000

$$$$

  -OEChem-04052320053D

 88 96  0     1  0  0  0  0  0999 V2000
  -30.1635  -35.0105   21.4861 C   0  0  0  0  0  0  0  0  0  0  0  0
  -30.4678  -33.6768   21.2331 C   0  0  0  0  0  0  0  0  0  0  0  0
  -23.0413  -10.9647   22.4450 C   0  0  0  0  0  0  0  0  0  0  0  0
  -24.4835   -9.1496   21.7649 C   0  0  0  0  0  0  0  0  0  0  0  0
  -28.9970  -35.3395   22.1752 C   0  0  0  0  0  0  0  0  0  0  0  0
  -29.6063  -32.6712   21.6701 C   0  0  0  0  0  0  0  0  0  0  0  0
  -28.4048  -27.3698   18.8493 C   0  0  0  0  0  0  0  0  0  0  0  0
  -22.4343  -10.1306   23.3838 C   0  0  0  0  0  0  0  0  0  0  0  0
  -23.8765   -8.3155   22.7038 C   0  0  0  0  0  0  0  0  0  0  0  0
  -28.8945  -26.0774   19.0331 C   0  0  0  0  0  0  0  0  0  0  0  0
  -21.0146   -6.5357   22.9736 C   0  0  0  0  0  0  0  0  0  0  0  0
  -20.6637   -5.2487   22.5662 C   0  0  0  0  0  0  0  0  0  0  0  0
  -26.9913  -25.5603   20.4223 C   0  0  0  0  0  0  0  0  0  0  0  0
  -22.1097   -4.3173   24.2629 C   0  0  0  0  0  0  0  0  0  0  0  0
  -24.0659  -10.4741   21.6355 C   0  0  0  0  0  0  0  0  0  0  0  0
  -24.0730  -11.9929   19.5858 C   0  0  0  0  0  0  0  0  0  0  0  0
  -28.1158  -34.3380   22.6124 C   0  0  0  0  0  0  0  0  0  0  0  0
  -27.2082  -27.7712   19.4605 C   0  0  0  0  0  0  0  0  0  0  0  0
  -28.4275  -32.9871   22.3669 C   0  0  0  0  0  0  0  0  0  0  0  0
  -26.4873  -26.8575   20.2426 C   0  0  0  0  0  0  0  0  0  0  0  0
  -22.8519   -8.8061   23.5133 C   0  0  0  0  0  0  0  0  0  0  0  0
  -28.1892  -25.1734   19.8221 C   0  0  0  0  0  0  0  0  0  0  0  0
  -21.9132   -6.7136   24.0257 C   0  0  0  0  0  0  0  0  0  0  0  0
  -21.2112   -4.1395   23.2108 C   0  0  0  0  0  0  0  0  0  0  0  0
  -22.4607   -5.6044   24.6703 C   0  0  0  0  0  0  0  0  0  0  0  0
  -24.6930  -11.3351   20.6651 C   0  0  0  0  0  0  0  0  0  0  0  0
  -25.0916  -12.6795   18.9714 C   0  0  0  0  0  0  0  0  0  0  0  0
  -22.6993  -11.9841   19.1755 C   0  0  0  0  0  0  0  0  0  0  0  0
  -26.4141  -29.9858   21.5980 C   0  0  0  0  0  0  0  0  0  0  0  0
  -23.3977  -29.0111   20.9098 C   0  0  0  0  0  0  0  0  0  0  0  0
  -21.3436  -26.5451   19.7496 C   0  0  0  0  0  0  0  0  0  0  0  0
  -30.2150  -14.7801   21.0194 C   0  0  0  0  0  0  0  0  0  0  0  0
  -26.8907  -34.7399   23.3948 C   0  0  0  0  0  0  0  0  0  0  0  0
  -26.6797  -29.1605   19.2306 C   0  0  0  0  0  0  0  0  0  0  0  0
  -25.1872  -27.2326   20.9042 C   0  0  0  0  0  0  0  0  0  0  0  0
  -25.8428  -33.6345   23.4959 C   0  0  0  0  0  0  0  0  0  0  0  0
  -29.8176  -12.5016   18.2358 C   0  0  0  0  0  0  0  0  0  0  0  0
  -26.4987  -32.3099   23.8725 C   0  0  0  0  0  0  0  0  0  0  0  0
  -29.1266  -21.1777   19.2122 C   0  0  0  0  0  0  0  0  0  0  0  0
  -31.5856  -21.7358   19.0765 C   0  0  0  0  0  0  0  0  0  0  0  0
  -29.4737  -19.7154   19.4859 C   0  0  0  0  0  0  0  0  0  0  0  0
  -31.9326  -20.2735   19.3501 C   0  0  0  0  0  0  0  0  0  0  0  0
  -28.3857  -12.0074   18.4494 C   0  0  0  0  0  0  0  0  0  0  0  0
  -30.5418  -12.6890   19.5657 C   0  0  0  0  0  0  0  0  0  0  0  0
  -28.4142  -13.1003   20.7395 C   0  0  0  0  0  0  0  0  0  0  0  0
  -27.5056  -31.8691   22.8032 C   0  0  1  0  0  0  0  0  0  0  0  0
  -25.7149  -29.6205   20.3192 C   0  0  1  0  0  0  0  0  0  0  0  0
  -30.2352  -22.1228   19.6924 C   0  0  0  0  0  0  0  0  0  0  0  0
  -30.8240  -19.3284   18.8698 C   0  0  0  0  0  0  0  0  0  0  0  0
  -27.6213  -12.9128   19.4333 C   0  0  2  0  0  0  0  0  0  0  0  0
  -30.0345  -17.0392   17.0192 C   0  0  0  0  0  0  0  0  0  0  0  0
  -18.9222  -26.0280   19.3413 C   0  0  0  0  0  0  0  0  0  0  0  0
  -34.5294  -15.3881   21.0947 C   0  0  0  0  0  0  0  0  0  0  0  0
  -22.9862  -28.5862   23.9031 C   0  0  0  0  0  0  0  0  0  0  0  0
  -20.9668  -27.2097   23.3593 C   0  0  0  0  0  0  0  0  0  0  0  0
  -21.0408  -29.6195   22.7190 C   0  0  0  0  0  0  0  0  0  0  0  0
  -32.1239  -16.3094   22.7468 C   0  0  0  0  0  0  0  0  0  0  0  0
  -21.7912  -26.1803   16.8469 C   0  0  0  0  0  0  0  0  0  0  0  0
  -35.5653  -18.0046   20.5953 C   0  0  0  0  0  0  0  0  0  0  0  0
  -29.8878  -23.5733   19.3629 C   0  0  0  0  0  0  0  0  0  1  0  0
  -30.1707  -16.9057   18.5300 C   0  0  0  0  0  0  0  0  0  0  0  0
  -31.2790  -17.6057   20.7214 C   0  0  0  0  0  0  0  0  0  0  0  0
  -22.4646  -27.9566   21.4541 C   0  0  1  0  0  0  0  0  0  0  0  0
  -20.2098  -26.5703   18.7406 C   0  0  2  0  0  0  0  0  0  0  0  0
  -31.1714  -17.8778   19.1992 C   0  0  2  0  0  0  0  0  0  0  0  0
  -33.5726  -16.5003   20.6615 C   0  0  1  0  0  0  0  0  0  0  0  0
  -21.8900  -28.3362   22.8481 C   0  0  0  0  0  0  0  0  0  0  0  0
  -32.1087  -16.3726   21.2062 C   0  0  1  0  0  0  0  0  0  0  0  0
  -26.0039  -11.5815   20.7349 N   0  0  0  0  0  0  0  0  0  0  0  0
  -26.2160  -12.4018   19.6917 N   0  0  0  0  0  0  0  0  0  0  0  0
  -24.7150  -28.6046   20.6544 N   0  0  0  0  0  0  0  0  0  0  0  0
  -29.7710  -13.5756   20.4488 N   0  0  0  0  0  0  0  0  0  0  0  0
  -25.1262  -13.4877   17.8906 N   0  0  0  0  0  0  0  0  0  0  0  0
  -22.2807  -11.0059   18.2632 N   0  0  0  0  0  0  0  0  0  0  0  0
  -26.8166  -31.3062   21.6618 N   0  0  0  0  0  0  0  0  0  0  0  0
  -21.4499  -27.7406   20.4283 N   0  0  0  0  0  0  0  0  0  0  0  0
  -31.5140  -15.1556   20.6998 N   0  0  0  0  0  0  0  0  0  0  0  0
  -20.5574  -25.7440   17.5500 N   0  3  0  0  0  0  0  0  0  0  0  0
  -34.1875  -17.7934   21.1003 N   0  3  0  0  0  0  0  0  0  0  0  0
  -21.8713  -12.8291   19.5925 O   0  0  0  0  0  0  0  0  0  0  0  0
  -26.5752  -29.1332   22.4634 O   0  0  0  0  0  0  0  0  0  0  0  0
  -22.9716  -30.1516   20.7116 O   0  0  0  0  0  0  0  0  0  0  0  0
  -22.0607  -25.5618   19.9214 O   0  0  0  0  0  0  0  0  0  0  0  0
  -29.5040  -15.4729   21.7554 O   0  0  0  0  0  0  0  0  0  0  0  0
  -22.2599   -7.9920   24.4295 O   0  0  0  0  0  0  0  0  0  0  0  0
  -28.6697  -23.8999   20.0053 O   0  0  0  0  0  0  0  0  0  1  0  0
  -20.8730   -2.9036   22.8205 F   0  0  0  0  0  0  0  0  0  0  0  0
  -23.3235   -5.7690   25.6824 F   0  0  0  0  0  0  0  0  0  0  0  0
  1  2  1  0  0  0  0
  1  5  2  0  0  0  0
  2  6  2  0  0  0  0
  3  8  2  0  0  0  0
  3 15  1  0  0  0  0
  4  9  1  0  0  0  0
  4 15  2  0  0  0  0
  5 17  1  0  0  0  0
  6 19  1  0  0  0  0
  7 10  2  0  0  0  0
  7 18  1  0  0  0  0
  8 21  1  0  0  0  0
  9 21  2  0  0  0  0
 10 22  1  0  0  0  0
 11 12  2  0  0  0  0
 11 23  1  0  0  0  0
 12 24  1  0  0  0  0
 13 20  1  0  0  0  0
 13 22  2  0  0  0  0
 14 24  2  0  0  0  0
 14 25  1  0  0  0  0
 15 26  1  0  0  0  0
 16 26  1  0  0  0  0
 16 27  2  0  0  0  0
 16 28  1  0  0  0  0
 17 19  2  0  0  0  0
 17 33  1  0  0  0  0
 18 20  2  0  0  0  0
 18 34  1  0  0  0  0
 19 46  1  0  0  0  0
 20 35  1  0  0  0  0
 21 85  1  0  0  0  0
 22 86  1  0  0  0  0
 23 25  2  0  0  0  0
 23 85  1  0  0  0  0
 24 87  1  0  0  0  0
 25 88  1  0  0  0  0
 26 69  2  0  0  0  0
 27 70  1  0  0  0  0
 27 73  1  0  0  0  0
 28 74  1  0  0  0  0
 28 80  2  0  0  0  0
 29 47  1  0  0  0  0
 29 75  1  0  0  0  0
 29 81  2  0  0  0  0
 30 63  1  0  0  0  0
 30 71  1  0  0  0  0
 30 82  2  0  0  0  0
 31 64  1  0  0  0  0
 31 76  1  0  0  0  0
 31 83  2  0  0  0  0
 32 72  1  0  0  0  0
 32 77  1  0  0  0  0
 32 84  2  0  0  0  0
 33 36  1  0  0  0  0
 34 47  1  0  0  0  0
 35 71  1  0  0  0  0
 36 38  1  0  0  0  0
 37 43  1  0  0  0  0
 37 44  1  0  0  0  0
 38 46  1  0  0  0  0
 39 41  1  0  0  0  0
 39 48  1  0  0  0  0
 40 42  1  0  0  0  0
 40 48  1  0  0  0  0
 41 49  1  0  0  0  0
 42 49  1  0  0  0  0
 43 50  1  0  0  0  0
 44 72  1  0  0  0  0
 45 50  1  0  0  0  0
 45 72  1  0  0  0  0
 46 75  1  0  0  0  0
 47 71  1  0  0  0  0
 48 60  1  0  0  0  0
 49 65  1  0  0  0  0
 50 70  1  0  0  0  0
 51 61  1  0  0  0  0
 52 64  1  0  0  0  0
 53 66  1  0  0  0  0
 54 67  1  0  0  0  0
 55 67  1  0  0  0  0
 56 67  1  0  0  0  0
 57 68  1  0  0  0  0
 58 78  1  0  0  0  0
 59 79  1  0  0  0  0
 60 86  1  0  0  0  0
 61 65  1  0  0  0  0
 62 65  1  0  0  0  0
 62 68  1  0  0  0  0
 63 67  1  0  0  0  0
 63 76  1  0  0  0  0
 64 78  1  0  0  0  0
 66 68  1  0  0  0  0
 66 79  1  0  0  0  0
 68 77  1  0  0  0  0
 69 70  1  0  0  0  0
M  CHG  2  78   1  79   1
M  ISO  4  32 100  60 101  77 100  86 101
M  END
> <Batch ID>
0113

> <Smiles>
CCC(CC(C)([100NH:0][100C:0](=O)N1CCCC(n2nc(-c3ccc(Oc4ccc(F)cc4F)cc3)c(C(N)=O)c2N)C1)C(C)NC)C1CCC([101CH2:1][101O:1]c2ccc3c(c2)CN(C(=O)C(NC(=O)C(C)NC)C(C)(C)C)C(C(=O)NC2CCCc4ccccc42)C3)CC1

> <Shape>
0.317

> <Color>
0.086

> <Negative vol penalty>
0.000

$$$$

  -OEChem-04052320053D

 85 93  0     1  0  0  0  0  0999 V2000
  -22.3627   -8.3945   21.0003 C   0  0  0  0  0  0  0  0  0  0  0  0
  -21.5496   -9.3982   21.5169 C   0  0  0  0  0  0  0  0  0  0  0  0
  -28.2134  -27.6631   18.6438 C   0  0  0  0  0  0  0  0  0  0  0  0
  -29.3354  -28.4477   20.6344 C   0  0  0  0  0  0  0  0  0  0  0  0
  -23.7139   -8.6455   20.7651 C   0  0  0  0  0  0  0  0  0  0  0  0
  -22.0875  -10.6532   21.7998 C   0  0  0  0  0  0  0  0  0  0  0  0
  -20.3344  -17.5988   21.8385 C   0  0  0  0  0  0  0  0  0  0  0  0
  -29.1815  -26.6710   18.4892 C   0  0  0  0  0  0  0  0  0  0  0  0
  -30.3035  -27.4555   20.4798 C   0  0  0  0  0  0  0  0  0  0  0  0
  -20.3552  -18.7102   22.6800 C   0  0  0  0  0  0  0  0  0  0  0  0
  -29.8853  -23.6470   19.8282 C   0  0  0  0  0  0  0  0  0  0  0  0
  -29.4492  -22.3574   19.5242 C   0  0  0  0  0  0  0  0  0  0  0  0
  -22.6854  -19.0535   22.1591 C   0  0  0  0  0  0  0  0  0  0  0  0
  -30.7198  -22.4119   17.4701 C   0  0  0  0  0  0  0  0  0  0  0  0
  -28.2903  -28.5515   19.7164 C   0  0  0  0  0  0  0  0  0  0  0  0
  -26.9754  -30.6056   18.9685 C   0  0  0  0  0  0  0  0  0  0  0  0
  -24.2665   -9.9072   21.0363 C   0  0  0  0  0  0  0  0  0  0  0  0
  -21.4938  -17.1993   21.1583 C   0  0  0  0  0  0  0  0  0  0  0  0
  -23.4477  -10.9209   21.5694 C   0  0  0  0  0  0  0  0  0  0  0  0
  -22.6761  -17.9382   21.3076 C   0  0  0  0  0  0  0  0  0  0  0  0
  -30.2266  -26.5672   19.4071 C   0  0  0  0  0  0  0  0  0  0  0  0
  -21.5315  -19.4360   22.8427 C   0  0  0  0  0  0  0  0  0  0  0  0
  -30.7386  -24.3191   18.9531 C   0  0  0  0  0  0  0  0  0  0  0  0
  -29.8664  -21.7399   18.3452 C   0  0  0  0  0  0  0  0  0  0  0  0
  -31.1559  -23.7015   17.7740 C   0  0  0  0  0  0  0  0  0  0  0  0
  -27.2909  -29.5770   19.8764 C   0  0  0  0  0  0  0  0  0  0  0  0
  -25.9668  -31.3076   19.5820 C   0  0  0  0  0  0  0  0  0  0  0  0
  -27.5432  -30.9001   17.6854 C   0  0  0  0  0  0  0  0  0  0  0  0
  -20.9964  -26.1057   23.2182 C   0  0  0  0  0  0  0  0  0  0  0  0
  -23.3103  -14.5908   21.1622 C   0  0  0  0  0  0  0  0  0  0  0  0
  -24.8101  -16.1048   18.7167 C   0  0  0  0  0  0  0  0  0  0  0  0
  -25.5610  -19.0444   17.1541 C   0  0  0  0  0  0  0  0  0  0  0  0
  -21.8873  -29.8211   23.7050 C   0  0  0  0  0  0  0  0  0  0  0  0
  -25.7428  -10.1169   20.8101 C   0  0  0  0  0  0  0  0  0  0  0  0
  -21.4480  -16.0139   20.2335 C   0  0  0  0  0  0  0  0  0  0  0  0
  -23.9426  -17.5627   20.5841 C   0  0  0  0  0  0  0  0  0  0  0  0
  -26.1524  -11.5872   20.7852 C   0  0  0  0  0  0  0  0  0  0  0  0
  -18.1219  -26.3464   21.9758 C   0  0  0  0  0  0  0  0  0  0  0  0
  -18.2470  -27.6332   21.1684 C   0  0  0  0  0  0  0  0  0  0  0  0
  -24.2923  -32.4378   23.9190 C   0  0  0  0  0  0  0  0  0  0  0  0
  -25.5194  -12.3375   21.9527 C   0  0  0  0  0  0  0  0  0  0  0  0
  -18.5666  -26.5407   23.4248 C   0  0  0  0  0  0  0  0  0  0  0  0
  -25.3051  -32.0941   22.8253 C   0  0  0  0  0  0  0  0  0  0  0  0
  -19.6607  -28.2047   21.2328 C   0  0  0  0  0  0  0  0  0  0  0  0
  -23.7518  -31.1834   24.6020 C   0  0  0  0  0  0  0  0  0  0  0  0
  -24.2022  -29.8295   22.5925 C   0  0  0  0  0  0  0  0  0  0  0  0
  -23.9888  -12.3027   21.8659 C   0  0  1  0  0  0  0  0  0  0  0  0
  -19.9668  -27.1524   23.5441 C   0  0  2  0  0  0  0  0  0  0  0  0
  -22.8199  -15.3927   19.9900 C   0  0  1  0  0  0  0  0  0  0  0  0
  -24.7337  -31.0596   21.8371 C   0  0  2  0  0  0  0  0  0  0  0  0
  -20.1163  -28.4160   22.6812 C   0  0  1  0  0  0  0  0  0  0  0  0
  -26.8372  -19.9667   15.2002 C   0  0  0  0  0  0  0  0  0  0  0  0
  -19.2352  -22.4479   25.9163 C   0  0  0  0  0  0  0  0  0  0  0  0
  -27.4239  -15.7099   20.2406 C   0  0  0  0  0  0  0  0  0  0  0  0
  -28.4686  -17.4348   18.7568 C   0  0  0  0  0  0  0  0  0  0  0  0
  -27.5841  -15.3187   17.7757 C   0  0  0  0  0  0  0  0  0  0  0  0
  -23.1079  -20.1588   15.9294 C   0  0  0  0  0  0  0  0  0  0  0  0
  -21.9626  -25.6669   24.2955 C   0  0  0  0  0  0  0  0  0  0  0  0
  -21.4005  -24.5364   25.1568 C   0  0  0  0  0  0  0  0  0  0  0  0
  -21.0531  -23.2885   24.3353 C   0  0  0  0  0  0  0  0  0  0  0  0
  -20.3377  -20.8590   24.3279 C   0  0  0  0  0  0  0  0  0  1  0  0
  -25.9632  -17.0728   18.6051 C   0  0  1  0  0  0  0  0  0  0  0  0
  -25.4930  -19.4552   15.6943 C   0  0  2  0  0  0  0  0  0  0  0  0
  -20.5403  -22.1112   25.1930 C   0  0  2  0  0  0  0  0  0  0  0  0
  -27.3368  -16.3902   18.8598 C   0  0  0  0  0  0  0  0  0  0  0  0
  -26.5434  -29.6183   20.9825 N   0  0  0  0  0  0  0  0  0  0  0  0
  -21.0433  -25.5470   22.0526 N   0  0  0  0  0  0  0  0  0  0  0  0
  -25.7482  -30.6815   20.7738 N   0  0  0  0  0  0  0  0  0  0  0  0
  -23.8488  -16.3922   19.6960 N   0  0  0  0  0  0  0  0  0  0  0  0
  -23.2234  -30.2442   23.6097 N   0  0  0  0  0  0  0  0  0  0  0  0
  -25.2545  -32.3934   19.2129 N   0  0  0  0  0  0  0  0  0  0  0  0
  -28.5713  -30.0776   17.2050 N   0  0  0  0  0  0  0  0  0  0  0  0
  -23.5166  -13.2535   20.8822 N   0  0  0  0  0  0  0  0  0  0  0  0
  -25.8426  -17.7019   17.2943 N   0  0  0  0  0  0  0  0  0  0  0  0
  -21.4651  -28.9357   22.7209 N   0  0  0  0  0  0  0  0  0  0  0  0
  -24.4818  -20.5336   15.5062 N   0  3  0  0  0  0  0  0  0  0  0  0
  -27.1617  -31.8739   16.9927 O   0  0  0  0  0  0  0  0  0  0  0  0
  -23.4897  -15.1447   22.2405 O   0  0  0  0  0  0  0  0  0  0  0  0
  -24.7604  -15.1334   17.9580 O   0  0  0  0  0  0  0  0  0  0  0  0
  -25.3858  -19.8361   18.0777 O   0  0  0  0  0  0  0  0  0  0  0  0
  -21.1256  -30.2082   24.5977 O   0  0  0  0  0  0  0  0  0  0  0  0
  -31.1714  -25.5990   19.2567 O   0  0  0  0  0  0  0  0  0  0  0  0
  -21.5547  -20.5209   23.6639 O   0  0  0  0  0  0  0  0  0  1  0  0
  -29.4488  -20.5009   18.0541 F   0  0  0  0  0  0  0  0  0  0  0  0
  -31.9766  -24.3417   16.9300 F   0  0  0  0  0  0  0  0  0  0  0  0
  1  2  1  0  0  0  0
  1  5  2  0  0  0  0
  2  6  2  0  0  0  0
  3  8  2  0  0  0  0
  3 15  1  0  0  0  0
  4  9  1  0  0  0  0
  4 15  2  0  0  0  0
  5 17  1  0  0  0  0
  6 19  1  0  0  0  0
  7 10  2  0  0  0  0
  7 18  1  0  0  0  0
  8 21  1  0  0  0  0
  9 21  2  0  0  0  0
 10 22  1  0  0  0  0
 11 12  2  0  0  0  0
 11 23  1  0  0  0  0
 12 24  1  0  0  0  0
 13 20  1  0  0  0  0
 13 22  2  0  0  0  0
 14 24  2  0  0  0  0
 14 25  1  0  0  0  0
 15 26  1  0  0  0  0
 16 26  1  0  0  0  0
 16 27  2  0  0  0  0
 16 28  1  0  0  0  0
 17 19  2  0  0  0  0
 17 34  1  0  0  0  0
 18 20  2  0  0  0  0
 18 35  1  0  0  0  0
 19 47  1  0  0  0  0
 20 36  1  0  0  0  0
 21 82  1  0  0  0  0
 22 83  1  0  0  0  0
 23 25  2  0  0  0  0
 23 82  1  0  0  0  0
 24 84  1  0  0  0  0
 25 85  1  0  0  0  0
 26 66  2  0  0  0  0
 27 68  1  0  0  0  0
 27 71  1  0  0  0  0
 28 72  1  0  0  0  0
 28 77  2  0  0  0  0
 29 48  1  0  0  0  0
 29 58  1  0  0  0  0
 29 67  2  0  0  0  0
 30 49  1  0  0  0  0
 30 73  1  0  0  0  0
 30 78  2  0  0  0  0
 31 62  1  0  0  0  0
 31 69  1  0  0  0  0
 31 79  2  0  0  0  0
 32 63  1  0  0  0  0
 32 74  1  0  0  0  0
 32 80  2  0  0  0  0
 33 70  1  0  0  0  0
 33 75  1  0  0  0  0
 33 81  2  0  0  0  0
 34 37  1  0  0  0  0
 35 49  1  0  0  0  0
 36 69  1  0  0  0  0
 37 41  1  0  0  0  0
 38 39  1  0  0  0  0
 38 42  1  0  0  0  0
 39 44  1  0  0  0  0
 40 43  1  0  0  0  0
 40 45  1  0  0  0  0
 41 47  1  0  0  0  0
 42 48  1  0  0  0  0
 43 50  1  0  0  0  0
 44 51  1  0  0  0  0
 45 70  1  0  0  0  0
 46 50  1  0  0  0  0
 46 70  1  0  0  0  0
 47 73  1  0  0  0  0
 48 51  1  0  0  0  0
 49 69  1  0  0  0  0
 50 68  1  0  0  0  0
 51 75  1  0  0  0  0
 52 63  1  0  0  0  0
 53 64  1  0  0  0  0
 54 65  1  0  0  0  0
 55 65  1  0  0  0  0
 56 65  1  0  0  0  0
 57 76  1  0  0  0  0
 58 59  1  0  0  0  0
 59 60  1  0  0  0  0
 60 64  1  0  0  0  0
 61 64  1  0  0  0  0
 61 83  1  0  0  0  0
 62 65  1  0  0  0  0
 62 74  1  0  0  0  0
 63 76  1  0  0  0  0
 66 68  1  0  0  0  0
M  CHG  1  76   1
M  ISO  4  33 100  61 101  75 100  83 101
M  END
> <Batch ID>
0113

> <Smiles>
CNC(C)C(=O)NC(C(=O)N1Cc2cc([101O:1][101CH2:1]C(C)CCCC(N)=C3CCCCC3[100NH:0][100C:0](=O)N3CCCC(n4nc(-c5ccc(Oc6ccc(F)cc6F)cc5)c(C(N)=O)c4N)C3)ccc2CC1C(=O)NC1CCCc2ccccc21)C(C)(C)C

> <Shape>
0.237

> <Color>
0.060

> <Negative vol penalty>
0.000

$$$$

  -OEChem-04052320053D

 84 92  0     1  0  0  0  0  0999 V2000
  -23.2009   -7.9686   21.9918 C   0  0  0  0  0  0  0  0  0  0  0  0
  -24.2486   -8.8600   22.1991 C   0  0  0  0  0  0  0  0  0  0  0  0
  -23.1003  -28.6018   21.5542 C   0  0  0  0  0  0  0  0  0  0  0  0
  -24.0359  -27.7125   23.5965 C   0  0  0  0  0  0  0  0  0  0  0  0
  -22.1496   -8.3152   21.1440 C   0  0  0  0  0  0  0  0  0  0  0  0
  -24.2463  -10.0982   21.5577 C   0  0  0  0  0  0  0  0  0  0  0  0
  -26.3836  -15.3939   23.7698 C   0  0  0  0  0  0  0  0  0  0  0  0
  -22.0262  -29.1249   22.2741 C   0  0  0  0  0  0  0  0  0  0  0  0
  -22.9619  -28.2358   24.3164 C   0  0  0  0  0  0  0  0  0  0  0  0
  -27.5871  -16.0719   23.5808 C   0  0  0  0  0  0  0  0  0  0  0  0
  -18.8531  -30.3857   23.5254 C   0  0  0  0  0  0  0  0  0  0  0  0
  -17.5723  -30.2092   23.0022 C   0  0  0  0  0  0  0  0  0  0  0  0
  -26.5536  -17.4154   21.8644 C   0  0  0  0  0  0  0  0  0  0  0  0
  -17.8611  -27.8127   23.1037 C   0  0  0  0  0  0  0  0  0  0  0  0
  -24.1051  -27.8955   22.2154 C   0  0  0  0  0  0  0  0  0  0  0  0
  -26.4384  -27.9896   21.1884 C   0  0  0  0  0  0  0  0  0  0  0  0
  -22.1296   -9.5621   20.4995 C   0  0  0  0  0  0  0  0  0  0  0  0
  -25.2572  -15.7147   22.9987 C   0  0  0  0  0  0  0  0  0  0  0  0
  -23.1945  -10.4613   20.6995 C   0  0  0  0  0  0  0  0  0  0  0  0
  -25.3363  -16.7418   22.0474 C   0  0  0  0  0  0  0  0  0  0  0  0
  -21.9570  -28.9420   23.6552 C   0  0  0  0  0  0  0  0  0  0  0  0
  -27.6730  -17.0808   22.6259 C   0  0  0  0  0  0  0  0  0  0  0  0
  -19.6380  -29.2757   23.8378 C   0  0  0  0  0  0  0  0  0  0  0  0
  -17.0762  -28.9227   22.7913 C   0  0  0  0  0  0  0  0  0  0  0  0
  -19.1420  -27.9892   23.6269 C   0  0  0  0  0  0  0  0  0  0  0  0
  -25.2146  -27.3543   21.4723 C   0  0  0  0  0  0  0  0  0  0  0  0
  -27.1458  -27.0632   20.4619 C   0  0  0  0  0  0  0  0  0  0  0  0
  -32.3041  -22.6249   19.3794 C   0  0  0  0  0  0  0  0  0  0  0  0
  -26.8949  -29.3000   21.5493 C   0  0  0  0  0  0  0  0  0  0  0  0
  -23.4416  -14.1415   20.9172 C   0  0  0  0  0  0  0  0  0  0  0  0
  -21.6509  -16.8440   21.0296 C   0  0  0  0  0  0  0  0  0  0  0  0
  -21.4981  -20.1940   21.6624 C   0  0  0  0  0  0  0  0  0  0  0  0
  -28.8388  -21.7058   20.0002 C   0  0  0  0  0  0  0  0  0  0  0  0
  -20.9955   -9.8732   19.5553 C   0  0  0  0  0  0  0  0  0  0  0  0
  -23.9590  -14.9922   23.2334 C   0  0  0  0  0  0  0  0  0  0  0  0
  -24.1503  -17.1381   21.2078 C   0  0  0  0  0  0  0  0  0  0  0  0
  -20.8820  -11.3550   19.2068 C   0  0  0  0  0  0  0  0  0  0  0  0
  -25.6961  -22.6872   18.3790 C   0  0  0  0  0  0  0  0  0  0  0  0
  -22.2513  -11.9267   18.8533 C   0  0  0  0  0  0  0  0  0  0  0  0
  -25.3732  -24.0219   19.0535 C   0  0  0  0  0  0  0  0  0  0  0  0
  -26.4696  -21.7503   19.3043 C   0  0  0  0  0  0  0  0  0  0  0  0
  -27.3524  -23.6685   20.5742 C   0  0  0  0  0  0  0  0  0  0  0  0
  -30.2223  -23.6163   19.0531 C   0  0  0  0  0  0  0  0  0  0  0  0
  -23.2155  -11.8237   20.0412 C   0  0  1  0  0  0  0  0  0  0  0  0
  -31.3169  -21.8023   20.1892 C   0  0  1  0  0  0  0  0  0  0  0  0
  -23.0170  -15.0515   22.0349 C   0  0  1  0  0  0  0  0  0  0  0  0
  -26.6391  -24.6653   19.6508 C   0  0  2  0  0  0  0  0  0  0  0  0
  -19.9073  -22.1345   21.6291 C   0  0  0  0  0  0  0  0  0  0  0  0
  -33.1084  -21.2905   23.6076 C   0  0  0  0  0  0  0  0  0  0  0  0
  -30.9190  -17.4554   20.3650 C   0  0  0  0  0  0  0  0  0  0  0  0
  -21.8556  -16.9565   17.9873 C   0  0  0  0  0  0  0  0  0  0  0  0
  -21.1022  -19.3416   18.0944 C   0  0  0  0  0  0  0  0  0  0  0  0
  -19.5983  -17.5229   18.9026 C   0  0  0  0  0  0  0  0  0  0  0  0
  -21.8227  -20.6594   24.5670 C   0  0  0  0  0  0  0  0  0  0  0  0
  -31.6140  -21.8916   21.6762 C   0  0  0  0  0  0  0  0  0  0  0  0
  -32.7119  -19.5506   21.8072 C   0  0  0  0  0  0  0  0  0  0  0  0
  -30.0494  -17.0209   22.6974 C   0  0  0  0  0  0  0  0  0  1  0  0
  -21.6329  -18.1470   20.2675 C   0  0  1  0  0  0  0  0  0  0  0  0
  -20.5155  -21.0228   22.4699 C   0  0  2  0  0  0  0  0  0  0  0  0
  -32.8273  -21.0490   22.1199 C   0  0  2  0  0  0  0  0  0  0  0  0
  -31.1981  -17.5644   21.8553 C   0  0  2  0  0  0  0  0  0  0  0  0
  -21.0703  -17.9835   18.8273 C   0  0  0  0  0  0  0  0  0  0  0  0
  -25.1452  -26.1198   20.9671 N   0  0  0  0  0  0  0  0  0  0  0  0
  -26.3342  -25.9719   20.3585 N   0  0  0  0  0  0  0  0  0  0  0  0
  -31.6094  -23.6291   18.7260 N   0  0  0  0  0  0  0  0  0  0  0  0
  -22.9050  -16.3979   21.4702 N   0  0  0  0  0  0  0  0  0  0  0  0
  -27.6438  -22.4206   19.8615 N   0  0  0  0  0  0  0  0  0  0  0  0
  -30.0328  -22.4173   19.8487 N   0  0  0  0  0  0  0  0  0  0  0  0
  -28.3766  -27.0838   19.9078 N   0  0  0  0  0  0  0  0  0  0  0  0
  -26.0415  -30.1223   22.2974 N   0  0  0  0  0  0  0  0  0  0  0  0
  -22.9343  -12.8597   21.0118 N   0  0  0  0  0  0  0  0  0  0  0  0
  -20.8921  -19.0934   21.0945 N   0  0  0  0  0  0  0  0  0  0  0  0
  -21.1989  -21.6400   23.6417 N   0  3  0  0  0  0  0  0  0  0  0  0
  -31.3883  -19.0033   22.1879 N   0  3  0  0  0  0  0  0  0  0  0  0
  -33.5102  -22.4265   19.3361 O   0  0  0  0  0  0  0  0  0  0  0  0
  -28.0197  -29.7350   21.2041 O   0  0  0  0  0  0  0  0  0  0  0  0
  -24.1741  -14.5710   20.0336 O   0  0  0  0  0  0  0  0  0  0  0  0
  -20.5904  -16.2476   21.2329 O   0  0  0  0  0  0  0  0  0  0  0  0
  -22.6838  -20.4951   21.5439 O   0  0  0  0  0  0  0  0  0  0  0  0
  -28.8383  -20.4844   20.2007 O   0  0  0  0  0  0  0  0  0  0  0  0
  -20.9092  -29.4526   24.3580 O   0  0  0  0  0  0  0  0  0  0  0  0
  -28.8546  -17.7482   22.4377 O   0  0  0  0  0  0  0  0  0  1  0  0
  -15.8456  -28.7534   22.2903 F   0  0  0  0  0  0  0  0  0  0  0  0
  -19.8909  -26.9189   23.9262 F   0  0  0  0  0  0  0  0  0  0  0  0
  1  2  1  0  0  0  0
  1  5  2  0  0  0  0
  2  6  2  0  0  0  0
  3  8  2  0  0  0  0
  3 15  1  0  0  0  0
  4  9  1  0  0  0  0
  4 15  2  0  0  0  0
  5 17  1  0  0  0  0
  6 19  1  0  0  0  0
  7 10  2  0  0  0  0
  7 18  1  0  0  0  0
  8 21  1  0  0  0  0
  9 21  2  0  0  0  0
 10 22  1  0  0  0  0
 11 12  2  0  0  0  0
 11 23  1  0  0  0  0
 12 24  1  0  0  0  0
 13 20  1  0  0  0  0
 13 22  2  0  0  0  0
 14 24  2  0  0  0  0
 14 25  1  0  0  0  0
 15 26  1  0  0  0  0
 16 26  1  0  0  0  0
 16 27  2  0  0  0  0
 16 29  1  0  0  0  0
 17 19  2  0  0  0  0
 17 34  1  0  0  0  0
 18 20  2  0  0  0  0
 18 35  1  0  0  0  0
 19 44  1  0  0  0  0
 20 36  1  0  0  0  0
 21 81  1  0  0  0  0
 22 82  1  0  0  0  0
 23 25  2  0  0  0  0
 23 81  1  0  0  0  0
 24 83  1  0  0  0  0
 25 84  1  0  0  0  0
 26 63  2  0  0  0  0
 27 64  1  0  0  0  0
 27 69  1  0  0  0  0
 28 45  1  0  0  0  0
 28 65  1  0  0  0  0
 28 75  2  0  0  0  0
 29 70  1  0  0  0  0
 29 76  2  0  0  0  0
 30 46  1  0  0  0  0
 30 71  1  0  0  0  0
 30 77  2  0  0  0  0
 31 58  1  0  0  0  0
 31 66  1  0  0  0  0
 31 78  2  0  0  0  0
 32 59  1  0  0  0  0
 32 72  1  0  0  0  0
 32 79  2  0  0  0  0
 33 67  1  0  0  0  0
 33 68  1  0  0  0  0
 33 80  2  0  0  0  0
 34 37  1  0  0  0  0
 35 46  1  0  0  0  0
 36 66  1  0  0  0  0
 37 39  1  0  0  0  0
 38 40  1  0  0  0  0
 38 41  1  0  0  0  0
 39 44  1  0  0  0  0
 40 47  1  0  0  0  0
 41 67  1  0  0  0  0
 42 47  1  0  0  0  0
 42 67  1  0  0  0  0
 43 65  1  0  0  0  0
 43 68  1  0  0  0  0
 44 71  1  0  0  0  0
 45 55  1  0  0  0  0
 45 68  1  0  0  0  0
 46 66  1  0  0  0  0
 47 64  1  0  0  0  0
 48 59  1  0  0  0  0
 49 60  1  0  0  0  0
 50 61  1  0  0  0  0
 51 62  1  0  0  0  0
 52 62  1  0  0  0  0
 53 62  1  0  0  0  0
 54 73  1  0  0  0  0
 55 60  1  0  0  0  0
 56 60  1  0  0  0  0
 56 74  1  0  0  0  0
 57 61  1  0  0  0  0
 57 82  1  0  0  0  0
 58 62  1  0  0  0  0
 58 72  1  0  0  0  0
 59 73  1  0  0  0  0
 61 74  1  0  0  0  0
 63 64  1  0  0  0  0
M  CHG  2  73   1  74   1
M  ISO  4  33 100  57 101  68 100  82 101
M  END
> <Batch ID>
0113

> <Smiles>
CNC(C)C(=O)NC(C(=O)N1Cc2cc([101O:1][101CH2:1]C(C)NCC(C)CC3C(=O)NC[100N:0]3[100C:0](=O)N3CCCC(n4nc(-c5ccc(Oc6ccc(F)cc6F)cc5)c(C(N)=O)c4N)C3)ccc2CC1C(=O)NC1CCCc2ccccc21)C(C)(C)C

> <Shape>
0.221

> <Color>
0.068

> <Negative vol penalty>
0.000

$$$$

  -OEChem-04052320053D

 86 94  0     1  0  0  0  0  0999 V2000
  -29.0229  -24.1450   17.2804 C   0  0  0  0  0  0  0  0  0  0  0  0
  -27.8488  -24.2323   18.0216 C   0  0  0  0  0  0  0  0  0  0  0  0
  -25.2877  -15.0888   20.6563 C   0  0  0  0  0  0  0  0  0  0  0  0
  -26.9916  -14.5880   19.0183 C   0  0  0  0  0  0  0  0  0  0  0  0
  -30.1447  -24.8782   17.6649 C   0  0  0  0  0  0  0  0  0  0  0  0
  -27.7962  -25.0520   19.1483 C   0  0  0  0  0  0  0  0  0  0  0  0
  -23.5613  -27.8223   19.3394 C   0  0  0  0  0  0  0  0  0  0  0  0
  -25.1873  -13.7327   20.9665 C   0  0  0  0  0  0  0  0  0  0  0  0
  -26.8912  -13.2318   19.3285 C   0  0  0  0  0  0  0  0  0  0  0  0
  -22.3984  -27.1794   19.7617 C   0  0  0  0  0  0  0  0  0  0  0  0
  -23.7423  -10.9765   19.6474 C   0  0  0  0  0  0  0  0  0  0  0  0
  -23.6144  -23.6456   18.7071 C   0  0  0  0  0  0  0  0  0  0  0  0
  -22.4634  -10.4336   19.7706 C   0  0  0  0  0  0  0  0  0  0  0  0
  -23.4723  -23.5110   20.0837 C   0  0  0  0  0  0  0  0  0  0  0  0
  -22.6789  -28.1300   21.9610 C   0  0  0  0  0  0  0  0  0  0  0  0
  -22.9446   -9.8189   22.0570 C   0  0  0  0  0  0  0  0  0  0  0  0
  -26.1898  -15.5166   19.6821 C   0  0  0  0  0  0  0  0  0  0  0  0
  -27.1461  -17.8654   19.9574 C   0  0  0  0  0  0  0  0  0  0  0  0
  -30.1029  -25.7148   18.7914 C   0  0  0  0  0  0  0  0  0  0  0  0
  -24.2989  -28.6164   20.2293 C   0  0  0  0  0  0  0  0  0  0  0  0
  -28.9189  -25.7961   19.5491 C   0  0  0  0  0  0  0  0  0  0  0  0
  -23.8494  -28.7839   21.5469 C   0  0  0  0  0  0  0  0  0  0  0  0
  -25.9890  -12.8041   20.3027 C   0  0  0  0  0  0  0  0  0  0  0  0
  -21.9586  -27.3309   21.0735 C   0  0  0  0  0  0  0  0  0  0  0  0
  -24.6224  -10.9406   20.7289 C   0  0  0  0  0  0  0  0  0  0  0  0
  -22.9000  -22.8106   17.8552 C   0  0  0  0  0  0  0  0  0  0  0  0
  -22.0645   -9.8548   20.9754 C   0  0  0  0  0  0  0  0  0  0  0  0
  -24.2236  -10.3618   21.9337 C   0  0  0  0  0  0  0  0  0  0  0  0
  -26.2936  -16.9173   19.3608 C   0  0  0  0  0  0  0  0  0  0  0  0
  -22.6100  -22.5339   20.5543 C   0  0  0  0  0  0  0  0  0  0  0  0
  -22.0634  -21.8647   18.4255 C   0  0  0  0  0  0  0  0  0  0  0  0
  -26.8642  -19.0401   19.3038 C   0  0  0  0  0  0  0  0  0  0  0  0
  -28.1071  -17.6992   21.0085 C   0  0  0  0  0  0  0  0  0  0  0  0
  -27.2459  -28.5108   21.4157 C   0  0  0  0  0  0  0  0  0  0  0  0
  -26.4182  -31.3782   22.6866 C   0  0  0  0  0  0  0  0  0  0  0  0
  -23.9373  -33.4824   23.7180 C   0  0  0  0  0  0  0  0  0  0  0  0
  -21.7787  -20.6037   16.2761 C   0  0  0  0  0  0  0  0  0  0  0  0
  -31.3553  -26.4516   19.1954 C   0  0  0  0  0  0  0  0  0  0  0  0
  -25.5365  -29.3246   19.7508 C   0  0  0  0  0  0  0  0  0  0  0  0
  -24.5940  -29.6418   22.5357 C   0  0  0  0  0  0  0  0  0  0  0  0
  -31.1024  -27.5855   20.1855 C   0  0  0  0  0  0  0  0  0  0  0  0
  -25.2921  -20.7425   15.1231 C   0  0  0  0  0  0  0  0  0  0  0  0
  -30.1836  -27.1176   21.3097 C   0  0  0  0  0  0  0  0  0  0  0  0
  -26.0019  -19.7889   16.0824 C   0  0  0  0  0  0  0  0  0  0  0  0
  -23.8309  -20.3549   14.9172 C   0  0  0  0  0  0  0  0  0  0  0  0
  -23.7694  -19.2891   17.1536 C   0  0  0  0  0  0  0  0  0  0  0  0
  -28.8151  -26.6934   20.7632 C   0  0  1  0  0  0  0  0  0  0  0  0
  -26.4889  -29.6947   20.8838 C   0  0  1  0  0  0  0  0  0  0  0  0
  -25.2322  -19.6818   17.4091 C   0  0  1  0  0  0  0  0  0  0  0  0
  -23.7393  -22.0424   22.7624 C   0  0  0  0  0  0  0  0  0  0  0  0
  -23.5716  -35.7418   24.7471 C   0  0  0  0  0  0  0  0  0  0  0  0
  -27.2461  -30.2706   25.4065 C   0  0  0  0  0  0  0  0  0  0  0  0
  -25.9980  -32.1584   26.4773 C   0  0  0  0  0  0  0  0  0  0  0  0
  -27.9412  -32.6362   24.9879 C   0  0  0  0  0  0  0  0  0  0  0  0
  -19.9221  -20.7214   17.8795 C   0  0  0  0  0  0  0  0  0  0  0  0
  -22.4193  -34.4375   21.3637 C   0  0  0  0  0  0  0  0  0  0  0  0
  -23.9293  -23.9510   16.0398 C   0  0  0  0  0  0  0  0  0  0  0  0
  -19.9002  -25.0749   22.9869 C   0  0  0  0  0  0  0  0  0  0  0  0
  -20.4560  -23.8795   22.2277 C   0  0  0  0  0  0  0  0  0  0  0  0
  -20.7547  -26.3305   22.8639 C   0  0  0  0  0  0  0  0  0  1  0  0
  -22.4299  -22.3600   22.0447 C   0  0  1  0  0  0  0  0  0  0  0  0
  -25.7704  -31.8304   23.9730 C   0  0  1  0  0  0  0  0  0  0  0  0
  -23.6904  -34.9562   23.4504 C   0  0  2  0  0  0  0  0  0  0  0  0
  -26.7257  -31.7061   25.1933 C   0  0  0  0  0  0  0  0  0  0  0  0
  -25.5273  -17.4441   18.4020 N   0  0  0  0  0  0  0  0  0  0  0  0
  -21.8994  -21.7043   19.7578 N   0  0  0  0  0  0  0  0  0  0  0  0
  -25.8973  -18.7360   18.3912 N   0  0  0  0  0  0  0  0  0  0  0  0
  -25.8018  -30.3086   22.0219 N   0  0  0  0  0  0  0  0  0  0  0  0
  -23.1264  -20.1979   16.1906 N   0  0  0  0  0  0  0  0  0  0  0  0
  -27.3514  -20.2931   19.4265 N   0  0  0  0  0  0  0  0  0  0  0  0
  -28.2704  -16.4251   21.5690 N   0  0  0  0  0  0  0  0  0  0  0  0
  -28.0069  -27.8566   20.4658 N   0  0  0  0  0  0  0  0  0  0  0  0
  -25.2834  -33.1842   23.7308 N   0  0  0  0  0  0  0  0  0  0  0  0
  -21.3184  -20.9958   17.5476 N   0  0  0  0  0  0  0  0  0  0  0  0
  -22.4314  -35.1378   22.6739 N   0  3  0  0  0  0  0  0  0  0  0  0
  -21.8247  -23.5558   22.6938 N   0  3  0  0  0  0  0  0  0  0  0  0
  -28.7886  -18.6558   21.4490 O   0  0  0  0  0  0  0  0  0  0  0  0
  -27.1480  -28.2137   22.6005 O   0  0  0  0  0  0  0  0  0  0  0  0
  -27.4297  -31.9573   22.2827 O   0  0  0  0  0  0  0  0  0  0  0  0
  -23.0271  -32.6771   23.9013 O   0  0  0  0  0  0  0  0  0  0  0  0
  -21.0209  -20.5665   15.2989 O   0  0  0  0  0  0  0  0  0  0  0  0
  -25.8915  -11.4807   20.6053 O   0  0  0  0  0  0  0  0  0  0  0  0
  -23.0376  -22.9396   16.5100 O   0  0  0  0  0  0  0  0  0  0  0  0
  -20.8243  -26.7041   21.4885 O   0  0  0  0  0  0  0  0  0  1  0  0
  -20.8358   -9.3349   21.0940 F   0  0  0  0  0  0  0  0  0  0  0  0
  -25.0643  -10.3254   22.9767 F   0  0  0  0  0  0  0  0  0  0  0  0
  1  2  1  0  0  0  0
  1  5  2  0  0  0  0
  2  6  2  0  0  0  0
  3  8  2  0  0  0  0
  3 17  1  0  0  0  0
  4  9  1  0  0  0  0
  4 17  2  0  0  0  0
  5 19  1  0  0  0  0
  6 21  1  0  0  0  0
  7 10  2  0  0  0  0
  7 20  1  0  0  0  0
  8 23  1  0  0  0  0
  9 23  2  0  0  0  0
 10 24  1  0  0  0  0
 11 13  2  0  0  0  0
 11 25  1  0  0  0  0
 12 14  2  0  0  0  0
 12 26  1  0  0  0  0
 13 27  1  0  0  0  0
 14 30  1  0  0  0  0
 15 22  1  0  0  0  0
 15 24  2  0  0  0  0
 16 27  2  0  0  0  0
 16 28  1  0  0  0  0
 17 29  1  0  0  0  0
 18 29  1  0  0  0  0
 18 32  2  0  0  0  0
 18 33  1  0  0  0  0
 19 21  2  0  0  0  0
 19 38  1  0  0  0  0
 20 22  2  0  0  0  0
 20 39  1  0  0  0  0
 21 47  1  0  0  0  0
 22 40  1  0  0  0  0
 23 82  1  0  0  0  0
 24 84  1  0  0  0  0
 25 28  2  0  0  0  0
 25 82  1  0  0  0  0
 26 31  2  0  0  0  0
 26 83  1  0  0  0  0
 27 85  1  0  0  0  0
 28 86  1  0  0  0  0
 29 65  2  0  0  0  0
 30 61  1  0  0  0  0
 30 66  2  0  0  0  0
 31 66  1  0  0  0  0
 31 74  1  0  0  0  0
 32 67  1  0  0  0  0
 32 70  1  0  0  0  0
 33 71  1  0  0  0  0
 33 77  2  0  0  0  0
 34 48  1  0  0  0  0
 34 72  1  0  0  0  0
 34 78  2  0  0  0  0
 35 62  1  0  0  0  0
 35 68  1  0  0  0  0
 35 79  2  0  0  0  0
 36 63  1  0  0  0  0
 36 73  1  0  0  0  0
 36 80  2  0  0  0  0
 37 69  1  0  0  0  0
 37 74  1  0  0  0  0
 37 81  2  0  0  0  0
 38 41  1  0  0  0  0
 39 48  1  0  0  0  0
 40 68  1  0  0  0  0
 41 43  1  0  0  0  0
 42 44  1  0  0  0  0
 42 45  1  0  0  0  0
 43 47  1  0  0  0  0
 44 49  1  0  0  0  0
 45 69  1  0  0  0  0
 46 49  1  0  0  0  0
 46 69  1  0  0  0  0
 47 72  1  0  0  0  0
 48 68  1  0  0  0  0
 49 67  1  0  0  0  0
 50 61  1  0  0  0  0
 51 63  1  0  0  0  0
 52 64  1  0  0  0  0
 53 64  1  0  0  0  0
 54 64  1  0  0  0  0
 55 74  1  0  0  0  0
 56 75  1  0  0  0  0
 57 83  1  0  0  0  0
 58 59  1  0  0  0  0
 58 60  1  0  0  0  0
 59 76  1  0  0  0  0
 60 84  1  0  0  0  0
 61 76  1  0  0  0  0
 62 64  1  0  0  0  0
 62 73  1  0  0  0  0
 63 75  1  0  0  0  0
 65 67  1  0  0  0  0
M  CHG  2  75   1  76   1
M  ISO  4  37 100  60 101  74 100  84 101
M  END
> <Batch ID>
0113

> <Smiles>
CNC(C)C(=O)NC(C(=O)N1Cc2cc([101O:1][101CH2:1]CCNC(C)c3ccc(OC)c([100N:0](C)[100C:0](=O)N4CCCC(n5nc(-c6ccc(Oc7ccc(F)cc7F)cc6)c(C(N)=O)c5N)C4)n3)ccc2CC1C(=O)NC1CCCc2ccccc21)C(C)(C)C

> <Shape>
0.272

> <Color>
0.067

> <Negative vol penalty>
0.000

$$$$

  -OEChem-04052320053D

 85 93  0     1  0  0  0  0  0999 V2000
  -26.9415  -37.4543   23.7116 C   0  0  0  0  0  0  0  0  0  0  0  0
  -27.5408  -36.5748   22.8158 C   0  0  0  0  0  0  0  0  0  0  0  0
  -23.9649  -10.1425   20.6517 C   0  0  0  0  0  0  0  0  0  0  0  0
  -22.8273  -12.0837   21.5317 C   0  0  0  0  0  0  0  0  0  0  0  0
  -26.1822  -36.9589   24.7709 C   0  0  0  0  0  0  0  0  0  0  0  0
  -27.3821  -35.1991   22.9793 C   0  0  0  0  0  0  0  0  0  0  0  0
  -26.8656  -29.1481   19.1799 C   0  0  0  0  0  0  0  0  0  0  0  0
  -23.1308   -9.3136   21.4017 C   0  0  0  0  0  0  0  0  0  0  0  0
  -21.9931  -11.2548   22.2818 C   0  0  0  0  0  0  0  0  0  0  0  0
  -27.4332  -27.8775   19.0956 C   0  0  0  0  0  0  0  0  0  0  0  0
  -21.5352   -6.6992   23.3620 C   0  0  0  0  0  0  0  0  0  0  0  0
  -22.1231   -5.6420   24.0563 C   0  0  0  0  0  0  0  0  0  0  0  0
  -26.0340  -27.1382   20.9163 C   0  0  0  0  0  0  0  0  0  0  0  0
  -23.4722   -7.2111   25.3032 C   0  0  0  0  0  0  0  0  0  0  0  0
  -23.8132  -11.5276   20.7167 C   0  0  0  0  0  0  0  0  0  0  0  0
  -24.4560  -12.8505   18.6323 C   0  0  0  0  0  0  0  0  0  0  0  0
  -26.0062  -35.5767   24.9419 C   0  0  0  0  0  0  0  0  0  0  0  0
  -25.8840  -29.4267   20.1419 C   0  0  0  0  0  0  0  0  0  0  0  0
  -26.6209  -34.6847   24.0426 C   0  0  0  0  0  0  0  0  0  0  0  0
  -25.4537  -28.4124   21.0091 C   0  0  0  0  0  0  0  0  0  0  0  0
  -22.1448   -9.8697   22.2168 C   0  0  0  0  0  0  0  0  0  0  0  0
  -27.0196  -26.8731   19.9657 C   0  0  0  0  0  0  0  0  0  0  0  0
  -21.9158   -8.0125   23.6382 C   0  0  0  0  0  0  0  0  0  0  0  0
  -23.0917   -5.8979   25.0269 C   0  0  0  0  0  0  0  0  0  0  0  0
  -22.8843   -8.2684   24.6089 C   0  0  0  0  0  0  0  0  0  0  0  0
  -24.6750  -12.3845   19.9426 C   0  0  0  0  0  0  0  0  0  0  0  0
  -25.5571  -13.6229   18.3542 C   0  0  0  0  0  0  0  0  0  0  0  0
  -23.3557  -12.6069   17.7460 C   0  0  0  0  0  0  0  0  0  0  0  0
  -25.6652  -31.4143   22.6128 C   0  0  0  0  0  0  0  0  0  0  0  0
  -22.6155  -30.3150   22.7275 C   0  0  0  0  0  0  0  0  0  0  0  0
  -20.4024  -27.8273   21.9788 C   0  0  0  0  0  0  0  0  0  0  0  0
  -29.2814  -17.5037   19.8425 C   0  0  0  0  0  0  0  0  0  0  0  0
  -25.2158  -35.0871   26.1294 C   0  0  0  0  0  0  0  0  0  0  0  0
  -25.2624  -30.7951   20.2023 C   0  0  0  0  0  0  0  0  0  0  0  0
  -24.3887  -28.6546   22.0462 C   0  0  0  0  0  0  0  0  0  0  0  0
  -24.7867  -33.6266   26.0151 C   0  0  0  0  0  0  0  0  0  0  0  0
  -29.9248  -14.1501   20.8505 C   0  0  0  0  0  0  0  0  0  0  0  0
  -25.9568  -32.7604   25.5598 C   0  0  0  0  0  0  0  0  0  0  0  0
  -26.8033  -20.8451   18.9985 C   0  0  0  0  0  0  0  0  0  0  0  0
  -28.5970  -13.4323   20.6020 C   0  0  0  0  0  0  0  0  0  0  0  0
  -26.3648  -22.0630   19.8055 C   0  0  0  0  0  0  0  0  0  0  0  0
  -29.7100  -15.5796   21.3428 C   0  0  0  0  0  0  0  0  0  0  0  0
  -27.5095  -15.6870   20.2383 C   0  0  0  0  0  0  0  0  0  0  0  0
  -26.4515  -33.1865   24.1723 C   0  0  1  0  0  0  0  0  0  0  0  0
  -24.6388  -31.1087   21.5588 C   0  0  1  0  0  0  0  0  0  0  0  0
  -28.3072  -20.5802   19.1358 C   0  0  2  0  0  0  0  0  0  0  0  0
  -27.6746  -14.2603   19.6873 C   0  0  2  0  0  0  0  0  0  0  0  0
  -27.1859  -23.3034   19.4587 C   0  0  1  0  0  0  0  0  0  0  0  0
  -29.1589  -21.8231   18.8022 C   0  0  1  0  0  0  0  0  0  0  0  0
  -17.9866  -27.1975   22.2329 C   0  0  0  0  0  0  0  0  0  0  0  0
  -29.5831  -23.6856   17.1728 C   0  0  0  0  0  0  0  0  0  0  0  0
  -30.1492  -21.3199   16.5507 C   0  0  0  0  0  0  0  0  0  0  0  0
  -29.3173  -24.3576   21.5956 C   0  0  0  0  0  0  0  0  0  0  0  0
  -30.4627  -22.1649   21.0911 C   0  0  0  0  0  0  0  0  0  0  0  0
  -23.1045  -29.6322   25.6608 C   0  0  0  0  0  0  0  0  0  0  0  0
  -21.0646  -28.1824   25.5912 C   0  0  0  0  0  0  0  0  0  0  0  0
  -20.8639  -30.6350   25.1827 C   0  0  0  0  0  0  0  0  0  0  0  0
  -20.0022  -27.7194   19.0485 C   0  0  0  0  0  0  0  0  0  0  0  0
  -28.7090  -19.3621   18.3006 C   0  0  0  0  0  0  0  0  0  0  0  0
  -26.7605  -24.5277   20.2626 C   0  0  0  0  0  0  0  0  0  1  0  0
  -21.9183  -29.1663   23.4154 C   0  0  1  0  0  0  0  0  0  0  0  0
  -19.0246  -27.8626   21.3425 C   0  0  2  0  0  0  0  0  0  0  0  0
  -29.1894  -22.2193   17.3235 C   0  0  0  0  0  0  0  0  0  0  0  0
  -29.1567  -22.9427   21.0634 C   0  0  0  0  0  0  0  0  0  0  0  0
  -21.7593  -29.3996   24.9444 C   0  0  0  0  0  0  0  0  0  0  0  0
  -25.8249  -12.8241   20.4608 N   0  0  0  0  0  0  0  0  0  0  0  0
  -26.3384  -13.5743   19.4710 N   0  0  0  0  0  0  0  0  0  0  0  0
  -23.8158  -30.0107   22.0700 N   0  0  0  0  0  0  0  0  0  0  0  0
  -28.8279  -16.3112   20.4303 N   0  0  0  0  0  0  0  0  0  0  0  0
  -25.9236  -14.3322   17.2655 N   0  0  0  0  0  0  0  0  0  0  0  0
  -22.3075  -11.7898   18.1910 N   0  0  0  0  0  0  0  0  0  0  0  0
  -25.5647  -32.6861   23.1439 N   0  0  0  0  0  0  0  0  0  0  0  0
  -20.6583  -28.9701   22.7067 N   0  0  0  0  0  0  0  0  0  0  0  0
  -28.3851  -18.1306   18.9855 N   0  0  0  0  0  0  0  0  0  0  0  0
  -28.6749  -23.0207   19.6309 N   0  3  2  0  0  0  0  0  0  0  0  0
  -19.0415  -27.1550   20.0310 N   0  3  0  0  0  0  0  0  0  0  0  0
  -23.3114  -13.0858   16.5875 O   0  0  0  0  0  0  0  0  0  0  0  0
  -26.4865  -30.5592   22.9223 O   0  0  0  0  0  0  0  0  0  0  0  0
  -22.1098  -31.4396   22.7658 O   0  0  0  0  0  0  0  0  0  0  0  0
  -21.1730  -26.8790   21.8468 O   0  0  0  0  0  0  0  0  0  0  0  0
  -30.4039  -17.9719   20.0609 O   0  0  0  0  0  0  0  0  0  0  0  0
  -21.3305   -9.0611   22.9486 O   0  0  0  0  0  0  0  0  0  0  0  0
  -27.5774  -25.6211   19.8853 O   0  0  0  0  0  0  0  0  0  1  0  0
  -23.6551   -4.8826   25.6947 F   0  0  0  0  0  0  0  0  0  0  0  0
  -23.2531   -9.5280   24.8794 F   0  0  0  0  0  0  0  0  0  0  0  0
  1  2  1  0  0  0  0
  1  5  2  0  0  0  0
  2  6  2  0  0  0  0
  3  8  2  0  0  0  0
  3 15  1  0  0  0  0
  4  9  1  0  0  0  0
  4 15  2  0  0  0  0
  5 17  1  0  0  0  0
  6 19  1  0  0  0  0
  7 10  2  0  0  0  0
  7 18  1  0  0  0  0
  8 21  1  0  0  0  0
  9 21  2  0  0  0  0
 10 22  1  0  0  0  0
 11 12  2  0  0  0  0
 11 23  1  0  0  0  0
 12 24  1  0  0  0  0
 13 20  1  0  0  0  0
 13 22  2  0  0  0  0
 14 24  2  0  0  0  0
 14 25  1  0  0  0  0
 15 26  1  0  0  0  0
 16 26  1  0  0  0  0
 16 27  2  0  0  0  0
 16 28  1  0  0  0  0
 17 19  2  0  0  0  0
 17 33  1  0  0  0  0
 18 20  2  0  0  0  0
 18 34  1  0  0  0  0
 19 44  1  0  0  0  0
 20 35  1  0  0  0  0
 21 82  1  0  0  0  0
 22 83  1  0  0  0  0
 23 25  2  0  0  0  0
 23 82  1  0  0  0  0
 24 84  1  0  0  0  0
 25 85  1  0  0  0  0
 26 66  2  0  0  0  0
 27 67  1  0  0  0  0
 27 70  1  0  0  0  0
 28 71  1  0  0  0  0
 28 77  2  0  0  0  0
 29 45  1  0  0  0  0
 29 72  1  0  0  0  0
 29 78  2  0  0  0  0
 30 61  1  0  0  0  0
 30 68  1  0  0  0  0
 30 79  2  0  0  0  0
 31 62  1  0  0  0  0
 31 73  1  0  0  0  0
 31 80  2  0  0  0  0
 32 69  1  0  0  0  0
 32 74  1  0  0  0  0
 32 81  2  0  0  0  0
 33 36  1  0  0  0  0
 34 45  1  0  0  0  0
 35 68  1  0  0  0  0
 36 38  1  0  0  0  0
 37 40  1  0  0  0  0
 37 42  1  0  0  0  0
 38 44  1  0  0  0  0
 39 41  1  0  0  0  0
 39 46  1  0  0  0  0
 40 47  1  0  0  0  0
 41 48  1  0  0  0  0
 42 69  1  0  0  0  0
 43 47  1  0  0  0  0
 43 69  1  0  0  0  0
 44 72  1  0  0  0  0
 45 68  1  0  0  0  0
 46 49  1  0  0  0  0
 46 59  1  0  0  0  0
 47 67  1  0  0  0  0
 48 60  1  0  0  0  0
 48 75  1  0  0  0  0
 49 63  1  0  0  0  0
 49 75  1  0  0  0  0
 50 62  1  0  0  0  0
 51 63  1  0  0  0  0
 52 63  1  0  0  0  0
 53 64  1  0  0  0  0
 54 64  1  0  0  0  0
 55 65  1  0  0  0  0
 56 65  1  0  0  0  0
 57 65  1  0  0  0  0
 58 76  1  0  0  0  0
 59 74  1  0  0  0  0
 60 83  1  0  0  0  0
 61 65  1  0  0  0  0
 61 73  1  0  0  0  0
 62 76  1  0  0  0  0
 64 75  1  0  0  0  0
 66 67  1  0  0  0  0
M  CHG  2  75   1  76   1
M  ISO  4  32 100  60 101  74 100  83 101
M  END
> <Batch ID>
0113

> <Smiles>
CNC(C)C(=O)NC(C(=O)N1Cc2cc([101O:1][101CH2:1]C3CCC(C[100NH:0][100C:0](=O)N4CCCC(n5nc(-c6ccc(Oc7ccc(F)cc7F)cc6)c(C(N)=O)c5N)C4)C(C(C)C)N3C(C)C)ccc2CC1C(=O)NC1CCCc2ccccc21)C(C)(C)C

> <Shape>
0.349

> <Color>
0.070

> <Negative vol penalty>
0.000

$$$$

  -OEChem-04052320053D

 88 97  0     1  0  0  0  0  0999 V2000
  -29.9413  -14.3419   12.3346 C   0  0  0  0  0  0  0  0  0  0  0  0
  -29.7536  -15.3241   13.3018 C   0  0  0  0  0  0  0  0  0  0  0  0
  -21.2896  -30.1346   21.7973 C   0  0  0  0  0  0  0  0  0  0  0  0
  -22.1997  -27.9678   21.2371 C   0  0  0  0  0  0  0  0  0  0  0  0
  -29.1142  -13.2197   12.3127 C   0  0  0  0  0  0  0  0  0  0  0  0
  -28.7380  -15.1851   14.2471 C   0  0  0  0  0  0  0  0  0  0  0  0
  -30.2805  -16.3146   18.9364 C   0  0  0  0  0  0  0  0  0  0  0  0
  -20.0527  -29.5468   22.0618 C   0  0  0  0  0  0  0  0  0  0  0  0
  -20.9627  -27.3799   21.5017 C   0  0  0  0  0  0  0  0  0  0  0  0
  -30.3895  -17.6657   19.2628 C   0  0  0  0  0  0  0  0  0  0  0  0
  -18.6129  -27.7942   24.5695 C   0  0  0  0  0  0  0  0  0  0  0  0
  -17.9439  -28.1854   25.7292 C   0  0  0  0  0  0  0  0  0  0  0  0
  -28.2580  -17.5597   20.3873 C   0  0  0  0  0  0  0  0  0  0  0  0
  -16.0837  -28.9585   24.3953 C   0  0  0  0  0  0  0  0  0  0  0  0
  -30.3425  -26.7484   21.3018 C   0  0  0  0  0  0  0  0  0  0  0  0
  -22.3631  -29.3451   21.3849 C   0  0  0  0  0  0  0  0  0  0  0  0
  -24.4443  -30.6831   22.0065 C   0  0  0  0  0  0  0  0  0  0  0  0
  -28.0941  -13.0622   13.2641 C   0  0  0  0  0  0  0  0  0  0  0  0
  -29.1525  -15.5774   19.3244 C   0  0  0  0  0  0  0  0  0  0  0  0
  -27.8956  -14.0604   14.2371 C   0  0  0  0  0  0  0  0  0  0  0  0
  -28.1383  -16.1988   20.0669 C   0  0  0  0  0  0  0  0  0  0  0  0
  -19.8892  -28.1694   21.9140 C   0  0  0  0  0  0  0  0  0  0  0  0
  -29.3768  -18.2892   19.9858 C   0  0  0  0  0  0  0  0  0  0  0  0
  -18.0173  -27.9851   23.3226 C   0  0  0  0  0  0  0  0  0  0  0  0
  -16.6793  -28.7676   25.6421 C   0  0  0  0  0  0  0  0  0  0  0  0
  -16.7527  -28.5672   23.2356 C   0  0  0  0  0  0  0  0  0  0  0  0
  -23.6410  -29.9519   21.1110 C   0  0  0  0  0  0  0  0  0  0  0  0
  -30.4781  -26.1320   20.0819 C   0  0  0  0  0  0  0  0  0  0  0  0
  -30.3352  -28.1239   21.0021 C   0  0  0  0  0  0  0  0  0  0  0  0
  -25.5450  -31.0406   21.2669 C   0  0  0  0  0  0  0  0  0  0  0  0
  -24.2159  -31.0099   23.3837 C   0  0  0  0  0  0  0  0  0  0  0  0
  -26.8508  -14.0204   17.7811 C   0  0  0  0  0  0  0  0  0  0  0  0
  -25.9944  -13.1117   20.7749 C   0  0  0  0  0  0  0  0  0  0  0  0
  -26.0544  -13.7539   24.1261 C   0  0  0  0  0  0  0  0  0  0  0  0
  -28.1418  -28.6769   16.4171 C   0  0  0  0  0  0  0  0  0  0  0  0
  -27.1950  -11.8549   13.1713 C   0  0  0  0  0  0  0  0  0  0  0  0
  -29.0625  -14.1142   18.9876 C   0  0  0  0  0  0  0  0  0  0  0  0
  -26.9163  -15.4468   20.5247 C   0  0  0  0  0  0  0  0  0  0  0  0
  -26.3819  -11.6021   14.4383 C   0  0  0  0  0  0  0  0  0  0  0  0
  -26.8905  -31.9909   16.7750 C   0  0  0  0  0  0  0  0  0  0  0  0
  -25.7485  -12.8983   14.9336 C   0  0  0  0  0  0  0  0  0  0  0  0
  -29.2635  -23.9112   20.0819 C   0  0  0  0  0  0  0  0  0  0  0  0
  -31.7843  -23.9780   20.3283 C   0  0  0  0  0  0  0  0  0  0  0  0
  -29.3439  -22.4354   19.6923 C   0  0  0  0  0  0  0  0  0  0  0  0
  -31.8584  -22.5021   19.9381 C   0  0  0  0  0  0  0  0  0  0  0  0
  -25.9883  -31.9101   18.0076 C   0  0  0  0  0  0  0  0  0  0  0  0
  -26.8184  -30.7155   15.9383 C   0  0  0  0  0  0  0  0  0  0  0  0
  -26.1815  -29.3896   17.9157 C   0  0  0  0  0  0  0  0  0  0  0  0
  -26.8206  -13.9336   15.2946 C   0  0  1  0  0  0  0  0  0  0  0  0
  -30.5532  -24.6622   19.7105 C   0  0  0  0  0  0  0  0  0  0  0  0
  -27.6308  -13.5874   18.9902 C   0  0  1  0  0  0  0  0  0  0  0  0
  -30.5719  -21.7523   20.3082 C   0  0  0  0  0  0  0  0  0  0  0  0
  -26.2631  -30.6308   18.8207 C   0  0  2  0  0  0  0  0  0  0  0  0
  -31.3740  -29.3174   22.9643 C   0  0  0  0  0  0  0  0  0  0  0  0
  -28.8665  -29.2499   22.7136 C   0  0  0  0  0  0  0  0  0  0  0  0
  -25.2353  -12.8514   26.3198 C   0  0  0  0  0  0  0  0  0  0  0  0
  -23.1938  -14.1519   20.1544 C   0  0  0  0  0  0  0  0  0  0  0  0
  -22.7092  -14.1085   22.6103 C   0  0  0  0  0  0  0  0  0  0  0  0
  -23.2491  -11.9896   21.4097 C   0  0  0  0  0  0  0  0  0  0  0  0
  -28.8114  -13.4021   25.1431 C   0  0  0  0  0  0  0  0  0  0  0  0
  -30.6537  -20.2920   19.8674 C   0  0  0  0  0  0  0  0  0  1  0  0
  -30.6860  -26.9955   17.7313 C   0  0  0  0  0  0  0  0  0  0  0  0
  -29.3814  -26.6175   17.0346 C   0  0  0  0  0  0  0  0  0  0  0  0
  -30.2105  -29.2473   21.9460 C   0  0  0  0  0  0  0  0  0  0  0  0
  -25.0865  -13.6713   21.8434 C   0  0  1  0  0  0  0  0  0  0  0  0
  -26.3775  -12.8681   25.3158 C   0  0  2  0  0  0  0  0  0  0  0  0
  -23.5817  -13.4953   21.4943 C   0  0  0  0  0  0  0  0  0  0  0  0
  -24.1850  -29.8502   19.8954 N   0  0  0  0  0  0  0  0  0  0  0  0
  -30.4567  -28.3674   19.6945 N   0  0  0  0  0  0  0  0  0  0  0  0
  -30.5417  -27.1365   19.1616 N   0  0  0  0  0  0  0  0  0  0  0  0
  -25.3419  -30.5223   20.0218 N   0  0  0  0  0  0  0  0  0  0  0  0
  -26.8716  -14.0198   20.1653 N   0  0  0  0  0  0  0  0  0  0  0  0
  -27.0902  -29.5393   16.7682 N   0  0  0  0  0  0  0  0  0  0  0  0
  -26.6572  -31.7447   21.5667 N   0  0  0  0  0  0  0  0  0  0  0  0
  -24.6761  -30.1225   24.3662 N   0  0  0  0  0  0  0  0  0  0  0  0
  -27.4088  -13.6247   16.5804 N   0  0  0  0  0  0  0  0  0  0  0  0
  -25.4881  -13.0361   23.0939 N   0  0  0  0  0  0  0  0  0  0  0  0
  -28.3354  -27.5898   17.2606 N   0  0  0  0  0  0  0  0  0  0  0  0
  -27.6040  -13.3566   26.0074 N   0  3  0  0  0  0  0  0  0  0  0  0
  -23.6069  -32.0496   23.7323 O   0  0  0  0  0  0  0  0  0  0  0  0
  -25.8185  -14.6643   17.9267 O   0  0  0  0  0  0  0  0  0  0  0  0
  -25.9326  -11.9115   20.4965 O   0  0  0  0  0  0  0  0  0  0  0  0
  -26.2783  -14.9623   24.1151 O   0  0  0  0  0  0  0  0  0  0  0  0
  -28.8588  -28.8649   15.4284 O   0  0  0  0  0  0  0  0  0  0  0  0
  -18.6824  -27.5954   22.1722 O   0  0  0  0  0  0  0  0  0  0  0  0
  -29.4803  -19.6079   20.3051 O   0  0  0  0  0  0  0  0  0  1  0  0
  -16.0364  -29.1418   26.7560 F   0  0  0  0  0  0  0  0  0  0  0  0
  -16.1749  -28.7521   22.0407 F   0  0  0  0  0  0  0  0  0  0  0  0
  1  2  1  0  0  0  0
  1  5  2  0  0  0  0
  2  6  2  0  0  0  0
  3  8  2  0  0  0  0
  3 16  1  0  0  0  0
  4  9  1  0  0  0  0
  4 16  2  0  0  0  0
  5 18  1  0  0  0  0
  6 20  1  0  0  0  0
  7 10  2  0  0  0  0
  7 19  1  0  0  0  0
  8 22  1  0  0  0  0
  9 22  2  0  0  0  0
 10 23  1  0  0  0  0
 11 12  2  0  0  0  0
 11 24  1  0  0  0  0
 12 25  1  0  0  0  0
 13 21  1  0  0  0  0
 13 23  2  0  0  0  0
 14 25  2  0  0  0  0
 14 26  1  0  0  0  0
 15 28  2  0  0  0  0
 15 29  1  0  0  0  0
 16 27  1  0  0  0  0
 17 27  1  0  0  0  0
 17 30  2  0  0  0  0
 17 31  1  0  0  0  0
 18 20  2  0  0  0  0
 18 36  1  0  0  0  0
 19 21  2  0  0  0  0
 19 37  1  0  0  0  0
 20 49  1  0  0  0  0
 21 38  1  0  0  0  0
 22 85  1  0  0  0  0
 23 86  1  0  0  0  0
 24 26  2  0  0  0  0
 24 85  1  0  0  0  0
 25 87  1  0  0  0  0
 26 88  1  0  0  0  0
 27 68  2  0  0  0  0
 28 50  1  0  0  0  0
 28 70  1  0  0  0  0
 29 64  1  0  0  0  0
 29 69  2  0  0  0  0
 30 71  1  0  0  0  0
 30 74  1  0  0  0  0
 31 75  1  0  0  0  0
 31 80  2  0  0  0  0
 32 51  1  0  0  0  0
 32 76  1  0  0  0  0
 32 81  2  0  0  0  0
 33 65  1  0  0  0  0
 33 72  1  0  0  0  0
 33 82  2  0  0  0  0
 34 66  1  0  0  0  0
 34 77  1  0  0  0  0
 34 83  2  0  0  0  0
 35 73  1  0  0  0  0
 35 78  1  0  0  0  0
 35 84  2  0  0  0  0
 36 39  1  0  0  0  0
 37 51  1  0  0  0  0
 38 72  1  0  0  0  0
 39 41  1  0  0  0  0
 40 46  1  0  0  0  0
 40 47  1  0  0  0  0
 41 49  1  0  0  0  0
 42 44  1  0  0  0  0
 42 50  1  0  0  0  0
 43 45  1  0  0  0  0
 43 50  1  0  0  0  0
 44 52  1  0  0  0  0
 45 52  1  0  0  0  0
 46 53  1  0  0  0  0
 47 73  1  0  0  0  0
 48 53  1  0  0  0  0
 48 73  1  0  0  0  0
 49 76  1  0  0  0  0
 51 72  1  0  0  0  0
 52 61  1  0  0  0  0
 53 71  1  0  0  0  0
 54 64  1  0  0  0  0
 55 64  1  0  0  0  0
 56 66  1  0  0  0  0
 57 67  1  0  0  0  0
 58 67  1  0  0  0  0
 59 67  1  0  0  0  0
 60 79  1  0  0  0  0
 61 86  1  0  0  0  0
 62 63  1  0  0  0  0
 62 70  1  0  0  0  0
 63 78  1  0  0  0  0
 65 67  1  0  0  0  0
 65 77  1  0  0  0  0
 66 79  1  0  0  0  0
 68 71  1  0  0  0  0
 69 70  1  0  0  0  0
M  CHG  1  79   1
M  ISO  4  35 100  61 101  78 100  86 101
M  END
> <Batch ID>
0113

> <Smiles>
CNC(C)C(=O)NC(C(=O)N1Cc2cc([101O:1][101CH2:1]C3CCC(c4cc(C(C)C)nn4CC[100NH:0][100C:0](=O)N4CCCC(n5nc(-c6ccc(Oc7ccc(F)cc7F)cc6)c(C(N)=O)c5N)C4)CC3)ccc2CC1C(=O)NC1CCCc2ccccc21)C(C)(C)C

> <Shape>
0.248

> <Color>
0.063

> <Negative vol penalty>
0.000

$$$$

  -OEChem-04052320053D

 90 98  0     1  0  0  0  0  0999 V2000
  -25.1539  -30.9946   12.4927 C   0  0  0  0  0  0  0  0  0  0  0  0
  -25.3032  -30.0498   13.5028 C   0  0  0  0  0  0  0  0  0  0  0  0
  -23.0983   -9.8067   19.9772 C   0  0  0  0  0  0  0  0  0  0  0  0
  -23.8428   -9.8837   22.2743 C   0  0  0  0  0  0  0  0  0  0  0  0
  -26.0715  -31.0432   11.4441 C   0  0  0  0  0  0  0  0  0  0  0  0
  -26.3696  -29.1521   13.4643 C   0  0  0  0  0  0  0  0  0  0  0  0
  -29.4630  -26.9028   18.2473 C   0  0  0  0  0  0  0  0  0  0  0  0
  -22.3726   -8.6475   20.2512 C   0  0  0  0  0  0  0  0  0  0  0  0
  -23.1171   -8.7244   22.5484 C   0  0  0  0  0  0  0  0  0  0  0  0
  -29.3711  -25.6967   18.9405 C   0  0  0  0  0  0  0  0  0  0  0  0
  -19.4289   -7.8364   21.7036 C   0  0  0  0  0  0  0  0  0  0  0  0
  -18.1262   -7.7557   21.2116 C   0  0  0  0  0  0  0  0  0  0  0  0
  -31.1563  -24.7932   17.5930 C   0  0  0  0  0  0  0  0  0  0  0  0
  -18.7277   -5.7903   19.9417 C   0  0  0  0  0  0  0  0  0  0  0  0
  -23.8335  -10.4248   20.9887 C   0  0  0  0  0  0  0  0  0  0  0  0
  -24.1329  -12.9517   20.8079 C   0  0  0  0  0  0  0  0  0  0  0  0
  -27.1551  -30.1520   11.3977 C   0  0  0  0  0  0  0  0  0  0  0  0
  -30.3964  -27.0598   17.2127 C   0  0  0  0  0  0  0  0  0  0  0  0
  -27.3018  -29.1880   12.4134 C   0  0  0  0  0  0  0  0  0  0  0  0
  -31.2598  -26.0031   16.8899 C   0  0  0  0  0  0  0  0  0  0  0  0
  -22.3820   -8.1063   21.5368 C   0  0  0  0  0  0  0  0  0  0  0  0
  -30.2159  -24.6406   18.6115 C   0  0  0  0  0  0  0  0  0  0  0  0
  -20.3811   -6.8942   21.3146 C   0  0  0  0  0  0  0  0  0  0  0  0
  -17.7756   -6.7326   20.3307 C   0  0  0  0  0  0  0  0  0  0  0  0
  -20.0305   -5.8711   20.4337 C   0  0  0  0  0  0  0  0  0  0  0  0
  -24.5838  -11.6220   20.7062 C   0  0  0  0  0  0  0  0  0  0  0  0
  -25.2145  -13.7107   20.4329 C   0  0  0  0  0  0  0  0  0  0  0  0
  -22.8511  -13.4558   21.2060 C   0  0  0  0  0  0  0  0  0  0  0  0
  -30.2111  -27.6518   14.0952 C   0  0  0  0  0  0  0  0  0  0  0  0
  -33.4415  -27.8273   14.3324 C   0  0  0  0  0  0  0  0  0  0  0  0
  -36.2744  -26.9509   16.0217 C   0  0  0  0  0  0  0  0  0  0  0  0
  -30.6786  -14.8285   20.6296 C   0  0  0  0  0  0  0  0  0  0  0  0
  -28.0944  -30.2120   10.2193 C   0  0  0  0  0  0  0  0  0  0  0  0
  -30.5011  -28.3762   16.4925 C   0  0  0  0  0  0  0  0  0  0  0  0
  -32.2928  -26.1275   15.8009 C   0  0  0  0  0  0  0  0  0  0  0  0
  -29.4084  -29.4698   10.4493 C   0  0  0  0  0  0  0  0  0  0  0  0
  -29.5977  -12.3662   18.2960 C   0  0  0  0  0  0  0  0  0  0  0  0
  -29.1457  -28.0940   11.0536 C   0  0  0  0  0  0  0  0  0  0  0  0
  -28.1627  -12.0586   18.7273 C   0  0  0  0  0  0  0  0  0  0  0  0
  -32.3314  -14.3408   25.6387 C   0  0  0  0  0  0  0  0  0  0  0  0
  -33.9679  -14.7425   23.7664 C   0  0  0  0  0  0  0  0  0  0  0  0
  -30.5030  -12.6326   19.4967 C   0  0  0  0  0  0  0  0  0  0  0  0
  -28.5799  -13.3649   20.8529 C   0  0  0  0  0  0  0  0  0  0  0  0
  -31.5907  -15.6148   25.2560 C   0  0  0  0  0  0  0  0  0  0  0  0
  -33.2189  -16.0146   23.3934 C   0  0  0  0  0  0  0  0  0  0  0  0
  -28.4595  -28.2134   12.4197 C   0  0  1  0  0  0  0  0  0  0  0  0
  -31.1393  -28.2530   15.1123 C   0  0  1  0  0  0  0  0  0  0  0  0
  -33.8142  -14.4083   25.2547 C   0  0  0  0  0  0  0  0  0  0  0  0
  -27.6167  -13.1444   19.6740 C   0  0  2  0  0  0  0  0  0  0  0  0
  -34.5215  -13.0976   25.5919 C   0  0  0  0  0  0  0  0  0  0  0  0
  -27.4225  -22.9597   17.0609 C   0  0  0  0  0  0  0  0  0  0  0  0
  -38.7691  -27.2131   15.9537 C   0  0  0  0  0  0  0  0  0  0  0  0
  -30.8297  -18.1948   18.9253 C   0  0  0  0  0  0  0  0  0  0  0  0
  -28.9226  -23.0331   21.3238 C   0  0  0  0  0  0  0  0  0  0  0  0
  -33.5933  -25.7761   12.0786 C   0  0  0  0  0  0  0  0  0  0  0  0
  -35.9863  -25.3770   12.6969 C   0  0  0  0  0  0  0  0  0  0  0  0
  -35.2616  -27.6320   11.9142 C   0  0  0  0  0  0  0  0  0  0  0  0
  -36.3177  -28.3240   18.6430 C   0  0  0  0  0  0  0  0  0  0  0  0
  -28.3644  -21.8952   17.6093 C   0  0  0  0  0  0  0  0  0  0  0  0
  -29.9001  -18.2255   21.3050 C   0  0  0  0  0  0  0  0  0  0  0  0
  -30.9542  -17.0542   23.3228 C   0  0  0  0  0  0  0  0  0  0  0  0
  -28.6119  -19.3287   19.3987 C   0  0  0  0  0  0  0  0  0  0  0  0
  -34.5773  -26.8397   14.2155 C   0  0  1  0  0  0  0  0  0  0  0  0
  -37.4613  -27.7720   16.4922 C   0  0  2  0  0  0  0  0  0  0  0  0
  -29.5675  -18.1907   19.7939 C   0  0  1  0  0  0  0  0  0  0  0  0
  -30.6996  -17.0099   21.8129 C   0  0  1  0  0  0  0  0  0  0  0  0
  -28.3598  -21.8005   19.1429 C   0  0  2  0  0  0  0  0  0  0  0  0
  -28.8468  -23.1032   19.8022 C   0  0  2  0  0  0  0  0  0  1  0  0
  -34.8340  -26.4029   12.7456 C   0  0  0  0  0  0  0  0  0  0  0  0
  -25.8528  -11.5377   20.2982 N   0  0  0  0  0  0  0  0  0  0  0  0
  -26.2086  -12.8240   20.1403 N   0  0  0  0  0  0  0  0  0  0  0  0
  -32.3520  -27.4323   15.1216 N   0  0  0  0  0  0  0  0  0  0  0  0
  -29.9291  -13.6731   20.3534 N   0  0  0  0  0  0  0  0  0  0  0  0
  -25.4026  -15.0434   20.3280 N   0  0  0  0  0  0  0  0  0  0  0  0
  -21.8526  -12.5380   21.5596 N   0  0  0  0  0  0  0  0  0  0  0  0
  -29.4213  -28.5761   13.4384 N   0  0  0  0  0  0  0  0  0  0  0  0
  -35.7271  -27.4614   14.8636 N   0  0  0  0  0  0  0  0  0  0  0  0
  -30.0582  -15.7674   21.4446 N   0  0  0  0  0  0  0  0  0  0  0  0
  -31.7665  -15.8738   23.7793 N   0  3  0  0  0  0  0  0  0  0  0  0
  -37.5300  -27.7773   17.9809 N   0  3  0  0  0  0  0  0  0  0  0  0
  -29.2348  -20.6663   19.5623 N   0  3  0  0  0  0  0  0  0  0  0  0
  -22.5935  -14.6832   21.2312 O   0  0  0  0  0  0  0  0  0  0  0  0
  -30.2125  -26.4392   13.9182 O   0  0  0  0  0  0  0  0  0  0  0  0
  -33.5213  -28.9122   13.7508 O   0  0  0  0  0  0  0  0  0  0  0  0
  -35.8751  -25.9540   16.6194 O   0  0  0  0  0  0  0  0  0  0  0  0
  -31.8144  -15.0122   20.1788 O   0  0  0  0  0  0  0  0  0  0  0  0
  -21.6737   -6.9753   21.8046 O   0  0  0  0  0  0  0  0  0  0  0  0
  -30.1279  -23.4620   19.2861 O   0  0  0  0  0  0  0  0  0  1  0  0
  -16.5242   -6.6542   19.8595 F   0  0  0  0  0  0  0  0  0  0  0  0
  -20.9405   -4.9623   20.0573 F   0  0  0  0  0  0  0  0  0  0  0  0
  1  2  1  0  0  0  0
  1  5  2  0  0  0  0
  2  6  2  0  0  0  0
  3  8  2  0  0  0  0
  3 15  1  0  0  0  0
  4  9  1  0  0  0  0
  4 15  2  0  0  0  0
  5 17  1  0  0  0  0
  6 19  1  0  0  0  0
  7 10  2  0  0  0  0
  7 18  1  0  0  0  0
  8 21  1  0  0  0  0
  9 21  2  0  0  0  0
 10 22  1  0  0  0  0
 11 12  2  0  0  0  0
 11 23  1  0  0  0  0
 12 24  1  0  0  0  0
 13 20  1  0  0  0  0
 13 22  2  0  0  0  0
 14 24  2  0  0  0  0
 14 25  1  0  0  0  0
 15 26  1  0  0  0  0
 16 26  1  0  0  0  0
 16 27  2  0  0  0  0
 16 28  1  0  0  0  0
 17 19  2  0  0  0  0
 17 33  1  0  0  0  0
 18 20  2  0  0  0  0
 18 34  1  0  0  0  0
 19 46  1  0  0  0  0
 20 35  1  0  0  0  0
 21 87  1  0  0  0  0
 22 88  1  0  0  0  0
 23 25  2  0  0  0  0
 23 87  1  0  0  0  0
 24 89  1  0  0  0  0
 25 90  1  0  0  0  0
 26 70  2  0  0  0  0
 27 71  1  0  0  0  0
 27 74  1  0  0  0  0
 28 75  1  0  0  0  0
 28 82  2  0  0  0  0
 29 47  1  0  0  0  0
 29 76  1  0  0  0  0
 29 83  2  0  0  0  0
 30 63  1  0  0  0  0
 30 72  1  0  0  0  0
 30 84  2  0  0  0  0
 31 64  1  0  0  0  0
 31 77  1  0  0  0  0
 31 85  2  0  0  0  0
 32 73  1  0  0  0  0
 32 78  1  0  0  0  0
 32 86  2  0  0  0  0
 33 36  1  0  0  0  0
 34 47  1  0  0  0  0
 35 72  1  0  0  0  0
 36 38  1  0  0  0  0
 37 39  1  0  0  0  0
 37 42  1  0  0  0  0
 38 46  1  0  0  0  0
 39 49  1  0  0  0  0
 40 44  1  0  0  0  0
 40 48  1  0  0  0  0
 41 45  1  0  0  0  0
 41 48  1  0  0  0  0
 42 73  1  0  0  0  0
 43 49  1  0  0  0  0
 43 73  1  0  0  0  0
 44 79  1  0  0  0  0
 45 79  1  0  0  0  0
 46 76  1  0  0  0  0
 47 72  1  0  0  0  0
 48 50  1  0  0  0  0
 49 71  1  0  0  0  0
 51 59  1  0  0  0  0
 52 64  1  0  0  0  0
 53 65  1  0  0  0  0
 54 68  1  0  0  0  0
 55 69  1  0  0  0  0
 56 69  1  0  0  0  0
 57 69  1  0  0  0  0
 58 80  1  0  0  0  0
 59 67  1  0  0  0  0
 60 65  1  0  0  0  0
 60 66  1  0  0  0  0
 61 66  1  0  0  0  0
 61 79  1  0  0  0  0
 62 65  1  0  0  0  0
 62 81  1  0  0  0  0
 63 69  1  0  0  0  0
 63 77  1  0  0  0  0
 64 80  1  0  0  0  0
 66 78  1  0  0  0  0
 67 68  1  0  0  0  0
 67 81  1  0  0  0  0
 68 88  1  0  0  0  0
 70 71  1  0  0  0  0
M  CHG  3  79   1  80   1  81   1
M  ISO  4  32 100  68 101  78 100  88 101
M  END
> <Batch ID>
0113

> <Smiles>
CCC(NCC(C)CC(CN1CCC(C)CC1)[100NH:0][100C:0](=O)N1CCCC(n2nc(-c3ccc(Oc4ccc(F)cc4F)cc3)c(C(N)=O)c2N)C1)[101CH:1](C)[101O:1]c1ccc2c(c1)CN(C(=O)C(NC(=O)C(C)NC)C(C)(C)C)C(C(=O)NC1CCCc3ccccc31)C2

> <Shape>
0.226

> <Color>
0.180

> <Negative vol penalty>
0.000

$$$$

  -OEChem-04052320053D

 82 91  0     1  0  0  0  0  0999 V2000
  -24.9206  -31.3012   25.2771 C   0  0  0  0  0  0  0  0  0  0  0  0
  -25.7170  -30.3353   24.6704 C   0  0  0  0  0  0  0  0  0  0  0  0
  -23.1001   -9.8649   19.9235 C   0  0  0  0  0  0  0  0  0  0  0  0
  -23.7899   -9.8852   22.2388 C   0  0  0  0  0  0  0  0  0  0  0  0
  -23.7152  -30.9346   25.8743 C   0  0  0  0  0  0  0  0  0  0  0  0
  -25.3090  -29.0020   24.6614 C   0  0  0  0  0  0  0  0  0  0  0  0
  -25.6352  -23.0909   20.6279 C   0  0  0  0  0  0  0  0  0  0  0  0
  -22.3400   -8.7195   20.1600 C   0  0  0  0  0  0  0  0  0  0  0  0
  -23.0298   -8.7398   22.4753 C   0  0  0  0  0  0  0  0  0  0  0  0
  -25.9959  -21.7469   20.7138 C   0  0  0  0  0  0  0  0  0  0  0  0
  -19.9307   -5.9985   20.2377 C   0  0  0  0  0  0  0  0  0  0  0  0
  -18.6401   -5.9563   19.7103 C   0  0  0  0  0  0  0  0  0  0  0  0
  -23.8563  -21.2423   21.7070 C   0  0  0  0  0  0  0  0  0  0  0  0
  -18.0503   -7.9143   20.9970 C   0  0  0  0  0  0  0  0  0  0  0  0
  -23.8251  -10.4477   20.9629 C   0  0  0  0  0  0  0  0  0  0  0  0
  -24.1902  -12.9691   20.8330 C   0  0  0  0  0  0  0  0  0  0  0  0
  -23.2876  -29.5975   25.8642 C   0  0  0  0  0  0  0  0  0  0  0  0
  -24.3844  -23.5231   21.0917 C   0  0  0  0  0  0  0  0  0  0  0  0
  -24.0975  -28.6169   25.2602 C   0  0  0  0  0  0  0  0  0  0  0  0
  -23.4811  -22.5918   21.6236 C   0  0  0  0  0  0  0  0  0  0  0  0
  -22.3048   -8.1570   21.4359 C   0  0  0  0  0  0  0  0  0  0  0  0
  -25.1076  -20.8228   21.2560 C   0  0  0  0  0  0  0  0  0  0  0  0
  -20.2810   -6.9985   21.1449 C   0  0  0  0  0  0  0  0  0  0  0  0
  -17.6999   -6.9142   20.0898 C   0  0  0  0  0  0  0  0  0  0  0  0
  -19.3409   -7.9564   21.5244 C   0  0  0  0  0  0  0  0  0  0  0  0
  -24.6110  -11.6305   20.7191 C   0  0  0  0  0  0  0  0  0  0  0  0
  -25.2987  -13.7073   20.4972 C   0  0  0  0  0  0  0  0  0  0  0  0
  -22.9116  -13.4980   21.2089 C   0  0  0  0  0  0  0  0  0  0  0  0
  -23.4014  -25.5303   23.3520 C   0  0  0  0  0  0  0  0  0  0  0  0
  -26.9013  -17.8985   22.2611 C   0  0  0  0  0  0  0  0  0  0  0  0
  -20.4815  -24.9210   22.0771 C   0  0  0  0  0  0  0  0  0  0  0  0
  -18.4827  -22.8063   20.2939 C   0  0  0  0  0  0  0  0  0  0  0  0
  -30.6548  -14.7734   20.6759 C   0  0  0  0  0  0  0  0  0  0  0  0
  -21.9998  -29.2419   26.5640 C   0  0  0  0  0  0  0  0  0  0  0  0
  -23.9999  -24.9720   20.9675 C   0  0  0  0  0  0  0  0  0  0  0  0
  -22.1183  -23.0015   22.1170 C   0  0  0  0  0  0  0  0  0  0  0  0
  -21.4595  -27.8659   26.1832 C   0  0  0  0  0  0  0  0  0  0  0  0
  -29.6990  -12.3216   18.4409 C   0  0  0  0  0  0  0  0  0  0  0  0
  -22.5748  -26.8259   26.2191 C   0  0  0  0  0  0  0  0  0  0  0  0
  -26.8007  -16.4699   25.3391 C   0  0  0  0  0  0  0  0  0  0  0  0
  -27.5940  -15.2169   25.5855 C   0  0  0  0  0  0  0  0  0  0  0  0
  -28.2524  -12.0198   18.8314 C   0  0  0  0  0  0  0  0  0  0  0  0
  -30.5696  -12.5106   19.6779 C   0  0  0  0  0  0  0  0  0  0  0  0
  -29.4345  -18.0507   22.1429 C   0  0  0  0  0  0  0  0  0  0  0  0
  -30.2503  -17.1373   21.2298 C   0  0  0  0  0  0  0  0  0  0  0  0
  -28.6321  -13.2889   21.0025 C   0  0  0  0  0  0  0  0  0  0  0  0
  -29.6556  -15.4281   22.9173 C   0  0  0  0  0  0  0  0  0  0  0  0
  -23.6772  -27.1640   25.2083 C   0  0  1  0  0  0  0  0  0  0  0  0
  -22.9015  -25.3844   21.9426 C   0  0  1  0  0  0  0  0  0  0  0  0
  -28.1671  -16.3136   24.7313 C   0  0  0  0  0  0  0  0  0  0  0  0
  -27.7043  -13.0945   19.7864 C   0  0  2  0  0  0  0  0  0  0  0  0
  -28.3191  -16.1163   23.2447 C   0  0  1  0  0  0  0  0  0  0  0  0
  -16.1332  -22.5625   19.4466 C   0  0  0  0  0  0  0  0  0  0  0  0
  -19.5476  -24.1818   24.8863 C   0  0  0  0  0  0  0  0  0  0  0  0
  -17.5562  -23.0679   23.8558 C   0  0  0  0  0  0  0  0  0  0  0  0
  -17.9040  -25.5202   23.5590 C   0  0  0  0  0  0  0  0  0  0  0  0
  -19.3817  -22.7507   17.4748 C   0  0  0  0  0  0  0  0  0  0  0  0
  -26.8277  -19.1992   21.5031 C   0  0  0  0  0  0  0  0  0  1  0  0
  -19.3993  -23.8979   22.3244 C   0  0  1  0  0  0  0  0  0  0  0  0
  -17.5376  -23.0538   19.1320 C   0  0  2  0  0  0  0  0  0  0  0  0
  -18.6281  -24.1592   23.6489 C   0  0  0  0  0  0  0  0  0  0  0  0
  -25.8872  -11.5217   20.3404 N   0  0  0  0  0  0  0  0  0  0  0  0
  -26.2778  -12.8012   20.2132 N   0  0  0  0  0  0  0  0  0  0  0  0
  -21.7913  -24.4304   21.9798 N   0  0  0  0  0  0  0  0  0  0  0  0
  -28.1778  -17.4032   22.5346 N   0  0  0  0  0  0  0  0  0  0  0  0
  -30.0139  -13.5320   20.5653 N   0  0  0  0  0  0  0  0  0  0  0  0
  -30.0810  -15.7168   21.5422 N   0  0  0  0  0  0  0  0  0  0  0  0
  -25.5216  -15.0364   20.4198 N   0  0  0  0  0  0  0  0  0  0  0  0
  -21.8828  -12.5993   21.5225 N   0  0  0  0  0  0  0  0  0  0  0  0
  -23.2627  -26.8041   23.8692 N   0  0  0  0  0  0  0  0  0  0  0  0
  -18.5575  -23.8981   21.1328 N   0  0  0  0  0  0  0  0  0  0  0  0
  -18.0205  -22.3471   17.9120 N   0  3  0  0  0  0  0  0  0  0  0  0
  -22.6833  -14.7308   21.2491 O   0  0  0  0  0  0  0  0  0  0  0  0
  -23.8762  -24.5586   23.9282 O   0  0  0  0  0  0  0  0  0  0  0  0
  -25.8570  -17.3361   22.6007 O   0  0  0  0  0  0  0  0  0  0  0  0
  -20.1751  -26.1108   21.9670 O   0  0  0  0  0  0  0  0  0  0  0  0
  -19.0906  -21.7489   20.4445 O   0  0  0  0  0  0  0  0  0  0  0  0
  -31.6845  -15.0287   20.0384 O   0  0  0  0  0  0  0  0  0  0  0  0
  -21.5630   -7.0395   21.6670 O   0  0  0  0  0  0  0  0  0  0  0  0
  -25.4617  -19.4947   21.3427 O   0  0  0  0  0  0  0  0  0  1  0  0
  -16.4610   -6.8745   19.5821 F   0  0  0  0  0  0  0  0  0  0  0  0
  -19.6719   -8.9202   22.3946 F   0  0  0  0  0  0  0  0  0  0  0  0
  1  2  1  0  0  0  0
  1  5  2  0  0  0  0
  2  6  2  0  0  0  0
  3  8  2  0  0  0  0
  3 15  1  0  0  0  0
  4  9  1  0  0  0  0
  4 15  2  0  0  0  0
  5 17  1  0  0  0  0
  6 19  1  0  0  0  0
  7 10  2  0  0  0  0
  7 18  1  0  0  0  0
  8 21  1  0  0  0  0
  9 21  2  0  0  0  0
 10 22  1  0  0  0  0
 11 12  2  0  0  0  0
 11 23  1  0  0  0  0
 12 24  1  0  0  0  0
 13 20  1  0  0  0  0
 13 22  2  0  0  0  0
 14 24  2  0  0  0  0
 14 25  1  0  0  0  0
 15 26  1  0  0  0  0
 16 26  1  0  0  0  0
 16 27  2  0  0  0  0
 16 28  1  0  0  0  0
 17 19  2  0  0  0  0
 17 34  1  0  0  0  0
 18 20  2  0  0  0  0
 18 35  1  0  0  0  0
 19 48  1  0  0  0  0
 20 36  1  0  0  0  0
 21 79  1  0  0  0  0
 22 80  1  0  0  0  0
 23 25  2  0  0  0  0
 23 79  1  0  0  0  0
 24 81  1  0  0  0  0
 25 82  1  0  0  0  0
 26 62  2  0  0  0  0
 27 63  1  0  0  0  0
 27 68  1  0  0  0  0
 28 69  1  0  0  0  0
 28 73  2  0  0  0  0
 29 49  1  0  0  0  0
 29 70  1  0  0  0  0
 29 74  2  0  0  0  0
 30 58  1  0  0  0  0
 30 65  1  0  0  0  0
 30 75  2  0  0  0  0
 31 59  1  0  0  0  0
 31 64  1  0  0  0  0
 31 76  2  0  0  0  0
 32 60  1  0  0  0  0
 32 71  1  0  0  0  0
 32 77  2  0  0  0  0
 33 66  1  0  0  0  0
 33 67  1  0  0  0  0
 33 78  2  0  0  0  0
 34 37  1  0  0  0  0
 35 49  1  0  0  0  0
 36 64  1  0  0  0  0
 37 39  1  0  0  0  0
 38 42  1  0  0  0  0
 38 43  1  0  0  0  0
 39 48  1  0  0  0  0
 40 41  1  0  0  0  0
 40 50  1  0  0  0  0
 41 50  1  0  0  0  0
 42 51  1  0  0  0  0
 43 66  1  0  0  0  0
 44 45  1  0  0  0  0
 44 65  1  0  0  0  0
 45 67  1  0  0  0  0
 46 51  1  0  0  0  0
 46 66  1  0  0  0  0
 47 52  1  0  0  0  0
 47 67  1  0  0  0  0
 48 70  1  0  0  0  0
 49 64  1  0  0  0  0
 50 52  1  0  0  0  0
 51 63  1  0  0  0  0
 52 65  1  0  0  0  0
 53 60  1  0  0  0  0
 54 61  1  0  0  0  0
 55 61  1  0  0  0  0
 56 61  1  0  0  0  0
 57 72  1  0  0  0  0
 58 80  1  0  0  0  0
 59 61  1  0  0  0  0
 59 71  1  0  0  0  0
 60 72  1  0  0  0  0
 62 63  1  0  0  0  0
M  CHG  1  72   1
M  ISO  4  33 100  58 101  67 100  80 101
M  END
> <Batch ID>
0113

> <Smiles>
CNC(C)C(=O)NC(C(=O)N1Cc2cc([101O:1][101CH2:1]C(=O)N3CC[100N:0]([100C:0](=O)N4CCCC(n5nc(-c6ccc(Oc7ccc(F)cc7F)cc6)c(C(N)=O)c5N)C4)CC3C3CC3)ccc2CC1C(=O)NC1CCCc2ccccc21)C(C)(C)C

> <Shape>
0.192

> <Color>
0.198

> <Negative vol penalty>
0.000

$$$$

  -OEChem-04052320053D

 82 89  0     1  0  0  0  0  0999 V2000
  -27.6890  -16.2468   13.5405 C   0  0  0  0  0  0  0  0  0  0  0  0
  -28.0660  -17.5850   13.4909 C   0  0  0  0  0  0  0  0  0  0  0  0
  -23.4414  -12.9793   19.4347 C   0  0  0  0  0  0  0  0  0  0  0  0
  -24.6642  -14.0792   21.2045 C   0  0  0  0  0  0  0  0  0  0  0  0
  -26.9574  -15.7696   14.6272 C   0  0  0  0  0  0  0  0  0  0  0  0
  -27.7106  -18.4472   14.5276 C   0  0  0  0  0  0  0  0  0  0  0  0
  -30.0971  -24.1956   18.0740 C   0  0  0  0  0  0  0  0  0  0  0  0
  -24.5219  -12.1238   19.2198 C   0  0  0  0  0  0  0  0  0  0  0  0
  -25.7447  -13.2236   20.9896 C   0  0  0  0  0  0  0  0  0  0  0  0
  -29.6864  -25.4713   18.4581 C   0  0  0  0  0  0  0  0  0  0  0  0
  -28.9627  -11.5652   20.6672 C   0  0  0  0  0  0  0  0  0  0  0  0
  -30.2382  -12.1284   20.6299 C   0  0  0  0  0  0  0  0  0  0  0  0
  -28.4899  -24.5180   20.3232 C   0  0  0  0  0  0  0  0  0  0  0  0
  -29.5765  -13.5029   18.7564 C   0  0  0  0  0  0  0  0  0  0  0  0
  -23.5126  -13.9571   20.4271 C   0  0  0  0  0  0  0  0  0  0  0  0
  -21.3129  -14.6392   21.5243 C   0  0  0  0  0  0  0  0  0  0  0  0
  -26.6012  -16.6242   15.6824 C   0  0  0  0  0  0  0  0  0  0  0  0
  -29.6976  -23.0686   18.8066 C   0  0  0  0  0  0  0  0  0  0  0  0
  -26.9724  -17.9813   15.6289 C   0  0  0  0  0  0  0  0  0  0  0  0
  -28.8990  -23.2293   19.9478 C   0  0  0  0  0  0  0  0  0  0  0  0
  -25.6735  -12.2459   19.9972 C   0  0  0  0  0  0  0  0  0  0  0  0
  -28.8803  -25.6325   19.5812 C   0  0  0  0  0  0  0  0  0  0  0  0
  -27.9941  -11.9707   19.7491 C   0  0  0  0  0  0  0  0  0  0  0  0
  -30.5451  -13.0973   19.6745 C   0  0  0  0  0  0  0  0  0  0  0  0
  -28.3010  -12.9396   18.7937 C   0  0  0  0  0  0  0  0  0  0  0  0
  -22.3970  -14.8415   20.6492 C   0  0  0  0  0  0  0  0  0  0  0  0
  -20.5326  -15.7588   21.3688 C   0  0  0  0  0  0  0  0  0  0  0  0
  -25.2104  -27.4770   19.1453 C   0  0  0  0  0  0  0  0  0  0  0  0
  -26.3729  -27.9260   19.6386 C   0  0  0  0  0  0  0  0  0  0  0  0
  -21.0360  -13.5378   22.3994 C   0  0  0  0  0  0  0  0  0  0  0  0
  -23.9260  -27.8202   19.8155 C   0  0  0  0  0  0  0  0  0  0  0  0
  -27.9837  -20.4692   18.1667 C   0  0  0  0  0  0  0  0  0  0  0  0
  -28.9095  -19.5989   21.1514 C   0  0  0  0  0  0  0  0  0  0  0  0
  -29.9847  -20.5559   24.2457 C   0  0  0  0  0  0  0  0  0  0  0  0
  -21.2755  -21.4032   20.5834 C   0  0  0  0  0  0  0  0  0  0  0  0
  -25.7693  -16.0734   16.8135 C   0  0  0  0  0  0  0  0  0  0  0  0
  -30.1712  -21.7017   18.3946 C   0  0  0  0  0  0  0  0  0  0  0  0
  -28.4595  -22.0535   20.7802 C   0  0  0  0  0  0  0  0  0  0  0  0
  -25.7551  -16.9675   18.0506 C   0  0  0  0  0  0  0  0  0  0  0  0
  -20.0195  -19.2108   17.8951 C   0  0  0  0  0  0  0  0  0  0  0  0
  -25.5090  -18.4204   17.6565 C   0  0  0  0  0  0  0  0  0  0  0  0
  -20.4611  -17.8412   18.4021 C   0  0  0  0  0  0  0  0  0  0  0  0
  -21.0067  -20.3117   18.2803 C   0  0  0  0  0  0  0  0  0  0  0  0
  -21.7353  -18.9930   20.2519 C   0  0  0  0  0  0  0  0  0  0  0  0
  -26.6272  -18.9420   16.7460 C   0  0  1  0  0  0  0  0  0  0  0  0
  -29.2810  -20.5783   18.9170 C   0  0  1  0  0  0  0  0  0  0  0  0
  -20.7273  -17.8838   19.9145 C   0  0  2  0  0  0  0  0  0  0  0  0
  -28.4478  -28.8975   18.6482 C   0  0  0  0  0  0  0  0  0  0  0  0
  -30.6208  -19.6216   26.4862 C   0  0  0  0  0  0  0  0  0  0  0  0
  -25.9613  -19.1577   21.8018 C   0  0  0  0  0  0  0  0  0  0  0  0
  -26.5682  -19.1627   24.2307 C   0  0  0  0  0  0  0  0  0  0  0  0
  -27.5036  -17.4146   22.7168 C   0  0  0  0  0  0  0  0  0  0  0  0
  -32.7361  -21.6266   24.0405 C   0  0  0  0  0  0  0  0  0  0  0  0
  -21.4753  -27.4448   19.6023 C   0  0  0  0  0  0  0  0  0  0  0  0
  -21.0880  -26.3423   20.5697 C   0  0  0  0  0  0  0  0  0  0  0  0
  -20.8592  -23.8438   20.7445 C   0  0  0  0  0  0  0  0  0  0  0  0
  -27.7036  -27.6200   19.0144 C   0  0  1  0  0  0  0  0  0  1  0  0
  -28.3528  -19.7895   22.5416 C   0  0  1  0  0  0  0  0  0  0  0  0
  -31.1219  -20.0536   25.1169 C   0  0  2  0  0  0  0  0  0  0  0  0
  -27.1030  -18.9033   22.8061 C   0  0  0  0  0  0  0  0  0  0  0  0
  -22.3160  -15.9985   19.9868 N   0  0  0  0  0  0  0  0  0  0  0  0
  -21.1717  -16.5333   20.4458 N   0  0  0  0  0  0  0  0  0  0  0  0
  -28.9433  -20.7369   20.3330 N   0  0  0  0  0  0  0  0  0  0  0  0
  -21.3061  -20.2920   19.7208 N   0  0  0  0  0  0  0  0  0  0  0  0
  -19.3690  -16.1464   21.9329 N   0  0  0  0  0  0  0  0  0  0  0  0
  -21.9424  -12.4694   22.4361 N   0  0  0  0  0  0  0  0  0  0  0  0
  -22.8722  -27.2618   19.1491 N   0  0  0  0  0  0  0  0  0  0  0  0
  -27.8058  -19.2590   17.5238 N   0  0  0  0  0  0  0  0  0  0  0  0
  -29.4601  -19.5508   23.4610 N   0  0  0  0  0  0  0  0  0  0  0  0
  -20.9310  -22.6118   19.9897 N   0  0  0  0  0  0  0  0  0  0  0  0
  -32.1415  -21.1240   25.3057 N   0  3  0  0  0  0  0  0  0  0  0  0
  -21.1574  -25.0235   19.8827 N   0  3  0  0  0  0  0  0  0  0  0  0
  -20.0068  -13.4946   23.1152 O   0  0  0  0  0  0  0  0  0  0  0  0
  -23.8749  -28.5136   20.8261 O   0  0  0  0  0  0  0  0  0  0  0  0
  -27.2015  -21.4124   18.1721 O   0  0  0  0  0  0  0  0  0  0  0  0
  -29.3067  -18.4830   20.8067 O   0  0  0  0  0  0  0  0  0  0  0  0
  -29.5978  -21.7223   24.2626 O   0  0  0  0  0  0  0  0  0  0  0  0
  -21.5376  -21.3238   21.7882 O   0  0  0  0  0  0  0  0  0  0  0  0
  -26.7280  -11.4111   19.7879 O   0  0  0  0  0  0  0  0  0  0  0  0
  -28.4750  -26.8839   19.9601 O   0  0  0  0  0  0  0  0  0  1  0  0
  -31.7696  -13.6392   19.6398 F   0  0  0  0  0  0  0  0  0  0  0  0
  -27.3742  -13.3341   17.9098 F   0  0  0  0  0  0  0  0  0  0  0  0
  1  2  1  0  0  0  0
  1  5  2  0  0  0  0
  2  6  2  0  0  0  0
  3  8  2  0  0  0  0
  3 15  1  0  0  0  0
  4  9  1  0  0  0  0
  4 15  2  0  0  0  0
  5 17  1  0  0  0  0
  6 19  1  0  0  0  0
  7 10  2  0  0  0  0
  7 18  1  0  0  0  0
  8 21  1  0  0  0  0
  9 21  2  0  0  0  0
 10 22  1  0  0  0  0
 11 12  2  0  0  0  0
 11 23  1  0  0  0  0
 12 24  1  0  0  0  0
 13 20  1  0  0  0  0
 13 22  2  0  0  0  0
 14 24  2  0  0  0  0
 14 25  1  0  0  0  0
 15 26  1  0  0  0  0
 16 26  1  0  0  0  0
 16 27  2  0  0  0  0
 16 30  1  0  0  0  0
 17 19  2  0  0  0  0
 17 36  1  0  0  0  0
 18 20  2  0  0  0  0
 18 37  1  0  0  0  0
 19 45  1  0  0  0  0
 20 38  1  0  0  0  0
 21 79  1  0  0  0  0
 22 80  1  0  0  0  0
 23 25  2  0  0  0  0
 23 79  1  0  0  0  0
 24 81  1  0  0  0  0
 25 82  1  0  0  0  0
 26 61  2  0  0  0  0
 27 62  1  0  0  0  0
 27 65  1  0  0  0  0
 28 29  2  0  0  0  0
 28 31  1  0  0  0  0
 29 57  1  0  0  0  0
 30 66  1  0  0  0  0
 30 73  2  0  0  0  0
 31 67  1  0  0  0  0
 31 74  2  0  0  0  0
 32 46  1  0  0  0  0
 32 68  1  0  0  0  0
 32 75  2  0  0  0  0
 33 58  1  0  0  0  0
 33 63  1  0  0  0  0
 33 76  2  0  0  0  0
 34 59  1  0  0  0  0
 34 69  1  0  0  0  0
 34 77  2  0  0  0  0
 35 64  1  0  0  0  0
 35 70  1  0  0  0  0
 35 78  2  0  0  0  0
 36 39  1  0  0  0  0
 37 46  1  0  0  0  0
 38 63  1  0  0  0  0
 39 41  1  0  0  0  0
 40 42  1  0  0  0  0
 40 43  1  0  0  0  0
 41 45  1  0  0  0  0
 42 47  1  0  0  0  0
 43 64  1  0  0  0  0
 44 47  1  0  0  0  0
 44 64  1  0  0  0  0
 45 68  1  0  0  0  0
 46 63  1  0  0  0  0
 47 62  1  0  0  0  0
 48 57  1  0  0  0  0
 49 59  1  0  0  0  0
 50 60  1  0  0  0  0
 51 60  1  0  0  0  0
 52 60  1  0  0  0  0
 53 71  1  0  0  0  0
 54 55  1  0  0  0  0
 54 67  1  0  0  0  0
 55 72  1  0  0  0  0
 56 70  1  0  0  0  0
 56 72  1  0  0  0  0
 57 80  1  0  0  0  0
 58 60  1  0  0  0  0
 58 69  1  0  0  0  0
 59 71  1  0  0  0  0
 61 62  1  0  0  0  0
M  CHG  2  71   1  72   1
M  ISO  4  35 100  57 101  70 100  80 101
M  END
> <Batch ID>
0113

> <Smiles>
CNC(C)C(=O)NC(C(=O)N1Cc2cc([101O:1][101CH:1](C)C=CC(=O)NCCNC[100NH:0][100C:0](=O)N3CCCC(n4nc(-c5ccc(Oc6ccc(F)cc6F)cc5)c(C(N)=O)c4N)C3)ccc2CC1C(=O)NC1CCCc2ccccc21)C(C)(C)C

> <Shape>
0.192

> <Color>
0.065

> <Negative vol penalty>
0.000

$$$$

  -OEChem-04052320053D

 82 90  0     1  0  0  0  0  0999 V2000
  -30.0484  -31.6676   11.3672 C   0  0  0  0  0  0  0  0  0  0  0  0
  -30.6943  -30.7097   12.1422 C   0  0  0  0  0  0  0  0  0  0  0  0
  -23.0277   -9.8789   19.9702 C   0  0  0  0  0  0  0  0  0  0  0  0
  -23.7560   -9.9289   22.2733 C   0  0  0  0  0  0  0  0  0  0  0  0
  -28.9379  -32.3405   11.8751 C   0  0  0  0  0  0  0  0  0  0  0  0
  -30.2308  -30.4250   13.4262 C   0  0  0  0  0  0  0  0  0  0  0  0
  -30.2761  -24.9825   16.2339 C   0  0  0  0  0  0  0  0  0  0  0  0
  -30.1774  -18.9866   23.0953 C   0  0  0  0  0  0  0  0  0  0  0  0
  -22.2749   -8.7344   20.2331 C   0  0  0  0  0  0  0  0  0  0  0  0
  -23.0032   -8.7844   22.5362 C   0  0  0  0  0  0  0  0  0  0  0  0
  -31.1429  -24.4158   17.1673 C   0  0  0  0  0  0  0  0  0  0  0  0
  -23.2858   -5.4505   22.0501 C   0  0  0  0  0  0  0  0  0  0  0  0
  -23.8864   -4.4372   22.7971 C   0  0  0  0  0  0  0  0  0  0  0  0
  -29.7032  -17.7460   22.6836 C   0  0  0  0  0  0  0  0  0  0  0  0
  -29.6751  -25.1184   18.9480 C   0  0  0  0  0  0  0  0  0  0  0  0
  -22.1626   -4.6531   24.4761 C   0  0  0  0  0  0  0  0  0  0  0  0
  -32.1979  -18.5459   21.9206 C   0  0  0  0  0  0  0  0  0  0  0  0
  -23.7683  -10.4761   20.9903 C   0  0  0  0  0  0  0  0  0  0  0  0
  -24.1239  -12.9967   20.8240 C   0  0  0  0  0  0  0  0  0  0  0  0
  -28.4547  -32.0570   13.1622 C   0  0  0  0  0  0  0  0  0  0  0  0
  -29.1058  -25.6321   16.6520 C   0  0  0  0  0  0  0  0  0  0  0  0
  -29.1136  -31.0957   13.9523 C   0  0  0  0  0  0  0  0  0  0  0  0
  -28.7938  -25.6903   18.0178 C   0  0  0  0  0  0  0  0  0  0  0  0
  -31.4475  -19.4016   22.7109 C   0  0  0  0  0  0  0  0  0  0  0  0
  -22.2626   -8.1872   21.5161 C   0  0  0  0  0  0  0  0  0  0  0  0
  -30.8439  -24.4862   18.5248 C   0  0  0  0  0  0  0  0  0  0  0  0
  -22.1236   -6.0652   22.5162 C   0  0  0  0  0  0  0  0  0  0  0  0
  -23.3248   -4.0384   24.0100 C   0  0  0  0  0  0  0  0  0  0  0  0
  -21.5620   -5.6665   23.7291 C   0  0  0  0  0  0  0  0  0  0  0  0
  -24.5466  -11.6580   20.7192 C   0  0  0  0  0  0  0  0  0  0  0  0
  -30.5316  -16.9645   21.8944 C   0  0  0  0  0  0  0  0  0  0  0  0
  -25.2245  -13.7337   20.4608 C   0  0  0  0  0  0  0  0  0  0  0  0
  -22.8503  -13.5267   21.2149 C   0  0  0  0  0  0  0  0  0  0  0  0
  -27.9857  -28.5987   16.4313 C   0  0  0  0  0  0  0  0  0  0  0  0
  -25.3245  -27.2745   17.7301 C   0  0  0  0  0  0  0  0  0  0  0  0
  -31.9301  -22.3035   21.2088 C   0  0  0  0  0  0  0  0  0  0  0  0
  -23.9497  -24.7670   19.5926 C   0  0  0  0  0  0  0  0  0  0  0  0
  -30.6928  -14.7579   20.6898 C   0  0  0  0  0  0  0  0  0  0  0  0
  -27.2796  -32.8440   13.6861 C   0  0  0  0  0  0  0  0  0  0  0  0
  -28.1677  -26.2149   15.6308 C   0  0  0  0  0  0  0  0  0  0  0  0
  -27.5398  -26.3587   18.5170 C   0  0  0  0  0  0  0  0  0  0  0  0
  -26.6247  -32.2162   14.9138 C   0  0  0  0  0  0  0  0  0  0  0  0
  -29.5993  -12.3016   18.3556 C   0  0  0  0  0  0  0  0  0  0  0  0
  -27.6837  -31.7984   15.9290 C   0  0  0  0  0  0  0  0  0  0  0  0
  -28.1525  -12.0253   18.7711 C   0  0  0  0  0  0  0  0  0  0  0  0
  -30.4990  -12.5506   19.5649 C   0  0  0  0  0  0  0  0  0  0  0  0
  -28.5768  -13.3115   20.9048 C   0  0  0  0  0  0  0  0  0  0  0  0
  -28.6257  -30.7413   15.3403 C   0  0  1  0  0  0  0  0  0  0  0  0
  -27.2624  -27.3017   16.2026 C   0  0  1  0  0  0  0  0  0  0  0  0
  -27.6194  -13.1188   19.7174 C   0  0  2  0  0  0  0  0  0  0  0  0
  -21.7546  -23.9748   20.5152 C   0  0  0  0  0  0  0  0  0  0  0  0
  -25.4531  -29.4329   19.8829 C   0  0  0  0  0  0  0  0  0  0  0  0
  -23.8729  -28.0595   21.2559 C   0  0  0  0  0  0  0  0  0  0  0  0
  -23.1522  -28.9401   19.0360 C   0  0  0  0  0  0  0  0  0  0  0  0
  -24.0986  -22.2272   18.0805 C   0  0  0  0  0  0  0  0  0  0  0  0
  -31.9869  -20.7358   23.1388 C   0  0  0  0  0  0  0  0  0  0  0  0
  -31.1084  -23.4434   20.6458 C   0  0  0  0  0  0  0  0  0  1  0  0
  -24.8216  -27.0439   19.1347 C   0  0  1  0  0  0  0  0  0  0  0  0
  -22.7358  -23.8864   19.3567 C   0  0  2  0  0  0  0  0  0  0  0  0
  -24.3497  -28.3581   19.8184 C   0  0  0  0  0  0  0  0  0  0  0  0
  -31.7712  -17.3337   21.5010 N   0  0  0  0  0  0  0  0  0  0  0  0
  -25.8166  -11.5480   20.3205 N   0  0  0  0  0  0  0  0  0  0  0  0
  -26.2014  -12.8270   20.1715 N   0  0  0  0  0  0  0  0  0  0  0  0
  -26.6575  -26.9191   17.4801 N   0  0  0  0  0  0  0  0  0  0  0  0
  -29.9330  -13.6015   20.4135 N   0  0  0  0  0  0  0  0  0  0  0  0
  -25.4423  -15.0625   20.3638 N   0  0  0  0  0  0  0  0  0  0  0  0
  -21.8295  -12.6291   21.5564 N   0  0  0  0  0  0  0  0  0  0  0  0
  -30.0387  -15.7022   21.4804 N   0  0  0  0  0  0  0  0  0  0  0  0
  -27.9882  -29.4421   15.3367 N   0  0  0  0  0  0  0  0  0  0  0  0
  -31.3949  -21.8225   22.3935 N   0  0  0  0  0  0  0  0  0  0  0  0
  -23.7892  -26.0179   19.0353 N   0  0  0  0  0  0  0  0  0  0  0  0
  -23.1507  -22.4636   19.1996 N   0  3  0  0  0  0  0  0  0  0  0  0
  -22.6192  -14.7593   21.2441 O   0  0  0  0  0  0  0  0  0  0  0  0
  -28.5020  -28.8186   17.5207 O   0  0  0  0  0  0  0  0  0  0  0  0
  -24.5605  -27.7458   16.8840 O   0  0  0  0  0  0  0  0  0  0  0  0
  -32.9435  -21.8803   20.6594 O   0  0  0  0  0  0  0  0  0  0  0  0
  -24.9396  -24.3846   20.2126 O   0  0  0  0  0  0  0  0  0  0  0  0
  -31.8290  -14.9119   20.2345 O   0  0  0  0  0  0  0  0  0  0  0  0
  -21.5280   -7.0706   21.7731 O   0  0  0  0  0  0  0  0  0  0  0  0
  -31.6886  -23.9345   19.4380 O   0  0  0  0  0  0  0  0  0  1  0  0
  -23.9009   -3.0642   24.7265 F   0  0  0  0  0  0  0  0  0  0  0  0
  -20.4449   -6.2524   24.1814 F   0  0  0  0  0  0  0  0  0  0  0  0
  1  2  1  0  0  0  0
  1  5  2  0  0  0  0
  2  6  2  0  0  0  0
  3  9  2  0  0  0  0
  3 18  1  0  0  0  0
  4 10  1  0  0  0  0
  4 18  2  0  0  0  0
  5 20  1  0  0  0  0
  6 22  1  0  0  0  0
  7 11  2  0  0  0  0
  7 21  1  0  0  0  0
  8 14  2  0  0  0  0
  8 24  1  0  0  0  0
  9 25  1  0  0  0  0
 10 25  2  0  0  0  0
 11 26  1  0  0  0  0
 12 13  2  0  0  0  0
 12 27  1  0  0  0  0
 13 28  1  0  0  0  0
 14 31  1  0  0  0  0
 15 23  1  0  0  0  0
 15 26  2  0  0  0  0
 16 28  2  0  0  0  0
 16 29  1  0  0  0  0
 17 24  2  0  0  0  0
 17 61  1  0  0  0  0
 18 30  1  0  0  0  0
 19 30  1  0  0  0  0
 19 32  2  0  0  0  0
 19 33  1  0  0  0  0
 20 22  2  0  0  0  0
 20 39  1  0  0  0  0
 21 23  2  0  0  0  0
 21 40  1  0  0  0  0
 22 48  1  0  0  0  0
 23 41  1  0  0  0  0
 24 56  1  0  0  0  0
 25 79  1  0  0  0  0
 26 80  1  0  0  0  0
 27 29  2  0  0  0  0
 27 79  1  0  0  0  0
 28 81  1  0  0  0  0
 29 82  1  0  0  0  0
 30 62  2  0  0  0  0
 31 61  2  0  0  0  0
 31 68  1  0  0  0  0
 32 63  1  0  0  0  0
 32 66  1  0  0  0  0
 33 67  1  0  0  0  0
 33 73  2  0  0  0  0
 34 49  1  0  0  0  0
 34 69  1  0  0  0  0
 34 74  2  0  0  0  0
 35 58  1  0  0  0  0
 35 64  1  0  0  0  0
 35 75  2  0  0  0  0
 36 57  1  0  0  0  0
 36 70  1  0  0  0  0
 36 76  2  0  0  0  0
 37 59  1  0  0  0  0
 37 71  1  0  0  0  0
 37 77  2  0  0  0  0
 38 65  1  0  0  0  0
 38 68  1  0  0  0  0
 38 78  2  0  0  0  0
 39 42  1  0  0  0  0
 40 49  1  0  0  0  0
 41 64  1  0  0  0  0
 42 44  1  0  0  0  0
 43 45  1  0  0  0  0
 43 46  1  0  0  0  0
 44 48  1  0  0  0  0
 45 50  1  0  0  0  0
 46 65  1  0  0  0  0
 47 50  1  0  0  0  0
 47 65  1  0  0  0  0
 48 69  1  0  0  0  0
 49 64  1  0  0  0  0
 50 63  1  0  0  0  0
 51 59  1  0  0  0  0
 52 60  1  0  0  0  0
 53 60  1  0  0  0  0
 54 60  1  0  0  0  0
 55 72  1  0  0  0  0
 56 70  1  0  0  0  0
 57 80  1  0  0  0  0
 58 60  1  0  0  0  0
 58 71  1  0  0  0  0
 59 72  1  0  0  0  0
 62 63  1  0  0  0  0
M  CHG  1  72   1
M  ISO  4  38 100  57 101  68 100  80 101
M  END
> <Batch ID>
0113

> <Smiles>
CNC(C)C(=O)NC(C(=O)N1Cc2cc([101O:1][101CH2:1]C(=O)NCc3ccc([100NH:0][100C:0](=O)N4CCCC(n5nc(-c6ccc(Oc7ccc(F)cc7F)cc6)c(C(N)=O)c5N)C4)nc3)ccc2CC1C(=O)NC1CCCc2ccccc21)C(C)(C)C

> <Shape>
0.248

> <Color>
0.195

> <Negative vol penalty>
0.000

$$$$

  -OEChem-04052320053D

 86 94  0     1  0  0  0  0  0999 V2000
  -18.6709  -31.1474   22.9799 C   0  0  0  0  0  0  0  0  0  0  0  0
  -20.0448  -31.0238   22.7995 C   0  0  0  0  0  0  0  0  0  0  0  0
  -24.6844  -14.0068   21.5470 C   0  0  0  0  0  0  0  0  0  0  0  0
  -26.8142  -13.6331   20.4695 C   0  0  0  0  0  0  0  0  0  0  0  0
  -17.8690  -30.0076   23.0208 C   0  0  0  0  0  0  0  0  0  0  0  0
  -20.6178  -29.7601   22.6611 C   0  0  0  0  0  0  0  0  0  0  0  0
  -25.4250  -28.2592   19.1762 C   0  0  0  0  0  0  0  0  0  0  0  0
  -24.1847  -12.8427   20.9633 C   0  0  0  0  0  0  0  0  0  0  0  0
  -26.3146  -12.4690   19.8858 C   0  0  0  0  0  0  0  0  0  0  0  0
  -26.7766  -28.0820   19.4686 C   0  0  0  0  0  0  0  0  0  0  0  0
  -24.3769   -9.5091   21.4949 C   0  0  0  0  0  0  0  0  0  0  0  0
  -23.6452   -8.6404   22.3045 C   0  0  0  0  0  0  0  0  0  0  0  0
  -26.4143  -25.7059   19.6739 C   0  0  0  0  0  0  0  0  0  0  0  0
  -30.4708  -25.5863   17.0221 C   0  0  0  0  0  0  0  0  0  0  0  0
  -21.7290   -8.9054   20.8571 C   0  0  0  0  0  0  0  0  0  0  0  0
  -30.9824  -23.5205   17.7573 C   0  0  0  0  0  0  0  0  0  0  0  0
  -25.9991  -14.4021   21.3001 C   0  0  0  0  0  0  0  0  0  0  0  0
  -27.1653  -15.7216   23.1458 C   0  0  0  0  0  0  0  0  0  0  0  0
  -18.4313  -28.7298   22.8731 C   0  0  0  0  0  0  0  0  0  0  0  0
  -24.5543  -27.1606   19.1411 C   0  0  0  0  0  0  0  0  0  0  0  0
  -19.8229  -28.6020   22.7014 C   0  0  0  0  0  0  0  0  0  0  0  0
  -25.0526  -25.8716   19.3783 C   0  0  0  0  0  0  0  0  0  0  0  0
  -30.5755  -24.2245   16.6455 C   0  0  0  0  0  0  0  0  0  0  0  0
  -24.9999  -12.0738   20.1327 C   0  0  0  0  0  0  0  0  0  0  0  0
  -27.2709  -26.8055   19.7204 C   0  0  0  0  0  0  0  0  0  0  0  0
  -23.7847  -10.0760   20.3663 C   0  0  0  0  0  0  0  0  0  0  0  0
  -22.3213   -8.3385   21.9856 C   0  0  0  0  0  0  0  0  0  0  0  0
  -22.4608   -9.7742   20.0474 C   0  0  0  0  0  0  0  0  0  0  0  0
  -26.5156  -15.6048   21.9024 C   0  0  0  0  0  0  0  0  0  0  0  0
  -30.8172  -25.6729   18.3524 C   0  0  0  0  0  0  0  0  0  0  0  0
  -27.4570  -17.0592   23.2565 C   0  0  0  0  0  0  0  0  0  0  0  0
  -27.4774  -14.7113   24.1141 C   0  0  0  0  0  0  0  0  0  0  0  0
  -21.9717  -26.2920   20.7780 C   0  0  0  0  0  0  0  0  0  0  0  0
  -21.8743  -23.8926   18.5972 C   0  0  0  0  0  0  0  0  0  0  0  0
  -23.5576  -21.9392   16.3618 C   0  0  0  0  0  0  0  0  0  0  0  0
  -29.4284  -21.6913   21.1108 C   0  0  0  0  0  0  0  0  0  0  0  0
  -17.5301  -27.5244   22.9715 C   0  0  0  0  0  0  0  0  0  0  0  0
  -23.1042  -27.3654   18.7979 C   0  0  0  0  0  0  0  0  0  0  0  0
  -24.1634  -24.6568   19.3328 C   0  0  0  0  0  0  0  0  0  0  0  0
  -18.1676  -26.2425   22.4418 C   0  0  0  0  0  0  0  0  0  0  0  0
  -25.9311  -21.0046   20.4823 C   0  0  0  0  0  0  0  0  0  0  0  0
  -19.5864  -26.0897   22.9807 C   0  0  0  0  0  0  0  0  0  0  0  0
  -25.8289  -19.5373   20.9028 C   0  0  0  0  0  0  0  0  0  0  0  0
  -27.2617  -21.2906   19.7925 C   0  0  0  0  0  0  0  0  0  0  0  0
  -28.3628  -19.4557   21.0150 C   0  0  0  0  0  0  0  0  0  0  0  0
  -20.4784  -27.2498   22.5226 C   0  0  1  0  0  0  0  0  0  0  0  0
  -22.2072  -26.2360   19.2951 C   0  0  1  0  0  0  0  0  0  0  0  0
  -27.0492  -19.1076   21.7385 C   0  0  2  0  0  0  0  0  0  0  0  0
  -31.9203  -27.8952   18.7724 C   0  0  0  0  0  0  0  0  0  0  0  0
  -23.8971  -20.2272   14.5587 C   0  0  0  0  0  0  0  0  0  0  0  0
  -28.5983  -23.3299   13.3733 C   0  0  0  0  0  0  0  0  0  0  0  0
  -27.8016  -23.3506   15.7340 C   0  0  0  0  0  0  0  0  0  0  0  0
  -21.7757  -21.9377   20.9379 C   0  0  0  0  0  0  0  0  0  0  0  0
  -22.3910  -20.1072   19.3445 C   0  0  0  0  0  0  0  0  0  0  0  0
  -20.2583  -21.3636   19.0346 C   0  0  0  0  0  0  0  0  0  0  0  0
  -23.1598  -23.9447   14.2220 C   0  0  0  0  0  0  0  0  0  0  0  0
  -31.5421  -24.0556   20.1279 C   0  0  0  0  0  0  0  0  0  0  0  0
  -30.3791  -23.9833   21.1140 C   0  0  0  0  0  0  0  0  0  0  0  0
  -29.5088  -27.5557   19.4287 C   0  0  0  0  0  0  0  0  0  1  0  0
  -30.2994  -23.6627   15.3096 C   0  0  1  0  0  0  0  0  0  0  0  0
  -30.8803  -26.8861   19.2671 C   0  0  1  0  0  0  0  0  0  0  0  0
  -22.4546  -22.5016   18.5115 C   0  0  1  0  0  0  0  0  0  0  0  0
  -23.2447  -21.5503   14.9282 C   0  0  2  0  0  0  0  0  0  0  0  0
  -28.8502  -23.9206   14.7674 C   0  0  0  0  0  0  0  0  0  0  0  0
  -21.7365  -21.5005   19.4600 C   0  0  0  0  0  0  0  0  0  0  0  0
  -26.4009  -16.7750   21.2687 N   0  0  0  0  0  0  0  0  0  0  0  0
  -31.1265  -24.4112   18.7888 N   0  0  0  0  0  0  0  0  0  0  0  0
  -26.9824  -17.6397   22.1173 N   0  0  0  0  0  0  0  0  0  0  0  0
  -22.7520  -24.9095   18.9990 N   0  0  0  0  0  0  0  0  0  0  0  0
  -28.3824  -20.8757   20.6481 N   0  0  0  0  0  0  0  0  0  0  0  0
  -28.0705  -17.7836   24.2163 N   0  0  0  0  0  0  0  0  0  0  0  0
  -27.1065  -13.3874   23.8416 N   0  0  0  0  0  0  0  0  0  0  0  0
  -20.8850  -27.0619   21.1465 N   0  0  0  0  0  0  0  0  0  0  0  0
  -22.4097  -22.1268   17.1023 N   0  0  0  0  0  0  0  0  0  0  0  0
  -29.3767  -23.0215   20.7126 N   0  0  0  0  0  0  0  0  0  0  0  0
  -31.2855  -24.1551   14.2713 N   0  3  0  0  0  0  0  0  0  0  0  0
  -23.7380  -22.5963   13.9882 N   0  3  0  0  0  0  0  0  0  0  0  0
  -28.0531  -14.9772   25.1964 O   0  0  0  0  0  0  0  0  0  0  0  0
  -22.7196  -25.6806   21.5321 O   0  0  0  0  0  0  0  0  0  0  0  0
  -20.6878  -24.0716   18.3111 O   0  0  0  0  0  0  0  0  0  0  0  0
  -24.7056  -22.0606   16.7836 O   0  0  0  0  0  0  0  0  0  0  0  0
  -30.3388  -21.2666   21.8304 O   0  0  0  0  0  0  0  0  0  0  0  0
  -24.5127  -10.9376   19.5631 O   0  0  0  0  0  0  0  0  0  0  0  0
  -28.5896  -26.6298   20.0067 O   0  0  0  0  0  0  0  0  0  1  0  0
  -21.6192   -7.5031   22.7624 F   0  0  0  0  0  0  0  0  0  0  0  0
  -21.8868  -10.3148   18.9639 F   0  0  0  0  0  0  0  0  0  0  0  0
  1  2  1  0  0  0  0
  1  5  2  0  0  0  0
  2  6  2  0  0  0  0
  3  8  2  0  0  0  0
  3 17  1  0  0  0  0
  4  9  1  0  0  0  0
  4 17  2  0  0  0  0
  5 19  1  0  0  0  0
  6 21  1  0  0  0  0
  7 10  2  0  0  0  0
  7 20  1  0  0  0  0
  8 24  1  0  0  0  0
  9 24  2  0  0  0  0
 10 25  1  0  0  0  0
 11 12  2  0  0  0  0
 11 26  1  0  0  0  0
 12 27  1  0  0  0  0
 13 22  1  0  0  0  0
 13 25  2  0  0  0  0
 14 23  1  0  0  0  0
 14 30  2  0  0  0  0
 15 27  2  0  0  0  0
 15 28  1  0  0  0  0
 16 23  2  0  0  0  0
 16 67  1  0  0  0  0
 17 29  1  0  0  0  0
 18 29  1  0  0  0  0
 18 31  2  0  0  0  0
 18 32  1  0  0  0  0
 19 21  2  0  0  0  0
 19 37  1  0  0  0  0
 20 22  2  0  0  0  0
 20 38  1  0  0  0  0
 21 46  1  0  0  0  0
 22 39  1  0  0  0  0
 23 60  1  0  0  0  0
 24 83  1  0  0  0  0
 25 84  1  0  0  0  0
 26 28  2  0  0  0  0
 26 83  1  0  0  0  0
 27 85  1  0  0  0  0
 28 86  1  0  0  0  0
 29 66  2  0  0  0  0
 30 61  1  0  0  0  0
 30 67  1  0  0  0  0
 31 68  1  0  0  0  0
 31 71  1  0  0  0  0
 32 72  1  0  0  0  0
 32 78  2  0  0  0  0
 33 47  1  0  0  0  0
 33 73  1  0  0  0  0
 33 79  2  0  0  0  0
 34 62  1  0  0  0  0
 34 69  1  0  0  0  0
 34 80  2  0  0  0  0
 35 63  1  0  0  0  0
 35 74  1  0  0  0  0
 35 81  2  0  0  0  0
 36 70  1  0  0  0  0
 36 75  1  0  0  0  0
 36 82  2  0  0  0  0
 37 40  1  0  0  0  0
 38 47  1  0  0  0  0
 39 69  1  0  0  0  0
 40 42  1  0  0  0  0
 41 43  1  0  0  0  0
 41 44  1  0  0  0  0
 42 46  1  0  0  0  0
 43 48  1  0  0  0  0
 44 70  1  0  0  0  0
 45 48  1  0  0  0  0
 45 70  1  0  0  0  0
 46 73  1  0  0  0  0
 47 69  1  0  0  0  0
 48 68  1  0  0  0  0
 49 61  1  0  0  0  0
 50 63  1  0  0  0  0
 51 64  1  0  0  0  0
 52 64  1  0  0  0  0
 53 65  1  0  0  0  0
 54 65  1  0  0  0  0
 55 65  1  0  0  0  0
 56 77  1  0  0  0  0
 57 58  1  0  0  0  0
 57 67  1  0  0  0  0
 58 75  1  0  0  0  0
 59 61  1  0  0  0  0
 59 84  1  0  0  0  0
 60 64  1  0  0  0  0
 60 76  1  0  0  0  0
 62 65  1  0  0  0  0
 62 74  1  0  0  0  0
 63 77  1  0  0  0  0
 66 68  1  0  0  0  0
M  CHG  2  76   1  77   1
M  ISO  4  36 100  59 101  75 100  84 101
M  END
> <Batch ID>
0113

> <Smiles>
CNC(C)C(=O)NC(C(=O)N1Cc2cc([101O:1][101CH2:1]C(C)c3cc(C(N)C(C)C)cn3CC[100NH:0][100C:0](=O)N3CCCC(n4nc(-c5ccc(Oc6ccc(F)cc6F)cc5)c(C(N)=O)c4N)C3)ccc2CC1C(=O)NC1CCCc2ccccc21)C(C)(C)C

> <Shape>
0.247

> <Color>
0.067

> <Negative vol penalty>
0.000

$$$$

  -OEChem-04052320053D

 86 94  0     1  0  0  0  0  0999 V2000
  -17.2236  -30.0362   23.8277 C   0  0  0  0  0  0  0  0  0  0  0  0
  -18.2255  -29.9197   24.7858 C   0  0  0  0  0  0  0  0  0  0  0  0
  -27.3305  -17.7546   20.0115 C   0  0  0  0  0  0  0  0  0  0  0  0
  -28.4145  -17.7662   22.1706 C   0  0  0  0  0  0  0  0  0  0  0  0
  -17.2664  -29.2504   22.6768 C   0  0  0  0  0  0  0  0  0  0  0  0
  -19.2703  -29.0163   24.5941 C   0  0  0  0  0  0  0  0  0  0  0  0
  -26.2481  -28.1748   25.9795 C   0  0  0  0  0  0  0  0  0  0  0  0
  -27.1903  -16.3690   20.0893 C   0  0  0  0  0  0  0  0  0  0  0  0
  -28.2742  -16.3806   22.2485 C   0  0  0  0  0  0  0  0  0  0  0  0
  -27.1307  -27.2556   26.5451 C   0  0  0  0  0  0  0  0  0  0  0  0
  -26.2232  -12.8710   19.8816 C   0  0  0  0  0  0  0  0  0  0  0  0
  -24.9912  -12.3228   19.5247 C   0  0  0  0  0  0  0  0  0  0  0  0
  -27.1432  -26.0068   24.4812 C   0  0  0  0  0  0  0  0  0  0  0  0
  -33.3821  -25.0570   24.2249 C   0  0  0  0  0  0  0  0  0  0  0  0
  -23.9158  -13.6049   21.2673 C   0  0  0  0  0  0  0  0  0  0  0  0
  -27.9427  -18.4532   21.0521 C   0  0  0  0  0  0  0  0  0  0  0  0
  -27.1778  -20.8583   21.4242 C   0  0  0  0  0  0  0  0  0  0  0  0
  -18.3174  -28.3438   22.4664 C   0  0  0  0  0  0  0  0  0  0  0  0
  -25.7971  -28.0106   24.6619 C   0  0  0  0  0  0  0  0  0  0  0  0
  -19.3265  -28.2166   23.4400 C   0  0  0  0  0  0  0  0  0  0  0  0
  -26.2569  -26.9267   23.9004 C   0  0  0  0  0  0  0  0  0  0  0  0
  -33.0489  -26.2700   24.8173 C   0  0  0  0  0  0  0  0  0  0  0  0
  -33.6072  -27.4490   24.3360 C   0  0  0  0  0  0  0  0  0  0  0  0
  -27.6621  -15.6820   21.2078 C   0  0  0  0  0  0  0  0  0  0  0  0
  -27.5761  -26.1699   25.7969 C   0  0  0  0  0  0  0  0  0  0  0  0
  -26.3015  -13.7860   20.9315 C   0  0  0  0  0  0  0  0  0  0  0  0
  -23.8376  -12.6897   20.2175 C   0  0  0  0  0  0  0  0  0  0  0  0
  -25.1478  -14.1530   21.6243 C   0  0  0  0  0  0  0  0  0  0  0  0
  -28.0884  -19.8845   20.9721 C   0  0  0  0  0  0  0  0  0  0  0  0
  -34.2714  -25.0767   23.1626 C   0  0  0  0  0  0  0  0  0  0  0  0
  -34.4866  -27.3616   23.2688 C   0  0  0  0  0  0  0  0  0  0  0  0
  -27.7762  -22.0561   21.1183 C   0  0  0  0  0  0  0  0  0  0  0  0
  -25.9050  -20.6946   22.0635 C   0  0  0  0  0  0  0  0  0  0  0  0
  -22.9598  -27.5588   23.3019 C   0  0  0  0  0  0  0  0  0  0  0  0
  -24.6597  -27.8766   20.5575 C   0  0  0  0  0  0  0  0  0  0  0  0
  -27.6762  -27.6592   18.9763 C   0  0  0  0  0  0  0  0  0  0  0  0
  -33.4845  -23.6746   20.3142 C   0  0  0  0  0  0  0  0  0  0  0  0
  -18.2957  -27.4817   21.2290 C   0  0  0  0  0  0  0  0  0  0  0  0
  -24.8660  -29.0256   24.0575 C   0  0  0  0  0  0  0  0  0  0  0  0
  -25.8186  -26.7164   22.4748 C   0  0  0  0  0  0  0  0  0  0  0  0
  -19.6364  -26.8180   20.9255 C   0  0  0  0  0  0  0  0  0  0  0  0
  -30.8093  -24.0363   17.9927 C   0  0  0  0  0  0  0  0  0  0  0  0
  -20.2230  -26.1972   22.1893 C   0  0  0  0  0  0  0  0  0  0  0  0
  -29.7265  -23.1011   18.5338 C   0  0  0  0  0  0  0  0  0  0  0  0
  -32.2082  -23.4607   18.2019 C   0  0  0  0  0  0  0  0  0  0  0  0
  -31.4344  -22.1383   20.1322 C   0  0  0  0  0  0  0  0  0  0  0  0
  -20.4894  -27.2658   23.2564 C   0  0  1  0  0  0  0  0  0  0  0  0
  -24.0700  -28.4779   22.8770 C   0  0  1  0  0  0  0  0  0  0  0  0
  -30.0095  -22.7014   19.9944 C   0  0  2  0  0  0  0  0  0  0  0  0
  -35.1172  -28.5938   22.7070 C   0  0  0  0  0  0  0  0  0  0  0  0
  -33.6932  -28.8534   26.4274 C   0  0  0  0  0  0  0  0  0  0  0  0
  -31.7704  -29.1069   24.8169 C   0  0  0  0  0  0  0  0  0  0  0  0
  -28.7443  -27.9432   16.7233 C   0  0  0  0  0  0  0  0  0  0  0  0
  -30.1552  -24.9440   27.9903 C   0  0  0  0  0  0  0  0  0  0  0  0
  -23.4747  -25.2111   19.6623 C   0  0  0  0  0  0  0  0  0  0  0  0
  -25.2549  -25.0890   17.9061 C   0  0  0  0  0  0  0  0  0  0  0  0
  -23.5969  -26.9525   17.8714 C   0  0  0  0  0  0  0  0  0  0  0  0
  -29.4579  -29.8064   19.9630 C   0  0  0  0  0  0  0  0  0  0  0  0
  -32.0856  -26.2791   25.9773 C   0  0  0  0  0  0  0  0  0  0  0  0
  -34.6509  -23.7938   22.5015 C   0  0  0  0  0  0  0  0  0  0  0  0
  -30.7103  -25.6823   25.6448 C   0  0  0  0  0  0  0  0  0  0  0  0
  -33.2664  -28.7651   24.9500 C   0  0  0  0  0  0  0  0  0  0  0  0
  -25.4004  -26.9309   19.6431 C   0  0  1  0  0  0  0  0  0  0  0  0
  -28.3949  -28.6156   18.0419 C   0  0  2  0  0  0  0  0  0  0  0  0
  -29.6978  -25.7683   26.7935 C   0  0  1  0  0  0  0  0  0  1  0  0
  -24.4386  -26.0485   18.7982 C   0  0  0  0  0  0  0  0  0  0  0  0
  -29.1820  -20.4176   20.4208 N   0  0  0  0  0  0  0  0  0  0  0  0
  -34.8342  -26.2017   22.6675 N   0  0  0  0  0  0  0  0  0  0  0  0
  -28.9624  -21.7394   20.5244 N   0  0  0  0  0  0  0  0  0  0  0  0
  -24.9027  -27.7326   21.9308 N   0  0  0  0  0  0  0  0  0  0  0  0
  -32.4131  -23.1037   19.6078 N   0  0  0  0  0  0  0  0  0  0  0  0
  -27.3980  -23.3390   21.3021 N   0  0  0  0  0  0  0  0  0  0  0  0
  -25.4399  -19.3944   22.3032 N   0  0  0  0  0  0  0  0  0  0  0  0
  -21.6987  -27.9983   22.9472 N   0  0  0  0  0  0  0  0  0  0  0  0
  -26.3064  -27.7551   18.8506 N   0  0  0  0  0  0  0  0  0  0  0  0
  -33.6031  -23.2874   21.6434 N   0  0  0  0  0  0  0  0  0  0  0  0
  -29.6556  -29.1033   18.6693 N   0  3  0  0  0  0  0  0  0  0  0  0
  -25.1935  -21.6724   22.3972 O   0  0  0  0  0  0  0  0  0  0  0  0
  -23.2278  -26.5266   23.9056 O   0  0  0  0  0  0  0  0  0  0  0  0
  -23.8990  -28.7169   20.0707 O   0  0  0  0  0  0  0  0  0  0  0  0
  -28.2705  -26.9000   19.7385 O   0  0  0  0  0  0  0  0  0  0  0  0
  -34.2736  -24.4746   19.8000 O   0  0  0  0  0  0  0  0  0  0  0  0
  -27.5252  -14.3300   21.2841 O   0  0  0  0  0  0  0  0  0  0  0  0
  -28.4371  -25.2708   26.3468 O   0  0  0  0  0  0  0  0  0  1  0  0
  -22.6544  -12.1644   19.8736 F   0  0  0  0  0  0  0  0  0  0  0  0
  -25.2166  -15.0326   22.6330 F   0  0  0  0  0  0  0  0  0  0  0  0
  1  2  1  0  0  0  0
  1  5  2  0  0  0  0
  2  6  2  0  0  0  0
  3  8  2  0  0  0  0
  3 16  1  0  0  0  0
  4  9  1  0  0  0  0
  4 16  2  0  0  0  0
  5 18  1  0  0  0  0
  6 20  1  0  0  0  0
  7 10  2  0  0  0  0
  7 19  1  0  0  0  0
  8 24  1  0  0  0  0
  9 24  2  0  0  0  0
 10 25  1  0  0  0  0
 11 12  2  0  0  0  0
 11 26  1  0  0  0  0
 12 27  1  0  0  0  0
 13 21  1  0  0  0  0
 13 25  2  0  0  0  0
 14 22  1  0  0  0  0
 14 30  2  0  0  0  0
 15 27  2  0  0  0  0
 15 28  1  0  0  0  0
 16 29  1  0  0  0  0
 17 29  1  0  0  0  0
 17 32  2  0  0  0  0
 17 33  1  0  0  0  0
 18 20  2  0  0  0  0
 18 38  1  0  0  0  0
 19 21  2  0  0  0  0
 19 39  1  0  0  0  0
 20 47  1  0  0  0  0
 21 40  1  0  0  0  0
 22 23  2  0  0  0  0
 22 59  1  0  0  0  0
 23 31  1  0  0  0  0
 23 62  1  0  0  0  0
 24 83  1  0  0  0  0
 25 84  1  0  0  0  0
 26 28  2  0  0  0  0
 26 83  1  0  0  0  0
 27 85  1  0  0  0  0
 28 86  1  0  0  0  0
 29 67  2  0  0  0  0
 30 60  1  0  0  0  0
 30 68  1  0  0  0  0
 31 50  1  0  0  0  0
 31 68  2  0  0  0  0
 32 69  1  0  0  0  0
 32 72  1  0  0  0  0
 33 73  1  0  0  0  0
 33 78  2  0  0  0  0
 34 48  1  0  0  0  0
 34 74  1  0  0  0  0
 34 79  2  0  0  0  0
 35 63  1  0  0  0  0
 35 70  1  0  0  0  0
 35 80  2  0  0  0  0
 36 64  1  0  0  0  0
 36 75  1  0  0  0  0
 36 81  2  0  0  0  0
 37 71  1  0  0  0  0
 37 76  1  0  0  0  0
 37 82  2  0  0  0  0
 38 41  1  0  0  0  0
 39 48  1  0  0  0  0
 40 70  1  0  0  0  0
 41 43  1  0  0  0  0
 42 44  1  0  0  0  0
 42 45  1  0  0  0  0
 43 47  1  0  0  0  0
 44 49  1  0  0  0  0
 45 71  1  0  0  0  0
 46 49  1  0  0  0  0
 46 71  1  0  0  0  0
 47 74  1  0  0  0  0
 48 70  1  0  0  0  0
 49 69  1  0  0  0  0
 51 62  1  0  0  0  0
 52 62  1  0  0  0  0
 53 64  1  0  0  0  0
 54 65  1  0  0  0  0
 55 66  1  0  0  0  0
 56 66  1  0  0  0  0
 57 66  1  0  0  0  0
 58 77  1  0  0  0  0
 59 61  1  0  0  0  0
 60 76  1  0  0  0  0
 61 65  1  0  0  0  0
 63 66  1  0  0  0  0
 63 75  1  0  0  0  0
 64 77  1  0  0  0  0
 65 84  1  0  0  0  0
 67 69  1  0  0  0  0
M  CHG  1  77   1
M  ISO  4  37 100  65 101  76 100  84 101
M  END
> <Batch ID>
0113

> <Smiles>
CNC(C)C(=O)NC(C(=O)N1Cc2cc([101O:1][101CH:1](C)CCc3cc(C[100NH:0][100C:0](=O)N4CCCC(n5nc(-c6ccc(Oc7ccc(F)cc7F)cc6)c(C(N)=O)c5N)C4)nc(C)c3C(C)C)ccc2CC1C(=O)NC1CCCc2ccccc21)C(C)(C)C

> <Shape>
0.200

> <Color>
0.078

> <Negative vol penalty>
0.000

$$$$

  -OEChem-04052320053D

 83 91  0     1  0  0  0  0  0999 V2000
  -24.6296  -26.9543    9.8022 C   0  0  0  0  0  0  0  0  0  0  0  0
  -25.2361  -25.8926   10.4657 C   0  0  0  0  0  0  0  0  0  0  0  0
  -23.0721   -9.8747   19.9381 C   0  0  0  0  0  0  0  0  0  0  0  0
  -23.8379   -9.8723   22.2295 C   0  0  0  0  0  0  0  0  0  0  0  0
  -24.3290  -28.1269   10.4939 C   0  0  0  0  0  0  0  0  0  0  0  0
  -25.5434  -26.0033   11.8214 C   0  0  0  0  0  0  0  0  0  0  0  0
  -25.3772  -21.5392   16.0106 C   0  0  0  0  0  0  0  0  0  0  0  0
  -22.3282   -8.7210   20.1855 C   0  0  0  0  0  0  0  0  0  0  0  0
  -23.0939   -8.7186   22.4769 C   0  0  0  0  0  0  0  0  0  0  0  0
  -26.3711  -20.7292   16.5581 C   0  0  0  0  0  0  0  0  0  0  0  0
  -19.8669   -7.9202   23.0846 C   0  0  0  0  0  0  0  0  0  0  0  0
  -19.1129   -7.8762   24.2573 C   0  0  0  0  0  0  0  0  0  0  0  0
  -26.5559  -22.2344   18.4342 C   0  0  0  0  0  0  0  0  0  0  0  0
  -31.4436  -18.5386   20.0275 C   0  0  0  0  0  0  0  0  0  0  0  0
  -20.3551   -5.9352   24.9830 C   0  0  0  0  0  0  0  0  0  0  0  0
  -29.3868  -18.7457   20.9200 C   0  0  0  0  0  0  0  0  0  0  0  0
  -23.8270  -10.4503   20.9601 C   0  0  0  0  0  0  0  0  0  0  0  0
  -24.1699  -12.9757   20.8491 C   0  0  0  0  0  0  0  0  0  0  0  0
  -24.6240  -28.2485   11.8610 C   0  0  0  0  0  0  0  0  0  0  0  0
  -24.9721  -22.7106   16.6665 C   0  0  0  0  0  0  0  0  0  0  0  0
  -25.2477  -27.1792   12.5318 C   0  0  0  0  0  0  0  0  0  0  0  0
  -25.5548  -23.0562   17.8942 C   0  0  0  0  0  0  0  0  0  0  0  0
  -30.5506  -18.0126   20.9934 C   0  0  0  0  0  0  0  0  0  0  0  0
  -22.3391   -8.1429   21.4549 C   0  0  0  0  0  0  0  0  0  0  0  0
  -26.9627  -21.0782   17.7686 C   0  0  0  0  0  0  0  0  0  0  0  0
  -20.8650   -6.9717   22.8611 C   0  0  0  0  0  0  0  0  0  0  0  0
  -19.3571   -6.8837   25.2065 C   0  0  0  0  0  0  0  0  0  0  0  0
  -21.1091   -5.9792   23.8103 C   0  0  0  0  0  0  0  0  0  0  0  0
  -24.5961  -11.6418   20.7051 C   0  0  0  0  0  0  0  0  0  0  0  0
  -30.7983  -19.5773   19.3934 C   0  0  0  0  0  0  0  0  0  0  0  0
  -25.2616  -13.7260   20.4859 C   0  0  0  0  0  0  0  0  0  0  0  0
  -22.9008  -13.4906   21.2733 C   0  0  0  0  0  0  0  0  0  0  0  0
  -25.0131  -25.8084   15.9550 C   0  0  0  0  0  0  0  0  0  0  0  0
  -23.3514  -26.0689   18.7287 C   0  0  0  0  0  0  0  0  0  0  0  0
  -22.5718  -24.7418   21.7746 C   0  0  0  0  0  0  0  0  0  0  0  0
  -30.7464  -14.7413   20.6642 C   0  0  0  0  0  0  0  0  0  0  0  0
  -24.3233  -29.5532   12.5553 C   0  0  0  0  0  0  0  0  0  0  0  0
  -23.8799  -23.5595   16.0760 C   0  0  0  0  0  0  0  0  0  0  0  0
  -25.1413  -24.2927   18.6481 C   0  0  0  0  0  0  0  0  0  0  0  0
  -24.3406  -29.4508   14.0783 C   0  0  0  0  0  0  0  0  0  0  0  0
  -29.6013  -12.3667   18.2710 C   0  0  0  0  0  0  0  0  0  0  0  0
  -25.5747  -28.6871   14.5480 C   0  0  0  0  0  0  0  0  0  0  0  0
  -28.1648  -12.0721   18.7065 C   0  0  0  0  0  0  0  0  0  0  0  0
  -30.5216  -12.5823   19.4704 C   0  0  0  0  0  0  0  0  0  0  0  0
  -28.6239  -13.3091   20.8647 C   0  0  0  0  0  0  0  0  0  0  0  0
  -25.5741  -27.2520   14.0077 C   0  0  1  0  0  0  0  0  0  0  0  0
  -23.9077  -25.0010   16.5747 C   0  0  1  0  0  0  0  0  0  0  0  0
  -27.6466  -13.1396   19.6889 C   0  0  2  0  0  0  0  0  0  0  0  0
  -32.2262  -22.2677   19.8702 C   0  0  0  0  0  0  0  0  0  0  0  0
  -30.3872  -19.0023   16.3927 C   0  0  0  0  0  0  0  0  0  0  0  0
  -21.2157  -25.2023   23.8353 C   0  0  0  0  0  0  0  0  0  0  0  0
  -25.4251  -28.1163   19.6329 C   0  0  0  0  0  0  0  0  0  0  0  0
  -24.5906  -27.8237   21.9752 C   0  0  0  0  0  0  0  0  0  0  0  0
  -23.0626  -28.7002   20.2090 C   0  0  0  0  0  0  0  0  0  0  0  0
  -20.9478  -22.2973   21.3929 C   0  0  0  0  0  0  0  0  0  0  0  0
  -30.8166  -16.8869   21.9093 C   0  0  0  0  0  0  0  0  0  0  0  0
  -32.5118  -21.3291   18.7037 C   0  0  0  0  0  0  0  0  0  0  0  0
  -31.6010  -19.7117   16.9813 C   0  0  0  0  0  0  0  0  0  0  0  0
  -28.5022  -20.7024   19.5509 C   0  0  0  0  0  0  0  0  0  1  0  0
  -31.2688  -20.4656   18.3105 C   0  0  0  0  0  0  0  0  0  0  0  0
  -23.7179  -26.2585   20.1808 C   0  0  1  0  0  0  0  0  0  0  0  0
  -21.2391  -24.5317   22.4706 C   0  0  2  0  0  0  0  0  0  0  0  0
  -24.2084  -27.7023   20.4846 C   0  0  0  0  0  0  0  0  0  0  0  0
  -25.8598  -11.5469   20.2832 N   0  0  0  0  0  0  0  0  0  0  0  0
  -29.5489  -19.6943   19.9443 N   0  0  0  0  0  0  0  0  0  0  0  0
  -26.2371  -12.8307   20.1589 N   0  0  0  0  0  0  0  0  0  0  0  0
  -24.0737  -25.0936   18.0267 N   0  0  0  0  0  0  0  0  0  0  0  0
  -29.9739  -13.6077   20.3618 N   0  0  0  0  0  0  0  0  0  0  0  0
  -25.4726  -15.0576   20.4175 N   0  0  0  0  0  0  0  0  0  0  0  0
  -21.8893  -12.5807   21.6096 N   0  0  0  0  0  0  0  0  0  0  0  0
  -24.6624  -26.4255   14.7694 N   0  0  0  0  0  0  0  0  0  0  0  0
  -22.5501  -25.8493   20.9534 N   0  0  0  0  0  0  0  0  0  0  0  0
  -30.1499  -15.6671   21.5114 N   0  0  0  0  0  0  0  0  0  0  0  0
  -20.9760  -23.0767   22.6573 N   0  3  0  0  0  0  0  0  0  0  0  0
  -22.6654  -14.7211   21.3360 O   0  0  0  0  0  0  0  0  0  0  0  0
  -26.1029  -25.8682   16.5121 O   0  0  0  0  0  0  0  0  0  0  0  0
  -22.4522  -26.7558   18.2373 O   0  0  0  0  0  0  0  0  0  0  0  0
  -23.5367  -24.0001   21.9455 O   0  0  0  0  0  0  0  0  0  0  0  0
  -31.8812  -14.9179   20.2083 O   0  0  0  0  0  0  0  0  0  0  0  0
  -21.6132   -7.0173   21.6967 O   0  0  0  0  0  0  0  0  0  0  0  0
  -27.9335  -20.2897   18.3049 O   0  0  0  0  0  0  0  0  0  1  0  0
  -18.6340   -6.8424   26.3333 F   0  0  0  0  0  0  0  0  0  0  0  0
  -22.0674   -5.0660   23.6016 F   0  0  0  0  0  0  0  0  0  0  0  0
  1  2  1  0  0  0  0
  1  5  2  0  0  0  0
  2  6  2  0  0  0  0
  3  8  2  0  0  0  0
  3 17  1  0  0  0  0
  4  9  1  0  0  0  0
  4 17  2  0  0  0  0
  5 19  1  0  0  0  0
  6 21  1  0  0  0  0
  7 10  2  0  0  0  0
  7 20  1  0  0  0  0
  8 24  1  0  0  0  0
  9 24  2  0  0  0  0
 10 25  1  0  0  0  0
 11 12  2  0  0  0  0
 11 26  1  0  0  0  0
 12 27  1  0  0  0  0
 13 22  1  0  0  0  0
 13 25  2  0  0  0  0
 14 23  1  0  0  0  0
 14 30  2  0  0  0  0
 15 27  2  0  0  0  0
 15 28  1  0  0  0  0
 16 23  2  0  0  0  0
 16 65  1  0  0  0  0
 17 29  1  0  0  0  0
 18 29  1  0  0  0  0
 18 31  2  0  0  0  0
 18 32  1  0  0  0  0
 19 21  2  0  0  0  0
 19 37  1  0  0  0  0
 20 22  2  0  0  0  0
 20 38  1  0  0  0  0
 21 46  1  0  0  0  0
 22 39  1  0  0  0  0
 23 56  1  0  0  0  0
 24 80  1  0  0  0  0
 25 81  1  0  0  0  0
 26 28  2  0  0  0  0
 26 80  1  0  0  0  0
 27 82  1  0  0  0  0
 28 83  1  0  0  0  0
 29 64  2  0  0  0  0
 30 60  1  0  0  0  0
 30 65  1  0  0  0  0
 31 66  1  0  0  0  0
 31 69  1  0  0  0  0
 32 70  1  0  0  0  0
 32 75  2  0  0  0  0
 33 47  1  0  0  0  0
 33 71  1  0  0  0  0
 33 76  2  0  0  0  0
 34 61  1  0  0  0  0
 34 67  1  0  0  0  0
 34 77  2  0  0  0  0
 35 62  1  0  0  0  0
 35 72  1  0  0  0  0
 35 78  2  0  0  0  0
 36 68  1  0  0  0  0
 36 73  1  0  0  0  0
 36 79  2  0  0  0  0
 37 40  1  0  0  0  0
 38 47  1  0  0  0  0
 39 67  1  0  0  0  0
 40 42  1  0  0  0  0
 41 43  1  0  0  0  0
 41 44  1  0  0  0  0
 42 46  1  0  0  0  0
 43 48  1  0  0  0  0
 44 68  1  0  0  0  0
 45 48  1  0  0  0  0
 45 68  1  0  0  0  0
 46 71  1  0  0  0  0
 47 67  1  0  0  0  0
 48 66  1  0  0  0  0
 49 57  1  0  0  0  0
 50 58  1  0  0  0  0
 51 62  1  0  0  0  0
 52 63  1  0  0  0  0
 53 63  1  0  0  0  0
 54 63  1  0  0  0  0
 55 74  1  0  0  0  0
 56 73  1  0  0  0  0
 57 60  1  0  0  0  0
 58 60  1  0  0  0  0
 59 65  1  0  0  0  0
 59 81  1  0  0  0  0
 61 63  1  0  0  0  0
 61 72  1  0  0  0  0
 62 74  1  0  0  0  0
 64 66  1  0  0  0  0
M  CHG  1  74   1
M  ISO  4  36 100  59 101  73 100  81 101
M  END
> <Batch ID>
0113

> <Smiles>
CCC(CC)c1cc(C[100NH:0][100C:0](=O)N2CCCC(n3nc(-c4ccc(Oc5ccc(F)cc5F)cc4)c(C(N)=O)c3N)C2)cn1[101CH2:1][101O:1]c1ccc2c(c1)CN(C(=O)C(NC(=O)C(C)NC)C(C)(C)C)C(C(=O)NC1CCCc3ccccc31)C2

> <Shape>
0.224

> <Color>
0.192

> <Negative vol penalty>
0.000

$$$$

  -OEChem-04052320053D

 85 93  0     1  0  0  0  0  0999 V2000
  -26.9858  -32.4036   20.0281 C   0  0  0  0  0  0  0  0  0  0  0  0
  -26.9747  -31.1821   19.3623 C   0  0  0  0  0  0  0  0  0  0  0  0
  -23.0140   -9.9167   19.9673 C   0  0  0  0  0  0  0  0  0  0  0  0
  -23.7486   -9.9398   22.2688 C   0  0  0  0  0  0  0  0  0  0  0  0
  -27.8103  -32.5838   21.1379 C   0  0  0  0  0  0  0  0  0  0  0  0
  -27.7890  -30.1404   19.8053 C   0  0  0  0  0  0  0  0  0  0  0  0
  -26.5084  -24.1532   19.6687 C   0  0  0  0  0  0  0  0  0  0  0  0
  -22.2505   -8.7776   20.2225 C   0  0  0  0  0  0  0  0  0  0  0  0
  -22.9851   -8.8007   22.5240 C   0  0  0  0  0  0  0  0  0  0  0  0
  -26.8669  -23.1373   18.7837 C   0  0  0  0  0  0  0  0  0  0  0  0
  -23.2331   -5.4684   22.0090 C   0  0  0  0  0  0  0  0  0  0  0  0
  -23.8255   -4.4429   22.7457 C   0  0  0  0  0  0  0  0  0  0  0  0
  -28.6959  -22.5277   20.2336 C   0  0  0  0  0  0  0  0  0  0  0  0
  -31.2868  -19.8973   19.7350 C   0  0  0  0  0  0  0  0  0  0  0  0
  -22.1082   -4.6616   24.4310 C   0  0  0  0  0  0  0  0  0  0  0  0
  -29.3657  -18.0474   20.3123 C   0  0  0  0  0  0  0  0  0  0  0  0
  -23.7631  -10.4978   20.9905 C   0  0  0  0  0  0  0  0  0  0  0  0
  -24.1434  -13.0161   20.8447 C   0  0  0  0  0  0  0  0  0  0  0  0
  -28.6279  -31.5408   21.6006 C   0  0  0  0  0  0  0  0  0  0  0  0
  -27.2489  -24.3713   20.8394 C   0  0  0  0  0  0  0  0  0  0  0  0
  -28.6262  -30.3073   20.9216 C   0  0  0  0  0  0  0  0  0  0  0  0
  -28.3433  -23.5454   21.1331 C   0  0  0  0  0  0  0  0  0  0  0  0
  -31.5621  -18.8927   20.6561 C   0  0  0  0  0  0  0  0  0  0  0  0
  -30.5886  -17.9462   20.9558 C   0  0  0  0  0  0  0  0  0  0  0  0
  -22.2360   -8.2196   21.5008 C   0  0  0  0  0  0  0  0  0  0  0  0
  -27.9625  -22.3262   19.0646 C   0  0  0  0  0  0  0  0  0  0  0  0
  -22.0783   -6.0907   22.4832 C   0  0  0  0  0  0  0  0  0  0  0  0
  -23.2631   -4.0394   23.9567 C   0  0  0  0  0  0  0  0  0  0  0  0
  -21.5158   -5.6872   23.6942 C   0  0  0  0  0  0  0  0  0  0  0  0
  -24.5524  -11.6741   20.7274 C   0  0  0  0  0  0  0  0  0  0  0  0
  -30.0328  -19.9110   19.1459 C   0  0  0  0  0  0  0  0  0  0  0  0
  -25.2504  -13.7451   20.4848 C   0  0  0  0  0  0  0  0  0  0  0  0
  -22.8761  -13.5553   21.2433 C   0  0  0  0  0  0  0  0  0  0  0  0
  -28.9646  -26.7867   21.9910 C   0  0  0  0  0  0  0  0  0  0  0  0
  -29.1411  -24.8964   24.6212 C   0  0  0  0  0  0  0  0  0  0  0  0
  -28.9972  -21.7545   25.9459 C   0  0  0  0  0  0  0  0  0  0  0  0
  -30.7462  -14.6861   20.7224 C   0  0  0  0  0  0  0  0  0  0  0  0
  -29.5374  -31.7980   22.7759 C   0  0  0  0  0  0  0  0  0  0  0  0
  -26.8332  -25.4542   21.7970 C   0  0  0  0  0  0  0  0  0  0  0  0
  -29.1588  -23.7253   22.3865 C   0  0  0  0  0  0  0  0  0  0  0  0
  -30.0914  -30.5237   23.4078 C   0  0  0  0  0  0  0  0  0  0  0  0
  -29.5999  -12.2903   18.3512 C   0  0  0  0  0  0  0  0  0  0  0  0
  -30.6067  -29.5742   22.3308 C   0  0  0  0  0  0  0  0  0  0  0  0
  -28.1536  -12.0227   18.7715 C   0  0  0  0  0  0  0  0  0  0  0  0
  -30.5069  -12.5119   19.5596 C   0  0  0  0  0  0  0  0  0  0  0  0
  -28.6010  -13.2872   20.9162 C   0  0  0  0  0  0  0  0  0  0  0  0
  -29.4768  -29.1454   21.3869 C   0  0  1  0  0  0  0  0  0  0  0  0
  -27.9685  -25.9172   22.7048 C   0  0  1  0  0  0  0  0  0  0  0  0
  -27.6374  -13.1128   19.7299 C   0  0  2  0  0  0  0  0  0  0  0  0
  -33.1866  -20.1051   22.1543 C   0  0  0  0  0  0  0  0  0  0  0  0
  -34.0433  -18.6343   20.2948 C   0  0  0  0  0  0  0  0  0  0  0  0
  -30.0277  -20.5661   16.7141 C   0  0  0  0  0  0  0  0  0  0  0  0
  -29.2181  -20.5215   28.1203 C   0  0  0  0  0  0  0  0  0  0  0  0
  -32.1738  -25.2023   24.4838 C   0  0  0  0  0  0  0  0  0  0  0  0
  -32.3716  -23.2444   26.0316 C   0  0  0  0  0  0  0  0  0  0  0  0
  -31.2168  -25.3209   26.7913 C   0  0  0  0  0  0  0  0  0  0  0  0
  -26.2168  -20.7520   25.7933 C   0  0  0  0  0  0  0  0  0  0  0  0
  -30.4387  -17.2515   23.3688 C   0  0  0  0  0  0  0  0  0  0  0  0
  -32.9042  -18.8498   21.3083 C   0  0  0  0  0  0  0  0  0  0  0  0
  -30.8301  -16.8500   21.9346 C   0  0  1  0  0  0  0  0  0  0  0  0
  -29.6980  -20.9885   18.1401 C   0  0  1  0  0  0  0  0  0  1  0  0
  -30.0831  -23.8194   25.1024 C   0  0  1  0  0  0  0  0  0  0  0  0
  -28.2619  -21.2036   27.1543 C   0  0  2  0  0  0  0  0  0  0  0  0
  -31.4474  -24.3943   25.5776 C   0  0  0  0  0  0  0  0  0  0  0  0
  -29.0616  -19.0089   19.4118 N   0  0  0  0  0  0  0  0  0  0  0  0
  -25.8203  -11.5549   20.3244 N   0  0  0  0  0  0  0  0  0  0  0  0
  -26.2174  -12.8312   20.1852 N   0  0  0  0  0  0  0  0  0  0  0  0
  -28.7164  -24.8017   23.2883 N   0  0  0  0  0  0  0  0  0  0  0  0
  -29.9618  -13.5588   20.4272 N   0  0  0  0  0  0  0  0  0  0  0  0
  -25.4812  -15.0724   20.3985 N   0  0  0  0  0  0  0  0  0  0  0  0
  -21.8473  -12.6651   21.5799 N   0  0  0  0  0  0  0  0  0  0  0  0
  -28.6531  -28.1328   22.0118 N   0  0  0  0  0  0  0  0  0  0  0  0
  -29.3604  -23.0724   26.1262 N   0  0  0  0  0  0  0  0  0  0  0  0
  -30.1516  -15.6335   21.5467 N   0  0  0  0  0  0  0  0  0  0  0  0
  -30.7373  -16.1481   24.3175 N   0  3  0  0  0  0  0  0  0  0  0  0
  -27.2364  -20.2099   26.7279 N   0  3  0  0  0  0  0  0  0  0  0  0
  -22.6574  -14.7899   21.2836 O   0  0  0  0  0  0  0  0  0  0  0  0
  -29.9440  -26.2744   21.4619 O   0  0  0  0  0  0  0  0  0  0  0  0
  -28.7892  -25.7848   25.4013 O   0  0  0  0  0  0  0  0  0  0  0  0
  -29.2297  -21.0819   24.9439 O   0  0  0  0  0  0  0  0  0  0  0  0
  -31.8895  -14.8396   20.2795 O   0  0  0  0  0  0  0  0  0  0  0  0
  -21.4909   -7.1082   21.7502 O   0  0  0  0  0  0  0  0  0  0  0  0
  -28.3149  -21.3343   18.2022 O   0  0  0  0  0  0  0  0  0  1  0  0
  -23.8312   -3.0535   24.6634 F   0  0  0  0  0  0  0  0  0  0  0  0
  -20.4058   -6.2805   24.1544 F   0  0  0  0  0  0  0  0  0  0  0  0
  1  2  1  0  0  0  0
  1  5  2  0  0  0  0
  2  6  2  0  0  0  0
  3  8  2  0  0  0  0
  3 17  1  0  0  0  0
  4  9  1  0  0  0  0
  4 17  2  0  0  0  0
  5 19  1  0  0  0  0
  6 21  1  0  0  0  0
  7 10  2  0  0  0  0
  7 20  1  0  0  0  0
  8 25  1  0  0  0  0
  9 25  2  0  0  0  0
 10 26  1  0  0  0  0
 11 12  2  0  0  0  0
 11 27  1  0  0  0  0
 12 28  1  0  0  0  0
 13 22  1  0  0  0  0
 13 26  2  0  0  0  0
 14 23  2  0  0  0  0
 14 31  1  0  0  0  0
 15 28  2  0  0  0  0
 15 29  1  0  0  0  0
 16 24  2  0  0  0  0
 16 65  1  0  0  0  0
 17 30  1  0  0  0  0
 18 30  1  0  0  0  0
 18 32  2  0  0  0  0
 18 33  1  0  0  0  0
 19 21  2  0  0  0  0
 19 38  1  0  0  0  0
 20 22  2  0  0  0  0
 20 39  1  0  0  0  0
 21 47  1  0  0  0  0
 22 40  1  0  0  0  0
 23 24  1  0  0  0  0
 23 59  1  0  0  0  0
 24 60  1  0  0  0  0
 25 82  1  0  0  0  0
 26 83  1  0  0  0  0
 27 29  2  0  0  0  0
 27 82  1  0  0  0  0
 28 84  1  0  0  0  0
 29 85  1  0  0  0  0
 30 66  2  0  0  0  0
 31 61  1  0  0  0  0
 31 65  2  0  0  0  0
 32 67  1  0  0  0  0
 32 70  1  0  0  0  0
 33 71  1  0  0  0  0
 33 77  2  0  0  0  0
 34 48  1  0  0  0  0
 34 72  1  0  0  0  0
 34 78  2  0  0  0  0
 35 62  1  0  0  0  0
 35 68  1  0  0  0  0
 35 79  2  0  0  0  0
 36 63  1  0  0  0  0
 36 73  1  0  0  0  0
 36 80  2  0  0  0  0
 37 69  1  0  0  0  0
 37 74  1  0  0  0  0
 37 81  2  0  0  0  0
 38 41  1  0  0  0  0
 39 48  1  0  0  0  0
 40 68  1  0  0  0  0
 41 43  1  0  0  0  0
 42 44  1  0  0  0  0
 42 45  1  0  0  0  0
 43 47  1  0  0  0  0
 44 49  1  0  0  0  0
 45 69  1  0  0  0  0
 46 49  1  0  0  0  0
 46 69  1  0  0  0  0
 47 72  1  0  0  0  0
 48 68  1  0  0  0  0
 49 67  1  0  0  0  0
 50 59  1  0  0  0  0
 51 59  1  0  0  0  0
 52 61  1  0  0  0  0
 53 63  1  0  0  0  0
 54 64  1  0  0  0  0
 55 64  1  0  0  0  0
 56 64  1  0  0  0  0
 57 76  1  0  0  0  0
 58 60  1  0  0  0  0
 58 75  1  0  0  0  0
 60 74  1  0  0  0  0
 61 83  1  0  0  0  0
 62 64  1  0  0  0  0
 62 73  1  0  0  0  0
 63 76  1  0  0  0  0
 66 67  1  0  0  0  0
M  CHG  2  75   1  76   1
M  ISO  4  37 100  61 101  74 100  83 101
M  END
> <Batch ID>
0113

> <Smiles>
CNC(C)C(=O)NC(C(=O)N1Cc2cc([101O:1][101CH:1](C)c3cc(C(C)C)c(C(CN)[100NH:0][100C:0](=O)N4CCCC(n5nc(-c6ccc(Oc7ccc(F)cc7F)cc6)c(C(N)=O)c5N)C4)cn3)ccc2CC1C(=O)NC1CCCc2ccccc21)C(C)(C)C

> <Shape>
0.252

> <Color>
0.193

> <Negative vol penalty>
0.000

$$$$

  -OEChem-04052320053D

 83 91  0     1  0  0  0  0  0999 V2000
  -19.1453  -30.8213   24.5754 C   0  0  0  0  0  0  0  0  0  0  0  0
  -20.4311  -30.3538   24.8276 C   0  0  0  0  0  0  0  0  0  0  0  0
  -26.8767  -13.7361   21.6060 C   0  0  0  0  0  0  0  0  0  0  0  0
  -26.6663  -13.8094   19.2003 C   0  0  0  0  0  0  0  0  0  0  0  0
  -18.2861  -30.0882   23.7580 C   0  0  0  0  0  0  0  0  0  0  0  0
  -20.8580  -29.1523   24.2632 C   0  0  0  0  0  0  0  0  0  0  0  0
  -26.5106  -27.7924   22.3385 C   0  0  0  0  0  0  0  0  0  0  0  0
  -26.0816  -12.5906   21.6407 C   0  0  0  0  0  0  0  0  0  0  0  0
  -25.8712  -12.6639   19.2349 C   0  0  0  0  0  0  0  0  0  0  0  0
  -27.5594  -27.0897   22.9304 C   0  0  0  0  0  0  0  0  0  0  0  0
  -22.7920  -11.8360   21.4569 C   0  0  0  0  0  0  0  0  0  0  0  0
  -21.7847  -11.7762   22.4198 C   0  0  0  0  0  0  0  0  0  0  0  0
  -26.8766  -25.0951   21.7580 C   0  0  0  0  0  0  0  0  0  0  0  0
  -22.7999   -9.7950   23.3586 C   0  0  0  0  0  0  0  0  0  0  0  0
  -31.0938  -22.9610   20.5228 C   0  0  0  0  0  0  0  0  0  0  0  0
  -30.7968  -25.6139   20.5530 C   0  0  0  0  0  0  0  0  0  0  0  0
  -27.1691  -14.3456   20.3858 C   0  0  0  0  0  0  0  0  0  0  0  0
  -29.3912  -15.5885   20.2285 C   0  0  0  0  0  0  0  0  0  0  0  0
  -18.7060  -28.8820   23.1755 C   0  0  0  0  0  0  0  0  0  0  0  0
  -25.6290  -27.1478   21.4590 C   0  0  0  0  0  0  0  0  0  0  0  0
  -20.0031  -28.4017   23.4383 C   0  0  0  0  0  0  0  0  0  0  0  0
  -25.8190  -25.7924   21.1544 C   0  0  0  0  0  0  0  0  0  0  0  0
  -25.5788  -12.0545   20.4551 C   0  0  0  0  0  0  0  0  0  0  0  0
  -27.7407  -25.7402   22.6424 C   0  0  0  0  0  0  0  0  0  0  0  0
  -23.8033  -10.8753   21.4447 C   0  0  0  0  0  0  0  0  0  0  0  0
  -21.7886  -10.7557   23.3707 C   0  0  0  0  0  0  0  0  0  0  0  0
  -23.8072   -9.8549   22.3956 C   0  0  0  0  0  0  0  0  0  0  0  0
  -27.9899  -15.5292   20.3495 C   0  0  0  0  0  0  0  0  0  0  0  0
  -31.3472  -23.7174   19.3999 C   0  0  0  0  0  0  0  0  0  0  0  0
  -30.5426  -24.8575   21.6758 C   0  0  0  0  0  0  0  0  0  0  0  0
  -29.6806  -16.9311   20.2433 C   0  0  0  0  0  0  0  0  0  0  0  0
  -30.3459  -14.5251   20.1131 C   0  0  0  0  0  0  0  0  0  0  0  0
  -22.5072  -26.5491   21.4507 C   0  0  0  0  0  0  0  0  0  0  0  0
  -23.1228  -25.4422   18.4644 C   0  0  0  0  0  0  0  0  0  0  0  0
  -25.1250  -23.6731   16.0398 C   0  0  0  0  0  0  0  0  0  0  0  0
  -28.6328  -22.1540   18.5795 C   0  0  0  0  0  0  0  0  0  0  0  0
  -17.7255  -28.1007   22.3370 C   0  0  0  0  0  0  0  0  0  0  0  0
  -24.5187  -27.9264   20.8081 C   0  0  0  0  0  0  0  0  0  0  0  0
  -24.9124  -25.0591   20.2011 C   0  0  0  0  0  0  0  0  0  0  0  0
  -18.3824  -27.0258   21.4749 C   0  0  0  0  0  0  0  0  0  0  0  0
  -26.7659  -20.9152   21.3465 C   0  0  0  0  0  0  0  0  0  0  0  0
  -19.3835  -26.2202   22.2969 C   0  0  0  0  0  0  0  0  0  0  0  0
  -27.0285  -19.4085   21.3198 C   0  0  0  0  0  0  0  0  0  0  0  0
  -26.6683  -21.4962   19.9376 C   0  0  0  0  0  0  0  0  0  0  0  0
  -28.0792  -19.6879   19.0359 C   0  0  0  0  0  0  0  0  0  0  0  0
  -20.5114  -27.1153   22.8243 C   0  0  1  0  0  0  0  0  0  0  0  0
  -23.3724  -27.0429   20.3258 C   0  0  1  0  0  0  0  0  0  0  0  0
  -28.2412  -19.0663   20.4336 C   0  0  2  0  0  0  0  0  0  0  0  0
  -24.7908  -23.3467   13.5742 C   0  0  0  0  0  0  0  0  0  0  0  0
  -30.4680  -25.8720   25.4532 C   0  0  0  0  0  0  0  0  0  0  0  0
  -32.4398  -25.7196   23.9255 C   0  0  0  0  0  0  0  0  0  0  0  0
  -21.7679  -22.8349   19.2870 C   0  0  0  0  0  0  0  0  0  0  0  0
  -22.8180  -21.7418   17.2944 C   0  0  0  0  0  0  0  0  0  0  0  0
  -21.2064  -23.6196   16.9797 C   0  0  0  0  0  0  0  0  0  0  0  0
  -27.7955  -24.7841   15.4130 C   0  0  0  0  0  0  0  0  0  0  0  0
  -31.7957  -23.0689   18.1371 C   0  0  0  0  0  0  0  0  0  0  0  0
  -30.6428  -22.6552   17.2128 C   0  0  0  0  0  0  0  0  0  0  0  0
  -30.0871  -25.5169   22.9598 C   0  0  2  0  0  0  0  0  0  1  0  0
  -23.5182  -24.1079   17.8792 C   0  0  1  0  0  0  0  0  0  0  0  0
  -25.5027  -24.1523   14.6497 C   0  0  2  0  0  0  0  0  0  0  0  0
  -31.0091  -25.2279   24.1705 C   0  0  0  0  0  0  0  0  0  0  0  0
  -22.3437  -23.0891   17.8796 C   0  0  0  0  0  0  0  0  0  0  0  0
  -31.2036  -25.0574   19.3948 N   0  0  0  0  0  0  0  0  0  0  0  0
  -30.6866  -23.5175   21.6809 N   0  0  0  0  0  0  0  0  0  0  0  0
  -27.4281  -16.7379   20.4349 N   0  0  0  0  0  0  0  0  0  0  0  0
  -28.4818  -17.5694   20.3677 N   0  0  0  0  0  0  0  0  0  0  0  0
  -23.8376  -25.8623   19.5950 N   0  0  0  0  0  0  0  0  0  0  0  0
  -27.8498  -21.1367   19.1497 N   0  0  0  0  0  0  0  0  0  0  0  0
  -30.8410  -17.6160   20.1620 N   0  0  0  0  0  0  0  0  0  0  0  0
  -29.8780  -13.2040   20.1145 N   0  0  0  0  0  0  0  0  0  0  0  0
  -21.4656  -27.3978   21.7736 N   0  0  0  0  0  0  0  0  0  0  0  0
  -24.0654  -24.3885   16.5562 N   0  0  0  0  0  0  0  0  0  0  0  0
  -29.7380  -21.7270   17.8536 N   0  0  0  0  0  0  0  0  0  0  0  0
  -26.9723  -24.0226   14.4387 N   0  3  0  0  0  0  0  0  0  0  0  0
  -31.5789  -14.7395   20.0282 O   0  0  0  0  0  0  0  0  0  0  0  0
  -22.7647  -25.4768   21.9851 O   0  0  0  0  0  0  0  0  0  0  0  0
  -22.2180  -26.0911   17.9335 O   0  0  0  0  0  0  0  0  0  0  0  0
  -25.7089  -22.7534   16.6088 O   0  0  0  0  0  0  0  0  0  0  0  0
  -28.3696  -23.3540   18.7122 O   0  0  0  0  0  0  0  0  0  0  0  0
  -24.8031  -10.9366   20.4885 O   0  0  0  0  0  0  0  0  0  0  0  0
  -28.7631  -25.0518   23.2192 O   0  0  0  0  0  0  0  0  0  1  0  0
  -20.8220  -10.6992   24.2963 F   0  0  0  0  0  0  0  0  0  0  0  0
  -24.7767   -8.9298   22.3897 F   0  0  0  0  0  0  0  0  0  0  0  0
  1  2  1  0  0  0  0
  1  5  2  0  0  0  0
  2  6  2  0  0  0  0
  3  8  2  0  0  0  0
  3 17  1  0  0  0  0
  4  9  1  0  0  0  0
  4 17  2  0  0  0  0
  5 19  1  0  0  0  0
  6 21  1  0  0  0  0
  7 10  2  0  0  0  0
  7 20  1  0  0  0  0
  8 23  1  0  0  0  0
  9 23  2  0  0  0  0
 10 24  1  0  0  0  0
 11 12  2  0  0  0  0
 11 25  1  0  0  0  0
 12 26  1  0  0  0  0
 13 22  1  0  0  0  0
 13 24  2  0  0  0  0
 14 26  2  0  0  0  0
 14 27  1  0  0  0  0
 15 29  2  0  0  0  0
 15 64  1  0  0  0  0
 16 30  1  0  0  0  0
 16 63  2  0  0  0  0
 17 28  1  0  0  0  0
 18 28  1  0  0  0  0
 18 31  2  0  0  0  0
 18 32  1  0  0  0  0
 19 21  2  0  0  0  0
 19 37  1  0  0  0  0
 20 22  2  0  0  0  0
 20 38  1  0  0  0  0
 21 46  1  0  0  0  0
 22 39  1  0  0  0  0
 23 80  1  0  0  0  0
 24 81  1  0  0  0  0
 25 27  2  0  0  0  0
 25 80  1  0  0  0  0
 26 82  1  0  0  0  0
 27 83  1  0  0  0  0
 28 65  2  0  0  0  0
 29 56  1  0  0  0  0
 29 63  1  0  0  0  0
 30 58  1  0  0  0  0
 30 64  2  0  0  0  0
 31 66  1  0  0  0  0
 31 69  1  0  0  0  0
 32 70  1  0  0  0  0
 32 75  2  0  0  0  0
 33 47  1  0  0  0  0
 33 71  1  0  0  0  0
 33 76  2  0  0  0  0
 34 59  1  0  0  0  0
 34 67  1  0  0  0  0
 34 77  2  0  0  0  0
 35 60  1  0  0  0  0
 35 72  1  0  0  0  0
 35 78  2  0  0  0  0
 36 68  1  0  0  0  0
 36 73  1  0  0  0  0
 36 79  2  0  0  0  0
 37 40  1  0  0  0  0
 38 47  1  0  0  0  0
 39 67  1  0  0  0  0
 40 42  1  0  0  0  0
 41 43  1  0  0  0  0
 41 44  1  0  0  0  0
 42 46  1  0  0  0  0
 43 48  1  0  0  0  0
 44 68  1  0  0  0  0
 45 48  1  0  0  0  0
 45 68  1  0  0  0  0
 46 71  1  0  0  0  0
 47 67  1  0  0  0  0
 48 66  1  0  0  0  0
 49 60  1  0  0  0  0
 50 61  1  0  0  0  0
 51 61  1  0  0  0  0
 52 62  1  0  0  0  0
 53 62  1  0  0  0  0
 54 62  1  0  0  0  0
 55 74  1  0  0  0  0
 56 57  1  0  0  0  0
 57 73  1  0  0  0  0
 58 61  1  0  0  0  0
 58 81  1  0  0  0  0
 59 62  1  0  0  0  0
 59 72  1  0  0  0  0
 60 74  1  0  0  0  0
 65 66  1  0  0  0  0
M  CHG  1  74   1
M  ISO  4  36 100  58 101  73 100  81 101
M  END
> <Batch ID>
0113

> <Smiles>
CNC(C)C(=O)NC(C(=O)N1Cc2cc([101O:1][101CH:1](c3cnc(CC[100NH:0][100C:0](=O)N4CCCC(n5nc(-c6ccc(Oc7ccc(F)cc7F)cc6)c(C(N)=O)c5N)C4)cn3)C(C)C)ccc2CC1C(=O)NC1CCCc2ccccc21)C(C)(C)C

> <Shape>
0.227

> <Color>
0.085

> <Negative vol penalty>
0.000

$$$$

  -OEChem-04052320053D

 87 95  0     1  0  0  0  0  0999 V2000
  -30.5109  -20.1275   18.3036 C   0  0  0  0  0  0  0  0  0  0  0  0
  -30.4349  -19.1785   19.3167 C   0  0  0  0  0  0  0  0  0  0  0  0
  -24.6885  -30.1299   20.3524 C   0  0  0  0  0  0  0  0  0  0  0  0
  -24.5181  -28.4176   22.0483 C   0  0  0  0  0  0  0  0  0  0  0  0
  -30.0761  -21.4299   18.5397 C   0  0  0  0  0  0  0  0  0  0  0  0
  -29.9130  -19.5284   20.5625 C   0  0  0  0  0  0  0  0  0  0  0  0
  -23.1507  -20.8018   24.0129 C   0  0  0  0  0  0  0  0  0  0  0  0
  -24.2723  -31.0874   21.2773 C   0  0  0  0  0  0  0  0  0  0  0  0
  -24.1019  -29.3751   22.9732 C   0  0  0  0  0  0  0  0  0  0  0  0
  -21.9835  -21.3432   23.4759 C   0  0  0  0  0  0  0  0  0  0  0  0
  -23.6016  -34.0418   23.2865 C   0  0  0  0  0  0  0  0  0  0  0  0
  -24.2999  -35.2485   23.3294 C   0  0  0  0  0  0  0  0  0  0  0  0
  -22.2901  -20.0147   21.4858 C   0  0  0  0  0  0  0  0  0  0  0  0
  -26.3300  -34.0546   23.8681 C   0  0  0  0  0  0  0  0  0  0  0  0
  -24.8114  -28.7949   20.7379 C   0  0  0  0  0  0  0  0  0  0  0  0
  -26.5623  -27.4037   19.5104 C   0  0  0  0  0  0  0  0  0  0  0  0
  -29.5603  -21.7983   19.7931 C   0  0  0  0  0  0  0  0  0  0  0  0
  -23.9034  -19.8694   23.2846 C   0  0  0  0  0  0  0  0  0  0  0  0
  -29.4467  -20.8317   20.8130 C   0  0  0  0  0  0  0  0  0  0  0  0
  -23.4650  -19.4611   22.0169 C   0  0  0  0  0  0  0  0  0  0  0  0
  -23.9790  -30.7100   22.5877 C   0  0  0  0  0  0  0  0  0  0  0  0
  -21.5545  -20.9518   22.2110 C   0  0  0  0  0  0  0  0  0  0  0  0
  -24.2675  -32.8414   23.5344 C   0  0  0  0  0  0  0  0  0  0  0  0
  -25.6641  -35.2549   23.6202 C   0  0  0  0  0  0  0  0  0  0  0  0
  -25.6317  -32.8478   23.8252 C   0  0  0  0  0  0  0  0  0  0  0  0
  -25.2407  -27.8052   19.7827 C   0  0  0  0  0  0  0  0  0  0  0  0
  -26.4360  -26.4471   18.5330 C   0  0  0  0  0  0  0  0  0  0  0  0
  -22.6035  -19.0696   14.7888 C   0  0  0  0  0  0  0  0  0  0  0  0
  -22.4730  -19.0390   13.3094 C   0  0  0  0  0  0  0  0  0  0  0  0
  -21.7822  -18.3890   15.5922 C   0  0  0  0  0  0  0  0  0  0  0  0
  -27.7939  -27.8551   20.0893 C   0  0  0  0  0  0  0  0  0  0  0  0
  -26.8572  -19.7960   22.1126 C   0  0  0  0  0  0  0  0  0  0  0  0
  -26.0714  -16.7361   21.3767 C   0  0  0  0  0  0  0  0  0  0  0  0
  -23.6219  -14.4492   20.7307 C   0  0  0  0  0  0  0  0  0  0  0  0
  -24.0229  -21.9469   16.5652 C   0  0  0  0  0  0  0  0  0  0  0  0
  -29.0967  -23.2199   19.9917 C   0  0  0  0  0  0  0  0  0  0  0  0
  -25.1458  -19.2748   23.8890 C   0  0  0  0  0  0  0  0  0  0  0  0
  -24.2263  -18.4481   21.2028 C   0  0  0  0  0  0  0  0  0  0  0  0
  -28.9760  -23.6059   21.4623 C   0  0  0  0  0  0  0  0  0  0  0  0
  -22.4385  -25.0951   15.7431 C   0  0  0  0  0  0  0  0  0  0  0  0
  -28.1833  -22.5472   22.2142 C   0  0  0  0  0  0  0  0  0  0  0  0
  -23.1434  -26.0512   16.7071 C   0  0  0  0  0  0  0  0  0  0  0  0
  -22.1906  -23.7374   16.3937 C   0  0  0  0  0  0  0  0  0  0  0  0
  -24.1201  -24.0343   17.8978 C   0  0  0  0  0  0  0  0  0  0  0  0
  -28.9111  -21.1972   22.1855 C   0  0  1  0  0  0  0  0  0  0  0  0
  -23.7890  -19.9082   15.1702 C   0  0  1  0  0  0  0  0  0  0  0  0
  -26.1102  -18.7182   22.8461 C   0  0  1  0  0  0  0  0  0  0  0  0
  -24.4196  -25.4174   17.2917 C   0  0  2  0  0  0  0  0  0  0  0  0
  -24.5649  -20.0262   13.8507 C   0  0  1  0  0  0  0  0  0  0  0  0
  -25.7593  -19.0765   13.8093 C   0  0  0  0  0  0  0  0  0  0  0  0
  -23.2894  -12.0367   20.1250 C   0  0  0  0  0  0  0  0  0  0  0  0
  -17.7645  -19.9953   17.7553 C   0  0  0  0  0  0  0  0  0  0  0  0
  -20.2147  -23.0686   19.8919 C   0  0  0  0  0  0  0  0  0  0  0  0
  -26.9053  -17.3446   18.5055 C   0  0  0  0  0  0  0  0  0  0  0  0
  -25.6864  -15.2789   17.7874 C   0  0  0  0  0  0  0  0  0  0  0  0
  -27.6246  -15.1023   19.3478 C   0  0  0  0  0  0  0  0  0  0  0  0
  -22.0988  -13.9160   23.2116 C   0  0  0  0  0  0  0  0  0  0  0  0
  -21.8810  -18.3939   17.0898 C   0  0  0  0  0  0  0  0  0  0  0  0
  -20.5963  -18.8649   17.7823 C   0  0  0  0  0  0  0  0  0  0  0  0
  -20.2297  -20.3186   17.4562 C   0  0  0  0  0  0  0  0  0  0  0  0
  -19.1648  -20.7812   19.7359 C   0  0  0  0  0  0  0  0  0  0  0  0
  -25.4377  -16.0508   20.1902 C   0  0  1  0  0  0  0  0  0  0  0  0
  -23.3901  -13.0450   21.2590 C   0  0  2  0  0  0  0  0  0  0  0  0
  -18.9737  -20.8252   18.2023 C   0  0  2  0  0  0  0  0  0  0  0  0
  -20.3532  -21.5967   20.2624 C   0  0  2  0  0  0  0  0  0  1  0  0
  -26.4000  -15.9647   18.9720 C   0  0  0  0  0  0  0  0  0  0  0  0
  -24.3411  -27.1568   19.0383 N   0  0  0  0  0  0  0  0  0  0  0  0
  -25.0986  -26.3382   18.2886 N   0  0  0  0  0  0  0  0  0  0  0  0
  -23.6071  -19.6683   12.8244 N   0  0  0  0  0  0  0  0  0  0  0  0
  -25.4381  -17.9003   21.8344 N   0  0  0  0  0  0  0  0  0  0  0  0
  -23.4477  -23.1805   16.9129 N   0  0  0  0  0  0  0  0  0  0  0  0
  -27.3396  -25.6968   17.8673 N   0  0  0  0  0  0  0  0  0  0  0  0
  -27.7431  -28.8438   21.0814 N   0  0  0  0  0  0  0  0  0  0  0  0
  -28.0367  -20.1780   22.7228 N   0  0  0  0  0  0  0  0  0  0  0  0
  -24.9646  -14.7571   20.6706 N   0  0  0  0  0  0  0  0  0  0  0  0
  -23.3197  -21.1959   15.6312 N   0  0  0  0  0  0  0  0  0  0  0  0
  -22.1280  -12.9908   22.0496 N   0  3  0  0  0  0  0  0  0  0  0  0
  -21.5457  -18.5643   12.6775 O   0  0  0  0  0  0  0  0  0  0  0  0
  -28.9077  -27.4071   19.7256 O   0  0  0  0  0  0  0  0  0  0  0  0
  -26.3983  -20.2466   21.0695 O   0  0  0  0  0  0  0  0  0  0  0  0
  -27.0866  -16.2521   21.8834 O   0  0  0  0  0  0  0  0  0  0  0  0
  -22.7039  -15.1967   20.4007 O   0  0  0  0  0  0  0  0  0  0  0  0
  -25.0877  -21.5464   17.0476 O   0  0  0  0  0  0  0  0  0  0  0  0
  -23.5730  -31.6442   23.4906 O   0  0  0  0  0  0  0  0  0  0  0  0
  -20.4088  -21.4825   21.6809 O   0  0  0  0  0  0  0  0  0  1  0  0
  -26.3348  -36.4136   23.6599 F   0  0  0  0  0  0  0  0  0  0  0  0
  -26.2771  -31.6977   24.0631 F   0  0  0  0  0  0  0  0  0  0  0  0
  1  2  1  0  0  0  0
  1  5  2  0  0  0  0
  2  6  2  0  0  0  0
  3  8  2  0  0  0  0
  3 15  1  0  0  0  0
  4  9  1  0  0  0  0
  4 15  2  0  0  0  0
  5 17  1  0  0  0  0
  6 19  1  0  0  0  0
  7 10  2  0  0  0  0
  7 18  1  0  0  0  0
  8 21  1  0  0  0  0
  9 21  2  0  0  0  0
 10 22  1  0  0  0  0
 11 12  2  0  0  0  0
 11 23  1  0  0  0  0
 12 24  1  0  0  0  0
 13 20  1  0  0  0  0
 13 22  2  0  0  0  0
 14 24  2  0  0  0  0
 14 25  1  0  0  0  0
 15 26  1  0  0  0  0
 16 26  1  0  0  0  0
 16 27  2  0  0  0  0
 16 31  1  0  0  0  0
 17 19  2  0  0  0  0
 17 36  1  0  0  0  0
 18 20  2  0  0  0  0
 18 37  1  0  0  0  0
 19 45  1  0  0  0  0
 20 38  1  0  0  0  0
 21 84  1  0  0  0  0
 22 85  1  0  0  0  0
 23 25  2  0  0  0  0
 23 84  1  0  0  0  0
 24 86  1  0  0  0  0
 25 87  1  0  0  0  0
 26 67  2  0  0  0  0
 27 68  1  0  0  0  0
 27 72  1  0  0  0  0
 28 29  1  0  0  0  0
 28 30  2  0  0  0  0
 28 46  1  0  0  0  0
 29 69  1  0  0  0  0
 29 78  2  0  0  0  0
 30 58  1  0  0  0  0
 31 73  1  0  0  0  0
 31 79  2  0  0  0  0
 32 47  1  0  0  0  0
 32 74  1  0  0  0  0
 32 80  2  0  0  0  0
 33 62  1  0  0  0  0
 33 70  1  0  0  0  0
 33 81  2  0  0  0  0
 34 63  1  0  0  0  0
 34 75  1  0  0  0  0
 34 82  2  0  0  0  0
 35 71  1  0  0  0  0
 35 76  1  0  0  0  0
 35 83  2  0  0  0  0
 36 39  1  0  0  0  0
 37 47  1  0  0  0  0
 38 70  1  0  0  0  0
 39 41  1  0  0  0  0
 40 42  1  0  0  0  0
 40 43  1  0  0  0  0
 41 45  1  0  0  0  0
 42 48  1  0  0  0  0
 43 71  1  0  0  0  0
 44 48  1  0  0  0  0
 44 71  1  0  0  0  0
 45 74  1  0  0  0  0
 46 49  1  0  0  0  0
 46 76  1  0  0  0  0
 47 70  1  0  0  0  0
 48 68  1  0  0  0  0
 49 50  1  0  0  0  0
 49 69  1  0  0  0  0
 51 63  1  0  0  0  0
 52 64  1  0  0  0  0
 53 65  1  0  0  0  0
 54 66  1  0  0  0  0
 55 66  1  0  0  0  0
 56 66  1  0  0  0  0
 57 77  1  0  0  0  0
 58 59  1  0  0  0  0
 59 60  1  0  0  0  0
 60 64  1  0  0  0  0
 61 64  1  0  0  0  0
 61 65  1  0  0  0  0
 62 66  1  0  0  0  0
 62 75  1  0  0  0  0
 63 77  1  0  0  0  0
 65 85  1  0  0  0  0
 67 68  1  0  0  0  0
M  CHG  1  77   1
M  ISO  4  35 100  65 101  76 100  85 101
M  END
> <Batch ID>
0113

> <Smiles>
CNC(C)C(=O)NC(C(=O)N1Cc2cc([101O:1][101CH:1](C)CC(C)CCCC=C3C(=O)NC(C)C3[100NH:0][100C:0](=O)N3CCCC(n4nc(-c5ccc(Oc6ccc(F)cc6F)cc5)c(C(N)=O)c4N)C3)ccc2CC1C(=O)NC1CCCc2ccccc21)C(C)(C)C

> <Shape>
0.195

> <Color>
0.071

> <Negative vol penalty>
0.000

$$$$

  -OEChem-04052320053D

 82 90  0     1  0  0  0  0  0999 V2000
  -31.3151  -27.0559   18.3093 C   0  0  0  0  0  0  0  0  0  0  0  0
  -30.5883  -25.9386   18.7077 C   0  0  0  0  0  0  0  0  0  0  0  0
  -23.0767   -9.8661   19.9404 C   0  0  0  0  0  0  0  0  0  0  0  0
  -23.8356   -9.8736   22.2341 C   0  0  0  0  0  0  0  0  0  0  0  0
  -32.4245  -27.4643   19.0485 C   0  0  0  0  0  0  0  0  0  0  0  0
  -30.9711  -25.2283   19.8450 C   0  0  0  0  0  0  0  0  0  0  0  0
  -27.2829  -22.4133   23.8424 C   0  0  0  0  0  0  0  0  0  0  0  0
  -22.3334   -8.7126   20.1901 C   0  0  0  0  0  0  0  0  0  0  0  0
  -23.0922   -8.7201   22.4838 C   0  0  0  0  0  0  0  0  0  0  0  0
  -26.8950  -21.0817   23.9837 C   0  0  0  0  0  0  0  0  0  0  0  0
  -19.8642   -7.9205   23.0850 C   0  0  0  0  0  0  0  0  0  0  0  0
  -19.1068   -7.8802   24.2555 C   0  0  0  0  0  0  0  0  0  0  0  0
  -28.6269  -20.7583   25.6314 C   0  0  0  0  0  0  0  0  0  0  0  0
  -20.3490   -5.9434   24.9926 C   0  0  0  0  0  0  0  0  0  0  0  0
  -30.3056  -19.1740   22.3298 C   0  0  0  0  0  0  0  0  0  0  0  0
  -23.8279  -10.4466   20.9624 C   0  0  0  0  0  0  0  0  0  0  0  0
  -24.1684  -12.9720   20.8424 C   0  0  0  0  0  0  0  0  0  0  0  0
  -32.8154  -26.7644   20.2008 C   0  0  0  0  0  0  0  0  0  0  0  0
  -28.3546  -22.9254   24.5878 C   0  0  0  0  0  0  0  0  0  0  0  0
  -32.0875  -25.6270   20.5995 C   0  0  0  0  0  0  0  0  0  0  0  0
  -29.0248  -22.0974   25.4996 C   0  0  0  0  0  0  0  0  0  0  0  0
  -30.6238  -19.2672   20.9929 C   0  0  0  0  0  0  0  0  0  0  0  0
  -30.5871  -17.9563   20.4569 C   0  0  0  0  0  0  0  0  0  0  0  0
  -22.3411   -8.1395   21.4618 C   0  0  0  0  0  0  0  0  0  0  0  0
  -27.5688  -20.2532   24.8762 C   0  0  0  0  0  0  0  0  0  0  0  0
  -20.8640   -6.9722   22.8681 C   0  0  0  0  0  0  0  0  0  0  0  0
  -19.3492   -6.8917   25.2094 C   0  0  0  0  0  0  0  0  0  0  0  0
  -21.1064   -5.9837   23.8220 C   0  0  0  0  0  0  0  0  0  0  0  0
  -24.5964  -11.6379   20.7050 C   0  0  0  0  0  0  0  0  0  0  0  0
  -25.2603  -13.7220   20.4796 C   0  0  0  0  0  0  0  0  0  0  0  0
  -30.2475  -17.1019   21.4826 C   0  0  0  0  0  0  0  0  0  0  0  0
  -22.8974  -13.4871   21.2608 C   0  0  0  0  0  0  0  0  0  0  0  0
  -31.1914  -24.1695   23.8745 C   0  0  0  0  0  0  0  0  0  0  0  0
  -31.3127  -24.7313   27.0670 C   0  0  0  0  0  0  0  0  0  0  0  0
  -30.2410  -23.8981   30.1981 C   0  0  0  0  0  0  0  0  0  0  0  0
  -30.7259  -14.7705   20.6567 C   0  0  0  0  0  0  0  0  0  0  0  0
  -34.0496  -27.2160   20.9407 C   0  0  0  0  0  0  0  0  0  0  0  0
  -28.7436  -24.3712   24.4433 C   0  0  0  0  0  0  0  0  0  0  0  0
  -30.1688  -22.6039   26.3382 C   0  0  0  0  0  0  0  0  0  0  0  0
  -34.1665  -26.6296   22.3453 C   0  0  0  0  0  0  0  0  0  0  0  0
  -29.6137  -12.3562   18.2879 C   0  0  0  0  0  0  0  0  0  0  0  0
  -33.8843  -25.1307   22.3232 C   0  0  0  0  0  0  0  0  0  0  0  0
  -28.1741  -12.0638   18.7169 C   0  0  0  0  0  0  0  0  0  0  0  0
  -30.5282  -12.5854   19.4900 C   0  0  0  0  0  0  0  0  0  0  0  0
  -28.6203  -13.3088   20.8704 C   0  0  0  0  0  0  0  0  0  0  0  0
  -32.4568  -24.8451   21.8415 C   0  0  1  0  0  0  0  0  0  0  0  0
  -30.1797  -24.6497   24.8763 C   0  0  1  0  0  0  0  0  0  0  0  0
  -27.6481  -13.1351   19.6922 C   0  0  2  0  0  0  0  0  0  0  0  0
  -30.9426  -20.5110   20.2642 C   0  0  0  0  0  0  0  0  0  0  0  0
  -30.8623  -17.5762   19.0553 C   0  0  0  0  0  0  0  0  0  0  0  0
  -30.5460  -24.5105   32.6125 C   0  0  0  0  0  0  0  0  0  0  0  0
  -25.8568  -17.6263   23.5271 C   0  0  0  0  0  0  0  0  0  0  0  0
  -33.9956  -23.2784   27.0941 C   0  0  0  0  0  0  0  0  0  0  0  0
  -33.7867  -23.0850   29.5815 C   0  0  0  0  0  0  0  0  0  0  0  0
  -33.9091  -25.3358   28.5132 C   0  0  0  0  0  0  0  0  0  0  0  0
  -27.3912  -24.6414   30.4897 C   0  0  0  0  0  0  0  0  0  0  0  0
  -28.2169  -16.9616   24.1122 C   0  0  0  0  0  0  0  0  0  0  0  0
  -29.7016  -17.3301   23.9793 C   0  0  0  0  0  0  0  0  0  0  0  0
  -31.8010  -23.9614   28.2702 C   0  0  1  0  0  0  0  0  0  0  0  0
  -29.7341  -24.7486   31.3488 C   0  0  2  0  0  0  0  0  0  0  0  0
  -27.2575  -18.1295   23.8518 C   0  0  2  0  0  0  0  0  0  1  0  0
  -33.3528  -23.9048   28.3477 C   0  0  0  0  0  0  0  0  0  0  0  0
  -25.8615  -11.5428   20.2872 N   0  0  0  0  0  0  0  0  0  0  0  0
  -30.0785  -17.8532   22.6162 N   0  0  0  0  0  0  0  0  0  0  0  0
  -26.2378  -12.8265   20.1590 N   0  0  0  0  0  0  0  0  0  0  0  0
  -30.5157  -24.0231   26.1564 N   0  0  0  0  0  0  0  0  0  0  0  0
  -29.9683  -13.6159   20.3671 N   0  0  0  0  0  0  0  0  0  0  0  0
  -25.4700  -15.0536   20.4066 N   0  0  0  0  0  0  0  0  0  0  0  0
  -21.8859  -12.5774   21.5976 N   0  0  0  0  0  0  0  0  0  0  0  0
  -30.0776  -15.6952   21.4749 N   0  0  0  0  0  0  0  0  0  0  0  0
  -31.5051  -25.0994   22.9017 N   0  0  0  0  0  0  0  0  0  0  0  0
  -31.1667  -24.5746   29.4321 N   0  0  0  0  0  0  0  0  0  0  0  0
  -28.3077  -24.4296   31.6396 N   0  3  0  0  0  0  0  0  0  0  0  0
  -22.6605  -14.7176   21.3180 O   0  0  0  0  0  0  0  0  0  0  0  0
  -31.6542  -23.0395   23.9774 O   0  0  0  0  0  0  0  0  0  0  0  0
  -31.6209  -25.9194   26.9433 O   0  0  0  0  0  0  0  0  0  0  0  0
  -29.8572  -22.7473   30.0008 O   0  0  0  0  0  0  0  0  0  0  0  0
  -31.8551  -14.9399   20.1896 O   0  0  0  0  0  0  0  0  0  0  0  0
  -21.6157   -7.0140   21.7059 O   0  0  0  0  0  0  0  0  0  0  0  0
  -27.1926  -18.9528   25.0156 O   0  0  0  0  0  0  0  0  0  1  0  0
  -18.6228   -6.8540   26.3341 F   0  0  0  0  0  0  0  0  0  0  0  0
  -22.0663   -5.0708   23.6198 F   0  0  0  0  0  0  0  0  0  0  0  0
  1  2  1  0  0  0  0
  1  5  2  0  0  0  0
  2  6  2  0  0  0  0
  3  8  2  0  0  0  0
  3 16  1  0  0  0  0
  4  9  1  0  0  0  0
  4 16  2  0  0  0  0
  5 18  1  0  0  0  0
  6 20  1  0  0  0  0
  7 10  2  0  0  0  0
  7 19  1  0  0  0  0
  8 24  1  0  0  0  0
  9 24  2  0  0  0  0
 10 25  1  0  0  0  0
 11 12  2  0  0  0  0
 11 26  1  0  0  0  0
 12 27  1  0  0  0  0
 13 21  1  0  0  0  0
 13 25  2  0  0  0  0
 14 27  2  0  0  0  0
 14 28  1  0  0  0  0
 15 22  2  0  0  0  0
 15 64  1  0  0  0  0
 16 29  1  0  0  0  0
 17 29  1  0  0  0  0
 17 30  2  0  0  0  0
 17 32  1  0  0  0  0
 18 20  2  0  0  0  0
 18 37  1  0  0  0  0
 19 21  2  0  0  0  0
 19 38  1  0  0  0  0
 20 46  1  0  0  0  0
 21 39  1  0  0  0  0
 22 23  1  0  0  0  0
 22 49  1  0  0  0  0
 23 31  2  0  0  0  0
 23 50  1  0  0  0  0
 24 79  1  0  0  0  0
 25 80  1  0  0  0  0
 26 28  2  0  0  0  0
 26 79  1  0  0  0  0
 27 81  1  0  0  0  0
 28 82  1  0  0  0  0
 29 63  2  0  0  0  0
 30 65  1  0  0  0  0
 30 68  1  0  0  0  0
 31 64  1  0  0  0  0
 31 70  1  0  0  0  0
 32 69  1  0  0  0  0
 32 74  2  0  0  0  0
 33 47  1  0  0  0  0
 33 71  1  0  0  0  0
 33 75  2  0  0  0  0
 34 59  1  0  0  0  0
 34 66  1  0  0  0  0
 34 76  2  0  0  0  0
 35 60  1  0  0  0  0
 35 72  1  0  0  0  0
 35 77  2  0  0  0  0
 36 67  1  0  0  0  0
 36 70  1  0  0  0  0
 36 78  2  0  0  0  0
 37 40  1  0  0  0  0
 38 47  1  0  0  0  0
 39 66  1  0  0  0  0
 40 42  1  0  0  0  0
 41 43  1  0  0  0  0
 41 44  1  0  0  0  0
 42 46  1  0  0  0  0
 43 48  1  0  0  0  0
 44 67  1  0  0  0  0
 45 48  1  0  0  0  0
 45 67  1  0  0  0  0
 46 71  1  0  0  0  0
 47 66  1  0  0  0  0
 48 65  1  0  0  0  0
 51 60  1  0  0  0  0
 52 61  1  0  0  0  0
 53 62  1  0  0  0  0
 54 62  1  0  0  0  0
 55 62  1  0  0  0  0
 56 73  1  0  0  0  0
 57 58  1  0  0  0  0
 57 61  1  0  0  0  0
 58 64  1  0  0  0  0
 59 62  1  0  0  0  0
 59 72  1  0  0  0  0
 60 73  1  0  0  0  0
 61 80  1  0  0  0  0
 63 65  1  0  0  0  0
M  CHG  1  73   1
M  ISO  4  36 100  61 101  70 100  80 101
M  END
> <Batch ID>
0113

> <Smiles>
CNC(C)C(=O)NC(C(=O)N1Cc2cc([101O:1][101CH:1](C)CCn3cc(C)c(C)c3[100NH:0][100C:0](=O)N3CCCC(n4nc(-c5ccc(Oc6ccc(F)cc6F)cc5)c(C(N)=O)c4N)C3)ccc2CC1C(=O)NC1CCCc2ccccc21)C(C)(C)C

> <Shape>
0.207

> <Color>
0.200

> <Negative vol penalty>
0.000

$$$$

  -OEChem-04052320053D

 88 96  0     1  0  0  0  0  0999 V2000
  -17.8364  -24.7533   24.6621 C   0  0  0  0  0  0  0  0  0  0  0  0
  -19.2059  -24.5091   24.6515 C   0  0  0  0  0  0  0  0  0  0  0  0
  -22.6054  -12.7913   22.8038 C   0  0  0  0  0  0  0  0  0  0  0  0
  -24.4584  -11.5232   23.6957 C   0  0  0  0  0  0  0  0  0  0  0  0
  -17.3286  -25.8968   24.0469 C   0  0  0  0  0  0  0  0  0  0  0  0
  -20.0684  -25.4078   24.0247 C   0  0  0  0  0  0  0  0  0  0  0  0
  -24.1800  -26.4148   26.8043 C   0  0  0  0  0  0  0  0  0  0  0  0
  -21.8631  -12.5140   23.9516 C   0  0  0  0  0  0  0  0  0  0  0  0
  -23.7161  -11.2460   24.8437 C   0  0  0  0  0  0  0  0  0  0  0  0
  -25.1938  -25.4578   26.8113 C   0  0  0  0  0  0  0  0  0  0  0  0
  -22.1804   -9.9029   27.8516 C   0  0  0  0  0  0  0  0  0  0  0  0
  -22.1936   -8.5933   28.3316 C   0  0  0  0  0  0  0  0  0  0  0  0
  -26.4233  -26.7574   25.1930 C   0  0  0  0  0  0  0  0  0  0  0  0
  -21.2583   -7.8183   26.2431 C   0  0  0  0  0  0  0  0  0  0  0  0
  -23.9031  -12.2958   22.6758 C   0  0  0  0  0  0  0  0  0  0  0  0
  -24.3441  -12.2399   20.1638 C   0  0  0  0  0  0  0  0  0  0  0  0
  -18.1862  -26.8149   23.4206 C   0  0  0  0  0  0  0  0  0  0  0  0
  -24.2753  -27.5467   25.9820 C   0  0  0  0  0  0  0  0  0  0  0  0
  -19.5715  -26.5640   23.3994 C   0  0  0  0  0  0  0  0  0  0  0  0
  -25.4105  -27.7285   25.1793 C   0  0  0  0  0  0  0  0  0  0  0  0
  -22.4184  -11.7414   24.9716 C   0  0  0  0  0  0  0  0  0  0  0  0
  -26.3144  -25.6276   26.0034 C   0  0  0  0  0  0  0  0  0  0  0  0
  -21.7061  -10.1702   26.5674 C   0  0  0  0  0  0  0  0  0  0  0  0
  -21.7326   -7.5510   27.5274 C   0  0  0  0  0  0  0  0  0  0  0  0
  -21.2451   -9.1280   25.7631 C   0  0  0  0  0  0  0  0  0  0  0  0
  -24.6702  -12.5814   21.4900 C   0  0  0  0  0  0  0  0  0  0  0  0
  -25.3862  -12.7319   19.4164 C   0  0  0  0  0  0  0  0  0  0  0  0
  -23.2014  -11.5406   19.6531 C   0  0  0  0  0  0  0  0  0  0  0  0
  -22.5732  -28.7123   23.5637 C   0  0  0  0  0  0  0  0  0  0  0  0
  -24.6036  -31.2251   23.8562 C   0  0  0  0  0  0  0  0  0  0  0  0
  -27.6389  -32.3921   24.8917 C   0  0  0  0  0  0  0  0  0  0  0  0
  -29.3141  -17.1607   20.3151 C   0  0  0  0  0  0  0  0  0  0  0  0
  -17.5863  -28.0128   22.7280 C   0  0  0  0  0  0  0  0  0  0  0  0
  -23.1854  -28.5831   26.0060 C   0  0  0  0  0  0  0  0  0  0  0  0
  -25.5705  -28.9362   24.2938 C   0  0  0  0  0  0  0  0  0  0  0  0
  -18.6037  -29.1058   22.4107 C   0  0  0  0  0  0  0  0  0  0  0  0
  -29.5368  -24.3502   21.0169 C   0  0  0  0  0  0  0  0  0  0  0  0
  -29.8839  -23.3968   19.8841 C   0  0  0  0  0  0  0  0  0  0  0  0
  -30.0560  -13.7324   19.7047 C   0  0  0  0  0  0  0  0  0  0  0  0
  -19.8575  -28.5027   21.7853 C   0  0  0  0  0  0  0  0  0  0  0  0
  -28.7304  -13.0178   19.9733 C   0  0  0  0  0  0  0  0  0  0  0  0
  -28.1889  -23.9790   21.6212 C   0  0  0  0  0  0  0  0  0  0  0  0
  -30.2707  -14.9022   20.6624 C   0  0  0  0  0  0  0  0  0  0  0  0
  -29.7960  -21.9439   20.3456 C   0  0  0  0  0  0  0  0  0  0  0  0
  -27.8400  -15.1635   20.9744 C   0  0  0  0  0  0  0  0  0  0  0  0
  -20.5416  -27.5278   22.7513 C   0  0  1  0  0  0  0  0  0  0  0  0
  -23.1489  -29.4410   24.7450 C   0  0  1  0  0  0  0  0  0  0  0  0
  -27.5528  -14.0108   19.9970 C   0  0  2  0  0  0  0  0  0  0  0  0
  -28.1354  -22.4965   22.0427 C   0  0  1  0  0  0  0  0  0  0  0  0
  -29.0264  -34.4819   24.9618 C   0  0  0  0  0  0  0  0  0  0  0  0
  -24.4193  -20.3344   21.6805 C   0  0  0  0  0  0  0  0  0  0  0  0
  -23.3247  -22.3528   20.6856 C   0  0  0  0  0  0  0  0  0  0  0  0
  -27.6134  -22.8700   27.5528 C   0  0  0  0  0  0  0  0  0  0  0  0
  -25.2168  -30.9148   20.8834 C   0  0  0  0  0  0  0  0  0  0  0  0
  -27.2441  -32.3440   21.2235 C   0  0  0  0  0  0  0  0  0  0  0  0
  -24.9730  -33.2805   21.6568 C   0  0  0  0  0  0  0  0  0  0  0  0
  -27.7445  -32.3617   27.8492 C   0  0  0  0  0  0  0  0  0  0  0  0
  -25.6624  -22.5625   21.5827 C   0  0  0  0  0  0  0  0  0  0  0  0
  -28.4204  -20.1989   21.2392 C   0  0  0  0  0  0  0  0  0  0  0  0
  -28.2075  -19.3581   19.9890 C   0  0  0  0  0  0  0  0  0  0  0  0
  -27.2265  -22.4913   25.0527 C   0  0  0  0  0  0  0  0  0  0  0  0
  -25.9445  -31.5904   23.2666 C   0  0  1  0  0  0  0  0  0  0  0  0
  -28.0238  -33.6140   25.7062 C   0  0  2  0  0  0  0  0  0  0  0  0
  -26.7404  -22.2138   22.6184 C   0  0  2  0  0  0  0  0  0  0  0  0
  -24.3019  -21.8569   21.7559 C   0  0  0  0  0  0  0  0  0  0  0  0
  -26.9262  -23.3460   26.2797 C   0  0  2  0  0  0  0  0  0  1  0  0
  -25.8410  -32.0086   21.7727 C   0  0  0  0  0  0  0  0  0  0  0  0
  -25.8289  -13.2394   21.5830 N   0  0  0  0  0  0  0  0  0  0  0  0
  -26.2400  -13.3151   20.3058 N   0  0  0  0  0  0  0  0  0  0  0  0
  -24.4749  -29.9183   24.3475 N   0  0  0  0  0  0  0  0  0  0  0  0
  -29.1191  -15.8072   20.6360 N   0  0  0  0  0  0  0  0  0  0  0  0
  -28.4663  -21.6226   20.8935 N   0  0  2  0  0  0  0  0  0  0  0  0
  -25.6463  -12.7180   18.0918 N   0  0  0  0  0  0  0  0  0  0  0  0
  -23.2661  -10.1448   19.5438 N   0  0  0  0  0  0  0  0  0  0  0  0
  -21.2847  -28.2531   23.7593 N   0  0  0  0  0  0  0  0  0  0  0  0
  -26.5071  -32.6172   24.1370 N   0  0  0  0  0  0  0  0  0  0  0  0
  -28.1691  -17.9479   20.3065 N   0  0  0  0  0  0  0  0  0  0  0  0
  -28.6310  -33.2016   27.0032 N   0  3  0  0  0  0  0  0  0  0  0  0
  -26.5399  -23.0249   23.8500 N   0  3  0  0  0  0  0  0  0  0  0  0
  -22.1599  -12.1373   19.2887 O   0  0  0  0  0  0  0  0  0  0  0  0
  -23.2476  -28.5780   22.5494 O   0  0  0  0  0  0  0  0  0  0  0  0
  -23.7058  -32.0705   23.8864 O   0  0  0  0  0  0  0  0  0  0  0  0
  -28.2804  -31.3441   24.9192 O   0  0  0  0  0  0  0  0  0  0  0  0
  -30.4255  -17.6315   20.0502 O   0  0  0  0  0  0  0  0  0  0  0  0
  -21.6944  -11.4708   26.0919 O   0  0  0  0  0  0  0  0  0  0  0  0
  -27.3051  -24.6947   26.0079 O   0  0  0  0  0  0  0  0  0  1  0  0
  -21.7468   -6.2933   27.9879 F   0  0  0  0  0  0  0  0  0  0  0  0
  -20.7894   -9.3785   24.5280 F   0  0  0  0  0  0  0  0  0  0  0  0
  1  2  1  0  0  0  0
  1  5  2  0  0  0  0
  2  6  2  0  0  0  0
  3  8  2  0  0  0  0
  3 15  1  0  0  0  0
  4  9  1  0  0  0  0
  4 15  2  0  0  0  0
  5 17  1  0  0  0  0
  6 19  1  0  0  0  0
  7 10  2  0  0  0  0
  7 18  1  0  0  0  0
  8 21  1  0  0  0  0
  9 21  2  0  0  0  0
 10 22  1  0  0  0  0
 11 12  2  0  0  0  0
 11 23  1  0  0  0  0
 12 24  1  0  0  0  0
 13 20  1  0  0  0  0
 13 22  2  0  0  0  0
 14 24  2  0  0  0  0
 14 25  1  0  0  0  0
 15 26  1  0  0  0  0
 16 26  1  0  0  0  0
 16 27  2  0  0  0  0
 16 28  1  0  0  0  0
 17 19  2  0  0  0  0
 17 33  1  0  0  0  0
 18 20  2  0  0  0  0
 18 34  1  0  0  0  0
 19 46  1  0  0  0  0
 20 35  1  0  0  0  0
 21 85  1  0  0  0  0
 22 86  1  0  0  0  0
 23 25  2  0  0  0  0
 23 85  1  0  0  0  0
 24 87  1  0  0  0  0
 25 88  1  0  0  0  0
 26 68  2  0  0  0  0
 27 69  1  0  0  0  0
 27 73  1  0  0  0  0
 28 74  1  0  0  0  0
 28 80  2  0  0  0  0
 29 47  1  0  0  0  0
 29 75  1  0  0  0  0
 29 81  2  0  0  0  0
 30 62  1  0  0  0  0
 30 70  1  0  0  0  0
 30 82  2  0  0  0  0
 31 63  1  0  0  0  0
 31 76  1  0  0  0  0
 31 83  2  0  0  0  0
 32 71  1  0  0  0  0
 32 77  1  0  0  0  0
 32 84  2  0  0  0  0
 33 36  1  0  0  0  0
 34 47  1  0  0  0  0
 35 70  1  0  0  0  0
 36 40  1  0  0  0  0
 37 38  1  0  0  0  0
 37 42  1  0  0  0  0
 38 44  1  0  0  0  0
 39 41  1  0  0  0  0
 39 43  1  0  0  0  0
 40 46  1  0  0  0  0
 41 48  1  0  0  0  0
 42 49  1  0  0  0  0
 43 71  1  0  0  0  0
 44 72  1  0  0  0  0
 45 48  1  0  0  0  0
 45 71  1  0  0  0  0
 46 75  1  0  0  0  0
 47 70  1  0  0  0  0
 48 69  1  0  0  0  0
 49 64  1  0  0  0  0
 49 72  1  0  0  0  0
 50 63  1  0  0  0  0
 51 65  1  0  0  0  0
 52 65  1  0  0  0  0
 53 66  1  0  0  0  0
 54 67  1  0  0  0  0
 55 67  1  0  0  0  0
 56 67  1  0  0  0  0
 57 78  1  0  0  0  0
 58 64  1  0  0  0  0
 58 65  1  0  0  0  0
 59 60  1  0  0  0  0
 59 72  1  0  0  0  0
 60 77  1  0  0  0  0
 61 66  1  0  0  0  0
 61 79  1  0  0  0  0
 62 67  1  0  0  0  0
 62 76  1  0  0  0  0
 63 78  1  0  0  0  0
 64 79  1  0  0  0  0
 66 86  1  0  0  0  0
 68 69  1  0  0  0  0
M  CHG  2  78   1  79   1
M  ISO  4  32 100  66 101  77 100  86 101
M  END
> <Batch ID>
0113

> <Smiles>
CNC(C)C(=O)NC(C(=O)N1Cc2cc([101O:1][101CH:1](C)CNC(CC(C)C)C3CCCCN3CC[100NH:0][100C:0](=O)N3CCCC(n4nc(-c5ccc(Oc6ccc(F)cc6F)cc5)c(C(N)=O)c4N)C3)ccc2CC1C(=O)NC1CCCc2ccccc21)C(C)(C)C

> <Shape>
0.244

> <Color>
0.084

> <Negative vol penalty>
0.000

$$$$

  -OEChem-04052320053D

 92100  0     1  0  0  0  0  0999 V2000
  -22.8994  -30.2803   16.4138 C   0  0  0  0  0  0  0  0  0  0  0  0
  -22.6380  -29.0907   17.0861 C   0  0  0  0  0  0  0  0  0  0  0  0
  -25.6480  -13.4745   21.2774 C   0  0  0  0  0  0  0  0  0  0  0  0
  -26.3616  -12.0072   19.4956 C   0  0  0  0  0  0  0  0  0  0  0  0
  -23.8739  -31.1529   16.8964 C   0  0  0  0  0  0  0  0  0  0  0  0
  -23.3519  -28.7725   18.2409 C   0  0  0  0  0  0  0  0  0  0  0  0
  -22.5973  -25.4133   24.5228 C   0  0  0  0  0  0  0  0  0  0  0  0
  -24.4981  -12.7043   21.4511 C   0  0  0  0  0  0  0  0  0  0  0  0
  -25.2117  -11.2370   19.6693 C   0  0  0  0  0  0  0  0  0  0  0  0
  -23.2079  -24.4281   25.2975 C   0  0  0  0  0  0  0  0  0  0  0  0
  -21.9436  -11.4133   18.8215 C   0  0  0  0  0  0  0  0  0  0  0  0
  -21.2446  -11.0253   17.6785 C   0  0  0  0  0  0  0  0  0  0  0  0
  -24.8128  -26.0487   26.0830 C   0  0  0  0  0  0  0  0  0  0  0  0
  -27.3504  -23.5756   21.1417 C   0  0  0  0  0  0  0  0  0  0  0  0
  -21.5886   -8.7046   18.2558 C   0  0  0  0  0  0  0  0  0  0  0  0
  -29.8008  -22.3922   21.3445 C   0  0  0  0  0  0  0  0  0  0  0  0
  -26.5798  -13.1260   20.2996 C   0  0  0  0  0  0  0  0  0  0  0  0
  -29.0104  -13.7502   20.7578 C   0  0  0  0  0  0  0  0  0  0  0  0
  -24.5933  -30.8497   18.0631 C   0  0  0  0  0  0  0  0  0  0  0  0
  -23.0973  -26.7234   24.5140 C   0  0  0  0  0  0  0  0  0  0  0  0
  -24.3379  -29.6412   18.7388 C   0  0  0  0  0  0  0  0  0  0  0  0
  -24.2051  -27.0494   25.3093 C   0  0  0  0  0  0  0  0  0  0  0  0
  -27.5783  -22.3643   20.4981 C   0  0  0  0  0  0  0  0  0  0  0  0
  -28.8241  -21.7547   20.5965 C   0  0  0  0  0  0  0  0  0  0  0  0
  -24.2800  -11.5856   20.6471 C   0  0  0  0  0  0  0  0  0  0  0  0
  -24.3175  -24.7450   26.0755 C   0  0  0  0  0  0  0  0  0  0  0  0
  -22.4651  -10.4469   19.6817 C   0  0  0  0  0  0  0  0  0  0  0  0
  -21.0671   -9.6710   17.3956 C   0  0  0  0  0  0  0  0  0  0  0  0
  -22.2876   -9.0926   19.3988 C   0  0  0  0  0  0  0  0  0  0  0  0
  -27.7675  -13.9215   20.1193 C   0  0  0  0  0  0  0  0  0  0  0  0
  -28.3930  -24.1314   21.8655 C   0  0  0  0  0  0  0  0  0  0  0  0
  -29.7994  -14.7521   20.2477 C   0  0  0  0  0  0  0  0  0  0  0  0
  -29.4155  -12.7729   21.7255 C   0  0  0  0  0  0  0  0  0  0  0  0
  -24.3249  -28.6408   22.2958 C   0  0  0  0  0  0  0  0  0  0  0  0
  -24.2421  -30.8240   24.6935 C   0  0  0  0  0  0  0  0  0  0  0  0
  -24.2025  -31.4412   28.0498 C   0  0  0  0  0  0  0  0  0  0  0  0
  -29.0127  -20.3557   18.5465 C   0  0  0  0  0  0  0  0  0  0  0  0
  -25.6701  -31.8018   18.5200 C   0  0  0  0  0  0  0  0  0  0  0  0
  -22.4110  -27.7809   23.6935 C   0  0  0  0  0  0  0  0  0  0  0  0
  -24.7684  -28.4456   25.3506 C   0  0  0  0  0  0  0  0  0  0  0  0
  -26.1202  -31.5667   19.9596 C   0  0  0  0  0  0  0  0  0  0  0  0
  -29.6843  -17.5835   16.2068 C   0  0  0  0  0  0  0  0  0  0  0  0
  -26.3614  -30.0811   20.2076 C   0  0  0  0  0  0  0  0  0  0  0  0
  -29.3080  -16.3491   17.0246 C   0  0  0  0  0  0  0  0  0  0  0  0
  -28.8700  -18.8063   16.6189 C   0  0  0  0  0  0  0  0  0  0  0  0
  -28.5678  -17.8789   18.8947 C   0  0  0  0  0  0  0  0  0  0  0  0
  -25.0738  -29.2724   20.0086 C   0  0  1  0  0  0  0  0  0  0  0  0
  -23.3175  -28.9627   23.3631 C   0  0  1  0  0  0  0  0  0  0  0  0
  -29.4014  -16.6405   18.5324 C   0  0  1  0  0  0  0  0  0  0  0  0
  -26.4719  -21.7417   19.7113 C   0  0  0  0  0  0  0  0  0  0  0  0
  -24.1728  -33.3263   29.7058 C   0  0  0  0  0  0  0  0  0  0  0  0
  -28.9446  -27.9152   22.7382 C   0  0  0  0  0  0  0  0  0  0  0  0
  -28.8905  -26.7961   20.5152 C   0  0  0  0  0  0  0  0  0  0  0  0
  -24.7157  -21.4013   26.6340 C   0  0  0  0  0  0  0  0  0  0  0  0
  -27.2038  -31.3322   24.1645 C   0  0  0  0  0  0  0  0  0  0  0  0
  -27.3359  -32.4658   26.3929 C   0  0  0  0  0  0  0  0  0  0  0  0
  -25.8556  -33.3908   24.6107 C   0  0  0  0  0  0  0  0  0  0  0  0
  -21.6112  -30.5631   29.1781 C   0  0  0  0  0  0  0  0  0  0  0  0
  -28.7911  -18.8326   21.7664 C   0  0  0  0  0  0  0  0  0  0  0  0
  -26.9468  -22.5521   26.4102 C   0  0  0  0  0  0  0  0  0  0  0  0
  -29.7404  -19.4314   20.7341 C   0  0  0  0  0  0  0  0  0  0  0  0
  -29.4560  -17.7440   22.5991 C   0  0  0  0  0  0  0  0  0  0  0  0
  -27.7368  -23.8002   26.0261 C   0  0  0  0  0  0  0  0  0  0  0  0
  -28.3260  -25.2918   24.1113 C   0  0  0  0  0  0  0  0  0  0  0  0
  -28.1795  -25.4608   22.5852 C   0  0  1  0  0  0  0  0  0  0  0  0
  -25.1947  -31.2510   25.7840 C   0  0  1  0  0  0  0  0  0  0  0  0
  -23.3315  -32.3518   28.8963 C   0  0  2  0  0  0  0  0  0  0  0  0
  -29.1219  -26.5720   22.0181 C   0  0  0  0  0  0  0  0  0  0  0  0
  -25.4400  -22.6495   26.1450 C   0  0  2  0  0  0  0  0  0  1  0  0
  -26.3883  -32.0831   25.2360 C   0  0  0  0  0  0  0  0  0  0  0  0
  -29.6167  -23.5690   21.9839 N   0  0  0  0  0  0  0  0  0  0  0  0
  -27.7624  -14.9512   19.2686 N   0  0  0  0  0  0  0  0  0  0  0  0
  -29.0117  -15.4361   19.3691 N   0  0  0  0  0  0  0  0  0  0  0  0
  -24.0663  -29.4431   24.5261 N   0  0  0  0  0  0  0  0  0  0  0  0
  -28.9389  -19.0340   18.0629 N   0  0  0  0  0  0  0  0  0  0  0  0
  -31.0831  -15.1059   20.4695 N   0  0  0  0  0  0  0  0  0  0  0  0
  -28.4797  -11.8155   22.1402 N   0  0  0  0  0  0  0  0  0  0  0  0
  -24.2050  -29.4147   21.1573 N   0  0  0  0  0  0  0  0  0  0  0  0
  -24.3885  -31.9473   26.7808 N   0  0  0  0  0  0  0  0  0  0  0  0
  -29.1104  -20.4970   19.9477 N   0  0  0  0  0  0  0  0  0  0  0  0
  -28.4884  -17.2472   23.6077 N   0  3  0  0  0  0  0  0  0  0  0  0
  -22.5052  -31.5475   29.8403 N   0  3  0  0  0  0  0  0  0  0  0  0
  -27.6310  -24.0576   24.5707 N   0  3  0  0  0  0  0  0  0  0  0  0
  -30.5681  -12.7594   22.2204 O   0  0  0  0  0  0  0  0  0  0  0  0
  -25.1508  -27.7569   22.4914 O   0  0  0  0  0  0  0  0  0  0  0  0
  -23.6694  -31.6842   24.0199 O   0  0  0  0  0  0  0  0  0  0  0  0
  -24.6739  -30.3881   28.4732 O   0  0  0  0  0  0  0  0  0  0  0  0
  -29.0208  -21.3298   17.7844 O   0  0  0  0  0  0  0  0  0  0  0  0
  -23.1581  -10.8337   20.8165 O   0  0  0  0  0  0  0  0  0  0  0  0
  -24.9158  -23.7850   26.8321 O   0  0  0  0  0  0  0  0  0  1  0  0
  -20.3945   -9.2986   16.2987 F   0  0  0  0  0  0  0  0  0  0  0  0
  -22.7854   -8.1597   20.2220 F   0  0  0  0  0  0  0  0  0  0  0  0
  1  2  1  0  0  0  0
  1  5  2  0  0  0  0
  2  6  2  0  0  0  0
  3  8  2  0  0  0  0
  3 17  1  0  0  0  0
  4  9  1  0  0  0  0
  4 17  2  0  0  0  0
  5 19  1  0  0  0  0
  6 21  1  0  0  0  0
  7 10  2  0  0  0  0
  7 20  1  0  0  0  0
  8 25  1  0  0  0  0
  9 25  2  0  0  0  0
 10 26  1  0  0  0  0
 11 12  2  0  0  0  0
 11 27  1  0  0  0  0
 12 28  1  0  0  0  0
 13 22  1  0  0  0  0
 13 26  2  0  0  0  0
 14 23  2  0  0  0  0
 14 31  1  0  0  0  0
 15 28  2  0  0  0  0
 15 29  1  0  0  0  0
 16 24  2  0  0  0  0
 16 71  1  0  0  0  0
 17 30  1  0  0  0  0
 18 30  1  0  0  0  0
 18 32  2  0  0  0  0
 18 33  1  0  0  0  0
 19 21  2  0  0  0  0
 19 38  1  0  0  0  0
 20 22  2  0  0  0  0
 20 39  1  0  0  0  0
 21 47  1  0  0  0  0
 22 40  1  0  0  0  0
 23 24  1  0  0  0  0
 23 50  1  0  0  0  0
 24 80  1  0  0  0  0
 25 89  1  0  0  0  0
 26 90  1  0  0  0  0
 27 29  2  0  0  0  0
 27 89  1  0  0  0  0
 28 91  1  0  0  0  0
 29 92  1  0  0  0  0
 30 72  2  0  0  0  0
 31 65  1  0  0  0  0
 31 71  2  0  0  0  0
 32 73  1  0  0  0  0
 32 76  1  0  0  0  0
 33 77  1  0  0  0  0
 33 84  2  0  0  0  0
 34 48  1  0  0  0  0
 34 78  1  0  0  0  0
 34 85  2  0  0  0  0
 35 66  1  0  0  0  0
 35 74  1  0  0  0  0
 35 86  2  0  0  0  0
 36 67  1  0  0  0  0
 36 79  1  0  0  0  0
 36 87  2  0  0  0  0
 37 75  1  0  0  0  0
 37 80  1  0  0  0  0
 37 88  2  0  0  0  0
 38 41  1  0  0  0  0
 39 48  1  0  0  0  0
 40 74  1  0  0  0  0
 41 43  1  0  0  0  0
 42 44  1  0  0  0  0
 42 45  1  0  0  0  0
 43 47  1  0  0  0  0
 44 49  1  0  0  0  0
 45 75  1  0  0  0  0
 46 49  1  0  0  0  0
 46 75  1  0  0  0  0
 47 78  1  0  0  0  0
 48 74  1  0  0  0  0
 49 73  1  0  0  0  0
 51 67  1  0  0  0  0
 52 68  1  0  0  0  0
 53 68  1  0  0  0  0
 54 69  1  0  0  0  0
 55 70  1  0  0  0  0
 56 70  1  0  0  0  0
 57 70  1  0  0  0  0
 58 82  1  0  0  0  0
 59 61  1  0  0  0  0
 59 62  1  0  0  0  0
 60 63  1  0  0  0  0
 60 69  1  0  0  0  0
 61 80  1  0  0  0  0
 62 81  1  0  0  0  0
 63 83  1  0  0  0  0
 64 65  1  0  0  0  0
 64 83  1  0  0  0  0
 65 68  1  0  0  0  0
 66 70  1  0  0  0  0
 66 79  1  0  0  0  0
 67 82  1  0  0  0  0
 69 90  1  0  0  0  0
 72 73  1  0  0  0  0
M  CHG  3  81   1  82   1  83   1
M  ISO  4  37 100  69 101  80 100  90 101
M  END
> <Batch ID>
0113

> <Smiles>
CNC(C)C(=O)NC(C(=O)N1Cc2cc([101O:1][101CH:1](C)CCNCC(c3cc(C)c([100N:0](CCCN)[100C:0](=O)N4CCCC(n5nc(-c6ccc(Oc7ccc(F)cc7F)cc6)c(C(N)=O)c5N)C4)cn3)C(C)C)ccc2CC1C(=O)NC1CCCc2ccccc21)C(C)(C)C

> <Shape>
0.243

> <Color>
0.045

> <Negative vol penalty>
0.000

$$$$

  -OEChem-04052320053D

 84 92  0     1  0  0  0  0  0999 V2000
  -19.3626  -25.5149   23.3825 C   0  0  0  0  0  0  0  0  0  0  0  0
  -20.5486  -25.5203   22.6553 C   0  0  0  0  0  0  0  0  0  0  0  0
  -24.1887   -9.3029   21.3904 C   0  0  0  0  0  0  0  0  0  0  0  0
  -24.8778  -10.3280   23.4668 C   0  0  0  0  0  0  0  0  0  0  0  0
  -18.5292  -26.6325   23.3629 C   0  0  0  0  0  0  0  0  0  0  0  0
  -20.9013  -26.6429   21.9071 C   0  0  0  0  0  0  0  0  0  0  0  0
  -25.7683  -27.9150   22.4893 C   0  0  0  0  0  0  0  0  0  0  0  0
  -23.8235   -8.1478   22.0819 C   0  0  0  0  0  0  0  0  0  0  0  0
  -24.5125   -9.1730   24.1583 C   0  0  0  0  0  0  0  0  0  0  0  0
  -26.7112  -27.1622   21.7908 C   0  0  0  0  0  0  0  0  0  0  0  0
  -21.2318   -7.0968   23.9822 C   0  0  0  0  0  0  0  0  0  0  0  0
  -20.0068   -6.5106   23.6638 C   0  0  0  0  0  0  0  0  0  0  0  0
  -26.8426  -28.8926   20.1153 C   0  0  0  0  0  0  0  0  0  0  0  0
  -28.1499  -19.1882   20.7362 C   0  0  0  0  0  0  0  0  0  0  0  0
  -21.1454   -4.4767   23.0280 C   0  0  0  0  0  0  0  0  0  0  0  0
  -30.2787  -20.3643   19.4991 C   0  0  0  0  0  0  0  0  0  0  0  0
  -24.7159  -10.3930   22.0829 C   0  0  0  0  0  0  0  0  0  0  0  0
  -24.2823  -12.7016   21.0879 C   0  0  0  0  0  0  0  0  0  0  0  0
  -18.8765  -27.7730   22.6218 C   0  0  0  0  0  0  0  0  0  0  0  0
  -25.3467  -29.1596   21.9996 C   0  0  0  0  0  0  0  0  0  0  0  0
  -20.0711  -27.7762   21.8765 C   0  0  0  0  0  0  0  0  0  0  0  0
  -25.8962  -29.6605   20.8108 C   0  0  0  0  0  0  0  0  0  0  0  0
  -28.2254  -20.5754   20.6805 C   0  0  0  0  0  0  0  0  0  0  0  0
  -29.3069  -21.1826   20.0519 C   0  0  0  0  0  0  0  0  0  0  0  0
  -23.9854   -8.0829   23.4658 C   0  0  0  0  0  0  0  0  0  0  0  0
  -27.2463  -27.6496   20.6021 C   0  0  0  0  0  0  0  0  0  0  0  0
  -22.4136   -6.3730   23.8235 C   0  0  0  0  0  0  0  0  0  0  0  0
  -19.9636   -5.2006   23.1867 C   0  0  0  0  0  0  0  0  0  0  0  0
  -22.3704   -5.0630   23.3464 C   0  0  0  0  0  0  0  0  0  0  0  0
  -25.0939  -11.5862   21.3691 C   0  0  0  0  0  0  0  0  0  0  0  0
  -29.1735  -18.4591   20.1526 C   0  0  0  0  0  0  0  0  0  0  0  0
  -25.1029  -13.5571   20.3942 C   0  0  0  0  0  0  0  0  0  0  0  0
  -22.9095  -12.9429   21.4239 C   0  0  0  0  0  0  0  0  0  0  0  0
  -22.5681  -30.3677   21.0386 C   0  0  0  0  0  0  0  0  0  0  0  0
  -24.2715  -33.1226   20.8611 C   0  0  0  0  0  0  0  0  0  0  0  0
  -27.3143  -34.6309   20.5255 C   0  0  0  0  0  0  0  0  0  0  0  0
  -29.9965  -16.1214   19.7011 C   0  0  0  0  0  0  0  0  0  0  0  0
  -17.9206  -28.9392   22.5934 C   0  0  0  0  0  0  0  0  0  0  0  0
  -24.3487  -29.9714   22.7789 C   0  0  0  0  0  0  0  0  0  0  0  0
  -25.4921  -30.9999   20.2531 C   0  0  0  0  0  0  0  0  0  0  0  0
  -18.5496  -30.2299   22.0751 C   0  0  0  0  0  0  0  0  0  0  0  0
  -29.6960  -12.8214   18.3983 C   0  0  0  0  0  0  0  0  0  0  0  0
  -19.3491  -29.9613   20.8041 C   0  0  0  0  0  0  0  0  0  0  0  0
  -28.4052  -12.2976   19.0319 C   0  0  0  0  0  0  0  0  0  0  0  0
  -30.4821  -13.7079   19.3627 C   0  0  0  0  0  0  0  0  0  0  0  0
  -28.4256  -14.2884   20.5887 C   0  0  0  0  0  0  0  0  0  0  0  0
  -20.5002  -28.9844   21.0725 C   0  0  1  0  0  0  0  0  0  0  0  0
  -23.6105  -30.9943   21.9210 C   0  0  1  0  0  0  0  0  0  0  0  0
  -27.5674  -13.4431   19.6333 C   0  0  2  0  0  0  0  0  0  0  0  0
  -27.1383  -21.3904   21.2989 C   0  0  0  0  0  0  0  0  0  0  0  0
  -28.3846  -36.8959   20.3773 C   0  0  0  0  0  0  0  0  0  0  0  0
  -23.3023  -33.3894   17.9803 C   0  0  0  0  0  0  0  0  0  0  0  0
  -25.1073  -35.0830   17.6034 C   0  0  0  0  0  0  0  0  0  0  0  0
  -23.3136  -35.5264   19.2793 C   0  0  0  0  0  0  0  0  0  0  0  0
  -28.9166  -34.1617   22.9691 C   0  0  0  0  0  0  0  0  0  0  0  0
  -28.3133  -24.8076   16.2961 C   0  0  0  0  0  0  0  0  0  0  0  0
  -29.4389  -22.6820   19.9627 C   0  0  0  0  0  0  0  0  0  0  0  0
  -28.5890  -23.3170   18.8526 C   0  0  0  0  0  0  0  0  0  0  0  0
  -28.0799  -25.4966   20.0313 C   0  0  0  0  0  0  0  0  0  1  0  0
  -25.0924  -33.8050   19.7938 C   0  0  1  0  0  0  0  0  0  0  0  0
  -27.9696  -35.7603   21.2998 C   0  0  2  0  0  0  0  0  0  0  0  0
  -28.6484  -24.8483   18.7709 C   0  0  2  0  0  0  0  0  0  0  0  0
  -24.2103  -34.4248   18.6734 C   0  0  0  0  0  0  0  0  0  0  0  0
  -30.2398  -19.0134   19.5334 N   0  0  0  0  0  0  0  0  0  0  0  0
  -26.3347  -11.7181   20.8927 N   0  0  0  0  0  0  0  0  0  0  0  0
  -26.3090  -12.9265   20.3052 N   0  0  0  0  0  0  0  0  0  0  0  0
  -24.5084  -31.7534   21.0482 N   0  0  0  0  0  0  0  0  0  0  0  0
  -29.6257  -14.7731   19.8890 N   0  0  0  0  0  0  0  0  0  0  0  0
  -24.9032  -14.7797   19.8577 N   0  0  0  0  0  0  0  0  0  0  0  0
  -22.2139  -11.9589   22.1397 N   0  0  0  0  0  0  0  0  0  0  0  0
  -29.0885  -17.0462   20.2159 N   0  0  0  0  0  0  0  0  0  0  0  0
  -21.5979  -29.6641   21.7264 N   0  0  0  0  0  0  0  0  0  0  0  0
  -25.9428  -34.7675   20.4859 N   0  0  0  0  0  0  0  0  0  0  0  0
  -29.1823  -35.2654   22.0108 N   0  3  0  0  0  0  0  0  0  0  0  0
  -27.8402  -25.3184   17.6073 N   0  3  0  0  0  0  0  0  0  0  0  0
  -22.3125  -13.9926   21.0847 O   0  0  0  0  0  0  0  0  0  0  0  0
  -22.6381  -30.5130   19.8239 O   0  0  0  0  0  0  0  0  0  0  0  0
  -23.4553  -33.7816   21.5101 O   0  0  0  0  0  0  0  0  0  0  0  0
  -27.9553  -33.7209   20.0045 O   0  0  0  0  0  0  0  0  0  0  0  0
  -31.0288  -16.4331   19.1018 O   0  0  0  0  0  0  0  0  0  0  0  0
  -23.6289   -6.9561   24.1409 O   0  0  0  0  0  0  0  0  0  0  0  0
  -28.1663  -26.9165   19.9179 O   0  0  0  0  0  0  0  0  0  1  0  0
  -18.7871   -4.6373   22.8823 F   0  0  0  0  0  0  0  0  0  0  0  0
  -23.5023   -4.3622   23.1930 F   0  0  0  0  0  0  0  0  0  0  0  0
  1  2  1  0  0  0  0
  1  5  2  0  0  0  0
  2  6  2  0  0  0  0
  3  8  2  0  0  0  0
  3 17  1  0  0  0  0
  4  9  1  0  0  0  0
  4 17  2  0  0  0  0
  5 19  1  0  0  0  0
  6 21  1  0  0  0  0
  7 10  2  0  0  0  0
  7 20  1  0  0  0  0
  8 25  1  0  0  0  0
  9 25  2  0  0  0  0
 10 26  1  0  0  0  0
 11 12  2  0  0  0  0
 11 27  1  0  0  0  0
 12 28  1  0  0  0  0
 13 22  1  0  0  0  0
 13 26  2  0  0  0  0
 14 23  1  0  0  0  0
 14 31  2  0  0  0  0
 15 28  2  0  0  0  0
 15 29  1  0  0  0  0
 16 24  1  0  0  0  0
 16 64  2  0  0  0  0
 17 30  1  0  0  0  0
 18 30  1  0  0  0  0
 18 32  2  0  0  0  0
 18 33  1  0  0  0  0
 19 21  2  0  0  0  0
 19 38  1  0  0  0  0
 20 22  2  0  0  0  0
 20 39  1  0  0  0  0
 21 47  1  0  0  0  0
 22 40  1  0  0  0  0
 23 24  2  0  0  0  0
 23 50  1  0  0  0  0
 24 57  1  0  0  0  0
 25 81  1  0  0  0  0
 26 82  1  0  0  0  0
 27 29  2  0  0  0  0
 27 81  1  0  0  0  0
 28 83  1  0  0  0  0
 29 84  1  0  0  0  0
 30 65  2  0  0  0  0
 31 64  1  0  0  0  0
 31 71  1  0  0  0  0
 32 66  1  0  0  0  0
 32 69  1  0  0  0  0
 33 70  1  0  0  0  0
 33 76  2  0  0  0  0
 34 48  1  0  0  0  0
 34 72  1  0  0  0  0
 34 77  2  0  0  0  0
 35 60  1  0  0  0  0
 35 67  1  0  0  0  0
 35 78  2  0  0  0  0
 36 61  1  0  0  0  0
 36 73  1  0  0  0  0
 36 79  2  0  0  0  0
 37 68  1  0  0  0  0
 37 71  1  0  0  0  0
 37 80  2  0  0  0  0
 38 41  1  0  0  0  0
 39 48  1  0  0  0  0
 40 67  1  0  0  0  0
 41 43  1  0  0  0  0
 42 44  1  0  0  0  0
 42 45  1  0  0  0  0
 43 47  1  0  0  0  0
 44 49  1  0  0  0  0
 45 68  1  0  0  0  0
 46 49  1  0  0  0  0
 46 68  1  0  0  0  0
 47 72  1  0  0  0  0
 48 67  1  0  0  0  0
 49 66  1  0  0  0  0
 51 61  1  0  0  0  0
 52 63  1  0  0  0  0
 53 63  1  0  0  0  0
 54 63  1  0  0  0  0
 55 74  1  0  0  0  0
 56 75  1  0  0  0  0
 57 58  1  0  0  0  0
 58 62  1  0  0  0  0
 59 62  1  0  0  0  0
 59 82  1  0  0  0  0
 60 63  1  0  0  0  0
 60 73  1  0  0  0  0
 61 74  1  0  0  0  0
 62 75  1  0  0  0  0
 65 66  1  0  0  0  0
M  CHG  2  74   1  75   1
M  ISO  4  37 100  59 101  71 100  82 101
M  END
> <Batch ID>
0113

> <Smiles>
CNC(C)C(=O)NC(C(=O)N1Cc2cc([101O:1][101CH2:1]C(CCc3cnc([100NH:0][100C:0](=O)N4CCCC(n5nc(-c6ccc(Oc7ccc(F)cc7F)cc6)c(C(N)=O)c5N)C4)cc3C)NC)ccc2CC1C(=O)NC1CCCc2ccccc21)C(C)(C)C

> <Shape>
0.328

> <Color>
0.163

> <Negative vol penalty>
0.000

$$$$

  -OEChem-04052320053D

 83 90  0     1  0  0  0  0  0999 V2000
  -28.7403  -27.4123    7.8964 C   0  0  0  0  0  0  0  0  0  0  0  0
  -29.1301  -26.3846    8.7492 C   0  0  0  0  0  0  0  0  0  0  0  0
  -22.9821  -10.0718   19.9215 C   0  0  0  0  0  0  0  0  0  0  0  0
  -23.9402   -9.7377   22.1142 C   0  0  0  0  0  0  0  0  0  0  0  0
  -28.1403  -28.5584    8.4165 C   0  0  0  0  0  0  0  0  0  0  0  0
  -28.9212  -26.5029   10.1228 C   0  0  0  0  0  0  0  0  0  0  0  0
  -27.5274  -22.0024   14.0355 C   0  0  0  0  0  0  0  0  0  0  0  0
  -22.2369   -8.9019   20.0689 C   0  0  0  0  0  0  0  0  0  0  0  0
  -23.1949   -8.5678   22.2616 C   0  0  0  0  0  0  0  0  0  0  0  0
  -28.3044  -21.2507   14.9158 C   0  0  0  0  0  0  0  0  0  0  0  0
  -21.2727   -5.6853   23.3635 C   0  0  0  0  0  0  0  0  0  0  0  0
  -20.6213   -5.4793   24.5796 C   0  0  0  0  0  0  0  0  0  0  0  0
  -27.7095  -22.7488   16.7105 C   0  0  0  0  0  0  0  0  0  0  0  0
  -19.3620   -7.5146   24.2496 C   0  0  0  0  0  0  0  0  0  0  0  0
  -23.8338  -10.4896   20.9442 C   0  0  0  0  0  0  0  0  0  0  0  0
  -24.2214  -13.0019   21.1586 C   0  0  0  0  0  0  0  0  0  0  0  0
  -27.9151  -28.6866    9.7962 C   0  0  0  0  0  0  0  0  0  0  0  0
  -26.8432  -23.1411   14.4845 C   0  0  0  0  0  0  0  0  0  0  0  0
  -28.3188  -27.6523   10.6620 C   0  0  0  0  0  0  0  0  0  0  0  0
  -26.9224  -23.5118   15.8345 C   0  0  0  0  0  0  0  0  0  0  0  0
  -22.3432   -8.1500   21.2389 C   0  0  0  0  0  0  0  0  0  0  0  0
  -28.3979  -21.6255   16.2529 C   0  0  0  0  0  0  0  0  0  0  0  0
  -20.9689   -6.8059   22.5905 C   0  0  0  0  0  0  0  0  0  0  0  0
  -19.6659   -6.3940   25.0226 C   0  0  0  0  0  0  0  0  0  0  0  0
  -20.0135   -7.7206   23.0335 C   0  0  0  0  0  0  0  0  0  0  0  0
  -24.6044  -11.6976   20.7923 C   0  0  0  0  0  0  0  0  0  0  0  0
  -25.2944  -13.7853   20.8101 C   0  0  0  0  0  0  0  0  0  0  0  0
  -23.0047  -13.4638   21.7601 C   0  0  0  0  0  0  0  0  0  0  0  0
  -26.9501  -26.2413   13.7906 C   0  0  0  0  0  0  0  0  0  0  0  0
  -27.1378  -18.3647   23.0292 C   0  0  0  0  0  0  0  0  0  0  0  0
  -24.3883  -26.3759   15.7759 C   0  0  0  0  0  0  0  0  0  0  0  0
  -22.6456  -24.9780   18.3558 C   0  0  0  0  0  0  0  0  0  0  0  0
  -30.7954  -14.7118   20.6485 C   0  0  0  0  0  0  0  0  0  0  0  0
  -27.3062  -29.9645   10.3166 C   0  0  0  0  0  0  0  0  0  0  0  0
  -25.9877  -23.9259   13.5281 C   0  0  0  0  0  0  0  0  0  0  0  0
  -26.1911  -24.7142   16.3710 C   0  0  0  0  0  0  0  0  0  0  0  0
  -26.7798  -29.8507   11.7450 C   0  0  0  0  0  0  0  0  0  0  0  0
  -29.3987  -12.7111   18.0556 C   0  0  0  0  0  0  0  0  0  0  0  0
  -27.8056  -29.1607   12.6386 C   0  0  0  0  0  0  0  0  0  0  0  0
  -27.9984  -12.3718   18.5695 C   0  0  0  0  0  0  0  0  0  0  0  0
  -30.4224  -12.7459   19.1883 C   0  0  0  0  0  0  0  0  0  0  0  0
  -28.6667  -13.2863   20.8312 C   0  0  0  0  0  0  0  0  0  0  0  0
  -28.0865  -27.7328   12.1552 C   0  0  1  0  0  0  0  0  0  0  0  0
  -25.7468  -25.3622   13.9824 C   0  0  1  0  0  0  0  0  0  0  0  0
  -27.5893  -13.2945   19.7333 C   0  0  2  0  0  0  0  0  0  0  0  0
  -26.5021  -18.6485   24.3663 C   0  0  0  0  0  0  0  0  0  0  0  0
  -20.6131  -25.3369   19.7831 C   0  0  0  0  0  0  0  0  0  0  0  0
  -28.5630  -18.3532   18.4268 C   0  0  0  0  0  0  0  0  0  0  0  0
  -25.8691  -28.5397   17.3364 C   0  0  0  0  0  0  0  0  0  0  0  0
  -24.2662  -28.1767   19.2251 C   0  0  0  0  0  0  0  0  0  0  0  0
  -23.4270  -28.9720   17.0147 C   0  0  0  0  0  0  0  0  0  0  0  0
  -21.4193  -22.4412   17.4505 C   0  0  0  0  0  0  0  0  0  0  0  0
  -28.6441  -18.5299   22.9199 C   0  0  0  0  0  0  0  0  0  0  0  0
  -28.8223  -19.5917   20.6434 C   0  0  0  0  0  0  0  0  0  0  0  0
  -31.0186  -16.6589   22.1711 C   0  0  0  0  0  0  0  0  0  0  0  0
  -28.7460  -20.8668   18.4798 C   0  0  0  0  0  0  0  0  0  1  0  0
  -24.1950  -26.5757   17.2597 C   0  0  1  0  0  0  0  0  0  0  0  0
  -21.1671  -24.6803   18.5282 C   0  0  2  0  0  0  0  0  0  0  0  0
  -29.1881  -19.5539   19.1449 C   0  0  2  0  0  0  0  0  0  0  0  0
  -29.1740  -18.3317   21.4793 C   0  0  1  0  0  0  0  0  0  0  0  0
  -30.6753  -17.9411   21.4100 C   0  0  1  0  0  0  0  0  0  0  0  0
  -24.4548  -28.0444   17.6988 C   0  0  0  0  0  0  0  0  0  0  0  0
  -25.8252  -11.6511   20.2524 N   0  0  0  0  0  0  0  0  0  0  0  0
  -26.2186  -12.9359   20.2768 N   0  0  0  0  0  0  0  0  0  0  0  0
  -25.3726  -25.4528   15.3953 N   0  0  0  0  0  0  0  0  0  0  0  0
  -29.9753  -13.6400   20.2590 N   0  0  0  0  0  0  0  0  0  0  0  0
  -25.5280  -15.1111   20.9109 N   0  0  0  0  0  0  0  0  0  0  0  0
  -22.0057  -12.5253   22.0528 N   0  0  0  0  0  0  0  0  0  0  0  0
  -27.0135  -26.8454   12.5495 N   0  0  0  0  0  0  0  0  0  0  0  0
  -22.8543  -26.0888   17.5659 N   0  0  0  0  0  0  0  0  0  0  0  0
  -30.2937  -15.5142   21.6660 N   0  0  0  0  0  0  0  0  0  0  0  0
  -31.5375  -19.0414   21.9366 N   0  3  0  0  0  0  0  0  0  0  0  0
  -20.9430  -23.2104   18.6288 N   0  3  0  0  0  0  0  0  0  0  0  0
  -22.8026  -14.6753   22.0150 O   0  0  0  0  0  0  0  0  0  0  0  0
  -27.7604  -26.3636   14.7018 O   0  0  0  0  0  0  0  0  0  0  0  0
  -26.4579  -18.0159   22.0641 O   0  0  0  0  0  0  0  0  0  0  0  0
  -23.6868  -27.0100   14.9839 O   0  0  0  0  0  0  0  0  0  0  0  0
  -23.5273  -24.2958   18.8734 O   0  0  0  0  0  0  0  0  0  0  0  0
  -31.8909  -14.9401   20.1244 O   0  0  0  0  0  0  0  0  0  0  0  0
  -21.6160   -7.0086   21.3831 O   0  0  0  0  0  0  0  0  0  0  0  0
  -29.1615  -20.8888   17.1203 O   0  0  0  0  0  0  0  0  0  1  0  0
  -19.0392   -6.1953   26.1896 F   0  0  0  0  0  0  0  0  0  0  0  0
  -19.7165   -8.7984   22.2947 F   0  0  0  0  0  0  0  0  0  0  0  0
  1  2  1  0  0  0  0
  1  5  2  0  0  0  0
  2  6  2  0  0  0  0
  3  8  2  0  0  0  0
  3 15  1  0  0  0  0
  4  9  1  0  0  0  0
  4 15  2  0  0  0  0
  5 17  1  0  0  0  0
  6 19  1  0  0  0  0
  7 10  2  0  0  0  0
  7 18  1  0  0  0  0
  8 21  1  0  0  0  0
  9 21  2  0  0  0  0
 10 22  1  0  0  0  0
 11 12  2  0  0  0  0
 11 23  1  0  0  0  0
 12 24  1  0  0  0  0
 13 20  1  0  0  0  0
 13 22  2  0  0  0  0
 14 24  2  0  0  0  0
 14 25  1  0  0  0  0
 15 26  1  0  0  0  0
 16 26  1  0  0  0  0
 16 27  2  0  0  0  0
 16 28  1  0  0  0  0
 17 19  2  0  0  0  0
 17 34  1  0  0  0  0
 18 20  2  0  0  0  0
 18 35  1  0  0  0  0
 19 43  1  0  0  0  0
 20 36  1  0  0  0  0
 21 80  1  0  0  0  0
 22 81  1  0  0  0  0
 23 25  2  0  0  0  0
 23 80  1  0  0  0  0
 24 82  1  0  0  0  0
 25 83  1  0  0  0  0
 26 63  2  0  0  0  0
 27 64  1  0  0  0  0
 27 67  1  0  0  0  0
 28 68  1  0  0  0  0
 28 74  2  0  0  0  0
 29 44  1  0  0  0  0
 29 69  1  0  0  0  0
 29 75  2  0  0  0  0
 30 46  1  0  0  0  0
 30 53  1  0  0  0  0
 30 76  2  0  0  0  0
 31 57  1  0  0  0  0
 31 65  1  0  0  0  0
 31 77  2  0  0  0  0
 32 58  1  0  0  0  0
 32 70  1  0  0  0  0
 32 78  2  0  0  0  0
 33 66  1  0  0  0  0
 33 71  1  0  0  0  0
 33 79  2  0  0  0  0
 34 37  1  0  0  0  0
 35 44  1  0  0  0  0
 36 65  1  0  0  0  0
 37 39  1  0  0  0  0
 38 40  1  0  0  0  0
 38 41  1  0  0  0  0
 39 43  1  0  0  0  0
 40 45  1  0  0  0  0
 41 66  1  0  0  0  0
 42 45  1  0  0  0  0
 42 66  1  0  0  0  0
 43 69  1  0  0  0  0
 44 65  1  0  0  0  0
 45 64  1  0  0  0  0
 47 58  1  0  0  0  0
 48 59  1  0  0  0  0
 49 62  1  0  0  0  0
 50 62  1  0  0  0  0
 51 62  1  0  0  0  0
 52 73  1  0  0  0  0
 53 60  1  0  0  0  0
 54 59  1  0  0  0  0
 54 60  1  0  0  0  0
 55 61  1  0  0  0  0
 55 71  1  0  0  0  0
 56 59  1  0  0  0  0
 56 81  1  0  0  0  0
 57 62  1  0  0  0  0
 57 70  1  0  0  0  0
 58 73  1  0  0  0  0
 60 61  1  0  0  0  0
 61 72  1  0  0  0  0
 63 64  1  0  0  0  0
M  CHG  2  72   1  73   1
M  ISO  4  33 100  56 101  71 100  81 101
M  END
> <Batch ID>
0113

> <Smiles>
CNC(C)C(=O)NC(C(=O)N1Cc2cc([101O:1][101CH2:1]C(C)CC(CC(C)=O)C(N)C[100NH:0][100C:0](=O)N3CCCC(n4nc(-c5ccc(Oc6ccc(F)cc6F)cc5)c(C(N)=O)c4N)C3)ccc2CC1C(=O)NC1CCCc2ccccc21)C(C)(C)C

> <Shape>
0.207

> <Color>
0.167

> <Negative vol penalty>
0.000

$$$$

  -OEChem-04052320053D

 87 94  0     1  0  0  0  0  0999 V2000
  -16.6629  -28.8099   24.4191 C   0  0  0  0  0  0  0  0  0  0  0  0
  -17.3188  -27.8162   23.6994 C   0  0  0  0  0  0  0  0  0  0  0  0
  -29.6316  -16.8287   20.8401 C   0  0  0  0  0  0  0  0  0  0  0  0
  -27.9259  -18.0437   22.0448 C   0  0  0  0  0  0  0  0  0  0  0  0
  -17.0768  -30.1368   24.3095 C   0  0  0  0  0  0  0  0  0  0  0  0
  -18.3882  -28.1490   22.8688 C   0  0  0  0  0  0  0  0  0  0  0  0
  -22.3021  -24.9757   23.3753 C   0  0  0  0  0  0  0  0  0  0  0  0
  -30.1449  -18.0311   20.3540 C   0  0  0  0  0  0  0  0  0  0  0  0
  -28.4393  -19.2462   21.5588 C   0  0  0  0  0  0  0  0  0  0  0  0
  -22.2044  -23.7379   22.7414 C   0  0  0  0  0  0  0  0  0  0  0  0
  -28.3153  -21.0289   18.6886 C   0  0  0  0  0  0  0  0  0  0  0  0
  -27.4088  -21.9715   18.2036 C   0  0  0  0  0  0  0  0  0  0  0  0
  -23.5805  -24.5594   20.9384 C   0  0  0  0  0  0  0  0  0  0  0  0
  -28.1708  -23.5567   19.8600 C   0  0  0  0  0  0  0  0  0  0  0  0
  -28.5221  -16.8350   21.6855 C   0  0  0  0  0  0  0  0  0  0  0  0
  -28.3567  -14.9302   23.3743 C   0  0  0  0  0  0  0  0  0  0  0  0
  -18.1581  -30.4847   23.4846 C   0  0  0  0  0  0  0  0  0  0  0  0
  -23.0320  -26.0199   22.7893 C   0  0  0  0  0  0  0  0  0  0  0  0
  -18.8161  -29.4820   22.7471 C   0  0  0  0  0  0  0  0  0  0  0  0
  -23.6881  -25.8087   21.5682 C   0  0  0  0  0  0  0  0  0  0  0  0
  -29.5487  -19.2399   20.7133 C   0  0  0  0  0  0  0  0  0  0  0  0
  -22.8412  -23.5304   21.5213 C   0  0  0  0  0  0  0  0  0  0  0  0
  -29.1495  -21.3501   19.7595 C   0  0  0  0  0  0  0  0  0  0  0  0
  -27.3366  -23.2354   18.7892 C   0  0  0  0  0  0  0  0  0  0  0  0
  -29.0773  -22.6140   20.3451 C   0  0  0  0  0  0  0  0  0  0  0  0
  -27.9910  -15.5932   22.1875 C   0  0  0  0  0  0  0  0  0  0  0  0
  -27.5692  -13.8051   23.3957 C   0  0  0  0  0  0  0  0  0  0  0  0
  -29.3219  -15.2984   24.3685 C   0  0  0  0  0  0  0  0  0  0  0  0
  -22.3236  -28.9300   21.7246 C   0  0  0  0  0  0  0  0  0  0  0  0
  -25.5376  -29.1490   21.3441 C   0  0  0  0  0  0  0  0  0  0  0  0
  -28.7652  -27.8223   20.4276 C   0  0  0  0  0  0  0  0  0  0  0  0
  -22.2720  -12.4885   20.9345 C   0  0  0  0  0  0  0  0  0  0  0  0
  -18.5390  -31.9389   23.3619 C   0  0  0  0  0  0  0  0  0  0  0  0
  -23.1499  -27.3409   23.4989 C   0  0  0  0  0  0  0  0  0  0  0  0
  -24.5008  -26.8908   20.9071 C   0  0  0  0  0  0  0  0  0  0  0  0
  -19.9199  -32.1571   22.7490 C   0  0  0  0  0  0  0  0  0  0  0  0
  -25.3392  -10.7392   20.4771 C   0  0  0  0  0  0  0  0  0  0  0  0
  -20.0956  -31.2901   21.5063 C   0  0  0  0  0  0  0  0  0  0  0  0
  -26.3996  -11.7251   20.9706 C   0  0  0  0  0  0  0  0  0  0  0  0
  -24.1936  -11.4533   19.7631 C   0  0  0  0  0  0  0  0  0  0  0  0
  -24.6209  -13.5227   21.0315 C   0  0  0  0  0  0  0  0  0  0  0  0
  -19.9962  -29.8000   21.8547 C   0  0  1  0  0  0  0  0  0  0  0  0
  -23.4932  -28.4943   22.5612 C   0  0  1  0  0  0  0  0  0  0  0  0
  -25.7691  -12.8546   21.8072 C   0  0  2  0  0  0  0  0  0  0  0  0
  -31.2457  -28.1875   20.3218 C   0  0  0  0  0  0  0  0  0  0  0  0
  -25.2423  -17.1101   14.5511 C   0  0  0  0  0  0  0  0  0  0  0  0
  -26.6679  -16.4402   16.5242 C   0  0  0  0  0  0  0  0  0  0  0  0
  -25.0142  -29.9490   18.4465 C   0  0  0  0  0  0  0  0  0  0  0  0
  -27.4180  -29.4563   17.9494 C   0  0  0  0  0  0  0  0  0  0  0  0
  -26.8254  -31.2510   19.5774 C   0  0  0  0  0  0  0  0  0  0  0  0
  -29.2127  -26.3012   22.9266 C   0  0  0  0  0  0  0  0  0  0  0  0
  -23.6145  -18.7636   18.8363 C   0  0  0  0  0  0  0  0  0  0  0  0
  -23.8299  -19.6650   20.0599 C   0  0  0  0  0  0  0  0  0  0  0  0
  -20.7611  -18.5555   22.2281 C   0  0  0  0  0  0  0  0  0  0  0  0
  -20.4511  -13.6342   22.1718 C   0  0  0  0  0  0  0  0  0  0  0  0
  -24.8748  -18.5712   18.0000 C   0  0  0  0  0  0  0  0  0  0  0  0
  -20.3793  -17.3398   23.0711 C   0  0  0  0  0  0  0  0  0  0  0  0
  -20.2154  -14.8475   23.0519 C   0  0  0  0  0  0  0  0  0  0  0  0
  -22.5970  -21.1738   21.7273 C   0  0  0  0  0  0  0  0  0  1  0  0
  -26.5066  -28.8297   20.2315 C   0  0  1  0  0  0  0  0  0  0  0  0
  -30.0514  -27.9279   21.2269 C   0  0  2  0  0  0  0  0  0  0  0  0
  -22.5430  -19.8751   20.9003 C   0  0  2  0  0  0  0  0  0  0  0  0
  -25.7635  -17.5044   15.9237 C   0  0  0  0  0  0  0  0  0  0  0  0
  -22.2182  -18.5976   21.7312 C   0  0  1  0  0  0  0  0  0  0  0  0
  -26.4242  -29.8515   19.0625 C   0  0  0  0  0  0  0  0  0  0  0  0
  -27.0449  -14.9434   21.5044 N   0  0  0  0  0  0  0  0  0  0  0  0
  -26.8095  -13.8603   22.2644 N   0  0  0  0  0  0  0  0  0  0  0  0
  -24.5808  -28.1668   21.6371 N   0  0  0  0  0  0  0  0  0  0  0  0
  -23.6386  -12.5114   20.6106 N   0  0  0  0  0  0  0  0  0  0  0  0
  -27.4594  -12.7839   24.2717 N   0  0  0  0  0  0  0  0  0  0  0  0
  -30.0440  -16.4865   24.1909 N   0  0  0  0  0  0  0  0  0  0  0  0
  -21.2275  -29.3393   22.4598 N   0  0  0  0  0  0  0  0  0  0  0  0
  -27.8239  -28.7363   20.8516 N   0  0  0  0  0  0  0  0  0  0  0  0
  -21.8290  -13.5246   21.7475 N   0  0  0  0  0  0  0  0  0  0  0  0
  -23.1348  -18.4741   22.8997 N   0  3  0  0  0  0  0  0  0  0  0  0
  -30.2983  -26.6660   21.9803 N   0  3  0  0  0  0  0  0  0  0  0  0
  -20.5142  -16.0902   22.2873 N   0  3  0  0  0  0  0  0  0  0  0  0
  -24.5998  -17.7023   16.8315 N   0  3  0  0  0  0  0  0  0  0  0  0
  -29.5494  -14.5865   25.3759 O   0  0  0  0  0  0  0  0  0  0  0  0
  -22.4098  -28.8986   20.5026 O   0  0  0  0  0  0  0  0  0  0  0  0
  -25.6308  -30.2270   21.9365 O   0  0  0  0  0  0  0  0  0  0  0  0
  -28.6122  -27.0126   19.5157 O   0  0  0  0  0  0  0  0  0  0  0  0
  -21.5046  -11.6068   20.5336 O   0  0  0  0  0  0  0  0  0  0  0  0
  -30.0495  -20.4134   20.2394 O   0  0  0  0  0  0  0  0  0  0  0  0
  -22.7461  -22.3138   20.8952 O   0  0  0  0  0  0  0  0  0  1  0  0
  -26.4671  -24.1410   18.3223 F   0  0  0  0  0  0  0  0  0  0  0  0
  -29.8770  -22.9288   21.3733 F   0  0  0  0  0  0  0  0  0  0  0  0
  1  2  1  0  0  0  0
  1  5  2  0  0  0  0
  2  6  2  0  0  0  0
  3  8  2  0  0  0  0
  3 15  1  0  0  0  0
  4  9  1  0  0  0  0
  4 15  2  0  0  0  0
  5 17  1  0  0  0  0
  6 19  1  0  0  0  0
  7 10  2  0  0  0  0
  7 18  1  0  0  0  0
  8 21  1  0  0  0  0
  9 21  2  0  0  0  0
 10 22  1  0  0  0  0
 11 12  2  0  0  0  0
 11 23  1  0  0  0  0
 12 24  1  0  0  0  0
 13 20  1  0  0  0  0
 13 22  2  0  0  0  0
 14 24  2  0  0  0  0
 14 25  1  0  0  0  0
 15 26  1  0  0  0  0
 16 26  1  0  0  0  0
 16 27  2  0  0  0  0
 16 28  1  0  0  0  0
 17 19  2  0  0  0  0
 17 33  1  0  0  0  0
 18 20  2  0  0  0  0
 18 34  1  0  0  0  0
 19 42  1  0  0  0  0
 20 35  1  0  0  0  0
 21 84  1  0  0  0  0
 22 85  1  0  0  0  0
 23 25  2  0  0  0  0
 23 84  1  0  0  0  0
 24 86  1  0  0  0  0
 25 87  1  0  0  0  0
 26 66  2  0  0  0  0
 27 67  1  0  0  0  0
 27 70  1  0  0  0  0
 28 71  1  0  0  0  0
 28 79  2  0  0  0  0
 29 43  1  0  0  0  0
 29 72  1  0  0  0  0
 29 80  2  0  0  0  0
 30 60  1  0  0  0  0
 30 68  1  0  0  0  0
 30 81  2  0  0  0  0
 31 61  1  0  0  0  0
 31 73  1  0  0  0  0
 31 82  2  0  0  0  0
 32 69  1  0  0  0  0
 32 74  1  0  0  0  0
 32 83  2  0  0  0  0
 33 36  1  0  0  0  0
 34 43  1  0  0  0  0
 35 68  1  0  0  0  0
 36 38  1  0  0  0  0
 37 39  1  0  0  0  0
 37 40  1  0  0  0  0
 38 42  1  0  0  0  0
 39 44  1  0  0  0  0
 40 69  1  0  0  0  0
 41 44  1  0  0  0  0
 41 69  1  0  0  0  0
 42 72  1  0  0  0  0
 43 68  1  0  0  0  0
 44 67  1  0  0  0  0
 45 61  1  0  0  0  0
 46 63  1  0  0  0  0
 47 63  1  0  0  0  0
 48 65  1  0  0  0  0
 49 65  1  0  0  0  0
 50 65  1  0  0  0  0
 51 76  1  0  0  0  0
 52 53  1  0  0  0  0
 52 56  1  0  0  0  0
 53 62  1  0  0  0  0
 54 57  1  0  0  0  0
 54 64  1  0  0  0  0
 55 58  1  0  0  0  0
 55 74  1  0  0  0  0
 56 78  1  0  0  0  0
 57 77  1  0  0  0  0
 58 77  1  0  0  0  0
 59 62  1  0  0  0  0
 59 85  1  0  0  0  0
 60 65  1  0  0  0  0
 60 73  1  0  0  0  0
 61 76  1  0  0  0  0
 62 64  1  0  0  0  0
 63 78  1  0  0  0  0
 64 75  1  0  0  0  0
 66 67  1  0  0  0  0
M  CHG  4  75   1  76   1  77   1  78   1
M  ISO  4  32 100  59 101  74 100  85 101
M  END
> <Batch ID>
0113

> <Smiles>
CNC(C)C(=O)NC(C(=O)N1Cc2cc([101O:1][101CH2:1]C(CCCNC(C)C)C(N)CCNCC[100NH:0][100C:0](=O)N3CCCC(n4nc(-c5ccc(Oc6ccc(F)cc6F)cc5)c(C(N)=O)c4N)C3)ccc2CC1C(=O)NC1CCCc2ccccc21)C(C)(C)C

> <Shape>
0.219

> <Color>
0.079

> <Negative vol penalty>
0.000

$$$$

  -OEChem-04052320053D

 90 98  0     1  0  0  0  0  0999 V2000
  -33.7150  -31.2406   18.1067 C   0  0  0  0  0  0  0  0  0  0  0  0
  -33.5956  -29.8567   18.1834 C   0  0  0  0  0  0  0  0  0  0  0  0
  -22.9806   -9.9002   19.9586 C   0  0  0  0  0  0  0  0  0  0  0  0
  -23.7429   -9.8763   22.2510 C   0  0  0  0  0  0  0  0  0  0  0  0
  -32.6828  -32.0551   18.5707 C   0  0  0  0  0  0  0  0  0  0  0  0
  -32.4442  -29.2864   18.7252 C   0  0  0  0  0  0  0  0  0  0  0  0
  -30.7098  -25.4131   15.9621 C   0  0  0  0  0  0  0  0  0  0  0  0
  -28.4945  -18.6500   22.0730 C   0  0  0  0  0  0  0  0  0  0  0  0
  -22.2115   -8.7624   20.2024 C   0  0  0  0  0  0  0  0  0  0  0  0
  -22.9738   -8.7385   22.4949 C   0  0  0  0  0  0  0  0  0  0  0  0
  -31.3685  -24.1914   16.0942 C   0  0  0  0  0  0  0  0  0  0  0  0
  -27.1500  -19.0167   22.0143 C   0  0  0  0  0  0  0  0  0  0  0  0
  -23.1902   -5.4143   21.9170 C   0  0  0  0  0  0  0  0  0  0  0  0
  -23.7835   -4.3712   22.6280 C   0  0  0  0  0  0  0  0  0  0  0  0
  -29.6333  -23.4240   17.5839 C   0  0  0  0  0  0  0  0  0  0  0  0
  -27.1594  -18.6686   19.6235 C   0  0  0  0  0  0  0  0  0  0  0  0
  -22.0881   -4.5722   24.3376 C   0  0  0  0  0  0  0  0  0  0  0  0
  -23.7463  -10.4572   20.9829 C   0  0  0  0  0  0  0  0  0  0  0  0
  -24.1441  -12.9748   20.8778 C   0  0  0  0  0  0  0  0  0  0  0  0
  -31.5141  -31.4943   19.1095 C   0  0  0  0  0  0  0  0  0  0  0  0
  -29.5116  -25.6538   16.6496 C   0  0  0  0  0  0  0  0  0  0  0  0
  -31.3960  -30.0941   19.1980 C   0  0  0  0  0  0  0  0  0  0  0  0
  -28.9601  -24.6486   17.4568 C   0  0  0  0  0  0  0  0  0  0  0  0
  -29.1715  -18.2927   20.9069 C   0  0  0  0  0  0  0  0  0  0  0  0
  -28.5039  -18.3019   19.6822 C   0  0  0  0  0  0  0  0  0  0  0  0
  -22.2081   -8.1815   21.4705 C   0  0  0  0  0  0  0  0  0  0  0  0
  -30.8317  -23.1977   16.9075 C   0  0  0  0  0  0  0  0  0  0  0  0
  -26.4824  -19.0260   20.7896 C   0  0  0  0  0  0  0  0  0  0  0  0
  -22.0459   -6.0364   22.4163 C   0  0  0  0  0  0  0  0  0  0  0  0
  -23.2325   -3.9501   23.8382 C   0  0  0  0  0  0  0  0  0  0  0  0
  -21.4949   -5.6154   23.6266 C   0  0  0  0  0  0  0  0  0  0  0  0
  -24.5414  -11.6322   20.7315 C   0  0  0  0  0  0  0  0  0  0  0  0
  -25.2522  -13.7020   20.5178 C   0  0  0  0  0  0  0  0  0  0  0  0
  -22.8858  -13.5162   21.3013 C   0  0  0  0  0  0  0  0  0  0  0  0
  -28.5763  -27.7290   18.8682 C   0  0  0  0  0  0  0  0  0  0  0  0
  -25.6703  -26.3870   18.3422 C   0  0  0  0  0  0  0  0  0  0  0  0
  -23.8762  -23.6922   17.2624 C   0  0  0  0  0  0  0  0  0  0  0  0
  -31.0871  -21.0357   16.0943 C   0  0  0  0  0  0  0  0  0  1  0  0
  -30.7575  -14.5978   20.7058 C   0  0  0  0  0  0  0  0  0  0  0  0
  -30.4453  -32.4158   19.6416 C   0  0  0  0  0  0  0  0  0  0  0  0
  -28.7995  -26.9672   16.4754 C   0  0  0  0  0  0  0  0  0  0  0  0
  -27.6657  -24.8496   18.2002 C   0  0  0  0  0  0  0  0  0  0  0  0
  -29.1000  -31.7275   19.8577 C   0  0  0  0  0  0  0  0  0  0  0  0
  -29.5646  -12.2538   18.3060 C   0  0  0  0  0  0  0  0  0  0  0  0
  -29.2904  -30.3993   20.5833 C   0  0  0  0  0  0  0  0  0  0  0  0
  -28.1215  -11.9894   18.7388 C   0  0  0  0  0  0  0  0  0  0  0  0
  -30.4877  -12.4468   19.5071 C   0  0  0  0  0  0  0  0  0  0  0  0
  -28.6041  -13.2115   20.9004 C   0  0  0  0  0  0  0  0  0  0  0  0
  -30.1521  -29.4375   19.7564 C   0  0  1  0  0  0  0  0  0  0  0  0
  -27.8523  -27.2906   17.6267 C   0  0  1  0  0  0  0  0  0  0  0  0
  -27.6251  -13.0658   19.7228 C   0  0  2  0  0  0  0  0  0  0  0  0
  -21.5188  -22.8767   16.9884 C   0  0  0  0  0  0  0  0  0  0  0  0
  -33.8263  -20.4151   14.8454 C   0  0  0  0  0  0  0  0  0  0  0  0
  -31.9466  -19.1167   13.8150 C   0  0  0  0  0  0  0  0  0  0  0  0
  -25.4978  -25.8841   21.3467 C   0  0  0  0  0  0  0  0  0  0  0  0
  -23.6384  -24.2684   20.8990 C   0  0  0  0  0  0  0  0  0  0  0  0
  -23.3697  -26.6743   20.2973 C   0  0  0  0  0  0  0  0  0  0  0  0
  -24.1893  -23.4155   14.3324 C   0  0  0  0  0  0  0  0  0  0  0  0
  -24.5498  -19.3718   19.4476 C   0  0  0  0  0  0  0  0  0  0  0  0
  -30.6107  -17.9037   20.9949 C   0  0  0  0  0  0  0  0  0  0  0  0
  -29.2117  -17.9226   18.4149 C   0  0  0  0  0  0  0  0  0  0  0  0
  -30.8724  -16.7388   21.9557 C   0  0  0  0  0  0  0  0  0  0  0  0
  -30.8942  -18.6080   16.7008 C   0  0  0  0  0  0  0  0  0  0  0  0
  -24.9120  -25.2176   18.9221 C   0  0  1  0  0  0  0  0  0  0  0  0
  -22.6891  -23.5835   16.3224 C   0  0  2  0  0  0  0  0  0  0  0  0
  -31.8591  -19.7394   16.3244 C   0  0  1  0  0  0  0  0  0  0  0  0
  -32.7372  -19.3684   15.1021 C   0  0  0  0  0  0  0  0  0  0  0  0
  -24.3799  -25.5077   20.3539 C   0  0  0  0  0  0  0  0  0  0  0  0
  -25.8034  -11.5109   20.3111 N   0  0  0  0  0  0  0  0  0  0  0  0
  -26.2086  -12.7865   20.1901 N   0  0  0  0  0  0  0  0  0  0  0  0
  -27.0104  -26.1530   18.0026 N   0  0  0  0  0  0  0  0  0  0  0  0
  -29.9611  -13.4819   20.3999 N   0  0  0  0  0  0  0  0  0  0  0  0
  -25.4921  -15.0289   20.4526 N   0  0  0  0  0  0  0  0  0  0  0  0
  -21.8543  -12.6277   21.6343 N   0  0  0  0  0  0  0  0  0  0  0  0
  -29.3700  -28.8463   18.6918 N   0  0  0  0  0  0  0  0  0  0  0  0
  -23.8723  -24.8849   17.9543 N   0  0  0  0  0  0  0  0  0  0  0  0
  -30.1800  -15.5345   21.5542 N   0  0  0  0  0  0  0  0  0  0  0  0
  -23.0652  -22.8196   15.0993 N   0  3  0  0  0  0  0  0  0  0  0  0
  -30.1360  -18.9792   17.9251 N   0  3  0  0  0  0  0  0  0  0  0  0
  -22.6770  -14.7514   21.3664 O   0  0  0  0  0  0  0  0  0  0  0  0
  -28.4248  -27.1009   19.9095 O   0  0  0  0  0  0  0  0  0  0  0  0
  -25.0929  -27.4663   18.1892 O   0  0  0  0  0  0  0  0  0  0  0  0
  -24.7204  -22.8060   17.3745 O   0  0  0  0  0  0  0  0  0  0  0  0
  -30.2541  -21.2050   15.2128 O   0  0  0  0  0  0  0  0  0  0  0  0
  -31.8966  -14.7507   20.2519 O   0  0  0  0  0  0  0  0  0  0  0  0
  -21.4576   -7.0714   21.7089 O   0  0  0  0  0  0  0  0  0  0  0  0
  -31.4729  -22.0046   17.0388 O   0  0  0  0  0  0  0  0  0  1  0  0
  -25.1706  -19.3843   20.7321 O   0  0  0  0  0  0  0  0  0  0  0  0
  -23.8014   -2.9474   24.5201 F   0  0  0  0  0  0  0  0  0  0  0  0
  -20.3950   -6.2084   24.1107 F   0  0  0  0  0  0  0  0  0  0  0  0
  1  2  1  0  0  0  0
  1  5  2  0  0  0  0
  2  6  2  0  0  0  0
  3  9  2  0  0  0  0
  3 18  1  0  0  0  0
  4 10  1  0  0  0  0
  4 18  2  0  0  0  0
  5 20  1  0  0  0  0
  6 22  1  0  0  0  0
  7 11  2  0  0  0  0
  7 21  1  0  0  0  0
  8 12  2  0  0  0  0
  8 24  1  0  0  0  0
  9 26  1  0  0  0  0
 10 26  2  0  0  0  0
 11 27  1  0  0  0  0
 12 28  1  0  0  0  0
 13 14  2  0  0  0  0
 13 29  1  0  0  0  0
 14 30  1  0  0  0  0
 15 23  1  0  0  0  0
 15 27  2  0  0  0  0
 16 25  1  0  0  0  0
 16 28  2  0  0  0  0
 17 30  2  0  0  0  0
 17 31  1  0  0  0  0
 18 32  1  0  0  0  0
 19 32  1  0  0  0  0
 19 33  2  0  0  0  0
 19 34  1  0  0  0  0
 20 22  2  0  0  0  0
 20 40  1  0  0  0  0
 21 23  2  0  0  0  0
 21 41  1  0  0  0  0
 22 49  1  0  0  0  0
 23 42  1  0  0  0  0
 24 25  2  0  0  0  0
 24 60  1  0  0  0  0
 25 61  1  0  0  0  0
 26 86  1  0  0  0  0
 27 87  1  0  0  0  0
 28 88  1  0  0  0  0
 29 31  2  0  0  0  0
 29 86  1  0  0  0  0
 30 89  1  0  0  0  0
 31 90  1  0  0  0  0
 32 69  2  0  0  0  0
 33 70  1  0  0  0  0
 33 73  1  0  0  0  0
 34 74  1  0  0  0  0
 34 80  2  0  0  0  0
 35 50  1  0  0  0  0
 35 75  1  0  0  0  0
 35 81  2  0  0  0  0
 36 64  1  0  0  0  0
 36 71  1  0  0  0  0
 36 82  2  0  0  0  0
 37 65  1  0  0  0  0
 37 76  1  0  0  0  0
 37 83  2  0  0  0  0
 38 66  1  0  0  0  0
 38 84  2  0  0  0  0
 38 87  1  0  0  0  0
 39 72  1  0  0  0  0
 39 77  1  0  0  0  0
 39 85  2  0  0  0  0
 40 43  1  0  0  0  0
 41 50  1  0  0  0  0
 42 71  1  0  0  0  0
 43 45  1  0  0  0  0
 44 46  1  0  0  0  0
 44 47  1  0  0  0  0
 45 49  1  0  0  0  0
 46 51  1  0  0  0  0
 47 72  1  0  0  0  0
 48 51  1  0  0  0  0
 48 72  1  0  0  0  0
 49 75  1  0  0  0  0
 50 71  1  0  0  0  0
 51 70  1  0  0  0  0
 52 65  1  0  0  0  0
 53 67  1  0  0  0  0
 54 67  1  0  0  0  0
 55 68  1  0  0  0  0
 56 68  1  0  0  0  0
 57 68  1  0  0  0  0
 58 78  1  0  0  0  0
 59 88  1  0  0  0  0
 60 62  1  0  0  0  0
 61 79  1  0  0  0  0
 62 77  1  0  0  0  0
 63 66  1  0  0  0  0
 63 79  1  0  0  0  0
 64 68  1  0  0  0  0
 64 76  1  0  0  0  0
 65 78  1  0  0  0  0
 66 67  1  0  0  0  0
 69 70  1  0  0  0  0
M  CHG  2  78   1  79   1
M  ISO  4  38 101  39 100  77 100  87 101
M  END
> <Batch ID>
0113

> <Smiles>
CNC(C)C(=O)NC(C(=O)N1Cc2cc([101O:1][101C:1](=O)C(CNCc3cc(OC)ccc3CC[100NH:0][100C:0](=O)N3CCCC(n4nc(-c5ccc(Oc6ccc(F)cc6F)cc5)c(C(N)=O)c4N)C3)C(C)C)ccc2CC1C(=O)NC1CCCc2ccccc21)C(C)(C)C

> <Shape>
0.256

> <Color>
0.209

> <Negative vol penalty>
0.000

$$$$

  -OEChem-04052320053D

 89 97  0     1  0  0  0  0  0999 V2000
  -16.9193  -32.0372   22.3122 C   0  0  0  0  0  0  0  0  0  0  0  0
  -18.1296  -32.3277   21.6907 C   0  0  0  0  0  0  0  0  0  0  0  0
  -25.9948  -13.6133   21.6942 C   0  0  0  0  0  0  0  0  0  0  0  0
  -25.1307  -14.6848   19.7087 C   0  0  0  0  0  0  0  0  0  0  0  0
  -16.8743  -31.1021   23.3453 C   0  0  0  0  0  0  0  0  0  0  0  0
  -19.2958  -31.6839   22.1028 C   0  0  0  0  0  0  0  0  0  0  0  0
  -25.5239  -29.2371   19.5453 C   0  0  0  0  0  0  0  0  0  0  0  0
  -24.9080  -12.7390   21.6954 C   0  0  0  0  0  0  0  0  0  0  0  0
  -24.0439  -13.8104   19.7098 C   0  0  0  0  0  0  0  0  0  0  0  0
  -26.8945  -29.3207   19.7863 C   0  0  0  0  0  0  0  0  0  0  0  0
  -23.9612   -9.9399   20.0517 C   0  0  0  0  0  0  0  0  0  0  0  0
  -24.2184   -8.5865   20.2703 C   0  0  0  0  0  0  0  0  0  0  0  0
  -26.6830  -27.6651   21.5281 C   0  0  0  0  0  0  0  0  0  0  0  0
  -29.3387  -26.2529   17.9606 C   0  0  0  0  0  0  0  0  0  0  0  0
  -22.8069   -8.6349   22.2306 C   0  0  0  0  0  0  0  0  0  0  0  0
  -26.1061  -14.5863   20.7009 C   0  0  0  0  0  0  0  0  0  0  0  0
  -28.4683  -15.3048   20.0596 C   0  0  0  0  0  0  0  0  0  0  0  0
  -18.0389  -30.4394   23.7638 C   0  0  0  0  0  0  0  0  0  0  0  0
  -24.7194  -28.3735   20.3025 C   0  0  0  0  0  0  0  0  0  0  0  0
  -19.2666  -30.7400   23.1434 C   0  0  0  0  0  0  0  0  0  0  0  0
  -25.3029  -27.5706   21.2930 C   0  0  0  0  0  0  0  0  0  0  0  0
  -28.8219  -25.0830   17.4153 C   0  0  0  0  0  0  0  0  0  0  0  0
  -29.3781  -23.8565   17.7610 C   0  0  0  0  0  0  0  0  0  0  0  0
  -23.9326  -12.8375   20.7031 C   0  0  0  0  0  0  0  0  0  0  0  0
  -27.4739  -28.5368   20.7798 C   0  0  0  0  0  0  0  0  0  0  0  0
  -23.1270  -10.6409   20.9226 C   0  0  0  0  0  0  0  0  0  0  0  0
  -23.6412   -7.9340   21.3597 C   0  0  0  0  0  0  0  0  0  0  0  0
  -22.5498   -9.9884   22.0120 C   0  0  0  0  0  0  0  0  0  0  0  0
  -27.2282  -15.4902   20.6995 C   0  0  0  0  0  0  0  0  0  0  0  0
  -30.4039  -26.1433   18.8399 C   0  0  0  0  0  0  0  0  0  0  0  0
  -30.4417  -23.8541   18.6491 C   0  0  0  0  0  0  0  0  0  0  0  0
  -29.1825  -16.4390   20.3598 C   0  0  0  0  0  0  0  0  0  0  0  0
  -28.9331  -14.2057   19.2648 C   0  0  0  0  0  0  0  0  0  0  0  0
  -22.2626  -28.7561   22.2828 C   0  0  0  0  0  0  0  0  0  0  0  0
  -22.2184  -25.5130   22.2313 C   0  0  0  0  0  0  0  0  0  0  0  0
  -23.9215  -22.6000   21.7206 C   0  0  0  0  0  0  0  0  0  0  0  0
  -29.5126  -21.9848   20.8890 C   0  0  0  0  0  0  0  0  0  0  0  0
  -17.9488  -29.4711   24.9166 C   0  0  0  0  0  0  0  0  0  0  0  0
  -23.2468  -28.2753   20.0121 C   0  0  0  0  0  0  0  0  0  0  0  0
  -24.4864  -26.6125   22.1200 C   0  0  0  0  0  0  0  0  0  0  0  0
  -19.1656  -28.5580   25.0416 C   0  0  0  0  0  0  0  0  0  0  0  0
  -28.2297  -20.1527   23.6592 C   0  0  0  0  0  0  0  0  0  0  0  0
  -20.4539  -29.3652   24.9171 C   0  0  0  0  0  0  0  0  0  0  0  0
  -27.9514  -18.7638   23.0819 C   0  0  0  0  0  0  0  0  0  0  0  0
  -27.9272  -21.2555   22.6471 C   0  0  0  0  0  0  0  0  0  0  0  0
  -28.3218  -19.7125   20.7664 C   0  0  0  0  0  0  0  0  0  0  0  0
  -20.5490  -30.0444   23.5455 C   0  0  1  0  0  0  0  0  0  0  0  0
  -22.4398  -27.7395   21.1906 C   0  0  1  0  0  0  0  0  0  0  0  0
  -28.6651  -18.5647   21.7312 C   0  0  2  0  0  0  0  0  0  0  0  0
  -28.0300  -25.9610   15.1891 C   0  0  0  0  0  0  0  0  0  0  0  0
  -26.4163  -25.7748   17.1170 C   0  0  0  0  0  0  0  0  0  0  0  0
  -32.4517  -27.5808   19.0136 C   0  0  0  0  0  0  0  0  0  0  0  0
  -23.6286  -20.1087   21.7906 C   0  0  0  0  0  0  0  0  0  0  0  0
  -27.8154  -21.2999   15.5414 C   0  0  0  0  0  0  0  0  0  0  0  0
  -30.2419  -21.9562   15.3763 C   0  0  0  0  0  0  0  0  0  0  0  0
  -22.3328  -25.5877   25.2794 C   0  0  0  0  0  0  0  0  0  0  0  0
  -22.9897  -23.1720   25.2445 C   0  0  0  0  0  0  0  0  0  0  0  0
  -20.7751  -23.8738   24.3357 C   0  0  0  0  0  0  0  0  0  0  0  0
  -24.5586  -22.3278   18.8433 C   0  0  0  0  0  0  0  0  0  0  0  0
  -31.0838  -22.5682   19.0586 C   0  0  0  0  0  0  0  0  0  0  0  0
  -30.8944  -27.4244   20.9930 C   0  0  0  0  0  0  0  0  0  0  0  0
  -29.4564  -27.4401   21.5030 C   0  0  0  0  0  0  0  0  0  1  0  0
  -27.6742  -25.1739   16.4636 C   0  0  0  0  0  0  0  0  0  0  0  0
  -30.9945  -27.4000   19.4555 C   0  0  2  0  0  0  0  0  0  0  0  0
  -22.8764  -24.4218   23.0408 C   0  0  1  0  0  0  0  0  0  0  0  0
  -23.5734  -21.3563   20.9228 C   0  0  2  0  0  0  0  0  0  0  0  0
  -28.8496  -22.3811   15.8194 C   0  0  0  0  0  0  0  0  0  0  0  0
  -22.2588  -24.2832   24.4610 C   0  0  0  0  0  0  0  0  0  0  0  0
  -27.1555  -16.6507   21.3568 N   0  0  0  0  0  0  0  0  0  0  0  0
  -30.9707  -24.9698   19.1995 N   0  0  0  0  0  0  0  0  0  0  0  0
  -28.3590  -17.2047   21.1315 N   0  0  0  0  0  0  0  0  0  0  0  0
  -23.0498  -26.5573   21.8025 N   0  0  0  0  0  0  0  0  0  0  0  0
  -28.6357  -21.0081   21.3890 N   0  0  0  0  0  0  0  0  0  0  0  0
  -30.4284  -16.8459   20.0363 N   0  0  0  0  0  0  0  0  0  0  0  0
  -28.0708  -13.1208   19.0555 N   0  0  0  0  0  0  0  0  0  0  0  0
  -28.8741  -22.6563   17.2239 N   0  0  0  0  0  0  0  0  0  0  0  0
  -20.9450  -29.0878   22.5343 N   0  0  0  0  0  0  0  0  0  0  0  0
  -22.7959  -23.2094   22.2333 N   0  0  0  0  0  0  0  0  0  0  0  0
  -30.1483  -21.6677   19.6947 N   0  0  0  0  0  0  0  0  0  0  0  0
  -24.5267  -21.1837   19.7904 N   0  3  0  0  0  0  0  0  0  0  0  0
  -30.0850  -14.1790   18.7689 O   0  0  0  0  0  0  0  0  0  0  0  0
  -23.2483  -29.2051   22.8560 O   0  0  0  0  0  0  0  0  0  0  0  0
  -21.0126  -25.4377   21.9823 O   0  0  0  0  0  0  0  0  0  0  0  0
  -25.0766  -22.9897   21.8766 O   0  0  0  0  0  0  0  0  0  0  0  0
  -29.7183  -23.0575   21.4669 O   0  0  0  0  0  0  0  0  0  0  0  0
  -22.8721  -11.9843   20.7038 O   0  0  0  0  0  0  0  0  0  0  0  0
  -28.8114  -28.6168   21.0176 O   0  0  0  0  0  0  0  0  0  1  0  0
  -23.8869   -6.6339   21.5686 F   0  0  0  0  0  0  0  0  0  0  0  0
  -21.7466  -10.6562   22.8514 F   0  0  0  0  0  0  0  0  0  0  0  0
  1  2  1  0  0  0  0
  1  5  2  0  0  0  0
  2  6  2  0  0  0  0
  3  8  2  0  0  0  0
  3 16  1  0  0  0  0
  4  9  1  0  0  0  0
  4 16  2  0  0  0  0
  5 18  1  0  0  0  0
  6 20  1  0  0  0  0
  7 10  2  0  0  0  0
  7 19  1  0  0  0  0
  8 24  1  0  0  0  0
  9 24  2  0  0  0  0
 10 25  1  0  0  0  0
 11 12  2  0  0  0  0
 11 26  1  0  0  0  0
 12 27  1  0  0  0  0
 13 21  1  0  0  0  0
 13 25  2  0  0  0  0
 14 22  2  0  0  0  0
 14 30  1  0  0  0  0
 15 27  2  0  0  0  0
 15 28  1  0  0  0  0
 16 29  1  0  0  0  0
 17 29  1  0  0  0  0
 17 32  2  0  0  0  0
 17 33  1  0  0  0  0
 18 20  2  0  0  0  0
 18 38  1  0  0  0  0
 19 21  2  0  0  0  0
 19 39  1  0  0  0  0
 20 47  1  0  0  0  0
 21 40  1  0  0  0  0
 22 23  1  0  0  0  0
 22 63  1  0  0  0  0
 23 31  2  0  0  0  0
 23 76  1  0  0  0  0
 24 86  1  0  0  0  0
 25 87  1  0  0  0  0
 26 28  2  0  0  0  0
 26 86  1  0  0  0  0
 27 88  1  0  0  0  0
 28 89  1  0  0  0  0
 29 69  2  0  0  0  0
 30 64  1  0  0  0  0
 30 70  2  0  0  0  0
 31 60  1  0  0  0  0
 31 70  1  0  0  0  0
 32 71  1  0  0  0  0
 32 74  1  0  0  0  0
 33 75  1  0  0  0  0
 33 81  2  0  0  0  0
 34 48  1  0  0  0  0
 34 77  1  0  0  0  0
 34 82  2  0  0  0  0
 35 65  1  0  0  0  0
 35 72  1  0  0  0  0
 35 83  2  0  0  0  0
 36 66  1  0  0  0  0
 36 78  1  0  0  0  0
 36 84  2  0  0  0  0
 37 73  1  0  0  0  0
 37 79  1  0  0  0  0
 37 85  2  0  0  0  0
 38 41  1  0  0  0  0
 39 48  1  0  0  0  0
 40 72  1  0  0  0  0
 41 43  1  0  0  0  0
 42 44  1  0  0  0  0
 42 45  1  0  0  0  0
 43 47  1  0  0  0  0
 44 49  1  0  0  0  0
 45 73  1  0  0  0  0
 46 49  1  0  0  0  0
 46 73  1  0  0  0  0
 47 77  1  0  0  0  0
 48 72  1  0  0  0  0
 49 71  1  0  0  0  0
 50 63  1  0  0  0  0
 51 63  1  0  0  0  0
 52 64  1  0  0  0  0
 53 66  1  0  0  0  0
 54 67  1  0  0  0  0
 55 67  1  0  0  0  0
 56 68  1  0  0  0  0
 57 68  1  0  0  0  0
 58 68  1  0  0  0  0
 59 80  1  0  0  0  0
 60 79  1  0  0  0  0
 61 62  1  0  0  0  0
 61 64  1  0  0  0  0
 62 87  1  0  0  0  0
 65 68  1  0  0  0  0
 65 78  1  0  0  0  0
 66 80  1  0  0  0  0
 67 76  1  0  0  0  0
 69 71  1  0  0  0  0
M  CHG  1  80   1
M  ISO  4  37 100  62 101  79 100  87 101
M  END
> <Batch ID>
0113

> <Smiles>
CNC(C)C(=O)NC(C(=O)N1Cc2cc([101O:1][101CH2:1]CC(C)c3cc(C(C)C)c(NC(C)C)c(C[100NH:0][100C:0](=O)N4CCCC(n5nc(-c6ccc(Oc7ccc(F)cc7F)cc6)c(C(N)=O)c5N)C4)n3)ccc2CC1C(=O)NC1CCCc2ccccc21)C(C)(C)C

> <Shape>
0.277

> <Color>
0.090

> <Negative vol penalty>
0.000

$$$$

  -OEChem-04052320053D

 81 89  0     1  0  0  0  0  0999 V2000
  -22.1724  -11.1913   19.8914 C   0  0  0  0  0  0  0  0  0  0  0  0
  -21.6996  -12.4729   20.1548 C   0  0  0  0  0  0  0  0  0  0  0  0
  -28.8469  -28.0532   18.1944 C   0  0  0  0  0  0  0  0  0  0  0  0
  -27.5738  -26.5976   19.6427 C   0  0  0  0  0  0  0  0  0  0  0  0
  -23.5295  -10.9065   20.0371 C   0  0  0  0  0  0  0  0  0  0  0  0
  -22.5836  -13.4703   20.5650 C   0  0  0  0  0  0  0  0  0  0  0  0
  -22.2964  -19.4334   19.1994 C   0  0  0  0  0  0  0  0  0  0  0  0
  -29.9880  -27.2851   18.4253 C   0  0  0  0  0  0  0  0  0  0  0  0
  -28.7149  -25.8294   19.8736 C   0  0  0  0  0  0  0  0  0  0  0  0
  -21.8110  -20.5345   19.9033 C   0  0  0  0  0  0  0  0  0  0  0  0
  -33.3204  -25.9158   18.9189 C   0  0  0  0  0  0  0  0  0  0  0  0
  -34.5133  -26.5876   19.1857 C   0  0  0  0  0  0  0  0  0  0  0  0
  -24.0420  -21.0080   20.6893 C   0  0  0  0  0  0  0  0  0  0  0  0
  -33.5027  -27.6110   21.1270 C   0  0  0  0  0  0  0  0  0  0  0  0
  -27.6398  -27.7096   18.8031 C   0  0  0  0  0  0  0  0  0  0  0  0
  -25.8365  -28.7483   17.3277 C   0  0  0  0  0  0  0  0  0  0  0  0
  -24.4320  -11.9034   20.4400 C   0  0  0  0  0  0  0  0  0  0  0  0
  -23.6588  -19.1043   19.2440 C   0  0  0  0  0  0  0  0  0  0  0  0
  -23.9538  -13.1983   20.7175 C   0  0  0  0  0  0  0  0  0  0  0  0
  -24.5426  -19.9037   19.9830 C   0  0  0  0  0  0  0  0  0  0  0  0
  -29.9220  -26.1731   19.2649 C   0  0  0  0  0  0  0  0  0  0  0  0
  -22.6833  -21.3204   20.6508 C   0  0  0  0  0  0  0  0  0  0  0  0
  -32.2186  -26.0915   19.7561 C   0  0  0  0  0  0  0  0  0  0  0  0
  -34.6045  -27.4352   20.2897 C   0  0  0  0  0  0  0  0  0  0  0  0
  -32.3098  -26.9391   20.8601 C   0  0  0  0  0  0  0  0  0  0  0  0
  -26.4608  -28.5030   18.5654 C   0  0  0  0  0  0  0  0  0  0  0  0
  -24.7658  -29.5513   17.6363 C   0  0  0  0  0  0  0  0  0  0  0  0
  -26.1927  -28.2912   16.0162 C   0  0  0  0  0  0  0  0  0  0  0  0
  -25.3288  -16.5969   20.2578 C   0  0  0  0  0  0  0  0  0  0  0  0
  -27.8162  -18.2170   18.9501 C   0  0  0  0  0  0  0  0  0  0  0  0
  -29.6731  -21.2263   18.2333 C   0  0  0  0  0  0  0  0  0  0  0  0
  -21.5524  -30.3213   22.6295 C   0  0  0  0  0  0  0  0  0  0  0  0
  -25.8825  -11.5360   20.6291 C   0  0  0  0  0  0  0  0  0  0  0  0
  -24.1710  -17.9290   18.4575 C   0  0  0  0  0  0  0  0  0  0  0  0
  -26.0174  -19.6049   20.0471 C   0  0  0  0  0  0  0  0  0  0  0  0
  -26.8119  -12.7445   20.7063 C   0  0  0  0  0  0  0  0  0  0  0  0
  -23.3322  -32.8200   20.8224 C   0  0  0  0  0  0  0  0  0  0  0  0
  -26.2385  -13.7996   21.6470 C   0  0  0  0  0  0  0  0  0  0  0  0
  -19.9186  -25.2948   20.6272 C   0  0  0  0  0  0  0  0  0  0  0  0
  -21.1890  -24.6853   22.7227 C   0  0  0  0  0  0  0  0  0  0  0  0
  -19.9220  -26.7622   21.0519 C   0  0  0  0  0  0  0  0  0  0  0  0
  -21.1923  -26.1527   23.1475 C   0  0  0  0  0  0  0  0  0  0  0  0
  -24.2795  -32.0191   19.9274 C   0  0  0  0  0  0  0  0  0  0  0  0
  -23.1528  -32.1598   22.1877 C   0  0  0  0  0  0  0  0  0  0  0  0
  -23.6838  -29.9447   21.2469 C   0  0  0  0  0  0  0  0  0  0  0  0
  -24.8853  -14.3133   21.1406 C   0  0  1  0  0  0  0  0  0  0  0  0
  -25.4934  -17.3849   18.9891 C   0  0  1  0  0  0  0  0  0  0  0  0
  -21.1241  -24.5369   21.1973 C   0  0  0  0  0  0  0  0  0  0  0  0
  -19.9867  -26.9105   22.5773 C   0  0  0  0  0  0  0  0  0  0  0  0
  -23.8524  -30.5416   19.8391 C   0  0  2  0  0  0  0  0  0  0  0  0
  -31.7632  -21.5724   16.8883 C   0  0  0  0  0  0  0  0  0  0  0  0
  -20.0626  -28.5148   24.5031 C   0  0  0  0  0  0  0  0  0  0  0  0
  -18.8123  -29.1204   22.4186 C   0  0  0  0  0  0  0  0  0  0  0  0
  -29.2419  -17.9451   21.6340 C   0  0  0  0  0  0  0  0  0  0  0  0
  -30.8236  -19.7403   20.8968 C   0  0  0  0  0  0  0  0  0  0  0  0
  -30.7036  -17.5914   19.6358 C   0  0  0  0  0  0  0  0  0  0  0  0
  -28.3689  -23.2497   16.5116 C   0  0  0  0  0  0  0  0  0  0  0  0
  -21.0716  -23.0627   20.8005 C   0  0  0  0  0  0  0  0  0  1  0  0
  -28.8017  -19.2466   19.4480 C   0  0  1  0  0  0  0  0  0  0  0  0
  -30.2441  -21.6436   16.8901 C   0  0  2  0  0  0  0  0  0  0  0  0
  -20.0392  -28.3847   22.9742 C   0  0  0  0  0  0  0  0  0  0  0  0
  -29.8646  -18.6356   20.4042 C   0  0  0  0  0  0  0  0  0  0  0  0
  -25.8385  -29.1018   19.5843 N   0  0  0  0  0  0  0  0  0  0  0  0
  -24.8122  -29.7313   18.9875 N   0  0  0  0  0  0  0  0  0  0  0  0
  -26.4688  -18.4414   19.2661 N   0  0  0  0  0  0  0  0  0  0  0  0
  -22.7460  -30.7610   22.0337 N   0  0  0  0  0  0  0  0  0  0  0  0
  -23.7986  -30.1138   16.8810 N   0  0  0  0  0  0  0  0  0  0  0  0
  -25.6547  -27.0793   15.5621 N   0  0  0  0  0  0  0  0  0  0  0  0
  -25.0750  -15.2535   20.0569 N   0  0  0  0  0  0  0  0  0  0  0  0
  -29.3616  -19.8834   18.2609 N   0  0  0  0  0  0  0  0  0  0  0  0
  -21.2376  -28.9828   22.4293 N   0  0  0  0  0  0  0  0  0  0  0  0
  -29.8387  -23.0407   16.5664 N   0  3  0  0  0  0  0  0  0  0  0  0
  -26.9780  -28.9301   15.2755 O   0  0  0  0  0  0  0  0  0  0  0  0
  -25.4264  -17.1654   21.3390 O   0  0  0  0  0  0  0  0  0  0  0  0
  -28.2261  -17.2532   18.2984 O   0  0  0  0  0  0  0  0  0  0  0  0
  -29.5221  -22.0122   19.1661 O   0  0  0  0  0  0  0  0  0  0  0  0
  -20.8187  -31.0677   23.2864 O   0  0  0  0  0  0  0  0  0  0  0  0
  -31.0353  -25.4232   19.4903 O   0  0  0  0  0  0  0  0  0  0  0  0
  -22.2120  -22.3954   21.3393 O   0  0  0  0  0  0  0  0  0  1  0  0
  -35.7505  -28.0792   20.5467 F   0  0  0  0  0  0  0  0  0  0  0  0
  -31.2551  -27.1110   21.6687 F   0  0  0  0  0  0  0  0  0  0  0  0
  1  2  1  0  0  0  0
  1  5  2  0  0  0  0
  2  6  2  0  0  0  0
  3  8  2  0  0  0  0
  3 15  1  0  0  0  0
  4  9  1  0  0  0  0
  4 15  2  0  0  0  0
  5 17  1  0  0  0  0
  6 19  1  0  0  0  0
  7 10  2  0  0  0  0
  7 18  1  0  0  0  0
  8 21  1  0  0  0  0
  9 21  2  0  0  0  0
 10 22  1  0  0  0  0
 11 12  2  0  0  0  0
 11 23  1  0  0  0  0
 12 24  1  0  0  0  0
 13 20  1  0  0  0  0
 13 22  2  0  0  0  0
 14 24  2  0  0  0  0
 14 25  1  0  0  0  0
 15 26  1  0  0  0  0
 16 26  1  0  0  0  0
 16 27  2  0  0  0  0
 16 28  1  0  0  0  0
 17 19  2  0  0  0  0
 17 33  1  0  0  0  0
 18 20  2  0  0  0  0
 18 34  1  0  0  0  0
 19 46  1  0  0  0  0
 20 35  1  0  0  0  0
 21 78  1  0  0  0  0
 22 79  1  0  0  0  0
 23 25  2  0  0  0  0
 23 78  1  0  0  0  0
 24 80  1  0  0  0  0
 25 81  1  0  0  0  0
 26 63  2  0  0  0  0
 27 64  1  0  0  0  0
 27 67  1  0  0  0  0
 28 68  1  0  0  0  0
 28 73  2  0  0  0  0
 29 47  1  0  0  0  0
 29 69  1  0  0  0  0
 29 74  2  0  0  0  0
 30 59  1  0  0  0  0
 30 65  1  0  0  0  0
 30 75  2  0  0  0  0
 31 60  1  0  0  0  0
 31 70  1  0  0  0  0
 31 76  2  0  0  0  0
 32 66  1  0  0  0  0
 32 71  1  0  0  0  0
 32 77  2  0  0  0  0
 33 36  1  0  0  0  0
 34 47  1  0  0  0  0
 35 65  1  0  0  0  0
 36 38  1  0  0  0  0
 37 43  1  0  0  0  0
 37 44  1  0  0  0  0
 38 46  1  0  0  0  0
 39 41  1  0  0  0  0
 39 48  1  0  0  0  0
 40 42  1  0  0  0  0
 40 48  1  0  0  0  0
 41 49  1  0  0  0  0
 42 49  1  0  0  0  0
 43 50  1  0  0  0  0
 44 66  1  0  0  0  0
 45 50  1  0  0  0  0
 45 66  1  0  0  0  0
 46 69  1  0  0  0  0
 47 65  1  0  0  0  0
 48 58  1  0  0  0  0
 49 61  1  0  0  0  0
 50 64  1  0  0  0  0
 51 60  1  0  0  0  0
 52 61  1  0  0  0  0
 53 61  1  0  0  0  0
 54 62  1  0  0  0  0
 55 62  1  0  0  0  0
 56 62  1  0  0  0  0
 57 72  1  0  0  0  0
 58 79  1  0  0  0  0
 59 62  1  0  0  0  0
 59 70  1  0  0  0  0
 60 72  1  0  0  0  0
 61 71  1  0  0  0  0
 63 64  1  0  0  0  0
M  CHG  1  72   1
M  ISO  4  32 100  58 101  71 100  79 101
M  END
> <Batch ID>
0113

> <Smiles>
CNC(C)C(=O)NC(C(=O)N1Cc2cc([101O:1][101CH2:1]C3CCC(C(C)(C)[100NH:0][100C:0](=O)N4CCCC(n5nc(-c6ccc(Oc7ccc(F)cc7F)cc6)c(C(N)=O)c5N)C4)CC3)ccc2CC1C(=O)NC1CCCc2ccccc21)C(C)(C)C

> <Shape>
0.234

> <Color>
0.075

> <Negative vol penalty>
0.000

$$$$

  -OEChem-04052320053D

 87 95  0     1  0  0  0  0  0999 V2000
  -17.1150  -28.2698   23.7605 C   0  0  0  0  0  0  0  0  0  0  0  0
  -18.0742  -27.3604   23.3264 C   0  0  0  0  0  0  0  0  0  0  0  0
  -23.4111  -10.7593   23.1576 C   0  0  0  0  0  0  0  0  0  0  0  0
  -24.5522   -9.1077   21.8133 C   0  0  0  0  0  0  0  0  0  0  0  0
  -17.2721  -29.6287   23.4911 C   0  0  0  0  0  0  0  0  0  0  0  0
  -19.1905  -27.8094   22.6217 C   0  0  0  0  0  0  0  0  0  0  0  0
  -23.4933  -25.6857   24.2407 C   0  0  0  0  0  0  0  0  0  0  0  0
  -22.9749   -9.7549   24.0215 C   0  0  0  0  0  0  0  0  0  0  0  0
  -24.1160   -8.1032   22.6773 C   0  0  0  0  0  0  0  0  0  0  0  0
  -23.7591  -24.3839   23.8182 C   0  0  0  0  0  0  0  0  0  0  0  0
  -21.2786   -6.3490   23.2277 C   0  0  0  0  0  0  0  0  0  0  0  0
  -20.7671   -5.1824   22.6594 C   0  0  0  0  0  0  0  0  0  0  0  0
  -25.2523  -25.2433   22.1296 C   0  0  0  0  0  0  0  0  0  0  0  0
  -22.4903   -3.8925   23.7566 C   0  0  0  0  0  0  0  0  0  0  0  0
  -24.1997  -10.4357   22.0534 C   0  0  0  0  0  0  0  0  0  0  0  0
  -23.8499  -12.3528   20.4071 C   0  0  0  0  0  0  0  0  0  0  0  0
  -18.3957  -30.0957   22.7912 C   0  0  0  0  0  0  0  0  0  0  0  0
  -24.0976  -26.7784   23.6026 C   0  0  0  0  0  0  0  0  0  0  0  0
  -19.3621  -29.1757   22.3416 C   0  0  0  0  0  0  0  0  0  0  0  0
  -24.9944  -26.5578   22.5476 C   0  0  0  0  0  0  0  0  0  0  0  0
  -23.3274   -8.4268   23.7814 C   0  0  0  0  0  0  0  0  0  0  0  0
  -24.6365  -24.1627   22.7607 C   0  0  0  0  0  0  0  0  0  0  0  0
  -22.3960   -6.2874   24.0603 C   0  0  0  0  0  0  0  0  0  0  0  0
  -21.3729   -3.9541   22.9239 C   0  0  0  0  0  0  0  0  0  0  0  0
  -23.0019   -5.0591   24.3248 C   0  0  0  0  0  0  0  0  0  0  0  0
  -24.6500  -11.4728   21.1602 C   0  0  0  0  0  0  0  0  0  0  0  0
  -24.7489  -13.1386   19.7283 C   0  0  0  0  0  0  0  0  0  0  0  0
  -22.4217  -12.4511   20.3283 C   0  0  0  0  0  0  0  0  0  0  0  0
  -23.0362  -29.2883   21.9662 C   0  0  0  0  0  0  0  0  0  0  0  0
  -26.1582  -30.1658   22.0414 C   0  0  0  0  0  0  0  0  0  0  0  0
  -29.5607  -30.3705   22.2080 C   0  0  0  0  0  0  0  0  0  0  0  0
  -30.4295  -14.6958   20.8041 C   0  0  0  0  0  0  0  0  0  0  0  0
  -18.4984  -31.5684   22.4825 C   0  0  0  0  0  0  0  0  0  0  0  0
  -23.8209  -28.1751   24.0878 C   0  0  0  0  0  0  0  0  0  0  0  0
  -25.6847  -27.6956   21.8425 C   0  0  0  0  0  0  0  0  0  0  0  0
  -19.8975  -32.0053   22.0561 C   0  0  0  0  0  0  0  0  0  0  0  0
  -24.4799  -19.3109   19.9251 C   0  0  0  0  0  0  0  0  0  0  0  0
  -25.5342  -18.3102   20.3823 C   0  0  0  0  0  0  0  0  0  0  0  0
  -29.1726  -13.0499   17.9079 C   0  0  0  0  0  0  0  0  0  0  0  0
  -20.4649  -31.0413   21.0190 C   0  0  0  0  0  0  0  0  0  0  0  0
  -24.5407  -20.6785   20.5966 C   0  0  0  0  0  0  0  0  0  0  0  0
  -27.7988  -12.5385   18.3450 C   0  0  0  0  0  0  0  0  0  0  0  0
  -26.8351  -18.4303   19.5873 C   0  0  0  0  0  0  0  0  0  0  0  0
  -26.9937  -21.0027   19.8700 C   0  0  0  0  0  0  0  0  0  0  0  0
  -30.1916  -12.9705   19.0424 C   0  0  0  0  0  0  0  0  0  0  0  0
  -28.4032  -13.1192   20.7317 C   0  0  0  0  0  0  0  0  0  0  0  0
  -20.5992  -29.6268   21.5958 C   0  0  1  0  0  0  0  0  0  0  0  0
  -24.0957  -29.2402   23.0306 C   0  0  1  0  0  0  0  0  0  0  0  0
  -25.9284  -21.2268   20.9585 C   0  0  1  0  0  0  0  0  0  0  0  0
  -27.3277  -13.2316   19.6377 C   0  0  2  0  0  0  0  0  0  0  0  0
  -27.7416  -19.6418   19.9025 C   0  0  2  0  0  0  0  0  0  0  0  0
  -31.4839  -31.8199   21.5020 C   0  0  0  0  0  0  0  0  0  0  0  0
  -29.1617  -18.2844   18.3418 C   0  0  0  0  0  0  0  0  0  0  0  0
  -28.3827  -20.5725   17.6626 C   0  0  0  0  0  0  0  0  0  0  0  0
  -29.2976  -20.6610   21.5833 C   0  0  0  0  0  0  0  0  0  0  0  0
  -25.8967  -29.1185   19.1875 C   0  0  0  0  0  0  0  0  0  0  0  0
  -28.2777  -29.7876   18.7980 C   0  0  0  0  0  0  0  0  0  0  0  0
  -26.5731  -31.5201   19.3596 C   0  0  0  0  0  0  0  0  0  0  0  0
  -30.3785  -30.8511   25.0114 C   0  0  0  0  0  0  0  0  0  0  0  0
  -25.7994  -22.7266   21.2635 C   0  0  0  0  0  0  0  0  0  1  0  0
  -29.6553  -17.6402   22.6543 C   0  0  0  0  0  0  0  0  0  0  0  0
  -29.3410  -18.1709   21.2501 C   0  0  0  0  0  0  0  0  0  0  0  0
  -30.5192  -16.3823   22.6225 C   0  0  0  0  0  0  0  0  0  0  0  0
  -27.3580  -29.9250   21.1573 C   0  0  1  0  0  0  0  0  0  0  0  0
  -30.4831  -31.5092   22.6042 C   0  0  2  0  0  0  0  0  0  0  0  0
  -28.8406  -19.6924   18.8126 C   0  0  0  0  0  0  0  0  0  0  0  0
  -28.4567  -19.4285   21.2533 C   0  0  2  0  0  0  0  0  0  0  0  0
  -27.0196  -30.0700   19.6467 C   0  0  0  0  0  0  0  0  0  0  0  0
  -25.9569  -11.6796   20.9772 N   0  0  0  0  0  0  0  0  0  0  0  0
  -25.9847  -12.6984   20.1013 N   0  0  0  0  0  0  0  0  0  0  0  0
  -25.3768  -29.0431   22.3494 N   0  0  0  0  0  0  0  0  0  0  0  0
  -29.6845  -13.6480   20.2382 N   0  0  0  0  0  0  0  0  0  0  0  0
  -24.5949  -14.1562   18.8547 N   0  0  0  0  0  0  0  0  0  0  0  0
  -21.7524  -11.6940   19.3572 N   0  0  0  0  0  0  0  0  0  0  0  0
  -21.7654  -29.5373   22.4482 N   0  0  0  0  0  0  0  0  0  0  0  0
  -28.3993  -30.8329   21.6262 N   0  0  0  0  0  0  0  0  0  0  0  0
  -29.8743  -15.2878   21.9319 N   0  0  0  0  0  0  0  0  0  0  0  0
  -31.2387  -31.1578   23.8397 N   0  3  0  0  0  0  0  0  0  0  0  0
  -21.7601  -13.2012   21.0855 O   0  0  0  0  0  0  0  0  0  0  0  0
  -23.3489  -29.1141   20.7942 O   0  0  0  0  0  0  0  0  0  0  0  0
  -25.9271  -31.3066   22.4497 O   0  0  0  0  0  0  0  0  0  0  0  0
  -29.8440  -29.1889   22.3924 O   0  0  0  0  0  0  0  0  0  0  0  0
  -31.5068  -15.0790   20.3356 O   0  0  0  0  0  0  0  0  0  0  0  0
  -22.9022   -7.4464   24.6244 O   0  0  0  0  0  0  0  0  0  0  0  0
  -24.8999  -22.8802   22.3416 O   0  0  0  0  0  0  0  0  0  1  0  0
  -20.8807   -2.8337   22.3793 F   0  0  0  0  0  0  0  0  0  0  0  0
  -24.0749   -4.9935   25.1249 F   0  0  0  0  0  0  0  0  0  0  0  0
  1  2  1  0  0  0  0
  1  5  2  0  0  0  0
  2  6  2  0  0  0  0
  3  8  2  0  0  0  0
  3 15  1  0  0  0  0
  4  9  1  0  0  0  0
  4 15  2  0  0  0  0
  5 17  1  0  0  0  0
  6 19  1  0  0  0  0
  7 10  2  0  0  0  0
  7 18  1  0  0  0  0
  8 21  1  0  0  0  0
  9 21  2  0  0  0  0
 10 22  1  0  0  0  0
 11 12  2  0  0  0  0
 11 23  1  0  0  0  0
 12 24  1  0  0  0  0
 13 20  1  0  0  0  0
 13 22  2  0  0  0  0
 14 24  2  0  0  0  0
 14 25  1  0  0  0  0
 15 26  1  0  0  0  0
 16 26  1  0  0  0  0
 16 27  2  0  0  0  0
 16 28  1  0  0  0  0
 17 19  2  0  0  0  0
 17 33  1  0  0  0  0
 18 20  2  0  0  0  0
 18 34  1  0  0  0  0
 19 47  1  0  0  0  0
 20 35  1  0  0  0  0
 21 84  1  0  0  0  0
 22 85  1  0  0  0  0
 23 25  2  0  0  0  0
 23 84  1  0  0  0  0
 24 86  1  0  0  0  0
 25 87  1  0  0  0  0
 26 69  2  0  0  0  0
 27 70  1  0  0  0  0
 27 73  1  0  0  0  0
 28 74  1  0  0  0  0
 28 79  2  0  0  0  0
 29 48  1  0  0  0  0
 29 75  1  0  0  0  0
 29 80  2  0  0  0  0
 30 64  1  0  0  0  0
 30 71  1  0  0  0  0
 30 81  2  0  0  0  0
 31 65  1  0  0  0  0
 31 76  1  0  0  0  0
 31 82  2  0  0  0  0
 32 72  1  0  0  0  0
 32 77  1  0  0  0  0
 32 83  2  0  0  0  0
 33 36  1  0  0  0  0
 34 48  1  0  0  0  0
 35 71  1  0  0  0  0
 36 40  1  0  0  0  0
 37 38  1  0  0  0  0
 37 41  1  0  0  0  0
 38 43  1  0  0  0  0
 39 42  1  0  0  0  0
 39 45  1  0  0  0  0
 40 47  1  0  0  0  0
 41 49  1  0  0  0  0
 42 50  1  0  0  0  0
 43 51  1  0  0  0  0
 44 49  1  0  0  0  0
 44 51  1  0  0  0  0
 45 72  1  0  0  0  0
 46 50  1  0  0  0  0
 46 72  1  0  0  0  0
 47 75  1  0  0  0  0
 48 71  1  0  0  0  0
 49 60  1  0  0  0  0
 50 70  1  0  0  0  0
 51 66  1  0  0  0  0
 51 67  1  0  0  0  0
 52 65  1  0  0  0  0
 53 66  1  0  0  0  0
 54 66  1  0  0  0  0
 55 67  1  0  0  0  0
 56 68  1  0  0  0  0
 57 68  1  0  0  0  0
 58 68  1  0  0  0  0
 59 78  1  0  0  0  0
 60 85  1  0  0  0  0
 61 62  1  0  0  0  0
 61 63  1  0  0  0  0
 62 67  1  0  0  0  0
 63 77  1  0  0  0  0
 64 68  1  0  0  0  0
 64 76  1  0  0  0  0
 65 78  1  0  0  0  0
 69 70  1  0  0  0  0
M  CHG  1  78   1
M  ISO  4  32 100  60 101  77 100  85 101
M  END
> <Batch ID>
0113

> <Smiles>
CNC(C)C(=O)NC(C(=O)N1Cc2cc([101O:1][101CH2:1]C3CCCCC(C(C)C)(C(C)CCC[100NH:0][100C:0](=O)N4CCCC(n5nc(-c6ccc(Oc7ccc(F)cc7F)cc6)c(C(N)=O)c5N)C4)C3)ccc2CC1C(=O)NC1CCCc2ccccc21)C(C)(C)C

> <Shape>
0.297

> <Color>
0.111

> <Negative vol penalty>
0.000

$$$$

  -OEChem-04052320053D

 88 97  0     1  0  0  0  0  0999 V2000
  -23.6409  -33.6181   22.4962 C   0  0  0  0  0  0  0  0  0  0  0  0
  -24.3604  -32.4302   22.5776 C   0  0  0  0  0  0  0  0  0  0  0  0
  -23.6082  -10.1370   22.4004 C   0  0  0  0  0  0  0  0  0  0  0  0
  -22.2653  -10.3485   20.4031 C   0  0  0  0  0  0  0  0  0  0  0  0
  -22.2642  -33.6144   22.7163 C   0  0  0  0  0  0  0  0  0  0  0  0
  -23.7036  -31.2379   22.8803 C   0  0  0  0  0  0  0  0  0  0  0  0
  -25.0383  -25.6550   20.7460 C   0  0  0  0  0  0  0  0  0  0  0  0
  -23.2110   -8.8059   22.5265 C   0  0  0  0  0  0  0  0  0  0  0  0
  -21.8682   -9.0173   20.5292 C   0  0  0  0  0  0  0  0  0  0  0  0
  -25.7595  -24.5916   21.2872 C   0  0  0  0  0  0  0  0  0  0  0  0
  -24.0039   -5.8275   21.1361 C   0  0  0  0  0  0  0  0  0  0  0  0
  -24.9871   -4.8826   21.4296 C   0  0  0  0  0  0  0  0  0  0  0  0
  -23.7029  -23.6024   22.0688 C   0  0  0  0  0  0  0  0  0  0  0  0
  -23.8210   -4.3011   23.4641 C   0  0  0  0  0  0  0  0  0  0  0  0
  -25.5741  -19.3865   17.8431 C   0  0  0  0  0  0  0  0  0  0  0  0
  -23.1353  -10.9084   21.3387 C   0  0  0  0  0  0  0  0  0  0  0  0
  -24.6630  -12.7750   20.5082 C   0  0  0  0  0  0  0  0  0  0  0  0
  -21.5887  -32.4199   23.0124 C   0  0  0  0  0  0  0  0  0  0  0  0
  -23.6426  -25.7057   20.8719 C   0  0  0  0  0  0  0  0  0  0  0  0
  -22.3167  -31.2184   23.1059 C   0  0  0  0  0  0  0  0  0  0  0  0
  -22.9661  -24.6663   21.5261 C   0  0  0  0  0  0  0  0  0  0  0  0
  -25.1924  -19.9587   19.0374 C   0  0  0  0  0  0  0  0  0  0  0  0
  -26.1407  -19.5783   20.0177 C   0  0  0  0  0  0  0  0  0  0  0  0
  -22.3410   -8.2460   21.5909 C   0  0  0  0  0  0  0  0  0  0  0  0
  -25.0921  -23.5666   21.9512 C   0  0  0  0  0  0  0  0  0  0  0  0
  -22.9292   -6.0092   22.0066 C   0  0  0  0  0  0  0  0  0  0  0  0
  -24.8957   -4.1194   22.5935 C   0  0  0  0  0  0  0  0  0  0  0  0
  -22.8378   -5.2460   23.1706 C   0  0  0  0  0  0  0  0  0  0  0  0
  -23.5448  -12.2837   21.2082 C   0  0  0  0  0  0  0  0  0  0  0  0
  -27.0785  -18.7825   19.3956 C   0  0  0  0  0  0  0  0  0  0  0  0
  -24.6095  -14.1357   20.6872 C   0  0  0  0  0  0  0  0  0  0  0  0
  -28.2537  -18.1047   19.8270 C   0  0  0  0  0  0  0  0  0  0  0  0
  -28.9721  -17.3873   18.9420 C   0  0  0  0  0  0  0  0  0  0  0  0
  -27.4676  -17.9239   17.1342 C   0  0  0  0  0  0  0  0  0  0  0  0
  -28.5800  -17.2813   17.5381 C   0  0  0  0  0  0  0  0  0  0  0  0
  -25.6608  -12.0648   19.7627 C   0  0  0  0  0  0  0  0  0  0  0  0
  -21.5855  -27.6993   22.2494 C   0  0  0  0  0  0  0  0  0  0  0  0
  -19.3828  -25.7988   20.8146 C   0  0  0  0  0  0  0  0  0  0  0  0
  -18.6091  -22.7499   19.4909 C   0  0  0  0  0  0  0  0  0  0  0  0
  -21.7354  -18.9176   20.8197 C   0  0  0  0  0  0  0  0  0  0  0  0
  -20.1070  -32.4733   23.2890 C   0  0  0  0  0  0  0  0  0  0  0  0
  -22.8768  -26.8462   20.2593 C   0  0  0  0  0  0  0  0  0  0  0  0
  -21.4669  -24.6633   21.6706 C   0  0  0  0  0  0  0  0  0  0  0  0
  -19.4279  -31.1072   23.2356 C   0  0  0  0  0  0  0  0  0  0  0  0
  -21.7531  -16.9396   23.7801 C   0  0  0  0  0  0  0  0  0  0  0  0
  -20.2391  -30.0768   24.0147 C   0  0  0  0  0  0  0  0  0  0  0  0
  -22.3069  -15.5914   23.3158 C   0  0  0  0  0  0  0  0  0  0  0  0
  -20.8658  -17.5818   22.7160 C   0  0  0  0  0  0  0  0  0  0  0  0
  -22.0456  -16.3702   20.9233 C   0  0  0  0  0  0  0  0  0  0  0  0
  -21.6362  -29.9009   23.4075 C   0  0  1  0  0  0  0  0  0  0  0  0
  -21.5056  -27.0546   20.8945 C   0  0  1  0  0  0  0  0  0  0  0  0
  -22.9916  -15.7099   21.9409 C   0  0  2  0  0  0  0  0  0  0  0  0
  -29.4397  -16.4605   16.6320 C   0  0  0  0  0  0  0  0  0  0  0  0
  -16.7191  -21.4853   18.4296 C   0  0  0  0  0  0  0  0  0  0  0  0
  -18.0758  -25.4606   23.5509 C   0  0  0  0  0  0  0  0  0  0  0  0
  -16.8245  -23.4959   22.6329 C   0  0  0  0  0  0  0  0  0  0  0  0
  -16.4698  -25.7645   21.6580 C   0  0  0  0  0  0  0  0  0  0  0  0
  -24.9951  -19.5772   22.2195 C   0  0  0  0  0  0  0  0  0  0  0  0
  -20.1283  -22.3557   16.9818 C   0  0  0  0  0  0  0  0  0  0  0  0
  -27.2299  -20.6676   21.9639 C   0  0  0  0  0  0  0  0  0  0  0  0
  -22.6752  -20.1193   18.8622 C   0  0  0  0  0  0  0  0  0  0  0  0
  -27.0093  -22.1649   21.8276 C   0  0  0  0  0  0  0  0  0  1  0  0
  -24.0040  -20.8125   19.2406 C   0  0  2  0  0  0  0  0  0  0  0  0
  -18.6372  -24.5449   21.2030 C   0  0  1  0  0  0  0  0  0  0  0  0
  -17.9398  -22.3589   18.1856 C   0  0  2  0  0  0  0  0  0  0  0  0
  -17.5303  -24.8172   22.2604 C   0  0  0  0  0  0  0  0  0  0  0  0
  -22.8330  -13.2534   21.7888 N   0  0  0  0  0  0  0  0  0  0  0  0
  -26.7274  -18.6654   18.0555 N   0  0  0  0  0  0  0  0  0  0  0  0
  -23.5057  -14.3676   21.4540 N   0  0  0  0  0  0  0  0  0  0  0  0
  -20.7632  -25.8034   21.0602 N   0  0  0  0  0  0  0  0  0  0  0  0
  -21.5747  -17.6661   21.4369 N   0  0  0  0  0  0  0  0  0  0  0  0
  -25.3995  -15.1444   20.2620 N   0  0  0  0  0  0  0  0  0  0  0  0
  -25.5655  -10.6690   19.6798 N   0  0  0  0  0  0  0  0  0  0  0  0
  -21.5702  -29.0806   22.2170 N   0  0  0  0  0  0  0  0  0  0  0  0
  -18.1454  -23.9608   19.9599 N   0  0  0  0  0  0  0  0  0  0  0  0
  -22.4246  -18.9094   19.6133 N   0  0  0  0  0  0  0  0  0  0  0  0
  -26.1297  -19.9424   21.3708 N   0  0  3  0  0  0  0  0  0  0  0  0
  -24.0620  -22.1161   18.4781 N   0  3  0  0  0  0  0  0  0  0  0  0
  -18.8915  -21.6058   17.3208 N   0  3  0  0  0  0  0  0  0  0  0  0
  -26.6180  -12.6493   19.2008 O   0  0  0  0  0  0  0  0  0  0  0  0
  -21.6545  -26.9955   23.2502 O   0  0  0  0  0  0  0  0  0  0  0  0
  -18.7645  -26.7368   20.3053 O   0  0  0  0  0  0  0  0  0  0  0  0
  -19.4556  -22.0492   20.0414 O   0  0  0  0  0  0  0  0  0  0  0  0
  -21.3016  -19.9655   21.3104 O   0  0  0  0  0  0  0  0  0  0  0  0
  -21.9535   -6.9471   21.7135 O   0  0  0  0  0  0  0  0  0  0  0  0
  -25.7936  -22.5278   22.4809 O   0  0  0  0  0  0  0  0  0  1  0  0
  -25.8391   -3.2111   22.8744 F   0  0  0  0  0  0  0  0  0  0  0  0
  -21.8071   -5.4152   24.0102 F   0  0  0  0  0  0  0  0  0  0  0  0
  1  2  1  0  0  0  0
  1  5  2  0  0  0  0
  2  6  2  0  0  0  0
  3  8  2  0  0  0  0
  3 16  1  0  0  0  0
  4  9  1  0  0  0  0
  4 16  2  0  0  0  0
  5 18  1  0  0  0  0
  6 20  1  0  0  0  0
  7 10  2  0  0  0  0
  7 19  1  0  0  0  0
  8 24  1  0  0  0  0
  9 24  2  0  0  0  0
 10 25  1  0  0  0  0
 11 12  2  0  0  0  0
 11 26  1  0  0  0  0
 12 27  1  0  0  0  0
 13 21  1  0  0  0  0
 13 25  2  0  0  0  0
 14 27  2  0  0  0  0
 14 28  1  0  0  0  0
 15 22  2  0  0  0  0
 15 68  1  0  0  0  0
 16 29  1  0  0  0  0
 17 29  1  0  0  0  0
 17 31  2  0  0  0  0
 17 36  1  0  0  0  0
 18 20  2  0  0  0  0
 18 41  1  0  0  0  0
 19 21  2  0  0  0  0
 19 42  1  0  0  0  0
 20 50  1  0  0  0  0
 21 43  1  0  0  0  0
 22 23  1  0  0  0  0
 22 63  1  0  0  0  0
 23 30  2  0  0  0  0
 23 77  1  0  0  0  0
 24 85  1  0  0  0  0
 25 86  1  0  0  0  0
 26 28  2  0  0  0  0
 26 85  1  0  0  0  0
 27 87  1  0  0  0  0
 28 88  1  0  0  0  0
 29 67  2  0  0  0  0
 30 32  1  0  0  0  0
 30 68  1  0  0  0  0
 31 69  1  0  0  0  0
 31 72  1  0  0  0  0
 32 33  2  0  0  0  0
 33 35  1  0  0  0  0
 34 35  2  0  0  0  0
 34 68  1  0  0  0  0
 35 53  1  0  0  0  0
 36 73  1  0  0  0  0
 36 80  2  0  0  0  0
 37 51  1  0  0  0  0
 37 74  1  0  0  0  0
 37 81  2  0  0  0  0
 38 64  1  0  0  0  0
 38 70  1  0  0  0  0
 38 82  2  0  0  0  0
 39 65  1  0  0  0  0
 39 75  1  0  0  0  0
 39 83  2  0  0  0  0
 40 71  1  0  0  0  0
 40 76  1  0  0  0  0
 40 84  2  0  0  0  0
 41 44  1  0  0  0  0
 42 51  1  0  0  0  0
 43 70  1  0  0  0  0
 44 46  1  0  0  0  0
 45 47  1  0  0  0  0
 45 48  1  0  0  0  0
 46 50  1  0  0  0  0
 47 52  1  0  0  0  0
 48 71  1  0  0  0  0
 49 52  1  0  0  0  0
 49 71  1  0  0  0  0
 50 74  1  0  0  0  0
 51 70  1  0  0  0  0
 52 69  1  0  0  0  0
 54 65  1  0  0  0  0
 55 66  1  0  0  0  0
 56 66  1  0  0  0  0
 57 66  1  0  0  0  0
 58 77  1  0  0  0  0
 59 79  1  0  0  0  0
 60 62  1  0  0  0  0
 60 77  1  0  0  0  0
 61 63  1  0  0  0  0
 61 76  1  0  0  0  0
 62 86  1  0  0  0  0
 63 78  1  0  0  0  0
 64 66  1  0  0  0  0
 64 75  1  0  0  0  0
 65 79  1  0  0  0  0
 67 69  1  0  0  0  0
M  CHG  2  78   1  79   1
M  ISO  4  40 100  62 101  76 100  86 101
M  END
> <Batch ID>
0113

> <Smiles>
CNC(C)C(=O)NC(C(=O)N1Cc2cc([101O:1][101CH2:1]CN(C)c3c(C(N)C[100NH:0][100C:0](=O)N4CCCC(n5nc(-c6ccc(Oc7ccc(F)cc7F)cc6)c(C(N)=O)c5N)C4)cn4cc(C)ccc34)ccc2CC1C(=O)NC1CCCc2ccccc21)C(C)(C)C

> <Shape>
0.181

> <Color>
0.086

> <Negative vol penalty>
0.000

$$$$

  -OEChem-04052320053D

 83 90  0     1  0  0  0  0  0999 V2000
  -18.3387  -31.2893   21.0526 C   0  0  0  0  0  0  0  0  0  0  0  0
  -19.7104  -31.1764   20.8498 C   0  0  0  0  0  0  0  0  0  0  0  0
  -27.9088  -14.4211   19.0805 C   0  0  0  0  0  0  0  0  0  0  0  0
  -26.2562  -15.2743   20.6225 C   0  0  0  0  0  0  0  0  0  0  0  0
  -17.6497  -30.2821   21.7270 C   0  0  0  0  0  0  0  0  0  0  0  0
  -20.3941  -30.0566   21.3222 C   0  0  0  0  0  0  0  0  0  0  0  0
  -25.1866  -27.2909   18.6977 C   0  0  0  0  0  0  0  0  0  0  0  0
  -27.5015  -13.1177   19.3650 C   0  0  0  0  0  0  0  0  0  0  0  0
  -25.8488  -13.9709   20.9071 C   0  0  0  0  0  0  0  0  0  0  0  0
  -26.5590  -27.3713   18.9302 C   0  0  0  0  0  0  0  0  0  0  0  0
  -23.9283  -11.5927   19.4662 C   0  0  0  0  0  0  0  0  0  0  0  0
  -22.5575  -11.3379   19.5063 C   0  0  0  0  0  0  0  0  0  0  0  0
  -26.4297  -25.4140   20.3342 C   0  0  0  0  0  0  0  0  0  0  0  0
  -22.7561  -10.6315   21.8082 C   0  0  0  0  0  0  0  0  0  0  0  0
  -27.2862  -15.4994   19.7093 C   0  0  0  0  0  0  0  0  0  0  0  0
  -27.6897  -17.4883   18.1637 C   0  0  0  0  0  0  0  0  0  0  0  0
  -18.3236  -29.1449   22.1994 C   0  0  0  0  0  0  0  0  0  0  0  0
  -24.4224  -26.2761   19.2915 C   0  0  0  0  0  0  0  0  0  0  0  0
  -19.7136  -29.0339   22.0047 C   0  0  0  0  0  0  0  0  0  0  0  0
  -25.0483  -25.3214   20.1057 C   0  0  0  0  0  0  0  0  0  0  0  0
  -26.4715  -12.8926   20.2783 C   0  0  0  0  0  0  0  0  0  0  0  0
  -27.1802  -26.4345   19.7509 C   0  0  0  0  0  0  0  0  0  0  0  0
  -24.7130  -11.3668   20.5971 C   0  0  0  0  0  0  0  0  0  0  0  0
  -21.9714  -10.8573   20.6772 C   0  0  0  0  0  0  0  0  0  0  0  0
  -24.1269  -10.8862   21.7681 C   0  0  0  0  0  0  0  0  0  0  0  0
  -27.7069  -16.8459   19.4162 C   0  0  0  0  0  0  0  0  0  0  0  0
  -28.1848  -18.7445   18.4152 C   0  0  0  0  0  0  0  0  0  0  0  0
  -27.2641  -16.9937   16.8869 C   0  0  0  0  0  0  0  0  0  0  0  0
  -21.9963  -26.2045   21.3440 C   0  0  0  0  0  0  0  0  0  0  0  0
  -22.0430  -23.0282   20.6871 C   0  0  0  0  0  0  0  0  0  0  0  0
  -28.9613  -25.4059   24.5748 C   0  0  0  0  0  0  0  0  0  0  0  0
  -23.8174  -20.3171   19.6155 C   0  0  0  0  0  0  0  0  0  0  0  0
  -28.2249  -22.0496   23.3071 C   0  0  0  0  0  0  0  0  0  0  0  0
  -17.5441  -28.1046   22.9642 C   0  0  0  0  0  0  0  0  0  0  0  0
  -22.9477  -26.1874   19.0093 C   0  0  0  0  0  0  0  0  0  0  0  0
  -24.2762  -24.2005   20.7506 C   0  0  0  0  0  0  0  0  0  0  0  0
  -18.2790  -26.7740   23.1043 C   0  0  0  0  0  0  0  0  0  0  0  0
  -31.1290  -21.0859   21.3744 C   0  0  0  0  0  0  0  0  0  0  0  0
  -19.7251  -27.0051   23.5310 C   0  0  0  0  0  0  0  0  0  0  0  0
  -30.5662  -19.9412   20.5300 C   0  0  0  0  0  0  0  0  0  0  0  0
  -30.5416  -21.0746   22.7826 C   0  0  0  0  0  0  0  0  0  0  0  0
  -28.4881  -19.9691   21.9861 C   0  0  0  0  0  0  0  0  0  0  0  0
  -20.4863  -27.8228   22.4805 C   0  0  1  0  0  0  0  0  0  0  0  0
  -22.1801  -25.4158   20.0784 C   0  0  1  0  0  0  0  0  0  0  0  0
  -29.0261  -19.9393   20.5440 C   0  0  2  0  0  0  0  0  0  0  0  0
  -27.7863  -23.7836   26.0828 C   0  0  0  0  0  0  0  0  0  0  0  0
  -23.5969  -17.8485   19.2223 C   0  0  0  0  0  0  0  0  0  0  0  0
  -22.2168  -22.5363   23.6934 C   0  0  0  0  0  0  0  0  0  0  0  0
  -22.9411  -20.1916   23.1974 C   0  0  0  0  0  0  0  0  0  0  0  0
  -20.6897  -20.9803   22.4683 C   0  0  0  0  0  0  0  0  0  0  0  0
  -30.9685  -29.2797   20.7672 C   0  0  0  0  0  0  0  0  0  0  0  0
  -31.4125  -26.8643   20.3149 C   0  0  0  0  0  0  0  0  0  0  0  0
  -24.4038  -20.6070   16.7291 C   0  0  0  0  0  0  0  0  0  0  0  0
  -29.0185  -28.3629   23.0340 C   0  0  0  0  0  0  0  0  0  0  0  0
  -30.0535  -27.4791   22.3223 C   0  0  0  0  0  0  0  0  0  0  0  0
  -28.7265  -27.8846   24.4548 C   0  0  0  0  0  0  0  0  0  0  0  0
  -29.1100  -27.8099   19.9515 C   0  0  0  0  0  0  0  0  0  1  0  0
  -22.7479  -21.8265   21.2685 C   0  0  1  0  0  0  0  0  0  0  0  0
  -28.1188  -24.1387   24.6418 C   0  0  2  0  0  0  0  0  0  0  0  0
  -23.4887  -19.2338   18.6042 C   0  0  2  0  0  0  0  0  0  0  0  0
  -22.1634  -21.4058   22.6464 C   0  0  0  0  0  0  0  0  0  0  0  0
  -30.3653  -27.8660   20.8483 C   0  0  0  0  0  0  0  0  0  0  0  0
  -28.1759  -17.6293   20.3910 N   0  0  0  0  0  0  0  0  0  0  0  0
  -28.4581  -18.7768   19.7510 N   0  0  0  0  0  0  0  0  0  0  0  0
  -22.8357  -24.1600   20.4493 N   0  0  0  0  0  0  0  0  0  0  0  0
  -29.0731  -21.0925   22.7258 N   0  0  0  0  0  0  0  0  0  0  0  0
  -28.4087  -19.8136   17.6219 N   0  0  0  0  0  0  0  0  0  0  0  0
  -28.2076  -16.3579   16.0684 N   0  0  0  0  0  0  0  0  0  0  0  0
  -20.8566  -26.9858   21.3595 N   0  0  0  0  0  0  0  0  0  0  0  0
  -28.1810  -26.5556   24.4856 N   0  0  0  0  0  0  0  0  0  0  0  0
  -22.6856  -20.7842   20.2496 N   0  0  0  0  0  0  0  0  0  0  0  0
  -28.8581  -23.0771   23.9957 N   0  0  0  0  0  0  0  0  0  0  0  0
  -24.4235  -19.3058   17.4457 N   0  3  0  0  0  0  0  0  0  0  0  0
  -26.0861  -17.1267   16.4770 O   0  0  0  0  0  0  0  0  0  0  0  0
  -22.8262  -26.1101   22.2407 O   0  0  0  0  0  0  0  0  0  0  0  0
  -20.8351  -22.9627   20.4459 O   0  0  0  0  0  0  0  0  0  0  0  0
  -30.1890  -25.3968   24.6367 O   0  0  0  0  0  0  0  0  0  0  0  0
  -24.9639  -20.7072   19.8249 O   0  0  0  0  0  0  0  0  0  0  0  0
  -26.9938  -21.9957   23.2147 O   0  0  0  0  0  0  0  0  0  0  0  0
  -26.0736  -11.6210   20.5560 O   0  0  0  0  0  0  0  0  0  0  0  0
  -28.5195  -26.5111   19.9800 O   0  0  0  0  0  0  0  0  0  1  0  0
  -20.6547  -10.6142   20.7160 F   0  0  0  0  0  0  0  0  0  0  0  0
  -24.8754  -10.6684   22.8581 F   0  0  0  0  0  0  0  0  0  0  0  0
  1  2  1  0  0  0  0
  1  5  2  0  0  0  0
  2  6  2  0  0  0  0
  3  8  2  0  0  0  0
  3 15  1  0  0  0  0
  4  9  1  0  0  0  0
  4 15  2  0  0  0  0
  5 17  1  0  0  0  0
  6 19  1  0  0  0  0
  7 10  2  0  0  0  0
  7 18  1  0  0  0  0
  8 21  1  0  0  0  0
  9 21  2  0  0  0  0
 10 22  1  0  0  0  0
 11 12  2  0  0  0  0
 11 23  1  0  0  0  0
 12 24  1  0  0  0  0
 13 20  1  0  0  0  0
 13 22  2  0  0  0  0
 14 24  2  0  0  0  0
 14 25  1  0  0  0  0
 15 26  1  0  0  0  0
 16 26  1  0  0  0  0
 16 27  2  0  0  0  0
 16 28  1  0  0  0  0
 17 19  2  0  0  0  0
 17 34  1  0  0  0  0
 18 20  2  0  0  0  0
 18 35  1  0  0  0  0
 19 43  1  0  0  0  0
 20 36  1  0  0  0  0
 21 80  1  0  0  0  0
 22 81  1  0  0  0  0
 23 25  2  0  0  0  0
 23 80  1  0  0  0  0
 24 82  1  0  0  0  0
 25 83  1  0  0  0  0
 26 63  2  0  0  0  0
 27 64  1  0  0  0  0
 27 67  1  0  0  0  0
 28 68  1  0  0  0  0
 28 74  2  0  0  0  0
 29 44  1  0  0  0  0
 29 69  1  0  0  0  0
 29 75  2  0  0  0  0
 30 58  1  0  0  0  0
 30 65  1  0  0  0  0
 30 76  2  0  0  0  0
 31 59  1  0  0  0  0
 31 70  1  0  0  0  0
 31 77  2  0  0  0  0
 32 60  1  0  0  0  0
 32 71  1  0  0  0  0
 32 78  2  0  0  0  0
 33 66  1  0  0  0  0
 33 72  1  0  0  0  0
 33 79  2  0  0  0  0
 34 37  1  0  0  0  0
 35 44  1  0  0  0  0
 36 65  1  0  0  0  0
 37 39  1  0  0  0  0
 38 40  1  0  0  0  0
 38 41  1  0  0  0  0
 39 43  1  0  0  0  0
 40 45  1  0  0  0  0
 41 66  1  0  0  0  0
 42 45  1  0  0  0  0
 42 66  1  0  0  0  0
 43 69  1  0  0  0  0
 44 65  1  0  0  0  0
 45 64  1  0  0  0  0
 46 59  1  0  0  0  0
 47 60  1  0  0  0  0
 48 61  1  0  0  0  0
 49 61  1  0  0  0  0
 50 61  1  0  0  0  0
 51 62  1  0  0  0  0
 52 62  1  0  0  0  0
 53 73  1  0  0  0  0
 54 55  1  0  0  0  0
 54 56  1  0  0  0  0
 55 62  1  0  0  0  0
 56 70  1  0  0  0  0
 57 62  1  0  0  0  0
 57 81  1  0  0  0  0
 58 61  1  0  0  0  0
 58 71  1  0  0  0  0
 59 72  1  0  0  0  0
 60 73  1  0  0  0  0
 63 64  1  0  0  0  0
M  CHG  1  73   1
M  ISO  4  33 100  57 101  72 100  81 101
M  END
> <Batch ID>
0113

> <Smiles>
CNC(C)C(=O)NC(C(=O)N1Cc2cc([101O:1][101CH2:1]C(C)(C)CCCNC(=O)C(C)[100NH:0][100C:0](=O)N3CCCC(n4nc(-c5ccc(Oc6ccc(F)cc6F)cc5)c(C(N)=O)c4N)C3)ccc2CC1C(=O)NC1CCCc2ccccc21)C(C)(C)C

> <Shape>
0.189

> <Color>
0.052

> <Negative vol penalty>
0.000

$$$$

  -OEChem-04052320053D

 85 92  0     1  0  0  0  0  0999 V2000
  -28.4388  -23.7439   20.2458 C   0  0  0  0  0  0  0  0  0  0  0  0
  -27.9773  -24.4908   21.3250 C   0  0  0  0  0  0  0  0  0  0  0  0
  -28.1609  -15.5252   20.7229 C   0  0  0  0  0  0  0  0  0  0  0  0
  -26.0937  -16.5450   19.9993 C   0  0  0  0  0  0  0  0  0  0  0  0
  -29.5229  -24.1996   19.4969 C   0  0  0  0  0  0  0  0  0  0  0  0
  -28.6004  -25.6935   21.6564 C   0  0  0  0  0  0  0  0  0  0  0  0
  -25.3708  -28.2184   18.8815 C   0  0  0  0  0  0  0  0  0  0  0  0
  -27.9044  -14.4248   19.9050 C   0  0  0  0  0  0  0  0  0  0  0  0
  -25.8371  -15.4446   19.1814 C   0  0  0  0  0  0  0  0  0  0  0  0
  -24.2346  -27.4181   18.9919 C   0  0  0  0  0  0  0  0  0  0  0  0
  -28.1475  -13.6501   16.6227 C   0  0  0  0  0  0  0  0  0  0  0  0
  -29.1975  -13.1615   15.8453 C   0  0  0  0  0  0  0  0  0  0  0  0
  -23.9481  -28.1499   21.2726 C   0  0  0  0  0  0  0  0  0  0  0  0
  -29.0218  -11.0216   16.9531 C   0  0  0  0  0  0  0  0  0  0  0  0
  -27.2555  -16.5853   20.7700 C   0  0  0  0  0  0  0  0  0  0  0  0
  -28.2187  -18.8942   21.2694 C   0  0  0  0  0  0  0  0  0  0  0  0
  -30.1535  -25.4132   19.8134 C   0  0  0  0  0  0  0  0  0  0  0  0
  -25.8112  -28.9834   19.9711 C   0  0  0  0  0  0  0  0  0  0  0  0
  -29.6948  -26.1652   20.9118 C   0  0  0  0  0  0  0  0  0  0  0  0
  -25.0887  -28.9611   21.1726 C   0  0  0  0  0  0  0  0  0  0  0  0
  -26.7425  -14.3845   19.1343 C   0  0  0  0  0  0  0  0  0  0  0  0
  -23.5247  -27.3815   20.1885 C   0  0  0  0  0  0  0  0  0  0  0  0
  -27.5348  -12.8246   17.5654 C   0  0  0  0  0  0  0  0  0  0  0  0
  -29.6346  -11.8472   16.0105 C   0  0  0  0  0  0  0  0  0  0  0  0
  -27.9719  -11.5103   17.7306 C   0  0  0  0  0  0  0  0  0  0  0  0
  -27.5197  -17.7221   21.6151 C   0  0  0  0  0  0  0  0  0  0  0  0
  -28.1947  -19.6576   22.4109 C   0  0  0  0  0  0  0  0  0  0  0  0
  -28.8345  -19.2602   20.0274 C   0  0  0  0  0  0  0  0  0  0  0  0
  -28.4495  -29.0531   21.7426 C   0  0  0  0  0  0  0  0  0  0  0  0
  -27.0379  -31.6669   23.0455 C   0  0  0  0  0  0  0  0  0  0  0  0
  -23.4230  -23.8815   22.7493 C   0  0  0  0  0  0  0  0  0  0  0  0
  -24.1613  -33.3825   23.7002 C   0  0  0  0  0  0  0  0  0  0  0  0
  -24.4856  -19.8543   27.1073 C   0  0  0  0  0  0  0  0  0  0  0  0
  -31.3517  -25.8415   19.0037 C   0  0  0  0  0  0  0  0  0  0  0  0
  -27.0235  -29.8621   19.8274 C   0  0  0  0  0  0  0  0  0  0  0  0
  -25.5083  -29.7792   22.3656 C   0  0  0  0  0  0  0  0  0  0  0  0
  -31.7193  -27.3113   19.1906 C   0  0  0  0  0  0  0  0  0  0  0  0
  -27.9962  -19.2641   27.1750 C   0  0  0  0  0  0  0  0  0  0  0  0
  -31.7200  -27.6773   20.6714 C   0  0  0  0  0  0  0  0  0  0  0  0
  -28.3352  -18.9078   25.7266 C   0  0  0  0  0  0  0  0  0  0  0  0
  -26.6322  -18.7147   27.5870 C   0  0  0  0  0  0  0  0  0  0  0  0
  -25.8575  -18.7338   25.2475 C   0  0  0  0  0  0  0  0  0  0  0  0
  -30.3286  -27.4870   21.2874 C   0  0  1  0  0  0  0  0  0  0  0  0
  -27.6757  -30.2036   21.1636 C   0  0  1  0  0  0  0  0  0  0  0  0
  -27.1992  -19.3141   24.7686 C   0  0  2  0  0  0  0  0  0  0  0  0
  -23.3219  -35.4684   24.8145 C   0  0  0  0  0  0  0  0  0  0  0  0
  -27.4311  -30.3635   25.7761 C   0  0  0  0  0  0  0  0  0  0  0  0
  -25.7712  -31.9871   26.7126 C   0  0  0  0  0  0  0  0  0  0  0  0
  -27.9008  -32.8191   25.7149 C   0  0  0  0  0  0  0  0  0  0  0  0
  -20.9378  -22.9973   26.1993 C   0  0  0  0  0  0  0  0  0  0  0  0
  -23.4254  -23.2364   26.2188 C   0  0  0  0  0  0  0  0  0  0  0  0
  -21.2316  -24.5862   20.7936 C   0  0  0  0  0  0  0  0  0  0  0  0
  -23.4966  -24.5493   19.7288 C   0  0  0  0  0  0  0  0  0  0  0  0
  -23.0426  -34.4250   21.1663 C   0  0  0  0  0  0  0  0  0  0  0  0
  -23.2248  -25.2680   22.1599 C   0  0  0  0  0  0  0  0  0  0  0  0
  -22.3623  -20.9686   26.4678 C   0  0  0  0  0  0  0  0  0  0  0  0
  -21.1824  -21.3286   23.5963 C   0  0  0  0  0  0  0  0  0  0  0  0
  -26.0940  -31.9092   24.1985 C   0  0  1  0  0  0  0  0  0  0  0  0
  -23.7945  -34.8434   23.5112 C   0  0  2  0  0  0  0  0  0  0  0  0
  -22.3169  -22.1784   24.1820 C   0  0  2  0  0  0  0  0  0  0  0  0
  -26.7922  -31.7527   25.5788 C   0  0  0  0  0  0  0  0  0  0  0  0
  -22.2582  -22.3380   25.7433 C   0  0  0  0  0  0  0  0  0  0  0  0
  -22.6073  -25.2604   20.7501 C   0  0  0  0  0  0  0  0  0  1  0  0
  -27.0837  -17.7351   22.8775 N   0  0  0  0  0  0  0  0  0  0  0  0
  -27.5098  -18.9247   23.3351 N   0  0  0  0  0  0  0  0  0  0  0  0
  -26.7037  -30.6177   22.1775 N   0  0  0  0  0  0  0  0  0  0  0  0
  -25.5990  -19.1376   26.6385 N   0  0  0  0  0  0  0  0  0  0  0  0
  -28.6929  -20.8774   22.7044 N   0  0  0  0  0  0  0  0  0  0  0  0
  -28.7656  -18.3588   18.9563 N   0  0  0  0  0  0  0  0  0  0  0  0
  -29.4605  -28.5865   20.9242 N   0  0  0  0  0  0  0  0  0  0  0  0
  -25.5035  -33.2241   23.9732 N   0  0  0  0  0  0  0  0  0  0  0  0
  -22.3514  -23.4605   23.5174 N   0  0  0  0  0  0  0  0  0  0  0  0
  -23.5569  -20.2222   26.1414 N   0  0  0  0  0  0  0  0  0  0  0  0
  -21.5957  -20.7870   22.2733 N   0  3  0  0  0  0  0  0  0  0  0  0
  -22.7049  -34.9777   22.5033 N   0  3  0  0  0  0  0  0  0  0  0  0
  -29.4424  -20.3471   19.8770 O   0  0  0  0  0  0  0  0  0  0  0  0
  -28.1525  -28.6217   22.8504 O   0  0  0  0  0  0  0  0  0  0  0  0
  -28.0311  -32.3868   22.9155 O   0  0  0  0  0  0  0  0  0  0  0  0
  -24.4489  -23.2362   22.5428 O   0  0  0  0  0  0  0  0  0  0  0  0
  -23.3386  -32.4731   23.6178 O   0  0  0  0  0  0  0  0  0  0  0  0
  -24.3334  -20.1495   28.2975 O   0  0  0  0  0  0  0  0  0  0  0  0
  -26.4920  -13.3110   18.3359 O   0  0  0  0  0  0  0  0  0  0  0  0
  -22.4156  -26.6007   20.2991 O   0  0  0  0  0  0  0  0  0  1  0  0
  -30.6419  -11.3776   15.2627 F   0  0  0  0  0  0  0  0  0  0  0  0
  -27.3863  -10.7121   18.6338 F   0  0  0  0  0  0  0  0  0  0  0  0
  1  2  1  0  0  0  0
  1  5  2  0  0  0  0
  2  6  2  0  0  0  0
  3  8  2  0  0  0  0
  3 15  1  0  0  0  0
  4  9  1  0  0  0  0
  4 15  2  0  0  0  0
  5 17  1  0  0  0  0
  6 19  1  0  0  0  0
  7 10  2  0  0  0  0
  7 18  1  0  0  0  0
  8 21  1  0  0  0  0
  9 21  2  0  0  0  0
 10 22  1  0  0  0  0
 11 12  2  0  0  0  0
 11 23  1  0  0  0  0
 12 24  1  0  0  0  0
 13 20  1  0  0  0  0
 13 22  2  0  0  0  0
 14 24  2  0  0  0  0
 14 25  1  0  0  0  0
 15 26  1  0  0  0  0
 16 26  1  0  0  0  0
 16 27  2  0  0  0  0
 16 28  1  0  0  0  0
 17 19  2  0  0  0  0
 17 34  1  0  0  0  0
 18 20  2  0  0  0  0
 18 35  1  0  0  0  0
 19 43  1  0  0  0  0
 20 36  1  0  0  0  0
 21 82  1  0  0  0  0
 22 83  1  0  0  0  0
 23 25  2  0  0  0  0
 23 82  1  0  0  0  0
 24 84  1  0  0  0  0
 25 85  1  0  0  0  0
 26 64  2  0  0  0  0
 27 65  1  0  0  0  0
 27 68  1  0  0  0  0
 28 69  1  0  0  0  0
 28 76  2  0  0  0  0
 29 44  1  0  0  0  0
 29 70  1  0  0  0  0
 29 77  2  0  0  0  0
 30 58  1  0  0  0  0
 30 66  1  0  0  0  0
 30 78  2  0  0  0  0
 31 55  1  0  0  0  0
 31 72  1  0  0  0  0
 31 79  2  0  0  0  0
 32 59  1  0  0  0  0
 32 71  1  0  0  0  0
 32 80  2  0  0  0  0
 33 67  1  0  0  0  0
 33 73  1  0  0  0  0
 33 81  2  0  0  0  0
 34 37  1  0  0  0  0
 35 44  1  0  0  0  0
 36 66  1  0  0  0  0
 37 39  1  0  0  0  0
 38 40  1  0  0  0  0
 38 41  1  0  0  0  0
 39 43  1  0  0  0  0
 40 45  1  0  0  0  0
 41 67  1  0  0  0  0
 42 45  1  0  0  0  0
 42 67  1  0  0  0  0
 43 70  1  0  0  0  0
 44 66  1  0  0  0  0
 45 65  1  0  0  0  0
 46 59  1  0  0  0  0
 47 61  1  0  0  0  0
 48 61  1  0  0  0  0
 49 61  1  0  0  0  0
 50 62  1  0  0  0  0
 51 62  1  0  0  0  0
 52 63  1  0  0  0  0
 53 63  1  0  0  0  0
 54 75  1  0  0  0  0
 55 63  1  0  0  0  0
 56 62  1  0  0  0  0
 56 73  1  0  0  0  0
 57 60  1  0  0  0  0
 57 74  1  0  0  0  0
 58 61  1  0  0  0  0
 58 71  1  0  0  0  0
 59 75  1  0  0  0  0
 60 62  1  0  0  0  0
 60 72  1  0  0  0  0
 63 83  1  0  0  0  0
 64 65  1  0  0  0  0
M  CHG  2  74   1  75   1
M  ISO  4  33 100  63 101  73 100  83 101
M  END
> <Batch ID>
0113

> <Smiles>
CNC(C)C(=O)NC(C(=O)N1Cc2cc([101O:1][101C:1](C)(C)CC(=O)NC(CN)C(C)(C)C[100NH:0][100C:0](=O)N3CCCC(n4nc(-c5ccc(Oc6ccc(F)cc6F)cc5)c(C(N)=O)c4N)C3)ccc2CC1C(=O)NC1CCCc2ccccc21)C(C)(C)C

> <Shape>
0.220

> <Color>
0.059

> <Negative vol penalty>
0.000

$$$$

  -OEChem-04052320053D

 83 90  0     1  0  0  0  0  0999 V2000
  -27.2917  -23.9829   21.8277 C   0  0  0  0  0  0  0  0  0  0  0  0
  -26.4167  -23.1126   21.1856 C   0  0  0  0  0  0  0  0  0  0  0  0
  -24.9648  -30.4413   20.3200 C   0  0  0  0  0  0  0  0  0  0  0  0
  -24.3472  -28.6045   21.7629 C   0  0  0  0  0  0  0  0  0  0  0  0
  -28.6330  -23.6342   21.9804 C   0  0  0  0  0  0  0  0  0  0  0  0
  -26.8828  -21.8935   20.6948 C   0  0  0  0  0  0  0  0  0  0  0  0
  -23.7834  -18.0431   21.7966 C   0  0  0  0  0  0  0  0  0  0  0  0
  -24.5500  -31.3474   21.2959 C   0  0  0  0  0  0  0  0  0  0  0  0
  -23.9325  -29.5107   22.7389 C   0  0  0  0  0  0  0  0  0  0  0  0
  -22.6339  -17.9085   21.0191 C   0  0  0  0  0  0  0  0  0  0  0  0
  -23.9892  -34.1437   23.5500 C   0  0  0  0  0  0  0  0  0  0  0  0
  -24.8221  -35.2286   23.8236 C   0  0  0  0  0  0  0  0  0  0  0  0
  -23.7169  -16.1827   19.7277 C   0  0  0  0  0  0  0  0  0  0  0  0
  -26.5911  -33.7105   24.4582 C   0  0  0  0  0  0  0  0  0  0  0  0
  -24.8633  -29.0698   20.5534 C   0  0  0  0  0  0  0  0  0  0  0  0
  -26.5759  -27.5792   19.3903 C   0  0  0  0  0  0  0  0  0  0  0  0
  -29.1137  -22.4060   21.4998 C   0  0  0  0  0  0  0  0  0  0  0  0
  -24.9139  -17.2548   21.5380 C   0  0  0  0  0  0  0  0  0  0  0  0
  -28.2320  -21.5286   20.8400 C   0  0  0  0  0  0  0  0  0  0  0  0
  -24.8785  -16.3074   20.5049 C   0  0  0  0  0  0  0  0  0  0  0  0
  -24.0339  -30.8822   22.5053 C   0  0  0  0  0  0  0  0  0  0  0  0
  -22.6016  -16.9802   19.9827 C   0  0  0  0  0  0  0  0  0  0  0  0
  -24.4572  -32.8422   23.7307 C   0  0  0  0  0  0  0  0  0  0  0  0
  -26.1230  -35.0120   24.2776 C   0  0  0  0  0  0  0  0  0  0  0  0
  -25.7581  -32.6255   24.1848 C   0  0  0  0  0  0  0  0  0  0  0  0
  -25.2911  -28.1333   19.5455 C   0  0  0  0  0  0  0  0  0  0  0  0
  -26.4650  -26.7560   18.2965 C   0  0  0  0  0  0  0  0  0  0  0  0
  -27.7634  -27.7897   20.1658 C   0  0  0  0  0  0  0  0  0  0  0  0
  -27.9144  -17.8510   20.6748 C   0  0  0  0  0  0  0  0  0  0  0  0
  -28.2714  -14.6609   21.1421 C   0  0  0  0  0  0  0  0  0  0  0  0
  -21.9328  -20.4061   17.3117 C   0  0  0  0  0  0  0  0  0  0  0  0
  -26.8232  -11.5740   21.2865 C   0  0  0  0  0  0  0  0  0  0  0  0
  -22.6850  -23.1805   15.7584 C   0  0  0  0  0  0  0  0  0  0  0  0
  -30.5818  -22.0935   21.6464 C   0  0  0  0  0  0  0  0  0  0  0  0
  -26.1367  -17.3935   22.4029 C   0  0  0  0  0  0  0  0  0  0  0  0
  -26.0586  -15.4228   20.1995 C   0  0  0  0  0  0  0  0  0  0  0  0
  -30.9155  -20.6197   21.4298 C   0  0  0  0  0  0  0  0  0  0  0  0
  -23.3408  -26.4374   14.4780 C   0  0  0  0  0  0  0  0  0  0  0  0
  -30.2189  -20.0929   20.1791 C   0  0  0  0  0  0  0  0  0  0  0  0
  -24.0300  -27.1552   15.6398 C   0  0  0  0  0  0  0  0  0  0  0  0
  -22.2501  -25.4879   14.9687 C   0  0  0  0  0  0  0  0  0  0  0  0
  -23.3788  -25.2286   17.1441 C   0  0  0  0  0  0  0  0  0  0  0  0
  -28.6944  -20.1863   20.3160 C   0  0  1  0  0  0  0  0  0  0  0  0
  -27.4093  -16.8992   21.7220 C   0  0  1  0  0  0  0  0  0  0  0  0
  -24.5244  -26.1555   16.7025 C   0  0  2  0  0  0  0  0  0  0  0  0
  -27.3769   -9.1534   21.6494 C   0  0  0  0  0  0  0  0  0  0  0  0
  -16.6736  -19.2456   15.8736 C   0  0  0  0  0  0  0  0  0  0  0  0
  -17.4377  -18.8222   18.2185 C   0  0  0  0  0  0  0  0  0  0  0  0
  -20.7152  -16.5049   15.5464 C   0  0  0  0  0  0  0  0  0  0  0  0
  -29.4183  -14.5024   18.3190 C   0  0  0  0  0  0  0  0  0  0  0  0
  -29.0613  -12.0253   18.3881 C   0  0  0  0  0  0  0  0  0  0  0  0
  -30.6168  -13.1053   20.0119 C   0  0  0  0  0  0  0  0  0  0  0  0
  -25.0874  -11.4158   23.6783 C   0  0  0  0  0  0  0  0  0  0  0  0
  -23.2016  -20.9333   16.6761 C   0  0  0  0  0  0  0  0  0  0  0  0
  -19.1382  -19.0907   16.3348 C   0  0  0  0  0  0  0  0  0  0  0  0
  -21.6588  -16.4390   17.8674 C   0  0  0  0  0  0  0  0  0  1  0  0
  -28.1239  -13.4309   20.2793 C   0  0  1  0  0  0  0  0  0  0  0  0
  -26.9385  -10.4540   22.3047 C   0  0  2  0  0  0  0  0  0  0  0  0
  -17.7436  -18.5754   16.7408 C   0  0  0  0  0  0  0  0  0  0  0  0
  -20.5106  -16.9699   16.9915 C   0  0  1  0  0  0  0  0  0  0  0  0
  -20.3316  -18.5080   17.1198 C   0  0  1  0  0  0  0  0  0  0  0  0
  -29.2834  -13.2839   19.2538 C   0  0  0  0  0  0  0  0  0  0  0  0
  -24.4275  -27.6989   18.6238 N   0  0  0  0  0  0  0  0  0  0  0  0
  -25.1711  -26.8632   17.8789 N   0  0  0  0  0  0  0  0  0  0  0  0
  -27.2331  -15.6004   21.0692 N   0  0  0  0  0  0  0  0  0  0  0  0
  -22.7846  -24.5651   15.9731 N   0  0  0  0  0  0  0  0  0  0  0  0
  -27.3492  -25.9583   17.6606 N   0  0  0  0  0  0  0  0  0  0  0  0
  -27.7023  -28.6679   21.2563 N   0  0  0  0  0  0  0  0  0  0  0  0
  -28.1956  -19.1165   21.1533 N   0  0  0  0  0  0  0  0  0  0  0  0
  -27.9898  -12.3034   21.1953 N   0  0  0  0  0  0  0  0  0  0  0  0
  -21.5379  -19.2119   16.7317 N   0  0  0  0  0  0  0  0  0  0  0  0
  -23.2223  -22.3769   16.7565 N   0  0  0  0  0  0  0  0  0  0  0  0
  -25.6265  -10.2245   22.9731 N   0  3  0  0  0  0  0  0  0  0  0  0
  -28.8507  -27.2286   19.8896 O   0  0  0  0  0  0  0  0  0  0  0  0
  -28.0412  -17.4653   19.5185 O   0  0  0  0  0  0  0  0  0  0  0  0
  -29.2675  -14.7803   21.8598 O   0  0  0  0  0  0  0  0  0  0  0  0
  -21.3276  -20.9995   18.2007 O   0  0  0  0  0  0  0  0  0  0  0  0
  -25.8018  -11.7789   20.6344 O   0  0  0  0  0  0  0  0  0  0  0  0
  -22.1612  -22.6965   14.7493 O   0  0  0  0  0  0  0  0  0  0  0  0
  -23.6293  -31.7661   23.4580 O   0  0  0  0  0  0  0  0  0  0  0  0
  -21.4730  -16.8462   19.2164 O   0  0  0  0  0  0  0  0  0  1  0  0
  -26.9233  -36.0539   24.5388 F   0  0  0  0  0  0  0  0  0  0  0  0
  -26.2138  -31.3774   24.3591 F   0  0  0  0  0  0  0  0  0  0  0  0
  1  2  1  0  0  0  0
  1  5  2  0  0  0  0
  2  6  2  0  0  0  0
  3  8  2  0  0  0  0
  3 15  1  0  0  0  0
  4  9  1  0  0  0  0
  4 15  2  0  0  0  0
  5 17  1  0  0  0  0
  6 19  1  0  0  0  0
  7 10  2  0  0  0  0
  7 18  1  0  0  0  0
  8 21  1  0  0  0  0
  9 21  2  0  0  0  0
 10 22  1  0  0  0  0
 11 12  2  0  0  0  0
 11 23  1  0  0  0  0
 12 24  1  0  0  0  0
 13 20  1  0  0  0  0
 13 22  2  0  0  0  0
 14 24  2  0  0  0  0
 14 25  1  0  0  0  0
 15 26  1  0  0  0  0
 16 26  1  0  0  0  0
 16 27  2  0  0  0  0
 16 28  1  0  0  0  0
 17 19  2  0  0  0  0
 17 34  1  0  0  0  0
 18 20  2  0  0  0  0
 18 35  1  0  0  0  0
 19 43  1  0  0  0  0
 20 36  1  0  0  0  0
 21 80  1  0  0  0  0
 22 81  1  0  0  0  0
 23 25  2  0  0  0  0
 23 80  1  0  0  0  0
 24 82  1  0  0  0  0
 25 83  1  0  0  0  0
 26 63  2  0  0  0  0
 27 64  1  0  0  0  0
 27 67  1  0  0  0  0
 28 68  1  0  0  0  0
 28 74  2  0  0  0  0
 29 44  1  0  0  0  0
 29 69  1  0  0  0  0
 29 75  2  0  0  0  0
 30 57  1  0  0  0  0
 30 65  1  0  0  0  0
 30 76  2  0  0  0  0
 31 54  1  0  0  0  0
 31 71  1  0  0  0  0
 31 77  2  0  0  0  0
 32 58  1  0  0  0  0
 32 70  1  0  0  0  0
 32 78  2  0  0  0  0
 33 66  1  0  0  0  0
 33 72  1  0  0  0  0
 33 79  2  0  0  0  0
 34 37  1  0  0  0  0
 35 44  1  0  0  0  0
 36 65  1  0  0  0  0
 37 39  1  0  0  0  0
 38 40  1  0  0  0  0
 38 41  1  0  0  0  0
 39 43  1  0  0  0  0
 40 45  1  0  0  0  0
 41 66  1  0  0  0  0
 42 45  1  0  0  0  0
 42 66  1  0  0  0  0
 43 69  1  0  0  0  0
 44 65  1  0  0  0  0
 45 64  1  0  0  0  0
 46 58  1  0  0  0  0
 47 59  1  0  0  0  0
 48 59  1  0  0  0  0
 49 60  1  0  0  0  0
 50 62  1  0  0  0  0
 51 62  1  0  0  0  0
 52 62  1  0  0  0  0
 53 73  1  0  0  0  0
 54 72  1  0  0  0  0
 55 59  1  0  0  0  0
 55 61  1  0  0  0  0
 56 60  1  0  0  0  0
 56 81  1  0  0  0  0
 57 62  1  0  0  0  0
 57 70  1  0  0  0  0
 58 73  1  0  0  0  0
 60 61  1  0  0  0  0
 61 71  1  0  0  0  0
 63 64  1  0  0  0  0
M  CHG  1  73   1
M  ISO  4  33 100  56 101  72 100  81 101
M  END
> <Batch ID>
0113

> <Smiles>
CNC(C)C(=O)NC(C(=O)N1Cc2cc([101O:1][101CH2:1]C(C)C(CC(C)C)NC(=O)C[100NH:0][100C:0](=O)N3CCCC(n4nc(-c5ccc(Oc6ccc(F)cc6F)cc5)c(C(N)=O)c4N)C3)ccc2CC1C(=O)NC1CCCc2ccccc21)C(C)(C)C

> <Shape>
0.231

> <Color>
0.058

> <Negative vol penalty>
0.000

$$$$

  -OEChem-04052320053D

 79 86  0     1  0  0  0  0  0999 V2000
  -23.0060   -7.8122   21.2365 C   0  0  0  0  0  0  0  0  0  0  0  0
  -24.3043   -8.2958   21.1106 C   0  0  0  0  0  0  0  0  0  0  0  0
  -22.4199  -27.5449   23.0214 C   0  0  0  0  0  0  0  0  0  0  0  0
  -21.9497  -26.3803   20.9575 C   0  0  0  0  0  0  0  0  0  0  0  0
  -21.9234   -8.6784   21.0896 C   0  0  0  0  0  0  0  0  0  0  0  0
  -24.5208   -9.6458   20.8366 C   0  0  0  0  0  0  0  0  0  0  0  0
  -29.1611  -14.9383   22.1680 C   0  0  0  0  0  0  0  0  0  0  0  0
  -21.3335  -28.3892   22.7925 C   0  0  0  0  0  0  0  0  0  0  0  0
  -20.8632  -27.2246   20.7286 C   0  0  0  0  0  0  0  0  0  0  0  0
  -29.9196  -15.8991   21.5005 C   0  0  0  0  0  0  0  0  0  0  0  0
  -18.4668  -30.6203   22.9315 C   0  0  0  0  0  0  0  0  0  0  0  0
  -17.6119  -30.8819   24.0021 C   0  0  0  0  0  0  0  0  0  0  0  0
  -27.9748  -17.3180   21.3456 C   0  0  0  0  0  0  0  0  0  0  0  0
  -17.1138  -28.5245   24.1804 C   0  0  0  0  0  0  0  0  0  0  0  0
  -22.7280  -26.5404   22.1039 C   0  0  0  0  0  0  0  0  0  0  0  0
  -23.8442  -24.4428   23.0322 C   0  0  0  0  0  0  0  0  0  0  0  0
  -22.1269  -10.0416   20.8232 C   0  0  0  0  0  0  0  0  0  0  0  0
  -27.7989  -15.1559   22.4200 C   0  0  0  0  0  0  0  0  0  0  0  0
  -23.4399  -10.5308   20.6847 C   0  0  0  0  0  0  0  0  0  0  0  0
  -27.2019  -16.3595   22.0187 C   0  0  0  0  0  0  0  0  0  0  0  0
  -20.5551  -28.2291   21.6462 C   0  0  0  0  0  0  0  0  0  0  0  0
  -29.3258  -17.0879   21.0867 C   0  0  0  0  0  0  0  0  0  0  0  0
  -18.6451  -29.3108   22.4852 C   0  0  0  0  0  0  0  0  0  0  0  0
  -16.9354  -29.8341   24.6266 C   0  0  0  0  0  0  0  0  0  0  0  0
  -17.9686  -28.2630   23.1096 C   0  0  0  0  0  0  0  0  0  0  0  0
  -23.8505  -25.6683   22.3395 C   0  0  0  0  0  0  0  0  0  0  0  0
  -25.1469  -24.0110   22.9781 C   0  0  0  0  0  0  0  0  0  0  0  0
  -22.7578  -23.7561   23.6678 C   0  0  0  0  0  0  0  0  0  0  0  0
  -25.1002  -13.7137   21.5595 C   0  0  0  0  0  0  0  0  0  0  0  0
  -23.7665  -15.8377   23.6167 C   0  0  0  0  0  0  0  0  0  0  0  0
  -23.9873  -18.8349   25.2337 C   0  0  0  0  0  0  0  0  0  0  0  0
  -29.2905  -19.8570   19.1038 C   0  0  0  0  0  0  0  0  0  0  0  0
  -29.6459  -25.0912   19.1777 C   0  0  0  0  0  0  0  0  0  0  0  0
  -20.9244  -10.9301   20.6258 C   0  0  0  0  0  0  0  0  0  0  0  0
  -27.0010  -14.1210   23.1648 C   0  0  0  0  0  0  0  0  0  0  0  0
  -25.7479  -16.6503   22.2830 C   0  0  0  0  0  0  0  0  0  0  0  0
  -21.2477  -12.4198   20.7076 C   0  0  0  0  0  0  0  0  0  0  0  0
  -29.6292  -25.6596   22.6924 C   0  0  0  0  0  0  0  0  0  0  0  0
  -22.4882  -12.7430   19.8810 C   0  0  0  0  0  0  0  0  0  0  0  0
  -28.1458  -25.6157   23.0630 C   0  0  0  0  0  0  0  0  0  0  0  0
  -29.8509  -26.3060   21.3268 C   0  0  0  0  0  0  0  0  0  0  0  0
  -27.5848  -25.6689   20.5970 C   0  0  0  0  0  0  0  0  0  0  0  0
  -23.7160  -11.9936   20.4124 C   0  0  1  0  0  0  0  0  0  0  0  0
  -25.5002  -14.2287   22.9132 C   0  0  1  0  0  0  0  0  0  0  0  0
  -27.3063  -24.9750   21.9414 C   0  0  2  0  0  0  0  0  0  0  0  0
  -23.3649  -20.6748   26.8227 C   0  0  0  0  0  0  0  0  0  0  0  0
  -30.7819  -18.0773   18.1601 C   0  0  0  0  0  0  0  0  0  0  0  0
  -21.9008  -16.6707   21.3506 C   0  0  0  0  0  0  0  0  0  0  0  0
  -21.3479  -18.7334   22.6575 C   0  0  0  0  0  0  0  0  0  0  0  0
  -20.8035  -16.4847   23.5902 C   0  0  0  0  0  0  0  0  0  0  0  0
  -25.5070  -17.5934   27.4490 C   0  0  0  0  0  0  0  0  0  0  0  0
  -29.6095  -22.3853   17.2576 C   0  0  0  0  0  0  0  0  0  0  0  0
  -29.2807  -23.8582   17.0551 C   0  0  0  0  0  0  0  0  0  0  0  0
  -28.4114  -21.5697   17.7282 C   0  0  0  0  0  0  0  0  0  0  0  0
  -23.2152  -17.2381   23.4992 C   0  0  1  0  0  0  0  0  0  0  0  0
  -23.7661  -19.2142   26.6868 C   0  0  2  0  0  0  0  0  0  0  0  0
  -29.6439  -18.3836   19.1180 C   0  0  1  0  0  0  0  0  0  1  0  0
  -21.8438  -17.2757   22.7675 C   0  0  0  0  0  0  0  0  0  0  0  0
  -25.0613  -25.9941   21.8792 N   0  0  0  0  0  0  0  0  0  0  0  0
  -25.8279  -24.9671   22.2836 N   0  0  0  0  0  0  0  0  0  0  0  0
  -25.0083  -15.6046   23.0090 N   0  0  0  0  0  0  0  0  0  0  0  0
  -29.0272  -25.6514   20.3075 N   0  0  0  0  0  0  0  0  0  0  0  0
  -25.7649  -22.9107   23.4574 N   0  0  0  0  0  0  0  0  0  0  0  0
  -21.4843  -24.3401   23.6293 N   0  0  0  0  0  0  0  0  0  0  0  0
  -24.2289  -12.6420   21.6002 N   0  0  0  0  0  0  0  0  0  0  0  0
  -23.1850  -17.7800   24.8534 N   0  0  0  0  0  0  0  0  0  0  0  0
  -28.7931  -24.4844   18.2637 N   0  0  0  0  0  0  0  0  0  0  0  0
  -25.0115  -18.9937   27.4750 N   0  3  0  0  0  0  0  0  0  0  0  0
  -22.9150  -22.6652   24.2667 O   0  0  0  0  0  0  0  0  0  0  0  0
  -25.5477  -14.2500   20.5526 O   0  0  0  0  0  0  0  0  0  0  0  0
  -23.1224  -14.9839   24.2314 O   0  0  0  0  0  0  0  0  0  0  0  0
  -24.7887  -19.4188   24.5074 O   0  0  0  0  0  0  0  0  0  0  0  0
  -29.3992  -20.6058   20.0662 O   0  0  0  0  0  0  0  0  0  0  0  0
  -30.8682  -25.1244   18.9994 O   0  0  0  0  0  0  0  0  0  0  0  0
  -19.4948  -29.0527   21.4226 O   0  0  0  0  0  0  0  0  0  0  0  0
  -30.0636  -18.0270   20.4344 O   0  0  0  0  0  0  0  0  0  1  0  0
  -28.8123  -20.2034   17.8726 O   0  0  0  0  0  0  0  0  0  0  0  0
  -16.1157  -30.0852   25.6557 F   0  0  0  0  0  0  0  0  0  0  0  0
  -18.1369  -27.0027   22.6861 F   0  0  0  0  0  0  0  0  0  0  0  0
  1  2  1  0  0  0  0
  1  5  2  0  0  0  0
  2  6  2  0  0  0  0
  3  8  2  0  0  0  0
  3 15  1  0  0  0  0
  4  9  1  0  0  0  0
  4 15  2  0  0  0  0
  5 17  1  0  0  0  0
  6 19  1  0  0  0  0
  7 10  2  0  0  0  0
  7 18  1  0  0  0  0
  8 21  1  0  0  0  0
  9 21  2  0  0  0  0
 10 22  1  0  0  0  0
 11 12  2  0  0  0  0
 11 23  1  0  0  0  0
 12 24  1  0  0  0  0
 13 20  1  0  0  0  0
 13 22  2  0  0  0  0
 14 24  2  0  0  0  0
 14 25  1  0  0  0  0
 15 26  1  0  0  0  0
 16 26  1  0  0  0  0
 16 27  2  0  0  0  0
 16 28  1  0  0  0  0
 17 19  2  0  0  0  0
 17 34  1  0  0  0  0
 18 20  2  0  0  0  0
 18 35  1  0  0  0  0
 19 43  1  0  0  0  0
 20 36  1  0  0  0  0
 21 75  1  0  0  0  0
 22 76  1  0  0  0  0
 23 25  2  0  0  0  0
 23 75  1  0  0  0  0
 24 78  1  0  0  0  0
 25 79  1  0  0  0  0
 26 59  2  0  0  0  0
 27 60  1  0  0  0  0
 27 63  1  0  0  0  0
 28 64  1  0  0  0  0
 28 69  2  0  0  0  0
 29 44  1  0  0  0  0
 29 65  1  0  0  0  0
 29 70  2  0  0  0  0
 30 55  1  0  0  0  0
 30 61  1  0  0  0  0
 30 71  2  0  0  0  0
 31 56  1  0  0  0  0
 31 66  1  0  0  0  0
 31 72  2  0  0  0  0
 32 57  1  0  0  0  0
 32 73  2  0  0  0  0
 32 77  1  0  0  0  0
 33 62  1  0  0  0  0
 33 67  1  0  0  0  0
 33 74  2  0  0  0  0
 34 37  1  0  0  0  0
 35 44  1  0  0  0  0
 36 61  1  0  0  0  0
 37 39  1  0  0  0  0
 38 40  1  0  0  0  0
 38 41  1  0  0  0  0
 39 43  1  0  0  0  0
 40 45  1  0  0  0  0
 41 62  1  0  0  0  0
 42 45  1  0  0  0  0
 42 62  1  0  0  0  0
 43 65  1  0  0  0  0
 44 61  1  0  0  0  0
 45 60  1  0  0  0  0
 46 56  1  0  0  0  0
 47 57  1  0  0  0  0
 48 58  1  0  0  0  0
 49 58  1  0  0  0  0
 50 58  1  0  0  0  0
 51 68  1  0  0  0  0
 52 53  1  0  0  0  0
 52 54  1  0  0  0  0
 53 67  1  0  0  0  0
 54 77  1  0  0  0  0
 55 58  1  0  0  0  0
 55 66  1  0  0  0  0
 56 68  1  0  0  0  0
 57 76  1  0  0  0  0
 59 60  1  0  0  0  0
M  CHG  1  68   1
M  ISO  4  33 100  57 101  67 100  76 101
M  END
> <Batch ID>
0113

> <Smiles>
CNC(C)C(=O)NC(C(=O)N1Cc2cc([101O:1][101CH:1](C)C(=O)OCCC[100NH:0][100C:0](=O)N3CCCC(n4nc(-c5ccc(Oc6ccc(F)cc6F)cc5)c(C(N)=O)c4N)C3)ccc2CC1C(=O)NC1CCCc2ccccc21)C(C)(C)C

> <Shape>
0.207

> <Color>
0.096

> <Negative vol penalty>
0.000

$$$$

  -OEChem-04052320053D

 87 95  0     1  0  0  0  0  0999 V2000
  -22.8888  -30.1490   13.0401 C   0  0  0  0  0  0  0  0  0  0  0  0
  -22.8660  -29.1385   13.9960 C   0  0  0  0  0  0  0  0  0  0  0  0
  -24.4559   -9.6581   22.3163 C   0  0  0  0  0  0  0  0  0  0  0  0
  -24.0539   -9.7027   19.9344 C   0  0  0  0  0  0  0  0  0  0  0  0
  -23.8027  -31.1956   13.1553 C   0  0  0  0  0  0  0  0  0  0  0  0
  -23.7579  -29.1736   15.0673 C   0  0  0  0  0  0  0  0  0  0  0  0
  -22.7097  -27.2733   20.7941 C   0  0  0  0  0  0  0  0  0  0  0  0
  -24.0826   -8.3146   22.3542 C   0  0  0  0  0  0  0  0  0  0  0  0
  -23.6806   -8.3592   19.9723 C   0  0  0  0  0  0  0  0  0  0  0  0
  -23.0265  -26.0919   21.4631 C   0  0  0  0  0  0  0  0  0  0  0  0
  -21.2149   -6.5257   22.3518 C   0  0  0  0  0  0  0  0  0  0  0  0
  -20.3571   -6.1207   23.3744 C   0  0  0  0  0  0  0  0  0  0  0  0
  -25.0024  -27.1404   22.3664 C   0  0  0  0  0  0  0  0  0  0  0  0
  -22.0300   -4.5656   24.1618 C   0  0  0  0  0  0  0  0  0  0  0  0
  -24.4415  -10.3521   21.1065 C   0  0  0  0  0  0  0  0  0  0  0  0
  -24.2244  -12.8092   21.7569 C   0  0  0  0  0  0  0  0  0  0  0  0
  -24.6998  -31.2486   14.2338 C   0  0  0  0  0  0  0  0  0  0  0  0
  -23.5440  -28.3957   20.8976 C   0  0  0  0  0  0  0  0  0  0  0  0
  -24.6856  -30.2212   15.1964 C   0  0  0  0  0  0  0  0  0  0  0  0
  -24.6926  -28.3357   21.6997 C   0  0  0  0  0  0  0  0  0  0  0  0
  -23.6950   -7.6652   21.1822 C   0  0  0  0  0  0  0  0  0  0  0  0
  -24.1745  -26.0244   22.2471 C   0  0  0  0  0  0  0  0  0  0  0  0
  -22.4802   -5.9505   22.2341 C   0  0  0  0  0  0  0  0  0  0  0  0
  -20.7646   -5.1407   24.2795 C   0  0  0  0  0  0  0  0  0  0  0  0
  -22.8878   -4.9705   23.1391 C   0  0  0  0  0  0  0  0  0  0  0  0
  -24.8264  -11.7401   21.0668 C   0  0  0  0  0  0  0  0  0  0  0  0
  -24.9542  -13.9119   21.3855 C   0  0  0  0  0  0  0  0  0  0  0  0
  -23.1056  -12.8059   22.6536 C   0  0  0  0  0  0  0  0  0  0  0  0
  -25.2595  -30.1124   18.8449 C   0  0  0  0  0  0  0  0  0  0  0  0
  -25.7491  -32.0021   21.4356 C   0  0  0  0  0  0  0  0  0  0  0  0
  -25.8512  -32.2888   24.8348 C   0  0  0  0  0  0  0  0  0  0  0  0
  -29.8513  -16.4040   20.4092 C   0  0  0  0  0  0  0  0  0  0  0  0
  -25.7012  -32.3749   14.2904 C   0  0  0  0  0  0  0  0  0  0  0  0
  -23.1741  -29.6710   20.1911 C   0  0  0  0  0  0  0  0  0  0  0  0
  -25.6106  -29.5189   21.8600 C   0  0  0  0  0  0  0  0  0  0  0  0
  -26.3605  -32.5356   15.6578 C   0  0  0  0  0  0  0  0  0  0  0  0
  -28.4372  -14.4874   17.7628 C   0  0  0  0  0  0  0  0  0  0  0  0
  -26.8134  -31.1814   16.1945 C   0  0  0  0  0  0  0  0  0  0  0  0
  -27.3268  -13.6859   18.4445 C   0  0  0  0  0  0  0  0  0  0  0  0
  -29.6543  -14.6505   18.6706 C   0  0  0  0  0  0  0  0  0  0  0  0
  -28.2525  -14.4128   20.6836 C   0  0  0  0  0  0  0  0  0  0  0  0
  -29.6271  -20.5943   22.4263 C   0  0  0  0  0  0  0  0  0  0  0  0
  -26.8055  -20.2402   21.9652 C   0  0  0  0  0  0  0  0  0  0  0  0
  -25.6205  -30.2371   16.3862 C   0  0  1  0  0  0  0  0  0  0  0  0
  -24.3678  -30.5913   19.9553 C   0  0  1  0  0  0  0  0  0  0  0  0
  -26.9822  -14.2697   19.8278 C   0  0  2  0  0  0  0  0  0  0  0  0
  -27.3826  -21.5308   22.5637 C   0  0  2  0  0  0  0  0  0  0  0  0
  -29.0980  -19.2947   21.8180 C   0  0  1  0  0  0  0  0  0  0  0  0
  -26.3173  -33.9483   26.6585 C   0  0  0  0  0  0  0  0  0  0  0  0
  -25.0187  -22.3201   24.2118 C   0  0  0  0  0  0  0  0  0  0  0  0
  -28.7422  -31.7431   20.9029 C   0  0  0  0  0  0  0  0  0  0  0  0
  -29.1574  -32.5848   23.2239 C   0  0  0  0  0  0  0  0  0  0  0  0
  -27.9946  -34.0368   21.5620 C   0  0  0  0  0  0  0  0  0  0  0  0
  -30.7270  -25.0104   22.1019 C   0  0  0  0  0  0  0  0  0  0  0  0
  -30.1543  -23.4149   20.2569 C   0  0  0  0  0  0  0  0  0  0  0  0
  -23.1105  -32.0373   25.9232 C   0  0  0  0  0  0  0  0  0  0  0  0
  -26.4447  -22.6850   22.1832 C   0  0  0  0  0  0  0  0  0  0  0  0
  -29.9269  -18.0871   22.2314 C   0  0  0  0  0  0  0  0  0  0  0  0
  -29.3665  -22.9679   22.6348 C   0  0  0  0  0  0  0  0  0  0  0  0
  -24.0656  -23.6492   22.2979 C   0  0  0  0  0  0  0  0  0  1  0  0
  -26.7730  -32.0528   22.5437 C   0  0  1  0  0  0  0  0  0  0  0  0
  -25.2511  -33.3162   25.7774 C   0  0  2  0  0  0  0  0  0  0  0  0
  -25.0014  -22.4977   22.6892 C   0  0  2  0  0  0  0  0  0  0  0  0
  -28.1507  -32.5813   22.0538 C   0  0  0  0  0  0  0  0  0  0  0  0
  -30.4801  -23.5415   21.7461 C   0  0  0  0  0  0  0  0  0  0  0  0
  -25.8589  -12.1285   20.3138 N   0  0  0  0  0  0  0  0  0  0  0  0
  -25.9114  -13.4541   20.5286 N   0  0  0  0  0  0  0  0  0  0  0  0
  -25.2093  -30.7413   21.1442 N   0  0  0  0  0  0  0  0  0  0  0  0
  -29.2594  -15.2099   19.9656 N   0  0  0  0  0  0  0  0  0  0  0  0
  -28.7690  -21.7456   22.0897 N   0  0  1  0  0  0  0  0  0  0  0  0
  -24.8640  -15.2188   21.7115 N   0  0  0  0  0  0  0  0  0  0  0  0
  -21.8221  -12.9886   22.1211 N   0  0  0  0  0  0  0  0  0  0  0  0
  -24.8978  -30.5745   17.5939 N   0  0  0  0  0  0  0  0  0  0  0  0
  -26.1764  -32.8433   23.6149 N   0  0  0  0  0  0  0  0  0  0  0  0
  -29.4158  -16.8686   21.6442 N   0  0  0  0  0  0  0  0  0  0  0  0
  -27.6961  -19.0926   22.2977 N   0  3  0  0  0  0  0  0  0  0  0  0
  -24.2315  -32.6785   26.6576 N   0  3  0  0  0  0  0  0  0  0  0  0
  -23.2417  -12.6621   23.8922 O   0  0  0  0  0  0  0  0  0  0  0  0
  -26.2066  -29.3792   19.1041 O   0  0  0  0  0  0  0  0  0  0  0  0
  -25.4343  -33.0439   20.8549 O   0  0  0  0  0  0  0  0  0  0  0  0
  -26.0184  -31.1128   25.1503 O   0  0  0  0  0  0  0  0  0  0  0  0
  -30.7008  -17.0138   19.7509 O   0  0  0  0  0  0  0  0  0  0  0  0
  -31.6917  -22.8227   21.9890 O   0  0  0  0  0  0  0  0  0  0  0  0
  -23.3310   -6.3542   21.2188 O   0  0  0  0  0  0  0  0  0  0  0  0
  -24.4865  -24.8723   22.9007 O   0  0  0  0  0  0  0  0  0  1  0  0
  -19.9414   -4.7530   25.2624 F   0  0  0  0  0  0  0  0  0  0  0  0
  -24.1027   -4.4152   23.0319 F   0  0  0  0  0  0  0  0  0  0  0  0
  1  2  1  0  0  0  0
  1  5  2  0  0  0  0
  2  6  2  0  0  0  0
  3  8  2  0  0  0  0
  3 15  1  0  0  0  0
  4  9  1  0  0  0  0
  4 15  2  0  0  0  0
  5 17  1  0  0  0  0
  6 19  1  0  0  0  0
  7 10  2  0  0  0  0
  7 18  1  0  0  0  0
  8 21  1  0  0  0  0
  9 21  2  0  0  0  0
 10 22  1  0  0  0  0
 11 12  2  0  0  0  0
 11 23  1  0  0  0  0
 12 24  1  0  0  0  0
 13 20  1  0  0  0  0
 13 22  2  0  0  0  0
 14 24  2  0  0  0  0
 14 25  1  0  0  0  0
 15 26  1  0  0  0  0
 16 26  1  0  0  0  0
 16 27  2  0  0  0  0
 16 28  1  0  0  0  0
 17 19  2  0  0  0  0
 17 33  1  0  0  0  0
 18 20  2  0  0  0  0
 18 34  1  0  0  0  0
 19 44  1  0  0  0  0
 20 35  1  0  0  0  0
 21 84  1  0  0  0  0
 22 85  1  0  0  0  0
 23 25  2  0  0  0  0
 23 84  1  0  0  0  0
 24 86  1  0  0  0  0
 25 87  1  0  0  0  0
 26 66  2  0  0  0  0
 27 67  1  0  0  0  0
 27 71  1  0  0  0  0
 28 72  1  0  0  0  0
 28 78  2  0  0  0  0
 29 45  1  0  0  0  0
 29 73  1  0  0  0  0
 29 79  2  0  0  0  0
 30 61  1  0  0  0  0
 30 68  1  0  0  0  0
 30 80  2  0  0  0  0
 31 62  1  0  0  0  0
 31 74  1  0  0  0  0
 31 81  2  0  0  0  0
 32 69  1  0  0  0  0
 32 75  1  0  0  0  0
 32 82  2  0  0  0  0
 33 36  1  0  0  0  0
 34 45  1  0  0  0  0
 35 68  1  0  0  0  0
 36 38  1  0  0  0  0
 37 39  1  0  0  0  0
 37 40  1  0  0  0  0
 38 44  1  0  0  0  0
 39 46  1  0  0  0  0
 40 69  1  0  0  0  0
 41 46  1  0  0  0  0
 41 69  1  0  0  0  0
 42 48  1  0  0  0  0
 42 70  1  0  0  0  0
 43 47  1  0  0  0  0
 43 76  1  0  0  0  0
 44 73  1  0  0  0  0
 45 68  1  0  0  0  0
 46 67  1  0  0  0  0
 47 57  1  0  0  0  0
 47 70  1  0  0  0  0
 48 58  1  0  0  0  0
 48 76  1  0  0  0  0
 49 62  1  0  0  0  0
 50 63  1  0  0  0  0
 51 64  1  0  0  0  0
 52 64  1  0  0  0  0
 53 64  1  0  0  0  0
 54 65  1  0  0  0  0
 55 65  1  0  0  0  0
 56 77  1  0  0  0  0
 57 63  1  0  0  0  0
 58 75  1  0  0  0  0
 59 65  1  0  0  0  0
 59 70  1  0  0  0  0
 60 63  1  0  0  0  0
 60 85  1  0  0  0  0
 61 64  1  0  0  0  0
 61 74  1  0  0  0  0
 62 77  1  0  0  0  0
 65 83  1  0  0  0  0
 66 67  1  0  0  0  0
M  CHG  2  76   1  77   1
M  ISO  4  32 100  60 101  75 100  85 101
M  END
> <Batch ID>
0113

> <Smiles>
CNC(C)C(=O)NC(C(=O)N1Cc2cc([101O:1][101CH2:1]C(C)CC3CNC(C[100NH:0][100C:0](=O)N4CCCC(n5nc(-c6ccc(Oc7ccc(F)cc7F)cc6)c(C(N)=O)c5N)C4)CN3CC(C)(C)O)ccc2CC1C(=O)NC1CCCc2ccccc21)C(C)(C)C

> <Shape>
0.244

> <Color>
0.097

> <Negative vol penalty>
0.000

$$$$

  -OEChem-04052320053D

 87 95  0     1  0  0  0  0  0999 V2000
  -30.0951  -18.8028   13.7290 C   0  0  0  0  0  0  0  0  0  0  0  0
  -29.0598  -18.9709   14.6430 C   0  0  0  0  0  0  0  0  0  0  0  0
  -26.1470  -17.1437   22.4494 C   0  0  0  0  0  0  0  0  0  0  0  0
  -24.6841  -18.3304   20.9366 C   0  0  0  0  0  0  0  0  0  0  0  0
  -31.2790  -19.5238   13.8780 C   0  0  0  0  0  0  0  0  0  0  0  0
  -29.2084  -19.8594   15.7073 C   0  0  0  0  0  0  0  0  0  0  0  0
  -25.1177  -22.7632   16.3994 C   0  0  0  0  0  0  0  0  0  0  0  0
  -20.0419  -26.7489   21.7344 C   0  0  0  0  0  0  0  0  0  0  0  0
  -25.4445  -15.9641   22.2034 C   0  0  0  0  0  0  0  0  0  0  0  0
  -23.9816  -17.1507   20.6905 C   0  0  0  0  0  0  0  0  0  0  0  0
  -24.0269  -22.1830   17.0455 C   0  0  0  0  0  0  0  0  0  0  0  0
  -25.3003  -13.6099   19.7806 C   0  0  0  0  0  0  0  0  0  0  0  0
  -26.0408  -12.4510   19.5477 C   0  0  0  0  0  0  0  0  0  0  0  0
  -20.0572  -25.5317   21.0625 C   0  0  0  0  0  0  0  0  0  0  0  0
  -24.6819  -23.2577   19.1034 C   0  0  0  0  0  0  0  0  0  0  0  0
  -25.0033  -11.4034   21.4617 C   0  0  0  0  0  0  0  0  0  0  0  0
  -25.7667  -18.3269   21.8160 C   0  0  0  0  0  0  0  0  0  0  0  0
  -27.6111  -20.0314   21.3681 C   0  0  0  0  0  0  0  0  0  0  0  0
  -31.4385  -20.4288   14.9393 C   0  0  0  0  0  0  0  0  0  0  0  0
  -26.0064  -23.5877   17.1043 C   0  0  0  0  0  0  0  0  0  0  0  0
  -30.3961  -20.5923   15.8715 C   0  0  0  0  0  0  0  0  0  0  0  0
  -25.7817  -23.8492   18.4634 C   0  0  0  0  0  0  0  0  0  0  0  0
  -21.0727  -27.0651   22.6123 C   0  0  0  0  0  0  0  0  0  0  0  0
  -24.3618  -15.9675   21.3239 C   0  0  0  0  0  0  0  0  0  0  0  0
  -23.8105  -22.4279   18.3983 C   0  0  0  0  0  0  0  0  0  0  0  0
  -24.4113  -13.6656   20.8541 C   0  0  0  0  0  0  0  0  0  0  0  0
  -25.8923  -11.3478   20.3882 C   0  0  0  0  0  0  0  0  0  0  0  0
  -24.2628  -12.5624   21.6946 C   0  0  0  0  0  0  0  0  0  0  0  0
  -26.4916  -19.5460   22.0702 C   0  0  0  0  0  0  0  0  0  0  0  0
  -22.0875  -26.1371   22.7821 C   0  0  0  0  0  0  0  0  0  0  0  0
  -21.1175  -24.6724   21.3015 C   0  0  0  0  0  0  0  0  0  0  0  0
  -27.9223  -21.2140   21.9935 C   0  0  0  0  0  0  0  0  0  0  0  0
  -28.3074  -19.4642   20.2505 C   0  0  0  0  0  0  0  0  0  0  0  0
  -29.1050  -23.4658   17.8025 C   0  0  0  0  0  0  0  0  0  0  0  0
  -28.5534  -26.4295   19.0002 C   0  0  0  0  0  0  0  0  0  0  0  0
  -26.3167  -28.6673   20.2795 C   0  0  0  0  0  0  0  0  0  0  0  0
  -24.6938  -25.0989   25.2084 C   0  0  0  0  0  0  0  0  0  0  0  0
  -32.7545  -21.1507   15.0861 C   0  0  0  0  0  0  0  0  0  0  0  0
  -27.1631  -24.2274   16.3866 C   0  0  0  0  0  0  0  0  0  0  0  0
  -26.6949  -24.7433   19.2605 C   0  0  0  0  0  0  0  0  0  0  0  0
  -32.6894  -22.3504   16.0278 C   0  0  0  0  0  0  0  0  0  0  0  0
  -27.6391  -23.3886   26.2458 C   0  0  0  0  0  0  0  0  0  0  0  0
  -31.9576  -21.9804   17.3140 C   0  0  0  0  0  0  0  0  0  0  0  0
  -27.7800  -22.2536   25.2299 C   0  0  0  0  0  0  0  0  0  0  0  0
  -26.1757  -23.6663   26.5824 C   0  0  0  0  0  0  0  0  0  0  0  0
  -25.4495  -22.7812   24.3999 C   0  0  0  0  0  0  0  0  0  0  0  0
  -30.5100  -21.5651   17.0251 C   0  0  1  0  0  0  0  0  0  0  0  0
  -28.2950  -24.6372   17.3238 C   0  0  1  0  0  0  0  0  0  0  0  0
  -26.9047  -22.5019   23.9868 C   0  0  2  0  0  0  0  0  0  0  0  0
  -19.5476  -27.4990   25.1995 C   0  0  0  0  0  0  0  0  0  0  0  0
  -26.1693  -30.9955   21.2041 C   0  0  0  0  0  0  0  0  0  0  0  0
  -20.4041  -20.6041   20.2489 C   0  0  0  0  0  0  0  0  0  0  0  0
  -29.7925  -25.4662   21.6169 C   0  0  0  0  0  0  0  0  0  0  0  0
  -28.7739  -27.4531   22.7497 C   0  0  0  0  0  0  0  0  0  0  0  0
  -30.4568  -27.7796   20.9375 C   0  0  0  0  0  0  0  0  0  0  0  0
  -24.4538  -29.5217   18.1445 C   0  0  0  0  0  0  0  0  0  0  0  0
  -23.2203  -26.4226   23.7130 C   0  0  0  0  0  0  0  0  0  0  0  0
  -19.8049  -28.6221   24.2022 C   0  0  0  0  0  0  0  0  0  0  0  0
  -20.0865  -23.0630   19.6977 C   0  0  0  0  0  0  0  0  0  0  0  0
  -21.5830  -21.6087   18.2458 C   0  0  0  0  0  0  0  0  0  1  0  0
  -21.0614  -28.3674   23.3350 C   0  0  2  0  0  0  0  0  0  0  0  0
  -28.1336  -26.9792   20.3421 C   0  0  1  0  0  0  0  0  0  0  0  0
  -26.0588  -30.1286   19.9595 C   0  0  2  0  0  0  0  0  0  0  0  0
  -20.3349  -21.6560   19.1361 C   0  0  1  0  0  0  0  0  0  0  0  0
  -29.2729  -26.9011   21.3972 C   0  0  0  0  0  0  0  0  0  0  0  0
  -26.1170  -20.3540   23.0655 N   0  0  0  0  0  0  0  0  0  0  0  0
  -22.1366  -24.9446   22.1471 N   0  0  0  0  0  0  0  0  0  0  0  0
  -27.0062  -21.3592   22.9935 N   0  0  0  0  0  0  0  0  0  0  0  0
  -27.8155  -25.3404   18.5154 N   0  0  0  0  0  0  0  0  0  0  0  0
  -25.4008  -23.8948   25.3604 N   0  0  0  0  0  0  0  0  0  0  0  0
  -28.8875  -22.1334   21.7802 N   0  0  0  0  0  0  0  0  0  0  0  0
  -27.8553  -18.2434   19.7313 N   0  0  0  0  0  0  0  0  0  0  0  0
  -21.1189  -23.4635   20.6244 N   0  0  0  0  0  0  0  0  0  0  0  0
  -29.6874  -22.7318   16.7869 N   0  0  0  0  0  0  0  0  0  0  0  0
  -27.6407  -28.3297   20.0938 N   0  0  0  0  0  0  0  0  0  0  0  0
  -23.9906  -25.2375   24.0179 N   0  0  0  0  0  0  0  0  0  0  0  0
  -21.1907  -29.5474   22.4044 N   0  3  0  0  0  0  0  0  0  0  0  0
  -24.6938  -30.3004   19.3867 N   0  3  0  0  0  0  0  0  0  0  0  0
  -29.3111  -20.0151   19.7381 O   0  0  0  0  0  0  0  0  0  0  0  0
  -29.1962  -23.2451   19.0045 O   0  0  0  0  0  0  0  0  0  0  0  0
  -29.4966  -26.9519   18.4009 O   0  0  0  0  0  0  0  0  0  0  0  0
  -25.4329  -27.9027   20.6600 O   0  0  0  0  0  0  0  0  0  0  0  0
  -24.6937  -25.9871   26.0674 O   0  0  0  0  0  0  0  0  0  0  0  0
  -23.6763  -14.8166   21.0835 O   0  0  0  0  0  0  0  0  0  0  0  0
  -22.7470  -21.8623   19.0315 O   0  0  0  0  0  0  0  0  0  1  0  0
  -26.6023  -10.2344   20.1636 F   0  0  0  0  0  0  0  0  0  0  0  0
  -23.4094  -12.6095   22.7267 F   0  0  0  0  0  0  0  0  0  0  0  0
  1  2  1  0  0  0  0
  1  5  2  0  0  0  0
  2  6  2  0  0  0  0
  3  9  2  0  0  0  0
  3 17  1  0  0  0  0
  4 10  1  0  0  0  0
  4 17  2  0  0  0  0
  5 19  1  0  0  0  0
  6 21  1  0  0  0  0
  7 11  2  0  0  0  0
  7 20  1  0  0  0  0
  8 14  2  0  0  0  0
  8 23  1  0  0  0  0
  9 24  1  0  0  0  0
 10 24  2  0  0  0  0
 11 25  1  0  0  0  0
 12 13  2  0  0  0  0
 12 26  1  0  0  0  0
 13 27  1  0  0  0  0
 14 31  1  0  0  0  0
 15 22  1  0  0  0  0
 15 25  2  0  0  0  0
 16 27  2  0  0  0  0
 16 28  1  0  0  0  0
 17 29  1  0  0  0  0
 18 29  1  0  0  0  0
 18 32  2  0  0  0  0
 18 33  1  0  0  0  0
 19 21  2  0  0  0  0
 19 38  1  0  0  0  0
 20 22  2  0  0  0  0
 20 39  1  0  0  0  0
 21 47  1  0  0  0  0
 22 40  1  0  0  0  0
 23 30  2  0  0  0  0
 23 61  1  0  0  0  0
 24 84  1  0  0  0  0
 25 85  1  0  0  0  0
 26 28  2  0  0  0  0
 26 84  1  0  0  0  0
 27 86  1  0  0  0  0
 28 87  1  0  0  0  0
 29 66  2  0  0  0  0
 30 57  1  0  0  0  0
 30 67  1  0  0  0  0
 31 67  2  0  0  0  0
 31 73  1  0  0  0  0
 32 68  1  0  0  0  0
 32 71  1  0  0  0  0
 33 72  1  0  0  0  0
 33 79  2  0  0  0  0
 34 48  1  0  0  0  0
 34 74  1  0  0  0  0
 34 80  2  0  0  0  0
 35 62  1  0  0  0  0
 35 69  1  0  0  0  0
 35 81  2  0  0  0  0
 36 63  1  0  0  0  0
 36 75  1  0  0  0  0
 36 82  2  0  0  0  0
 37 70  1  0  0  0  0
 37 76  1  0  0  0  0
 37 83  2  0  0  0  0
 38 41  1  0  0  0  0
 39 48  1  0  0  0  0
 40 69  1  0  0  0  0
 41 43  1  0  0  0  0
 42 44  1  0  0  0  0
 42 45  1  0  0  0  0
 43 47  1  0  0  0  0
 44 49  1  0  0  0  0
 45 70  1  0  0  0  0
 46 49  1  0  0  0  0
 46 70  1  0  0  0  0
 47 74  1  0  0  0  0
 48 69  1  0  0  0  0
 49 68  1  0  0  0  0
 50 58  1  0  0  0  0
 51 63  1  0  0  0  0
 52 64  1  0  0  0  0
 53 65  1  0  0  0  0
 54 65  1  0  0  0  0
 55 65  1  0  0  0  0
 56 78  1  0  0  0  0
 57 76  1  0  0  0  0
 58 61  1  0  0  0  0
 59 64  1  0  0  0  0
 59 73  1  0  0  0  0
 60 64  1  0  0  0  0
 60 85  1  0  0  0  0
 61 77  1  0  0  0  0
 62 65  1  0  0  0  0
 62 75  1  0  0  0  0
 63 78  1  0  0  0  0
 66 68  1  0  0  0  0
M  CHG  2  77   1  78   1
M  ISO  4  37 100  60 101  76 100  85 101
M  END
> <Batch ID>
0113

> <Smiles>
CCC(N)c1ccc(NCC(C)[101CH2:1][101O:1]c2ccc3c(c2)CN(C(=O)C(NC(=O)C(C)NC)C(C)(C)C)C(C(=O)NC2CCCc4ccccc42)C3)nc1C[100NH:0][100C:0](=O)N1CCCC(n2nc(-c3ccc(Oc4ccc(F)cc4F)cc3)c(C(N)=O)c2N)C1

> <Shape>
0.187

> <Color>
0.067

> <Negative vol penalty>
0.000

$$$$

  -OEChem-04052320053D

 81 88  0     1  0  0  0  0  0999 V2000
  -29.0171  -25.8970   12.9902 C   0  0  0  0  0  0  0  0  0  0  0  0
  -29.0945  -24.9566   14.0124 C   0  0  0  0  0  0  0  0  0  0  0  0
  -24.6198  -14.1485   20.9604 C   0  0  0  0  0  0  0  0  0  0  0  0
  -26.8502  -13.6187   20.1977 C   0  0  0  0  0  0  0  0  0  0  0  0
  -28.9072  -27.2524   13.2983 C   0  0  0  0  0  0  0  0  0  0  0  0
  -29.0630  -25.3710   15.3435 C   0  0  0  0  0  0  0  0  0  0  0  0
  -26.7925  -23.2513   21.7985 C   0  0  0  0  0  0  0  0  0  0  0  0
  -24.1856  -12.8816   20.5708 C   0  0  0  0  0  0  0  0  0  0  0  0
  -26.4160  -12.3517   19.8081 C   0  0  0  0  0  0  0  0  0  0  0  0
  -27.2600  -23.0739   23.1000 C   0  0  0  0  0  0  0  0  0  0  0  0
  -22.5720   -9.6572   20.1076 C   0  0  0  0  0  0  0  0  0  0  0  0
  -21.7596   -8.9493   20.9933 C   0  0  0  0  0  0  0  0  0  0  0  0
  -26.9879  -25.4350   23.5130 C   0  0  0  0  0  0  0  0  0  0  0  0
  -23.5136   -9.0136   22.6535 C   0  0  0  0  0  0  0  0  0  0  0  0
  -25.9521  -14.5172   20.7738 C   0  0  0  0  0  0  0  0  0  0  0  0
  -26.9191  -16.1990   22.4303 C   0  0  0  0  0  0  0  0  0  0  0  0
  -28.8646  -27.6829   14.6338 C   0  0  0  0  0  0  0  0  0  0  0  0
  -26.4289  -24.5258   21.3403 C   0  0  0  0  0  0  0  0  0  0  0  0
  -28.9538  -26.7335   15.6697 C   0  0  0  0  0  0  0  0  0  0  0  0
  -26.5137  -25.6254   22.2061 C   0  0  0  0  0  0  0  0  0  0  0  0
  -25.0836  -11.9831   19.9947 C   0  0  0  0  0  0  0  0  0  0  0  0
  -27.3605  -24.1663   23.9566 C   0  0  0  0  0  0  0  0  0  0  0  0
  -23.8553  -10.0432   20.4948 C   0  0  0  0  0  0  0  0  0  0  0  0
  -22.2304   -8.6275   22.2663 C   0  0  0  0  0  0  0  0  0  0  0  0
  -24.3261   -9.7215   21.7678 C   0  0  0  0  0  0  0  0  0  0  0  0
  -26.4012  -15.8260   21.1756 C   0  0  0  0  0  0  0  0  0  0  0  0
  -27.1948  -17.5385   22.3035 C   0  0  0  0  0  0  0  0  0  0  0  0
  -27.1319  -15.4056   23.6054 C   0  0  0  0  0  0  0  0  0  0  0  0
  -27.4591  -26.4599   19.0378 C   0  0  0  0  0  0  0  0  0  0  0  0
  -24.9060  -28.2489   19.9343 C   0  0  0  0  0  0  0  0  0  0  0  0
  -22.6597  -29.0778   22.3661 C   0  0  0  0  0  0  0  0  0  0  0  0
  -29.2638  -21.8370   19.4362 C   0  0  0  0  0  0  0  0  0  0  0  0
  -28.7927  -29.1624   14.9176 C   0  0  0  0  0  0  0  0  0  0  0  0
  -25.9013  -24.6960   19.9421 C   0  0  0  0  0  0  0  0  0  0  0  0
  -26.1169  -27.0111   21.7693 C   0  0  0  0  0  0  0  0  0  0  0  0
  -28.3887  -29.4882   16.3532 C   0  0  0  0  0  0  0  0  0  0  0  0
  -25.9530  -20.8269   18.6631 C   0  0  0  0  0  0  0  0  0  0  0  0
  -29.1811  -28.6340   17.3377 C   0  0  0  0  0  0  0  0  0  0  0  0
  -25.8152  -19.4669   19.3504 C   0  0  0  0  0  0  0  0  0  0  0  0
  -27.3521  -21.0277   18.0846 C   0  0  0  0  0  0  0  0  0  0  0  0
  -28.3164  -19.4665   19.7272 C   0  0  0  0  0  0  0  0  0  0  0  0
  -28.8979  -27.1419   17.1258 C   0  0  1  0  0  0  0  0  0  0  0  0
  -26.0455  -26.1217   19.4185 C   0  0  1  0  0  0  0  0  0  0  0  0
  -26.9411  -19.2396   20.3777 C   0  0  2  0  0  0  0  0  0  0  0  0
  -20.7160  -30.5999   22.8164 C   0  0  0  0  0  0  0  0  0  0  0  0
  -32.1090  -23.5780   25.6023 C   0  0  0  0  0  0  0  0  0  0  0  0
  -31.6788  -26.2942   24.1283 C   0  0  0  0  0  0  0  0  0  0  0  0
  -27.7347  -25.5630   27.0483 C   0  0  0  0  0  0  0  0  0  0  0  0
  -26.8244  -30.5997   20.2555 C   0  0  0  0  0  0  0  0  0  0  0  0
  -25.0543  -31.7730   21.5814 C   0  0  0  0  0  0  0  0  0  0  0  0
  -24.6342  -31.1778   19.1956 C   0  0  0  0  0  0  0  0  0  0  0  0
  -20.8324  -26.7969   22.8323 C   0  0  0  0  0  0  0  0  0  0  0  0
  -29.9297  -24.6624   26.1969 C   0  0  0  0  0  0  0  0  0  0  0  0
  -31.5735  -24.2512   22.6277 C   0  0  0  0  0  0  0  0  0  0  0  0
  -31.1735  -22.5010   20.8874 C   0  0  0  0  0  0  0  0  0  0  0  0
  -24.6722  -29.3492   20.9411 C   0  0  1  0  0  0  0  0  0  0  0  0
  -21.1491  -29.2240   22.3345 C   0  0  2  0  0  0  0  0  0  0  0  0
  -30.7636  -24.0593   25.0377 C   0  0  1  0  0  0  0  0  0  0  0  0
  -30.9210  -25.0001   23.8034 C   0  0  1  0  0  0  0  0  0  0  0  0
  -28.5078  -25.0957   25.8209 C   0  0  1  0  0  0  0  0  0  1  0  0
  -25.3057  -30.6993   20.5013 C   0  0  0  0  0  0  0  0  0  0  0  0
  -26.3498  -16.8462   20.3150 N   0  0  0  0  0  0  0  0  0  0  0  0
  -26.8389  -17.8735   21.0302 N   0  0  0  0  0  0  0  0  0  0  0  0
  -25.6129  -27.1274   20.3909 N   0  0  0  0  0  0  0  0  0  0  0  0
  -28.3687  -20.8031   19.1150 N   0  0  0  0  0  0  0  0  0  0  0  0
  -27.7046  -18.4508   23.1581 N   0  0  0  0  0  0  0  0  0  0  0  0
  -26.7939  -14.0460   23.5639 N   0  0  0  0  0  0  0  0  0  0  0  0
  -27.6207  -26.7828   17.7040 N   0  0  0  0  0  0  0  0  0  0  0  0
  -23.2302  -29.4072   21.1548 N   0  0  0  0  0  0  0  0  0  0  0  0
  -30.1891  -21.5441   20.4315 N   0  0  0  0  0  0  0  0  0  0  0  0
  -20.5110  -28.1981   23.2071 N   0  3  0  0  0  0  0  0  0  0  0  0
  -30.6300  -23.2592   22.0490 N   0  3  0  0  0  0  0  0  0  0  0  0
  -27.5924  -15.8916   24.6662 O   0  0  0  0  0  0  0  0  0  0  0  0
  -28.3380  -26.4316   19.8914 O   0  0  0  0  0  0  0  0  0  0  0  0
  -24.4712  -28.3765   18.7870 O   0  0  0  0  0  0  0  0  0  0  0  0
  -23.2727  -28.7118   23.3666 O   0  0  0  0  0  0  0  0  0  0  0  0
  -29.2338  -22.9416   18.8832 O   0  0  0  0  0  0  0  0  0  0  0  0
  -24.6603  -10.7467   19.6146 O   0  0  0  0  0  0  0  0  0  0  0  0
  -27.8200  -23.9950   25.2352 O   0  0  0  0  0  0  0  0  0  1  0  0
  -21.4496   -7.9491   23.1173 F   0  0  0  0  0  0  0  0  0  0  0  0
  -25.5575  -10.0907   22.1459 F   0  0  0  0  0  0  0  0  0  0  0  0
  1  2  1  0  0  0  0
  1  5  2  0  0  0  0
  2  6  2  0  0  0  0
  3  8  2  0  0  0  0
  3 15  1  0  0  0  0
  4  9  1  0  0  0  0
  4 15  2  0  0  0  0
  5 17  1  0  0  0  0
  6 19  1  0  0  0  0
  7 10  2  0  0  0  0
  7 18  1  0  0  0  0
  8 21  1  0  0  0  0
  9 21  2  0  0  0  0
 10 22  1  0  0  0  0
 11 12  2  0  0  0  0
 11 23  1  0  0  0  0
 12 24  1  0  0  0  0
 13 20  1  0  0  0  0
 13 22  2  0  0  0  0
 14 24  2  0  0  0  0
 14 25  1  0  0  0  0
 15 26  1  0  0  0  0
 16 26  1  0  0  0  0
 16 27  2  0  0  0  0
 16 28  1  0  0  0  0
 17 19  2  0  0  0  0
 17 33  1  0  0  0  0
 18 20  2  0  0  0  0
 18 34  1  0  0  0  0
 19 42  1  0  0  0  0
 20 35  1  0  0  0  0
 21 78  1  0  0  0  0
 22 79  1  0  0  0  0
 23 25  2  0  0  0  0
 23 78  1  0  0  0  0
 24 80  1  0  0  0  0
 25 81  1  0  0  0  0
 26 62  2  0  0  0  0
 27 63  1  0  0  0  0
 27 66  1  0  0  0  0
 28 67  1  0  0  0  0
 28 73  2  0  0  0  0
 29 43  1  0  0  0  0
 29 68  1  0  0  0  0
 29 74  2  0  0  0  0
 30 56  1  0  0  0  0
 30 64  1  0  0  0  0
 30 75  2  0  0  0  0
 31 57  1  0  0  0  0
 31 69  1  0  0  0  0
 31 76  2  0  0  0  0
 32 65  1  0  0  0  0
 32 70  1  0  0  0  0
 32 77  2  0  0  0  0
 33 36  1  0  0  0  0
 34 43  1  0  0  0  0
 35 64  1  0  0  0  0
 36 38  1  0  0  0  0
 37 39  1  0  0  0  0
 37 40  1  0  0  0  0
 38 42  1  0  0  0  0
 39 44  1  0  0  0  0
 40 65  1  0  0  0  0
 41 44  1  0  0  0  0
 41 65  1  0  0  0  0
 42 68  1  0  0  0  0
 43 64  1  0  0  0  0
 44 63  1  0  0  0  0
 45 57  1  0  0  0  0
 46 58  1  0  0  0  0
 47 59  1  0  0  0  0
 48 60  1  0  0  0  0
 49 61  1  0  0  0  0
 50 61  1  0  0  0  0
 51 61  1  0  0  0  0
 52 71  1  0  0  0  0
 53 58  1  0  0  0  0
 53 60  1  0  0  0  0
 54 59  1  0  0  0  0
 54 72  1  0  0  0  0
 55 70  1  0  0  0  0
 55 72  1  0  0  0  0
 56 61  1  0  0  0  0
 56 69  1  0  0  0  0
 57 71  1  0  0  0  0
 58 59  1  0  0  0  0
 60 79  1  0  0  0  0
 62 63  1  0  0  0  0
M  CHG  2  71   1  72   1
M  ISO  4  32 100  60 101  70 100  79 101
M  END
> <Batch ID>
0113

> <Smiles>
CNC(C)C(=O)NC(C(=O)N1Cc2cc([101O:1][101CH:1](C)CC(C)C(C)CNC[100NH:0][100C:0](=O)N3CCCC(n4nc(-c5ccc(Oc6ccc(F)cc6F)cc5)c(C(N)=O)c4N)C3)ccc2CC1C(=O)NC1CCCc2ccccc21)C(C)(C)C

> <Shape>
0.213

> <Color>
0.085

> <Negative vol penalty>
0.000

$$$$

  -OEChem-04052320053D

 83 91  0     1  0  0  0  0  0999 V2000
  -33.1729  -33.8197   16.7824 C   0  0  0  0  0  0  0  0  0  0  0  0
  -32.8924  -32.4597   16.8672 C   0  0  0  0  0  0  0  0  0  0  0  0
  -24.2435   -9.7272   19.7351 C   0  0  0  0  0  0  0  0  0  0  0  0
  -24.4112   -9.8247   22.1433 C   0  0  0  0  0  0  0  0  0  0  0  0
  -32.8716  -34.6605   17.8530 C   0  0  0  0  0  0  0  0  0  0  0  0
  -32.3114  -31.9396   18.0232 C   0  0  0  0  0  0  0  0  0  0  0  0
  -28.2869  -27.3364   18.3699 C   0  0  0  0  0  0  0  0  0  0  0  0
  -23.8307   -8.3974   19.8176 C   0  0  0  0  0  0  0  0  0  0  0  0
  -23.9984   -8.4949   22.2259 C   0  0  0  0  0  0  0  0  0  0  0  0
  -28.4346  -25.9815   18.6632 C   0  0  0  0  0  0  0  0  0  0  0  0
  -21.0950   -6.7744   22.0506 C   0  0  0  0  0  0  0  0  0  0  0  0
  -20.1311   -6.4548   23.0067 C   0  0  0  0  0  0  0  0  0  0  0  0
  -27.8532  -26.4220   20.9626 C   0  0  0  0  0  0  0  0  0  0  0  0
  -21.6750   -4.9162   24.0490 C   0  0  0  0  0  0  0  0  0  0  0  0
  -24.5338  -10.4409   20.8979 C   0  0  0  0  0  0  0  0  0  0  0  0
  -24.1438  -12.9608   20.8239 C   0  0  0  0  0  0  0  0  0  0  0  0
  -32.2778  -34.1520   19.0189 C   0  0  0  0  0  0  0  0  0  0  0  0
  -27.9313  -28.2475   19.3749 C   0  0  0  0  0  0  0  0  0  0  0  0
  -32.0031  -32.7742   19.1109 C   0  0  0  0  0  0  0  0  0  0  0  0
  -27.6992  -27.7876   20.6790 C   0  0  0  0  0  0  0  0  0  0  0  0
  -23.7081   -7.7813   21.0630 C   0  0  0  0  0  0  0  0  0  0  0  0
  -28.2206  -25.5245   19.9603 C   0  0  0  0  0  0  0  0  0  0  0  0
  -22.3489   -6.1648   22.0935 C   0  0  0  0  0  0  0  0  0  0  0  0
  -20.4210   -5.5258   24.0059 C   0  0  0  0  0  0  0  0  0  0  0  0
  -22.6389   -5.2358   23.0927 C   0  0  0  0  0  0  0  0  0  0  0  0
  -24.9608  -11.8144   20.8132 C   0  0  0  0  0  0  0  0  0  0  0  0
  -25.0237  -14.0104   20.7210 C   0  0  0  0  0  0  0  0  0  0  0  0
  -22.7171  -13.0674   20.9185 C   0  0  0  0  0  0  0  0  0  0  0  0
  -29.3130  -30.7915   20.6874 C   0  0  0  0  0  0  0  0  0  0  0  0
  -26.4644  -31.0655   22.2148 C   0  0  0  0  0  0  0  0  0  0  0  0
  -23.6231  -29.5472   23.3411 C   0  0  0  0  0  0  0  0  0  0  0  0
  -29.7707  -16.5446   22.2005 C   0  0  0  0  0  0  0  0  0  0  0  0
  -32.0137  -35.0920   20.1684 C   0  0  0  0  0  0  0  0  0  0  0  0
  -27.7499  -29.7019   19.0365 C   0  0  0  0  0  0  0  0  0  0  0  0
  -27.2960  -28.7218   21.7894 C   0  0  0  0  0  0  0  0  0  0  0  0
  -31.0551  -34.5241   21.2119 C   0  0  0  0  0  0  0  0  0  0  0  0
  -27.6182  -18.3438   25.4181 C   0  0  0  0  0  0  0  0  0  0  0  0
  -29.0838  -18.0741   25.7620 C   0  0  0  0  0  0  0  0  0  0  0  0
  -29.9665  -14.0699   19.6482 C   0  0  0  0  0  0  0  0  0  0  0  0
  -31.4396  -33.0910   21.5661 C   0  0  0  0  0  0  0  0  0  0  0  0
  -28.6174  -13.3535   19.7290 C   0  0  0  0  0  0  0  0  0  0  0  0
  -27.6265  -19.0359   24.0575 C   0  0  0  0  0  0  0  0  0  0  0  0
  -29.8991  -18.5583   24.5637 C   0  0  0  0  0  0  0  0  0  0  0  0
  -30.4729  -14.4773   21.0301 C   0  0  0  0  0  0  0  0  0  0  0  0
  -28.1720  -14.5556   21.9097 C   0  0  0  0  0  0  0  0  0  0  0  0
  -31.3504  -32.1764   20.3384 C   0  0  1  0  0  0  0  0  0  0  0  0
  -27.8865  -30.6187   20.2482 C   0  0  1  0  0  0  0  0  0  0  0  0
  -27.5939  -14.1748   20.5360 C   0  0  2  0  0  0  0  0  0  0  0  0
  -28.9177  -18.5577   23.3857 C   0  0  0  0  0  0  0  0  0  0  0  0
  -28.7226  -18.5242   19.3279 C   0  0  0  0  0  0  0  0  0  0  0  0
  -21.4967  -30.0223   24.5862 C   0  0  0  0  0  0  0  0  0  0  0  0
  -28.0203  -31.1403   24.8384 C   0  0  0  0  0  0  0  0  0  0  0  0
  -25.8784  -30.6580   26.0417 C   0  0  0  0  0  0  0  0  0  0  0  0
  -26.1139  -32.7539   24.7097 C   0  0  0  0  0  0  0  0  0  0  0  0
  -21.9551  -28.7494   21.0301 C   0  0  0  0  0  0  0  0  0  0  0  0
  -29.3659  -19.4902   22.2642 C   0  0  0  0  0  0  0  0  0  0  0  0
  -27.6989  -18.9750   20.3605 C   0  0  0  0  0  0  0  0  0  0  0  0
  -27.5909  -21.9712   19.8193 C   0  0  0  0  0  0  0  0  0  0  0  0
  -28.6453  -21.3522   20.7376 C   0  0  0  0  0  0  0  0  0  0  0  0
  -28.0831  -23.2743   19.2027 C   0  0  0  0  0  0  0  0  0  1  0  0
  -25.8901  -30.5406   23.5085 C   0  0  1  0  0  0  0  0  0  0  0  0
  -22.1596  -29.9323   23.2205 C   0  0  2  0  0  0  0  0  0  0  0  0
  -28.2111  -20.0144   21.3810 C   0  0  2  0  0  0  0  0  0  0  0  0
  -26.4852  -31.2556   24.7543 C   0  0  0  0  0  0  0  0  0  0  0  0
  -26.2598  -12.1079   20.7114 N   0  0  0  0  0  0  0  0  0  0  0  0
  -26.2658  -13.4507   20.6570 N   0  0  0  0  0  0  0  0  0  0  0  0
  -27.1375  -30.1355   21.4100 N   0  0  0  0  0  0  0  0  0  0  0  0
  -29.4558  -15.2546   21.7424 N   0  0  0  0  0  0  0  0  0  0  0  0
  -24.8483  -15.3483   20.6797 N   0  0  0  0  0  0  0  0  0  0  0  0
  -21.9643  -11.8894   21.0178 N   0  0  0  0  0  0  0  0  0  0  0  0
  -29.9717  -31.8334   20.0628 N   0  0  0  0  0  0  0  0  0  0  0  0
  -24.4408  -30.6564   23.3885 N   0  0  0  0  0  0  0  0  0  0  0  0
  -28.7479  -17.2151   22.8601 N   0  0  0  0  0  0  0  0  0  0  0  0
  -21.4240  -28.9237   22.4065 N   0  3  0  0  0  0  0  0  0  0  0  0
  -22.1263  -14.1737   20.8984 O   0  0  0  0  0  0  0  0  0  0  0  0
  -29.7809  -30.0365   21.5316 O   0  0  0  0  0  0  0  0  0  0  0  0
  -26.3148  -32.2553   21.9255 O   0  0  0  0  0  0  0  0  0  0  0  0
  -24.0025  -28.3794   23.3921 O   0  0  0  0  0  0  0  0  0  0  0  0
  -30.8794  -17.0627   22.0292 O   0  0  0  0  0  0  0  0  0  0  0  0
  -23.3051   -6.4837   21.1440 O   0  0  0  0  0  0  0  0  0  0  0  0
  -28.3647  -24.2025   20.2494 O   0  0  0  0  0  0  0  0  0  1  0  0
  -19.4958   -5.2201   24.9250 F   0  0  0  0  0  0  0  0  0  0  0  0
  -23.8422   -4.6478   23.1399 F   0  0  0  0  0  0  0  0  0  0  0  0
  1  2  1  0  0  0  0
  1  5  2  0  0  0  0
  2  6  2  0  0  0  0
  3  8  2  0  0  0  0
  3 15  1  0  0  0  0
  4  9  1  0  0  0  0
  4 15  2  0  0  0  0
  5 17  1  0  0  0  0
  6 19  1  0  0  0  0
  7 10  2  0  0  0  0
  7 18  1  0  0  0  0
  8 21  1  0  0  0  0
  9 21  2  0  0  0  0
 10 22  1  0  0  0  0
 11 12  2  0  0  0  0
 11 23  1  0  0  0  0
 12 24  1  0  0  0  0
 13 20  1  0  0  0  0
 13 22  2  0  0  0  0
 14 24  2  0  0  0  0
 14 25  1  0  0  0  0
 15 26  1  0  0  0  0
 16 26  1  0  0  0  0
 16 27  2  0  0  0  0
 16 28  1  0  0  0  0
 17 19  2  0  0  0  0
 17 33  1  0  0  0  0
 18 20  2  0  0  0  0
 18 34  1  0  0  0  0
 19 46  1  0  0  0  0
 20 35  1  0  0  0  0
 21 80  1  0  0  0  0
 22 81  1  0  0  0  0
 23 25  2  0  0  0  0
 23 80  1  0  0  0  0
 24 82  1  0  0  0  0
 25 83  1  0  0  0  0
 26 65  2  0  0  0  0
 27 66  1  0  0  0  0
 27 69  1  0  0  0  0
 28 70  1  0  0  0  0
 28 75  2  0  0  0  0
 29 47  1  0  0  0  0
 29 71  1  0  0  0  0
 29 76  2  0  0  0  0
 30 61  1  0  0  0  0
 30 67  1  0  0  0  0
 30 77  2  0  0  0  0
 31 62  1  0  0  0  0
 31 72  1  0  0  0  0
 31 78  2  0  0  0  0
 32 68  1  0  0  0  0
 32 73  1  0  0  0  0
 32 79  2  0  0  0  0
 33 36  1  0  0  0  0
 34 47  1  0  0  0  0
 35 67  1  0  0  0  0
 36 40  1  0  0  0  0
 37 38  1  0  0  0  0
 37 42  1  0  0  0  0
 38 43  1  0  0  0  0
 39 41  1  0  0  0  0
 39 44  1  0  0  0  0
 40 46  1  0  0  0  0
 41 48  1  0  0  0  0
 42 49  1  0  0  0  0
 43 49  1  0  0  0  0
 44 68  1  0  0  0  0
 45 48  1  0  0  0  0
 45 68  1  0  0  0  0
 46 71  1  0  0  0  0
 47 67  1  0  0  0  0
 48 66  1  0  0  0  0
 49 56  1  0  0  0  0
 49 73  1  0  0  0  0
 50 57  1  0  0  0  0
 51 62  1  0  0  0  0
 52 64  1  0  0  0  0
 53 64  1  0  0  0  0
 54 64  1  0  0  0  0
 55 74  1  0  0  0  0
 56 63  1  0  0  0  0
 57 63  1  0  0  0  0
 58 59  1  0  0  0  0
 58 60  1  0  0  0  0
 59 63  1  0  0  0  0
 60 81  1  0  0  0  0
 61 64  1  0  0  0  0
 61 72  1  0  0  0  0
 62 74  1  0  0  0  0
 65 66  1  0  0  0  0
M  CHG  1  74   1
M  ISO  4  32 100  60 101  73 100  81 101
M  END
> <Batch ID>
0113

> <Smiles>
CCC(CC[101CH2:1][101O:1]c1ccc2c(c1)CN(C(=O)C(NC(=O)C(C)NC)C(C)(C)C)C(C(=O)NC1CCCc3ccccc31)C2)CC1([100NH:0][100C:0](=O)N2CCCC(n3nc(-c4ccc(Oc5ccc(F)cc5F)cc4)c(C(N)=O)c3N)C2)CCCC1

> <Shape>
0.303

> <Color>
0.136

> <Negative vol penalty>
0.000

$$$$

  -OEChem-04052320053D

 79 86  0     1  0  0  0  0  0999 V2000
  -22.9643   -7.6583   24.5142 C   0  0  0  0  0  0  0  0  0  0  0  0
  -24.1115   -8.4148   24.7311 C   0  0  0  0  0  0  0  0  0  0  0  0
  -25.0278  -31.5602   20.0198 C   0  0  0  0  0  0  0  0  0  0  0  0
  -24.8277  -30.7295   22.2797 C   0  0  0  0  0  0  0  0  0  0  0  0
  -22.3294   -7.6969   23.2735 C   0  0  0  0  0  0  0  0  0  0  0  0
  -24.6252   -9.2095   23.7069 C   0  0  0  0  0  0  0  0  0  0  0  0
  -28.0897  -15.3877   22.6376 C   0  0  0  0  0  0  0  0  0  0  0  0
  -24.4508  -32.7679   20.4126 C   0  0  0  0  0  0  0  0  0  0  0  0
  -24.2507  -31.9372   22.6725 C   0  0  0  0  0  0  0  0  0  0  0  0
  -29.2158  -15.8929   21.9891 C   0  0  0  0  0  0  0  0  0  0  0  0
  -23.0552  -34.9337   24.3487 C   0  0  0  0  0  0  0  0  0  0  0  0
  -23.5049  -35.5125   25.5354 C   0  0  0  0  0  0  0  0  0  0  0  0
  -27.9900  -15.9422   19.9120 C   0  0  0  0  0  0  0  0  0  0  0  0
  -25.7394  -35.6414   24.6258 C   0  0  0  0  0  0  0  0  0  0  0  0
  -25.2162  -30.5410   20.9533 C   0  0  0  0  0  0  0  0  0  0  0  0
  -27.1806  -28.9646   20.5487 C   0  0  0  0  0  0  0  0  0  0  0  0
  -22.8301   -8.4999   22.2366 C   0  0  0  0  0  0  0  0  0  0  0  0
  -26.9067  -15.1453   21.9248 C   0  0  0  0  0  0  0  0  0  0  0  0
  -23.9972   -9.2578   22.4507 C   0  0  0  0  0  0  0  0  0  0  0  0
  -26.8495  -15.4363   20.5543 C   0  0  0  0  0  0  0  0  0  0  0  0
  -24.0622  -32.9563   21.7389 C   0  0  0  0  0  0  0  0  0  0  0  0
  -29.1670  -16.1674   20.6255 C   0  0  0  0  0  0  0  0  0  0  0  0
  -23.9476  -34.7087   23.3005 C   0  0  0  0  0  0  0  0  0  0  0  0
  -24.8470  -35.8663   25.6740 C   0  0  0  0  0  0  0  0  0  0  0  0
  -25.2897  -35.0625   23.4390 C   0  0  0  0  0  0  0  0  0  0  0  0
  -25.8117  -29.2931   20.5480 C   0  0  0  0  0  0  0  0  0  0  0  0
  -27.2243  -27.6745   20.0793 C   0  0  0  0  0  0  0  0  0  0  0  0
  -28.3115  -29.7548   20.9389 C   0  0  0  0  0  0  0  0  0  0  0  0
  -25.1589  -12.5675   21.2892 C   0  0  0  0  0  0  0  0  0  0  0  0
  -23.1309  -14.7413   19.9914 C   0  0  0  0  0  0  0  0  0  0  0  0
  -28.1891  -20.9826   19.9158 C   0  0  0  0  0  0  0  0  0  0  0  0
  -22.6939  -17.8279   18.6025 C   0  0  0  0  0  0  0  0  0  0  0  0
  -25.2703  -22.4473   20.0229 C   0  0  0  0  0  0  0  0  0  0  0  0
  -22.1364   -8.4726   20.8977 C   0  0  0  0  0  0  0  0  0  0  0  0
  -25.6925  -14.6254   22.6443 C   0  0  0  0  0  0  0  0  0  0  0  0
  -25.5974  -15.2129   19.7477 C   0  0  0  0  0  0  0  0  0  0  0  0
  -22.5311   -9.6296   19.9835 C   0  0  0  0  0  0  0  0  0  0  0  0
  -23.6330  -24.8260   17.9403 C   0  0  0  0  0  0  0  0  0  0  0  0
  -24.0458   -9.8088   19.9728 C   0  0  0  0  0  0  0  0  0  0  0  0
  -24.1619  -26.1726   18.4372 C   0  0  0  0  0  0  0  0  0  0  0  0
  -23.4446  -23.8356   19.0873 C   0  0  0  0  0  0  0  0  0  0  0  0
  -25.1644  -24.9809   20.4305 C   0  0  0  0  0  0  0  0  0  0  0  0
  -24.5707  -10.1514   21.3723 C   0  0  1  0  0  0  0  0  0  0  0  0
  -24.6991  -13.9327   21.7166 C   0  0  1  0  0  0  0  0  0  0  0  0
  -25.4237  -25.9945   19.3029 C   0  0  2  0  0  0  0  0  0  0  0  0
  -21.4696  -19.8009   17.6509 C   0  0  0  0  0  0  0  0  0  0  0  0
  -32.1910  -17.6917   20.9767 C   0  0  0  0  0  0  0  0  0  0  0  0
  -23.1952  -13.0857   17.4292 C   0  0  0  0  0  0  0  0  0  0  0  0
  -22.2283  -15.0516   16.2173 C   0  0  0  0  0  0  0  0  0  0  0  0
  -20.9357  -13.9595   18.0502 C   0  0  0  0  0  0  0  0  0  0  0  0
  -22.3395  -19.0448   21.2769 C   0  0  0  0  0  0  0  0  0  0  0  0
  -27.1691  -21.1939   21.0143 C   0  0  0  0  0  0  0  0  0  0  0  0
  -30.7531  -18.9416   19.3185 C   0  0  0  0  0  0  0  0  0  0  0  0
  -29.3661  -19.1468   18.7125 C   0  0  0  0  0  0  0  0  0  0  0  0
  -22.9594  -15.3614   18.6257 C   0  0  1  0  0  0  0  0  0  0  0  0
  -21.6735  -18.9188   18.8729 C   0  0  2  0  0  0  0  0  0  0  0  0
  -30.7775  -17.9088   20.4525 C   0  0  1  0  0  0  0  0  0  1  0  0
  -22.3540  -14.3671   17.5951 C   0  0  0  0  0  0  0  0  0  0  0  0
  -25.0415  -28.2926   20.1126 N   0  0  0  0  0  0  0  0  0  0  0  0
  -25.9294  -27.3227   19.8351 N   0  0  0  0  0  0  0  0  0  0  0  0
  -24.4386  -14.6973   20.4952 N   0  0  0  0  0  0  0  0  0  0  0  0
  -24.6778  -23.7114   19.8680 N   0  0  0  0  0  0  0  0  0  0  0  0
  -28.2436  -26.8183   19.8555 N   0  0  0  0  0  0  0  0  0  0  0  0
  -28.0881  -31.0600   21.3981 N   0  0  0  0  0  0  0  0  0  0  0  0
  -24.3184  -11.5428   21.6802 N   0  0  0  0  0  0  0  0  0  0  0  0
  -28.4153  -19.6303   19.6749 N   0  0  0  0  0  0  0  0  0  0  0  0
  -22.1695  -16.5719   18.8233 N   0  0  0  0  0  0  0  0  0  0  0  0
  -26.4403  -22.4190   20.7721 N   0  0  0  0  0  0  0  0  0  0  0  0
  -22.1224  -19.7792   20.0039 N   0  3  0  0  0  0  0  0  0  0  0  0
  -29.4867  -29.3222   20.8664 O   0  0  0  0  0  0  0  0  0  0  0  0
  -26.1984  -12.4526   20.6505 O   0  0  0  0  0  0  0  0  0  0  0  0
  -22.1400  -14.3183   20.5922 O   0  0  0  0  0  0  0  0  0  0  0  0
  -28.7652  -21.9049   19.3446 O   0  0  0  0  0  0  0  0  0  0  0  0
  -23.8404  -18.0659   18.2289 O   0  0  0  0  0  0  0  0  0  0  0  0
  -24.7951  -21.4207   19.5256 O   0  0  0  0  0  0  0  0  0  0  0  0
  -23.4994  -34.1347   22.1226 O   0  0  0  0  0  0  0  0  0  0  0  0
  -30.2648  -16.6599   19.9899 O   0  0  0  0  0  0  0  0  0  1  0  0
  -25.2784  -36.4236   26.8131 F   0  0  0  0  0  0  0  0  0  0  0  0
  -26.1515  -34.8499   22.4351 F   0  0  0  0  0  0  0  0  0  0  0  0
  1  2  1  0  0  0  0
  1  5  2  0  0  0  0
  2  6  2  0  0  0  0
  3  8  2  0  0  0  0
  3 15  1  0  0  0  0
  4  9  1  0  0  0  0
  4 15  2  0  0  0  0
  5 17  1  0  0  0  0
  6 19  1  0  0  0  0
  7 10  2  0  0  0  0
  7 18  1  0  0  0  0
  8 21  1  0  0  0  0
  9 21  2  0  0  0  0
 10 22  1  0  0  0  0
 11 12  2  0  0  0  0
 11 23  1  0  0  0  0
 12 24  1  0  0  0  0
 13 20  1  0  0  0  0
 13 22  2  0  0  0  0
 14 24  2  0  0  0  0
 14 25  1  0  0  0  0
 15 26  1  0  0  0  0
 16 26  1  0  0  0  0
 16 27  2  0  0  0  0
 16 28  1  0  0  0  0
 17 19  2  0  0  0  0
 17 34  1  0  0  0  0
 18 20  2  0  0  0  0
 18 35  1  0  0  0  0
 19 43  1  0  0  0  0
 20 36  1  0  0  0  0
 21 76  1  0  0  0  0
 22 77  1  0  0  0  0
 23 25  2  0  0  0  0
 23 76  1  0  0  0  0
 24 78  1  0  0  0  0
 25 79  1  0  0  0  0
 26 59  2  0  0  0  0
 27 60  1  0  0  0  0
 27 63  1  0  0  0  0
 28 64  1  0  0  0  0
 28 70  2  0  0  0  0
 29 44  1  0  0  0  0
 29 65  1  0  0  0  0
 29 71  2  0  0  0  0
 30 55  1  0  0  0  0
 30 61  1  0  0  0  0
 30 72  2  0  0  0  0
 31 52  1  0  0  0  0
 31 66  1  0  0  0  0
 31 73  2  0  0  0  0
 32 56  1  0  0  0  0
 32 67  1  0  0  0  0
 32 74  2  0  0  0  0
 33 62  1  0  0  0  0
 33 68  1  0  0  0  0
 33 75  2  0  0  0  0
 34 37  1  0  0  0  0
 35 44  1  0  0  0  0
 36 61  1  0  0  0  0
 37 39  1  0  0  0  0
 38 40  1  0  0  0  0
 38 41  1  0  0  0  0
 39 43  1  0  0  0  0
 40 45  1  0  0  0  0
 41 62  1  0  0  0  0
 42 45  1  0  0  0  0
 42 62  1  0  0  0  0
 43 65  1  0  0  0  0
 44 61  1  0  0  0  0
 45 60  1  0  0  0  0
 46 56  1  0  0  0  0
 47 57  1  0  0  0  0
 48 58  1  0  0  0  0
 49 58  1  0  0  0  0
 50 58  1  0  0  0  0
 51 69  1  0  0  0  0
 52 68  1  0  0  0  0
 53 54  1  0  0  0  0
 53 57  1  0  0  0  0
 54 66  1  0  0  0  0
 55 58  1  0  0  0  0
 55 67  1  0  0  0  0
 56 69  1  0  0  0  0
 57 77  1  0  0  0  0
 59 60  1  0  0  0  0
M  CHG  1  69   1
M  ISO  4  33 100  57 101  68 100  77 101
M  END
> <Batch ID>
0113

> <Smiles>
CNC(C)C(=O)NC(C(=O)N1Cc2cc([101O:1][101CH:1](C)CCNC(=O)C[100NH:0][100C:0](=O)N3CCCC(n4nc(-c5ccc(Oc6ccc(F)cc6F)cc5)c(C(N)=O)c4N)C3)ccc2CC1C(=O)NC1CCCc2ccccc21)C(C)(C)C

> <Shape>
0.240

> <Color>
0.099

> <Negative vol penalty>
0.000

$$$$

  -OEChem-04052320053D

 82 90  0     1  0  0  0  0  0999 V2000
  -18.6638  -27.0172   23.9488 C   0  0  0  0  0  0  0  0  0  0  0  0
  -19.6682  -26.5991   23.0817 C   0  0  0  0  0  0  0  0  0  0  0  0
  -23.9649   -9.7320   21.9810 C   0  0  0  0  0  0  0  0  0  0  0  0
  -22.1366  -10.4216   20.5602 C   0  0  0  0  0  0  0  0  0  0  0  0
  -18.1723  -28.3194   23.8680 C   0  0  0  0  0  0  0  0  0  0  0  0
  -20.1809  -27.4826   22.1326 C   0  0  0  0  0  0  0  0  0  0  0  0
  -25.2367  -27.3433   21.8797 C   0  0  0  0  0  0  0  0  0  0  0  0
  -23.5086   -8.4150   21.9290 C   0  0  0  0  0  0  0  0  0  0  0  0
  -21.6803   -9.1046   20.5081 C   0  0  0  0  0  0  0  0  0  0  0  0
  -25.8105  -26.2779   21.1873 C   0  0  0  0  0  0  0  0  0  0  0  0
  -21.0876   -6.5588   23.3842 C   0  0  0  0  0  0  0  0  0  0  0  0
  -21.0416   -5.8419   24.5798 C   0  0  0  0  0  0  0  0  0  0  0  0
  -26.1227  -27.7027   19.2659 C   0  0  0  0  0  0  0  0  0  0  0  0
  -22.5719   -4.2131   23.6621 C   0  0  0  0  0  0  0  0  0  0  0  0
  -23.2789  -10.7354   21.2967 C   0  0  0  0  0  0  0  0  0  0  0  0
  -24.6624  -12.7152   20.4758 C   0  0  0  0  0  0  0  0  0  0  0  0
  -18.6859  -29.2224   22.9238 C   0  0  0  0  0  0  0  0  0  0  0  0
  -25.0915  -28.5956   21.2657 C   0  0  0  0  0  0  0  0  0  0  0  0
  -19.6948  -28.7978   22.0382 C   0  0  0  0  0  0  0  0  0  0  0  0
  -25.5491  -28.7831   19.9536 C   0  0  0  0  0  0  0  0  0  0  0  0
  -22.3663   -8.1012   21.1925 C   0  0  0  0  0  0  0  0  0  0  0  0
  -26.2509  -26.4567   19.8792 C   0  0  0  0  0  0  0  0  0  0  0  0
  -21.8757   -6.1028   22.3274 C   0  0  0  0  0  0  0  0  0  0  0  0
  -21.7837   -4.6691   24.7188 C   0  0  0  0  0  0  0  0  0  0  0  0
  -22.6179   -4.9300   22.4664 C   0  0  0  0  0  0  0  0  0  0  0  0
  -23.7494  -12.0962   21.3505 C   0  0  0  0  0  0  0  0  0  0  0  0
  -24.7764  -13.9989   20.9507 C   0  0  0  0  0  0  0  0  0  0  0  0
  -25.3461  -12.1779   19.3359 C   0  0  0  0  0  0  0  0  0  0  0  0
  -22.6227  -30.4459   20.5007 C   0  0  0  0  0  0  0  0  0  0  0  0
  -24.9526  -32.5516   19.6883 C   0  0  0  0  0  0  0  0  0  0  0  0
  -28.1892  -33.0663   18.7364 C   0  0  0  0  0  0  0  0  0  0  0  0
  -21.9324  -18.5663   22.7976 C   0  0  0  0  0  0  0  0  0  0  0  0
  -18.0899  -30.6054   22.8429 C   0  0  0  0  0  0  0  0  0  0  0  0
  -24.4949  -29.7419   22.0354 C   0  0  0  0  0  0  0  0  0  0  0  0
  -25.4346  -30.1131   19.2563 C   0  0  0  0  0  0  0  0  0  0  0  0
  -18.9485  -31.5937   22.0578 C   0  0  0  0  0  0  0  0  0  0  0  0
  -23.1792  -16.0902   25.2583 C   0  0  0  0  0  0  0  0  0  0  0  0
  -19.4215  -30.9681   20.7495 C   0  0  0  0  0  0  0  0  0  0  0  0
  -23.4378  -14.8616   24.3881 C   0  0  0  0  0  0  0  0  0  0  0  0
  -21.9978  -21.0714   20.3983 C   0  0  0  0  0  0  0  0  0  0  0  0
  -24.2244  -19.8797   20.4665 C   0  0  0  0  0  0  0  0  0  0  0  0
  -22.0800  -16.9744   24.6779 C   0  0  0  0  0  0  0  0  0  0  0  0
  -21.3141  -19.7421   20.7071 C   0  0  0  0  0  0  0  0  0  0  0  0
  -23.4958  -18.5749   20.8015 C   0  0  0  0  0  0  0  0  0  0  0  0
  -22.5827  -16.1593   22.3965 C   0  0  0  0  0  0  0  0  0  0  0  0
  -20.2938  -29.7344   21.0116 C   0  0  1  0  0  0  0  0  0  0  0  0
  -23.9279  -30.8353   21.1352 C   0  0  1  0  0  0  0  0  0  0  0  0
  -23.7160  -15.2710   22.9316 C   0  0  2  0  0  0  0  0  0  0  0  0
  -23.3224  -20.8270   19.6782 C   0  0  0  0  0  0  0  0  0  0  0  0
  -29.7913  -34.8931   18.1091 C   0  0  0  0  0  0  0  0  0  0  0  0
  -27.5453  -23.3136   20.0746 C   0  0  0  0  0  0  0  0  0  0  0  0
  -23.6242  -32.7731   16.9503 C   0  0  0  0  0  0  0  0  0  0  0  0
  -25.7303  -33.8185   16.0904 C   0  0  0  0  0  0  0  0  0  0  0  0
  -24.4295  -34.9430   17.8977 C   0  0  0  0  0  0  0  0  0  0  0  0
  -29.9902  -32.4211   20.9946 C   0  0  0  0  0  0  0  0  0  0  0  0
  -25.0994  -22.1007   18.4704 C   0  0  0  0  0  0  0  0  0  0  0  0
  -25.7369  -32.8462   18.4325 C   0  0  1  0  0  0  0  0  0  0  0  0
  -29.2452  -34.0342   19.2390 C   0  0  2  0  0  0  0  0  0  0  0  0
  -26.3544  -24.1039   19.5483 C   0  0  2  0  0  0  0  0  0  1  0  0
  -25.7144  -23.4882   18.2955 C   0  0  2  0  0  0  0  0  0  0  0  0
  -24.8808  -33.5695   17.3549 C   0  0  0  0  0  0  0  0  0  0  0  0
  -23.3145  -12.9189   22.3087 N   0  0  0  0  0  0  0  0  0  0  0  0
  -23.9570  -14.0680   22.0388 N   0  0  0  0  0  0  0  0  0  0  0  0
  -24.8385  -31.2014   20.0485 N   0  0  0  0  0  0  0  0  0  0  0  0
  -22.3424  -17.3115   23.2786 N   0  0  0  0  0  0  0  0  0  0  0  0
  -22.2056  -18.8501   21.4509 N   0  0  0  0  0  0  0  0  0  0  0  0
  -25.4967  -15.0641   20.5396 N   0  0  0  0  0  0  0  0  0  0  0  0
  -25.1141  -10.8406   18.9867 N   0  0  0  0  0  0  0  0  0  0  0  0
  -21.6276  -30.1333   21.4071 N   0  0  0  0  0  0  0  0  0  0  0  0
  -26.9190  -33.5897   18.8546 N   0  0  0  0  0  0  0  0  0  0  0  0
  -24.0224  -22.1249   19.4961 N   0  3  0  0  0  0  0  0  0  0  0  0
  -30.3801  -33.2891   19.8537 N   0  3  0  0  0  0  0  0  0  0  0  0
  -26.1520  -12.8587   18.6571 O   0  0  0  0  0  0  0  0  0  0  0  0
  -22.5252  -30.4316   19.2792 O   0  0  0  0  0  0  0  0  0  0  0  0
  -24.4653  -33.4857   20.3300 O   0  0  0  0  0  0  0  0  0  0  0  0
  -28.4639  -31.9584   18.2809 O   0  0  0  0  0  0  0  0  0  0  0  0
  -21.3590  -19.3832   23.5290 O   0  0  0  0  0  0  0  0  0  0  0  0
  -24.6976  -24.3865   17.8360 O   0  0  0  0  0  0  0  0  0  0  0  0
  -21.9209   -6.8161   21.1413 O   0  0  0  0  0  0  0  0  0  0  0  0
  -26.8128  -25.4144   19.1982 O   0  0  0  0  0  0  0  0  0  1  0  0
  -21.7407   -3.9817   25.8676 F   0  0  0  0  0  0  0  0  0  0  0  0
  -23.3778   -4.4876   21.4551 F   0  0  0  0  0  0  0  0  0  0  0  0
  1  2  1  0  0  0  0
  1  5  2  0  0  0  0
  2  6  2  0  0  0  0
  3  8  2  0  0  0  0
  3 15  1  0  0  0  0
  4  9  1  0  0  0  0
  4 15  2  0  0  0  0
  5 17  1  0  0  0  0
  6 19  1  0  0  0  0
  7 10  2  0  0  0  0
  7 18  1  0  0  0  0
  8 21  1  0  0  0  0
  9 21  2  0  0  0  0
 10 22  1  0  0  0  0
 11 12  2  0  0  0  0
 11 23  1  0  0  0  0
 12 24  1  0  0  0  0
 13 20  1  0  0  0  0
 13 22  2  0  0  0  0
 14 24  2  0  0  0  0
 14 25  1  0  0  0  0
 15 26  1  0  0  0  0
 16 26  1  0  0  0  0
 16 27  2  0  0  0  0
 16 28  1  0  0  0  0
 17 19  2  0  0  0  0
 17 33  1  0  0  0  0
 18 20  2  0  0  0  0
 18 34  1  0  0  0  0
 19 46  1  0  0  0  0
 20 35  1  0  0  0  0
 21 79  1  0  0  0  0
 22 80  1  0  0  0  0
 23 25  2  0  0  0  0
 23 79  1  0  0  0  0
 24 81  1  0  0  0  0
 25 82  1  0  0  0  0
 26 62  2  0  0  0  0
 27 63  1  0  0  0  0
 27 67  1  0  0  0  0
 28 68  1  0  0  0  0
 28 73  2  0  0  0  0
 29 47  1  0  0  0  0
 29 69  1  0  0  0  0
 29 74  2  0  0  0  0
 30 57  1  0  0  0  0
 30 64  1  0  0  0  0
 30 75  2  0  0  0  0
 31 58  1  0  0  0  0
 31 70  1  0  0  0  0
 31 76  2  0  0  0  0
 32 65  1  0  0  0  0
 32 66  1  0  0  0  0
 32 77  2  0  0  0  0
 33 36  1  0  0  0  0
 34 47  1  0  0  0  0
 35 64  1  0  0  0  0
 36 38  1  0  0  0  0
 37 39  1  0  0  0  0
 37 42  1  0  0  0  0
 38 46  1  0  0  0  0
 39 48  1  0  0  0  0
 40 43  1  0  0  0  0
 40 49  1  0  0  0  0
 41 44  1  0  0  0  0
 41 49  1  0  0  0  0
 42 65  1  0  0  0  0
 43 66  1  0  0  0  0
 44 66  1  0  0  0  0
 45 48  1  0  0  0  0
 45 65  1  0  0  0  0
 46 69  1  0  0  0  0
 47 64  1  0  0  0  0
 48 63  1  0  0  0  0
 49 71  1  0  0  0  0
 50 58  1  0  0  0  0
 51 59  1  0  0  0  0
 52 61  1  0  0  0  0
 53 61  1  0  0  0  0
 54 61  1  0  0  0  0
 55 72  1  0  0  0  0
 56 60  1  0  0  0  0
 56 71  1  0  0  0  0
 57 61  1  0  0  0  0
 57 70  1  0  0  0  0
 58 72  1  0  0  0  0
 59 60  1  0  0  0  0
 59 80  1  0  0  0  0
 60 78  1  0  0  0  0
 62 63  1  0  0  0  0
M  CHG  2  71   1  72   1
M  ISO  4  32 100  59 101  66 100  80 101
M  END
> <Batch ID>
0113

> <Smiles>
CNC(C)C(=O)NC(C(=O)N1Cc2cc([101O:1][101CH:1](C)C(O)CNC3CC[100N:0]([100C:0](=O)N4CCCC(n5nc(-c6ccc(Oc7ccc(F)cc7F)cc6)c(C(N)=O)c5N)C4)CC3)ccc2CC1C(=O)NC1CCCc2ccccc21)C(C)(C)C

> <Shape>
0.209

> <Color>
0.137

> <Negative vol penalty>
0.000

$$$$

  -OEChem-04052320053D

 82 90  0     1  0  0  0  0  0999 V2000
  -28.4786  -32.2599   26.2337 C   0  0  0  0  0  0  0  0  0  0  0  0
  -28.5734  -30.9568   25.7558 C   0  0  0  0  0  0  0  0  0  0  0  0
  -24.7701   -8.6377   20.6854 C   0  0  0  0  0  0  0  0  0  0  0  0
  -23.0011  -10.2295   20.2683 C   0  0  0  0  0  0  0  0  0  0  0  0
  -27.2854  -32.9674   26.0936 C   0  0  0  0  0  0  0  0  0  0  0  0
  -27.4746  -30.3600   25.1386 C   0  0  0  0  0  0  0  0  0  0  0  0
  -28.7302  -27.8974   20.8955 C   0  0  0  0  0  0  0  0  0  0  0  0
  -23.8254   -7.6924   21.0847 C   0  0  0  0  0  0  0  0  0  0  0  0
  -22.0563   -9.2841   20.6676 C   0  0  0  0  0  0  0  0  0  0  0  0
  -29.3219  -26.6432   21.0386 C   0  0  0  0  0  0  0  0  0  0  0  0
  -21.9721   -7.0306   23.8328 C   0  0  0  0  0  0  0  0  0  0  0  0
  -22.2355   -6.3023   24.9928 C   0  0  0  0  0  0  0  0  0  0  0  0
  -27.1982  -25.5955   20.5785 C   0  0  0  0  0  0  0  0  0  0  0  0
  -22.1687   -4.2501   23.7196 C   0  0  0  0  0  0  0  0  0  0  0  0
  -24.3579   -9.9063   20.2773 C   0  0  0  0  0  0  0  0  0  0  0  0
  -25.8290  -11.0938   18.5645 C   0  0  0  0  0  0  0  0  0  0  0  0
  -26.1745  -32.3824   25.4657 C   0  0  0  0  0  0  0  0  0  0  0  0
  -27.3634  -28.0105   20.6030 C   0  0  0  0  0  0  0  0  0  0  0  0
  -26.2650  -31.0599   24.9912 C   0  0  0  0  0  0  0  0  0  0  0  0
  -26.5921  -26.8524   20.4296 C   0  0  0  0  0  0  0  0  0  0  0  0
  -22.4685   -8.0156   21.0758 C   0  0  0  0  0  0  0  0  0  0  0  0
  -28.5553  -25.4920   20.8830 C   0  0  0  0  0  0  0  0  0  0  0  0
  -21.8070   -6.3687   22.6161 C   0  0  0  0  0  0  0  0  0  0  0  0
  -22.3338   -4.9121   24.9362 C   0  0  0  0  0  0  0  0  0  0  0  0
  -21.9053   -4.9785   22.5595 C   0  0  0  0  0  0  0  0  0  0  0  0
  -25.3334  -10.8835   19.8652 C   0  0  0  0  0  0  0  0  0  0  0  0
  -26.7246  -12.1261   18.7010 C   0  0  0  0  0  0  0  0  0  0  0  0
  -25.5084  -10.4165   17.3421 C   0  0  0  0  0  0  0  0  0  0  0  0
  -24.8496  -29.2722   22.0837 C   0  0  0  0  0  0  0  0  0  0  0  0
  -23.3318  -28.5151   19.3186 C   0  0  0  0  0  0  0  0  0  0  0  0
  -23.2976  -25.7455   17.0066 C   0  0  0  0  0  0  0  0  0  0  0  0
  -30.8428  -14.6590   21.3814 C   0  0  0  0  0  0  0  0  0  0  0  0
  -24.8911  -33.1700   25.3797 C   0  0  0  0  0  0  0  0  0  0  0  0
  -26.7460  -29.3705   20.4254 C   0  0  0  0  0  0  0  0  0  0  0  0
  -25.1251  -26.9193   20.0952 C   0  0  0  0  0  0  0  0  0  0  0  0
  -23.8909  -32.5973   24.3787 C   0  0  0  0  0  0  0  0  0  0  0  0
  -27.6090  -15.2453   22.5673 C   0  0  0  0  0  0  0  0  0  0  0  0
  -23.7640  -31.0874   24.5553 C   0  0  0  0  0  0  0  0  0  0  0  0
  -26.7617  -14.1755   21.8815 C   0  0  0  0  0  0  0  0  0  0  0  0
  -28.9605  -14.6807   22.9868 C   0  0  0  0  0  0  0  0  0  0  0  0
  -28.9111  -13.0256   21.1452 C   0  0  0  0  0  0  0  0  0  0  0  0
  -32.3764  -17.6837   23.0074 C   0  0  0  0  0  0  0  0  0  0  0  0
  -31.7897  -17.5398   21.0173 C   0  0  0  0  0  0  0  0  0  0  0  0
  -25.1028  -30.3869   24.2937 C   0  0  1  0  0  0  0  0  0  0  0  0
  -25.2349  -29.3727   20.6349 C   0  0  1  0  0  0  0  0  0  0  0  0
  -27.5255  -13.5427   20.7062 C   0  0  1  0  0  0  0  0  0  0  0  0
  -32.4419  -16.5291   21.9849 C   0  0  0  0  0  0  0  0  0  0  0  0
  -22.7674  -25.6735   14.5548 C   0  0  0  0  0  0  0  0  0  0  0  0
  -32.6415  -21.3597   20.5849 C   0  0  0  0  0  0  0  0  0  0  0  0
  -20.5111  -27.8111   20.2448 C   0  0  0  0  0  0  0  0  0  0  0  0
  -20.3517  -26.2182   18.3199 C   0  0  0  0  0  0  0  0  0  0  0  0
  -20.6571  -28.6574   17.8960 C   0  0  0  0  0  0  0  0  0  0  0  0
  -31.8792  -14.7685   23.6125 C   0  0  0  0  0  0  0  0  0  0  0  0
  -25.8947  -24.4804   16.3637 C   0  0  0  0  0  0  0  0  0  0  0  0
  -31.3975  -19.6869   22.0644 C   0  0  0  0  0  0  0  0  0  0  0  0
  -29.6662  -22.2185   19.8822 C   0  0  0  0  0  0  0  0  0  0  0  0
  -28.5717  -23.1965   20.2614 C   0  0  0  0  0  0  0  0  0  1  0  0
  -22.5916  -27.3051   18.8021 C   0  0  1  0  0  0  0  0  0  0  0  0
  -23.8700  -25.7282   15.6007 C   0  0  2  0  0  0  0  0  0  0  0  0
  -31.3301  -20.6411   20.8731 C   0  0  1  0  0  0  0  0  0  0  0  0
  -21.0489  -27.4955   18.8348 C   0  0  0  0  0  0  0  0  0  0  0  0
  -25.8697  -11.7153   20.7621 N   0  0  0  0  0  0  0  0  0  0  0  0
  -26.7117  -12.4583   20.0238 N   0  0  0  0  0  0  0  0  0  0  0  0
  -24.5661  -28.2722   19.9379 N   0  0  0  0  0  0  0  0  0  0  0  0
  -29.6607  -14.0721   21.8550 N   0  0  0  0  0  0  0  0  0  0  0  0
  -32.3699  -18.6202   21.8548 N   0  0  0  0  0  0  0  0  0  0  0  0
  -27.5140  -12.7731   17.8174 N   0  0  0  0  0  0  0  0  0  0  0  0
  -24.5669   -9.3790   17.3801 N   0  0  0  0  0  0  0  0  0  0  0  0
  -25.3530  -30.2897   22.8716 N   0  0  0  0  0  0  0  0  0  0  0  0
  -23.1320  -27.0319   17.4748 N   0  0  0  0  0  0  0  0  0  0  0  0
  -31.6210  -15.3742   22.3101 N   0  0  0  0  0  0  0  0  0  0  0  0
  -24.7528  -24.5420   15.4154 N   0  3  0  0  0  0  0  0  0  0  0  0
  -30.2753  -21.6619   21.1165 N   0  3  0  0  0  0  0  0  0  0  0  0
  -26.0532  -10.7114   16.2513 O   0  0  0  0  0  0  0  0  0  0  0  0
  -24.1463  -28.3414   22.4587 O   0  0  0  0  0  0  0  0  0  0  0  0
  -22.8367  -29.6353   19.1716 O   0  0  0  0  0  0  0  0  0  0  0  0
  -23.0213  -24.7206   17.6259 O   0  0  0  0  0  0  0  0  0  0  0  0
  -31.1746  -14.5749   20.1920 O   0  0  0  0  0  0  0  0  0  0  0  0
  -21.5463   -7.0933   21.4651 O   0  0  0  0  0  0  0  0  0  0  0  0
  -29.1301  -24.2665   21.0228 O   0  0  0  0  0  0  0  0  0  1  0  0
  -22.5882   -4.2129   26.0501 F   0  0  0  0  0  0  0  0  0  0  0  0
  -21.7488   -4.3371   21.3933 F   0  0  0  0  0  0  0  0  0  0  0  0
  1  2  1  0  0  0  0
  1  5  2  0  0  0  0
  2  6  2  0  0  0  0
  3  8  2  0  0  0  0
  3 15  1  0  0  0  0
  4  9  1  0  0  0  0
  4 15  2  0  0  0  0
  5 17  1  0  0  0  0
  6 19  1  0  0  0  0
  7 10  2  0  0  0  0
  7 18  1  0  0  0  0
  8 21  1  0  0  0  0
  9 21  2  0  0  0  0
 10 22  1  0  0  0  0
 11 12  2  0  0  0  0
 11 23  1  0  0  0  0
 12 24  1  0  0  0  0
 13 20  1  0  0  0  0
 13 22  2  0  0  0  0
 14 24  2  0  0  0  0
 14 25  1  0  0  0  0
 15 26  1  0  0  0  0
 16 26  1  0  0  0  0
 16 27  2  0  0  0  0
 16 28  1  0  0  0  0
 17 19  2  0  0  0  0
 17 33  1  0  0  0  0
 18 20  2  0  0  0  0
 18 34  1  0  0  0  0
 19 44  1  0  0  0  0
 20 35  1  0  0  0  0
 21 79  1  0  0  0  0
 22 80  1  0  0  0  0
 23 25  2  0  0  0  0
 23 79  1  0  0  0  0
 24 81  1  0  0  0  0
 25 82  1  0  0  0  0
 26 62  2  0  0  0  0
 27 63  1  0  0  0  0
 27 67  1  0  0  0  0
 28 68  1  0  0  0  0
 28 74  2  0  0  0  0
 29 45  1  0  0  0  0
 29 69  1  0  0  0  0
 29 75  2  0  0  0  0
 30 58  1  0  0  0  0
 30 64  1  0  0  0  0
 30 76  2  0  0  0  0
 31 59  1  0  0  0  0
 31 70  1  0  0  0  0
 31 77  2  0  0  0  0
 32 65  1  0  0  0  0
 32 71  1  0  0  0  0
 32 78  2  0  0  0  0
 33 36  1  0  0  0  0
 34 45  1  0  0  0  0
 35 64  1  0  0  0  0
 36 38  1  0  0  0  0
 37 39  1  0  0  0  0
 37 40  1  0  0  0  0
 38 44  1  0  0  0  0
 39 46  1  0  0  0  0
 40 65  1  0  0  0  0
 41 46  1  0  0  0  0
 41 65  1  0  0  0  0
 42 47  1  0  0  0  0
 42 66  1  0  0  0  0
 43 47  1  0  0  0  0
 43 66  1  0  0  0  0
 44 69  1  0  0  0  0
 45 64  1  0  0  0  0
 46 63  1  0  0  0  0
 47 71  1  0  0  0  0
 48 59  1  0  0  0  0
 49 60  1  0  0  0  0
 50 61  1  0  0  0  0
 51 61  1  0  0  0  0
 52 61  1  0  0  0  0
 53 71  1  0  0  0  0
 54 72  1  0  0  0  0
 55 60  1  0  0  0  0
 55 66  1  0  0  0  0
 56 57  1  0  0  0  0
 56 73  1  0  0  0  0
 57 80  1  0  0  0  0
 58 61  1  0  0  0  0
 58 70  1  0  0  0  0
 59 72  1  0  0  0  0
 60 73  1  0  0  0  0
 62 63  1  0  0  0  0
M  CHG  2  72   1  73   1
M  ISO  4  32 100  57 101  71 100  80 101
M  END
> <Batch ID>
0113

> <Smiles>
CNC(C)C(=O)NC(C(=O)N1Cc2cc([101O:1][101CH2:1]CNC(C)CN3CC([100N:0](C)[100C:0](=O)N4CCCC(n5nc(-c6ccc(Oc7ccc(F)cc7F)cc6)c(C(N)=O)c5N)C4)C3)ccc2CC1C(=O)NC1CCCc2ccccc21)C(C)(C)C

> <Shape>
0.296

> <Color>
0.101

> <Negative vol penalty>
0.000

$$$$

  -OEChem-04052320053D

 80 88  0     1  0  0  0  0  0999 V2000
  -20.6847  -20.9835   26.3333 C   0  0  0  0  0  0  0  0  0  0  0  0
  -21.8258  -21.2146   25.5717 C   0  0  0  0  0  0  0  0  0  0  0  0
  -30.9625  -22.7157   20.9873 C   0  0  0  0  0  0  0  0  0  0  0  0
  -23.9646  -13.8206   21.4434 C   0  0  0  0  0  0  0  0  0  0  0  0
  -26.2223  -13.8751   20.5849 C   0  0  0  0  0  0  0  0  0  0  0  0
  -19.5796  -21.8237   26.2038 C   0  0  0  0  0  0  0  0  0  0  0  0
  -21.8619  -22.2853   24.6792 C   0  0  0  0  0  0  0  0  0  0  0  0
  -26.7198  -25.7352   23.2632 C   0  0  0  0  0  0  0  0  0  0  0  0
  -23.7747  -12.5659   20.8645 C   0  0  0  0  0  0  0  0  0  0  0  0
  -26.0325  -12.6203   20.0061 C   0  0  0  0  0  0  0  0  0  0  0  0
  -27.6105  -25.7061   22.1910 C   0  0  0  0  0  0  0  0  0  0  0  0
  -22.8155   -9.1896   19.9181 C   0  0  0  0  0  0  0  0  0  0  0  0
  -22.1971   -8.2061   20.6900 C   0  0  0  0  0  0  0  0  0  0  0  0
  -30.2165  -21.9882   20.0667 C   0  0  0  0  0  0  0  0  0  0  0  0
  -30.7824  -24.0908   21.0882 C   0  0  0  0  0  0  0  0  0  0  0  0
  -26.3089  -27.4009   21.0716 C   0  0  0  0  0  0  0  0  0  0  0  0
  -23.9706   -8.3722   22.3223 C   0  0  0  0  0  0  0  0  0  0  0  0
  -25.1884  -14.4753   21.3036 C   0  0  0  0  0  0  0  0  0  0  0  0
  -25.8699  -16.0476   23.1933 C   0  0  0  0  0  0  0  0  0  0  0  0
  -19.6058  -22.9110   25.3163 C   0  0  0  0  0  0  0  0  0  0  0  0
  -25.6091  -26.5910   23.2428 C   0  0  0  0  0  0  0  0  0  0  0  0
  -20.7556  -23.1400   24.5367 C   0  0  0  0  0  0  0  0  0  0  0  0
  -25.4071  -27.4408   22.1460 C   0  0  0  0  0  0  0  0  0  0  0  0
  -24.8087  -11.9657   20.1458 C   0  0  0  0  0  0  0  0  0  0  0  0
  -27.4035  -26.5369   21.0937 C   0  0  0  0  0  0  0  0  0  0  0  0
  -24.0115   -9.7644   20.3482 C   0  0  0  0  0  0  0  0  0  0  0  0
  -22.7746   -7.7974   21.8922 C   0  0  0  0  0  0  0  0  0  0  0  0
  -24.5890   -9.3557   21.5503 C   0  0  0  0  0  0  0  0  0  0  0  0
  -25.3849  -15.7717   21.9008 C   0  0  0  0  0  0  0  0  0  0  0  0
  -29.3106  -22.6773   19.2766 C   0  0  0  0  0  0  0  0  0  0  0  0
  -29.8513  -24.6858   20.2523 C   0  0  0  0  0  0  0  0  0  0  0  0
  -25.8688  -17.4186   23.2751 C   0  0  0  0  0  0  0  0  0  0  0  0
  -26.2844  -15.1451   24.2275 C   0  0  0  0  0  0  0  0  0  0  0  0
  -22.4580  -26.1782   23.3021 C   0  0  0  0  0  0  0  0  0  0  0  0
  -22.4295  -29.4152   23.5114 C   0  0  0  0  0  0  0  0  0  0  0  0
  -24.0339  -32.3703   22.9285 C   0  0  0  0  0  0  0  0  0  0  0  0
  -26.1765  -21.7495   19.1520 C   0  0  0  0  0  0  0  0  0  0  0  0
  -18.3696  -23.7635   25.1761 C   0  0  0  0  0  0  0  0  0  0  0  0
  -24.6725  -26.6298   24.4191 C   0  0  0  0  0  0  0  0  0  0  0  0
  -24.2413  -28.3925   22.0842 C   0  0  0  0  0  0  0  0  0  0  0  0
  -18.6259  -25.0986   24.4816 C   0  0  0  0  0  0  0  0  0  0  0  0
  -23.6029  -21.2699   21.5651 C   0  0  0  0  0  0  0  0  0  0  0  0
  -19.4698  -24.8946   23.2275 C   0  0  0  0  0  0  0  0  0  0  0  0
  -23.8115  -19.8313   22.0414 C   0  0  0  0  0  0  0  0  0  0  0  0
  -23.9015  -21.4200   20.0750 C   0  0  0  0  0  0  0  0  0  0  0  0
  -25.4380  -19.4940   20.1336 C   0  0  0  0  0  0  0  0  0  0  0  0
  -20.8423  -24.3059   23.5758 C   0  0  1  0  0  0  0  0  0  0  0  0
  -23.2903  -27.1697   24.0648 C   0  0  1  0  0  0  0  0  0  0  0  0
  -25.2031  -19.3047   21.6420 C   0  0  2  0  0  0  0  0  0  0  0  0
  -30.5288  -26.9476   19.3757 C   0  0  0  0  0  0  0  0  0  0  0  0
  -23.7437  -34.8510   23.1727 C   0  0  0  0  0  0  0  0  0  0  0  0
  -20.5471  -29.4290   21.1100 C   0  0  0  0  0  0  0  0  0  0  0  0
  -21.0500  -31.8642   20.8180 C   0  0  0  0  0  0  0  0  0  0  0  0
  -19.9540  -31.0609   22.9099 C   0  0  0  0  0  0  0  0  0  0  0  0
  -26.3775  -32.5847   24.7230 C   0  0  0  0  0  0  0  0  0  0  0  0
  -28.4924  -21.9286   18.2780 C   0  0  0  0  0  0  0  0  0  0  0  0
  -29.6286  -26.1786   20.3343 C   0  0  1  0  0  0  0  0  0  1  0  0
  -22.3988  -30.5506   22.5169 C   0  0  1  0  0  0  0  0  0  0  0  0
  -24.2733  -33.5786   23.8157 C   0  0  2  0  0  0  0  0  0  0  0  0
  -21.0085  -30.7069   21.8387 C   0  0  0  0  0  0  0  0  0  0  0  0
  -25.0965  -16.8787   21.2112 N   0  0  0  0  0  0  0  0  0  0  0  0
  -29.1080  -24.0122   19.3460 N   0  0  0  0  0  0  0  0  0  0  0  0
  -25.4011  -17.8633   22.0736 N   0  0  0  0  0  0  0  0  0  0  0  0
  -23.3501  -28.3889   23.2560 N   0  0  0  0  0  0  0  0  0  0  0  0
  -25.2363  -20.9035   19.7629 N   0  0  0  0  0  0  0  0  0  0  0  0
  -26.2222  -18.2751   24.2569 N   0  0  0  0  0  0  0  0  0  0  0  0
  -26.2215  -13.7676   23.9769 N   0  0  0  0  0  0  0  0  0  0  0  0
  -21.7139  -25.3337   24.1036 N   0  0  0  0  0  0  0  0  0  0  0  0
  -22.8489  -31.7366   23.2374 N   0  0  0  0  0  0  0  0  0  0  0  0
  -27.4192  -21.1826   18.8964 N   0  0  0  0  0  0  0  0  0  0  0  0
  -25.7311  -33.7528   24.0713 N   0  3  0  0  0  0  0  0  0  0  0  0
  -26.6827  -15.5480   25.3467 O   0  0  0  0  0  0  0  0  0  0  0  0
  -22.4874  -26.1804   22.0770 O   0  0  0  0  0  0  0  0  0  0  0  0
  -21.6699  -29.4415   24.4829 O   0  0  0  0  0  0  0  0  0  0  0  0
  -24.8177  -32.0255   22.0468 O   0  0  0  0  0  0  0  0  0  0  0  0
  -25.9288  -22.9246   18.8611 O   0  0  0  0  0  0  0  0  0  0  0  0
  -24.6238  -10.7412   19.5810 O   0  0  0  0  0  0  0  0  0  0  0  0
  -28.2710  -26.5100   20.0455 O   0  0  0  0  0  0  0  0  0  1  0  0
  -22.1799   -6.8541   22.6341 F   0  0  0  0  0  0  0  0  0  0  0  0
  -25.7373   -9.9050   21.9693 F   0  0  0  0  0  0  0  0  0  0  0  0
  1  2  1  0  0  0  0
  1  6  2  0  0  0  0
  2  7  2  0  0  0  0
  3 14  1  0  0  0  0
  3 15  2  0  0  0  0
  4  9  2  0  0  0  0
  4 18  1  0  0  0  0
  5 10  1  0  0  0  0
  5 18  2  0  0  0  0
  6 20  1  0  0  0  0
  7 22  1  0  0  0  0
  8 11  2  0  0  0  0
  8 21  1  0  0  0  0
  9 24  1  0  0  0  0
 10 24  2  0  0  0  0
 11 25  1  0  0  0  0
 12 13  2  0  0  0  0
 12 26  1  0  0  0  0
 13 27  1  0  0  0  0
 14 30  2  0  0  0  0
 15 31  1  0  0  0  0
 16 23  1  0  0  0  0
 16 25  2  0  0  0  0
 17 27  2  0  0  0  0
 17 28  1  0  0  0  0
 18 29  1  0  0  0  0
 19 29  1  0  0  0  0
 19 32  2  0  0  0  0
 19 33  1  0  0  0  0
 20 22  2  0  0  0  0
 20 38  1  0  0  0  0
 21 23  2  0  0  0  0
 21 39  1  0  0  0  0
 22 47  1  0  0  0  0
 23 40  1  0  0  0  0
 24 77  1  0  0  0  0
 25 78  1  0  0  0  0
 26 28  2  0  0  0  0
 26 77  1  0  0  0  0
 27 79  1  0  0  0  0
 28 80  1  0  0  0  0
 29 61  2  0  0  0  0
 30 56  1  0  0  0  0
 30 62  1  0  0  0  0
 31 57  1  0  0  0  0
 31 62  2  0  0  0  0
 32 63  1  0  0  0  0
 32 66  1  0  0  0  0
 33 67  1  0  0  0  0
 33 72  2  0  0  0  0
 34 48  1  0  0  0  0
 34 68  1  0  0  0  0
 34 73  2  0  0  0  0
 35 58  1  0  0  0  0
 35 64  1  0  0  0  0
 35 74  2  0  0  0  0
 36 59  1  0  0  0  0
 36 69  1  0  0  0  0
 36 75  2  0  0  0  0
 37 65  1  0  0  0  0
 37 70  1  0  0  0  0
 37 76  2  0  0  0  0
 38 41  1  0  0  0  0
 39 48  1  0  0  0  0
 40 64  1  0  0  0  0
 41 43  1  0  0  0  0
 42 44  1  0  0  0  0
 42 45  1  0  0  0  0
 43 47  1  0  0  0  0
 44 49  1  0  0  0  0
 45 65  1  0  0  0  0
 46 49  1  0  0  0  0
 46 65  1  0  0  0  0
 47 68  1  0  0  0  0
 48 64  1  0  0  0  0
 49 63  1  0  0  0  0
 50 57  1  0  0  0  0
 51 59  1  0  0  0  0
 52 60  1  0  0  0  0
 53 60  1  0  0  0  0
 54 60  1  0  0  0  0
 55 71  1  0  0  0  0
 56 70  1  0  0  0  0
 57 78  1  0  0  0  0
 58 60  1  0  0  0  0
 58 69  1  0  0  0  0
 59 71  1  0  0  0  0
 61 63  1  0  0  0  0
M  CHG  1  71   1
M  ISO  4  37 100  57 101  70 100  78 101
M  END
> <Batch ID>
0113

> <Smiles>
CNC(C)C(=O)NC(C(=O)N1Cc2cc([101O:1][101CH:1](C)c3cccc(C[100NH:0][100C:0](=O)N4CCCC(n5nc(-c6ccc(Oc7ccc(F)cc7F)cc6)c(C(N)=O)c5N)C4)n3)ccc2CC1C(=O)NC1CCCc2ccccc21)C(C)(C)C

> <Shape>
0.202

> <Color>
0.072

> <Negative vol penalty>
0.000

$$$$

  -OEChem-04052320053D

 83 91  0     1  0  0  0  0  0999 V2000
  -17.4279  -24.9553   21.1517 C   0  0  0  0  0  0  0  0  0  0  0  0
  -18.6540  -25.0116   20.4967 C   0  0  0  0  0  0  0  0  0  0  0  0
  -22.5879  -15.3800   19.9992 C   0  0  0  0  0  0  0  0  0  0  0  0
  -24.0524  -14.6315   21.7690 C   0  0  0  0  0  0  0  0  0  0  0  0
  -17.1754  -25.8022   22.2300 C   0  0  0  0  0  0  0  0  0  0  0  0
  -19.6279  -25.9159   20.9190 C   0  0  0  0  0  0  0  0  0  0  0  0
  -24.2336  -23.8274   21.1840 C   0  0  0  0  0  0  0  0  0  0  0  0
  -21.9009  -14.1674   20.0548 C   0  0  0  0  0  0  0  0  0  0  0  0
  -23.3654  -13.4189   21.8247 C   0  0  0  0  0  0  0  0  0  0  0  0
  -24.9243  -23.6544   19.9853 C   0  0  0  0  0  0  0  0  0  0  0  0
  -22.2256   -9.9867   22.1868 C   0  0  0  0  0  0  0  0  0  0  0  0
  -22.9809   -8.8165   22.2609 C   0  0  0  0  0  0  0  0  0  0  0  0
  -26.2060  -25.6460   20.4435 C   0  0  0  0  0  0  0  0  0  0  0  0
  -24.0239   -9.3560   20.1494 C   0  0  0  0  0  0  0  0  0  0  0  0
  -30.3384  -23.9153   17.2483 C   0  0  0  0  0  0  0  0  0  0  0  0
  -23.6637  -15.6121   20.8563 C   0  0  0  0  0  0  0  0  0  0  0  0
  -24.0927  -18.0355   21.5275 C   0  0  0  0  0  0  0  0  0  0  0  0
  -18.1502  -26.7106   22.6718 C   0  0  0  0  0  0  0  0  0  0  0  0
  -24.5169  -24.9188   22.0176 C   0  0  0  0  0  0  0  0  0  0  0  0
  -19.3876  -26.7767   22.0033 C   0  0  0  0  0  0  0  0  0  0  0  0
  -25.5194  -25.8291   21.6535 C   0  0  0  0  0  0  0  0  0  0  0  0
  -22.2896  -13.1868   20.9676 C   0  0  0  0  0  0  0  0  0  0  0  0
  -25.9086  -24.5654   19.6135 C   0  0  0  0  0  0  0  0  0  0  0  0
  -22.3693  -10.8416   21.0940 C   0  0  0  0  0  0  0  0  0  0  0  0
  -23.8801   -8.5011   21.2422 C   0  0  0  0  0  0  0  0  0  0  0  0
  -23.2685  -10.5263   20.0753 C   0  0  0  0  0  0  0  0  0  0  0  0
  -24.3742  -16.8643   20.7989 C   0  0  0  0  0  0  0  0  0  0  0  0
  -29.2628  -23.3441   17.8920 C   0  0  0  0  0  0  0  0  0  0  0  0
  -31.4765  -24.0055   19.2297 C   0  0  0  0  0  0  0  0  0  0  0  0
  -30.4006  -23.4350   19.8737 C   0  0  0  0  0  0  0  0  0  0  0  0
  -25.0482  -18.9329   21.1174 C   0  0  0  0  0  0  0  0  0  0  0  0
  -23.0599  -18.2896   22.4889 C   0  0  0  0  0  0  0  0  0  0  0  0
  -22.8620  -27.4124   23.0886 C   0  0  0  0  0  0  0  0  0  0  0  0
  -25.5393  -27.9413   24.8420 C   0  0  0  0  0  0  0  0  0  0  0  0
  -28.9024  -27.4875   25.2035 C   0  0  0  0  0  0  0  0  0  0  0  0
  -30.3434  -20.1695   19.8614 C   0  0  0  0  0  0  0  0  0  0  0  0
  -17.8139  -27.6389   23.8119 C   0  0  0  0  0  0  0  0  0  0  0  0
  -23.7815  -25.0764   23.3202 C   0  0  0  0  0  0  0  0  0  0  0  0
  -25.8755  -27.0063   22.5229 C   0  0  0  0  0  0  0  0  0  0  0  0
  -19.0370  -28.3076   24.4341 C   0  0  0  0  0  0  0  0  0  0  0  0
  -28.3551  -18.7049   17.2965 C   0  0  0  0  0  0  0  0  0  0  0  0
  -19.9573  -28.8540   23.3472 C   0  0  0  0  0  0  0  0  0  0  0  0
  -27.1226  -18.1870   18.0400 C   0  0  0  0  0  0  0  0  0  0  0  0
  -29.6245  -18.5491   18.1311 C   0  0  0  0  0  0  0  0  0  0  0  0
  -28.3235  -18.6249   20.2228 C   0  0  0  0  0  0  0  0  0  0  0  0
  -20.4785  -27.7269   22.4475 C   0  0  1  0  0  0  0  0  0  0  0  0
  -23.7949  -26.5090   23.8444 C   0  0  1  0  0  0  0  0  0  0  0  0
  -27.0105  -18.8122   19.4435 C   0  0  2  0  0  0  0  0  0  0  0  0
  -32.7163  -24.3782   19.9685 C   0  0  0  0  0  0  0  0  0  0  0  0
  -30.8173  -28.0702   26.7171 C   0  0  0  0  0  0  0  0  0  0  0  0
  -25.5739  -30.7724   23.7045 C   0  0  0  0  0  0  0  0  0  0  0  0
  -27.9496  -30.9754   24.4682 C   0  0  0  0  0  0  0  0  0  0  0  0
  -26.1307  -30.6189   26.1378 C   0  0  0  0  0  0  0  0  0  0  0  0
  -29.4497  -24.6406   25.7986 C   0  0  0  0  0  0  0  0  0  0  0  0
  -28.0179  -22.9744   17.1227 C   0  0  0  0  0  0  0  0  0  0  0  0
  -30.9323  -21.7499   21.6820 C   0  0  0  0  0  0  0  0  0  0  0  0
  -26.7596  -23.0614   17.9796 C   0  0  0  0  0  0  0  0  0  1  0  0
  -30.4265  -23.1640   21.3392 C   0  0  2  0  0  0  0  0  0  0  0  0
  -26.8212  -28.7101   24.6305 C   0  0  1  0  0  0  0  0  0  0  0  0
  -29.7376  -27.0494   26.3930 C   0  0  2  0  0  0  0  0  0  0  0  0
  -26.6110  -30.2482   24.7177 C   0  0  0  0  0  0  0  0  0  0  0  0
  -31.4646  -24.2562   17.9056 N   0  0  0  0  0  0  0  0  0  0  0  0
  -25.4261  -17.0021   19.9874 N   0  0  0  0  0  0  0  0  0  0  0  0
  -29.2746  -23.0938   19.2163 N   0  0  0  0  0  0  0  0  0  0  0  0
  -25.8139  -18.2706   20.2036 N   0  0  0  0  0  0  0  0  0  0  0  0
  -25.1240  -27.1207   23.7837 N   0  0  0  0  0  0  0  0  0  0  0  0
  -29.4527  -19.1646   19.4493 N   0  0  0  0  0  0  0  0  0  0  0  0
  -25.2997  -20.2161   21.4530 N   0  0  0  0  0  0  0  0  0  0  0  0
  -22.1624  -17.2572   22.7939 N   0  0  0  0  0  0  0  0  0  0  0  0
  -21.5424  -27.0028   23.1095 N   0  0  0  0  0  0  0  0  0  0  0  0
  -27.7781  -28.1821   25.5969 N   0  0  0  0  0  0  0  0  0  0  0  0
  -30.1057  -20.7041   21.1217 N   0  0  0  0  0  0  0  0  0  0  0  0
  -29.0824  -23.3430   21.9947 N   0  3  0  0  0  0  0  0  0  0  0  0
  -30.3959  -25.7426   26.1105 N   0  3  0  0  0  0  0  0  0  0  0  0
  -22.9265  -19.4043   23.0485 O   0  0  0  0  0  0  0  0  0  0  0  0
  -23.3062  -28.4081   22.5293 O   0  0  0  0  0  0  0  0  0  0  0  0
  -24.9328  -28.0589   25.9096 O   0  0  0  0  0  0  0  0  0  0  0  0
  -29.2179  -27.2417   24.0413 O   0  0  0  0  0  0  0  0  0  0  0  0
  -31.2778  -20.5650   19.1561 O   0  0  0  0  0  0  0  0  0  0  0  0
  -21.6193  -12.0035   21.0223 O   0  0  0  0  0  0  0  0  0  0  0  0
  -26.5838  -24.3993   18.4437 O   0  0  0  0  0  0  0  0  0  1  0  0
  -24.6065   -7.3780   21.3142 F   0  0  0  0  0  0  0  0  0  0  0  0
  -23.4118  -11.3442   19.0236 F   0  0  0  0  0  0  0  0  0  0  0  0
  1  2  1  0  0  0  0
  1  5  2  0  0  0  0
  2  6  2  0  0  0  0
  3  8  2  0  0  0  0
  3 16  1  0  0  0  0
  4  9  1  0  0  0  0
  4 16  2  0  0  0  0
  5 18  1  0  0  0  0
  6 20  1  0  0  0  0
  7 10  2  0  0  0  0
  7 19  1  0  0  0  0
  8 22  1  0  0  0  0
  9 22  2  0  0  0  0
 10 23  1  0  0  0  0
 11 12  2  0  0  0  0
 11 24  1  0  0  0  0
 12 25  1  0  0  0  0
 13 21  1  0  0  0  0
 13 23  2  0  0  0  0
 14 25  2  0  0  0  0
 14 26  1  0  0  0  0
 15 28  1  0  0  0  0
 15 62  2  0  0  0  0
 16 27  1  0  0  0  0
 17 27  1  0  0  0  0
 17 31  2  0  0  0  0
 17 32  1  0  0  0  0
 18 20  2  0  0  0  0
 18 37  1  0  0  0  0
 19 21  2  0  0  0  0
 19 38  1  0  0  0  0
 20 46  1  0  0  0  0
 21 39  1  0  0  0  0
 22 80  1  0  0  0  0
 23 81  1  0  0  0  0
 24 26  2  0  0  0  0
 24 80  1  0  0  0  0
 25 82  1  0  0  0  0
 26 83  1  0  0  0  0
 27 63  2  0  0  0  0
 28 55  1  0  0  0  0
 28 64  2  0  0  0  0
 29 30  2  0  0  0  0
 29 49  1  0  0  0  0
 29 62  1  0  0  0  0
 30 58  1  0  0  0  0
 30 64  1  0  0  0  0
 31 65  1  0  0  0  0
 31 68  1  0  0  0  0
 32 69  1  0  0  0  0
 32 75  2  0  0  0  0
 33 47  1  0  0  0  0
 33 70  1  0  0  0  0
 33 76  2  0  0  0  0
 34 59  1  0  0  0  0
 34 66  1  0  0  0  0
 34 77  2  0  0  0  0
 35 60  1  0  0  0  0
 35 71  1  0  0  0  0
 35 78  2  0  0  0  0
 36 67  1  0  0  0  0
 36 72  1  0  0  0  0
 36 79  2  0  0  0  0
 37 40  1  0  0  0  0
 38 47  1  0  0  0  0
 39 66  1  0  0  0  0
 40 42  1  0  0  0  0
 41 43  1  0  0  0  0
 41 44  1  0  0  0  0
 42 46  1  0  0  0  0
 43 48  1  0  0  0  0
 44 67  1  0  0  0  0
 45 48  1  0  0  0  0
 45 67  1  0  0  0  0
 46 70  1  0  0  0  0
 47 66  1  0  0  0  0
 48 65  1  0  0  0  0
 50 60  1  0  0  0  0
 51 61  1  0  0  0  0
 52 61  1  0  0  0  0
 53 61  1  0  0  0  0
 54 74  1  0  0  0  0
 55 57  1  0  0  0  0
 56 58  1  0  0  0  0
 56 72  1  0  0  0  0
 57 81  1  0  0  0  0
 58 73  1  0  0  0  0
 59 61  1  0  0  0  0
 59 71  1  0  0  0  0
 60 74  1  0  0  0  0
 63 65  1  0  0  0  0
M  CHG  2  73   1  74   1
M  ISO  4  36 100  57 101  72 100  81 101
M  END
> <Batch ID>
0113

> <Smiles>
CNC(C)C(=O)NC(C(=O)N1Cc2cc([101O:1][101CH2:1]Cc3cnc(C)c(C(N)C[100NH:0][100C:0](=O)N4CCCC(n5nc(-c6ccc(Oc7ccc(F)cc7F)cc6)c(C(N)=O)c5N)C4)n3)ccc2CC1C(=O)NC1CCCc2ccccc21)C(C)(C)C

> <Shape>
0.217

> <Color>
0.059

> <Negative vol penalty>
0.000

$$$$

  -OEChem-04052320053D

 82 89  0     1  0  0  0  0  0999 V2000
  -20.0346  -30.6552   24.1111 C   0  0  0  0  0  0  0  0  0  0  0  0
  -21.3612  -30.2791   23.9265 C   0  0  0  0  0  0  0  0  0  0  0  0
  -27.2362  -17.7192   19.9588 C   0  0  0  0  0  0  0  0  0  0  0  0
  -28.7946  -17.5657   21.7986 C   0  0  0  0  0  0  0  0  0  0  0  0
  -19.0076  -29.7838   23.7507 C   0  0  0  0  0  0  0  0  0  0  0  0
  -21.6616  -29.0308   23.3824 C   0  0  0  0  0  0  0  0  0  0  0  0
  -25.2749  -29.2731   19.8426 C   0  0  0  0  0  0  0  0  0  0  0  0
  -27.1413  -16.3280   19.9231 C   0  0  0  0  0  0  0  0  0  0  0  0
  -28.6997  -16.1745   21.7629 C   0  0  0  0  0  0  0  0  0  0  0  0
  -26.5921  -29.3896   20.2843 C   0  0  0  0  0  0  0  0  0  0  0  0
  -25.5544  -13.8943   21.6527 C   0  0  0  0  0  0  0  0  0  0  0  0
  -24.2821  -13.3341   21.5388 C   0  0  0  0  0  0  0  0  0  0  0  0
  -26.9151  -27.0261   19.9251 C   0  0  0  0  0  0  0  0  0  0  0  0
  -24.9363  -12.2687   19.4714 C   0  0  0  0  0  0  0  0  0  0  0  0
  -28.0629  -18.3381   20.8965 C   0  0  0  0  0  0  0  0  0  0  0  0
  -27.3659  -20.6629   21.6820 C   0  0  0  0  0  0  0  0  0  0  0  0
  -19.2954  -28.5281   23.1929 C   0  0  0  0  0  0  0  0  0  0  0  0
  -24.7637  -28.0282   19.4485 C   0  0  0  0  0  0  0  0  0  0  0  0
  -20.6375  -28.1413   23.0155 C   0  0  0  0  0  0  0  0  0  0  0  0
  -25.5918  -26.8970   19.4764 C   0  0  0  0  0  0  0  0  0  0  0  0
  -27.8731  -15.5557   20.8252 C   0  0  0  0  0  0  0  0  0  0  0  0
  -27.4116  -28.2655   20.3283 C   0  0  0  0  0  0  0  0  0  0  0  0
  -26.5176  -13.6419   20.6759 C   0  0  0  0  0  0  0  0  0  0  0  0
  -23.9730  -12.5213   20.4482 C   0  0  0  0  0  0  0  0  0  0  0  0
  -26.2086  -12.8291   19.5853 C   0  0  0  0  0  0  0  0  0  0  0  0
  -28.1618  -19.7750   20.9335 C   0  0  0  0  0  0  0  0  0  0  0  0
  -27.8560  -21.9080   21.3718 C   0  0  0  0  0  0  0  0  0  0  0  0
  -26.2808  -20.3869   22.5775 C   0  0  0  0  0  0  0  0  0  0  0  0
  -22.4184  -26.1413   20.4697 C   0  0  0  0  0  0  0  0  0  0  0  0
  -23.1926  -24.4092   17.8385 C   0  0  0  0  0  0  0  0  0  0  0  0
  -25.5416  -23.5727   15.5085 C   0  0  0  0  0  0  0  0  0  0  0  0
  -32.8578  -24.5792   20.2056 C   0  0  0  0  0  0  0  0  0  0  0  0
  -18.1524  -27.6013   22.8627 C   0  0  0  0  0  0  0  0  0  0  0  0
  -23.3487  -27.9242   18.9493 C   0  0  0  0  0  0  0  0  0  0  0  0
  -25.0973  -25.5414   19.0449 C   0  0  0  0  0  0  0  0  0  0  0  0
  -18.5493  -26.4475   21.9454 C   0  0  0  0  0  0  0  0  0  0  0  0
  -30.5156  -23.7769   17.6468 C   0  0  0  0  0  0  0  0  0  0  0  0
  -19.8440  -25.8020   22.4291 C   0  0  0  0  0  0  0  0  0  0  0  0
  -29.5959  -22.7457   18.3031 C   0  0  0  0  0  0  0  0  0  0  0  0
  -31.9630  -23.6156   18.1063 C   0  0  0  0  0  0  0  0  0  0  0  0
  -31.2331  -22.5902   20.2251 C   0  0  0  0  0  0  0  0  0  0  0  0
  -21.0032  -26.8056   22.4053 C   0  0  1  0  0  0  0  0  0  0  0  0
  -22.7785  -26.5135   19.0592 C   0  0  1  0  0  0  0  0  0  0  0  0
  -29.7534  -22.7487   19.8356 C   0  0  2  0  0  0  0  0  0  0  0  0
  -25.8933  -22.1022   13.5057 C   0  0  0  0  0  0  0  0  0  0  0  0
  -31.1119  -29.3574   19.3941 C   0  0  0  0  0  0  0  0  0  0  0  0
  -23.4742  -21.9855   19.6705 C   0  0  0  0  0  0  0  0  0  0  0  0
  -24.7170  -20.8272   17.8315 C   0  0  0  0  0  0  0  0  0  0  0  0
  -22.3448  -21.5183   17.4886 C   0  0  0  0  0  0  0  0  0  0  0  0
  -31.6810  -26.2628   24.8456 C   0  0  0  0  0  0  0  0  0  0  0  0
  -32.2879  -28.6654   24.5126 C   0  0  0  0  0  0  0  0  0  0  0  0
  -29.9567  -27.9103   24.0981 C   0  0  0  0  0  0  0  0  0  0  0  0
  -26.0463  -25.8962   13.7463 C   0  0  0  0  0  0  0  0  0  0  0  0
  -33.2610  -26.9037   22.1640 C   0  0  0  0  0  0  0  0  0  0  0  0
  -33.6565  -25.4427   22.3909 C   0  0  0  0  0  0  0  0  0  0  0  0
  -29.6481  -27.4656   20.2086 C   0  0  0  0  0  0  0  0  0  1  0  0
  -24.1542  -23.2832   17.5446 C   0  0  1  0  0  0  0  0  0  0  0  0
  -25.4703  -23.4786   13.9951 C   0  0  2  0  0  0  0  0  0  0  0  0
  -31.0428  -28.0811   20.2169 C   0  0  2  0  0  0  0  0  0  0  0  0
  -31.7804  -27.2389   22.4497 C   0  0  1  0  0  0  0  0  0  0  0  0
  -23.6816  -21.9286   18.1438 C   0  0  0  0  0  0  0  0  0  0  0  0
  -31.4388  -27.4985   23.9578 C   0  0  0  0  0  0  0  0  0  0  0  0
  -29.0870  -20.4028   20.2028 N   0  0  0  0  0  0  0  0  0  0  0  0
  -28.8756  -21.6984   20.4906 N   0  0  0  0  0  0  0  0  0  0  0  0
  -23.7045  -25.4898   18.5706 N   0  0  0  0  0  0  0  0  0  0  0  0
  -32.0433  -23.6283   19.5689 N   0  0  0  0  0  0  0  0  0  0  0  0
  -27.5098  -23.1507   21.7697 N   0  0  0  0  0  0  0  0  0  0  0  0
  -25.9066  -19.0518   22.7822 N   0  0  0  0  0  0  0  0  0  0  0  0
  -21.4910  -26.9824   21.0543 N   0  0  0  0  0  0  0  0  0  0  0  0
  -24.3328  -23.2663   16.0968 N   0  0  0  0  0  0  0  0  0  0  0  0
  -32.8719  -24.5261   21.5940 N   0  0  0  0  0  0  0  0  0  0  0  0
  -26.3638  -24.4945   13.3702 N   0  3  0  0  0  0  0  0  0  0  0  0
  -31.4044  -28.4153   21.6249 N   0  3  0  0  0  0  0  0  0  0  0  0
  -25.6508  -21.2982   23.1658 O   0  0  0  0  0  0  0  0  0  0  0  0
  -22.9422  -25.1624   20.9887 O   0  0  0  0  0  0  0  0  0  0  0  0
  -22.0319  -24.3360   17.4273 O   0  0  0  0  0  0  0  0  0  0  0  0
  -26.5681  -23.8830   16.1090 O   0  0  0  0  0  0  0  0  0  0  0  0
  -33.5190  -25.4172   19.5830 O   0  0  0  0  0  0  0  0  0  0  0  0
  -27.7805  -14.1982   20.7908 O   0  0  0  0  0  0  0  0  0  0  0  0
  -28.6975  -28.3762   20.7596 O   0  0  0  0  0  0  0  0  0  1  0  0
  -22.7517  -11.9820   20.3398 F   0  0  0  0  0  0  0  0  0  0  0  0
  -27.1302  -12.5819   18.6443 F   0  0  0  0  0  0  0  0  0  0  0  0
  1  2  1  0  0  0  0
  1  5  2  0  0  0  0
  2  6  2  0  0  0  0
  3  8  2  0  0  0  0
  3 15  1  0  0  0  0
  4  9  1  0  0  0  0
  4 15  2  0  0  0  0
  5 17  1  0  0  0  0
  6 19  1  0  0  0  0
  7 10  2  0  0  0  0
  7 18  1  0  0  0  0
  8 21  1  0  0  0  0
  9 21  2  0  0  0  0
 10 22  1  0  0  0  0
 11 12  2  0  0  0  0
 11 23  1  0  0  0  0
 12 24  1  0  0  0  0
 13 20  1  0  0  0  0
 13 22  2  0  0  0  0
 14 24  2  0  0  0  0
 14 25  1  0  0  0  0
 15 26  1  0  0  0  0
 16 26  1  0  0  0  0
 16 27  2  0  0  0  0
 16 28  1  0  0  0  0
 17 19  2  0  0  0  0
 17 33  1  0  0  0  0
 18 20  2  0  0  0  0
 18 34  1  0  0  0  0
 19 42  1  0  0  0  0
 20 35  1  0  0  0  0
 21 79  1  0  0  0  0
 22 80  1  0  0  0  0
 23 25  2  0  0  0  0
 23 79  1  0  0  0  0
 24 81  1  0  0  0  0
 25 82  1  0  0  0  0
 26 63  2  0  0  0  0
 27 64  1  0  0  0  0
 27 67  1  0  0  0  0
 28 68  1  0  0  0  0
 28 74  2  0  0  0  0
 29 43  1  0  0  0  0
 29 69  1  0  0  0  0
 29 75  2  0  0  0  0
 30 57  1  0  0  0  0
 30 65  1  0  0  0  0
 30 76  2  0  0  0  0
 31 58  1  0  0  0  0
 31 70  1  0  0  0  0
 31 77  2  0  0  0  0
 32 66  1  0  0  0  0
 32 71  1  0  0  0  0
 32 78  2  0  0  0  0
 33 36  1  0  0  0  0
 34 43  1  0  0  0  0
 35 65  1  0  0  0  0
 36 38  1  0  0  0  0
 37 39  1  0  0  0  0
 37 40  1  0  0  0  0
 38 42  1  0  0  0  0
 39 44  1  0  0  0  0
 40 66  1  0  0  0  0
 41 44  1  0  0  0  0
 41 66  1  0  0  0  0
 42 69  1  0  0  0  0
 43 65  1  0  0  0  0
 44 64  1  0  0  0  0
 45 58  1  0  0  0  0
 46 59  1  0  0  0  0
 47 61  1  0  0  0  0
 48 61  1  0  0  0  0
 49 61  1  0  0  0  0
 50 62  1  0  0  0  0
 51 62  1  0  0  0  0
 52 62  1  0  0  0  0
 53 72  1  0  0  0  0
 54 55  1  0  0  0  0
 54 60  1  0  0  0  0
 55 71  1  0  0  0  0
 56 59  1  0  0  0  0
 56 80  1  0  0  0  0
 57 61  1  0  0  0  0
 57 70  1  0  0  0  0
 58 72  1  0  0  0  0
 59 73  1  0  0  0  0
 60 62  1  0  0  0  0
 60 73  1  0  0  0  0
 63 64  1  0  0  0  0
M  CHG  2  72   1  73   1
M  ISO  4  32 100  56 101  71 100  80 101
M  END
> <Batch ID>
0113

> <Smiles>
CNC(C)C(=O)NC(C(=O)N1Cc2cc([101O:1][101CH2:1]C(C)NC(CC[100NH:0][100C:0](=O)N3CCCC(n4nc(-c5ccc(Oc6ccc(F)cc6F)cc5)c(C(N)=O)c4N)C3)C(C)(C)C)ccc2CC1C(=O)NC1CCCc2ccccc21)C(C)(C)C

> <Shape>
0.235

> <Color>
0.066

> <Negative vol penalty>
0.000

$$$$

  -OEChem-04052320053D

 80 88  0     1  0  0  0  0  0999 V2000
  -16.0660  -26.4088   22.8825 C   0  0  0  0  0  0  0  0  0  0  0  0
  -17.1672  -26.2396   22.0493 C   0  0  0  0  0  0  0  0  0  0  0  0
  -26.2057  -13.8907   21.6374 C   0  0  0  0  0  0  0  0  0  0  0  0
  -26.3016  -12.4946   19.6679 C   0  0  0  0  0  0  0  0  0  0  0  0
  -15.8357  -27.6428   23.4894 C   0  0  0  0  0  0  0  0  0  0  0  0
  -18.0381  -27.3045   21.8217 C   0  0  0  0  0  0  0  0  0  0  0  0
  -22.9037  -25.9295   22.1039 C   0  0  0  0  0  0  0  0  0  0  0  0
  -24.9830  -13.3165   21.9849 C   0  0  0  0  0  0  0  0  0  0  0  0
  -25.0788  -11.9204   20.0155 C   0  0  0  0  0  0  0  0  0  0  0  0
  -23.4420  -25.2635   21.0037 C   0  0  0  0  0  0  0  0  0  0  0  0
  -23.9542   -9.5734   22.1712 C   0  0  0  0  0  0  0  0  0  0  0  0
  -23.8415   -8.1862   22.0777 C   0  0  0  0  0  0  0  0  0  0  0  0
  -24.4510  -27.3238   20.2578 C   0  0  0  0  0  0  0  0  0  0  0  0
  -22.0462   -8.4397   20.4810 C   0  0  0  0  0  0  0  0  0  0  0  0
  -26.8650  -13.4798   20.4789 C   0  0  0  0  0  0  0  0  0  0  0  0
  -29.4114  -13.6324   20.4935 C   0  0  0  0  0  0  0  0  0  0  0  0
  -16.7095  -28.7206   23.2767 C   0  0  0  0  0  0  0  0  0  0  0  0
  -23.1264  -27.3023   22.2838 C   0  0  0  0  0  0  0  0  0  0  0  0
  -17.8185  -28.5544   22.4252 C   0  0  0  0  0  0  0  0  0  0  0  0
  -23.9165  -28.0044   21.3625 C   0  0  0  0  0  0  0  0  0  0  0  0
  -24.4196  -12.3314   21.1740 C   0  0  0  0  0  0  0  0  0  0  0  0
  -24.2134  -25.9613   20.0789 C   0  0  0  0  0  0  0  0  0  0  0  0
  -23.1129  -10.3937   21.4196 C   0  0  0  0  0  0  0  0  0  0  0  0
  -22.8875   -7.6194   21.2326 C   0  0  0  0  0  0  0  0  0  0  0  0
  -22.1589   -9.8269   20.5745 C   0  0  0  0  0  0  0  0  0  0  0  0
  -28.1279  -14.0730   20.1190 C   0  0  0  0  0  0  0  0  0  0  0  0
  -30.2682  -14.5270   19.9001 C   0  0  0  0  0  0  0  0  0  0  0  0
  -29.7950  -12.5145   21.3052 C   0  0  0  0  0  0  0  0  0  0  0  0
  -21.2682  -29.8780   22.4133 C   0  0  0  0  0  0  0  0  0  0  0  0
  -24.0462  -31.3641   23.1856 C   0  0  0  0  0  0  0  0  0  0  0  0
  -27.4564  -31.3809   23.0553 C   0  0  0  0  0  0  0  0  0  0  0  0
  -29.8116  -20.0656   18.3111 C   0  0  0  0  0  0  0  0  0  0  0  0
  -16.3931  -30.0490   23.9170 C   0  0  0  0  0  0  0  0  0  0  0  0
  -22.5609  -28.0004   23.4901 C   0  0  0  0  0  0  0  0  0  0  0  0
  -24.2021  -29.4747   21.5209 C   0  0  0  0  0  0  0  0  0  0  0  0
  -17.5716  -31.0191   23.9215 C   0  0  0  0  0  0  0  0  0  0  0  0
  -30.6309  -17.4383   16.1272 C   0  0  0  0  0  0  0  0  0  0  0  0
  -18.2387  -31.0551   22.5502 C   0  0  0  0  0  0  0  0  0  0  0  0
  -30.2032  -16.2199   16.9449 C   0  0  0  0  0  0  0  0  0  0  0  0
  -29.6358  -18.5930   16.2555 C   0  0  0  0  0  0  0  0  0  0  0  0
  -29.1204  -21.4971   16.3369 C   0  0  0  0  0  0  0  0  0  0  0  0
  -30.6880  -22.3643   18.0334 C   0  0  0  0  0  0  0  0  0  0  0  0
  -28.9156  -17.7621   18.4713 C   0  0  0  0  0  0  0  0  0  0  0  0
  -28.1818  -22.6727   16.5895 C   0  0  0  0  0  0  0  0  0  0  0  0
  -29.7651  -23.5353   18.3291 C   0  0  0  0  0  0  0  0  0  0  0  0
  -18.7997  -29.6786   22.1733 C   0  0  1  0  0  0  0  0  0  0  0  0
  -22.4243  -29.5077   23.2988 C   0  0  1  0  0  0  0  0  0  0  0  0
  -29.9264  -16.6066   18.4086 C   0  0  1  0  0  0  0  0  0  0  0  0
  -29.4473  -32.7457   23.7419 C   0  0  0  0  0  0  0  0  0  0  0  0
  -27.9205  -25.7390   15.9217 C   0  0  0  0  0  0  0  0  0  0  0  0
  -23.4865  -33.3201   20.9117 C   0  0  0  0  0  0  0  0  0  0  0  0
  -25.8841  -34.0317   21.0268 C   0  0  0  0  0  0  0  0  0  0  0  0
  -24.3883  -34.3715   22.9940 C   0  0  0  0  0  0  0  0  0  0  0  0
  -28.5137  -29.1980   24.7512 C   0  0  0  0  0  0  0  0  0  0  0  0
  -26.7606  -24.6525   17.8850 C   0  0  0  0  0  0  0  0  0  0  0  0
  -25.9713  -25.8112   18.4841 C   0  0  0  0  0  0  0  0  0  1  0  0
  -25.1526  -32.0341   22.4071 C   0  0  1  0  0  0  0  0  0  0  0  0
  -28.5043  -31.6168   24.1281 C   0  0  2  0  0  0  0  0  0  0  0  0
  -28.1015  -25.0695   17.2775 C   0  0  1  0  0  0  0  0  0  0  0  0
  -24.7211  -33.4121   21.8306 C   0  0  0  0  0  0  0  0  0  0  0  0
  -28.1615  -15.1628   19.3475 N   0  0  0  0  0  0  0  0  0  0  0  0
  -29.4766  -15.4146   19.2325 N   0  0  0  0  0  0  0  0  0  0  0  0
  -23.6218  -30.1140   22.7134 N   0  0  0  0  0  0  0  0  0  0  0  0
  -29.3721  -18.8986   17.6685 N   0  0  0  0  0  0  0  0  0  0  0  0
  -29.9416  -21.2174   17.5210 N   0  0  0  0  0  0  0  0  0  0  0  0
  -31.6139  -14.6332   19.8894 N   0  0  0  0  0  0  0  0  0  0  0  0
  -28.7876  -11.6975   21.8362 N   0  0  0  0  0  0  0  0  0  0  0  0
  -20.0433  -29.4313   22.8710 N   0  0  0  0  0  0  0  0  0  0  0  0
  -26.3029  -32.0947   23.3024 N   0  0  0  0  0  0  0  0  0  0  0  0
  -28.9726  -23.8599   17.0843 N   0  3  0  0  0  0  0  0  0  0  0  0
  -29.3118  -30.3829   24.3436 N   0  3  0  0  0  0  0  0  0  0  0  0
  -30.9948  -12.2575   21.5657 O   0  0  0  0  0  0  0  0  0  0  0  0
  -21.4722  -30.5225   21.3912 O   0  0  0  0  0  0  0  0  0  0  0  0
  -23.5808  -31.9258   24.1803 O   0  0  0  0  0  0  0  0  0  0  0  0
  -27.6440  -30.6407   22.0923 O   0  0  0  0  0  0  0  0  0  0  0  0
  -30.0720  -20.0780   19.5208 O   0  0  0  0  0  0  0  0  0  0  0  0
  -23.2265  -11.7707   21.5129 O   0  0  0  0  0  0  0  0  0  0  0  0
  -24.7431  -25.3093   18.9963 O   0  0  0  0  0  0  0  0  0  1  0  0
  -22.7804   -6.2873   21.1417 F   0  0  0  0  0  0  0  0  0  0  0  0
  -21.3486  -10.6099   19.8491 F   0  0  0  0  0  0  0  0  0  0  0  0
  1  2  1  0  0  0  0
  1  5  2  0  0  0  0
  2  6  2  0  0  0  0
  3  8  2  0  0  0  0
  3 15  1  0  0  0  0
  4  9  1  0  0  0  0
  4 15  2  0  0  0  0
  5 17  1  0  0  0  0
  6 19  1  0  0  0  0
  7 10  2  0  0  0  0
  7 18  1  0  0  0  0
  8 21  1  0  0  0  0
  9 21  2  0  0  0  0
 10 22  1  0  0  0  0
 11 12  2  0  0  0  0
 11 23  1  0  0  0  0
 12 24  1  0  0  0  0
 13 20  1  0  0  0  0
 13 22  2  0  0  0  0
 14 24  2  0  0  0  0
 14 25  1  0  0  0  0
 15 26  1  0  0  0  0
 16 26  1  0  0  0  0
 16 27  2  0  0  0  0
 16 28  1  0  0  0  0
 17 19  2  0  0  0  0
 17 33  1  0  0  0  0
 18 20  2  0  0  0  0
 18 34  1  0  0  0  0
 19 46  1  0  0  0  0
 20 35  1  0  0  0  0
 21 77  1  0  0  0  0
 22 78  1  0  0  0  0
 23 25  2  0  0  0  0
 23 77  1  0  0  0  0
 24 79  1  0  0  0  0
 25 80  1  0  0  0  0
 26 61  2  0  0  0  0
 27 62  1  0  0  0  0
 27 66  1  0  0  0  0
 28 67  1  0  0  0  0
 28 72  2  0  0  0  0
 29 47  1  0  0  0  0
 29 68  1  0  0  0  0
 29 73  2  0  0  0  0
 30 57  1  0  0  0  0
 30 63  1  0  0  0  0
 30 74  2  0  0  0  0
 31 58  1  0  0  0  0
 31 69  1  0  0  0  0
 31 75  2  0  0  0  0
 32 64  1  0  0  0  0
 32 65  1  0  0  0  0
 32 76  2  0  0  0  0
 33 36  1  0  0  0  0
 34 47  1  0  0  0  0
 35 63  1  0  0  0  0
 36 38  1  0  0  0  0
 37 39  1  0  0  0  0
 37 40  1  0  0  0  0
 38 46  1  0  0  0  0
 39 48  1  0  0  0  0
 40 64  1  0  0  0  0
 41 44  1  0  0  0  0
 41 65  1  0  0  0  0
 42 45  1  0  0  0  0
 42 65  1  0  0  0  0
 43 48  1  0  0  0  0
 43 64  1  0  0  0  0
 44 70  1  0  0  0  0
 45 70  1  0  0  0  0
 46 68  1  0  0  0  0
 47 63  1  0  0  0  0
 48 62  1  0  0  0  0
 49 58  1  0  0  0  0
 50 59  1  0  0  0  0
 51 60  1  0  0  0  0
 52 60  1  0  0  0  0
 53 60  1  0  0  0  0
 54 71  1  0  0  0  0
 55 56  1  0  0  0  0
 55 59  1  0  0  0  0
 56 78  1  0  0  0  0
 57 60  1  0  0  0  0
 57 69  1  0  0  0  0
 58 71  1  0  0  0  0
 59 70  1  0  0  0  0
 61 62  1  0  0  0  0
M  CHG  2  70   1  71   1
M  ISO  4  32 100  56 101  65 100  78 101
M  END
> <Batch ID>
0113

> <Smiles>
CNC(C)C(=O)NC(C(=O)N1Cc2cc([101O:1][101CH2:1]CC(C)N3CC[100N:0]([100C:0](=O)N4CCCC(n5nc(-c6ccc(Oc7ccc(F)cc7F)cc6)c(C(N)=O)c5N)C4)CC3)ccc2CC1C(=O)NC1CCCc2ccccc21)C(C)(C)C

> <Shape>
0.300

> <Color>
0.094

> <Negative vol penalty>
0.000

$$$$

  -OEChem-04052320053D

 82 90  0     1  0  0  0  0  0999 V2000
  -17.6248  -25.5711   21.9242 C   0  0  0  0  0  0  0  0  0  0  0  0
  -18.6132  -26.0767   21.0859 C   0  0  0  0  0  0  0  0  0  0  0  0
  -25.1571  -16.3764   21.5278 C   0  0  0  0  0  0  0  0  0  0  0  0
  -25.2326  -15.9680   19.1478 C   0  0  0  0  0  0  0  0  0  0  0  0
  -17.6182  -25.9111   23.2764 C   0  0  0  0  0  0  0  0  0  0  0  0
  -19.5951  -26.9235   21.5991 C   0  0  0  0  0  0  0  0  0  0  0  0
  -24.2373  -25.7303   19.9647 C   0  0  0  0  0  0  0  0  0  0  0  0
  -23.9740  -15.6429   21.6162 C   0  0  0  0  0  0  0  0  0  0  0  0
  -24.0495  -15.2344   19.2362 C   0  0  0  0  0  0  0  0  0  0  0  0
  -24.5794  -26.1283   18.6731 C   0  0  0  0  0  0  0  0  0  0  0  0
  -23.1096  -12.1320   20.1912 C   0  0  0  0  0  0  0  0  0  0  0  0
  -23.0509  -10.9153   19.5116 C   0  0  0  0  0  0  0  0  0  0  0  0
  -29.9606  -28.4790   16.4277 C   0  0  0  0  0  0  0  0  0  0  0  0
  -25.7843  -28.0116   19.5790 C   0  0  0  0  0  0  0  0  0  0  0  0
  -21.1846  -11.7311   18.2122 C   0  0  0  0  0  0  0  0  0  0  0  0
  -28.6855  -28.6230   15.9271 C   0  0  0  0  0  0  0  0  0  0  0  0
  -25.7864  -16.5389   20.2936 C   0  0  0  0  0  0  0  0  0  0  0  0
  -28.3228  -16.8091   20.3268 C   0  0  0  0  0  0  0  0  0  0  0  0
  -18.6061  -26.7547   23.8084 C   0  0  0  0  0  0  0  0  0  0  0  0
  -24.6577  -26.4774   21.0745 C   0  0  0  0  0  0  0  0  0  0  0  0
  -19.6009  -27.2761   22.9594 C   0  0  0  0  0  0  0  0  0  0  0  0
  -25.4484  -27.6196   20.8838 C   0  0  0  0  0  0  0  0  0  0  0  0
  -30.2288  -27.0903   16.5095 C   0  0  0  0  0  0  0  0  0  0  0  0
  -23.4202  -15.0719   20.4704 C   0  0  0  0  0  0  0  0  0  0  0  0
  -25.3506  -27.2707   18.4799 C   0  0  0  0  0  0  0  0  0  0  0  0
  -22.2058  -13.1482   19.8813 C   0  0  0  0  0  0  0  0  0  0  0  0
  -22.0885  -10.7149   18.5221 C   0  0  0  0  0  0  0  0  0  0  0  0
  -21.2433  -12.9478   18.8918 C   0  0  0  0  0  0  0  0  0  0  0  0
  -27.0083  -17.2970   20.2016 C   0  0  0  0  0  0  0  0  0  0  0  0
  -29.1094  -26.4279   16.0561 C   0  0  0  0  0  0  0  0  0  0  0  0
  -29.1175  -17.9170   20.1610 C   0  0  0  0  0  0  0  0  0  0  0  0
  -28.7844  -15.4738   20.5710 C   0  0  0  0  0  0  0  0  0  0  0  0
  -23.1818  -28.0790   23.3898 C   0  0  0  0  0  0  0  0  0  0  0  0
  -26.1927  -28.4014   24.5530 C   0  0  0  0  0  0  0  0  0  0  0  0
  -29.5483  -28.4497   23.9332 C   0  0  0  0  0  0  0  0  0  0  0  0
  -28.2308  -22.9999   17.2915 C   0  0  0  0  0  0  0  0  0  0  0  0
  -18.5302  -27.1319   25.2667 C   0  0  0  0  0  0  0  0  0  0  0  0
  -24.3027  -26.0198   22.4627 C   0  0  0  0  0  0  0  0  0  0  0  0
  -25.9420  -28.4450   22.0429 C   0  0  0  0  0  0  0  0  0  0  0  0
  -19.8239  -27.7348   25.8080 C   0  0  0  0  0  0  0  0  0  0  0  0
  -29.1051  -22.6621   20.7871 C   0  0  0  0  0  0  0  0  0  0  0  0
  -20.3629  -28.7912   24.8487 C   0  0  0  0  0  0  0  0  0  0  0  0
  -28.7863  -21.1873   21.0392 C   0  0  0  0  0  0  0  0  0  0  0  0
  -28.0899  -23.2927   19.8385 C   0  0  0  0  0  0  0  0  0  0  0  0
  -27.6275  -21.1144   18.7827 C   0  0  0  0  0  0  0  0  0  0  0  0
  -20.6974  -28.1777   23.4837 C   0  0  1  0  0  0  0  0  0  0  0  0
  -24.3531  -27.1435   23.4934 C   0  0  1  0  0  0  0  0  0  0  0  0
  -28.6309  -20.4136   19.7165 C   0  0  2  0  0  0  0  0  0  0  0  0
  -31.7828  -26.8034   18.4732 C   0  0  0  0  0  0  0  0  0  0  0  0
  -32.7083  -26.8437   16.1287 C   0  0  0  0  0  0  0  0  0  0  0  0
  -31.7584  -28.7733   25.0771 C   0  0  0  0  0  0  0  0  0  0  0  0
  -25.6973  -31.4104   24.6538 C   0  0  0  0  0  0  0  0  0  0  0  0
  -28.1692  -31.7396   24.8757 C   0  0  0  0  0  0  0  0  0  0  0  0
  -26.9169  -30.4872   26.6323 C   0  0  0  0  0  0  0  0  0  0  0  0
  -30.4519  -25.7254   23.2116 C   0  0  0  0  0  0  0  0  0  0  0  0
  -28.8458  -24.9789   15.9269 C   0  0  0  0  0  0  0  0  0  0  0  0
  -26.7999  -27.0897   15.1556 C   0  0  0  0  0  0  0  0  0  0  0  0
  -25.8258  -26.6364   16.2376 C   0  0  0  0  0  0  0  0  0  1  0  0
  -31.4804  -26.4745   16.9929 C   0  0  0  0  0  0  0  0  0  0  0  0
  -27.3040  -29.4082   24.3788 C   0  0  1  0  0  0  0  0  0  0  0  0
  -30.7112  -27.7656   24.6291 C   0  0  2  0  0  0  0  0  0  0  0  0
  -27.0111  -30.7471   25.1130 C   0  0  0  0  0  0  0  0  0  0  0  0
  -26.9660  -18.6125   19.9740 N   0  0  0  0  0  0  0  0  0  0  0  0
  -28.1778  -27.3696   15.7045 N   0  0  0  0  0  0  0  0  0  0  0  0
  -28.2639  -18.9606   19.9550 N   0  0  0  0  0  0  0  0  0  0  0  0
  -25.5632  -27.9602   23.3804 N   0  0  0  0  0  0  0  0  0  0  0  0
  -28.0036  -22.5192   18.5918 N   0  0  0  0  0  0  0  0  0  0  0  0
  -30.4562  -18.0907   20.1729 N   0  0  0  0  0  0  0  0  0  0  0  0
  -27.8336  -14.4544   20.7165 N   0  0  0  0  0  0  0  0  0  0  0  0
  -21.9545  -27.4633   23.5452 N   0  0  0  0  0  0  0  0  0  0  0  0
  -28.5283  -28.7441   24.8130 N   0  0  0  0  0  0  0  0  0  0  0  0
  -28.5758  -24.3425   17.1970 N   0  0  0  0  0  0  0  0  0  0  0  0
  -31.3617  -26.7883   23.7112 N   0  3  0  0  0  0  0  0  0  0  0  0
  -30.0032  -15.1957   20.6739 O   0  0  0  0  0  0  0  0  0  0  0  0
  -23.3772  -29.2714   23.1856 O   0  0  0  0  0  0  0  0  0  0  0  0
  -25.8990  -28.0151   25.6871 O   0  0  0  0  0  0  0  0  0  0  0  0
  -29.5468  -28.7014   22.7302 O   0  0  0  0  0  0  0  0  0  0  0  0
  -28.1383  -22.2838   16.2886 O   0  0  0  0  0  0  0  0  0  0  0  0
  -22.2658  -14.3559   20.5563 O   0  0  0  0  0  0  0  0  0  0  0  0
  -25.6854  -27.6617   17.2202 O   0  0  0  0  0  0  0  0  0  1  0  0
  -22.0332   -9.5470   17.8685 F   0  0  0  0  0  0  0  0  0  0  0  0
  -20.3731  -13.9208   18.5888 F   0  0  0  0  0  0  0  0  0  0  0  0
  1  2  1  0  0  0  0
  1  5  2  0  0  0  0
  2  6  2  0  0  0  0
  3  8  2  0  0  0  0
  3 17  1  0  0  0  0
  4  9  1  0  0  0  0
  4 17  2  0  0  0  0
  5 19  1  0  0  0  0
  6 21  1  0  0  0  0
  7 10  2  0  0  0  0
  7 20  1  0  0  0  0
  8 24  1  0  0  0  0
  9 24  2  0  0  0  0
 10 25  1  0  0  0  0
 11 12  2  0  0  0  0
 11 26  1  0  0  0  0
 12 27  1  0  0  0  0
 13 16  2  0  0  0  0
 13 23  1  0  0  0  0
 14 22  1  0  0  0  0
 14 25  2  0  0  0  0
 15 27  2  0  0  0  0
 15 28  1  0  0  0  0
 16 64  1  0  0  0  0
 17 29  1  0  0  0  0
 18 29  1  0  0  0  0
 18 31  2  0  0  0  0
 18 32  1  0  0  0  0
 19 21  2  0  0  0  0
 19 37  1  0  0  0  0
 20 22  2  0  0  0  0
 20 38  1  0  0  0  0
 21 46  1  0  0  0  0
 22 39  1  0  0  0  0
 23 30  2  0  0  0  0
 23 59  1  0  0  0  0
 24 79  1  0  0  0  0
 25 80  1  0  0  0  0
 26 28  2  0  0  0  0
 26 79  1  0  0  0  0
 27 81  1  0  0  0  0
 28 82  1  0  0  0  0
 29 63  2  0  0  0  0
 30 56  1  0  0  0  0
 30 64  1  0  0  0  0
 31 65  1  0  0  0  0
 31 68  1  0  0  0  0
 32 69  1  0  0  0  0
 32 74  2  0  0  0  0
 33 47  1  0  0  0  0
 33 70  1  0  0  0  0
 33 75  2  0  0  0  0
 34 60  1  0  0  0  0
 34 66  1  0  0  0  0
 34 76  2  0  0  0  0
 35 61  1  0  0  0  0
 35 71  1  0  0  0  0
 35 77  2  0  0  0  0
 36 67  1  0  0  0  0
 36 72  1  0  0  0  0
 36 78  2  0  0  0  0
 37 40  1  0  0  0  0
 38 47  1  0  0  0  0
 39 66  1  0  0  0  0
 40 42  1  0  0  0  0
 41 43  1  0  0  0  0
 41 44  1  0  0  0  0
 42 46  1  0  0  0  0
 43 48  1  0  0  0  0
 44 67  1  0  0  0  0
 45 48  1  0  0  0  0
 45 67  1  0  0  0  0
 46 70  1  0  0  0  0
 47 66  1  0  0  0  0
 48 65  1  0  0  0  0
 49 59  1  0  0  0  0
 50 59  1  0  0  0  0
 51 61  1  0  0  0  0
 52 62  1  0  0  0  0
 53 62  1  0  0  0  0
 54 62  1  0  0  0  0
 55 73  1  0  0  0  0
 56 72  1  0  0  0  0
 57 58  1  0  0  0  0
 57 64  1  0  0  0  0
 58 80  1  0  0  0  0
 60 62  1  0  0  0  0
 60 71  1  0  0  0  0
 61 73  1  0  0  0  0
 63 65  1  0  0  0  0
M  CHG  1  73   1
M  ISO  4  36 100  58 101  72 100  80 101
M  END
> <Batch ID>
0113

> <Smiles>
CNC(C)C(=O)NC(C(=O)N1Cc2cc([101O:1][101CH2:1]Cn3ccc(C(C)C)c3C[100NH:0][100C:0](=O)N3CCCC(n4nc(-c5ccc(Oc6ccc(F)cc6F)cc5)c(C(N)=O)c4N)C3)ccc2CC1C(=O)NC1CCCc2ccccc21)C(C)(C)C

> <Shape>
0.218

> <Color>
0.070

> <Negative vol penalty>
0.000

$$$$

  -OEChem-04052320053D

 78 85  0     1  0  0  0  0  0999 V2000
  -16.6157  -30.6873   23.2163 C   0  0  0  0  0  0  0  0  0  0  0  0
  -17.7349  -31.1854   22.5569 C   0  0  0  0  0  0  0  0  0  0  0  0
  -28.4473  -17.5451   20.7493 C   0  0  0  0  0  0  0  0  0  0  0  0
  -30.7264  -17.9757   21.4254 C   0  0  0  0  0  0  0  0  0  0  0  0
  -16.7544  -29.6467   24.1337 C   0  0  0  0  0  0  0  0  0  0  0  0
  -18.9935  -30.6437   22.8153 C   0  0  0  0  0  0  0  0  0  0  0  0
  -25.2385  -29.2469   19.5957 C   0  0  0  0  0  0  0  0  0  0  0  0
  -28.6375  -16.1820   20.9761 C   0  0  0  0  0  0  0  0  0  0  0  0
  -30.9166  -16.6126   21.6522 C   0  0  0  0  0  0  0  0  0  0  0  0
  -26.6059  -29.4660   19.7566 C   0  0  0  0  0  0  0  0  0  0  0  0
  -28.6340  -12.5461   21.0338 C   0  0  0  0  0  0  0  0  0  0  0  0
  -28.1624  -11.6548   20.0701 C   0  0  0  0  0  0  0  0  0  0  0  0
  -26.7140  -27.6174   21.3027 C   0  0  0  0  0  0  0  0  0  0  0  0
  -29.6033  -12.6753   18.4210 C   0  0  0  0  0  0  0  0  0  0  0  0
  -29.4918  -18.4420   20.9739 C   0  0  0  0  0  0  0  0  0  0  0  0
  -28.8410  -20.8105   21.6625 C   0  0  0  0  0  0  0  0  0  0  0  0
  -18.0140  -29.0855   24.3964 C   0  0  0  0  0  0  0  0  0  0  0  0
  -24.5954  -28.2166   20.2966 C   0  0  0  0  0  0  0  0  0  0  0  0
  -19.1493  -29.5954   23.7381 C   0  0  0  0  0  0  0  0  0  0  0  0
  -25.3388  -27.3858   21.1470 C   0  0  0  0  0  0  0  0  0  0  0  0
  -29.8721  -15.7158   21.4275 C   0  0  0  0  0  0  0  0  0  0  0  0
  -27.3433  -28.6530   20.6124 C   0  0  0  0  0  0  0  0  0  0  0  0
  -29.5902  -13.5021   20.6911 C   0  0  0  0  0  0  0  0  0  0  0  0
  -28.6470  -11.7193   18.7637 C   0  0  0  0  0  0  0  0  0  0  0  0
  -30.0749  -13.5666   19.3847 C   0  0  0  0  0  0  0  0  0  0  0  0
  -29.2961  -19.8501   20.7393 C   0  0  0  0  0  0  0  0  0  0  0  0
  -28.8292  -21.9879   20.9554 C   0  0  0  0  0  0  0  0  0  0  0  0
  -28.4628  -20.6525   23.0364 C   0  0  0  0  0  0  0  0  0  0  0  0
  -22.2714  -28.0869   22.4613 C   0  0  0  0  0  0  0  0  0  0  0  0
  -22.5827  -24.8865   22.0337 C   0  0  0  0  0  0  0  0  0  0  0  0
  -32.1286  -27.2102   20.0084 C   0  0  0  0  0  0  0  0  0  0  0  0
  -24.5535  -22.2695   21.0778 C   0  0  0  0  0  0  0  0  0  0  0  0
  -31.8206  -24.7664   16.8510 C   0  0  0  0  0  0  0  0  0  0  0  0
  -18.1208  -27.9937   25.4314 C   0  0  0  0  0  0  0  0  0  0  0  0
  -23.1247  -27.9765   20.0916 C   0  0  0  0  0  0  0  0  0  0  0  0
  -24.6996  -26.2533   21.9068 C   0  0  0  0  0  0  0  0  0  0  0  0
  -19.4373  -27.2234   25.3706 C   0  0  0  0  0  0  0  0  0  0  0  0
  -28.7157  -23.1686   16.1559 C   0  0  0  0  0  0  0  0  0  0  0  0
  -20.6148  -28.1866   25.2591 C   0  0  0  0  0  0  0  0  0  0  0  0
  -28.5065  -22.2393   17.3527 C   0  0  0  0  0  0  0  0  0  0  0  0
  -30.1879  -23.2563   15.7599 C   0  0  0  0  0  0  0  0  0  0  0  0
  -30.8941  -22.6946   18.0533 C   0  0  0  0  0  0  0  0  0  0  0  0
  -20.5280  -29.0175   23.9732 C   0  0  1  0  0  0  0  0  0  0  0  0
  -22.4753  -27.2235   21.2486 C   0  0  1  0  0  0  0  0  0  0  0  0
  -29.4319  -22.6176   18.5248 C   0  0  2  0  0  0  0  0  0  0  0  0
  -25.1705  -19.9026   20.5168 C   0  0  0  0  0  0  0  0  0  0  0  0
  -22.9228  -24.6422   25.0561 C   0  0  0  0  0  0  0  0  0  0  0  0
  -23.8385  -22.3399   24.6968 C   0  0  0  0  0  0  0  0  0  0  0  0
  -21.4964  -22.8683   24.0200 C   0  0  0  0  0  0  0  0  0  0  0  0
  -23.7220  -22.5988   18.2566 C   0  0  0  0  0  0  0  0  0  0  0  0
  -32.7179  -27.4171   18.6221 C   0  0  0  0  0  0  0  0  0  0  0  0
  -33.4388  -26.1909   18.0804 C   0  0  0  0  0  0  0  0  0  0  0  0
  -30.8282  -28.4156   21.7493 C   0  0  0  0  0  0  0  0  0  0  0  0
  -29.3720  -27.9944   21.6643 C   0  0  0  0  0  0  0  0  0  1  0  0
  -23.4179  -23.7997   22.6663 C   0  0  1  0  0  0  0  0  0  0  0  0
  -24.2849  -21.0875   20.1639 C   0  0  2  0  0  0  0  0  0  0  0  0
  -22.9309  -23.4350   24.0971 C   0  0  0  0  0  0  0  0  0  0  0  0
  -29.5545  -20.3721   19.5374 N   0  0  0  0  0  0  0  0  0  0  0  0
  -29.2608  -21.6733   19.7004 N   0  0  0  0  0  0  0  0  0  0  0  0
  -23.2579  -26.0626   21.6777 N   0  0  0  0  0  0  0  0  0  0  0  0
  -31.0110  -23.6204   16.9157 N   0  0  0  0  0  0  0  0  0  0  0  0
  -28.4918  -23.2512   21.2908 N   0  0  0  0  0  0  0  0  0  0  0  0
  -28.5345  -19.3741   23.6064 N   0  0  0  0  0  0  0  0  0  0  0  0
  -20.9484  -28.2305   22.8337 N   0  0  0  0  0  0  0  0  0  0  0  0
  -31.4794  -28.3508   20.4679 N   0  0  0  0  0  0  0  0  0  0  0  0
  -23.4102  -22.6815   21.7293 N   0  0  0  0  0  0  0  0  0  0  0  0
  -32.5638  -25.0431   17.9919 N   0  0  0  0  0  0  0  0  0  0  0  0
  -24.5431  -21.4609   18.7445 N   0  3  0  0  0  0  0  0  0  0  0  0
  -28.0572  -21.6135   23.7333 O   0  0  0  0  0  0  0  0  0  0  0  0
  -23.2425  -28.5848   23.0188 O   0  0  0  0  0  0  0  0  0  0  0  0
  -21.3771  -24.6962   21.8553 O   0  0  0  0  0  0  0  0  0  0  0  0
  -32.2176  -26.1544   20.6292 O   0  0  0  0  0  0  0  0  0  0  0  0
  -25.6669  -22.7743   21.2040 O   0  0  0  0  0  0  0  0  0  0  0  0
  -31.8727  -25.4925   15.8525 O   0  0  0  0  0  0  0  0  0  0  0  0
  -30.0580  -14.3858   21.6491 O   0  0  0  0  0  0  0  0  0  0  0  0
  -28.6781  -28.8651   20.7718 O   0  0  0  0  0  0  0  0  0  1  0  0
  -28.1952  -10.8623   17.8388 F   0  0  0  0  0  0  0  0  0  0  0  0
  -30.9944  -14.4821   19.0498 F   0  0  0  0  0  0  0  0  0  0  0  0
  1  2  1  0  0  0  0
  1  5  2  0  0  0  0
  2  6  2  0  0  0  0
  3  8  2  0  0  0  0
  3 15  1  0  0  0  0
  4  9  1  0  0  0  0
  4 15  2  0  0  0  0
  5 17  1  0  0  0  0
  6 19  1  0  0  0  0
  7 10  2  0  0  0  0
  7 18  1  0  0  0  0
  8 21  1  0  0  0  0
  9 21  2  0  0  0  0
 10 22  1  0  0  0  0
 11 12  2  0  0  0  0
 11 23  1  0  0  0  0
 12 24  1  0  0  0  0
 13 20  1  0  0  0  0
 13 22  2  0  0  0  0
 14 24  2  0  0  0  0
 14 25  1  0  0  0  0
 15 26  1  0  0  0  0
 16 26  1  0  0  0  0
 16 27  2  0  0  0  0
 16 28  1  0  0  0  0
 17 19  2  0  0  0  0
 17 34  1  0  0  0  0
 18 20  2  0  0  0  0
 18 35  1  0  0  0  0
 19 43  1  0  0  0  0
 20 36  1  0  0  0  0
 21 75  1  0  0  0  0
 22 76  1  0  0  0  0
 23 25  2  0  0  0  0
 23 75  1  0  0  0  0
 24 77  1  0  0  0  0
 25 78  1  0  0  0  0
 26 58  2  0  0  0  0
 27 59  1  0  0  0  0
 27 62  1  0  0  0  0
 28 63  1  0  0  0  0
 28 69  2  0  0  0  0
 29 44  1  0  0  0  0
 29 64  1  0  0  0  0
 29 70  2  0  0  0  0
 30 55  1  0  0  0  0
 30 60  1  0  0  0  0
 30 71  2  0  0  0  0
 31 51  1  0  0  0  0
 31 65  1  0  0  0  0
 31 72  2  0  0  0  0
 32 56  1  0  0  0  0
 32 66  1  0  0  0  0
 32 73  2  0  0  0  0
 33 61  1  0  0  0  0
 33 67  1  0  0  0  0
 33 74  2  0  0  0  0
 34 37  1  0  0  0  0
 35 44  1  0  0  0  0
 36 60  1  0  0  0  0
 37 39  1  0  0  0  0
 38 40  1  0  0  0  0
 38 41  1  0  0  0  0
 39 43  1  0  0  0  0
 40 45  1  0  0  0  0
 41 61  1  0  0  0  0
 42 45  1  0  0  0  0
 42 61  1  0  0  0  0
 43 64  1  0  0  0  0
 44 60  1  0  0  0  0
 45 59  1  0  0  0  0
 46 56  1  0  0  0  0
 47 57  1  0  0  0  0
 48 57  1  0  0  0  0
 49 57  1  0  0  0  0
 50 68  1  0  0  0  0
 51 52  1  0  0  0  0
 52 67  1  0  0  0  0
 53 54  1  0  0  0  0
 53 65  1  0  0  0  0
 54 76  1  0  0  0  0
 55 57  1  0  0  0  0
 55 66  1  0  0  0  0
 56 68  1  0  0  0  0
 58 59  1  0  0  0  0
M  CHG  1  68   1
M  ISO  4  33 100  54 101  67 100  76 101
M  END
> <Batch ID>
0113

> <Smiles>
CNC(C)C(=O)NC(C(=O)N1Cc2cc([101O:1][101CH2:1]CNC(=O)CC[100NH:0][100C:0](=O)N3CCCC(n4nc(-c5ccc(Oc6ccc(F)cc6F)cc5)c(C(N)=O)c4N)C3)ccc2CC1C(=O)NC1CCCc2ccccc21)C(C)(C)C

> <Shape>
0.243

> <Color>
0.085

> <Negative vol penalty>
0.000

$$$$

  -OEChem-04052320053D

 88 96  0     1  0  0  0  0  0999 V2000
  -19.6671  -23.8333   23.0999 C   0  0  0  0  0  0  0  0  0  0  0  0
  -20.8390  -24.0912   22.3958 C   0  0  0  0  0  0  0  0  0  0  0  0
  -26.1195  -14.1359   19.0681 C   0  0  0  0  0  0  0  0  0  0  0  0
  -24.1979  -14.4679   20.4944 C   0  0  0  0  0  0  0  0  0  0  0  0
  -18.7932  -24.8767   23.4026 C   0  0  0  0  0  0  0  0  0  0  0  0
  -21.1370  -25.3926   21.9932 C   0  0  0  0  0  0  0  0  0  0  0  0
  -25.9640  -26.6425   22.8783 C   0  0  0  0  0  0  0  0  0  0  0  0
  -25.6920  -12.8367   18.7946 C   0  0  0  0  0  0  0  0  0  0  0  0
  -23.7704  -13.1687   20.2208 C   0  0  0  0  0  0  0  0  0  0  0  0
  -26.9211  -26.1558   21.9890 C   0  0  0  0  0  0  0  0  0  0  0  0
  -22.3621   -9.8182   20.1837 C   0  0  0  0  0  0  0  0  0  0  0  0
  -21.9237   -9.0408   21.2555 C   0  0  0  0  0  0  0  0  0  0  0  0
  -26.9594  -28.2927   20.8703 C   0  0  0  0  0  0  0  0  0  0  0  0
  -24.0933   -9.2530   22.2970 C   0  0  0  0  0  0  0  0  0  0  0  0
  -25.3725  -14.9515   19.9181 C   0  0  0  0  0  0  0  0  0  0  0  0
  -27.0286  -16.6806   20.7986 C   0  0  0  0  0  0  0  0  0  0  0  0
  -19.0854  -26.1929   23.0119 C   0  0  0  0  0  0  0  0  0  0  0  0
  -25.4886  -27.9568   22.7633 C   0  0  0  0  0  0  0  0  0  0  0  0
  -20.2656  -26.4543   22.2898 C   0  0  0  0  0  0  0  0  0  0  0  0
  -25.9982  -28.7944   21.7610 C   0  0  0  0  0  0  0  0  0  0  0  0
  -24.5174  -12.3531   19.3709 C   0  0  0  0  0  0  0  0  0  0  0  0
  -27.4168  -26.9800   20.9830 C   0  0  0  0  0  0  0  0  0  0  0  0
  -23.6663  -10.3131   20.1684 C   0  0  0  0  0  0  0  0  0  0  0  0
  -22.7892   -8.7582   22.3122 C   0  0  0  0  0  0  0  0  0  0  0  0
  -24.5318  -10.0305   21.2251 C   0  0  0  0  0  0  0  0  0  0  0  0
  -25.8139  -16.2935   20.2016 C   0  0  0  0  0  0  0  0  0  0  0  0
  -26.9667  -18.0519   20.8450 C   0  0  0  0  0  0  0  0  0  0  0  0
  -28.1157  -15.8728   21.2691 C   0  0  0  0  0  0  0  0  0  0  0  0
  -22.6510  -29.2747   22.2020 C   0  0  0  0  0  0  0  0  0  0  0  0
  -24.2492  -32.0336   22.7991 C   0  0  0  0  0  0  0  0  0  0  0  0
  -27.4709  -33.4395   21.9856 C   0  0  0  0  0  0  0  0  0  0  0  0
  -24.0489  -21.9719   17.5321 C   0  0  0  0  0  0  0  0  0  0  0  0
  -18.0872  -27.2805   23.3208 C   0  0  0  0  0  0  0  0  0  0  0  0
  -24.4756  -28.4750   23.7471 C   0  0  0  0  0  0  0  0  0  0  0  0
  -25.5355  -30.2195   21.6074 C   0  0  0  0  0  0  0  0  0  0  0  0
  -18.6594  -28.6891   23.1844 C   0  0  0  0  0  0  0  0  0  0  0  0
  -23.8248  -21.6512   21.1299 C   0  0  0  0  0  0  0  0  0  0  0  0
  -19.4453  -28.8225   21.8840 C   0  0  0  0  0  0  0  0  0  0  0  0
  -24.4319  -20.2644   21.3500 C   0  0  0  0  0  0  0  0  0  0  0  0
  -30.6079  -23.7822   17.3858 C   0  0  0  0  0  0  0  0  0  0  0  0
  -22.9890  -21.6926   19.8540 C   0  0  0  0  0  0  0  0  0  0  0  0
  -29.9335  -22.9290   16.3081 C   0  0  0  0  0  0  0  0  0  0  0  0
  -24.3272  -19.8869   18.8428 C   0  0  0  0  0  0  0  0  0  0  0  0
  -20.6359  -27.8564   21.8574 C   0  0  1  0  0  0  0  0  0  0  0  0
  -23.6854  -29.6681   23.2184 C   0  0  1  0  0  0  0  0  0  0  0  0
  -25.2025  -19.7861   20.1052 C   0  0  2  0  0  0  0  0  0  0  0  0
  -29.6359  -24.1538   18.5081 C   0  0  1  0  0  0  0  0  0  0  0  0
  -27.8147  -23.9551   16.8062 C   0  0  1  0  0  0  0  0  0  0  0  0
  -24.2384  -27.5379   18.2025 C   0  0  0  0  0  0  0  0  0  0  0  0
  -28.8622  -35.1397   23.1983 C   0  0  0  0  0  0  0  0  0  0  0  0
  -31.5074  -24.5283   20.1257 C   0  0  0  0  0  0  0  0  0  0  0  0
  -27.1180  -26.0079   15.5234 C   0  0  0  0  0  0  0  0  0  0  0  0
  -22.3184  -24.3733   15.6944 C   0  0  0  0  0  0  0  0  0  0  0  0
  -22.8778  -34.0433   20.9578 C   0  0  0  0  0  0  0  0  0  0  0  0
  -25.0526  -35.2727   20.7948 C   0  0  0  0  0  0  0  0  0  0  0  0
  -23.9153  -35.0411   23.0029 C   0  0  0  0  0  0  0  0  0  0  0  0
  -29.8082  -31.6269   22.0844 C   0  0  0  0  0  0  0  0  0  0  0  0
  -23.5766  -26.2360   17.7660 C   0  0  0  0  0  0  0  0  0  0  0  0
  -29.2423  -25.5047   20.5993 C   0  0  0  0  0  0  0  0  0  1  0  0
  -25.0256  -33.0219   21.9627 C   0  0  1  0  0  0  0  0  0  0  0  0
  -28.6330  -33.6592   22.9372 C   0  0  2  0  0  0  0  0  0  0  0  0
  -30.2454  -25.1253   19.5066 C   0  0  2  0  0  0  0  0  0  0  0  0
  -26.6475  -24.7382   16.2151 C   0  0  2  0  0  0  0  0  0  0  0  0
  -23.6824  -24.1161   16.3382 C   0  0  1  0  0  0  0  0  0  0  0  0
  -24.4099  -25.4210   16.7513 C   0  0  2  0  0  0  0  0  0  0  0  0
  -24.2162  -34.3173   21.6724 C   0  0  0  0  0  0  0  0  0  0  0  0
  -25.0371  -17.3347   19.8911 N   0  0  0  0  0  0  0  0  0  0  0  0
  -25.7653  -18.3897   20.2947 N   0  0  0  0  0  0  0  0  0  0  0  0
  -28.7627  -23.6045   15.7482 N   0  0  0  0  0  0  0  0  0  0  0  0
  -24.5393  -30.6779   22.5897 N   0  0  0  0  0  0  0  0  0  0  0  0
  -23.7863  -21.2432   18.7040 N   0  0  0  0  0  0  0  0  0  0  0  0
  -27.8232  -18.9897   21.3025 N   0  0  0  0  0  0  0  0  0  0  0  0
  -28.0954  -15.4349   22.6003 N   0  0  0  0  0  0  0  0  0  0  0  0
  -21.7196  -28.3673   22.6693 N   0  0  0  0  0  0  0  0  0  0  0  0
  -26.2851  -33.2487   22.6630 N   0  0  0  0  0  0  0  0  0  0  0  0
  -23.4946  -23.2449   17.4769 N   0  0  0  0  0  0  0  0  0  0  0  0
  -25.7091  -25.1008   17.3037 N   0  0  0  0  0  0  0  0  0  0  0  0
  -28.4286  -24.7984   17.8900 N   0  3  0  0  0  0  0  0  0  0  0  0
  -29.8842  -33.0831   22.3684 N   0  3  0  0  0  0  0  0  0  0  0  0
  -29.0848  -15.5627   20.5355 O   0  0  0  0  0  0  0  0  0  0  0  0
  -22.6940  -29.7597   21.0774 O   0  0  0  0  0  0  0  0  0  0  0  0
  -23.4212  -32.4494   23.6134 O   0  0  0  0  0  0  0  0  0  0  0  0
  -27.6012  -33.4411   20.7635 O   0  0  0  0  0  0  0  0  0  0  0  0
  -24.7317  -21.5232   16.6049 O   0  0  0  0  0  0  0  0  0  0  0  0
  -24.0998  -11.0854   19.1040 O   0  0  0  0  0  0  0  0  0  0  0  0
  -28.3506  -26.5073   20.1133 O   0  0  0  0  0  0  0  0  0  1  0  0
  -22.3675   -8.0129   23.3422 F   0  0  0  0  0  0  0  0  0  0  0  0
  -25.7854  -10.5040   21.2167 F   0  0  0  0  0  0  0  0  0  0  0  0
  1  2  1  0  0  0  0
  1  5  2  0  0  0  0
  2  6  2  0  0  0  0
  3  8  2  0  0  0  0
  3 15  1  0  0  0  0
  4  9  1  0  0  0  0
  4 15  2  0  0  0  0
  5 17  1  0  0  0  0
  6 19  1  0  0  0  0
  7 10  2  0  0  0  0
  7 18  1  0  0  0  0
  8 21  1  0  0  0  0
  9 21  2  0  0  0  0
 10 22  1  0  0  0  0
 11 12  2  0  0  0  0
 11 23  1  0  0  0  0
 12 24  1  0  0  0  0
 13 20  1  0  0  0  0
 13 22  2  0  0  0  0
 14 24  2  0  0  0  0
 14 25  1  0  0  0  0
 15 26  1  0  0  0  0
 16 26  1  0  0  0  0
 16 27  2  0  0  0  0
 16 28  1  0  0  0  0
 17 19  2  0  0  0  0
 17 33  1  0  0  0  0
 18 20  2  0  0  0  0
 18 34  1  0  0  0  0
 19 44  1  0  0  0  0
 20 35  1  0  0  0  0
 21 85  1  0  0  0  0
 22 86  1  0  0  0  0
 23 25  2  0  0  0  0
 23 85  1  0  0  0  0
 24 87  1  0  0  0  0
 25 88  1  0  0  0  0
 26 67  2  0  0  0  0
 27 68  1  0  0  0  0
 27 72  1  0  0  0  0
 28 73  1  0  0  0  0
 28 80  2  0  0  0  0
 29 45  1  0  0  0  0
 29 74  1  0  0  0  0
 29 81  2  0  0  0  0
 30 60  1  0  0  0  0
 30 70  1  0  0  0  0
 30 82  2  0  0  0  0
 31 61  1  0  0  0  0
 31 75  1  0  0  0  0
 31 83  2  0  0  0  0
 32 71  1  0  0  0  0
 32 76  1  0  0  0  0
 32 84  2  0  0  0  0
 33 36  1  0  0  0  0
 34 45  1  0  0  0  0
 35 70  1  0  0  0  0
 36 38  1  0  0  0  0
 37 39  1  0  0  0  0
 37 41  1  0  0  0  0
 38 44  1  0  0  0  0
 39 46  1  0  0  0  0
 40 42  1  0  0  0  0
 40 47  1  0  0  0  0
 41 71  1  0  0  0  0
 42 69  1  0  0  0  0
 43 46  1  0  0  0  0
 43 71  1  0  0  0  0
 44 74  1  0  0  0  0
 45 70  1  0  0  0  0
 46 68  1  0  0  0  0
 47 62  1  0  0  0  0
 47 78  1  0  0  0  0
 48 63  1  0  0  0  0
 48 69  1  0  0  0  0
 48 78  1  0  0  0  0
 49 58  1  0  0  0  0
 50 61  1  0  0  0  0
 51 62  1  0  0  0  0
 52 63  1  0  0  0  0
 53 64  1  0  0  0  0
 54 66  1  0  0  0  0
 55 66  1  0  0  0  0
 56 66  1  0  0  0  0
 57 79  1  0  0  0  0
 58 65  1  0  0  0  0
 59 62  1  0  0  0  0
 59 86  1  0  0  0  0
 60 66  1  0  0  0  0
 60 75  1  0  0  0  0
 61 79  1  0  0  0  0
 63 77  1  0  0  0  0
 64 65  1  0  0  0  0
 64 76  1  0  0  0  0
 65 77  1  0  0  0  0
 67 68  1  0  0  0  0
M  CHG  2  78   1  79   1
M  ISO  4  32 100  59 101  76 100  86 101
M  END
> <Batch ID>
0113

> <Smiles>
CCC(NC(C)C1NCCC(C(C)[101CH2:1][101O:1]c2ccc3c(c2)CN(C(=O)C(NC(=O)C(C)NC)C(C)(C)C)C(C(=O)NC2CCCc4ccccc42)C3)N1)C(C)[100NH:0][100C:0](=O)N1CCCC(n2nc(-c3ccc(Oc4ccc(F)cc4F)cc3)c(C(N)=O)c2N)C1

> <Shape>
0.234

> <Color>
0.074

> <Negative vol penalty>
0.000

$$$$

  -OEChem-04052320053D

 82 89  0     1  0  0  0  0  0999 V2000
  -21.8111  -11.4227   21.2478 C   0  0  0  0  0  0  0  0  0  0  0  0
  -21.6420  -12.7878   21.4560 C   0  0  0  0  0  0  0  0  0  0  0  0
  -20.1632  -26.0151   19.0571 C   0  0  0  0  0  0  0  0  0  0  0  0
  -21.8622  -24.4864   19.8404 C   0  0  0  0  0  0  0  0  0  0  0  0
  -23.0848  -10.9074   21.0112 C   0  0  0  0  0  0  0  0  0  0  0  0
  -22.7468  -13.6382   21.4288 C   0  0  0  0  0  0  0  0  0  0  0  0
  -24.6115  -20.3119   19.6119 C   0  0  0  0  0  0  0  0  0  0  0  0
  -19.7258  -25.0592   18.1404 C   0  0  0  0  0  0  0  0  0  0  0  0
  -21.4247  -23.5304   18.9237 C   0  0  0  0  0  0  0  0  0  0  0  0
  -25.2492  -21.4336   20.1400 C   0  0  0  0  0  0  0  0  0  0  0  0
  -20.6889  -23.8779   15.1235 C   0  0  0  0  0  0  0  0  0  0  0  0
  -20.4299  -24.3019   13.8201 C   0  0  0  0  0  0  0  0  0  0  0  0
  -27.3915  -20.4420   19.6435 C   0  0  0  0  0  0  0  0  0  0  0  0
  -18.1357  -23.5771   14.0402 C   0  0  0  0  0  0  0  0  0  0  0  0
  -21.2315  -25.7287   19.9072 C   0  0  0  0  0  0  0  0  0  0  0  0
  -21.2353  -26.8943   22.1763 C   0  0  0  0  0  0  0  0  0  0  0  0
  -24.2045  -11.7532   20.9715 C   0  0  0  0  0  0  0  0  0  0  0  0
  -25.3604  -19.2403   19.1047 C   0  0  0  0  0  0  0  0  0  0  0  0
  -24.0368  -13.1335   21.1928 C   0  0  0  0  0  0  0  0  0  0  0  0
  -26.7609  -19.3090   19.1072 C   0  0  0  0  0  0  0  0  0  0  0  0
  -20.3565  -23.8169   18.0736 C   0  0  0  0  0  0  0  0  0  0  0  0
  -26.6394  -21.4976   20.1585 C   0  0  0  0  0  0  0  0  0  0  0  0
  -19.6713  -23.3035   15.8852 C   0  0  0  0  0  0  0  0  0  0  0  0
  -19.1533  -24.1515   13.2785 C   0  0  0  0  0  0  0  0  0  0  0  0
  -18.3947  -23.1531   15.3436 C   0  0  0  0  0  0  0  0  0  0  0  0
  -21.6842  -26.7159   20.8540 C   0  0  0  0  0  0  0  0  0  0  0  0
  -21.9714  -27.9532   22.6489 C   0  0  0  0  0  0  0  0  0  0  0  0
  -20.2419  -26.1677   22.9117 C   0  0  0  0  0  0  0  0  0  0  0  0
  -25.6674  -16.1660   19.8519 C   0  0  0  0  0  0  0  0  0  0  0  0
  -27.4800  -16.0949   17.1627 C   0  0  0  0  0  0  0  0  0  0  0  0
  -29.4187  -17.7984   14.9296 C   0  0  0  0  0  0  0  0  0  0  0  0
  -30.0641  -25.4827   20.0155 C   0  0  0  0  0  0  0  0  0  0  0  0
  -27.3150  -30.1980   21.1463 C   0  0  0  0  0  0  0  0  0  0  0  0
  -25.5676  -11.1436   20.7592 C   0  0  0  0  0  0  0  0  0  0  0  0
  -24.6572  -18.0490   18.5142 C   0  0  0  0  0  0  0  0  0  0  0  0
  -27.6105  -18.1940   18.5564 C   0  0  0  0  0  0  0  0  0  0  0  0
  -26.6372  -12.1625   20.3744 C   0  0  0  0  0  0  0  0  0  0  0  0
  -24.1994  -31.9209   21.1709 C   0  0  0  0  0  0  0  0  0  0  0  0
  -26.5616  -13.3851   21.2834 C   0  0  0  0  0  0  0  0  0  0  0  0
  -23.1610  -30.7984   21.2118 C   0  0  0  0  0  0  0  0  0  0  0  0
  -25.4068  -31.5419   20.3163 C   0  0  0  0  0  0  0  0  0  0  0  0
  -25.0113  -29.1439   20.7245 C   0  0  0  0  0  0  0  0  0  0  0  0
  -25.2074  -14.0915   21.1464 C   0  0  1  0  0  0  0  0  0  0  0  0
  -25.5232  -16.7933   18.4942 C   0  0  1  0  0  0  0  0  0  0  0  0
  -23.8004  -29.4576   21.6199 C   0  0  2  0  0  0  0  0  0  0  0  0
  -30.7945  -17.4632   12.8579 C   0  0  0  0  0  0  0  0  0  0  0  0
  -29.2410  -29.0243   23.4839 C   0  0  0  0  0  0  0  0  0  0  0  0
  -28.4482  -22.7831   22.7333 C   0  0  0  0  0  0  0  0  0  0  0  0
  -29.6990  -14.8433   18.8418 C   0  0  0  0  0  0  0  0  0  0  0  0
  -31.3084  -15.4066   17.0085 C   0  0  0  0  0  0  0  0  0  0  0  0
  -29.4183  -13.8392   16.5685 C   0  0  0  0  0  0  0  0  0  0  0  0
  -27.7175  -19.6438   13.3613 C   0  0  0  0  0  0  0  0  0  0  0  0
  -29.5793  -27.2871   21.6905 C   0  0  0  0  0  0  0  0  0  0  0  0
  -29.5814  -23.2238   20.5299 C   0  0  0  0  0  0  0  0  0  0  0  0
  -28.9424  -16.3059   16.8532 C   0  0  1  0  0  0  0  0  0  0  0  0
  -29.4240  -17.8205   13.4118 C   0  0  2  0  0  0  0  0  0  0  0  0
  -29.5509  -26.8952   20.2066 C   0  0  1  0  0  0  0  0  0  0  0  0
  -29.1245  -28.7248   21.9917 C   0  0  1  0  0  0  0  0  0  0  0  0
  -28.5450  -22.3866   21.2694 C   0  0  2  0  0  0  0  0  0  1  0  0
  -29.8263  -15.1191   17.3302 C   0  0  0  0  0  0  0  0  0  0  0  0
  -22.6320  -27.5915   20.5087 N   0  0  0  0  0  0  0  0  0  0  0  0
  -22.7845  -28.3303   21.6209 N   0  0  0  0  0  0  0  0  0  0  0  0
  -26.8763  -17.0477   17.9955 N   0  0  0  0  0  0  0  0  0  0  0  0
  -25.9672  -30.2619   20.7559 N   0  0  0  0  0  0  0  0  0  0  0  0
  -21.9959  -28.5893   23.8394 N   0  0  0  0  0  0  0  0  0  0  0  0
  -19.5811  -25.1083   22.2749 N   0  0  0  0  0  0  0  0  0  0  0  0
  -25.1691  -14.8798   19.9333 N   0  0  0  0  0  0  0  0  0  0  0  0
  -29.0222  -16.5726   15.4211 N   0  0  0  0  0  0  0  0  0  0  0  0
  -27.7643  -28.9483   21.5550 N   0  0  0  0  0  0  0  0  0  0  0  0
  -30.3949  -27.8422   19.4212 N   0  3  0  0  0  0  0  0  0  0  0  0
  -29.0537  -19.1749   12.9122 N   0  3  0  0  0  0  0  0  0  0  0  0
  -19.9371  -26.4601   24.0928 O   0  0  0  0  0  0  0  0  0  0  0  0
  -26.1933  -16.8014   20.7582 O   0  0  0  0  0  0  0  0  0  0  0  0
  -26.8930  -15.1245   16.6774 O   0  0  0  0  0  0  0  0  0  0  0  0
  -29.7381  -18.7700   15.6111 O   0  0  0  0  0  0  0  0  0  0  0  0
  -31.0762  -25.1847   19.3948 O   0  0  0  0  0  0  0  0  0  0  0  0
  -28.0612  -31.1829   21.1367 O   0  0  0  0  0  0  0  0  0  0  0  0
  -19.9297  -22.8838   17.1793 O   0  0  0  0  0  0  0  0  0  0  0  0
  -27.2644  -22.5910   20.6740 O   0  0  0  0  0  0  0  0  0  1  0  0
  -29.2226  -24.5973   20.6346 O   0  0  0  0  0  0  0  0  0  0  0  0
  -18.9044  -24.5601   12.0274 F   0  0  0  0  0  0  0  0  0  0  0  0
  -17.4127  -22.6030   16.0709 F   0  0  0  0  0  0  0  0  0  0  0  0
  1  2  1  0  0  0  0
  1  5  2  0  0  0  0
  2  6  2  0  0  0  0
  3  8  2  0  0  0  0
  3 15  1  0  0  0  0
  4  9  1  0  0  0  0
  4 15  2  0  0  0  0
  5 17  1  0  0  0  0
  6 19  1  0  0  0  0
  7 10  2  0  0  0  0
  7 18  1  0  0  0  0
  8 21  1  0  0  0  0
  9 21  2  0  0  0  0
 10 22  1  0  0  0  0
 11 12  2  0  0  0  0
 11 23  1  0  0  0  0
 12 24  1  0  0  0  0
 13 20  1  0  0  0  0
 13 22  2  0  0  0  0
 14 24  2  0  0  0  0
 14 25  1  0  0  0  0
 15 26  1  0  0  0  0
 16 26  1  0  0  0  0
 16 27  2  0  0  0  0
 16 28  1  0  0  0  0
 17 19  2  0  0  0  0
 17 34  1  0  0  0  0
 18 20  2  0  0  0  0
 18 35  1  0  0  0  0
 19 43  1  0  0  0  0
 20 36  1  0  0  0  0
 21 78  1  0  0  0  0
 22 79  1  0  0  0  0
 23 25  2  0  0  0  0
 23 78  1  0  0  0  0
 24 81  1  0  0  0  0
 25 82  1  0  0  0  0
 26 61  2  0  0  0  0
 27 62  1  0  0  0  0
 27 65  1  0  0  0  0
 28 66  1  0  0  0  0
 28 72  2  0  0  0  0
 29 44  1  0  0  0  0
 29 67  1  0  0  0  0
 29 73  2  0  0  0  0
 30 55  1  0  0  0  0
 30 63  1  0  0  0  0
 30 74  2  0  0  0  0
 31 56  1  0  0  0  0
 31 68  1  0  0  0  0
 31 75  2  0  0  0  0
 32 57  1  0  0  0  0
 32 76  2  0  0  0  0
 32 80  1  0  0  0  0
 33 64  1  0  0  0  0
 33 69  1  0  0  0  0
 33 77  2  0  0  0  0
 34 37  1  0  0  0  0
 35 44  1  0  0  0  0
 36 63  1  0  0  0  0
 37 39  1  0  0  0  0
 38 40  1  0  0  0  0
 38 41  1  0  0  0  0
 39 43  1  0  0  0  0
 40 45  1  0  0  0  0
 41 64  1  0  0  0  0
 42 45  1  0  0  0  0
 42 64  1  0  0  0  0
 43 67  1  0  0  0  0
 44 63  1  0  0  0  0
 45 62  1  0  0  0  0
 46 56  1  0  0  0  0
 47 58  1  0  0  0  0
 48 59  1  0  0  0  0
 49 60  1  0  0  0  0
 50 60  1  0  0  0  0
 51 60  1  0  0  0  0
 52 71  1  0  0  0  0
 53 57  1  0  0  0  0
 53 58  1  0  0  0  0
 54 59  1  0  0  0  0
 54 80  1  0  0  0  0
 55 60  1  0  0  0  0
 55 68  1  0  0  0  0
 56 71  1  0  0  0  0
 57 70  1  0  0  0  0
 58 69  1  0  0  0  0
 59 79  1  0  0  0  0
 61 62  1  0  0  0  0
M  CHG  2  70   1  71   1
M  ISO  4  33 100  59 101  69 100  79 101
M  END
> <Batch ID>
0113

> <Smiles>
CNC(C)C(=O)NC(C(=O)N1Cc2cc([101O:1][101CH:1](C)COC(=O)C(N)CC(C)[100NH:0][100C:0](=O)N3CCCC(n4nc(-c5ccc(Oc6ccc(F)cc6F)cc5)c(C(N)=O)c4N)C3)ccc2CC1C(=O)NC1CCCc2ccccc21)C(C)(C)C

> <Shape>
0.208

> <Color>
0.067

> <Negative vol penalty>
0.000

$$$$

  -OEChem-04052320053D

 87 95  0     1  0  0  0  0  0999 V2000
  -20.5360  -29.5734   11.4782 C   0  0  0  0  0  0  0  0  0  0  0  0
  -21.5627  -29.0816   12.2780 C   0  0  0  0  0  0  0  0  0  0  0  0
  -22.9974   -9.9010   19.9800 C   0  0  0  0  0  0  0  0  0  0  0  0
  -23.7331   -9.9406   22.2809 C   0  0  0  0  0  0  0  0  0  0  0  0
  -19.4620  -30.2458   12.0598 C   0  0  0  0  0  0  0  0  0  0  0  0
  -21.5164  -29.2631   13.6598 C   0  0  0  0  0  0  0  0  0  0  0  0
  -22.7321  -25.0619   16.2126 C   0  0  0  0  0  0  0  0  0  0  0  0
  -22.2319   -8.7654   20.2442 C   0  0  0  0  0  0  0  0  0  0  0  0
  -22.9675   -8.8050   22.5452 C   0  0  0  0  0  0  0  0  0  0  0  0
  -24.0862  -24.7436   16.3070 C   0  0  0  0  0  0  0  0  0  0  0  0
  -21.4908   -5.7064   23.7402 C   0  0  0  0  0  0  0  0  0  0  0  0
  -22.0800   -4.6868   24.4877 C   0  0  0  0  0  0  0  0  0  0  0  0
  -24.1423  -25.6689   18.5340 C   0  0  0  0  0  0  0  0  0  0  0  0
  -27.7885  -23.1569   18.1814 C   0  0  0  0  0  0  0  0  0  0  0  0
  -23.7987   -4.4474   22.8066 C   0  0  0  0  0  0  0  0  0  0  0  0
  -23.7481  -10.4886   20.9983 C   0  0  0  0  0  0  0  0  0  0  0  0
  -24.1332  -13.0049   20.8328 C   0  0  0  0  0  0  0  0  0  0  0  0
  -19.3978  -30.4271   13.4503 C   0  0  0  0  0  0  0  0  0  0  0  0
  -22.0744  -25.6970   17.2758 C   0  0  0  0  0  0  0  0  0  0  0  0
  -20.4412  -29.9398   14.2604 C   0  0  0  0  0  0  0  0  0  0  0  0
  -22.7792  -25.9919   18.4516 C   0  0  0  0  0  0  0  0  0  0  0  0
  -28.1007  -21.9046   18.6989 C   0  0  0  0  0  0  0  0  0  0  0  0
  -27.0794  -21.0438   19.0853 C   0  0  0  0  0  0  0  0  0  0  0  0
  -22.2169   -8.2174   21.5268 C   0  0  0  0  0  0  0  0  0  0  0  0
  -24.7922  -25.0497   17.4667 C   0  0  0  0  0  0  0  0  0  0  0  0
  -22.0555   -6.0965   22.5258 C   0  0  0  0  0  0  0  0  0  0  0  0
  -23.2340   -4.0573   24.0210 C   0  0  0  0  0  0  0  0  0  0  0  0
  -23.2094   -5.4670   22.0590 C   0  0  0  0  0  0  0  0  0  0  0  0
  -24.5396  -11.6614   20.7258 C   0  0  0  0  0  0  0  0  0  0  0  0
  -25.7726  -21.4794   18.9352 C   0  0  0  0  0  0  0  0  0  0  0  0
  -26.4500  -23.4979   18.0717 C   0  0  0  0  0  0  0  0  0  1  0  0
  -25.2415  -13.7291   20.4669 C   0  0  0  0  0  0  0  0  0  0  0  0
  -22.8672  -13.5497   21.2278 C   0  0  0  0  0  0  0  0  0  0  0  0
  -20.5925  -28.4836   17.6530 C   0  0  0  0  0  0  0  0  0  0  0  0
  -19.8459  -27.2505   20.5589 C   0  0  0  0  0  0  0  0  0  0  0  0
  -20.6087  -25.0537   23.0567 C   0  0  0  0  0  0  0  0  0  0  0  0
  -30.7392  -14.6613   20.6950 C   0  0  0  0  0  0  0  0  0  0  0  0
  -18.2402  -31.2019   14.0287 C   0  0  0  0  0  0  0  0  0  0  0  0
  -20.6070  -26.0095   17.1686 C   0  0  0  0  0  0  0  0  0  0  0  0
  -22.1146  -26.6551   19.6293 C   0  0  0  0  0  0  0  0  0  0  0  0
  -18.0810  -31.0242   15.5364 C   0  0  0  0  0  0  0  0  0  0  0  0
  -29.5872  -12.2493   18.3429 C   0  0  0  0  0  0  0  0  0  0  0  0
  -19.4284  -31.1707   16.2364 C   0  0  0  0  0  0  0  0  0  0  0  0
  -28.1406  -11.9879   18.7658 C   0  0  0  0  0  0  0  0  0  0  0  0
  -30.4952  -12.4786   19.5492 C   0  0  0  0  0  0  0  0  0  0  0  0
  -28.5914  -13.2680   20.9005 C   0  0  0  0  0  0  0  0  0  0  0  0
  -20.4146  -30.0950   15.7655 C   0  0  1  0  0  0  0  0  0  0  0  0
  -20.1620  -27.1202   18.1150 C   0  0  1  0  0  0  0  0  0  0  0  0
  -27.6269  -13.0863   19.7159 C   0  0  2  0  0  0  0  0  0  0  0  0
  -29.5348  -21.5097   18.8297 C   0  0  0  0  0  0  0  0  0  0  0  0
  -24.6334  -20.5987   19.3331 C   0  0  0  0  0  0  0  0  0  0  0  0
  -19.8363  -24.3021   25.3230 C   0  0  0  0  0  0  0  0  0  0  0  0
  -30.4225  -17.2607   23.2981 C   0  0  0  0  0  0  0  0  0  0  0  0
  -26.8118  -19.5448   21.0962 C   0  0  0  0  0  0  0  0  0  0  0  0
  -26.7569  -18.4870   18.8584 C   0  0  0  0  0  0  0  0  0  0  0  0
  -21.0179  -29.7819   21.7951 C   0  0  0  0  0  0  0  0  0  0  0  0
  -21.0937  -28.5889   23.9949 C   0  0  0  0  0  0  0  0  0  0  0  0
  -18.9044  -28.9804   22.8652 C   0  0  0  0  0  0  0  0  0  0  0  0
  -20.1409  -22.2894   22.1086 C   0  0  0  0  0  0  0  0  0  0  0  0
  -30.6251  -17.9284   20.8427 C   0  0  0  0  0  0  0  0  0  0  0  0
  -28.9262  -19.4049   19.7600 C   0  0  0  0  0  0  0  0  0  0  0  0
  -20.4952  -27.2567   21.9217 C   0  0  1  0  0  0  0  0  0  0  0  0
  -19.7513  -24.0631   23.8235 C   0  0  2  0  0  0  0  0  0  0  0  0
  -30.8278  -16.8344   21.8904 C   0  0  2  0  0  0  0  0  0  0  0  0
  -27.3844  -19.6943   19.6429 C   0  0  0  0  0  0  0  0  0  0  0  0
  -20.3911  -28.6413   22.6215 C   0  0  0  0  0  0  0  0  0  0  0  0
  -25.8070  -11.5365   20.3232 N   0  0  0  0  0  0  0  0  0  0  0  0
  -25.4304  -22.6885   18.4366 N   0  0  0  0  0  0  0  0  0  0  0  0
  -26.2066  -12.8110   20.1740 N   0  0  0  0  0  0  0  0  0  0  0  0
  -20.6799  -26.9465   19.4735 N   0  0  0  0  0  0  0  0  0  0  0  0
  -29.9525  -13.5333   20.4089 N   0  0  0  0  0  0  0  0  0  0  0  0
  -25.4748  -15.0552   20.3702 N   0  0  0  0  0  0  0  0  0  0  0  0
  -21.8367  -12.6641   21.5717 N   0  0  0  0  0  0  0  0  0  0  0  0
  -20.1215  -28.8279   16.4003 N   0  0  0  0  0  0  0  0  0  0  0  0
  -19.8858  -26.1621   22.6692 N   0  0  0  0  0  0  0  0  0  0  0  0
  -30.1467  -15.6162   21.5122 N   0  0  0  0  0  0  0  0  0  0  0  0
  -20.1956  -22.6683   23.5440 N   0  3  0  0  0  0  0  0  0  0  0  0
  -29.1935  -18.3179   20.7373 N   0  3  0  0  0  0  0  0  0  0  0  0
  -22.6509  -14.7849   21.2585 O   0  0  0  0  0  0  0  0  0  0  0  0
  -21.2984  -29.1729   18.3798 O   0  0  0  0  0  0  0  0  0  0  0  0
  -18.6416  -27.4989   20.4616 O   0  0  0  0  0  0  0  0  0  0  0  0
  -21.8013  -24.8649   22.8277 O   0  0  0  0  0  0  0  0  0  0  0  0
  -31.8826  -14.8091   20.2504 O   0  0  0  0  0  0  0  0  0  0  0  0
  -21.4697   -7.1094   21.7852 O   0  0  0  0  0  0  0  0  0  0  0  0
  -26.1141  -24.7407   17.5612 O   0  0  0  0  0  0  0  0  0  1  0  0
  -23.8006   -3.0793   24.7397 F   0  0  0  0  0  0  0  0  0  0  0  0
  -23.7571   -5.8382   20.8937 F   0  0  0  0  0  0  0  0  0  0  0  0
  1  2  1  0  0  0  0
  1  5  2  0  0  0  0
  2  6  2  0  0  0  0
  3  8  2  0  0  0  0
  3 16  1  0  0  0  0
  4  9  1  0  0  0  0
  4 16  2  0  0  0  0
  5 18  1  0  0  0  0
  6 20  1  0  0  0  0
  7 10  2  0  0  0  0
  7 19  1  0  0  0  0
  8 24  1  0  0  0  0
  9 24  2  0  0  0  0
 10 25  1  0  0  0  0
 11 12  2  0  0  0  0
 11 26  1  0  0  0  0
 12 27  1  0  0  0  0
 13 21  1  0  0  0  0
 13 25  2  0  0  0  0
 14 22  2  0  0  0  0
 14 31  1  0  0  0  0
 15 27  2  0  0  0  0
 15 28  1  0  0  0  0
 16 29  1  0  0  0  0
 17 29  1  0  0  0  0
 17 32  2  0  0  0  0
 17 33  1  0  0  0  0
 18 20  2  0  0  0  0
 18 38  1  0  0  0  0
 19 21  2  0  0  0  0
 19 39  1  0  0  0  0
 20 47  1  0  0  0  0
 21 40  1  0  0  0  0
 22 23  1  0  0  0  0
 22 50  1  0  0  0  0
 23 30  2  0  0  0  0
 23 65  1  0  0  0  0
 24 84  1  0  0  0  0
 25 85  1  0  0  0  0
 26 28  2  0  0  0  0
 26 84  1  0  0  0  0
 27 86  1  0  0  0  0
 28 87  1  0  0  0  0
 29 67  2  0  0  0  0
 30 51  1  0  0  0  0
 30 68  1  0  0  0  0
 31 68  2  0  0  0  0
 31 85  1  0  0  0  0
 32 69  1  0  0  0  0
 32 72  1  0  0  0  0
 33 73  1  0  0  0  0
 33 79  2  0  0  0  0
 34 48  1  0  0  0  0
 34 74  1  0  0  0  0
 34 80  2  0  0  0  0
 35 62  1  0  0  0  0
 35 70  1  0  0  0  0
 35 81  2  0  0  0  0
 36 63  1  0  0  0  0
 36 75  1  0  0  0  0
 36 82  2  0  0  0  0
 37 71  1  0  0  0  0
 37 76  1  0  0  0  0
 37 83  2  0  0  0  0
 38 41  1  0  0  0  0
 39 48  1  0  0  0  0
 40 70  1  0  0  0  0
 41 43  1  0  0  0  0
 42 44  1  0  0  0  0
 42 45  1  0  0  0  0
 43 47  1  0  0  0  0
 44 49  1  0  0  0  0
 45 71  1  0  0  0  0
 46 49  1  0  0  0  0
 46 71  1  0  0  0  0
 47 74  1  0  0  0  0
 48 70  1  0  0  0  0
 49 69  1  0  0  0  0
 52 63  1  0  0  0  0
 53 64  1  0  0  0  0
 54 65  1  0  0  0  0
 55 65  1  0  0  0  0
 56 66  1  0  0  0  0
 57 66  1  0  0  0  0
 58 66  1  0  0  0  0
 59 77  1  0  0  0  0
 60 64  1  0  0  0  0
 60 78  1  0  0  0  0
 61 65  1  0  0  0  0
 61 78  1  0  0  0  0
 62 66  1  0  0  0  0
 62 75  1  0  0  0  0
 63 77  1  0  0  0  0
 64 76  1  0  0  0  0
 67 69  1  0  0  0  0
M  CHG  2  77   1  78   1
M  ISO  4  31 101  37 100  76 100  85 101
M  END
> <Batch ID>
0113

> <Smiles>
CNC(C)C(=O)NC(C(=O)N1Cc2cc([101O:1][101c:1]3cc(C)c(C(C)(C)CNCC(C)[100NH:0][100C:0](=O)N4CCCC(n5nc(-c6ccc(Oc7ccc(F)cc7F)cc6)c(C(N)=O)c5N)C4)c(C)n3)ccc2CC1C(=O)NC1CCCc2ccccc21)C(C)(C)C

> <Shape>
0.268

> <Color>
0.189

> <Negative vol penalty>
0.000

$$$$

  -OEChem-04052320052D

  0  0  0     0  0  0  0  0  0999 V2000
M  END
$$$$

  -OEChem-04052320053D

 86 94  0     1  0  0  0  0  0999 V2000
  -21.4850   -7.7141   19.2120 C   0  0  0  0  0  0  0  0  0  0  0  0
  -20.6788   -8.8317   19.0210 C   0  0  0  0  0  0  0  0  0  0  0  0
  -28.9412  -25.9672   20.3003 C   0  0  0  0  0  0  0  0  0  0  0  0
  -27.0506  -25.7226   18.8161 C   0  0  0  0  0  0  0  0  0  0  0  0
  -22.6579   -7.8213   19.9582 C   0  0  0  0  0  0  0  0  0  0  0  0
  -21.0445  -10.0570   19.5771 C   0  0  0  0  0  0  0  0  0  0  0  0
  -20.6646  -17.0977   18.3118 C   0  0  0  0  0  0  0  0  0  0  0  0
  -29.3828  -24.6919   19.9479 C   0  0  0  0  0  0  0  0  0  0  0  0
  -27.4922  -24.4473   18.4637 C   0  0  0  0  0  0  0  0  0  0  0  0
  -20.2590  -18.2819   18.9256 C   0  0  0  0  0  0  0  0  0  0  0  0
  -31.0228  -23.2484   17.3673 C   0  0  0  0  0  0  0  0  0  0  0  0
  -32.3793  -23.0871   17.0851 C   0  0  0  0  0  0  0  0  0  0  0  0
  -22.3478  -18.3665   20.1293 C   0  0  0  0  0  0  0  0  0  0  0  0
  -17.6829  -26.2121   23.0768 C   0  0  0  0  0  0  0  0  0  0  0  0
  -19.4578  -27.1884   21.7804 C   0  0  0  0  0  0  0  0  0  0  0  0
  -32.5622  -21.4826   18.8821 C   0  0  0  0  0  0  0  0  0  0  0  0
  -27.7751  -26.4826   19.7345 C   0  0  0  0  0  0  0  0  0  0  0  0
  -27.6500  -29.0172   19.4747 C   0  0  0  0  0  0  0  0  0  0  0  0
  -23.0431   -9.0508   20.5156 C   0  0  0  0  0  0  0  0  0  0  0  0
  -21.9125  -16.5322   18.6109 C   0  0  0  0  0  0  0  0  0  0  0  0
  -22.2230  -10.1805   20.3326 C   0  0  0  0  0  0  0  0  0  0  0  0
  -22.7680  -17.1764   19.5161 C   0  0  0  0  0  0  0  0  0  0  0  0
  -18.6847  -26.0841   22.1212 C   0  0  0  0  0  0  0  0  0  0  0  0
  -28.6584  -23.9320   19.0296 C   0  0  0  0  0  0  0  0  0  0  0  0
  -21.0993  -18.9150   19.8367 C   0  0  0  0  0  0  0  0  0  0  0  0
  -30.4361  -22.5269   18.4069 C   0  0  0  0  0  0  0  0  0  0  0  0
  -33.1490  -22.2042   17.8425 C   0  0  0  0  0  0  0  0  0  0  0  0
  -31.2058  -21.6440   19.1643 C   0  0  0  0  0  0  0  0  0  0  0  0
  -27.3181  -27.7996   20.0985 C   0  0  0  0  0  0  0  0  0  0  0  0
  -17.4956  -27.4560   23.6576 C   0  0  0  0  0  0  0  0  0  0  0  0
  -19.1910  -28.3887   22.4191 C   0  0  0  0  0  0  0  0  0  0  0  0
  -26.9641  -29.9679   20.1905 C   0  0  0  0  0  0  0  0  0  0  0  0
  -28.5021  -29.2666   18.3489 C   0  0  0  0  0  0  0  0  0  0  0  0
  -22.8836  -13.7889   19.8895 C   0  0  0  0  0  0  0  0  0  0  0  0
  -25.8231  -14.9128   19.1032 C   0  0  0  0  0  0  0  0  0  0  0  0
  -28.2898  -17.5278   18.7961 C   0  0  0  0  0  0  0  0  0  0  0  0
  -22.0016  -29.7608   23.5344 C   0  0  0  0  0  0  0  0  0  0  0  0
  -24.2954   -9.1071   21.3542 C   0  0  0  0  0  0  0  0  0  0  0  0
  -22.3465  -15.2685   17.9202 C   0  0  0  0  0  0  0  0  0  0  0  0
  -24.1261  -16.6211   19.8562 C   0  0  0  0  0  0  0  0  0  0  0  0
  -24.8041  -10.5261   21.5947 C   0  0  0  0  0  0  0  0  0  0  0  0
  -25.2352  -30.8358   24.5664 C   0  0  0  0  0  0  0  0  0  0  0  0
  -23.6559  -11.4423   22.0059 C   0  0  0  0  0  0  0  0  0  0  0  0
  -26.1656  -30.2894   23.4820 C   0  0  0  0  0  0  0  0  0  0  0  0
  -24.0886  -29.8722   24.8642 C   0  0  0  0  0  0  0  0  0  0  0  0
  -24.2376  -28.9096   22.6004 C   0  0  0  0  0  0  0  0  0  0  0  0
  -22.5986  -11.5326   20.8990 C   0  0  1  0  0  0  0  0  0  0  0  0
  -23.4247  -14.5086   18.6867 C   0  0  1  0  0  0  0  0  0  0  0  0
  -25.3780  -29.8715   22.2257 C   0  0  2  0  0  0  0  0  0  0  0  0
  -16.4306  -27.6301   24.6882 C   0  0  0  0  0  0  0  0  0  0  0  0
  -30.6251  -17.4683   17.8796 C   0  0  0  0  0  0  0  0  0  0  0  0
  -26.6403  -14.4465   22.0058 C   0  0  0  0  0  0  0  0  0  0  0  0
  -28.6283  -15.9158   21.6091 C   0  0  0  0  0  0  0  0  0  0  0  0
  -28.3681  -13.7971   20.3184 C   0  0  0  0  0  0  0  0  0  0  0  0
  -21.4087  -24.1979   21.8597 C   0  0  0  0  0  0  0  0  0  0  0  0
  -19.7223  -23.7111   23.6687 C   0  0  0  0  0  0  0  0  0  0  0  0
  -27.7200  -19.7152   16.8857 C   0  0  0  0  0  0  0  0  0  0  0  0
  -18.9330  -24.7504   21.4567 C   0  0  0  0  0  0  0  0  0  0  0  0
  -20.0001  -29.5949   22.0765 C   0  0  0  0  0  0  0  0  0  0  0  0
  -20.0212  -22.3568   20.1408 C   0  0  0  0  0  0  0  0  0  0  0  0
  -19.8265  -20.9193   19.7005 C   0  0  0  0  0  0  0  0  0  1  0  0
  -26.8637  -15.7603   19.7944 C   0  0  1  0  0  0  0  0  0  0  0  0
  -29.1711  -17.8090   17.5925 C   0  0  2  0  0  0  0  0  0  0  0  0
  -27.5988  -14.9896   20.9272 C   0  0  0  0  0  0  0  0  0  0  0  0
  -19.9537  -23.8263   22.1594 C   0  0  0  0  0  0  0  0  0  0  0  0
  -26.4861  -27.9593   21.1312 N   0  0  0  0  0  0  0  0  0  0  0  0
  -18.2265  -28.5515   23.3523 N   0  0  0  0  0  0  0  0  0  0  0  0
  -26.2896  -29.2884   21.1618 N   0  0  0  0  0  0  0  0  0  0  0  0
  -24.5024  -15.3799   19.1594 N   0  0  0  0  0  0  0  0  0  0  0  0
  -23.3815  -29.5167   23.6315 N   0  0  0  0  0  0  0  0  0  0  0  0
  -26.8783  -31.3104   20.0774 N   0  0  0  0  0  0  0  0  0  0  0  0
  -29.1291  -28.1760   17.7310 N   0  0  0  0  0  0  0  0  0  0  0  0
  -23.0453  -12.4173   19.8443 N   0  0  0  0  0  0  0  0  0  0  0  0
  -27.7439  -16.2627   18.7450 N   0  0  0  0  0  0  0  0  0  0  0  0
  -21.4103  -29.4002   22.3298 N   0  0  0  0  0  0  0  0  0  0  0  0
  -29.0911  -19.2490   17.2170 N   0  3  0  0  0  0  0  0  0  0  0  0
  -19.7406  -22.4664   21.5946 N   0  3  0  0  0  0  0  0  0  0  0  0
  -28.7145  -30.4240   17.9142 O   0  0  0  0  0  0  0  0  0  0  0  0
  -22.3596  -14.4305   20.7925 O   0  0  0  0  0  0  0  0  0  0  0  0
  -26.1704  -13.8782   18.5282 O   0  0  0  0  0  0  0  0  0  0  0  0
  -28.1072  -18.3471   19.6939 O   0  0  0  0  0  0  0  0  0  0  0  0
  -21.3463  -30.2679   24.4511 O   0  0  0  0  0  0  0  0  0  0  0  0
  -29.0891  -22.6876   18.6853 O   0  0  0  0  0  0  0  0  0  0  0  0
  -20.7056  -20.0707   20.4377 O   0  0  0  0  0  0  0  0  0  1  0  0
  -34.4512  -22.0482   17.5704 F   0  0  0  0  0  0  0  0  0  0  0  0
  -30.6474  -20.9472   20.1635 F   0  0  0  0  0  0  0  0  0  0  0  0
  1  2  1  0  0  0  0
  1  5  2  0  0  0  0
  2  6  2  0  0  0  0
  3  8  2  0  0  0  0
  3 17  1  0  0  0  0
  4  9  1  0  0  0  0
  4 17  2  0  0  0  0
  5 19  1  0  0  0  0
  6 21  1  0  0  0  0
  7 10  2  0  0  0  0
  7 20  1  0  0  0  0
  8 24  1  0  0  0  0
  9 24  2  0  0  0  0
 10 25  1  0  0  0  0
 11 12  2  0  0  0  0
 11 26  1  0  0  0  0
 12 27  1  0  0  0  0
 13 22  1  0  0  0  0
 13 25  2  0  0  0  0
 14 23  1  0  0  0  0
 14 30  2  0  0  0  0
 15 23  2  0  0  0  0
 15 31  1  0  0  0  0
 16 27  2  0  0  0  0
 16 28  1  0  0  0  0
 17 29  1  0  0  0  0
 18 29  1  0  0  0  0
 18 32  2  0  0  0  0
 18 33  1  0  0  0  0
 19 21  2  0  0  0  0
 19 38  1  0  0  0  0
 20 22  2  0  0  0  0
 20 39  1  0  0  0  0
 21 47  1  0  0  0  0
 22 40  1  0  0  0  0
 23 58  1  0  0  0  0
 24 83  1  0  0  0  0
 25 84  1  0  0  0  0
 26 28  2  0  0  0  0
 26 83  1  0  0  0  0
 27 85  1  0  0  0  0
 28 86  1  0  0  0  0
 29 66  2  0  0  0  0
 30 50  1  0  0  0  0
 30 67  1  0  0  0  0
 31 59  1  0  0  0  0
 31 67  2  0  0  0  0
 32 68  1  0  0  0  0
 32 71  1  0  0  0  0
 33 72  1  0  0  0  0
 33 78  2  0  0  0  0
 34 48  1  0  0  0  0
 34 73  1  0  0  0  0
 34 79  2  0  0  0  0
 35 62  1  0  0  0  0
 35 69  1  0  0  0  0
 35 80  2  0  0  0  0
 36 63  1  0  0  0  0
 36 74  1  0  0  0  0
 36 81  2  0  0  0  0
 37 70  1  0  0  0  0
 37 75  1  0  0  0  0
 37 82  2  0  0  0  0
 38 41  1  0  0  0  0
 39 48  1  0  0  0  0
 40 69  1  0  0  0  0
 41 43  1  0  0  0  0
 42 44  1  0  0  0  0
 42 45  1  0  0  0  0
 43 47  1  0  0  0  0
 44 49  1  0  0  0  0
 45 70  1  0  0  0  0
 46 49  1  0  0  0  0
 46 70  1  0  0  0  0
 47 73  1  0  0  0  0
 48 69  1  0  0  0  0
 49 68  1  0  0  0  0
 51 63  1  0  0  0  0
 52 64  1  0  0  0  0
 53 64  1  0  0  0  0
 54 64  1  0  0  0  0
 55 65  1  0  0  0  0
 56 65  1  0  0  0  0
 57 76  1  0  0  0  0
 58 65  1  0  0  0  0
 59 75  1  0  0  0  0
 60 61  1  0  0  0  0
 60 77  1  0  0  0  0
 61 84  1  0  0  0  0
 62 64  1  0  0  0  0
 62 74  1  0  0  0  0
 63 76  1  0  0  0  0
 65 77  1  0  0  0  0
 66 68  1  0  0  0  0
M  CHG  2  76   1  77   1
M  ISO  4  37 100  61 101  75 100  84 101
M  END
> <Batch ID>
0113

> <Smiles>
CNC(C)C(=O)NC(C(=O)N1Cc2cc([101O:1][101CH2:1]CNC(C)(C)Cc3cc(C)nc(C[100NH:0][100C:0](=O)N4CCCC(n5nc(-c6ccc(Oc7ccc(F)cc7F)cc6)c(C(N)=O)c5N)C4)c3)ccc2CC1C(=O)NC1CCCc2ccccc21)C(C)(C)C

> <Shape>
0.245

> <Color>
0.071

> <Negative vol penalty>
0.000

$$$$

  -OEChem-04052320053D

 84 92  0     1  0  0  0  0  0999 V2000
  -18.1762  -32.4831   20.4451 C   0  0  0  0  0  0  0  0  0  0  0  0
  -19.5021  -32.3388   20.0495 C   0  0  0  0  0  0  0  0  0  0  0  0
  -31.0363  -22.0925   17.9517 C   0  0  0  0  0  0  0  0  0  0  0  0
  -24.4319  -14.0721   19.7388 C   0  0  0  0  0  0  0  0  0  0  0  0
  -23.6356  -15.1700   21.7382 C   0  0  0  0  0  0  0  0  0  0  0  0
  -17.7569  -31.9734   21.6732 C   0  0  0  0  0  0  0  0  0  0  0  0
  -20.4098  -31.6854   20.8823 C   0  0  0  0  0  0  0  0  0  0  0  0
  -25.1054  -28.1525   19.1572 C   0  0  0  0  0  0  0  0  0  0  0  0
  -23.6188  -12.9737   20.0181 C   0  0  0  0  0  0  0  0  0  0  0  0
  -22.8224  -14.0717   22.0175 C   0  0  0  0  0  0  0  0  0  0  0  0
  -26.4694  -28.4064   19.0200 C   0  0  0  0  0  0  0  0  0  0  0  0
  -23.6842  -10.2823   22.0618 C   0  0  0  0  0  0  0  0  0  0  0  0
  -24.2438   -9.0118   21.9276 C   0  0  0  0  0  0  0  0  0  0  0  0
  -29.9614  -22.1969   18.8687 C   0  0  0  0  0  0  0  0  0  0  0  0
  -26.8506  -27.5196   21.2307 C   0  0  0  0  0  0  0  0  0  0  0  0
  -22.5839   -8.4565   20.2623 C   0  0  0  0  0  0  0  0  0  0  0  0
  -31.9881  -23.0147   18.3270 C   0  0  0  0  0  0  0  0  0  0  0  0
  -24.4404  -15.1702   20.5989 C   0  0  0  0  0  0  0  0  0  0  0  0
  -24.9433  -17.4419   19.5528 C   0  0  0  0  0  0  0  0  0  0  0  0
  -18.6577  -31.3050   22.5172 C   0  0  0  0  0  0  0  0  0  0  0  0
  -24.6015  -27.5894   20.3384 C   0  0  0  0  0  0  0  0  0  0  0  0
  -20.0025  -31.1674   22.1235 C   0  0  0  0  0  0  0  0  0  0  0  0
  -25.4802  -27.2572   21.3794 C   0  0  0  0  0  0  0  0  0  0  0  0
  -22.8140  -12.9735   21.1574 C   0  0  0  0  0  0  0  0  0  0  0  0
  -27.3419  -28.0927   20.0580 C   0  0  0  0  0  0  0  0  0  0  0  0
  -22.5743  -10.6400   21.2963 C   0  0  0  0  0  0  0  0  0  0  0  0
  -23.6937   -8.0989   21.0278 C   0  0  0  0  0  0  0  0  0  0  0  0
  -22.0241   -9.7270   20.3965 C   0  0  0  0  0  0  0  0  0  0  0  0
  -25.2806  -16.3049   20.3113 C   0  0  0  0  0  0  0  0  0  0  0  0
  -30.2889  -23.1800   19.7762 C   0  0  0  0  0  0  0  0  0  0  0  0
  -26.0753  -18.2194   19.5776 C   0  0  0  0  0  0  0  0  0  0  0  0
  -23.7165  -17.7662   18.8855 C   0  0  0  0  0  0  0  0  0  0  0  0
  -22.5554  -28.5354   22.5795 C   0  0  0  0  0  0  0  0  0  0  0  0
  -22.9767  -25.5161   23.6880 C   0  0  0  0  0  0  0  0  0  0  0  0
  -24.9527  -22.7383   23.8490 C   0  0  0  0  0  0  0  0  0  0  0  0
  -30.3593  -20.4911   22.3402 C   0  0  0  0  0  0  0  0  0  0  0  0
  -18.1688  -30.8125   23.8563 C   0  0  0  0  0  0  0  0  0  0  0  0
  -23.1311  -27.2970   20.4603 C   0  0  0  0  0  0  0  0  0  0  0  0
  -24.9923  -26.6324   22.6600 C   0  0  0  0  0  0  0  0  0  0  0  0
  -19.1074  -29.8042   24.5142 C   0  0  0  0  0  0  0  0  0  0  0  0
  -30.7637  -17.1590   21.1526 C   0  0  0  0  0  0  0  0  0  0  0  0
  -20.5506  -30.2931   24.4432 C   0  0  0  0  0  0  0  0  0  0  0  0
  -29.3452  -16.7319   20.7715 C   0  0  0  0  0  0  0  0  0  0  0  0
  -30.7709  -18.0490   22.3936 C   0  0  0  0  0  0  0  0  0  0  0  0
  -28.4691  -18.8003   21.9345 C   0  0  0  0  0  0  0  0  0  0  0  0
  -21.0113  -30.4431   22.9883 C   0  0  1  0  0  0  0  0  0  0  0  0
  -22.6600  -27.1955   21.9078 C   0  0  1  0  0  0  0  0  0  0  0  0
  -28.4056  -17.9472   20.6560 C   0  0  2  0  0  0  0  0  0  0  0  0
  -25.6193  -20.3841   24.4066 C   0  0  0  0  0  0  0  0  0  0  0  0
  -23.6790  -26.7411   26.3928 C   0  0  0  0  0  0  0  0  0  0  0  0
  -24.6621  -24.5366   27.0576 C   0  0  0  0  0  0  0  0  0  0  0  0
  -22.2333  -24.7039   26.5139 C   0  0  0  0  0  0  0  0  0  0  0  0
  -23.7821  -21.6896   21.3412 C   0  0  0  0  0  0  0  0  0  0  0  0
  -32.2457  -24.7263   20.1378 C   0  0  0  0  0  0  0  0  0  0  0  0
  -29.7936  -22.9055   22.2403 C   0  0  0  0  0  0  0  0  0  0  0  0
  -32.2136  -26.0694   19.4204 C   0  0  0  0  0  0  0  0  0  0  0  0
  -30.6848  -27.9022   18.6837 C   0  0  0  0  0  0  0  0  0  0  0  0
  -29.2187  -28.2805   18.6095 C   0  0  0  0  0  0  0  0  0  1  0  0
  -29.5287  -23.6906   20.9355 C   0  0  2  0  0  0  0  0  0  0  0  0
  -23.9340  -24.8540   24.6493 C   0  0  1  0  0  0  0  0  0  0  0  0
  -24.6396  -21.2664   23.6487 C   0  0  2  0  0  0  0  0  0  0  0  0
  -23.6364  -25.2225   26.1302 C   0  0  0  0  0  0  0  0  0  0  0  0
  -26.5292  -16.3518   20.7834 N   0  0  0  0  0  0  0  0  0  0  0  0
  -31.5229  -23.6703   19.4370 N   0  0  0  0  0  0  0  0  0  0  0  0
  -26.9864  -17.5276   20.3203 N   0  0  0  0  0  0  0  0  0  0  0  0
  -23.5452  -26.3717   22.7337 N   0  0  0  0  0  0  0  0  0  0  0  0
  -29.8609  -19.1835   22.2187 N   0  0  0  0  0  0  0  0  0  0  0  0
  -26.3702  -19.4204   19.0364 N   0  0  0  0  0  0  0  0  0  0  0  0
  -22.6537  -16.8557   18.9613 N   0  0  0  0  0  0  0  0  0  0  0  0
  -21.3274  -29.1493   22.4223 N   0  0  0  0  0  0  0  0  0  0  0  0
  -23.8738  -23.4243   24.3655 N   0  0  0  0  0  0  0  0  0  0  0  0
  -29.4314  -21.5084   22.1533 N   0  0  0  0  0  0  0  0  0  0  0  0
  -28.0335  -23.7035   20.7162 N   0  3  0  0  0  0  0  0  0  0  0  0
  -24.7112  -20.9138   22.2025 N   0  3  0  0  0  0  0  0  0  0  0  0
  -30.8147  -26.5658   19.3172 N   0  3  0  0  0  0  0  0  0  0  0  0
  -23.5726  -18.8244   18.2273 O   0  0  0  0  0  0  0  0  0  0  0  0
  -23.5171  -28.9789   23.1961 O   0  0  0  0  0  0  0  0  0  0  0  0
  -21.7697  -25.2772   23.7758 O   0  0  0  0  0  0  0  0  0  0  0  0
  -26.0462  -23.2295   23.5781 O   0  0  0  0  0  0  0  0  0  0  0  0
  -31.5447  -20.7341   22.5909 O   0  0  0  0  0  0  0  0  0  0  0  0
  -22.0202  -11.9020   21.4301 O   0  0  0  0  0  0  0  0  0  0  0  0
  -28.6736  -28.3401   19.9269 O   0  0  0  0  0  0  0  0  0  1  0  0
  -24.2322   -6.8793   20.8979 F   0  0  0  0  0  0  0  0  0  0  0  0
  -20.9586  -10.0653   19.6575 F   0  0  0  0  0  0  0  0  0  0  0  0
  1  2  1  0  0  0  0
  1  6  2  0  0  0  0
  2  7  2  0  0  0  0
  3 14  1  0  0  0  0
  3 17  2  0  0  0  0
  4  9  2  0  0  0  0
  4 18  1  0  0  0  0
  5 10  1  0  0  0  0
  5 18  2  0  0  0  0
  6 20  1  0  0  0  0
  7 22  1  0  0  0  0
  8 11  2  0  0  0  0
  8 21  1  0  0  0  0
  9 24  1  0  0  0  0
 10 24  2  0  0  0  0
 11 25  1  0  0  0  0
 12 13  2  0  0  0  0
 12 26  1  0  0  0  0
 13 27  1  0  0  0  0
 14 30  2  0  0  0  0
 15 23  1  0  0  0  0
 15 25  2  0  0  0  0
 16 27  2  0  0  0  0
 16 28  1  0  0  0  0
 17 64  1  0  0  0  0
 18 29  1  0  0  0  0
 19 29  1  0  0  0  0
 19 31  2  0  0  0  0
 19 32  1  0  0  0  0
 20 22  2  0  0  0  0
 20 37  1  0  0  0  0
 21 23  2  0  0  0  0
 21 38  1  0  0  0  0
 22 46  1  0  0  0  0
 23 39  1  0  0  0  0
 24 81  1  0  0  0  0
 25 82  1  0  0  0  0
 26 28  2  0  0  0  0
 26 81  1  0  0  0  0
 27 83  1  0  0  0  0
 28 84  1  0  0  0  0
 29 63  2  0  0  0  0
 30 59  1  0  0  0  0
 30 64  1  0  0  0  0
 31 65  1  0  0  0  0
 31 68  1  0  0  0  0
 32 69  1  0  0  0  0
 32 76  2  0  0  0  0
 33 47  1  0  0  0  0
 33 70  1  0  0  0  0
 33 77  2  0  0  0  0
 34 60  1  0  0  0  0
 34 66  1  0  0  0  0
 34 78  2  0  0  0  0
 35 61  1  0  0  0  0
 35 71  1  0  0  0  0
 35 79  2  0  0  0  0
 36 67  1  0  0  0  0
 36 72  1  0  0  0  0
 36 80  2  0  0  0  0
 37 40  1  0  0  0  0
 38 47  1  0  0  0  0
 39 66  1  0  0  0  0
 40 42  1  0  0  0  0
 41 43  1  0  0  0  0
 41 44  1  0  0  0  0
 42 46  1  0  0  0  0
 43 48  1  0  0  0  0
 44 67  1  0  0  0  0
 45 48  1  0  0  0  0
 45 67  1  0  0  0  0
 46 70  1  0  0  0  0
 47 66  1  0  0  0  0
 48 65  1  0  0  0  0
 49 61  1  0  0  0  0
 50 62  1  0  0  0  0
 51 62  1  0  0  0  0
 52 62  1  0  0  0  0
 53 74  1  0  0  0  0
 54 56  1  0  0  0  0
 54 64  1  0  0  0  0
 55 59  1  0  0  0  0
 55 72  1  0  0  0  0
 56 75  1  0  0  0  0
 57 58  1  0  0  0  0
 57 75  1  0  0  0  0
 58 82  1  0  0  0  0
 59 73  1  0  0  0  0
 60 62  1  0  0  0  0
 60 71  1  0  0  0  0
 61 74  1  0  0  0  0
 63 65  1  0  0  0  0
M  CHG  3  73   1  74   1  75   1
M  ISO  4  36 100  58 101  72 100  82 101
M  END
> <Batch ID>
0113

> <Smiles>
CNC(C)C(=O)NC(C(=O)N1Cc2cc([101O:1][101CH2:1]CNCCn3cccc3C(N)C[100NH:0][100C:0](=O)N3CCCC(n4nc(-c5ccc(Oc6ccc(F)cc6F)cc5)c(C(N)=O)c4N)C3)ccc2CC1C(=O)NC1CCCc2ccccc21)C(C)(C)C

> <Shape>
0.217

> <Color>
0.072

> <Negative vol penalty>
0.000

$$$$

  -OEChem-04052320053D

 86 94  0     1  0  0  0  0  0999 V2000
  -16.7000  -28.6989   24.2717 C   0  0  0  0  0  0  0  0  0  0  0  0
  -17.4972  -28.0984   23.3024 C   0  0  0  0  0  0  0  0  0  0  0  0
  -26.3949  -12.5640   21.5398 C   0  0  0  0  0  0  0  0  0  0  0  0
  -24.5329  -12.9333   20.0453 C   0  0  0  0  0  0  0  0  0  0  0  0
  -16.7359  -30.0820   24.4432 C   0  0  0  0  0  0  0  0  0  0  0  0
  -18.3299  -28.8811   22.5034 C   0  0  0  0  0  0  0  0  0  0  0  0
  -25.4490  -27.7879   22.3803 C   0  0  0  0  0  0  0  0  0  0  0  0
  -26.3664  -11.2023   21.2389 C   0  0  0  0  0  0  0  0  0  0  0  0
  -24.5044  -11.5716   19.7443 C   0  0  0  0  0  0  0  0  0  0  0  0
  -26.7937  -27.5035   22.1416 C   0  0  0  0  0  0  0  0  0  0  0  0
  -23.3705   -8.7268   21.1769 C   0  0  0  0  0  0  0  0  0  0  0  0
  -22.1280   -8.0931   21.1583 C   0  0  0  0  0  0  0  0  0  0  0  0
  -26.9425  -29.4036   20.6532 C   0  0  0  0  0  0  0  0  0  0  0  0
  -22.4638   -7.5027   18.8397 C   0  0  0  0  0  0  0  0  0  0  0  0
  -25.4781  -13.4295   20.9430 C   0  0  0  0  0  0  0  0  0  0  0  0
  -25.3369  -15.4309   22.5185 C   0  0  0  0  0  0  0  0  0  0  0  0
  -17.5766  -30.8810   23.6524 C   0  0  0  0  0  0  0  0  0  0  0  0
  -24.8493  -28.8917   21.7676 C   0  0  0  0  0  0  0  0  0  0  0  0
  -18.3760  -30.2764   22.6636 C   0  0  0  0  0  0  0  0  0  0  0  0
  -25.5992  -29.7008   20.8983 C   0  0  0  0  0  0  0  0  0  0  0  0
  -25.4211  -10.7061   20.3412 C   0  0  0  0  0  0  0  0  0  0  0  0
  -27.5385  -28.3092   21.2800 C   0  0  0  0  0  0  0  0  0  0  0  0
  -24.1596   -8.7485   20.0268 C   0  0  0  0  0  0  0  0  0  0  0  0
  -21.6747   -7.4810   19.9898 C   0  0  0  0  0  0  0  0  0  0  0  0
  -23.7062   -8.1365   18.8583 C   0  0  0  0  0  0  0  0  0  0  0  0
  -25.5067  -14.8361   21.2539 C   0  0  0  0  0  0  0  0  0  0  0  0
  -25.4503  -16.7791   22.2819 C   0  0  0  0  0  0  0  0  0  0  0  0
  -25.0981  -14.8193   23.7931 C   0  0  0  0  0  0  0  0  0  0  0  0
  -21.7494  -30.9568   21.3181 C   0  0  0  0  0  0  0  0  0  0  0  0
  -24.1053  -32.9134   21.4979 C   0  0  0  0  0  0  0  0  0  0  0  0
  -26.1406  -35.5997   22.0254 C   0  0  0  0  0  0  0  0  0  0  0  0
  -30.0123  -25.9672   21.4768 C   0  0  0  0  0  0  0  0  0  0  0  0
  -28.0145  -21.0930   19.8404 C   0  0  0  0  0  0  0  0  0  0  0  0
  -17.5460  -32.3769   23.8425 C   0  0  0  0  0  0  0  0  0  0  0  0
  -23.3876  -29.2000   21.9476 C   0  0  0  0  0  0  0  0  0  0  0  0
  -24.9032  -30.8574   20.2343 C   0  0  0  0  0  0  0  0  0  0  0  0
  -18.7340  -33.0959   23.2085 C   0  0  0  0  0  0  0  0  0  0  0  0
  -25.5567  -19.3610   17.9335 C   0  0  0  0  0  0  0  0  0  0  0  0
  -18.9731  -32.5847   21.7913 C   0  0  0  0  0  0  0  0  0  0  0  0
  -25.3156  -18.0763   18.7281 C   0  0  0  0  0  0  0  0  0  0  0  0
  -28.6151  -22.3064   23.2878 C   0  0  0  0  0  0  0  0  0  0  0  0
  -27.0219  -19.7886   17.9830 C   0  0  0  0  0  0  0  0  0  0  0  0
  -27.3430  -18.6315   20.1352 C   0  0  0  0  0  0  0  0  0  0  0  0
  -29.3806  -21.2836   24.1153 C   0  0  0  0  0  0  0  0  0  0  0  0
  -31.2411  -21.2907   22.4349 C   0  0  0  0  0  0  0  0  0  0  0  0
  -19.3108  -31.0889   21.7940 C   0  0  1  0  0  0  0  0  0  0  0  0
  -23.0855  -30.7092   21.9544 C   0  0  1  0  0  0  0  0  0  0  0  0
  -30.5093  -22.3243   21.5725 C   0  0  1  0  0  0  0  0  0  0  0  0
  -25.8694  -18.1911   20.1611 C   0  0  2  0  0  0  0  0  0  0  0  0
  -28.9837  -22.2706   21.7982 C   0  0  1  0  0  0  0  0  0  0  0  0
  -26.3515  -38.0445   21.5000 C   0  0  0  0  0  0  0  0  0  0  0  0
  -29.8604  -26.9425   19.1590 C   0  0  0  0  0  0  0  0  0  0  0  0
  -32.9275  -23.5071   20.0536 C   0  0  0  0  0  0  0  0  0  0  0  0
  -33.0817  -25.2703   21.8286 C   0  0  0  0  0  0  0  0  0  0  0  0
  -24.9719  -32.2240   18.6557 C   0  0  0  0  0  0  0  0  0  0  0  0
  -26.0428  -34.4824   18.5103 C   0  0  0  0  0  0  0  0  0  0  0  0
  -23.5787  -34.2919   18.8494 C   0  0  0  0  0  0  0  0  0  0  0  0
  -26.0663  -36.3404   24.8898 C   0  0  0  0  0  0  0  0  0  0  0  0
  -25.1398  -33.7193   20.7539 C   0  0  1  0  0  0  0  0  0  0  0  0
  -25.8431  -37.0125   22.4945 C   0  0  2  0  0  0  0  0  0  0  0  0
  -29.1554  -26.7522   20.4933 C   0  0  2  0  0  0  0  0  0  1  0  0
  -31.0537  -23.7385   21.8131 C   0  0  1  0  0  0  0  0  0  0  0  0
  -32.5619  -23.8666   21.4973 C   0  0  0  0  0  0  0  0  0  0  0  0
  -24.9406  -33.6612   19.2129 C   0  0  0  0  0  0  0  0  0  0  0  0
  -25.7122  -15.7330   20.2857 N   0  0  0  0  0  0  0  0  0  0  0  0
  -25.6722  -16.9050   20.9421 N   0  0  0  0  0  0  0  0  0  0  0  0
  -24.0370  -31.5461   21.2039 N   0  0  0  0  0  0  0  0  0  0  0  0
  -27.4848  -19.8801   19.3698 N   0  0  0  0  0  0  0  0  0  0  0  0
  -25.3808  -17.8573   23.0913 N   0  0  0  0  0  0  0  0  0  0  0  0
  -25.0097  -13.4221   23.8578 N   0  0  0  0  0  0  0  0  0  0  0  0
  -20.6854  -30.8819   22.1966 N   0  0  0  0  0  0  0  0  0  0  0  0
  -25.0878  -35.0659   21.3128 N   0  0  0  0  0  0  0  0  0  0  0  0
  -30.2777  -24.6788   21.0392 N   0  0  0  0  0  0  0  0  0  0  0  0
  -28.4239  -21.0957   21.1682 N   0  0  0  0  0  0  0  0  0  0  0  0
  -30.8441  -21.4349   23.8676 N   0  3  0  0  0  0  0  0  0  0  0  0
  -26.4927  -37.2686   23.8111 N   0  3  0  0  0  0  0  0  0  0  0  0
  -24.9506  -15.4929   24.8410 O   0  0  0  0  0  0  0  0  0  0  0  0
  -21.6871  -31.1997   20.1186 O   0  0  0  0  0  0  0  0  0  0  0  0
  -23.3723  -33.4793   22.3139 O   0  0  0  0  0  0  0  0  0  0  0  0
  -27.2023  -35.0284   22.2638 O   0  0  0  0  0  0  0  0  0  0  0  0
  -30.3963  -26.4427   22.5432 O   0  0  0  0  0  0  0  0  0  0  0  0
  -28.1101  -22.1005   19.1314 O   0  0  0  0  0  0  0  0  0  0  0  0
  -25.3932   -9.3774   20.0471 O   0  0  0  0  0  0  0  0  0  0  0  0
  -28.8520  -28.0285   21.0549 O   0  0  0  0  0  0  0  0  0  1  0  0
  -20.4822   -6.8712   19.9725 F   0  0  0  0  0  0  0  0  0  0  0  0
  -24.4604   -8.1531   17.7507 F   0  0  0  0  0  0  0  0  0  0  0  0
  1  2  1  0  0  0  0
  1  5  2  0  0  0  0
  2  6  2  0  0  0  0
  3  8  2  0  0  0  0
  3 15  1  0  0  0  0
  4  9  1  0  0  0  0
  4 15  2  0  0  0  0
  5 17  1  0  0  0  0
  6 19  1  0  0  0  0
  7 10  2  0  0  0  0
  7 18  1  0  0  0  0
  8 21  1  0  0  0  0
  9 21  2  0  0  0  0
 10 22  1  0  0  0  0
 11 12  2  0  0  0  0
 11 23  1  0  0  0  0
 12 24  1  0  0  0  0
 13 20  1  0  0  0  0
 13 22  2  0  0  0  0
 14 24  2  0  0  0  0
 14 25  1  0  0  0  0
 15 26  1  0  0  0  0
 16 26  1  0  0  0  0
 16 27  2  0  0  0  0
 16 28  1  0  0  0  0
 17 19  2  0  0  0  0
 17 34  1  0  0  0  0
 18 20  2  0  0  0  0
 18 35  1  0  0  0  0
 19 46  1  0  0  0  0
 20 36  1  0  0  0  0
 21 83  1  0  0  0  0
 22 84  1  0  0  0  0
 23 25  2  0  0  0  0
 23 83  1  0  0  0  0
 24 85  1  0  0  0  0
 25 86  1  0  0  0  0
 26 65  2  0  0  0  0
 27 66  1  0  0  0  0
 27 69  1  0  0  0  0
 28 70  1  0  0  0  0
 28 77  2  0  0  0  0
 29 47  1  0  0  0  0
 29 71  1  0  0  0  0
 29 78  2  0  0  0  0
 30 59  1  0  0  0  0
 30 67  1  0  0  0  0
 30 79  2  0  0  0  0
 31 60  1  0  0  0  0
 31 72  1  0  0  0  0
 31 80  2  0  0  0  0
 32 61  1  0  0  0  0
 32 73  1  0  0  0  0
 32 81  2  0  0  0  0
 33 68  1  0  0  0  0
 33 74  1  0  0  0  0
 33 82  2  0  0  0  0
 34 37  1  0  0  0  0
 35 47  1  0  0  0  0
 36 67  1  0  0  0  0
 37 39  1  0  0  0  0
 38 40  1  0  0  0  0
 38 42  1  0  0  0  0
 39 46  1  0  0  0  0
 40 49  1  0  0  0  0
 41 44  1  0  0  0  0
 41 50  1  0  0  0  0
 42 68  1  0  0  0  0
 43 49  1  0  0  0  0
 43 68  1  0  0  0  0
 44 75  1  0  0  0  0
 45 48  1  0  0  0  0
 45 75  1  0  0  0  0
 46 71  1  0  0  0  0
 47 67  1  0  0  0  0
 48 50  1  0  0  0  0
 48 62  1  0  0  0  0
 49 66  1  0  0  0  0
 50 74  1  0  0  0  0
 51 60  1  0  0  0  0
 52 61  1  0  0  0  0
 53 63  1  0  0  0  0
 54 63  1  0  0  0  0
 55 64  1  0  0  0  0
 56 64  1  0  0  0  0
 57 64  1  0  0  0  0
 58 76  1  0  0  0  0
 59 64  1  0  0  0  0
 59 72  1  0  0  0  0
 60 76  1  0  0  0  0
 61 84  1  0  0  0  0
 62 63  1  0  0  0  0
 62 73  1  0  0  0  0
 65 66  1  0  0  0  0
M  CHG  2  75   1  76   1
M  ISO  4  33 100  61 101  74 100  84 101
M  END
> <Batch ID>
0113

> <Smiles>
CNC(C)C(=O)NC(C(=O)N1Cc2cc([101O:1][101CH:1](C)C(=O)NC(C(C)C)C3CNCCC3[100NH:0][100C:0](=O)N3CCCC(n4nc(-c5ccc(Oc6ccc(F)cc6F)cc5)c(C(N)=O)c4N)C3)ccc2CC1C(=O)NC1CCCc2ccccc21)C(C)(C)C

> <Shape>
0.230

> <Color>
0.117

> <Negative vol penalty>
0.000

$$$$

  -OEChem-04052320053D

 79 87  0     1  0  0  0  0  0999 V2000
  -17.5287  -25.7009   21.9437 C   0  0  0  0  0  0  0  0  0  0  0  0
  -18.8357  -25.4656   21.5292 C   0  0  0  0  0  0  0  0  0  0  0  0
  -23.4612  -16.5779   21.2606 C   0  0  0  0  0  0  0  0  0  0  0  0
  -23.4132  -16.2971   18.8615 C   0  0  0  0  0  0  0  0  0  0  0  0
  -17.2238  -26.8563   22.6620 C   0  0  0  0  0  0  0  0  0  0  0  0
  -19.8384  -26.3862   21.8318 C   0  0  0  0  0  0  0  0  0  0  0  0
  -24.0695  -24.1680   23.5118 C   0  0  0  0  0  0  0  0  0  0  0  0
  -22.6382  -17.6983   21.1460 C   0  0  0  0  0  0  0  0  0  0  0  0
  -22.5902  -17.4175   18.7468 C   0  0  0  0  0  0  0  0  0  0  0  0
  -24.9034  -23.5838   22.5594 C   0  0  0  0  0  0  0  0  0  0  0  0
  -20.7707  -20.4149   17.7903 C   0  0  0  0  0  0  0  0  0  0  0  0
  -21.0745  -21.3434   16.7947 C   0  0  0  0  0  0  0  0  0  0  0  0
  -26.3340  -25.5248   22.6300 C   0  0  0  0  0  0  0  0  0  0  0  0
  -23.2418  -21.7096   17.7977 C   0  0  0  0  0  0  0  0  0  0  0  0
  -23.8487  -15.8774   20.1183 C   0  0  0  0  0  0  0  0  0  0  0  0
  -24.2956  -13.3817   20.4006 C   0  0  0  0  0  0  0  0  0  0  0  0
  -18.2250  -27.7868   22.9820 C   0  0  0  0  0  0  0  0  0  0  0  0
  -24.3561  -25.4419   24.0232 C   0  0  0  0  0  0  0  0  0  0  0  0
  -19.5463  -27.5558   22.5539 C   0  0  0  0  0  0  0  0  0  0  0  0
  -25.5035  -26.1220   23.5906 C   0  0  0  0  0  0  0  0  0  0  0  0
  -22.2027  -18.1181   19.8891 C   0  0  0  0  0  0  0  0  0  0  0  0
  -26.0342  -24.2634   22.1162 C   0  0  0  0  0  0  0  0  0  0  0  0
  -21.7023  -20.1338   18.7896 C   0  0  0  0  0  0  0  0  0  0  0  0
  -22.3101  -21.9907   16.7984 C   0  0  0  0  0  0  0  0  0  0  0  0
  -22.9379  -20.7811   18.7933 C   0  0  0  0  0  0  0  0  0  0  0  0
  -24.6993  -14.7203   20.2361 C   0  0  0  0  0  0  0  0  0  0  0  0
  -25.4709  -12.6734   20.4591 C   0  0  0  0  0  0  0  0  0  0  0  0
  -22.9762  -12.8281   20.4922 C   0  0  0  0  0  0  0  0  0  0  0  0
  -22.8737  -28.2536   24.0012 C   0  0  0  0  0  0  0  0  0  0  0  0
  -27.9187  -21.9218   20.0688 C   0  0  0  0  0  0  0  0  0  0  0  0
  -25.3073  -29.1132   25.9661 C   0  0  0  0  0  0  0  0  0  0  0  0
  -28.5010  -28.5612   27.0349 C   0  0  0  0  0  0  0  0  0  0  0  0
  -29.2276  -16.7126   19.2934 C   0  0  0  0  0  0  0  0  0  0  0  0
  -17.8385  -29.0443   23.7195 C   0  0  0  0  0  0  0  0  0  0  0  0
  -23.4611  -26.0470   25.0698 C   0  0  0  0  0  0  0  0  0  0  0  0
  -25.8666  -27.4832   24.1234 C   0  0  0  0  0  0  0  0  0  0  0  0
  -19.0280  -29.7863   24.3234 C   0  0  0  0  0  0  0  0  0  0  0  0
  -28.7483  -14.6451   22.3753 C   0  0  0  0  0  0  0  0  0  0  0  0
  -20.1575  -29.9027   23.3048 C   0  0  0  0  0  0  0  0  0  0  0  0
  -28.5315  -13.2617   21.7654 C   0  0  0  0  0  0  0  0  0  0  0  0
  -29.6177  -15.5081   21.4715 C   0  0  0  0  0  0  0  0  0  0  0  0
  -29.1036  -20.1409   18.8332 C   0  0  0  0  0  0  0  0  0  0  0  0
  -27.4349  -19.4747   20.5435 C   0  0  0  0  0  0  0  0  0  0  0  0
  -30.0395  -19.0516   19.3406 C   0  0  0  0  0  0  0  0  0  0  0  0
  -28.3734  -18.3636   21.0182 C   0  0  0  0  0  0  0  0  0  0  0  0
  -28.8253  -14.2830   19.4668 C   0  0  0  0  0  0  0  0  0  0  0  0
  -20.6661  -28.5185   22.8843 C   0  0  1  0  0  0  0  0  0  0  0  0
  -23.5695  -27.5670   25.1423 C   0  0  1  0  0  0  0  0  0  0  0  0
  -27.9708  -13.3342   20.3312 C   0  0  2  0  0  0  0  0  0  0  0  0
  -30.2279  -29.4503   28.6238 C   0  0  0  0  0  0  0  0  0  0  0  0
  -25.8497  -31.4414   24.0700 C   0  0  0  0  0  0  0  0  0  0  0  0
  -28.0938  -31.7057   25.1481 C   0  0  0  0  0  0  0  0  0  0  0  0
  -26.0192  -32.0128   26.4988 C   0  0  0  0  0  0  0  0  0  0  0  0
  -28.6080  -26.0090   28.5294 C   0  0  0  0  0  0  0  0  0  0  0  0
  -26.9425  -22.2845   21.1596 C   0  0  0  0  0  0  0  0  0  1  0  0
  -26.6895  -29.6871   25.7680 C   0  0  1  0  0  0  0  0  0  0  0  0
  -29.0929  -28.4571   28.4289 C   0  0  2  0  0  0  0  0  0  0  0  0
  -26.6554  -31.1869   25.3596 C   0  0  0  0  0  0  0  0  0  0  0  0
  -26.0272  -14.8568   20.1930 N   0  0  0  0  0  0  0  0  0  0  0  0
  -26.4682  -13.5949   20.3315 N   0  0  0  0  0  0  0  0  0  0  0  0
  -24.9568  -28.0355   25.1405 N   0  0  0  0  0  0  0  0  0  0  0  0
  -28.1619  -20.5611   19.8742 N   0  0  0  0  0  0  0  0  0  0  0  0
  -29.0807  -15.5763   20.1075 N   0  0  0  0  0  0  0  0  0  0  0  0
  -29.2845  -17.9551   19.9427 N   0  0  0  0  0  0  0  0  0  0  0  0
  -25.7382  -11.3584   20.6070 N   0  0  0  0  0  0  0  0  0  0  0  0
  -21.8798  -13.6975   20.4132 N   0  0  0  0  0  0  0  0  0  0  0  0
  -21.5258  -27.9636   23.9078 N   0  0  0  0  0  0  0  0  0  0  0  0
  -27.4229  -29.4200   27.0006 N   0  0  0  0  0  0  0  0  0  0  0  0
  -29.6235  -27.0847   28.6653 N   0  3  0  0  0  0  0  0  0  0  0  0
  -22.7758  -11.6007   20.6563 O   0  0  0  0  0  0  0  0  0  0  0  0
  -23.5121  -28.9929   23.2612 O   0  0  0  0  0  0  0  0  0  0  0  0
  -28.4509  -22.8210   19.4129 O   0  0  0  0  0  0  0  0  0  0  0  0
  -24.5686  -29.5984   26.8266 O   0  0  0  0  0  0  0  0  0  0  0  0
  -28.9525  -27.9453   26.0719 O   0  0  0  0  0  0  0  0  0  0  0  0
  -29.2909  -16.6204   18.0611 O   0  0  0  0  0  0  0  0  0  0  0  0
  -21.3995  -19.2111   19.7769 O   0  0  0  0  0  0  0  0  0  0  0  0
  -26.8594  -23.6888   21.1750 O   0  0  0  0  0  0  0  0  0  1  0  0
  -22.6023  -22.8812   15.8414 F   0  0  0  0  0  0  0  0  0  0  0  0
  -23.8374  -20.5143   19.7501 F   0  0  0  0  0  0  0  0  0  0  0  0
  1  2  1  0  0  0  0
  1  5  2  0  0  0  0
  2  6  2  0  0  0  0
  3  8  2  0  0  0  0
  3 15  1  0  0  0  0
  4  9  1  0  0  0  0
  4 15  2  0  0  0  0
  5 17  1  0  0  0  0
  6 19  1  0  0  0  0
  7 10  2  0  0  0  0
  7 18  1  0  0  0  0
  8 21  1  0  0  0  0
  9 21  2  0  0  0  0
 10 22  1  0  0  0  0
 11 12  2  0  0  0  0
 11 23  1  0  0  0  0
 12 24  1  0  0  0  0
 13 20  1  0  0  0  0
 13 22  2  0  0  0  0
 14 24  2  0  0  0  0
 14 25  1  0  0  0  0
 15 26  1  0  0  0  0
 16 26  1  0  0  0  0
 16 27  2  0  0  0  0
 16 28  1  0  0  0  0
 17 19  2  0  0  0  0
 17 34  1  0  0  0  0
 18 20  2  0  0  0  0
 18 35  1  0  0  0  0
 19 47  1  0  0  0  0
 20 36  1  0  0  0  0
 21 76  1  0  0  0  0
 22 77  1  0  0  0  0
 23 25  2  0  0  0  0
 23 76  1  0  0  0  0
 24 78  1  0  0  0  0
 25 79  1  0  0  0  0
 26 59  2  0  0  0  0
 27 60  1  0  0  0  0
 27 65  1  0  0  0  0
 28 66  1  0  0  0  0
 28 70  2  0  0  0  0
 29 48  1  0  0  0  0
 29 67  1  0  0  0  0
 29 71  2  0  0  0  0
 30 55  1  0  0  0  0
 30 62  1  0  0  0  0
 30 72  2  0  0  0  0
 31 56  1  0  0  0  0
 31 61  1  0  0  0  0
 31 73  2  0  0  0  0
 32 57  1  0  0  0  0
 32 68  1  0  0  0  0
 32 74  2  0  0  0  0
 33 63  1  0  0  0  0
 33 64  1  0  0  0  0
 33 75  2  0  0  0  0
 34 37  1  0  0  0  0
 35 48  1  0  0  0  0
 36 61  1  0  0  0  0
 37 39  1  0  0  0  0
 38 40  1  0  0  0  0
 38 41  1  0  0  0  0
 39 47  1  0  0  0  0
 40 49  1  0  0  0  0
 41 63  1  0  0  0  0
 42 44  1  0  0  0  0
 42 62  1  0  0  0  0
 43 45  1  0  0  0  0
 43 62  1  0  0  0  0
 44 64  1  0  0  0  0
 45 64  1  0  0  0  0
 46 49  1  0  0  0  0
 46 63  1  0  0  0  0
 47 67  1  0  0  0  0
 48 61  1  0  0  0  0
 49 60  1  0  0  0  0
 50 57  1  0  0  0  0
 51 58  1  0  0  0  0
 52 58  1  0  0  0  0
 53 58  1  0  0  0  0
 54 69  1  0  0  0  0
 55 77  1  0  0  0  0
 56 58  1  0  0  0  0
 56 68  1  0  0  0  0
 57 69  1  0  0  0  0
 59 60  1  0  0  0  0
M  CHG  1  69   1
M  ISO  4  33 100  55 101  64 100  77 101
M  END
> <Batch ID>
0113

> <Smiles>
CNC(C)C(=O)NC(C(=O)N1Cc2cc([101O:1][101CH2:1]C(=O)N3CC[100N:0]([100C:0](=O)N4CCCC(n5nc(-c6ccc(Oc7ccc(F)cc7F)cc6)c(C(N)=O)c5N)C4)CC3)ccc2CC1C(=O)NC1CCCc2ccccc21)C(C)(C)C

> <Shape>
0.234

> <Color>
0.093

> <Negative vol penalty>
0.000

$$$$

  -OEChem-04052320053D

 86 94  0     1  0  0  0  0  0999 V2000
  -17.7390  -13.2230   24.4468 C   0  0  0  0  0  0  0  0  0  0  0  0
  -18.9653  -13.0119   25.0690 C   0  0  0  0  0  0  0  0  0  0  0  0
  -24.6794  -28.9871   22.2998 C   0  0  0  0  0  0  0  0  0  0  0  0
  -25.1621  -30.8079   20.7869 C   0  0  0  0  0  0  0  0  0  0  0  0
  -17.6001  -12.9779   23.0813 C   0  0  0  0  0  0  0  0  0  0  0  0
  -20.0531  -12.5543   24.3262 C   0  0  0  0  0  0  0  0  0  0  0  0
  -26.1565  -16.3627   23.9573 C   0  0  0  0  0  0  0  0  0  0  0  0
  -24.0835  -29.8828   23.1876 C   0  0  0  0  0  0  0  0  0  0  0  0
  -24.5661  -31.7036   21.6747 C   0  0  0  0  0  0  0  0  0  0  0  0
  -27.4302  -16.9295   24.0088 C   0  0  0  0  0  0  0  0  0  0  0  0
  -23.4931  -34.5209   23.7047 C   0  0  0  0  0  0  0  0  0  0  0  0
  -24.1596  -35.7188   23.9622 C   0  0  0  0  0  0  0  0  0  0  0  0
  -28.2547  -15.2413   22.4863 C   0  0  0  0  0  0  0  0  0  0  0  0
  -26.0559  -34.4823   24.8063 C   0  0  0  0  0  0  0  0  0  0  0  0
  -29.1108  -19.1937   19.6402 C   0  0  0  0  0  0  0  0  0  0  0  0
  -30.7878  -20.6166   19.2185 C   0  0  0  0  0  0  0  0  0  0  0  0
  -25.2188  -29.4497   21.0994 C   0  0  0  0  0  0  0  0  0  0  0  0
  -25.2093  -27.8215   19.1356 C   0  0  0  0  0  0  0  0  0  0  0  0
  -18.6893  -12.5263   22.3195 C   0  0  0  0  0  0  0  0  0  0  0  0
  -25.9233  -15.2408   23.1571 C   0  0  0  0  0  0  0  0  0  0  0  0
  -19.9282  -12.3016   22.9495 C   0  0  0  0  0  0  0  0  0  0  0  0
  -26.9782  -14.6766   22.4210 C   0  0  0  0  0  0  0  0  0  0  0  0
  -28.5673  -20.4566   19.5559 C   0  0  0  0  0  0  0  0  0  0  0  0
  -29.6283  -21.3568   19.2892 C   0  0  0  0  0  0  0  0  0  0  0  0
  -24.0268  -31.2410   22.8751 C   0  0  0  0  0  0  0  0  0  0  0  0
  -28.4767  -16.3701   23.2753 C   0  0  0  0  0  0  0  0  0  0  0  0
  -24.1079  -33.3037   23.9980 C   0  0  0  0  0  0  0  0  0  0  0  0
  -25.4410  -35.6995   24.5130 C   0  0  0  0  0  0  0  0  0  0  0  0
  -25.3892  -33.2843   24.5488 C   0  0  0  0  0  0  0  0  0  0  0  0
  -25.8350  -28.5250   20.1822 C   0  0  0  0  0  0  0  0  0  0  0  0
  -26.2181  -27.0828   18.5671 C   0  0  0  0  0  0  0  0  0  0  0  0
  -23.8387  -27.8346   18.7148 C   0  0  0  0  0  0  0  0  0  0  0  0
  -23.4500  -12.7109   21.9089 C   0  0  0  0  0  0  0  0  0  0  0  0
  -25.2227  -13.4754   19.5249 C   0  0  0  0  0  0  0  0  0  0  0  0
  -27.3562  -14.4239   16.7763 C   0  0  0  0  0  0  0  0  0  0  0  0
  -30.6284  -23.6288   19.4699 C   0  0  0  0  0  0  0  0  0  0  0  0
  -18.4783  -12.2300   20.8558 C   0  0  0  0  0  0  0  0  0  0  0  0
  -24.5819  -14.5603   23.1193 C   0  0  0  0  0  0  0  0  0  0  0  0
  -26.6889  -13.4491   21.6009 C   0  0  0  0  0  0  0  0  0  0  0  0
  -19.7787  -12.1044   20.0662 C   0  0  0  0  0  0  0  0  0  0  0  0
  -31.2219  -27.2613   19.2183 C   0  0  0  0  0  0  0  0  0  0  0  0
  -20.7736  -11.2216   20.8130 C   0  0  0  0  0  0  0  0  0  0  0  0
  -29.8275  -27.8494   19.4277 C   0  0  0  0  0  0  0  0  0  0  0  0
  -31.3938  -25.9349   19.9526 C   0  0  0  0  0  0  0  0  0  0  0  0
  -28.9580  -25.5100   19.8234 C   0  0  0  0  0  0  0  0  0  0  0  0
  -21.1382  -11.8295   22.1727 C   0  0  1  0  0  0  0  0  0  0  0  0
  -24.2414  -13.9740   21.7374 C   0  0  1  0  0  0  0  0  0  0  0  0
  -28.7394  -26.8255   19.0608 C   0  0  1  0  0  0  0  0  0  0  0  0
  -26.5937  -20.4548   21.1237 C   0  0  0  0  0  0  0  0  0  0  0  0
  -26.2374  -20.1367   18.6485 C   0  0  0  0  0  0  0  0  0  0  0  0
  -27.0538  -14.1369   14.3018 C   0  0  0  0  0  0  0  0  0  0  0  0
  -33.2334  -16.8431   20.5999 C   0  0  0  0  0  0  0  0  0  0  0  0
  -32.3427  -18.1600   23.2792 C   0  0  0  0  0  0  0  0  0  0  0  0
  -26.8241  -10.9097   19.9204 C   0  0  0  0  0  0  0  0  0  0  0  0
  -27.9652  -11.3698   17.7399 C   0  0  0  0  0  0  0  0  0  0  0  0
  -25.4994  -10.9968   17.8009 C   0  0  0  0  0  0  0  0  0  0  0  0
  -28.4329  -23.3405   18.3447 C   0  0  0  0  0  0  0  0  0  0  0  0
  -27.7255  -17.3178   16.2784 C   0  0  0  0  0  0  0  0  0  0  0  0
  -31.4385  -18.1529   19.4410 C   0  0  0  0  0  0  0  0  0  0  0  0
  -30.5361  -16.8005   22.1657 C   0  0  0  0  0  0  0  0  0  1  0  0
  -27.1391  -20.7955   19.7177 C   0  0  0  0  0  0  0  0  0  0  0  0
  -26.4489  -13.1577   18.7072 C   0  0  1  0  0  0  0  0  0  0  0  0
  -26.9280  -15.0892   15.4808 C   0  0  2  0  0  0  0  0  0  0  0  0
  -32.2941  -18.0506   20.7274 C   0  0  1  0  0  0  0  0  0  0  0  0
  -31.4484  -18.0290   22.0357 C   0  0  2  0  0  0  0  0  0  0  0  0
  -26.6851  -11.6277   18.5631 C   0  0  0  0  0  0  0  0  0  0  0  0
  -27.1402  -28.2571   20.2754 N   0  0  0  0  0  0  0  0  0  0  0  0
  -30.4611  -19.3030   19.4331 N   0  0  0  0  0  0  0  0  0  0  0  0
  -27.3429  -27.3771   19.2802 N   0  0  0  0  0  0  0  0  0  0  0  0
  -25.3997  -13.6001   20.9082 N   0  0  0  0  0  0  0  0  0  0  0  0
  -30.3214  -24.9960   19.6209 N   0  0  0  0  0  0  0  0  0  0  0  0
  -26.2439  -26.2168   17.5319 N   0  0  0  0  0  0  0  0  0  0  0  0
  -22.9345  -28.6501   19.4089 N   0  0  0  0  0  0  0  0  0  0  0  0
  -22.0860  -12.9103   22.0054 N   0  0  0  0  0  0  0  0  0  0  0  0
  -26.2865  -13.8593   17.4384 N   0  0  0  0  0  0  0  0  0  0  0  0
  -29.5505  -22.7883   19.1171 N   0  0  0  0  0  0  0  0  0  0  0  0
  -27.7725  -16.2868   15.2098 N   0  3  0  0  0  0  0  0  0  0  0  0
  -23.4247  -27.1312   17.7623 O   0  0  0  0  0  0  0  0  0  0  0  0
  -24.0326  -11.6336   21.9493 O   0  0  0  0  0  0  0  0  0  0  0  0
  -24.1351  -13.6045   18.9559 O   0  0  0  0  0  0  0  0  0  0  0  0
  -28.5234  -14.4036   17.1607 O   0  0  0  0  0  0  0  0  0  0  0  0
  -31.7798  -23.1994   19.6100 O   0  0  0  0  0  0  0  0  0  0  0  0
  -23.4451  -32.1152   23.7410 O   0  0  0  0  0  0  0  0  0  0  0  0
  -29.7166  -16.9312   23.3266 O   0  0  0  0  0  0  0  0  0  1  0  0
  -26.0816  -36.8499   24.7588 F   0  0  0  0  0  0  0  0  0  0  0  0
  -25.9855  -32.1180   24.8316 F   0  0  0  0  0  0  0  0  0  0  0  0
  1  2  1  0  0  0  0
  1  5  2  0  0  0  0
  2  6  2  0  0  0  0
  3  8  2  0  0  0  0
  3 17  1  0  0  0  0
  4  9  1  0  0  0  0
  4 17  2  0  0  0  0
  5 19  1  0  0  0  0
  6 21  1  0  0  0  0
  7 10  2  0  0  0  0
  7 20  1  0  0  0  0
  8 25  1  0  0  0  0
  9 25  2  0  0  0  0
 10 26  1  0  0  0  0
 11 12  2  0  0  0  0
 11 27  1  0  0  0  0
 12 28  1  0  0  0  0
 13 22  1  0  0  0  0
 13 26  2  0  0  0  0
 14 28  2  0  0  0  0
 14 29  1  0  0  0  0
 15 23  2  0  0  0  0
 15 68  1  0  0  0  0
 16 24  2  0  0  0  0
 16 68  1  0  0  0  0
 17 30  1  0  0  0  0
 18 30  1  0  0  0  0
 18 31  2  0  0  0  0
 18 32  1  0  0  0  0
 19 21  2  0  0  0  0
 19 37  1  0  0  0  0
 20 22  2  0  0  0  0
 20 38  1  0  0  0  0
 21 46  1  0  0  0  0
 22 39  1  0  0  0  0
 23 24  1  0  0  0  0
 23 61  1  0  0  0  0
 24 76  1  0  0  0  0
 25 83  1  0  0  0  0
 26 84  1  0  0  0  0
 27 29  2  0  0  0  0
 27 83  1  0  0  0  0
 28 85  1  0  0  0  0
 29 86  1  0  0  0  0
 30 67  2  0  0  0  0
 31 69  1  0  0  0  0
 31 72  1  0  0  0  0
 32 73  1  0  0  0  0
 32 78  2  0  0  0  0
 33 47  1  0  0  0  0
 33 74  1  0  0  0  0
 33 79  2  0  0  0  0
 34 62  1  0  0  0  0
 34 70  1  0  0  0  0
 34 80  2  0  0  0  0
 35 63  1  0  0  0  0
 35 75  1  0  0  0  0
 35 81  2  0  0  0  0
 36 71  1  0  0  0  0
 36 76  1  0  0  0  0
 36 82  2  0  0  0  0
 37 40  1  0  0  0  0
 38 47  1  0  0  0  0
 39 70  1  0  0  0  0
 40 42  1  0  0  0  0
 41 43  1  0  0  0  0
 41 44  1  0  0  0  0
 42 46  1  0  0  0  0
 43 48  1  0  0  0  0
 44 71  1  0  0  0  0
 45 48  1  0  0  0  0
 45 71  1  0  0  0  0
 46 74  1  0  0  0  0
 47 70  1  0  0  0  0
 48 69  1  0  0  0  0
 49 61  1  0  0  0  0
 50 61  1  0  0  0  0
 51 63  1  0  0  0  0
 52 64  1  0  0  0  0
 53 65  1  0  0  0  0
 54 66  1  0  0  0  0
 55 66  1  0  0  0  0
 56 66  1  0  0  0  0
 57 76  1  0  0  0  0
 58 77  1  0  0  0  0
 59 64  1  0  0  0  0
 59 68  1  0  0  0  0
 60 65  1  0  0  0  0
 60 84  1  0  0  0  0
 62 66  1  0  0  0  0
 62 75  1  0  0  0  0
 63 77  1  0  0  0  0
 64 65  1  0  0  0  0
 67 69  1  0  0  0  0
M  CHG  1  77   1
M  ISO  4  36 100  60 101  76 100  84 101
M  END
> <Batch ID>
0113

> <Smiles>
CNC(C)C(=O)NC(C(=O)N1Cc2cc([101O:1][101CH2:1]C(C)C(C)Cn3cc(C(C)C)c([100N:0](C)[100C:0](=O)N4CCCC(n5nc(-c6ccc(Oc7ccc(F)cc7F)cc6)c(C(N)=O)c5N)C4)c3)ccc2CC1C(=O)NC1CCCc2ccccc21)C(C)(C)C

> <Shape>
0.270

> <Color>
0.054

> <Negative vol penalty>
0.000

$$$$

  -OEChem-04052320053D

 87 95  0     1  0  0  0  0  0999 V2000
  -19.0436  -27.6603   23.6986 C   0  0  0  0  0  0  0  0  0  0  0  0
  -19.8771  -26.7828   23.0126 C   0  0  0  0  0  0  0  0  0  0  0  0
  -22.9286  -10.0870   22.2772 C   0  0  0  0  0  0  0  0  0  0  0  0
  -24.0409   -9.5458   20.2019 C   0  0  0  0  0  0  0  0  0  0  0  0
  -18.9243  -28.9828   23.2735 C   0  0  0  0  0  0  0  0  0  0  0  0
  -20.5911  -27.2272   21.9003 C   0  0  0  0  0  0  0  0  0  0  0  0
  -25.4107  -25.6729   21.9375 C   0  0  0  0  0  0  0  0  0  0  0  0
  -22.2701   -8.8578   22.2449 C   0  0  0  0  0  0  0  0  0  0  0  0
  -23.3825   -8.3165   20.1696 C   0  0  0  0  0  0  0  0  0  0  0  0
  -25.6572  -24.3537   21.5598 C   0  0  0  0  0  0  0  0  0  0  0  0
  -22.9862   -5.6292   22.9492 C   0  0  0  0  0  0  0  0  0  0  0  0
  -22.9365   -4.8892   24.1305 C   0  0  0  0  0  0  0  0  0  0  0  0
  -26.3053  -25.1102   19.3628 C   0  0  0  0  0  0  0  0  0  0  0  0
  -20.5223   -4.9685   24.0786 C   0  0  0  0  0  0  0  0  0  0  0  0
  -23.8140  -10.4310   21.2556 C   0  0  0  0  0  0  0  0  0  0  0  0
  -25.7390  -11.9836   21.8814 C   0  0  0  0  0  0  0  0  0  0  0  0
  -19.6446  -29.4461   22.1612 C   0  0  0  0  0  0  0  0  0  0  0  0
  -25.5995  -26.7215   21.0258 C   0  0  0  0  0  0  0  0  0  0  0  0
  -20.4803  -28.5567   21.4591 C   0  0  0  0  0  0  0  0  0  0  0  0
  -26.0629  -26.4421   19.7322 C   0  0  0  0  0  0  0  0  0  0  0  0
  -22.4971   -7.9726   21.1911 C   0  0  0  0  0  0  0  0  0  0  0  0
  -26.1018  -24.0719   20.2714 C   0  0  0  0  0  0  0  0  0  0  0  0
  -21.8039   -6.0390   22.3326 C   0  0  0  0  0  0  0  0  0  0  0  0
  -21.7046   -4.5588   24.6952 C   0  0  0  0  0  0  0  0  0  0  0  0
  -20.5720   -5.7086   22.8973 C   0  0  0  0  0  0  0  0  0  0  0  0
  -24.4941  -11.7009   21.2881 C   0  0  0  0  0  0  0  0  0  0  0  0
  -25.9392  -13.3206   21.6390 C   0  0  0  0  0  0  0  0  0  0  0  0
  -26.6344  -11.1152   22.5884 C   0  0  0  0  0  0  0  0  0  0  0  0
  -23.7134  -28.9134   19.7060 C   0  0  0  0  0  0  0  0  0  0  0  0
  -26.5115  -30.0390   18.5119 C   0  0  0  0  0  0  0  0  0  0  0  0
  -29.7447  -29.4065   17.6217 C   0  0  0  0  0  0  0  0  0  0  0  0
  -25.8095  -17.7166   18.2034 C   0  0  0  0  0  0  0  0  0  0  0  0
  -19.4469  -30.8718   21.7108 C   0  0  0  0  0  0  0  0  0  0  0  0
  -25.3547  -28.1415   21.4571 C   0  0  0  0  0  0  0  0  0  0  0  0
  -26.3008  -27.5337   18.7221 C   0  0  0  0  0  0  0  0  0  0  0  0
  -20.5256  -31.3616   20.7482 C   0  0  0  0  0  0  0  0  0  0  0  0
  -22.7827  -16.8543   19.8682 C   0  0  0  0  0  0  0  0  0  0  0  0
  -20.7821  -30.3232   19.6607 C   0  0  0  0  0  0  0  0  0  0  0  0
  -23.0587  -15.4582   20.4292 C   0  0  0  0  0  0  0  0  0  0  0  0
  -26.2354  -19.2615   21.2370 C   0  0  0  0  0  0  0  0  0  0  0  0
  -27.1956  -18.2380   20.6828 C   0  0  0  0  0  0  0  0  0  0  0  0
  -23.4414  -17.0552   18.5052 C   0  0  0  0  0  0  0  0  0  0  0  0
  -25.1636  -15.3719   19.0289 C   0  0  0  0  0  0  0  0  0  0  0  0
  -21.2902  -29.0077   20.2628 C   0  0  1  0  0  0  0  0  0  0  0  0
  -25.0884  -29.0838   20.2873 C   0  0  1  0  0  0  0  0  0  0  0  0
  -24.5663  -15.1412   20.4276 C   0  0  2  0  0  0  0  0  0  0  0  0
  -26.4313  -20.4166   20.2692 C   0  0  1  0  0  0  0  0  0  0  0  0
  -28.3676  -19.1135   20.2715 C   0  0  1  0  0  0  0  0  0  0  0  0
  -30.9036  -21.8455   17.6721 C   0  0  0  0  0  0  0  0  0  0  0  0
  -31.7707  -30.5153   16.6401 C   0  0  0  0  0  0  0  0  0  0  0  0
  -31.6448  -15.3891   19.4736 C   0  0  0  0  0  0  0  0  0  0  0  0
  -30.8877  -16.5041   17.3777 C   0  0  0  0  0  0  0  0  0  0  0  0
  -31.3629  -19.8281   19.8365 C   0  0  0  0  0  0  0  0  0  0  0  0
  -25.2359  -29.9130   15.7429 C   0  0  0  0  0  0  0  0  0  0  0  0
  -27.5286  -30.1012   14.7547 C   0  0  0  0  0  0  0  0  0  0  0  0
  -26.6226  -31.9518   16.1609 C   0  0  0  0  0  0  0  0  0  0  0  0
  -31.3490  -28.8906   20.0546 C   0  0  0  0  0  0  0  0  0  0  0  0
  -26.1206  -21.7717   20.8750 C   0  0  0  0  0  0  0  0  0  1  0  0
  -29.8140  -20.8881   18.1449 C   0  0  0  0  0  0  0  0  0  0  0  0
  -29.8682  -17.1783   19.6182 C   0  0  0  0  0  0  0  0  0  0  0  0
  -28.2247  -18.2349   17.9645 C   0  0  0  0  0  0  0  0  0  0  0  0
  -27.3195  -29.7854   17.2622 C   0  0  1  0  0  0  0  0  0  0  0  0
  -31.0351  -30.1485   17.9196 C   0  0  2  0  0  0  0  0  0  0  0  0
  -31.1451  -16.7090   18.8747 C   0  0  0  0  0  0  0  0  0  0  0  0
  -30.3475  -19.5434   18.7116 C   0  0  2  0  0  0  0  0  0  0  0  0
  -29.1979  -18.5236   19.1479 C   0  0  1  0  0  0  0  0  0  0  0  0
  -26.6704  -30.4169   15.9984 C   0  0  0  0  0  0  0  0  0  0  0  0
  -23.9422  -12.7723   20.7123 N   0  0  0  0  0  0  0  0  0  0  0  0
  -24.8445  -13.7412   20.9427 N   0  0  0  0  0  0  0  0  0  0  0  0
  -26.0411  -28.9054   19.1896 N   0  0  0  0  0  0  0  0  0  0  0  0
  -24.8703  -16.7395   18.5724 N   0  0  0  0  0  0  0  0  0  0  0  0
  -26.9431  -14.1658   21.9558 N   0  0  0  0  0  0  0  0  0  0  0  0
  -26.2744   -9.7700   22.7471 N   0  0  0  0  0  0  0  0  0  0  0  0
  -22.6903  -29.1190   20.6118 N   0  0  0  0  0  0  0  0  0  0  0  0
  -28.6683  -30.2647   17.5440 N   0  0  0  0  0  0  0  0  0  0  0  0
  -27.1425  -17.3374   18.3025 N   0  0  0  0  0  0  0  0  0  0  0  0
  -31.9366  -29.3052   18.7546 N   0  3  0  0  0  0  0  0  0  0  0  0
  -27.7140  -11.5238   23.0794 O   0  0  0  0  0  0  0  0  0  0  0  0
  -23.5898  -28.6187   18.5230 O   0  0  0  0  0  0  0  0  0  0  0  0
  -26.3112  -31.2001   18.8772 O   0  0  0  0  0  0  0  0  0  0  0  0
  -29.6971  -28.1879   17.4691 O   0  0  0  0  0  0  0  0  0  0  0  0
  -25.4842  -18.8452   17.8195 O   0  0  0  0  0  0  0  0  0  0  0  0
  -27.8084  -20.3717   19.8558 O   0  0  0  0  0  0  0  0  0  0  0  0
  -21.8549   -6.7729   21.1594 O   0  0  0  0  0  0  0  0  0  0  0  0
  -26.3445  -22.7747   19.8969 O   0  0  0  0  0  0  0  0  0  1  0  0
  -21.6570   -3.8469   25.8288 F   0  0  0  0  0  0  0  0  0  0  0  0
  -19.4329   -6.0984   22.3090 F   0  0  0  0  0  0  0  0  0  0  0  0
  1  2  1  0  0  0  0
  1  5  2  0  0  0  0
  2  6  2  0  0  0  0
  3  8  2  0  0  0  0
  3 15  1  0  0  0  0
  4  9  1  0  0  0  0
  4 15  2  0  0  0  0
  5 17  1  0  0  0  0
  6 19  1  0  0  0  0
  7 10  2  0  0  0  0
  7 18  1  0  0  0  0
  8 21  1  0  0  0  0
  9 21  2  0  0  0  0
 10 22  1  0  0  0  0
 11 12  2  0  0  0  0
 11 23  1  0  0  0  0
 12 24  1  0  0  0  0
 13 20  1  0  0  0  0
 13 22  2  0  0  0  0
 14 24  2  0  0  0  0
 14 25  1  0  0  0  0
 15 26  1  0  0  0  0
 16 26  1  0  0  0  0
 16 27  2  0  0  0  0
 16 28  1  0  0  0  0
 17 19  2  0  0  0  0
 17 33  1  0  0  0  0
 18 20  2  0  0  0  0
 18 34  1  0  0  0  0
 19 44  1  0  0  0  0
 20 35  1  0  0  0  0
 21 84  1  0  0  0  0
 22 85  1  0  0  0  0
 23 25  2  0  0  0  0
 23 84  1  0  0  0  0
 24 86  1  0  0  0  0
 25 87  1  0  0  0  0
 26 68  2  0  0  0  0
 27 69  1  0  0  0  0
 27 72  1  0  0  0  0
 28 73  1  0  0  0  0
 28 78  2  0  0  0  0
 29 45  1  0  0  0  0
 29 74  1  0  0  0  0
 29 79  2  0  0  0  0
 30 62  1  0  0  0  0
 30 70  1  0  0  0  0
 30 80  2  0  0  0  0
 31 63  1  0  0  0  0
 31 75  1  0  0  0  0
 31 81  2  0  0  0  0
 32 71  1  0  0  0  0
 32 76  1  0  0  0  0
 32 82  2  0  0  0  0
 33 36  1  0  0  0  0
 34 45  1  0  0  0  0
 35 70  1  0  0  0  0
 36 38  1  0  0  0  0
 37 39  1  0  0  0  0
 37 42  1  0  0  0  0
 38 44  1  0  0  0  0
 39 46  1  0  0  0  0
 40 41  1  0  0  0  0
 40 47  1  0  0  0  0
 41 48  1  0  0  0  0
 42 71  1  0  0  0  0
 43 46  1  0  0  0  0
 43 71  1  0  0  0  0
 44 74  1  0  0  0  0
 45 70  1  0  0  0  0
 46 69  1  0  0  0  0
 47 58  1  0  0  0  0
 47 83  1  0  0  0  0
 48 66  1  0  0  0  0
 48 83  1  0  0  0  0
 49 59  1  0  0  0  0
 50 63  1  0  0  0  0
 51 64  1  0  0  0  0
 52 64  1  0  0  0  0
 53 65  1  0  0  0  0
 54 67  1  0  0  0  0
 55 67  1  0  0  0  0
 56 67  1  0  0  0  0
 57 77  1  0  0  0  0
 58 85  1  0  0  0  0
 59 65  1  0  0  0  0
 60 64  1  0  0  0  0
 60 66  1  0  0  0  0
 61 66  1  0  0  0  0
 61 76  1  0  0  0  0
 62 67  1  0  0  0  0
 62 75  1  0  0  0  0
 63 77  1  0  0  0  0
 65 66  1  0  0  0  0
 68 69  1  0  0  0  0
M  CHG  1  77   1
M  ISO  4  32 100  58 101  76 100  85 101
M  END
> <Batch ID>
0113

> <Smiles>
CCC(C)C(C[100NH:0][100C:0](=O)N1CCCC(n2nc(-c3ccc(Oc4ccc(F)cc4F)cc3)c(C(N)=O)c2N)C1)(CC(C)C)C1CCC([101CH2:1][101O:1]c2ccc3c(c2)CN(C(=O)C(NC(=O)C(C)NC)C(C)(C)C)C(C(=O)NC2CCCc4ccccc42)C3)O1

> <Shape>
0.225

> <Color>
0.093

> <Negative vol penalty>
0.000

$$$$

  -OEChem-04052320053D

 84 93  0     1  0  0  0  0  0999 V2000
  -23.1883   -7.7955   21.3168 C   0  0  0  0  0  0  0  0  0  0  0  0
  -23.9550   -8.5530   20.4372 C   0  0  0  0  0  0  0  0  0  0  0  0
  -22.2204  -28.5634   20.9141 C   0  0  0  0  0  0  0  0  0  0  0  0
  -23.2303  -27.2547   22.6761 C   0  0  0  0  0  0  0  0  0  0  0  0
  -22.2688   -8.4230   22.1564 C   0  0  0  0  0  0  0  0  0  0  0  0
  -23.8019   -9.9384   20.3959 C   0  0  0  0  0  0  0  0  0  0  0  0
  -27.5480  -15.9377   19.2594 C   0  0  0  0  0  0  0  0  0  0  0  0
  -20.9584  -28.3175   21.4547 C   0  0  0  0  0  0  0  0  0  0  0  0
  -21.9683  -27.0088   23.2168 C   0  0  0  0  0  0  0  0  0  0  0  0
  -27.5154  -17.0978   18.4868 C   0  0  0  0  0  0  0  0  0  0  0  0
  -19.0743  -29.4783   24.0112 C   0  0  0  0  0  0  0  0  0  0  0  0
  -18.1945  -30.5553   24.1199 C   0  0  0  0  0  0  0  0  0  0  0  0
  -30.6856  -21.3836   21.6228 C   0  0  0  0  0  0  0  0  0  0  0  0
  -25.9529  -18.0808   20.0396 C   0  0  0  0  0  0  0  0  0  0  0  0
  -16.6197  -29.4134   22.6871 C   0  0  0  0  0  0  0  0  0  0  0  0
  -30.4054  -20.2504   20.8765 C   0  0  0  0  0  0  0  0  0  0  0  0
  -23.3564  -28.0320   21.5247 C   0  0  0  0  0  0  0  0  0  0  0  0
  -25.5213  -29.3571   21.2693 C   0  0  0  0  0  0  0  0  0  0  0  0
  -22.1113   -9.8177   22.1321 C   0  0  0  0  0  0  0  0  0  0  0  0
  -26.7736  -15.8362   20.4240 C   0  0  0  0  0  0  0  0  0  0  0  0
  -22.8785  -10.5850   21.2349 C   0  0  0  0  0  0  0  0  0  0  0  0
  -25.9794  -16.9193   20.8266 C   0  0  0  0  0  0  0  0  0  0  0  0
  -30.2676  -22.6119   21.1231 C   0  0  0  0  0  0  0  0  0  0  0  0
  -29.5915  -22.6687   19.9094 C   0  0  0  0  0  0  0  0  0  0  0  0
  -20.8323  -27.5402   22.6061 C   0  0  0  0  0  0  0  0  0  0  0  0
  -26.7156  -18.1685   18.8753 C   0  0  0  0  0  0  0  0  0  0  0  0
  -18.7268  -28.3689   23.2403 C   0  0  0  0  0  0  0  0  0  0  0  0
  -16.9672  -30.5228   23.4579 C   0  0  0  0  0  0  0  0  0  0  0  0
  -17.4995  -28.3364   22.5783 C   0  0  0  0  0  0  0  0  0  0  0  0
  -24.6604  -28.2852   20.9664 C   0  0  0  0  0  0  0  0  0  0  0  0
  -29.3604  -21.4779   19.2396 C   0  0  0  0  0  0  0  0  0  0  0  0
  -26.6250  -29.1446   20.4800 C   0  0  0  0  0  0  0  0  0  0  0  0
  -25.3396  -30.4473   22.1826 C   0  0  0  0  0  0  0  0  0  0  0  0
  -24.4056  -13.9463   21.3855 C   0  0  0  0  0  0  0  0  0  0  0  0
  -24.8027  -15.5282   24.1894 C   0  0  0  0  0  0  0  0  0  0  0  0
  -25.8864  -18.3316   25.8060 C   0  0  0  0  0  0  0  0  0  0  0  0
  -29.0099  -24.2435   18.0311 C   0  0  0  0  0  0  0  0  0  0  0  0
  -21.0710  -10.4463   23.0250 C   0  0  0  0  0  0  0  0  0  0  0  0
  -26.8405  -14.5881   21.2608 C   0  0  0  0  0  0  0  0  0  0  0  0
  -25.1448  -16.8683   22.0793 C   0  0  0  0  0  0  0  0  0  0  0  0
  -21.2369  -11.9554   23.1848 C   0  0  0  0  0  0  0  0  0  0  0  0
  -27.9269  -27.1696   16.3159 C   0  0  0  0  0  0  0  0  0  0  0  0
  -21.4716  -12.6132   21.8287 C   0  0  0  0  0  0  0  0  0  0  0  0
  -29.4064  -23.5409   24.2500 C   0  0  0  0  0  0  0  0  0  0  0  0
  -29.7322  -25.0026   24.1191 C   0  0  0  0  0  0  0  0  0  0  0  0
  -27.0496  -27.8884   17.3435 C   0  0  0  0  0  0  0  0  0  0  0  0
  -27.7721  -25.6522   16.4006 C   0  0  0  0  0  0  0  0  0  0  0  0
  -27.0983  -25.7998   18.7656 C   0  0  0  0  0  0  0  0  0  0  0  0
  -22.7590  -12.0925   21.1783 C   0  0  1  0  0  0  0  0  0  0  0  0
  -25.6162  -14.3995   22.1514 C   0  0  1  0  0  0  0  0  0  0  0  0
  -29.4400  -24.1848   22.8916 C   0  0  0  0  0  0  0  0  0  0  0  0
  -27.2690  -27.3277   18.7623 C   0  0  2  0  0  0  0  0  0  0  0  0
  -26.0436  -19.3493   28.0945 C   0  0  0  0  0  0  0  0  0  0  0  0
  -21.8196  -16.1645   24.1087 C   0  0  0  0  0  0  0  0  0  0  0  0
  -22.2193  -17.9255   25.8428 C   0  0  0  0  0  0  0  0  0  0  0  0
  -22.6908  -15.5325   26.3661 C   0  0  0  0  0  0  0  0  0  0  0  0
  -28.8401  -18.4610   25.6724 C   0  0  0  0  0  0  0  0  0  0  0  0
  -30.5576  -23.8486   21.9090 C   0  0  0  0  0  0  0  0  0  0  0  0
  -28.6323  -21.4716   17.9192 C   0  0  0  0  0  0  0  0  0  0  0  0
  -27.1193  -21.6595   18.0493 C   0  0  0  0  0  0  0  0  0  0  0  0
  -26.4333  -20.5289   18.8073 C   0  0  0  0  0  0  0  0  0  1  0  0
  -24.2291  -16.7848   24.7985 C   0  0  1  0  0  0  0  0  0  0  0  0
  -26.7511  -18.5116   27.0407 C   0  0  2  0  0  0  0  0  0  0  0  0
  -22.7538  -16.6024   25.2543 C   0  0  0  0  0  0  0  0  0  0  0  0
  -29.7512  -20.2659   19.6935 N   0  0  0  0  0  0  0  0  0  0  0  0
  -25.1730  -27.4536   20.0555 N   0  0  0  0  0  0  0  0  0  0  0  0
  -26.3680  -28.0030   19.7793 N   0  0  0  0  0  0  0  0  0  0  0  0
  -25.2392  -15.6240   22.8604 N   0  0  0  0  0  0  0  0  0  0  0  0
  -27.9983  -25.1926   17.7726 N   0  0  0  0  0  0  0  0  0  0  0  0
  -27.7806  -29.8247   20.3238 N   0  0  0  0  0  0  0  0  0  0  0  0
  -24.1463  -30.5137   22.9148 N   0  0  0  0  0  0  0  0  0  0  0  0
  -29.1542  -23.9067   19.3766 N   0  0  0  0  0  0  0  0  0  0  0  0
  -23.9176  -12.7156   21.7814 N   0  0  0  0  0  0  0  0  0  0  0  0
  -25.1415  -17.1730   25.8687 N   0  0  0  0  0  0  0  0  0  0  0  0
  -28.0299  -19.1882   26.6833 N   0  3  0  0  0  0  0  0  0  0  0  0
  -26.2026  -31.3452   22.3324 O   0  0  0  0  0  0  0  0  0  0  0  0
  -23.9472  -14.6609   20.5018 O   0  0  0  0  0  0  0  0  0  0  0  0
  -24.8679  -14.5015   24.8701 O   0  0  0  0  0  0  0  0  0  0  0  0
  -25.8704  -19.1400   24.8804 O   0  0  0  0  0  0  0  0  0  0  0  0
  -29.7156  -23.7852   17.1289 O   0  0  0  0  0  0  0  0  0  0  0  0
  -19.6010  -27.3002   23.1341 O   0  0  0  0  0  0  0  0  0  0  0  0
  -26.6814  -19.3017   18.1226 O   0  0  0  0  0  0  0  0  0  1  0  0
  -16.1218  -31.5564   23.5636 F   0  0  0  0  0  0  0  0  0  0  0  0
  -17.1596  -27.2729   21.8373 F   0  0  0  0  0  0  0  0  0  0  0  0
  1  2  1  0  0  0  0
  1  5  2  0  0  0  0
  2  6  2  0  0  0  0
  3  8  2  0  0  0  0
  3 17  1  0  0  0  0
  4  9  1  0  0  0  0
  4 17  2  0  0  0  0
  5 19  1  0  0  0  0
  6 21  1  0  0  0  0
  7 10  2  0  0  0  0
  7 20  1  0  0  0  0
  8 25  1  0  0  0  0
  9 25  2  0  0  0  0
 10 26  1  0  0  0  0
 11 12  2  0  0  0  0
 11 27  1  0  0  0  0
 12 28  1  0  0  0  0
 13 16  1  0  0  0  0
 13 23  2  0  0  0  0
 14 22  1  0  0  0  0
 14 26  2  0  0  0  0
 15 28  2  0  0  0  0
 15 29  1  0  0  0  0
 16 65  2  0  0  0  0
 17 30  1  0  0  0  0
 18 30  1  0  0  0  0
 18 32  2  0  0  0  0
 18 33  1  0  0  0  0
 19 21  2  0  0  0  0
 19 38  1  0  0  0  0
 20 22  2  0  0  0  0
 20 39  1  0  0  0  0
 21 49  1  0  0  0  0
 22 40  1  0  0  0  0
 23 24  1  0  0  0  0
 23 58  1  0  0  0  0
 24 31  2  0  0  0  0
 24 72  1  0  0  0  0
 25 81  1  0  0  0  0
 26 82  1  0  0  0  0
 27 29  2  0  0  0  0
 27 81  1  0  0  0  0
 28 83  1  0  0  0  0
 29 84  1  0  0  0  0
 30 66  2  0  0  0  0
 31 59  1  0  0  0  0
 31 65  1  0  0  0  0
 32 67  1  0  0  0  0
 32 70  1  0  0  0  0
 33 71  1  0  0  0  0
 33 76  2  0  0  0  0
 34 50  1  0  0  0  0
 34 73  1  0  0  0  0
 34 77  2  0  0  0  0
 35 62  1  0  0  0  0
 35 68  1  0  0  0  0
 35 78  2  0  0  0  0
 36 63  1  0  0  0  0
 36 74  1  0  0  0  0
 36 79  2  0  0  0  0
 37 69  1  0  0  0  0
 37 72  1  0  0  0  0
 37 80  2  0  0  0  0
 38 41  1  0  0  0  0
 39 50  1  0  0  0  0
 40 68  1  0  0  0  0
 41 43  1  0  0  0  0
 42 46  1  0  0  0  0
 42 47  1  0  0  0  0
 43 49  1  0  0  0  0
 44 45  1  0  0  0  0
 44 51  1  0  0  0  0
 45 51  1  0  0  0  0
 46 52  1  0  0  0  0
 47 69  1  0  0  0  0
 48 52  1  0  0  0  0
 48 69  1  0  0  0  0
 49 73  1  0  0  0  0
 50 68  1  0  0  0  0
 51 58  1  0  0  0  0
 52 67  1  0  0  0  0
 53 63  1  0  0  0  0
 54 64  1  0  0  0  0
 55 64  1  0  0  0  0
 56 64  1  0  0  0  0
 57 75  1  0  0  0  0
 59 60  1  0  0  0  0
 60 61  1  0  0  0  0
 61 82  1  0  0  0  0
 62 64  1  0  0  0  0
 62 74  1  0  0  0  0
 63 75  1  0  0  0  0
 66 67  1  0  0  0  0
M  CHG  1  75   1
M  ISO  4  37 100  61 101  72 100  82 101
M  END
> <Batch ID>
0113

> <Smiles>
CNC(C)C(=O)NC(C(=O)N1Cc2cc([101O:1][101CH2:1]CCc3nccc(CC4CC4)c3[100NH:0][100C:0](=O)N3CCCC(n4nc(-c5ccc(Oc6ccc(F)cc6F)cc5)c(C(N)=O)c4N)C3)ccc2CC1C(=O)NC1CCCc2ccccc21)C(C)(C)C

> <Shape>
0.245

> <Color>
0.072

> <Negative vol penalty>
0.000

$$$$

  -OEChem-04052320053D

 83 90  0     1  0  0  0  0  0999 V2000
  -16.9228  -30.1501   24.3993 C   0  0  0  0  0  0  0  0  0  0  0  0
  -17.2081  -28.7884   24.4045 C   0  0  0  0  0  0  0  0  0  0  0  0
  -25.7869  -16.9449   23.4278 C   0  0  0  0  0  0  0  0  0  0  0  0
  -24.3361  -18.0575   21.8484 C   0  0  0  0  0  0  0  0  0  0  0  0
  -17.5285  -30.9845   23.4608 C   0  0  0  0  0  0  0  0  0  0  0  0
  -18.0985  -28.2603   23.4703 C   0  0  0  0  0  0  0  0  0  0  0  0
  -23.0219  -23.1078   22.7430 C   0  0  0  0  0  0  0  0  0  0  0  0
  -24.6781  -16.5892   24.1957 C   0  0  0  0  0  0  0  0  0  0  0  0
  -23.2273  -17.7018   22.6163 C   0  0  0  0  0  0  0  0  0  0  0  0
  -23.3559  -22.0485   21.9004 C   0  0  0  0  0  0  0  0  0  0  0  0
  -22.2342  -14.2540   24.1100 C   0  0  0  0  0  0  0  0  0  0  0  0
  -22.1665  -12.9434   24.5826 C   0  0  0  0  0  0  0  0  0  0  0  0
  -24.4032  -23.5983   20.3771 C   0  0  0  0  0  0  0  0  0  0  0  0
  -22.1293  -13.7645   26.8545 C   0  0  0  0  0  0  0  0  0  0  0  0
  -25.6159  -17.6791   22.2542 C   0  0  0  0  0  0  0  0  0  0  0  0
  -27.3395  -17.3105   20.4100 C   0  0  0  0  0  0  0  0  0  0  0  0
  -18.4342  -30.4678   22.5209 C   0  0  0  0  0  0  0  0  0  0  0  0
  -23.3670  -24.4238   22.4031 C   0  0  0  0  0  0  0  0  0  0  0  0
  -18.7159  -29.0883   22.5175 C   0  0  0  0  0  0  0  0  0  0  0  0
  -24.0747  -24.6723   21.2183 C   0  0  0  0  0  0  0  0  0  0  0  0
  -23.3983  -16.9676   23.7900 C   0  0  0  0  0  0  0  0  0  0  0  0
  -24.0441  -22.2939   20.7158 C   0  0  0  0  0  0  0  0  0  0  0  0
  -22.2496  -15.3199   25.0097 C   0  0  0  0  0  0  0  0  0  0  0  0
  -22.1140  -12.6986   25.9548 C   0  0  0  0  0  0  0  0  0  0  0  0
  -22.1971  -15.0751   26.3819 C   0  0  0  0  0  0  0  0  0  0  0  0
  -26.7609  -18.0473   21.4608 C   0  0  0  0  0  0  0  0  0  0  0  0
  -28.3923  -18.0845   19.9870 C   0  0  0  0  0  0  0  0  0  0  0  0
  -26.9593  -16.0401   19.8650 C   0  0  0  0  0  0  0  0  0  0  0  0
  -21.7378  -27.0861   21.8020 C   0  0  0  0  0  0  0  0  0  0  0  0
  -25.6919  -20.5428   15.6537 C   0  0  0  0  0  0  0  0  0  0  0  0
  -24.6964  -28.4133   21.7146 C   0  0  0  0  0  0  0  0  0  0  0  0
  -28.0495  -27.9886   21.2425 C   0  0  0  0  0  0  0  0  0  0  0  0
  -29.8427  -23.6406   19.2516 C   0  0  0  0  0  0  0  0  0  0  0  0
  -19.0279  -31.4012   21.4957 C   0  0  0  0  0  0  0  0  0  0  0  0
  -23.0229  -25.5525   23.3358 C   0  0  0  0  0  0  0  0  0  0  0  0
  -24.4862  -26.0646   20.8176 C   0  0  0  0  0  0  0  0  0  0  0  0
  -20.2463  -30.8240   20.7797 C   0  0  0  0  0  0  0  0  0  0  0  0
  -31.0661  -21.7270   21.9935 C   0  0  0  0  0  0  0  0  0  0  0  0
  -19.9739  -29.3911   20.3331 C   0  0  0  0  0  0  0  0  0  0  0  0
  -30.1344  -20.5145   22.0379 C   0  0  0  0  0  0  0  0  0  0  0  0
  -30.3192  -22.9983   21.5961 C   0  0  0  0  0  0  0  0  0  0  0  0
  -28.6204  -21.6866   20.3849 C   0  0  0  0  0  0  0  0  0  0  0  0
  -19.6953  -28.4819   21.5361 C   0  0  1  0  0  0  0  0  0  0  0  0
  -22.9727  -26.9089   22.6394 C   0  0  1  0  0  0  0  0  0  0  0  0
  -29.3391  -20.3702   20.7265 C   0  0  2  0  0  0  0  0  0  0  0  0
  -30.2098  -29.2647   21.1978 C   0  0  0  0  0  0  0  0  0  0  0  0
  -22.7098  -19.7968   17.9797 C   0  0  0  0  0  0  0  0  0  0  0  0
  -28.3650  -25.3847   16.9277 C   0  0  0  0  0  0  0  0  0  0  0  0
  -23.9793  -29.5263   18.9656 C   0  0  0  0  0  0  0  0  0  0  0  0
  -26.4161  -29.9509   18.5788 C   0  0  0  0  0  0  0  0  0  0  0  0
  -25.2294  -31.1132   20.4398 C   0  0  0  0  0  0  0  0  0  0  0  0
  -29.1634  -26.4089   23.4836 C   0  0  0  0  0  0  0  0  0  0  0  0
  -25.9766  -21.4036   14.4300 C   0  0  0  0  0  0  0  0  0  0  0  0
  -24.2562  -20.5783   16.1611 C   0  0  0  0  0  0  0  0  0  0  0  0
  -27.3984  -21.9387   14.3713 C   0  0  0  0  0  0  0  0  0  0  0  0
  -29.0661  -23.2899   15.6487 C   0  0  0  0  0  0  0  0  0  0  0  0
  -24.4504  -21.5461   18.4951 C   0  0  0  0  0  0  0  0  0  1  0  0
  -25.7334  -28.6439   20.6420 C   0  0  1  0  0  0  0  0  0  0  0  0
  -29.2474  -28.4532   22.0509 C   0  0  2  0  0  0  0  0  0  0  0  0
  -24.1249  -20.2953   17.6652 C   0  0  1  0  0  0  0  0  0  0  0  0
  -29.2664  -24.1543   16.8929 C   0  0  2  0  0  0  0  0  0  0  0  0
  -25.3302  -29.7824   19.6629 C   0  0  0  0  0  0  0  0  0  0  0  0
  -27.3938  -19.2007   21.6913 N   0  0  0  0  0  0  0  0  0  0  0  0
  -28.3810  -19.1945   20.7795 N   0  0  0  0  0  0  0  0  0  0  0  0
  -24.1213  -27.1354   21.7597 N   0  0  0  0  0  0  0  0  0  0  0  0
  -29.5870  -22.7951   20.3437 N   0  0  0  0  0  0  0  0  0  0  0  0
  -29.3175  -17.9171   19.0182 N   0  0  0  0  0  0  0  0  0  0  0  0
  -25.8530  -15.3802   20.4174 N   0  0  0  0  0  0  0  0  0  0  0  0
  -20.9313  -28.1339   22.2036 N   0  0  0  0  0  0  0  0  0  0  0  0
  -26.9956  -28.8726   21.3370 N   0  0  0  0  0  0  0  0  0  0  0  0
  -29.1103  -23.3752   18.1010 N   0  0  0  0  0  0  0  0  0  0  0  0
  -29.9838  -27.2821   22.6054 N   0  3  0  0  0  0  0  0  0  0  0  0
  -27.6772  -22.7606   15.5753 N   0  3  0  0  0  0  0  0  0  0  0  0
  -27.5920  -15.4982   18.9271 O   0  0  0  0  0  0  0  0  0  0  0  0
  -21.5326  -26.3293   20.8603 O   0  0  0  0  0  0  0  0  0  0  0  0
  -26.5520  -19.8299   16.1683 O   0  0  0  0  0  0  0  0  0  0  0  0
  -24.4125  -29.3309   22.4885 O   0  0  0  0  0  0  0  0  0  0  0  0
  -28.0501  -26.9475   20.5891 O   0  0  0  0  0  0  0  0  0  0  0  0
  -30.6668  -24.5603   19.2967 O   0  0  0  0  0  0  0  0  0  0  0  0
  -22.3161  -16.6205   24.5389 O   0  0  0  0  0  0  0  0  0  0  0  0
  -24.3708  -21.2618   19.8912 O   0  0  0  0  0  0  0  0  0  1  0  0
  -22.0473  -11.4401   26.4084 F   0  0  0  0  0  0  0  0  0  0  0  0
  -22.2103  -16.0951   27.2510 F   0  0  0  0  0  0  0  0  0  0  0  0
  1  2  1  0  0  0  0
  1  5  2  0  0  0  0
  2  6  2  0  0  0  0
  3  8  2  0  0  0  0
  3 15  1  0  0  0  0
  4  9  1  0  0  0  0
  4 15  2  0  0  0  0
  5 17  1  0  0  0  0
  6 19  1  0  0  0  0
  7 10  2  0  0  0  0
  7 18  1  0  0  0  0
  8 21  1  0  0  0  0
  9 21  2  0  0  0  0
 10 22  1  0  0  0  0
 11 12  2  0  0  0  0
 11 23  1  0  0  0  0
 12 24  1  0  0  0  0
 13 20  1  0  0  0  0
 13 22  2  0  0  0  0
 14 24  2  0  0  0  0
 14 25  1  0  0  0  0
 15 26  1  0  0  0  0
 16 26  1  0  0  0  0
 16 27  2  0  0  0  0
 16 28  1  0  0  0  0
 17 19  2  0  0  0  0
 17 34  1  0  0  0  0
 18 20  2  0  0  0  0
 18 35  1  0  0  0  0
 19 43  1  0  0  0  0
 20 36  1  0  0  0  0
 21 80  1  0  0  0  0
 22 81  1  0  0  0  0
 23 25  2  0  0  0  0
 23 80  1  0  0  0  0
 24 82  1  0  0  0  0
 25 83  1  0  0  0  0
 26 63  2  0  0  0  0
 27 64  1  0  0  0  0
 27 67  1  0  0  0  0
 28 68  1  0  0  0  0
 28 74  2  0  0  0  0
 29 44  1  0  0  0  0
 29 69  1  0  0  0  0
 29 75  2  0  0  0  0
 30 53  1  0  0  0  0
 30 54  1  0  0  0  0
 30 76  2  0  0  0  0
 31 58  1  0  0  0  0
 31 65  1  0  0  0  0
 31 77  2  0  0  0  0
 32 59  1  0  0  0  0
 32 70  1  0  0  0  0
 32 78  2  0  0  0  0
 33 66  1  0  0  0  0
 33 71  1  0  0  0  0
 33 79  2  0  0  0  0
 34 37  1  0  0  0  0
 35 44  1  0  0  0  0
 36 65  1  0  0  0  0
 37 39  1  0  0  0  0
 38 40  1  0  0  0  0
 38 41  1  0  0  0  0
 39 43  1  0  0  0  0
 40 45  1  0  0  0  0
 41 66  1  0  0  0  0
 42 45  1  0  0  0  0
 42 66  1  0  0  0  0
 43 69  1  0  0  0  0
 44 65  1  0  0  0  0
 45 64  1  0  0  0  0
 46 59  1  0  0  0  0
 47 60  1  0  0  0  0
 48 61  1  0  0  0  0
 49 62  1  0  0  0  0
 50 62  1  0  0  0  0
 51 62  1  0  0  0  0
 52 72  1  0  0  0  0
 53 55  1  0  0  0  0
 54 60  1  0  0  0  0
 55 73  1  0  0  0  0
 56 61  1  0  0  0  0
 56 73  1  0  0  0  0
 57 60  1  0  0  0  0
 57 81  1  0  0  0  0
 58 62  1  0  0  0  0
 58 70  1  0  0  0  0
 59 72  1  0  0  0  0
 61 71  1  0  0  0  0
 63 64  1  0  0  0  0
M  CHG  2  72   1  73   1
M  ISO  4  33 100  57 101  71 100  81 101
M  END
> <Batch ID>
0113

> <Smiles>
CNC(C)C(=O)NC(C(=O)N1Cc2cc([101O:1][101CH2:1]C(C)CC(=O)CCNCC(C)[100NH:0][100C:0](=O)N3CCCC(n4nc(-c5ccc(Oc6ccc(F)cc6F)cc5)c(C(N)=O)c4N)C3)ccc2CC1C(=O)NC1CCCc2ccccc21)C(C)(C)C

> <Shape>
0.174

> <Color>
0.063

> <Negative vol penalty>
0.000

$$$$

  -OEChem-04052320053D

 83 91  0     1  0  0  0  0  0999 V2000
  -34.8885  -30.6325   21.4792 C   0  0  0  0  0  0  0  0  0  0  0  0
  -34.3594  -29.3704   21.7295 C   0  0  0  0  0  0  0  0  0  0  0  0
  -23.0830   -9.8166   19.9827 C   0  0  0  0  0  0  0  0  0  0  0  0
  -23.8160   -9.9005   22.2834 C   0  0  0  0  0  0  0  0  0  0  0  0
  -34.0452  -31.6805   21.1125 C   0  0  0  0  0  0  0  0  0  0  0  0
  -32.9864  -29.1559   21.6142 C   0  0  0  0  0  0  0  0  0  0  0  0
  -31.8898  -24.8800   19.1325 C   0  0  0  0  0  0  0  0  0  0  0  0
  -30.1689  -19.0169   22.9795 C   0  0  0  0  0  0  0  0  0  0  0  0
  -22.3397   -8.6697   20.2614 C   0  0  0  0  0  0  0  0  0  0  0  0
  -23.0726   -8.7536   22.5620 C   0  0  0  0  0  0  0  0  0  0  0  0
  -32.0099  -23.6845   19.8398 C   0  0  0  0  0  0  0  0  0  0  0  0
  -19.8400   -7.9650   23.1526 C   0  0  0  0  0  0  0  0  0  0  0  0
  -19.0695   -7.9606   24.3153 C   0  0  0  0  0  0  0  0  0  0  0  0
  -29.7034  -17.7677   22.5841 C   0  0  0  0  0  0  0  0  0  0  0  0
  -29.6231  -23.6580   20.1883 C   0  0  0  0  0  0  0  0  0  0  0  0
  -20.3079   -6.0522   25.1287 C   0  0  0  0  0  0  0  0  0  0  0  0
  -32.1902  -18.5774   21.8058 C   0  0  0  0  0  0  0  0  0  0  0  0
  -23.8213  -10.4320   20.9937 C   0  0  0  0  0  0  0  0  0  0  0  0
  -24.1570  -12.9531   20.7957 C   0  0  0  0  0  0  0  0  0  0  0  0
  -32.6623  -31.4763   20.9832 C   0  0  0  0  0  0  0  0  0  0  0  0
  -30.6346  -25.4800   18.9568 C   0  0  0  0  0  0  0  0  0  0  0  0
  -32.1236  -30.2024   21.2467 C   0  0  0  0  0  0  0  0  0  0  0  0
  -29.4894  -24.8597   19.4762 C   0  0  0  0  0  0  0  0  0  0  0  0
  -31.4349  -19.4369   22.5871 C   0  0  0  0  0  0  0  0  0  0  0  0
  -22.3345   -8.1382   21.5510 C   0  0  0  0  0  0  0  0  0  0  0  0
  -30.8769  -23.0748   20.3703 C   0  0  0  0  0  0  0  0  0  0  0  0
  -20.8444   -7.0130   22.9779 C   0  0  0  0  0  0  0  0  0  0  0  0
  -19.3035   -7.0042   25.3034 C   0  0  0  0  0  0  0  0  0  0  0  0
  -21.0784   -6.0566   23.9659 C   0  0  0  0  0  0  0  0  0  0  0  0
  -24.5898  -11.6165   20.7064 C   0  0  0  0  0  0  0  0  0  0  0  0
  -30.5361  -16.9830   21.8028 C   0  0  0  0  0  0  0  0  0  0  0  0
  -25.2511  -13.6940   20.4210 C   0  0  0  0  0  0  0  0  0  0  0  0
  -22.8802  -13.4780   21.1828 C   0  0  0  0  0  0  0  0  0  0  0  0
  -29.3320  -28.2490   19.8170 C   0  0  0  0  0  0  0  0  0  0  0  0
  -26.8612  -27.2081   17.9911 C   0  0  0  0  0  0  0  0  0  0  0  0
  -25.1913  -24.5742   16.6052 C   0  0  0  0  0  0  0  0  0  0  0  0
  -30.7117  -14.7630   20.6251 C   0  0  0  0  0  0  0  0  0  0  0  0
  -31.7849  -32.6512   20.6304 C   0  0  0  0  0  0  0  0  0  0  0  0
  -30.5187  -26.7557   18.1684 C   0  0  0  0  0  0  0  0  0  0  0  0
  -28.1165  -25.4526   19.2980 C   0  0  0  0  0  0  0  0  0  0  0  0
  -30.3873  -32.2498   20.1658 C   0  0  0  0  0  0  0  0  0  0  0  0
  -29.6323  -12.2698   18.3237 C   0  0  0  0  0  0  0  0  0  0  0  0
  -29.7941  -31.2016   21.1018 C   0  0  0  0  0  0  0  0  0  0  0  0
  -28.1886  -11.9875   18.7458 C   0  0  0  0  0  0  0  0  0  0  0  0
  -30.5326  -12.5406   19.5278 C   0  0  0  0  0  0  0  0  0  0  0  0
  -28.6075  -13.3031   20.8626 C   0  0  0  0  0  0  0  0  0  0  0  0
  -30.6425  -29.9242   21.1081 C   0  0  1  0  0  0  0  0  0  0  0  0
  -29.2540  -27.5451   18.4918 C   0  0  1  0  0  0  0  0  0  0  0  0
  -27.6490  -13.0885   19.6798 C   0  0  2  0  0  0  0  0  0  0  0  0
  -23.1864  -24.0345   15.1958 C   0  0  0  0  0  0  0  0  0  0  0  0
  -34.4864  -19.9582   25.9100 C   0  0  0  0  0  0  0  0  0  0  0  0
  -32.0854  -20.6317   26.1032 C   0  0  0  0  0  0  0  0  0  0  0  0
  -25.0442  -27.6959   20.3933 C   0  0  0  0  0  0  0  0  0  0  0  0
  -23.3050  -26.2830   19.2764 C   0  0  0  0  0  0  0  0  0  0  0  0
  -24.0773  -28.3941   18.1951 C   0  0  0  0  0  0  0  0  0  0  0  0
  -26.8629  -23.3577   14.4875 C   0  0  0  0  0  0  0  0  0  0  0  0
  -33.2691  -20.7007   23.8400 C   0  0  0  0  0  0  0  0  0  0  0  0
  -32.2110  -21.6900   21.7697 C   0  0  0  0  0  0  0  0  0  1  0  0
  -31.9722  -20.7988   23.0030 C   0  0  1  0  0  0  0  0  0  0  0  0
  -25.6176  -26.3897   18.2412 C   0  0  1  0  0  0  0  0  0  0  0  0
  -24.6770  -24.3361   15.1970 C   0  0  2  0  0  0  0  0  0  0  0  0
  -33.1305  -19.9784   25.1978 C   0  0  0  0  0  0  0  0  0  0  0  0
  -24.5370  -27.1803   19.0317 C   0  0  0  0  0  0  0  0  0  0  0  0
  -31.7719  -17.3569   21.4020 N   0  0  0  0  0  0  0  0  0  0  0  0
  -25.8597  -11.5113   20.3061 N   0  0  0  0  0  0  0  0  0  0  0  0
  -26.2343  -12.7913   20.1406 N   0  0  0  0  0  0  0  0  0  0  0  0
  -28.0557  -26.7041   18.5249 N   0  0  0  0  0  0  0  0  0  0  0  0
  -29.9603  -13.5975   20.3647 N   0  0  0  0  0  0  0  0  0  0  0  0
  -25.4584  -15.0231   20.3072 N   0  0  0  0  0  0  0  0  0  0  0  0
  -21.8671  -12.5768   21.5377 N   0  0  0  0  0  0  0  0  0  0  0  0
  -30.0521  -15.7119   21.4054 N   0  0  0  0  0  0  0  0  0  0  0  0
  -30.3835  -29.1396   19.9199 N   0  0  0  0  0  0  0  0  0  0  0  0
  -25.1735  -25.9127   16.9360 N   0  0  0  0  0  0  0  0  0  0  0  0
  -25.3898  -23.1857   14.5728 N   0  3  0  0  0  0  0  0  0  0  0  0
  -22.6396  -14.7090   21.1974 O   0  0  0  0  0  0  0  0  0  0  0  0
  -28.4990  -28.0033   20.6816 O   0  0  0  0  0  0  0  0  0  0  0  0
  -26.7772  -28.2523   17.3397 O   0  0  0  0  0  0  0  0  0  0  0  0
  -25.5675  -23.6635   17.3398 O   0  0  0  0  0  0  0  0  0  0  0  0
  -31.8457  -14.9202   20.1653 O   0  0  0  0  0  0  0  0  0  0  0  0
  -21.6090   -7.0192   21.8233 O   0  0  0  0  0  0  0  0  0  0  0  0
  -30.9914  -21.9083   21.0617 O   0  0  0  0  0  0  0  0  0  1  0  0
  -18.5645   -7.0010   26.4206 F   0  0  0  0  0  0  0  0  0  0  0  0
  -22.0427   -5.1403   23.8043 F   0  0  0  0  0  0  0  0  0  0  0  0
  1  2  1  0  0  0  0
  1  5  2  0  0  0  0
  2  6  2  0  0  0  0
  3  9  2  0  0  0  0
  3 18  1  0  0  0  0
  4 10  1  0  0  0  0
  4 18  2  0  0  0  0
  5 20  1  0  0  0  0
  6 22  1  0  0  0  0
  7 11  2  0  0  0  0
  7 21  1  0  0  0  0
  8 14  2  0  0  0  0
  8 24  1  0  0  0  0
  9 25  1  0  0  0  0
 10 25  2  0  0  0  0
 11 26  1  0  0  0  0
 12 13  2  0  0  0  0
 12 27  1  0  0  0  0
 13 28  1  0  0  0  0
 14 31  1  0  0  0  0
 15 23  1  0  0  0  0
 15 26  2  0  0  0  0
 16 28  2  0  0  0  0
 16 29  1  0  0  0  0
 17 24  2  0  0  0  0
 17 64  1  0  0  0  0
 18 30  1  0  0  0  0
 19 30  1  0  0  0  0
 19 32  2  0  0  0  0
 19 33  1  0  0  0  0
 20 22  2  0  0  0  0
 20 38  1  0  0  0  0
 21 23  2  0  0  0  0
 21 39  1  0  0  0  0
 22 47  1  0  0  0  0
 23 40  1  0  0  0  0
 24 59  1  0  0  0  0
 25 80  1  0  0  0  0
 26 81  1  0  0  0  0
 27 29  2  0  0  0  0
 27 80  1  0  0  0  0
 28 82  1  0  0  0  0
 29 83  1  0  0  0  0
 30 65  2  0  0  0  0
 31 64  2  0  0  0  0
 31 71  1  0  0  0  0
 32 66  1  0  0  0  0
 32 69  1  0  0  0  0
 33 70  1  0  0  0  0
 33 75  2  0  0  0  0
 34 48  1  0  0  0  0
 34 72  1  0  0  0  0
 34 76  2  0  0  0  0
 35 60  1  0  0  0  0
 35 67  1  0  0  0  0
 35 77  2  0  0  0  0
 36 61  1  0  0  0  0
 36 73  1  0  0  0  0
 36 78  2  0  0  0  0
 37 68  1  0  0  0  0
 37 71  1  0  0  0  0
 37 79  2  0  0  0  0
 38 41  1  0  0  0  0
 39 48  1  0  0  0  0
 40 67  1  0  0  0  0
 41 43  1  0  0  0  0
 42 44  1  0  0  0  0
 42 45  1  0  0  0  0
 43 47  1  0  0  0  0
 44 49  1  0  0  0  0
 45 68  1  0  0  0  0
 46 49  1  0  0  0  0
 46 68  1  0  0  0  0
 47 72  1  0  0  0  0
 48 67  1  0  0  0  0
 49 66  1  0  0  0  0
 50 61  1  0  0  0  0
 51 62  1  0  0  0  0
 52 62  1  0  0  0  0
 53 63  1  0  0  0  0
 54 63  1  0  0  0  0
 55 63  1  0  0  0  0
 56 74  1  0  0  0  0
 57 59  1  0  0  0  0
 57 62  1  0  0  0  0
 58 59  1  0  0  0  0
 58 81  1  0  0  0  0
 60 63  1  0  0  0  0
 60 73  1  0  0  0  0
 61 74  1  0  0  0  0
 65 66  1  0  0  0  0
M  CHG  1  74   1
M  ISO  4  37 100  58 101  71 100  81 101
M  END
> <Batch ID>
0113

> <Smiles>
CNC(C)C(=O)NC(C(=O)N1Cc2cc([101O:1][101CH2:1]C(CC(C)C)c3ccc([100NH:0][100C:0](=O)N4CCCC(n5nc(-c6ccc(Oc7ccc(F)cc7F)cc6)c(C(N)=O)c5N)C4)nc3)ccc2CC1C(=O)NC1CCCc2ccccc21)C(C)(C)C

> <Shape>
0.253

> <Color>
0.194

> <Negative vol penalty>
0.000

$$$$

  -OEChem-04052320053D

 83 90  0     1  0  0  0  0  0999 V2000
  -22.6903  -31.1231   13.4732 C   0  0  0  0  0  0  0  0  0  0  0  0
  -23.2074  -29.8946   13.8717 C   0  0  0  0  0  0  0  0  0  0  0  0
  -24.5026   -9.9144   21.8352 C   0  0  0  0  0  0  0  0  0  0  0  0
  -24.7320  -11.1974   23.8694 C   0  0  0  0  0  0  0  0  0  0  0  0
  -23.2534  -32.3043   13.9544 C   0  0  0  0  0  0  0  0  0  0  0  0
  -24.2888  -29.8466   14.7507 C   0  0  0  0  0  0  0  0  0  0  0  0
  -25.3226  -25.6504   19.0900 C   0  0  0  0  0  0  0  0  0  0  0  0
  -24.1567   -8.7894   22.5837 C   0  0  0  0  0  0  0  0  0  0  0  0
  -24.3862  -10.0724   24.6180 C   0  0  0  0  0  0  0  0  0  0  0  0
  -26.1310  -24.5150   19.1232 C   0  0  0  0  0  0  0  0  0  0  0  0
  -21.5652   -8.4104   25.4551 C   0  0  0  0  0  0  0  0  0  0  0  0
  -20.6446   -8.5798   26.4892 C   0  0  0  0  0  0  0  0  0  0  0  0
  -27.8708  -25.7929   20.2001 C   0  0  0  0  0  0  0  0  0  0  0  0
  -22.2891   -7.8042   28.0802 C   0  0  0  0  0  0  0  0  0  0  0  0
  -24.7903  -11.1184   22.4780 C   0  0  0  0  0  0  0  0  0  0  0  0
  -24.2776  -13.2582   21.1873 C   0  0  0  0  0  0  0  0  0  0  0  0
  -24.3361  -32.2706   14.8473 C   0  0  0  0  0  0  0  0  0  0  0  0
  -25.7871  -26.8702   19.6025 C   0  0  0  0  0  0  0  0  0  0  0  0
  -24.8678  -31.0285   15.2432 C   0  0  0  0  0  0  0  0  0  0  0  0
  -27.0653  -26.9416   20.1744 C   0  0  0  0  0  0  0  0  0  0  0  0
  -24.0985   -8.8683   23.9751 C   0  0  0  0  0  0  0  0  0  0  0  0
  -27.4065  -24.5868   19.6757 C   0  0  0  0  0  0  0  0  0  0  0  0
  -22.8477   -7.9378   25.7335 C   0  0  0  0  0  0  0  0  0  0  0  0
  -21.0066   -8.2768   27.8017 C   0  0  0  0  0  0  0  0  0  0  0  0
  -23.2097   -7.6347   27.0460 C   0  0  0  0  0  0  0  0  0  0  0  0
  -25.1482  -12.2807   21.7054 C   0  0  0  0  0  0  0  0  0  0  0  0
  -25.1027  -14.1431   20.5372 C   0  0  0  0  0  0  0  0  0  0  0  0
  -22.8506  -13.3575   21.2851 C   0  0  0  0  0  0  0  0  0  0  0  0
  -26.3466  -29.7500   18.3788 C   0  0  0  0  0  0  0  0  0  0  0  0
  -26.8926  -30.5328   21.4790 C   0  0  0  0  0  0  0  0  0  0  0  0
  -27.7571  -29.5072   24.6171 C   0  0  0  0  0  0  0  0  0  0  0  0
  -29.7614  -17.2096   20.3419 C   0  0  0  0  0  0  0  0  0  0  0  0
  -24.9416  -33.5744   15.3035 C   0  0  0  0  0  0  0  0  0  0  0  0
  -24.8926  -28.0793   19.5833 C   0  0  0  0  0  0  0  0  0  0  0  0
  -27.6033  -28.2224   20.7564 C   0  0  0  0  0  0  0  0  0  0  0  0
  -25.8460  -33.4317   16.5249 C   0  0  0  0  0  0  0  0  0  0  0  0
  -30.0054  -13.8018   19.3398 C   0  0  0  0  0  0  0  0  0  0  0  0
  -26.7975  -32.2523   16.3497 C   0  0  0  0  0  0  0  0  0  0  0  0
  -28.6950  -13.1821   19.8285 C   0  0  0  0  0  0  0  0  0  0  0  0
  -30.5296  -14.8546   20.3138 C   0  0  0  0  0  0  0  0  0  0  0  0
  -28.2529  -15.2940   21.1489 C   0  0  0  0  0  0  0  0  0  0  0  0
  -26.0243  -30.9350   16.2148 C   0  0  1  0  0  0  0  0  0  0  0  0
  -25.6626  -29.3936   19.6683 C   0  0  1  0  0  0  0  0  0  0  0  0
  -27.6559  -14.2663   20.1723 C   0  0  2  0  0  0  0  0  0  0  0  0
  -28.1566  -30.3815   26.9351 C   0  0  0  0  0  0  0  0  0  0  0  0
  -30.3280  -21.6257   23.6949 C   0  0  0  0  0  0  0  0  0  0  0  0
  -28.0465  -22.5474   23.1552 C   0  0  0  0  0  0  0  0  0  0  0  0
  -29.4513  -22.5358   17.8858 C   0  0  0  0  0  0  0  0  0  0  0  0
  -29.5944  -31.6399   20.5932 C   0  0  0  0  0  0  0  0  0  0  0  0
  -30.3129  -31.6140   22.9914 C   0  0  0  0  0  0  0  0  0  0  0  0
  -28.3950  -33.0423   22.2811 C   0  0  0  0  0  0  0  0  0  0  0  0
  -25.5783  -27.8504   25.7426 C   0  0  0  0  0  0  0  0  0  0  0  0
  -32.0190  -24.9723   18.7201 C   0  0  0  0  0  0  0  0  0  0  0  0
  -28.8452  -19.5148   20.4178 C   0  0  0  0  0  0  0  0  0  0  0  0
  -29.3927  -20.2195   21.6508 C   0  0  0  0  0  0  0  0  0  0  0  0
  -30.6880  -21.9752   20.6448 C   0  0  0  0  0  0  0  0  0  0  0  0
  -28.1003  -30.5334   22.3847 C   0  0  1  0  0  0  0  0  0  0  0  0
  -27.1382  -29.7873   25.9746 C   0  0  2  0  0  0  0  0  0  0  0  0
  -29.4842  -22.3872   22.6830 C   0  0  0  0  0  0  0  0  0  0  0  0
  -30.6056  -23.3749   20.0198 C   0  0  2  0  0  0  0  0  0  0  0  0
  -29.4464  -23.5539   19.0218 C   0  0  2  0  0  0  0  0  0  1  0  0
  -29.0915  -31.6836   22.0500 C   0  0  0  0  0  0  0  0  0  0  0  0
  -26.4282  -12.5215   21.4097 N   0  0  0  0  0  0  0  0  0  0  0  0
  -26.3681  -13.6604   20.6988 N   0  0  0  0  0  0  0  0  0  0  0  0
  -26.6932  -29.3786   20.7083 N   0  0  0  0  0  0  0  0  0  0  0  0
  -29.4965  -15.8539   20.5968 N   0  0  0  0  0  0  0  0  0  0  0  0
  -24.8621  -15.2791   19.8487 N   0  0  0  0  0  0  0  0  0  0  0  0
  -22.1583  -12.3631   21.9895 N   0  0  0  0  0  0  0  0  0  0  0  0
  -25.5623  -30.4851   17.5104 N   0  0  0  0  0  0  0  0  0  0  0  0
  -27.5868  -30.5656   23.7499 N   0  0  0  0  0  0  0  0  0  0  0  0
  -28.7262  -18.0898   20.6323 N   0  0  0  0  0  0  0  0  0  0  0  0
  -29.4875  -21.6604   21.4126 N   0  0  2  0  0  0  0  0  0  0  0  0
  -26.6075  -28.5292   26.5715 N   0  3  0  0  0  0  0  0  0  0  0  0
  -31.9081  -23.6236   19.3274 N   0  3  0  0  0  0  0  0  0  0  0  0
  -22.2069  -14.2914   20.7494 O   0  0  0  0  0  0  0  0  0  0  0  0
  -27.5009  -29.3864   18.1865 O   0  0  0  0  0  0  0  0  0  0  0  0
  -26.1494  -31.5171   21.4614 O   0  0  0  0  0  0  0  0  0  0  0  0
  -28.3372  -28.4561   24.3536 O   0  0  0  0  0  0  0  0  0  0  0  0
  -30.8388  -17.6056   19.8842 O   0  0  0  0  0  0  0  0  0  0  0  0
  -23.7608   -7.7708   24.7058 O   0  0  0  0  0  0  0  0  0  0  0  0
  -28.1979  -23.4803   19.7089 O   0  0  0  0  0  0  0  0  0  1  0  0
  -20.1229   -8.4410   28.7949 F   0  0  0  0  0  0  0  0  0  0  0  0
  -24.4407   -7.1814   27.3198 F   0  0  0  0  0  0  0  0  0  0  0  0
  1  2  1  0  0  0  0
  1  5  2  0  0  0  0
  2  6  2  0  0  0  0
  3  8  2  0  0  0  0
  3 15  1  0  0  0  0
  4  9  1  0  0  0  0
  4 15  2  0  0  0  0
  5 17  1  0  0  0  0
  6 19  1  0  0  0  0
  7 10  2  0  0  0  0
  7 18  1  0  0  0  0
  8 21  1  0  0  0  0
  9 21  2  0  0  0  0
 10 22  1  0  0  0  0
 11 12  2  0  0  0  0
 11 23  1  0  0  0  0
 12 24  1  0  0  0  0
 13 20  1  0  0  0  0
 13 22  2  0  0  0  0
 14 24  2  0  0  0  0
 14 25  1  0  0  0  0
 15 26  1  0  0  0  0
 16 26  1  0  0  0  0
 16 27  2  0  0  0  0
 16 28  1  0  0  0  0
 17 19  2  0  0  0  0
 17 33  1  0  0  0  0
 18 20  2  0  0  0  0
 18 34  1  0  0  0  0
 19 42  1  0  0  0  0
 20 35  1  0  0  0  0
 21 80  1  0  0  0  0
 22 81  1  0  0  0  0
 23 25  2  0  0  0  0
 23 80  1  0  0  0  0
 24 82  1  0  0  0  0
 25 83  1  0  0  0  0
 26 63  2  0  0  0  0
 27 64  1  0  0  0  0
 27 67  1  0  0  0  0
 28 68  1  0  0  0  0
 28 75  2  0  0  0  0
 29 43  1  0  0  0  0
 29 69  1  0  0  0  0
 29 76  2  0  0  0  0
 30 57  1  0  0  0  0
 30 65  1  0  0  0  0
 30 77  2  0  0  0  0
 31 58  1  0  0  0  0
 31 70  1  0  0  0  0
 31 78  2  0  0  0  0
 32 66  1  0  0  0  0
 32 71  1  0  0  0  0
 32 79  2  0  0  0  0
 33 36  1  0  0  0  0
 34 43  1  0  0  0  0
 35 65  1  0  0  0  0
 36 38  1  0  0  0  0
 37 39  1  0  0  0  0
 37 40  1  0  0  0  0
 38 42  1  0  0  0  0
 39 44  1  0  0  0  0
 40 66  1  0  0  0  0
 41 44  1  0  0  0  0
 41 66  1  0  0  0  0
 42 69  1  0  0  0  0
 43 65  1  0  0  0  0
 44 64  1  0  0  0  0
 45 58  1  0  0  0  0
 46 59  1  0  0  0  0
 47 59  1  0  0  0  0
 48 61  1  0  0  0  0
 49 62  1  0  0  0  0
 50 62  1  0  0  0  0
 51 62  1  0  0  0  0
 52 73  1  0  0  0  0
 53 74  1  0  0  0  0
 54 55  1  0  0  0  0
 54 71  1  0  0  0  0
 55 72  1  0  0  0  0
 56 60  1  0  0  0  0
 56 72  1  0  0  0  0
 57 62  1  0  0  0  0
 57 70  1  0  0  0  0
 58 73  1  0  0  0  0
 59 72  1  0  0  0  0
 60 61  1  0  0  0  0
 60 74  1  0  0  0  0
 61 81  1  0  0  0  0
 63 64  1  0  0  0  0
M  CHG  2  73   1  74   1
M  ISO  4  32 100  61 101  71 100  81 101
M  END
> <Batch ID>
0113

> <Smiles>
CNC(C)C(=O)NC(C(=O)N1Cc2cc([101O:1][101CH:1](C)C(CN(CC[100NH:0][100C:0](=O)N3CCCC(n4nc(-c5ccc(Oc6ccc(F)cc6F)cc5)c(C(N)=O)c4N)C3)C(C)C)NC)ccc2CC1C(=O)NC1CCCc2ccccc21)C(C)(C)C

> <Shape>
0.230

> <Color>
0.107

> <Negative vol penalty>
0.000

$$$$

  -OEChem-04052320053D

 87 95  0     1  0  0  0  0  0999 V2000
  -31.1295  -25.8372   13.0671 C   0  0  0  0  0  0  0  0  0  0  0  0
  -30.7429  -24.9221   14.0410 C   0  0  0  0  0  0  0  0  0  0  0  0
  -23.8750   -9.6225   20.0550 C   0  0  0  0  0  0  0  0  0  0  0  0
  -24.2804  -10.0170   22.4038 C   0  0  0  0  0  0  0  0  0  0  0  0
  -31.2943  -27.1809   13.4009 C   0  0  0  0  0  0  0  0  0  0  0  0
  -30.5219  -25.3500   15.3496 C   0  0  0  0  0  0  0  0  0  0  0  0
  -26.3509  -23.1842   19.2762 C   0  0  0  0  0  0  0  0  0  0  0  0
  -23.4251   -8.3353   20.3488 C   0  0  0  0  0  0  0  0  0  0  0  0
  -23.8304   -8.7298   22.6977 C   0  0  0  0  0  0  0  0  0  0  0  0
  -26.4351  -22.2666   20.3225 C   0  0  0  0  0  0  0  0  0  0  0  0
  -20.8643   -7.1423   23.0178 C   0  0  0  0  0  0  0  0  0  0  0  0
  -19.9876   -6.9934   24.0923 C   0  0  0  0  0  0  0  0  0  0  0  0
  -26.6985  -24.0838   21.8870 C   0  0  0  0  0  0  0  0  0  0  0  0
  -21.5700   -5.5274   25.1804 C   0  0  0  0  0  0  0  0  0  0  0  0
  -24.3027  -10.4634   21.0825 C   0  0  0  0  0  0  0  0  0  0  0  0
  -23.9975  -12.9693   20.7152 C   0  0  0  0  0  0  0  0  0  0  0  0
  -31.0658  -27.6271   14.7121 C   0  0  0  0  0  0  0  0  0  0  0  0
  -26.4510  -24.5603   19.5266 C   0  0  0  0  0  0  0  0  0  0  0  0
  -30.6851  -26.7006   15.7016 C   0  0  0  0  0  0  0  0  0  0  0  0
  -26.6126  -25.0169   20.8425 C   0  0  0  0  0  0  0  0  0  0  0  0
  -23.4028   -7.8890   21.6701 C   0  0  0  0  0  0  0  0  0  0  0  0
  -26.6118  -22.7162   21.6278 C   0  0  0  0  0  0  0  0  0  0  0  0
  -22.0939   -6.4837   23.0244 C   0  0  0  0  0  0  0  0  0  0  0  0
  -20.3404   -6.1860   25.1737 C   0  0  0  0  0  0  0  0  0  0  0  0
  -22.4468   -5.6763   24.1058 C   0  0  0  0  0  0  0  0  0  0  0  0
  -24.7681  -11.7929   20.7796 C   0  0  0  0  0  0  0  0  0  0  0  0
  -24.9000  -13.9539   20.3949 C   0  0  0  0  0  0  0  0  0  0  0  0
  -22.5916  -13.1553   20.9261 C   0  0  0  0  0  0  0  0  0  0  0  0
  -28.4630  -26.8595   18.6495 C   0  0  0  0  0  0  0  0  0  0  0  0
  -26.3277  -28.7710   20.1689 C   0  0  0  0  0  0  0  0  0  0  0  0
  -31.9029  -16.9830   24.9513 C   0  0  0  0  0  0  0  0  0  0  0  0
  -23.8670  -29.0747   22.5140 C   0  0  0  0  0  0  0  0  0  0  0  0
  -30.8111  -14.4819   21.1891 C   0  0  0  0  0  0  0  0  0  0  0  0
  -31.3026  -29.0810   15.0357 C   0  0  0  0  0  0  0  0  0  0  0  0
  -26.3314  -25.5385   18.3902 C   0  0  0  0  0  0  0  0  0  0  0  0
  -26.7054  -26.4848   21.1668 C   0  0  0  0  0  0  0  0  0  0  0  0
  -30.6852  -29.5183   16.3616 C   0  0  0  0  0  0  0  0  0  0  0  0
  -29.0438  -14.6331   18.1019 C   0  0  0  0  0  0  0  0  0  0  0  0
  -28.7585  -16.7368   26.5620 C   0  0  0  0  0  0  0  0  0  0  0  0
  -31.0027  -28.5063   17.4579 C   0  0  0  0  0  0  0  0  0  0  0  0
  -27.6781  -14.0285   18.4323 C   0  0  0  0  0  0  0  0  0  0  0  0
  -28.1181  -17.8193   25.7173 C   0  0  0  0  0  0  0  0  0  0  0  0
  -30.1693  -13.9330   18.8603 C   0  0  0  0  0  0  0  0  0  0  0  0
  -28.6167  -13.2601   20.6520 C   0  0  0  0  0  0  0  0  0  0  0  0
  -29.2349  -15.7235   25.5388 C   0  0  0  0  0  0  0  0  0  0  0  0
  -30.4119  -27.1305   17.1266 C   0  0  1  0  0  0  0  0  0  0  0  0
  -26.9616  -26.8930   18.6990 C   0  0  1  0  0  0  0  0  0  0  0  0
  -27.4441  -13.9698   19.9538 C   0  0  2  0  0  0  0  0  0  0  0  0
  -29.1045  -17.9720   24.5686 C   0  0  2  0  0  0  0  0  0  0  0  0
  -22.3379  -30.7693   23.5569 C   0  0  0  0  0  0  0  0  0  0  0  0
  -32.7910  -19.8731   26.1694 C   0  0  0  0  0  0  0  0  0  0  0  0
  -34.6315  -19.4100   24.5129 C   0  0  0  0  0  0  0  0  0  0  0  0
  -28.6606  -29.8679   21.8013 C   0  0  0  0  0  0  0  0  0  0  0  0
  -26.9964  -30.8074   23.4187 C   0  0  0  0  0  0  0  0  0  0  0  0
  -27.0111  -31.5913   21.0506 C   0  0  0  0  0  0  0  0  0  0  0  0
  -21.4518  -27.6328   21.5939 C   0  0  0  0  0  0  0  0  0  0  0  0
  -28.4923  -18.5742   23.3173 C   0  0  0  0  0  0  0  0  0  0  0  0
  -27.8960  -19.9516   23.5932 C   0  0  0  0  0  0  0  0  0  0  0  0
  -31.3086  -14.9746   23.5700 C   0  0  0  0  0  0  0  0  0  0  0  0
  -27.2424  -20.5397   22.3497 C   0  0  0  0  0  0  0  0  0  1  0  0
  -26.1580  -29.2717   21.5830 C   0  0  1  0  0  0  0  0  0  0  0  0
  -30.9893  -16.4365   23.8678 C   0  0  1  0  0  0  0  0  0  0  0  0
  -22.4984  -29.7292   22.4591 C   0  0  2  0  0  0  0  0  0  0  0  0
  -33.5364  -18.8066   25.3802 C   0  0  0  0  0  0  0  0  0  0  0  0
  -27.2068  -30.3567   21.9574 C   0  0  0  0  0  0  0  0  0  0  0  0
  -26.0606  -12.0084   20.5208 N   0  0  0  0  0  0  0  0  0  0  0  0
  -26.1091  -13.3316   20.2906 N   0  0  0  0  0  0  0  0  0  0  0  0
  -26.5893  -27.4016   20.0207 N   0  0  0  0  0  0  0  0  0  0  0  0
  -29.8868  -13.9128   20.2975 N   0  0  0  0  0  0  0  0  0  0  0  0
  -24.7692  -15.2825   20.1950 N   0  0  0  0  0  0  0  0  0  0  0  0
  -21.8105  -12.0370   21.2480 N   0  0  0  0  0  0  0  0  0  0  0  0
  -28.9904  -27.1124   17.3975 N   0  0  0  0  0  0  0  0  0  0  0  0
  -24.7728  -29.7155   21.6954 N   0  0  0  0  0  0  0  0  0  0  0  0
  -32.6008  -18.1057   24.5318 N   0  0  0  0  0  0  0  0  0  0  0  0
  -30.4632  -14.4261   22.5331 N   0  0  0  0  0  0  0  0  0  0  0  0
  -29.5588  -16.5431   24.3003 N   0  3  1  0  0  0  0  0  0  0  0  0
  -21.4277  -28.7053   22.6215 N   0  3  0  0  0  0  0  0  0  0  0  0
  -22.0414  -14.2773   20.8158 O   0  0  0  0  0  0  0  0  0  0  0  0
  -29.0961  -26.6231   19.6717 O   0  0  0  0  0  0  0  0  0  0  0  0
  -26.2247  -29.5645   19.2301 O   0  0  0  0  0  0  0  0  0  0  0  0
  -31.9972  -16.4684   26.0633 O   0  0  0  0  0  0  0  0  0  0  0  0
  -24.1093  -28.0953   23.2160 O   0  0  0  0  0  0  0  0  0  0  0  0
  -31.8656  -15.0060   20.8145 O   0  0  0  0  0  0  0  0  0  0  0  0
  -22.9636   -6.6331   21.9572 O   0  0  0  0  0  0  0  0  0  0  0  0
  -26.6950  -21.8227   22.6508 O   0  0  0  0  0  0  0  0  0  1  0  0
  -19.4990   -6.0444   26.2062 F   0  0  0  0  0  0  0  0  0  0  0  0
  -23.6271   -5.0419   24.1184 F   0  0  0  0  0  0  0  0  0  0  0  0
  1  2  1  0  0  0  0
  1  5  2  0  0  0  0
  2  6  2  0  0  0  0
  3  8  2  0  0  0  0
  3 15  1  0  0  0  0
  4  9  1  0  0  0  0
  4 15  2  0  0  0  0
  5 17  1  0  0  0  0
  6 19  1  0  0  0  0
  7 10  2  0  0  0  0
  7 18  1  0  0  0  0
  8 21  1  0  0  0  0
  9 21  2  0  0  0  0
 10 22  1  0  0  0  0
 11 12  2  0  0  0  0
 11 23  1  0  0  0  0
 12 24  1  0  0  0  0
 13 20  1  0  0  0  0
 13 22  2  0  0  0  0
 14 24  2  0  0  0  0
 14 25  1  0  0  0  0
 15 26  1  0  0  0  0
 16 26  1  0  0  0  0
 16 27  2  0  0  0  0
 16 28  1  0  0  0  0
 17 19  2  0  0  0  0
 17 34  1  0  0  0  0
 18 20  2  0  0  0  0
 18 35  1  0  0  0  0
 19 46  1  0  0  0  0
 20 36  1  0  0  0  0
 21 84  1  0  0  0  0
 22 85  1  0  0  0  0
 23 25  2  0  0  0  0
 23 84  1  0  0  0  0
 24 86  1  0  0  0  0
 25 87  1  0  0  0  0
 26 66  2  0  0  0  0
 27 67  1  0  0  0  0
 27 70  1  0  0  0  0
 28 71  1  0  0  0  0
 28 78  2  0  0  0  0
 29 47  1  0  0  0  0
 29 72  1  0  0  0  0
 29 79  2  0  0  0  0
 30 61  1  0  0  0  0
 30 68  1  0  0  0  0
 30 80  2  0  0  0  0
 31 62  1  0  0  0  0
 31 74  1  0  0  0  0
 31 81  2  0  0  0  0
 32 63  1  0  0  0  0
 32 73  1  0  0  0  0
 32 82  2  0  0  0  0
 33 69  1  0  0  0  0
 33 75  1  0  0  0  0
 33 83  2  0  0  0  0
 34 37  1  0  0  0  0
 35 47  1  0  0  0  0
 36 68  1  0  0  0  0
 37 40  1  0  0  0  0
 38 41  1  0  0  0  0
 38 43  1  0  0  0  0
 39 42  1  0  0  0  0
 39 45  1  0  0  0  0
 40 46  1  0  0  0  0
 41 48  1  0  0  0  0
 42 49  1  0  0  0  0
 43 69  1  0  0  0  0
 44 48  1  0  0  0  0
 44 69  1  0  0  0  0
 45 76  1  0  0  0  0
 46 72  1  0  0  0  0
 47 68  1  0  0  0  0
 48 67  1  0  0  0  0
 49 57  1  0  0  0  0
 49 76  1  0  0  0  0
 50 63  1  0  0  0  0
 51 64  1  0  0  0  0
 52 64  1  0  0  0  0
 53 65  1  0  0  0  0
 54 65  1  0  0  0  0
 55 65  1  0  0  0  0
 56 77  1  0  0  0  0
 57 58  1  0  0  0  0
 58 60  1  0  0  0  0
 59 62  1  0  0  0  0
 59 75  1  0  0  0  0
 60 85  1  0  0  0  0
 61 65  1  0  0  0  0
 61 73  1  0  0  0  0
 62 76  1  0  0  0  0
 63 77  1  0  0  0  0
 64 74  1  0  0  0  0
 66 67  1  0  0  0  0
M  CHG  2  76   1  77   1
M  ISO  4  33 100  60 101  75 100  85 101
M  END
> <Batch ID>
0113

> <Smiles>
CNC(C)C(=O)NC(C(=O)N1Cc2cc([101O:1][101CH2:1]CCC3CCCN3C(C[100NH:0][100C:0](=O)N3CCCC(n4nc(-c5ccc(Oc6ccc(F)cc6F)cc5)c(C(N)=O)c4N)C3)C(=O)NC(C)C)ccc2CC1C(=O)NC1CCCc2ccccc21)C(C)(C)C

> <Shape>
0.248

> <Color>
0.142

> <Negative vol penalty>
0.000

$$$$

  -OEChem-04052320053D

 80 87  0     1  0  0  0  0  0999 V2000
  -23.0604  -23.4976   17.3491 C   0  0  0  0  0  0  0  0  0  0  0  0
  -24.1766  -22.8795   17.9035 C   0  0  0  0  0  0  0  0  0  0  0  0
  -24.3238  -30.5606   20.7420 C   0  0  0  0  0  0  0  0  0  0  0  0
  -24.3851  -29.3871   22.8529 C   0  0  0  0  0  0  0  0  0  0  0  0
  -21.7809  -23.0777   17.7105 C   0  0  0  0  0  0  0  0  0  0  0  0
  -24.0140  -21.8416   18.8205 C   0  0  0  0  0  0  0  0  0  0  0  0
  -27.1049  -17.9366   17.9032 C   0  0  0  0  0  0  0  0  0  0  0  0
  -22.9296  -30.5241   20.7621 C   0  0  0  0  0  0  0  0  0  0  0  0
  -22.9908  -29.3506   22.8731 C   0  0  0  0  0  0  0  0  0  0  0  0
  -28.4345  -18.0699   18.3008 C   0  0  0  0  0  0  0  0  0  0  0  0
  -20.5248  -27.5442   21.4287 C   0  0  0  0  0  0  0  0  0  0  0  0
  -19.9130  -26.3394   21.7749 C   0  0  0  0  0  0  0  0  0  0  0  0
  -27.9697  -16.7609   20.2731 C   0  0  0  0  0  0  0  0  0  0  0  0
  -18.8417  -27.4223   23.6502 C   0  0  0  0  0  0  0  0  0  0  0  0
  -25.0516  -29.9921   21.7873 C   0  0  0  0  0  0  0  0  0  0  0  0
  -27.3242  -31.0313   22.3000 C   0  0  0  0  0  0  0  0  0  0  0  0
  -21.6026  -22.0277   18.6250 C   0  0  0  0  0  0  0  0  0  0  0  0
  -26.1936  -17.2224   18.6943 C   0  0  0  0  0  0  0  0  0  0  0  0
  -22.7309  -21.4081   19.1955 C   0  0  0  0  0  0  0  0  0  0  0  0
  -26.6296  -16.6178   19.8820 C   0  0  0  0  0  0  0  0  0  0  0  0
  -22.2631  -29.9191   21.8277 C   0  0  0  0  0  0  0  0  0  0  0  0
  -28.8664  -17.4845   19.4874 C   0  0  0  0  0  0  0  0  0  0  0  0
  -20.2951  -28.6880   22.1933 C   0  0  0  0  0  0  0  0  0  0  0  0
  -19.0714  -26.2785   22.8856 C   0  0  0  0  0  0  0  0  0  0  0  0
  -19.4535  -28.6271   23.3040 C   0  0  0  0  0  0  0  0  0  0  0  0
  -26.4918  -30.0290   21.7668 C   0  0  0  0  0  0  0  0  0  0  0  0
  -28.5992  -30.6011   22.0248 C   0  0  0  0  0  0  0  0  0  0  0  0
  -26.9760  -32.2428   22.9831 C   0  0  0  0  0  0  0  0  0  0  0  0
  -23.5103  -17.9493   20.2355 C   0  0  0  0  0  0  0  0  0  0  0  0
  -30.7573  -25.1405   21.1300 C   0  0  0  0  0  0  0  0  0  0  0  0
  -23.4118  -14.7516   20.7715 C   0  0  0  0  0  0  0  0  0  0  0  0
  -25.1112  -11.8030   21.0266 C   0  0  0  0  0  0  0  0  0  0  0  0
  -20.1998  -21.6402   19.0208 C   0  0  0  0  0  0  0  0  0  0  0  0
  -24.7690  -17.0652   18.2380 C   0  0  0  0  0  0  0  0  0  0  0  0
  -25.6957  -15.8236   20.7568 C   0  0  0  0  0  0  0  0  0  0  0  0
  -20.1157  -20.2833   19.7152 C   0  0  0  0  0  0  0  0  0  0  0  0
  -31.0829  -27.9875   18.8904 C   0  0  0  0  0  0  0  0  0  0  0  0
  -21.1935  -20.1649   20.7881 C   0  0  0  0  0  0  0  0  0  0  0  0
  -29.9884  -28.9159   19.4150 C   0  0  0  0  0  0  0  0  0  0  0  0
  -30.6737  -26.5208   18.9970 C   0  0  0  0  0  0  0  0  0  0  0  0
  -29.1793  -27.0325   20.9021 C   0  0  0  0  0  0  0  0  0  0  0  0
  -22.5955  -20.2624   20.1747 C   0  0  1  0  0  0  0  0  0  0  0  0
  -23.8072  -16.7505   19.3796 C   0  0  1  0  0  0  0  0  0  0  0  0
  -29.5653  -28.5199   20.8404 C   0  0  2  0  0  0  0  0  0  0  0  0
  -33.1753  -24.9492   20.7512 C   0  0  0  0  0  0  0  0  0  0  0  0
  -24.7649   -9.3654   21.5115 C   0  0  0  0  0  0  0  0  0  0  0  0
  -31.9593  -18.4289   23.1144 C   0  0  0  0  0  0  0  0  0  0  0  0
  -23.1348  -15.3847   23.7434 C   0  0  0  0  0  0  0  0  0  0  0  0
  -23.7451  -13.0069   24.2356 C   0  0  0  0  0  0  0  0  0  0  0  0
  -21.6794  -13.5189   22.9342 C   0  0  0  0  0  0  0  0  0  0  0  0
  -26.1077  -11.0109   18.3548 C   0  0  0  0  0  0  0  0  0  0  0  0
  -31.6286  -19.8473   21.0210 C   0  0  0  0  0  0  0  0  0  0  0  0
  -30.5095  -20.7408   21.5756 C   0  0  0  0  0  0  0  0  0  0  0  0
  -31.7947  -22.8621   21.0584 C   0  0  0  0  0  0  0  0  0  0  0  0
  -30.4220  -17.6111   21.2818 C   0  0  0  0  0  0  0  0  0  1  0  0
  -31.8244  -24.2889   20.4898 C   0  0  1  0  0  0  0  0  0  0  0  0
  -23.9396  -13.8308   21.8451 C   0  0  1  0  0  0  0  0  0  0  0  0
  -24.8452  -10.4323   20.4308 C   0  0  2  0  0  0  0  0  0  0  0  0
  -31.6824  -18.4222   21.6081 C   0  0  2  0  0  0  0  0  0  0  0  0
  -30.4483  -22.1288   20.9137 C   0  0  1  0  0  0  0  0  0  0  0  0
  -23.1421  -13.9518   23.1743 C   0  0  0  0  0  0  0  0  0  0  0  0
  -27.1801  -29.0369   21.1958 N   0  0  0  0  0  0  0  0  0  0  0  0
  -28.4585  -29.4137   21.3686 N   0  0  0  0  0  0  0  0  0  0  0  0
  -24.3111  -15.7037   20.2710 N   0  0  0  0  0  0  0  0  0  0  0  0
  -30.2514  -26.1907   20.3634 N   0  0  0  0  0  0  0  0  0  0  0  0
  -29.8158  -31.1265   22.2823 N   0  0  0  0  0  0  0  0  0  0  0  0
  -25.6190  -32.5313   23.1821 N   0  0  0  0  0  0  0  0  0  0  0  0
  -22.9595  -19.0115   19.5443 N   0  0  0  0  0  0  0  0  0  0  0  0
  -23.9408  -12.4904   21.2689 N   0  0  0  0  0  0  0  0  0  0  0  0
  -30.1245  -21.9724   19.4669 N   0  3  0  0  0  0  0  0  0  0  0  0
  -25.9328  -10.0598   19.4825 N   0  3  0  0  0  0  0  0  0  0  0  0
  -27.8422  -33.0538   23.3901 O   0  0  0  0  0  0  0  0  0  0  0  0
  -23.7609  -17.9126   21.4345 O   0  0  0  0  0  0  0  0  0  0  0  0
  -30.3877  -24.8804   22.2780 O   0  0  0  0  0  0  0  0  0  0  0  0
  -22.2469  -14.6258   20.3860 O   0  0  0  0  0  0  0  0  0  0  0  0
  -26.2438  -12.2206   21.2575 O   0  0  0  0  0  0  0  0  0  0  0  0
  -20.9026  -29.8835   21.8478 O   0  0  0  0  0  0  0  0  0  0  0  0
  -30.1721  -17.6145   19.8807 O   0  0  0  0  0  0  0  0  0  1  0  0
  -18.4828  -25.1218   23.2170 F   0  0  0  0  0  0  0  0  0  0  0  0
  -19.2281  -29.7229   24.0416 F   0  0  0  0  0  0  0  0  0  0  0  0
  1  2  1  0  0  0  0
  1  5  2  0  0  0  0
  2  6  2  0  0  0  0
  3  8  2  0  0  0  0
  3 15  1  0  0  0  0
  4  9  1  0  0  0  0
  4 15  2  0  0  0  0
  5 17  1  0  0  0  0
  6 19  1  0  0  0  0
  7 10  2  0  0  0  0
  7 18  1  0  0  0  0
  8 21  1  0  0  0  0
  9 21  2  0  0  0  0
 10 22  1  0  0  0  0
 11 12  2  0  0  0  0
 11 23  1  0  0  0  0
 12 24  1  0  0  0  0
 13 20  1  0  0  0  0
 13 22  2  0  0  0  0
 14 24  2  0  0  0  0
 14 25  1  0  0  0  0
 15 26  1  0  0  0  0
 16 26  1  0  0  0  0
 16 27  2  0  0  0  0
 16 28  1  0  0  0  0
 17 19  2  0  0  0  0
 17 33  1  0  0  0  0
 18 20  2  0  0  0  0
 18 34  1  0  0  0  0
 19 42  1  0  0  0  0
 20 35  1  0  0  0  0
 21 77  1  0  0  0  0
 22 78  1  0  0  0  0
 23 25  2  0  0  0  0
 23 77  1  0  0  0  0
 24 79  1  0  0  0  0
 25 80  1  0  0  0  0
 26 62  2  0  0  0  0
 27 63  1  0  0  0  0
 27 66  1  0  0  0  0
 28 67  1  0  0  0  0
 28 72  2  0  0  0  0
 29 43  1  0  0  0  0
 29 68  1  0  0  0  0
 29 73  2  0  0  0  0
 30 56  1  0  0  0  0
 30 65  1  0  0  0  0
 30 74  2  0  0  0  0
 31 57  1  0  0  0  0
 31 64  1  0  0  0  0
 31 75  2  0  0  0  0
 32 58  1  0  0  0  0
 32 69  1  0  0  0  0
 32 76  2  0  0  0  0
 33 36  1  0  0  0  0
 34 43  1  0  0  0  0
 35 64  1  0  0  0  0
 36 38  1  0  0  0  0
 37 39  1  0  0  0  0
 37 40  1  0  0  0  0
 38 42  1  0  0  0  0
 39 44  1  0  0  0  0
 40 65  1  0  0  0  0
 41 44  1  0  0  0  0
 41 65  1  0  0  0  0
 42 68  1  0  0  0  0
 43 64  1  0  0  0  0
 44 63  1  0  0  0  0
 45 56  1  0  0  0  0
 46 58  1  0  0  0  0
 47 59  1  0  0  0  0
 48 61  1  0  0  0  0
 49 61  1  0  0  0  0
 50 61  1  0  0  0  0
 51 71  1  0  0  0  0
 52 53  1  0  0  0  0
 52 59  1  0  0  0  0
 53 60  1  0  0  0  0
 54 56  1  0  0  0  0
 54 60  1  0  0  0  0
 55 59  1  0  0  0  0
 55 78  1  0  0  0  0
 57 61  1  0  0  0  0
 57 69  1  0  0  0  0
 58 71  1  0  0  0  0
 60 70  1  0  0  0  0
 62 63  1  0  0  0  0
M  CHG  2  70   1  71   1
M  ISO  4  30 100  55 101  56 100  78 101
M  END
> <Batch ID>
0113

> <Smiles>
CNC(C)C(=O)NC(C(=O)N1Cc2cc([101O:1][101CH2:1]C(C)CCC(N)C[100CH:0](C)[100C:0](=O)N3CCCC(n4nc(-c5ccc(Oc6ccc(F)cc6F)cc5)c(C(N)=O)c4N)C3)ccc2CC1C(=O)NC1CCCc2ccccc21)C(C)(C)C

> <Shape>
0.253

> <Color>
0.065

> <Negative vol penalty>
0.000

$$$$

  -OEChem-04052320053D

 87 95  0     1  0  0  0  0  0999 V2000
  -19.0816  -30.7345   24.7763 C   0  0  0  0  0  0  0  0  0  0  0  0
  -20.4390  -30.4302   24.7952 C   0  0  0  0  0  0  0  0  0  0  0  0
  -26.5447  -12.5599   21.3479 C   0  0  0  0  0  0  0  0  0  0  0  0
  -25.4735  -13.9649   19.7001 C   0  0  0  0  0  0  0  0  0  0  0  0
  -18.2048  -29.9582   24.0197 C   0  0  0  0  0  0  0  0  0  0  0  0
  -20.9202  -29.3485   24.0583 C   0  0  0  0  0  0  0  0  0  0  0  0
  -25.1512  -30.4632   21.5087 C   0  0  0  0  0  0  0  0  0  0  0  0
  -25.3303  -11.9178   21.5899 C   0  0  0  0  0  0  0  0  0  0  0  0
  -24.2591  -13.3228   19.9420 C   0  0  0  0  0  0  0  0  0  0  0  0
  -26.3424  -30.4906   22.2327 C   0  0  0  0  0  0  0  0  0  0  0  0
  -23.4408   -9.5278   20.1234 C   0  0  0  0  0  0  0  0  0  0  0  0
  -23.4494   -8.1356   20.2089 C   0  0  0  0  0  0  0  0  0  0  0  0
  -26.8778  -28.2819   21.4238 C   0  0  0  0  0  0  0  0  0  0  0  0
  -22.5984   -8.2690   22.4661 C   0  0  0  0  0  0  0  0  0  0  0  0
  -26.6163  -13.5835   20.4031 C   0  0  0  0  0  0  0  0  0  0  0  0
  -28.8499  -13.8868   19.2086 C   0  0  0  0  0  0  0  0  0  0  0  0
  -18.6769  -28.8724   23.2655 C   0  0  0  0  0  0  0  0  0  0  0  0
  -24.8087  -29.3386   20.7442 C   0  0  0  0  0  0  0  0  0  0  0  0
  -20.0486  -28.5561   23.2920 C   0  0  0  0  0  0  0  0  0  0  0  0
  -25.6829  -28.2437   20.6890 C   0  0  0  0  0  0  0  0  0  0  0  0
  -24.1875  -12.2992   20.8869 C   0  0  0  0  0  0  0  0  0  0  0  0
  -27.2045  -29.3987   22.1927 C   0  0  0  0  0  0  0  0  0  0  0  0
  -23.0110  -10.2906   21.2092 C   0  0  0  0  0  0  0  0  0  0  0  0
  -23.0281   -7.5062   21.3802 C   0  0  0  0  0  0  0  0  0  0  0  0
  -22.5898   -9.6613   22.3806 C   0  0  0  0  0  0  0  0  0  0  0  0
  -27.8703  -14.2476   20.1532 C   0  0  0  0  0  0  0  0  0  0  0  0
  -29.8398  -14.8260   19.3647 C   0  0  0  0  0  0  0  0  0  0  0  0
  -28.8636  -12.8000   18.2736 C   0  0  0  0  0  0  0  0  0  0  0  0
  -22.4277  -27.2333   20.7935 C   0  0  0  0  0  0  0  0  0  0  0  0
  -23.8233  -26.1774   18.0622 C   0  0  0  0  0  0  0  0  0  0  0  0
  -26.6417  -25.9425   16.1522 C   0  0  0  0  0  0  0  0  0  0  0  0
  -29.9079  -20.3165   21.1824 C   0  0  0  0  0  0  0  0  0  0  0  0
  -17.6840  -28.0335   22.5006 C   0  0  0  0  0  0  0  0  0  0  0  0
  -23.5328  -29.3355   19.9476 C   0  0  0  0  0  0  0  0  0  0  0  0
  -25.3711  -27.0206   19.8673 C   0  0  0  0  0  0  0  0  0  0  0  0
  -18.3290  -27.1325   21.4506 C   0  0  0  0  0  0  0  0  0  0  0  0
  -31.7827  -17.7214   22.6323 C   0  0  0  0  0  0  0  0  0  0  0  0
  -19.5371  -26.4092   22.0372 C   0  0  0  0  0  0  0  0  0  0  0  0
  -31.0821  -16.4871   22.0655 C   0  0  0  0  0  0  0  0  0  0  0  0
  -29.1227  -22.7858   23.5619 C   0  0  0  0  0  0  0  0  0  0  0  0
  -30.7879  -18.8149   23.0255 C   0  0  0  0  0  0  0  0  0  0  0  0
  -30.1449  -21.6755   23.3065 C   0  0  0  0  0  0  0  0  0  0  0  0
  -30.6950  -22.6635   21.1043 C   0  0  0  0  0  0  0  0  0  0  0  0
  -29.1566  -17.9637   21.3720 C   0  0  0  0  0  0  0  0  0  0  0  0
  -20.6124  -27.4059   22.4863 C   0  0  1  0  0  0  0  0  0  0  0  0
  -23.0411  -27.9308   19.6124 C   0  0  1  0  0  0  0  0  0  0  0  0
  -29.4470  -24.0888   22.8091 C   0  0  2  0  0  0  0  0  0  0  0  0
  -29.6633  -23.7815   21.3065 C   0  0  1  0  0  0  0  0  0  0  0  0
  -30.1341  -16.8696   20.9150 C   0  0  2  0  0  0  0  0  0  0  0  0
  -27.4812  -24.9877   13.9886 C   0  0  0  0  0  0  0  0  0  0  0  0
  -29.7248  -24.8427   19.0246 C   0  0  0  0  0  0  0  0  0  0  0  0
  -31.6540  -25.7444   25.5558 C   0  0  0  0  0  0  0  0  0  0  0  0
  -29.4651  -30.3465   24.8427 C   0  0  0  0  0  0  0  0  0  0  0  0
  -23.8798  -23.3956   19.3146 C   0  0  0  0  0  0  0  0  0  0  0  0
  -25.5379  -22.7179   17.5654 C   0  0  0  0  0  0  0  0  0  0  0  0
  -23.2453  -23.4380   16.8959 C   0  0  0  0  0  0  0  0  0  0  0  0
  -27.3459  -28.6211   15.1092 C   0  0  0  0  0  0  0  0  0  0  0  0
  -30.6204  -24.8200   23.4725 C   0  0  0  0  0  0  0  0  0  0  0  0
  -29.1459  -25.9673   25.2633 C   0  0  0  0  0  0  0  0  0  0  0  0
  -28.0748  -28.2018   24.9495 C   0  0  0  0  0  0  0  0  0  0  0  0
  -24.8927  -25.1648   17.7304 C   0  0  1  0  0  0  0  0  0  0  0  0
  -26.8833  -26.2050   14.6767 C   0  0  2  0  0  0  0  0  0  0  0  0
  -30.0454  -25.0172   20.4915 C   0  0  2  0  0  0  0  0  0  0  0  0
  -30.3875  -25.1165   24.9622 C   0  0  2  0  0  0  0  0  0  0  0  0
  -28.2612  -29.5766   24.3158 C   0  0  2  0  0  0  0  0  0  1  0  0
  -24.3942  -23.7012   17.8937 C   0  0  0  0  0  0  0  0  0  0  0  0
  -28.2075  -15.3313   20.8573 N   0  0  0  0  0  0  0  0  0  0  0  0
  -29.4100  -15.6596   20.3550 N   0  0  0  0  0  0  0  0  0  0  0  0
  -24.1087  -27.0629   19.1111 N   0  0  0  0  0  0  0  0  0  0  0  0
  -29.8796  -19.1177   21.9107 N   0  0  0  0  0  0  0  0  0  0  0  0
  -30.3341  -21.4662   21.8651 N   0  0  0  0  0  0  0  0  0  0  0  0
  -31.0273  -15.0119   18.7502 N   0  0  0  0  0  0  0  0  0  0  0  0
  -27.7660  -11.9289   18.2454 N   0  0  0  0  0  0  0  0  0  0  0  0
  -21.3508  -27.9012   21.3444 N   0  0  0  0  0  0  0  0  0  0  0  0
  -25.3605  -25.4904   16.3874 N   0  0  0  0  0  0  0  0  0  0  0  0
  -27.8195  -27.3512   14.5010 N   0  3  0  0  0  0  0  0  0  0  0  0
  -29.2690  -27.3417   24.7227 N   0  3  0  0  0  0  0  0  0  0  0  0
  -29.8282  -12.5973   17.4977 O   0  0  0  0  0  0  0  0  0  0  0  0
  -22.8959  -26.1672   21.1756 O   0  0  0  0  0  0  0  0  0  0  0  0
  -22.7763  -26.1869   17.4100 O   0  0  0  0  0  0  0  0  0  0  0  0
  -27.5045  -26.1172   17.0098 O   0  0  0  0  0  0  0  0  0  0  0  0
  -29.5722  -20.3577   19.9921 O   0  0  0  0  0  0  0  0  0  0  0  0
  -23.0024  -11.6727   21.1225 O   0  0  0  0  0  0  0  0  0  0  0  0
  -28.3742  -29.4227   22.9030 O   0  0  0  0  0  0  0  0  0  1  0  0
  -23.0350   -6.1692   21.4617 F   0  0  0  0  0  0  0  0  0  0  0  0
  -22.1748  -10.3888   23.4267 F   0  0  0  0  0  0  0  0  0  0  0  0
  -31.3838  -25.2039   20.6261 F   0  0  0  0  0  0  0  0  0  0  0  0
  1  2  1  0  0  0  0
  1  5  2  0  0  0  0
  2  6  2  0  0  0  0
  3  8  2  0  0  0  0
  3 15  1  0  0  0  0
  4  9  1  0  0  0  0
  4 15  2  0  0  0  0
  5 17  1  0  0  0  0
  6 19  1  0  0  0  0
  7 10  2  0  0  0  0
  7 18  1  0  0  0  0
  8 21  1  0  0  0  0
  9 21  2  0  0  0  0
 10 22  1  0  0  0  0
 11 12  2  0  0  0  0
 11 23  1  0  0  0  0
 12 24  1  0  0  0  0
 13 20  1  0  0  0  0
 13 22  2  0  0  0  0
 14 24  2  0  0  0  0
 14 25  1  0  0  0  0
 15 26  1  0  0  0  0
 16 26  1  0  0  0  0
 16 27  2  0  0  0  0
 16 28  1  0  0  0  0
 17 19  2  0  0  0  0
 17 33  1  0  0  0  0
 18 20  2  0  0  0  0
 18 34  1  0  0  0  0
 19 45  1  0  0  0  0
 20 35  1  0  0  0  0
 21 83  1  0  0  0  0
 22 84  1  0  0  0  0
 23 25  2  0  0  0  0
 23 83  1  0  0  0  0
 24 85  1  0  0  0  0
 25 86  1  0  0  0  0
 26 67  2  0  0  0  0
 27 68  1  0  0  0  0
 27 72  1  0  0  0  0
 28 73  1  0  0  0  0
 28 78  2  0  0  0  0
 29 46  1  0  0  0  0
 29 74  1  0  0  0  0
 29 79  2  0  0  0  0
 30 61  1  0  0  0  0
 30 69  1  0  0  0  0
 30 80  2  0  0  0  0
 31 62  1  0  0  0  0
 31 75  1  0  0  0  0
 31 81  2  0  0  0  0
 32 70  1  0  0  0  0
 32 71  1  0  0  0  0
 32 82  2  0  0  0  0
 33 36  1  0  0  0  0
 34 46  1  0  0  0  0
 35 69  1  0  0  0  0
 36 38  1  0  0  0  0
 37 39  1  0  0  0  0
 37 41  1  0  0  0  0
 38 45  1  0  0  0  0
 39 49  1  0  0  0  0
 40 42  1  0  0  0  0
 40 47  1  0  0  0  0
 41 70  1  0  0  0  0
 42 71  1  0  0  0  0
 43 48  1  0  0  0  0
 43 71  1  0  0  0  0
 44 49  1  0  0  0  0
 44 70  1  0  0  0  0
 45 74  1  0  0  0  0
 46 69  1  0  0  0  0
 47 48  1  0  0  0  0
 47 58  1  0  0  0  0
 48 63  1  0  0  0  0
 49 68  1  0  0  0  0
 50 62  1  0  0  0  0
 51 63  1  0  0  0  0
 52 64  1  0  0  0  0
 53 65  1  0  0  0  0
 54 66  1  0  0  0  0
 55 66  1  0  0  0  0
 56 66  1  0  0  0  0
 57 76  1  0  0  0  0
 58 64  1  0  0  0  0
 59 64  1  0  0  0  0
 59 77  1  0  0  0  0
 60 65  1  0  0  0  0
 60 77  1  0  0  0  0
 61 66  1  0  0  0  0
 61 75  1  0  0  0  0
 62 76  1  0  0  0  0
 63 87  1  0  0  0  0
 65 84  1  0  0  0  0
 67 68  1  0  0  0  0
M  CHG  2  76   1  77   1
M  ISO  4  32 100  65 101  71 100  84 101
M  END
> <Batch ID>
0113

> <Smiles>
CNC(C)C(=O)NC(C(=O)N1Cc2cc([101O:1][101CH:1](C)CNCC(C)CC3CC[100N:0]([100C:0](=O)N4CCCC(n5nc(-c6ccc(Oc7ccc(F)cc7F)cc6)c(C(N)=O)c5N)C4)CC3C(C)F)ccc2CC1C(=O)NC1CCCc2ccccc21)C(C)(C)C

> <Shape>
0.294

> <Color>
0.078

> <Negative vol penalty>
0.000

$$$$

  -OEChem-04052320053D

 89 98  0     1  0  0  0  0  0999 V2000
  -33.4058  -25.9654   18.0932 C   0  0  0  0  0  0  0  0  0  0  0  0
  -32.2674  -25.4320   18.6890 C   0  0  0  0  0  0  0  0  0  0  0  0
  -24.4662   -9.5486   21.4715 C   0  0  0  0  0  0  0  0  0  0  0  0
  -24.8560  -10.6615   23.5802 C   0  0  0  0  0  0  0  0  0  0  0  0
  -33.9119  -27.1888   18.5304 C   0  0  0  0  0  0  0  0  0  0  0  0
  -31.6351  -26.1213   19.7232 C   0  0  0  0  0  0  0  0  0  0  0  0
  -26.6003  -26.2314   19.1908 C   0  0  0  0  0  0  0  0  0  0  0  0
  -24.1573   -8.3700   22.1506 C   0  0  0  0  0  0  0  0  0  0  0  0
  -24.5470   -9.4829   24.2593 C   0  0  0  0  0  0  0  0  0  0  0  0
  -25.8978  -25.0787   19.5393 C   0  0  0  0  0  0  0  0  0  0  0  0
  -21.5215   -7.0813   23.8313 C   0  0  0  0  0  0  0  0  0  0  0  0
  -20.3959   -6.3699   23.4159 C   0  0  0  0  0  0  0  0  0  0  0  0
  -25.3248  -26.0761   21.6596 C   0  0  0  0  0  0  0  0  0  0  0  0
  -26.3824  -19.6910   20.5075 C   0  0  0  0  0  0  0  0  0  0  0  0
  -21.7864   -4.4558   22.9264 C   0  0  0  0  0  0  0  0  0  0  0  0
  -27.7583  -20.8129   22.0902 C   0  0  0  0  0  0  0  0  0  0  0  0
  -24.8157  -10.6943   22.1863 C   0  0  0  0  0  0  0  0  0  0  0  0
  -24.2451  -12.9356   21.1098 C   0  0  0  0  0  0  0  0  0  0  0  0
  -33.2799  -27.8980   19.5639 C   0  0  0  0  0  0  0  0  0  0  0  0
  -26.6796  -27.3127   20.0801 C   0  0  0  0  0  0  0  0  0  0  0  0
  -32.1340  -27.3547   20.1755 C   0  0  0  0  0  0  0  0  0  0  0  0
  -26.0268  -27.2424   21.3190 C   0  0  0  0  0  0  0  0  0  0  0  0
  -27.6456  -19.9087   21.0464 C   0  0  0  0  0  0  0  0  0  0  0  0
  -25.2861  -20.3745   21.0217 C   0  0  0  0  0  0  0  0  0  0  0  0
  -24.1977   -8.3372   23.5445 C   0  0  0  0  0  0  0  0  0  0  0  0
  -25.2624  -24.9997   20.7750 C   0  0  0  0  0  0  0  0  0  0  0  0
  -22.7796   -6.4800   23.7941 C   0  0  0  0  0  0  0  0  0  0  0  0
  -20.5284   -5.0571   22.9635 C   0  0  0  0  0  0  0  0  0  0  0  0
  -22.9120   -5.1673   23.3416 C   0  0  0  0  0  0  0  0  0  0  0  0
  -25.1355  -11.9119   21.4853 C   0  0  0  0  0  0  0  0  0  0  0  0
  -25.5045  -21.2577   22.0668 C   0  0  0  0  0  0  0  0  0  0  0  0
  -25.0355  -13.8626   20.4755 C   0  0  0  0  0  0  0  0  0  0  0  0
  -22.8300  -13.0394   21.3161 C   0  0  0  0  0  0  0  0  0  0  0  0
  -29.0446  -28.8071   21.5893 C   0  0  0  0  0  0  0  0  0  0  0  0
  -26.6710  -30.8251   22.4928 C   0  0  0  0  0  0  0  0  0  0  0  0
  -23.3395  -31.3157   23.0467 C   0  0  0  0  0  0  0  0  0  0  0  0
  -29.7132  -16.8934   20.1956 C   0  0  0  0  0  0  0  0  0  0  0  0
  -33.8912  -29.1940   20.0344 C   0  0  0  0  0  0  0  0  0  0  0  0
  -27.4189  -28.5595   19.6783 C   0  0  0  0  0  0  0  0  0  0  0  0
  -26.0646  -28.3836   22.3013 C   0  0  0  0  0  0  0  0  0  0  0  0
  -32.9458  -30.0409   20.8824 C   0  0  0  0  0  0  0  0  0  0  0  0
  -29.8370  -13.5754   18.9102 C   0  0  0  0  0  0  0  0  0  0  0  0
  -32.2575  -29.1794   21.9364 C   0  0  0  0  0  0  0  0  0  0  0  0
  -28.5551  -12.9300   19.4396 C   0  0  0  0  0  0  0  0  0  0  0  0
  -20.7953  -20.2204   20.9922 C   0  0  0  0  0  0  0  0  0  0  0  0
  -21.1662  -17.7434   21.3495 C   0  0  0  0  0  0  0  0  0  0  0  0
  -30.4432  -14.5416   19.9254 C   0  0  0  0  0  0  0  0  0  0  0  0
  -28.2371  -14.9325   20.9521 C   0  0  0  0  0  0  0  0  0  0  0  0
  -19.3779  -19.9289   20.5204 C   0  0  0  0  0  0  0  0  0  0  0  0
  -19.7456  -17.4735   20.8748 C   0  0  0  0  0  0  0  0  0  0  0  0
  -31.4057  -28.0843   21.2834 C   0  0  1  0  0  0  0  0  0  0  0  0
  -27.8656  -29.3998   20.8707 C   0  0  1  0  0  0  0  0  0  0  0  0
  -27.5585  -13.9921   19.9415 C   0  0  2  0  0  0  0  0  0  0  0  0
  -21.7146  -19.0285   20.7315 C   0  0  0  0  0  0  0  0  0  0  0  0
  -24.1444  -21.6674   24.1437 C   0  0  0  0  0  0  0  0  0  0  0  0
  -21.7063  -33.0580   23.8177 C   0  0  0  0  0  0  0  0  0  0  0  0
  -27.5588  -30.3772   25.3775 C   0  0  0  0  0  0  0  0  0  0  0  0
  -25.3714  -31.3379   26.1264 C   0  0  0  0  0  0  0  0  0  0  0  0
  -26.9681  -32.7433   24.8232 C   0  0  0  0  0  0  0  0  0  0  0  0
  -21.8990  -31.2759   20.4617 C   0  0  0  0  0  0  0  0  0  0  0  0
  -28.8382  -19.1930   20.5197 C   0  0  0  0  0  0  0  0  0  0  0  0
  -23.9303  -20.1473   20.4478 C   0  0  0  0  0  0  0  0  0  0  0  0
  -24.5175  -23.5486   22.5057 C   0  0  0  0  0  0  0  0  0  1  0  0
  -24.3435  -22.0326   22.6701 C   0  0  1  0  0  0  0  0  0  0  0  0
  -25.7072  -30.8905   23.6529 C   0  0  1  0  0  0  0  0  0  0  0  0
  -22.4006  -32.4295   22.6195 C   0  0  2  0  0  0  0  0  0  0  0  0
  -26.4021  -31.3148   24.9775 C   0  0  0  0  0  0  0  0  0  0  0  0
  -26.7166  -21.4954   22.6162 N   0  0  0  0  0  0  0  0  0  0  0  0
  -26.3951  -12.1643   21.1198 N   0  0  0  0  0  0  0  0  0  0  0  0
  -26.3019  -13.3572   20.5079 N   0  0  0  0  0  0  0  0  0  0  0  0
  -26.8055  -29.5787   21.8649 N   0  0  0  0  0  0  0  0  0  0  0  0
  -29.4471  -15.5240   20.3597 N   0  0  0  0  0  0  0  0  0  0  0  0
  -24.7638  -15.0524   19.8985 N   0  0  0  0  0  0  0  0  0  0  0  0
  -22.1744  -11.9976   21.9863 N   0  0  0  0  0  0  0  0  0  0  0  0
  -30.1612  -28.6369   20.7932 N   0  0  0  0  0  0  0  0  0  0  0  0
  -24.6255  -31.7759   23.2354 N   0  0  0  0  0  0  0  0  0  0  0  0
  -28.7137  -17.7565   20.6277 N   0  0  0  0  0  0  0  0  0  0  0  0
  -18.8951  -18.6685   21.1624 N   0  3  0  0  0  0  0  0  0  0  0  0
  -23.0520  -19.3129   21.3147 N   0  3  0  0  0  0  0  0  0  0  0  0
  -21.3574  -31.9016   21.6954 N   0  3  0  0  0  0  0  0  0  0  0  0
  -22.1640  -14.0190   20.9035 O   0  0  0  0  0  0  0  0  0  0  0  0
  -28.9488  -28.5264   22.7783 O   0  0  0  0  0  0  0  0  0  0  0  0
  -27.2768  -31.8440   22.1517 O   0  0  0  0  0  0  0  0  0  0  0  0
  -22.9683  -30.1543   23.2014 O   0  0  0  0  0  0  0  0  0  0  0  0
  -30.7615  -17.3154   19.6956 O   0  0  0  0  0  0  0  0  0  0  0  0
  -23.8960   -7.1874   24.2075 O   0  0  0  0  0  0  0  0  0  0  0  0
  -24.5766  -23.8754   21.1179 O   0  0  0  0  0  0  0  0  0  1  0  0
  -19.4472   -4.3735   22.5662 F   0  0  0  0  0  0  0  0  0  0  0  0
  -24.1179   -4.5839   23.3048 F   0  0  0  0  0  0  0  0  0  0  0  0
  1  2  1  0  0  0  0
  1  5  2  0  0  0  0
  2  6  2  0  0  0  0
  3  8  2  0  0  0  0
  3 17  1  0  0  0  0
  4  9  1  0  0  0  0
  4 17  2  0  0  0  0
  5 19  1  0  0  0  0
  6 21  1  0  0  0  0
  7 10  2  0  0  0  0
  7 20  1  0  0  0  0
  8 25  1  0  0  0  0
  9 25  2  0  0  0  0
 10 26  1  0  0  0  0
 11 12  2  0  0  0  0
 11 27  1  0  0  0  0
 12 28  1  0  0  0  0
 13 22  1  0  0  0  0
 13 26  2  0  0  0  0
 14 23  2  0  0  0  0
 14 24  1  0  0  0  0
 15 28  2  0  0  0  0
 15 29  1  0  0  0  0
 16 23  1  0  0  0  0
 16 68  2  0  0  0  0
 17 30  1  0  0  0  0
 18 30  1  0  0  0  0
 18 32  2  0  0  0  0
 18 33  1  0  0  0  0
 19 21  2  0  0  0  0
 19 38  1  0  0  0  0
 20 22  2  0  0  0  0
 20 39  1  0  0  0  0
 21 51  1  0  0  0  0
 22 40  1  0  0  0  0
 23 61  1  0  0  0  0
 24 31  2  0  0  0  0
 24 62  1  0  0  0  0
 25 86  1  0  0  0  0
 26 87  1  0  0  0  0
 27 29  2  0  0  0  0
 27 86  1  0  0  0  0
 28 88  1  0  0  0  0
 29 89  1  0  0  0  0
 30 69  2  0  0  0  0
 31 64  1  0  0  0  0
 31 68  1  0  0  0  0
 32 70  1  0  0  0  0
 32 73  1  0  0  0  0
 33 74  1  0  0  0  0
 33 81  2  0  0  0  0
 34 52  1  0  0  0  0
 34 75  1  0  0  0  0
 34 82  2  0  0  0  0
 35 65  1  0  0  0  0
 35 71  1  0  0  0  0
 35 83  2  0  0  0  0
 36 66  1  0  0  0  0
 36 76  1  0  0  0  0
 36 84  2  0  0  0  0
 37 72  1  0  0  0  0
 37 77  1  0  0  0  0
 37 85  2  0  0  0  0
 38 41  1  0  0  0  0
 39 52  1  0  0  0  0
 40 71  1  0  0  0  0
 41 43  1  0  0  0  0
 42 44  1  0  0  0  0
 42 47  1  0  0  0  0
 43 51  1  0  0  0  0
 44 53  1  0  0  0  0
 45 49  1  0  0  0  0
 45 54  1  0  0  0  0
 46 50  1  0  0  0  0
 46 54  1  0  0  0  0
 47 72  1  0  0  0  0
 48 53  1  0  0  0  0
 48 72  1  0  0  0  0
 49 78  1  0  0  0  0
 50 78  1  0  0  0  0
 51 75  1  0  0  0  0
 52 71  1  0  0  0  0
 53 70  1  0  0  0  0
 54 79  1  0  0  0  0
 55 64  1  0  0  0  0
 56 66  1  0  0  0  0
 57 67  1  0  0  0  0
 58 67  1  0  0  0  0
 59 67  1  0  0  0  0
 60 80  1  0  0  0  0
 61 77  1  0  0  0  0
 62 79  1  0  0  0  0
 63 64  1  0  0  0  0
 63 87  1  0  0  0  0
 65 67  1  0  0  0  0
 65 76  1  0  0  0  0
 66 80  1  0  0  0  0
 69 70  1  0  0  0  0
M  CHG  3  78   1  79   1  80   1
M  ISO  4  37 100  63 101  77 100  87 101
M  END
> <Batch ID>
0113

> <Smiles>
CNC(C)C(=O)NC(C(=O)N1Cc2cc([101O:1][101CH2:1]C(C)c3ncc(C[100NH:0][100C:0](=O)N4CCCC(n5nc(-c6ccc(Oc7ccc(F)cc7F)cc6)c(C(N)=O)c5N)C4)cc3CNC3CCNCC3)ccc2CC1C(=O)NC1CCCc2ccccc21)C(C)(C)C

> <Shape>
0.272

> <Color>
0.117

> <Negative vol penalty>
0.000

$$$$

  -OEChem-04052320053D

 85 94  0     1  0  0  0  0  0999 V2000
  -35.9833   -9.7606   18.9588 C   0  0  0  0  0  0  0  0  0  0  0  0
  -35.3560  -10.9951   18.8244 C   0  0  0  0  0  0  0  0  0  0  0  0
  -22.3952  -31.2066   20.9136 C   0  0  0  0  0  0  0  0  0  0  0  0
  -22.3580  -29.7444   22.8365 C   0  0  0  0  0  0  0  0  0  0  0  0
  -35.3058   -8.5938   18.6074 C   0  0  0  0  0  0  0  0  0  0  0  0
  -34.0512  -11.0635   18.3374 C   0  0  0  0  0  0  0  0  0  0  0  0
  -31.1368  -14.2138   21.0256 C   0  0  0  0  0  0  0  0  0  0  0  0
  -21.1368  -31.6971   21.2622 C   0  0  0  0  0  0  0  0  0  0  0  0
  -21.0997  -30.2350   23.1852 C   0  0  0  0  0  0  0  0  0  0  0  0
  -31.2888  -15.5794   20.7896 C   0  0  0  0  0  0  0  0  0  0  0  0
  -17.8926  -29.7808   22.2161 C   0  0  0  0  0  0  0  0  0  0  0  0
  -16.9174  -28.8563   22.5899 C   0  0  0  0  0  0  0  0  0  0  0  0
  -29.3249  -15.5499   19.3891 C   0  0  0  0  0  0  0  0  0  0  0  0
  -30.1280  -22.6588   21.2503 C   0  0  0  0  0  0  0  0  0  0  0  0
  -16.7441  -29.9146   24.7549 C   0  0  0  0  0  0  0  0  0  0  0  0
  -23.0058  -30.2302   21.7007 C   0  0  0  0  0  0  0  0  0  0  0  0
  -25.5564  -30.2247   21.7469 C   0  0  0  0  0  0  0  0  0  0  0  0
  -33.9887   -8.6472   18.1249 C   0  0  0  0  0  0  0  0  0  0  0  0
  -30.0822  -13.5025   20.4354 C   0  0  0  0  0  0  0  0  0  0  0  0
  -33.3560   -9.8965   17.9778 C   0  0  0  0  0  0  0  0  0  0  0  0
  -29.1602  -14.1758   19.6213 C   0  0  0  0  0  0  0  0  0  0  0  0
  -31.0233  -21.9184   22.0143 C   0  0  0  0  0  0  0  0  0  0  0  0
  -29.9283  -24.0052   21.5342 C   0  0  0  0  0  0  0  0  0  0  0  0
  -20.4891  -31.2113   22.3980 C   0  0  0  0  0  0  0  0  0  0  0  0
  -30.3845  -16.2471   19.9689 C   0  0  0  0  0  0  0  0  0  0  0  0
  -18.2936  -30.7723   23.1116 C   0  0  0  0  0  0  0  0  0  0  0  0
  -16.3431  -28.9231   23.8593 C   0  0  0  0  0  0  0  0  0  0  0  0
  -17.7193  -30.8391   24.3810 C   0  0  0  0  0  0  0  0  0  0  0  0
  -24.3054  -29.7227   21.3408 C   0  0  0  0  0  0  0  0  0  0  0  0
  -31.6886  -22.5660   23.0427 C   0  0  0  0  0  0  0  0  0  0  0  0
  -30.6425  -24.5594   22.5842 C   0  0  0  0  0  0  0  0  0  0  0  0
  -26.4711  -29.4002   21.1386 C   0  0  0  0  0  0  0  0  0  0  0  0
  -25.8641  -31.3368   22.5979 C   0  0  0  0  0  0  0  0  0  0  0  0
  -29.8795  -11.0786   18.3892 C   0  0  0  0  0  0  0  0  0  0  0  0
  -26.7112  -11.2938   19.0513 C   0  0  0  0  0  0  0  0  0  0  0  0
  -30.6290  -19.7888   20.7323 C   0  0  0  0  0  0  0  0  0  0  0  0
  -24.0991  -13.2108   20.1229 C   0  0  0  0  0  0  0  0  0  0  0  0
  -28.2458  -24.3262   19.6868 C   0  0  0  0  0  0  0  0  0  0  0  0
  -33.3137   -7.3629   17.7132 C   0  0  0  0  0  0  0  0  0  0  0  0
  -29.9165  -12.0352   20.7215 C   0  0  0  0  0  0  0  0  0  0  0  0
  -27.9991  -13.4621   18.9802 C   0  0  0  0  0  0  0  0  0  0  0  0
  -31.8006   -7.4924   17.5584 C   0  0  0  0  0  0  0  0  0  0  0  0
  -25.8602  -25.8825   17.5505 C   0  0  0  0  0  0  0  0  0  0  0  0
  -31.4509   -8.7433   16.7586 C   0  0  0  0  0  0  0  0  0  0  0  0
  -32.1472  -21.0400   25.0761 C   0  0  0  0  0  0  0  0  0  0  0  0
  -32.9334  -22.2954   25.2912 C   0  0  0  0  0  0  0  0  0  0  0  0
  -25.3459  -27.0616   18.3795 C   0  0  0  0  0  0  0  0  0  0  0  0
  -26.1345  -24.6557   18.4185 C   0  0  0  0  0  0  0  0  0  0  0  0
  -26.4984  -26.0735   20.4001 C   0  0  0  0  0  0  0  0  0  0  0  0
  -31.9326  -10.0098   17.4765 C   0  0  1  0  0  0  0  0  0  0  0  0
  -32.6617  -21.8128   23.8927 C   0  0  0  0  0  0  0  0  0  0  0  0
  -29.1037  -11.3067   19.6557 C   0  0  1  0  0  0  0  0  0  0  0  0
  -26.2695  -27.3528   19.5786 C   0  0  2  0  0  0  0  0  0  0  0  0
  -30.4711  -26.0011   22.9382 C   0  0  0  0  0  0  0  0  0  0  0  0
  -21.6230  -13.1213   20.5207 C   0  0  0  0  0  0  0  0  0  0  0  0
  -26.2238  -11.4860   16.0454 C   0  0  0  0  0  0  0  0  0  0  0  0
  -23.9213  -12.3337   16.5434 C   0  0  0  0  0  0  0  0  0  0  0  0
  -24.5918  -10.0457   17.2769 C   0  0  0  0  0  0  0  0  0  0  0  0
  -24.4245  -13.7881   23.0073 C   0  0  0  0  0  0  0  0  0  0  0  0
  -31.1317  -18.3576   20.7711 C   0  0  0  0  0  0  0  0  0  1  0  0
  -25.5472  -12.0595   18.4701 C   0  0  1  0  0  0  0  0  0  0  0  0
  -23.0017  -12.9420   21.1368 C   0  0  2  0  0  0  0  0  0  0  0  0
  -25.0939  -11.4946   17.0943 C   0  0  0  0  0  0  0  0  0  0  0  0
  -24.4120  -28.6616   20.5366 N   0  0  0  0  0  0  0  0  0  0  0  0
  -31.5207  -23.8722   23.3484 N   0  0  0  0  0  0  0  0  0  0  0  0
  -25.7408  -28.4901   20.4324 N   0  0  0  0  0  0  0  0  0  0  0  0
  -27.8835  -12.0265   19.2852 N   0  0  0  0  0  0  0  0  0  0  0  0
  -27.0194  -25.0063   19.5315 N   0  0  0  0  0  0  0  0  0  0  0  0
  -27.8207  -29.3721   21.1443 N   0  0  0  0  0  0  0  0  0  0  0  0
  -24.8043  -32.0770   23.1394 N   0  0  0  0  0  0  0  0  0  0  0  0
  -31.2309  -20.5477   21.7303 N   0  0  0  0  0  0  0  0  0  0  0  0
  -29.0179  -24.7675   20.7609 N   0  0  0  0  0  0  0  0  0  0  0  0
  -31.0380  -10.3459   18.5633 N   0  0  0  0  0  0  0  0  0  0  0  0
  -24.5049  -12.0545   19.4909 N   0  0  0  0  0  0  0  0  0  0  0  0
  -23.1248  -13.8745   22.2928 N   0  3  0  0  0  0  0  0  0  0  0  0
  -27.0441  -31.6744   22.8569 O   0  0  0  0  0  0  0  0  0  0  0  0
  -29.4573  -11.5324   17.3321 O   0  0  0  0  0  0  0  0  0  0  0  0
  -26.5827  -10.0915   19.2955 O   0  0  0  0  0  0  0  0  0  0  0  0
  -29.8021  -20.1571   19.9046 O   0  0  0  0  0  0  0  0  0  0  0  0
  -24.5485  -14.3348   19.9100 O   0  0  0  0  0  0  0  0  0  0  0  0
  -28.5984  -23.4376   18.9070 O   0  0  0  0  0  0  0  0  0  0  0  0
  -19.2613  -31.6899   22.7386 O   0  0  0  0  0  0  0  0  0  0  0  0
  -30.5310  -17.5799   19.7363 O   0  0  0  0  0  0  0  0  0  1  0  0
  -15.4056  -28.0362   24.2177 F   0  0  0  0  0  0  0  0  0  0  0  0
  -18.0996  -31.7901   25.2453 F   0  0  0  0  0  0  0  0  0  0  0  0
  1  2  1  0  0  0  0
  1  5  2  0  0  0  0
  2  6  2  0  0  0  0
  3  8  2  0  0  0  0
  3 16  1  0  0  0  0
  4  9  1  0  0  0  0
  4 16  2  0  0  0  0
  5 18  1  0  0  0  0
  6 20  1  0  0  0  0
  7 10  2  0  0  0  0
  7 19  1  0  0  0  0
  8 24  1  0  0  0  0
  9 24  2  0  0  0  0
 10 25  1  0  0  0  0
 11 12  2  0  0  0  0
 11 26  1  0  0  0  0
 12 27  1  0  0  0  0
 13 21  1  0  0  0  0
 13 25  2  0  0  0  0
 14 22  1  0  0  0  0
 14 23  2  0  0  0  0
 15 27  2  0  0  0  0
 15 28  1  0  0  0  0
 16 29  1  0  0  0  0
 17 29  1  0  0  0  0
 17 32  2  0  0  0  0
 17 33  1  0  0  0  0
 18 20  2  0  0  0  0
 18 39  1  0  0  0  0
 19 21  2  0  0  0  0
 19 40  1  0  0  0  0
 20 50  1  0  0  0  0
 21 41  1  0  0  0  0
 22 30  2  0  0  0  0
 22 71  1  0  0  0  0
 23 31  1  0  0  0  0
 23 72  1  0  0  0  0
 24 82  1  0  0  0  0
 25 83  1  0  0  0  0
 26 28  2  0  0  0  0
 26 82  1  0  0  0  0
 27 84  1  0  0  0  0
 28 85  1  0  0  0  0
 29 64  2  0  0  0  0
 30 51  1  0  0  0  0
 30 65  1  0  0  0  0
 31 54  1  0  0  0  0
 31 65  2  0  0  0  0
 32 66  1  0  0  0  0
 32 69  1  0  0  0  0
 33 70  1  0  0  0  0
 33 76  2  0  0  0  0
 34 52  1  0  0  0  0
 34 73  1  0  0  0  0
 34 77  2  0  0  0  0
 35 61  1  0  0  0  0
 35 67  1  0  0  0  0
 35 78  2  0  0  0  0
 36 60  1  0  0  0  0
 36 71  1  0  0  0  0
 36 79  2  0  0  0  0
 37 62  1  0  0  0  0
 37 74  1  0  0  0  0
 37 80  2  0  0  0  0
 38 68  1  0  0  0  0
 38 72  1  0  0  0  0
 38 81  2  0  0  0  0
 39 42  1  0  0  0  0
 40 52  1  0  0  0  0
 41 67  1  0  0  0  0
 42 44  1  0  0  0  0
 43 47  1  0  0  0  0
 43 48  1  0  0  0  0
 44 50  1  0  0  0  0
 45 46  1  0  0  0  0
 45 51  1  0  0  0  0
 46 51  1  0  0  0  0
 47 53  1  0  0  0  0
 48 68  1  0  0  0  0
 49 53  1  0  0  0  0
 49 68  1  0  0  0  0
 50 73  1  0  0  0  0
 52 67  1  0  0  0  0
 53 66  1  0  0  0  0
 55 62  1  0  0  0  0
 56 63  1  0  0  0  0
 57 63  1  0  0  0  0
 58 63  1  0  0  0  0
 59 75  1  0  0  0  0
 60 83  1  0  0  0  0
 61 63  1  0  0  0  0
 61 74  1  0  0  0  0
 62 75  1  0  0  0  0
 64 66  1  0  0  0  0
M  CHG  1  75   1
M  ISO  4  38 100  60 101  72 100  83 101
M  END
> <Batch ID>
0113

> <Smiles>
CNC(C)C(=O)NC(C(=O)N1Cc2cc([101O:1][101CH2:1]C(=O)Nc3cc([100NH:0][100C:0](=O)N4CCCC(n5nc(-c6ccc(Oc7ccc(F)cc7F)cc6)c(C(N)=O)c5N)C4)c(C)nc3C3CC3)ccc2CC1C(=O)NC1CCCc2ccccc21)C(C)(C)C

> <Shape>
0.251

> <Color>
0.090

> <Negative vol penalty>
0.000

$$$$

  -OEChem-04052320053D

 87 95  0     1  0  0  0  0  0999 V2000
  -31.8136  -13.1735   22.0963 C   0  0  0  0  0  0  0  0  0  0  0  0
  -31.1716  -14.3872   22.3202 C   0  0  0  0  0  0  0  0  0  0  0  0
  -24.9849  -31.6430   21.6101 C   0  0  0  0  0  0  0  0  0  0  0  0
  -27.3142  -31.0645   21.3327 C   0  0  0  0  0  0  0  0  0  0  0  0
  -31.2811  -12.2621   21.1855 C   0  0  0  0  0  0  0  0  0  0  0  0
  -29.9971  -14.6906   21.6325 C   0  0  0  0  0  0  0  0  0  0  0  0
  -26.4366  -16.6642   24.6446 C   0  0  0  0  0  0  0  0  0  0  0  0
  -27.1570  -23.3824   20.4713 C   0  0  0  0  0  0  0  0  0  0  0  0
  -27.6271  -23.6363   19.1829 C   0  0  0  0  0  0  0  0  0  0  0  0
  -25.3440  -32.9663   21.8661 C   0  0  0  0  0  0  0  0  0  0  0  0
  -27.6733  -32.3878   21.5887 C   0  0  0  0  0  0  0  0  0  0  0  0
  -26.5707  -18.0073   24.9936 C   0  0  0  0  0  0  0  0  0  0  0  0
  -25.6725  -36.4227   22.9474 C   0  0  0  0  0  0  0  0  0  0  0  0
  -25.0545  -37.0685   24.0182 C   0  0  0  0  0  0  0  0  0  0  0  0
  -24.9500  -18.6008   23.3084 C   0  0  0  0  0  0  0  0  0  0  0  0
  -28.7445  -24.9702   21.3634 C   0  0  0  0  0  0  0  0  0  0  0  0
  -25.9423  -35.4080   25.5320 C   0  0  0  0  0  0  0  0  0  0  0  0
  -25.9700  -30.6921   21.3435 C   0  0  0  0  0  0  0  0  0  0  0  0
  -24.9036  -28.4520   21.9370 C   0  0  0  0  0  0  0  0  0  0  0  0
  -30.0942  -12.5504   20.4934 C   0  0  0  0  0  0  0  0  0  0  0  0
  -25.5648  -16.2797   23.6158 C   0  0  0  0  0  0  0  0  0  0  0  0
  -29.4489  -13.7828   20.7105 C   0  0  0  0  0  0  0  0  0  0  0  0
  -24.8047  -17.2519   22.9500 C   0  0  0  0  0  0  0  0  0  0  0  0
  -27.7157  -24.0494   21.5616 C   0  0  0  0  0  0  0  0  0  0  0  0
  -29.2146  -25.2241   20.0749 C   0  0  0  0  0  0  0  0  0  0  0  0
  -28.6559  -24.5571   18.9846 C   0  0  0  0  0  0  0  0  0  0  0  0
  -26.6882  -33.3387   21.8554 C   0  0  0  0  0  0  0  0  0  0  0  0
  -25.8295  -18.9761   24.3235 C   0  0  0  0  0  0  0  0  0  0  0  0
  -26.4254  -35.2695   23.1689 C   0  0  0  0  0  0  0  0  0  0  0  0
  -25.1893  -36.5611   25.3105 C   0  0  0  0  0  0  0  0  0  0  0  0
  -26.5603  -34.7622   24.4612 C   0  0  0  0  0  0  0  0  0  0  0  0
  -25.5997  -29.3249   21.0795 C   0  0  0  0  0  0  0  0  0  0  0  0
  -24.8031  -27.2807   21.2268 C   0  0  0  0  0  0  0  0  0  0  0  0
  -24.3935  -28.6795   23.2575 C   0  0  0  0  0  0  0  0  0  0  0  0
  -25.9122  -14.8491   20.7986 C   0  0  0  0  0  0  0  0  0  0  0  0
  -22.6691  -14.9157   20.8029 C   0  0  0  0  0  0  0  0  0  0  0  0
  -19.8026  -16.3686   21.9515 C   0  0  0  0  0  0  0  0  0  0  0  0
  -28.3035  -25.2957   16.6136 C   0  0  0  0  0  0  0  0  0  0  0  0
  -29.5824  -11.5539   19.4836 C   0  0  0  0  0  0  0  0  0  0  0  0
  -25.4116  -14.8241   23.2694 C   0  0  0  0  0  0  0  0  0  0  0  0
  -23.8397  -16.8892   21.8519 C   0  0  0  0  0  0  0  0  0  0  0  0
  -28.1315  -11.7930   19.0734 C   0  0  0  0  0  0  0  0  0  0  0  0
  -24.6175  -25.5858   16.7613 C   0  0  0  0  0  0  0  0  0  0  0  0
  -27.9001  -13.2689   18.7655 C   0  0  0  0  0  0  0  0  0  0  0  0
  -24.4004  -26.5718   17.9076 C   0  0  0  0  0  0  0  0  0  0  0  0
  -25.9507  -25.8201   16.0575 C   0  0  0  0  0  0  0  0  0  0  0  0
  -26.9078  -26.7828   18.1308 C   0  0  0  0  0  0  0  0  0  0  0  0
  -28.1595  -14.1377   20.0022 C   0  0  1  0  0  0  0  0  0  0  0  0
  -24.8770  -14.5986   21.8585 C   0  0  1  0  0  0  0  0  0  0  0  0
  -25.5897  -26.5415   18.8816 C   0  0  1  0  0  0  0  0  0  0  0  0
  -25.7175  -24.0653   23.1107 C   0  0  0  0  0  0  0  0  0  0  0  0
  -29.9501  -27.5926   20.4309 C   0  0  0  0  0  0  0  0  0  0  0  0
  -17.3409  -16.6954   22.3130 C   0  0  0  0  0  0  0  0  0  0  0  0
  -28.7963  -22.6722   25.3994 C   0  0  0  0  0  0  0  0  0  0  0  0
  -22.8181  -16.2776   18.0766 C   0  0  0  0  0  0  0  0  0  0  0  0
  -20.4251  -16.9561   18.3625 C   0  0  0  0  0  0  0  0  0  0  0  0
  -21.0325  -14.5382   18.2776 C   0  0  0  0  0  0  0  0  0  0  0  0
  -30.4424  -24.2856   17.2743 C   0  0  0  0  0  0  0  0  0  0  0  0
  -19.8027  -14.6178   24.3376 C   0  0  0  0  0  0  0  0  0  0  0  0
  -27.2260  -20.7061   25.1680 C   0  0  0  0  0  0  0  0  0  1  0  0
  -27.2079  -23.7725   22.9578 C   0  0  1  0  0  0  0  0  0  0  0  0
  -30.3198  -26.2134   19.8924 C   0  0  1  0  0  0  0  0  0  0  0  0
  -21.6192  -15.8921   20.3305 C   0  0  1  0  0  0  0  0  0  0  0  0
  -18.5300  -15.7711   22.5241 C   0  0  2  0  0  0  0  0  0  0  0  0
  -27.4591  -22.1824   24.8677 C   0  0  2  0  0  0  0  0  0  0  0  0
  -21.4933  -15.9234   18.7811 C   0  0  0  0  0  0  0  0  0  0  0  0
  -25.9189  -28.7566   19.9136 N   0  0  0  0  0  0  0  0  0  0  0  0
  -25.4212  -27.5140   20.0336 N   0  0  0  0  0  0  0  0  0  0  0  0
  -23.7300  -15.4534   21.5454 N   0  0  0  0  0  0  0  0  0  0  0  0
  -27.0666  -25.8486   17.0043 N   0  0  0  0  0  0  0  0  0  0  0  0
  -24.2472  -26.0842   21.5127 N   0  0  0  0  0  0  0  0  0  0  0  0
  -25.2248  -28.4036   24.3517 N   0  0  0  0  0  0  0  0  0  0  0  0
  -27.0411  -14.0611   20.9174 N   0  0  0  0  0  0  0  0  0  0  0  0
  -20.3864  -15.5328   21.0231 N   0  0  0  0  0  0  0  0  0  0  0  0
  -29.1279  -24.8054   17.6443 N   0  0  0  0  0  0  0  0  0  0  0  0
  -18.6836  -15.5296   23.9866 N   0  3  0  0  0  0  0  0  0  0  0  0
  -27.4494  -22.3718   23.3881 N   0  3  0  0  0  0  0  0  0  0  0  0
  -23.2291  -29.0992   23.4616 O   0  0  0  0  0  0  0  0  0  0  0  0
  -25.7017  -15.6937   19.9360 O   0  0  0  0  0  0  0  0  0  0  0  0
  -22.5485  -13.7189   20.5295 O   0  0  0  0  0  0  0  0  0  0  0  0
  -20.2335  -17.4684   22.2908 O   0  0  0  0  0  0  0  0  0  0  0  0
  -28.6738  -25.2892   15.4332 O   0  0  0  0  0  0  0  0  0  0  0  0
  -27.0390  -34.6300   22.1049 O   0  0  0  0  0  0  0  0  0  0  0  0
  -25.9590  -20.2879   24.6618 O   0  0  0  0  0  0  0  0  0  1  0  0
  -24.5971  -37.1823   26.3389 F   0  0  0  0  0  0  0  0  0  0  0  0
  -27.2833  -33.6553   24.6804 F   0  0  0  0  0  0  0  0  0  0  0  0
  -31.4839  -25.8398   20.5140 F   0  0  0  0  0  0  0  0  0  0  0  0
  1  2  1  0  0  0  0
  1  5  2  0  0  0  0
  2  6  2  0  0  0  0
  3 10  2  0  0  0  0
  3 18  1  0  0  0  0
  4 11  1  0  0  0  0
  4 18  2  0  0  0  0
  5 20  1  0  0  0  0
  6 22  1  0  0  0  0
  7 12  2  0  0  0  0
  7 21  1  0  0  0  0
  8  9  2  0  0  0  0
  8 24  1  0  0  0  0
  9 26  1  0  0  0  0
 10 27  1  0  0  0  0
 11 27  2  0  0  0  0
 12 28  1  0  0  0  0
 13 14  2  0  0  0  0
 13 29  1  0  0  0  0
 14 30  1  0  0  0  0
 15 23  1  0  0  0  0
 15 28  2  0  0  0  0
 16 24  2  0  0  0  0
 16 25  1  0  0  0  0
 17 30  2  0  0  0  0
 17 31  1  0  0  0  0
 18 32  1  0  0  0  0
 19 32  1  0  0  0  0
 19 33  2  0  0  0  0
 19 34  1  0  0  0  0
 20 22  2  0  0  0  0
 20 39  1  0  0  0  0
 21 23  2  0  0  0  0
 21 40  1  0  0  0  0
 22 48  1  0  0  0  0
 23 41  1  0  0  0  0
 24 61  1  0  0  0  0
 25 26  2  0  0  0  0
 25 62  1  0  0  0  0
 26 75  1  0  0  0  0
 27 83  1  0  0  0  0
 28 84  1  0  0  0  0
 29 31  2  0  0  0  0
 29 83  1  0  0  0  0
 30 85  1  0  0  0  0
 31 86  1  0  0  0  0
 32 67  2  0  0  0  0
 33 68  1  0  0  0  0
 33 71  1  0  0  0  0
 34 72  1  0  0  0  0
 34 78  2  0  0  0  0
 35 49  1  0  0  0  0
 35 73  1  0  0  0  0
 35 79  2  0  0  0  0
 36 63  1  0  0  0  0
 36 69  1  0  0  0  0
 36 80  2  0  0  0  0
 37 64  1  0  0  0  0
 37 74  1  0  0  0  0
 37 81  2  0  0  0  0
 38 70  1  0  0  0  0
 38 75  1  0  0  0  0
 38 82  2  0  0  0  0
 39 42  1  0  0  0  0
 40 49  1  0  0  0  0
 41 69  1  0  0  0  0
 42 44  1  0  0  0  0
 43 45  1  0  0  0  0
 43 46  1  0  0  0  0
 44 48  1  0  0  0  0
 45 50  1  0  0  0  0
 46 70  1  0  0  0  0
 47 50  1  0  0  0  0
 47 70  1  0  0  0  0
 48 73  1  0  0  0  0
 49 69  1  0  0  0  0
 50 68  1  0  0  0  0
 51 61  1  0  0  0  0
 52 62  1  0  0  0  0
 53 64  1  0  0  0  0
 54 65  1  0  0  0  0
 55 66  1  0  0  0  0
 56 66  1  0  0  0  0
 57 66  1  0  0  0  0
 58 75  1  0  0  0  0
 59 76  1  0  0  0  0
 60 65  1  0  0  0  0
 60 84  1  0  0  0  0
 61 77  1  0  0  0  0
 62 87  1  0  0  0  0
 63 66  1  0  0  0  0
 63 74  1  0  0  0  0
 64 76  1  0  0  0  0
 65 77  1  0  0  0  0
 67 68  1  0  0  0  0
M  CHG  2  76   1  77   1
M  ISO  4  38 100  60 101  75 100  84 101
M  END
> <Batch ID>
0113

> <Smiles>
CNC(C)C(=O)NC(C(=O)N1Cc2cc([101O:1][101CH2:1]C(C)NC(C)c3ccc([100N:0](C)[100C:0](=O)N4CCCC(n5nc(-c6ccc(Oc7ccc(F)cc7F)cc6)c(C(N)=O)c5N)C4)c(C(C)F)c3)ccc2CC1C(=O)NC1CCCc2ccccc21)C(C)(C)C

> <Shape>
0.215

> <Color>
0.076

> <Negative vol penalty>
0.000

$$$$

  -OEChem-04052320053D

 91 99  0     1  0  0  0  0  0999 V2000
  -22.3145  -34.7762   14.5219 C   0  0  0  0  0  0  0  0  0  0  0  0
  -22.5015  -33.4526   14.9074 C   0  0  0  0  0  0  0  0  0  0  0  0
  -24.5951   -8.9060   21.6531 C   0  0  0  0  0  0  0  0  0  0  0  0
  -22.7858  -10.3250   20.9116 C   0  0  0  0  0  0  0  0  0  0  0  0
  -23.1949  -35.7616   14.9665 C   0  0  0  0  0  0  0  0  0  0  0  0
  -23.5699  -33.1135   15.7369 C   0  0  0  0  0  0  0  0  0  0  0  0
  -23.6408  -28.7783   20.0620 C   0  0  0  0  0  0  0  0  0  0  0  0
  -23.7190   -8.2345   22.5059 C   0  0  0  0  0  0  0  0  0  0  0  0
  -21.9096   -9.6535   21.7644 C   0  0  0  0  0  0  0  0  0  0  0  0
  -24.1163  -27.4677   20.0687 C   0  0  0  0  0  0  0  0  0  0  0  0
  -21.3451   -5.8398   22.2558 C   0  0  0  0  0  0  0  0  0  0  0  0
  -21.4059   -4.4465   22.2816 C   0  0  0  0  0  0  0  0  0  0  0  0
  -26.1824  -28.2288   21.0541 C   0  0  0  0  0  0  0  0  0  0  0  0
  -21.9418   -4.5135   24.6365 C   0  0  0  0  0  0  0  0  0  0  0  0
  -24.1285   -9.9513   20.8560 C   0  0  0  0  0  0  0  0  0  0  0  0
  -25.3301  -10.3254   18.6370 C   0  0  0  0  0  0  0  0  0  0  0  0
  -24.2690  -35.4359   15.8097 C   0  0  0  0  0  0  0  0  0  0  0  0
  -24.4381  -29.8272   20.5420 C   0  0  0  0  0  0  0  0  0  0  0  0
  -24.4663  -34.0953   16.1921 C   0  0  0  0  0  0  0  0  0  0  0  0
  -25.7137  -29.5514   21.0548 C   0  0  0  0  0  0  0  0  0  0  0  0
  -22.3763   -8.6083   22.5615 C   0  0  0  0  0  0  0  0  0  0  0  0
  -25.3884  -27.1932   20.5621 C   0  0  0  0  0  0  0  0  0  0  0  0
  -21.5827   -6.5699   23.4204 C   0  0  0  0  0  0  0  0  0  0  0  0
  -21.7043   -3.7833   23.4719 C   0  0  0  0  0  0  0  0  0  0  0  0
  -21.8810   -5.9068   24.6107 C   0  0  0  0  0  0  0  0  0  0  0  0
  -25.0331  -10.6457   19.9753 C   0  0  0  0  0  0  0  0  0  0  0  0
  -26.2373  -11.2806   18.2486 C   0  0  0  0  0  0  0  0  0  0  0  0
  -24.8304   -9.2597   17.8182 C   0  0  0  0  0  0  0  0  0  0  0  0
  -25.6914  -32.4562   19.2687 C   0  0  0  0  0  0  0  0  0  0  0  0
  -26.5693  -33.0529   22.3339 C   0  0  0  0  0  0  0  0  0  0  0  0
  -25.9316  -19.1946   17.2254 C   0  0  0  0  0  0  0  0  0  0  0  0
  -27.2711  -31.8219   25.4385 C   0  0  0  0  0  0  0  0  0  0  0  0
  -27.1966  -16.7922   20.1348 C   0  0  0  0  0  0  0  0  0  0  0  0
  -25.2219  -36.5282   16.2263 C   0  0  0  0  0  0  0  0  0  0  0  0
  -23.9002  -31.2318   20.5526 C   0  0  0  0  0  0  0  0  0  0  0  0
  -26.6013  -30.6391   21.6004 C   0  0  0  0  0  0  0  0  0  0  0  0
  -26.1103  -36.1439   17.4067 C   0  0  0  0  0  0  0  0  0  0  0  0
  -29.6521  -14.1367   20.0063 C   0  0  0  0  0  0  0  0  0  0  0  0
  -26.7021  -34.7534   17.1990 C   0  0  0  0  0  0  0  0  0  0  0  0
  -28.7591  -12.9038   19.8551 C   0  0  0  0  0  0  0  0  0  0  0  0
  -30.1053  -21.2437   16.7140 C   0  0  0  0  0  0  0  0  0  0  0  0
  -29.0176  -15.1683   20.9345 C   0  0  0  0  0  0  0  0  0  0  0  0
  -26.7535  -14.3663   20.3828 C   0  0  0  0  0  0  0  0  0  0  0  0
  -25.5989  -33.6919   17.1110 C   0  0  1  0  0  0  0  0  0  0  0  0
  -24.9971  -32.2914   20.5909 C   0  0  1  0  0  0  0  0  0  0  0  0
  -27.3290  -13.2954   19.4383 C   0  0  2  0  0  0  0  0  0  0  0  0
  -29.7689  -19.7731   16.6284 C   0  0  2  0  0  0  0  0  0  0  0  0
  -30.8267  -21.3439   18.0491 C   0  0  1  0  0  0  0  0  0  0  0  0
  -29.5166  -19.3959   18.0816 C   0  0  2  0  0  0  0  0  0  0  0  0
  -25.2389  -18.2551   16.2949 C   0  0  0  0  0  0  0  0  0  0  0  0
  -27.9965  -32.5490   27.7282 C   0  0  0  0  0  0  0  0  0  0  0  0
  -31.9337  -16.8433   15.6488 C   0  0  0  0  0  0  0  0  0  0  0  0
  -30.0887  -17.8009   14.2158 C   0  0  0  0  0  0  0  0  0  0  0  0
  -29.4251  -33.3988   21.3167 C   0  0  0  0  0  0  0  0  0  0  0  0
  -30.2201  -33.1728   23.6800 C   0  0  0  0  0  0  0  0  0  0  0  0
  -28.7242  -35.0652   23.0447 C   0  0  0  0  0  0  0  0  0  0  0  0
  -24.7824  -30.8055   26.6764 C   0  0  0  0  0  0  0  0  0  0  0  0
  -30.6561  -22.6911   18.7258 C   0  0  0  0  0  0  0  0  0  0  0  0
  -27.5584  -24.4054   19.7678 C   0  0  0  0  0  0  0  0  0  0  0  0
  -27.7876  -19.1939   19.9363 C   0  0  0  0  0  0  0  0  0  0  0  0
  -27.2653  -25.7377   20.4396 C   0  0  0  0  0  0  0  0  0  1  0  0
  -29.0506  -24.1756   19.5870 C   0  0  0  0  0  0  0  0  0  0  0  0
  -27.7735  -32.7267   23.1839 C   0  0  1  0  0  0  0  0  0  0  0  0
  -26.8130  -32.2528   26.8202 C   0  0  2  0  0  0  0  0  0  0  0  0
  -28.0516  -19.5569   18.4733 C   0  0  2  0  0  0  0  0  0  0  0  0
  -30.6568  -17.6677   15.6196 C   0  0  0  0  0  0  0  0  0  0  0  0
  -29.0200  -33.5704   22.7943 C   0  0  0  0  0  0  0  0  0  0  0  0
  -25.6979  -11.7203   20.4080 N   0  0  0  0  0  0  0  0  0  0  0  0
  -26.4217  -12.0835   19.3355 N   0  0  0  0  0  0  0  0  0  0  0  0
  -26.0328  -31.9971   21.5833 N   0  0  0  0  0  0  0  0  0  0  0  0
  -27.6656  -15.5115   20.4716 N   0  0  0  0  0  0  0  0  0  0  0  0
  -26.8874  -11.5036   17.0867 N   0  0  0  0  0  0  0  0  0  0  0  0
  -23.9037   -8.3676   18.3747 N   0  0  0  0  0  0  0  0  0  0  0  0
  -25.0935  -33.3776   18.4302 N   0  0  0  0  0  0  0  0  0  0  0  0
  -27.3507  -32.8904   24.5706 N   0  0  0  0  0  0  0  0  0  0  0  0
  -27.2056  -18.7953   17.5845 N   0  0  0  0  0  0  0  0  0  0  0  0
  -28.1210  -17.8229   20.2527 N   0  0  0  0  0  0  0  0  0  0  0  0
  -30.9620  -19.0268   16.1351 N   0  3  0  0  0  0  0  0  0  0  0  0
  -25.9928  -31.1807   27.4517 N   0  3  0  0  0  0  0  0  0  0  0  0
  -25.2074   -9.0935   16.6334 O   0  0  0  0  0  0  0  0  0  0  0  0
  -26.6960  -31.7972   19.0275 O   0  0  0  0  0  0  0  0  0  0  0  0
  -26.1168  -34.2005   22.3412 O   0  0  0  0  0  0  0  0  0  0  0  0
  -25.3576  -20.2124   17.5944 O   0  0  0  0  0  0  0  0  0  0  0  0
  -27.5357  -30.6549   25.1584 O   0  0  0  0  0  0  0  0  0  0  0  0
  -26.0404  -17.0011   19.7518 O   0  0  0  0  0  0  0  0  0  0  0  0
  -30.2850  -20.3095   18.8884 O   0  0  0  0  0  0  0  0  0  0  0  0
  -21.5211   -7.9531   23.3933 O   0  0  0  0  0  0  0  0  0  0  0  0
  -25.8552  -25.9149   20.5692 O   0  0  0  0  0  0  0  0  0  1  0  0
  -29.2725  -22.9232   18.9528 O   0  0  0  0  0  0  0  0  0  0  0  0
  -21.7611   -2.4453   23.4968 F   0  0  0  0  0  0  0  0  0  0  0  0
  -22.1090   -6.6028   25.7329 F   0  0  0  0  0  0  0  0  0  0  0  0
  1  2  1  0  0  0  0
  1  5  2  0  0  0  0
  2  6  2  0  0  0  0
  3  8  2  0  0  0  0
  3 15  1  0  0  0  0
  4  9  1  0  0  0  0
  4 15  2  0  0  0  0
  5 17  1  0  0  0  0
  6 19  1  0  0  0  0
  7 10  2  0  0  0  0
  7 18  1  0  0  0  0
  8 21  1  0  0  0  0
  9 21  2  0  0  0  0
 10 22  1  0  0  0  0
 11 12  2  0  0  0  0
 11 23  1  0  0  0  0
 12 24  1  0  0  0  0
 13 20  1  0  0  0  0
 13 22  2  0  0  0  0
 14 24  2  0  0  0  0
 14 25  1  0  0  0  0
 15 26  1  0  0  0  0
 16 26  1  0  0  0  0
 16 27  2  0  0  0  0
 16 28  1  0  0  0  0
 17 19  2  0  0  0  0
 17 34  1  0  0  0  0
 18 20  2  0  0  0  0
 18 35  1  0  0  0  0
 19 44  1  0  0  0  0
 20 36  1  0  0  0  0
 21 87  1  0  0  0  0
 22 88  1  0  0  0  0
 23 25  2  0  0  0  0
 23 87  1  0  0  0  0
 24 90  1  0  0  0  0
 25 91  1  0  0  0  0
 26 68  2  0  0  0  0
 27 69  1  0  0  0  0
 27 72  1  0  0  0  0
 28 73  1  0  0  0  0
 28 80  2  0  0  0  0
 29 45  1  0  0  0  0
 29 74  1  0  0  0  0
 29 81  2  0  0  0  0
 30 63  1  0  0  0  0
 30 70  1  0  0  0  0
 30 82  2  0  0  0  0
 31 50  1  0  0  0  0
 31 76  1  0  0  0  0
 31 83  2  0  0  0  0
 32 64  1  0  0  0  0
 32 75  1  0  0  0  0
 32 84  2  0  0  0  0
 33 71  1  0  0  0  0
 33 77  1  0  0  0  0
 33 85  2  0  0  0  0
 34 37  1  0  0  0  0
 35 45  1  0  0  0  0
 36 70  1  0  0  0  0
 37 39  1  0  0  0  0
 38 40  1  0  0  0  0
 38 42  1  0  0  0  0
 39 44  1  0  0  0  0
 40 46  1  0  0  0  0
 41 47  1  0  0  0  0
 41 48  1  0  0  0  0
 42 71  1  0  0  0  0
 43 46  1  0  0  0  0
 43 71  1  0  0  0  0
 44 74  1  0  0  0  0
 45 70  1  0  0  0  0
 46 69  1  0  0  0  0
 47 49  1  0  0  0  0
 47 78  1  0  0  0  0
 48 58  1  0  0  0  0
 48 86  1  0  0  0  0
 49 65  1  0  0  0  0
 49 86  1  0  0  0  0
 51 64  1  0  0  0  0
 52 66  1  0  0  0  0
 53 66  1  0  0  0  0
 54 67  1  0  0  0  0
 55 67  1  0  0  0  0
 56 67  1  0  0  0  0
 57 79  1  0  0  0  0
 58 89  1  0  0  0  0
 59 61  1  0  0  0  0
 59 62  1  0  0  0  0
 60 65  1  0  0  0  0
 60 77  1  0  0  0  0
 61 88  1  0  0  0  0
 62 89  1  0  0  0  0
 63 67  1  0  0  0  0
 63 75  1  0  0  0  0
 64 79  1  0  0  0  0
 65 76  1  0  0  0  0
 66 78  1  0  0  0  0
 68 69  1  0  0  0  0
M  CHG  2  78   1  79   1
M  ISO  4  33 100  61 101  77 100  88 101
M  END
> <Batch ID>
0113

> <Smiles>
CNC(C)C(=O)NC(C(=O)N1Cc2cc([101O:1][101CH2:1]CCOCC3CC(NC(C)C)C(C(C[100NH:0][100C:0](=O)N4CCCC(n5nc(-c6ccc(Oc7ccc(F)cc7F)cc6)c(C(N)=O)c5N)C4)NC(C)=O)O3)ccc2CC1C(=O)NC1CCCc2ccccc21)C(C)(C)C

> <Shape>
0.266

> <Color>
0.088

> <Negative vol penalty>
0.000

$$$$

  -OEChem-04052320053D

 78 85  0     1  0  0  0  0  0999 V2000
  -17.1712  -26.6396   22.9145 C   0  0  0  0  0  0  0  0  0  0  0  0
  -18.4024  -26.1406   22.5014 C   0  0  0  0  0  0  0  0  0  0  0  0
  -25.3497  -15.0993   20.2676 C   0  0  0  0  0  0  0  0  0  0  0  0
  -27.6392  -14.7681   20.9646 C   0  0  0  0  0  0  0  0  0  0  0  0
  -16.9117  -28.0070   22.8329 C   0  0  0  0  0  0  0  0  0  0  0  0
  -19.3744  -27.0087   22.0054 C   0  0  0  0  0  0  0  0  0  0  0  0
  -25.4398  -26.5293   22.7029 C   0  0  0  0  0  0  0  0  0  0  0  0
  -25.1736  -13.7178   20.1896 C   0  0  0  0  0  0  0  0  0  0  0  0
  -27.4631  -13.3866   20.8867 C   0  0  0  0  0  0  0  0  0  0  0  0
  -26.4433  -26.0341   21.8713 C   0  0  0  0  0  0  0  0  0  0  0  0
  -24.6259  -11.1523   22.3229 C   0  0  0  0  0  0  0  0  0  0  0  0
  -23.4612  -10.6153   22.8714 C   0  0  0  0  0  0  0  0  0  0  0  0
  -26.8928  -28.2720   21.0910 C   0  0  0  0  0  0  0  0  0  0  0  0
  -22.8481   -9.7343   20.7069 C   0  0  0  0  0  0  0  0  0  0  0  0
  -26.5825  -15.6245   20.6550 C   0  0  0  0  0  0  0  0  0  0  0  0
  -26.5437  -17.8753   21.8549 C   0  0  0  0  0  0  0  0  0  0  0  0
  -17.8845  -28.8935   22.3447 C   0  0  0  0  0  0  0  0  0  0  0  0
  -25.1474  -27.9006   22.7267 C   0  0  0  0  0  0  0  0  0  0  0  0
  -19.1271  -28.3891   21.9159 C   0  0  0  0  0  0  0  0  0  0  0  0
  -25.8868  -28.7824   21.9256 C   0  0  0  0  0  0  0  0  0  0  0  0
  -26.2302  -12.8615   20.4992 C   0  0  0  0  0  0  0  0  0  0  0  0
  -27.1681  -26.9051   21.0631 C   0  0  0  0  0  0  0  0  0  0  0  0
  -24.9016  -10.9803   20.9664 C   0  0  0  0  0  0  0  0  0  0  0  0
  -22.5723   -9.9063   22.0634 C   0  0  0  0  0  0  0  0  0  0  0  0
  -24.0127  -10.2713   20.1584 C   0  0  0  0  0  0  0  0  0  0  0  0
  -26.7653  -17.0515   20.7351 C   0  0  0  0  0  0  0  0  0  0  0  0
  -26.8599  -19.1390   21.4195 C   0  0  0  0  0  0  0  0  0  0  0  0
  -26.0925  -17.5293   23.1711 C   0  0  0  0  0  0  0  0  0  0  0  0
  -22.5939  -29.6620   22.0330 C   0  0  0  0  0  0  0  0  0  0  0  0
  -24.4180  -32.0705   23.2138 C   0  0  0  0  0  0  0  0  0  0  0  0
  -27.5371  -33.2773   23.8930 C   0  0  0  0  0  0  0  0  0  0  0  0
  -30.2188  -22.6360   18.6564 C   0  0  0  0  0  0  0  0  0  0  0  0
  -17.5408  -30.3576   22.2311 C   0  0  0  0  0  0  0  0  0  0  0  0
  -24.0799  -28.4223   23.6489 C   0  0  0  0  0  0  0  0  0  0  0  0
  -25.6256  -30.2657   21.9294 C   0  0  0  0  0  0  0  0  0  0  0  0
  -18.7601  -31.2568   22.0440 C   0  0  0  0  0  0  0  0  0  0  0  0
  -27.7673  -20.8844   16.7594 C   0  0  0  0  0  0  0  0  0  0  0  0
  -19.6896  -30.6812   20.9803 C   0  0  0  0  0  0  0  0  0  0  0  0
  -27.2748  -19.7958   17.7145 C   0  0  0  0  0  0  0  0  0  0  0  0
  -29.2629  -21.1453   16.9242 C   0  0  0  0  0  0  0  0  0  0  0  0
  -29.1983  -20.3572   19.2584 C   0  0  0  0  0  0  0  0  0  0  0  0
  -20.2160  -29.3020   21.3954 C   0  0  1  0  0  0  0  0  0  0  0  0
  -23.5197  -29.7721   23.2114 C   0  0  1  0  0  0  0  0  0  0  0  0
  -27.6847  -20.0981   19.1684 C   0  0  2  0  0  0  0  0  0  0  0  0
  -33.4243  -22.8438   20.1969 C   0  0  0  0  0  0  0  0  0  0  0  0
  -28.7109  -35.2910   24.8230 C   0  0  0  0  0  0  0  0  0  0  0  0
  -23.8970  -33.5736   20.6101 C   0  0  0  0  0  0  0  0  0  0  0  0
  -25.8068  -35.0877   21.1833 C   0  0  0  0  0  0  0  0  0  0  0  0
  -23.8052  -34.9904   22.6689 C   0  0  0  0  0  0  0  0  0  0  0  0
  -31.2503  -23.8812   22.0359 C   0  0  0  0  0  0  0  0  0  0  0  0
  -28.7399  -31.7044   26.0926 C   0  0  0  0  0  0  0  0  0  0  0  0
  -32.5638  -24.0719   19.9176 C   0  0  0  0  0  0  0  0  0  0  0  0
  -28.8365  -25.2528   20.6857 C   0  0  0  0  0  0  0  0  0  1  0  0
  -25.4153  -33.0416   22.6294 C   0  0  1  0  0  0  0  0  0  0  0  0
  -28.1173  -33.9264   25.1366 C   0  0  2  0  0  0  0  0  0  0  0  0
  -30.2543  -25.2524   20.1012 C   0  0  2  0  0  0  0  0  0  0  0  0
  -24.7349  -34.1452   21.7712 C   0  0  0  0  0  0  0  0  0  0  0  0
  -31.1243  -24.0231   20.5045 C   0  0  2  0  0  0  0  0  0  0  0  0
  -27.1893  -17.7343   19.6684 N   0  0  0  0  0  0  0  0  0  0  0  0
  -27.2367  -19.0007   20.1160 N   0  0  0  0  0  0  0  0  0  0  0  0
  -24.5675  -30.7265   22.8435 N   0  0  0  0  0  0  0  0  0  0  0  0
  -29.5850  -21.4270   18.3252 N   0  0  0  0  0  0  0  0  0  0  0  0
  -26.8496  -20.3439   22.0282 N   0  0  0  0  0  0  0  0  0  0  0  0
  -25.8125  -16.1844   23.4494 N   0  0  0  0  0  0  0  0  0  0  0  0
  -21.2736  -29.4382   22.3738 N   0  0  0  0  0  0  0  0  0  0  0  0
  -26.1934  -33.5529   23.7526 N   0  0  0  0  0  0  0  0  0  0  0  0
  -30.4826  -22.8265   20.0073 N   0  0  0  0  0  0  0  0  0  0  0  0
  -30.9076  -26.5289   20.5335 N   0  3  0  0  0  0  0  0  0  0  0  0
  -29.1899  -33.0692   25.7159 N   0  3  0  0  0  0  0  0  0  0  0  0
  -25.9263  -18.3894   24.0689 O   0  0  0  0  0  0  0  0  0  0  0  0
  -23.0440  -29.7733   20.8987 O   0  0  0  0  0  0  0  0  0  0  0  0
  -23.5430  -32.4880   23.9765 O   0  0  0  0  0  0  0  0  0  0  0  0
  -28.2096  -32.5971   23.1212 O   0  0  0  0  0  0  0  0  0  0  0  0
  -30.5221  -23.4852   17.8115 O   0  0  0  0  0  0  0  0  0  0  0  0
  -26.0587  -11.5134   20.4235 O   0  0  0  0  0  0  0  0  0  0  0  0
  -28.1477  -26.4243   20.2501 O   0  0  0  0  0  0  0  0  0  1  0  0
  -21.4547   -9.3894   22.5906 F   0  0  0  0  0  0  0  0  0  0  0  0
  -24.2728  -10.1018   18.8548 F   0  0  0  0  0  0  0  0  0  0  0  0
  1  2  1  0  0  0  0
  1  5  2  0  0  0  0
  2  6  2  0  0  0  0
  3  8  2  0  0  0  0
  3 15  1  0  0  0  0
  4  9  1  0  0  0  0
  4 15  2  0  0  0  0
  5 17  1  0  0  0  0
  6 19  1  0  0  0  0
  7 10  2  0  0  0  0
  7 18  1  0  0  0  0
  8 21  1  0  0  0  0
  9 21  2  0  0  0  0
 10 22  1  0  0  0  0
 11 12  2  0  0  0  0
 11 23  1  0  0  0  0
 12 24  1  0  0  0  0
 13 20  1  0  0  0  0
 13 22  2  0  0  0  0
 14 24  2  0  0  0  0
 14 25  1  0  0  0  0
 15 26  1  0  0  0  0
 16 26  1  0  0  0  0
 16 27  2  0  0  0  0
 16 28  1  0  0  0  0
 17 19  2  0  0  0  0
 17 33  1  0  0  0  0
 18 20  2  0  0  0  0
 18 34  1  0  0  0  0
 19 42  1  0  0  0  0
 20 35  1  0  0  0  0
 21 75  1  0  0  0  0
 22 76  1  0  0  0  0
 23 25  2  0  0  0  0
 23 75  1  0  0  0  0
 24 77  1  0  0  0  0
 25 78  1  0  0  0  0
 26 59  2  0  0  0  0
 27 60  1  0  0  0  0
 27 63  1  0  0  0  0
 28 64  1  0  0  0  0
 28 70  2  0  0  0  0
 29 43  1  0  0  0  0
 29 65  1  0  0  0  0
 29 71  2  0  0  0  0
 30 54  1  0  0  0  0
 30 61  1  0  0  0  0
 30 72  2  0  0  0  0
 31 55  1  0  0  0  0
 31 66  1  0  0  0  0
 31 73  2  0  0  0  0
 32 62  1  0  0  0  0
 32 67  1  0  0  0  0
 32 74  2  0  0  0  0
 33 36  1  0  0  0  0
 34 43  1  0  0  0  0
 35 61  1  0  0  0  0
 36 38  1  0  0  0  0
 37 39  1  0  0  0  0
 37 40  1  0  0  0  0
 38 42  1  0  0  0  0
 39 44  1  0  0  0  0
 40 62  1  0  0  0  0
 41 44  1  0  0  0  0
 41 62  1  0  0  0  0
 42 65  1  0  0  0  0
 43 61  1  0  0  0  0
 44 60  1  0  0  0  0
 45 52  1  0  0  0  0
 46 55  1  0  0  0  0
 47 57  1  0  0  0  0
 48 57  1  0  0  0  0
 49 57  1  0  0  0  0
 50 58  1  0  0  0  0
 51 69  1  0  0  0  0
 52 58  1  0  0  0  0
 53 56  1  0  0  0  0
 53 76  1  0  0  0  0
 54 57  1  0  0  0  0
 54 66  1  0  0  0  0
 55 69  1  0  0  0  0
 56 58  1  0  0  0  0
 56 68  1  0  0  0  0
 58 67  1  0  0  0  0
 59 60  1  0  0  0  0
M  CHG  2  68   1  69   1
M  ISO  4  32 100  53 101  67 100  76 101
M  END
> <Batch ID>
0113

> <Smiles>
CCC(C)([100NH:0][100C:0](=O)N1CCCC(n2nc(-c3ccc(Oc4ccc(F)cc4F)cc3)c(C(N)=O)c2N)C1)C(N)[101CH2:1][101O:1]c1ccc2c(c1)CN(C(=O)C(NC(=O)C(C)NC)C(C)(C)C)C(C(=O)NC1CCCc3ccccc31)C2

> <Shape>
0.275

> <Color>
0.088

> <Negative vol penalty>
0.000

$$$$

  -OEChem-04052320053D

 83 91  0     1  0  0  0  0  0999 V2000
  -16.7598  -13.7531   21.8431 C   0  0  0  0  0  0  0  0  0  0  0  0
  -17.3799  -14.7713   21.1261 C   0  0  0  0  0  0  0  0  0  0  0  0
  -24.2201  -31.3063   25.4717 C   0  0  0  0  0  0  0  0  0  0  0  0
  -26.5856  -31.1591   25.9406 C   0  0  0  0  0  0  0  0  0  0  0  0
  -17.3709  -13.2328   22.9832 C   0  0  0  0  0  0  0  0  0  0  0  0
  -18.6111  -15.2706   21.5495 C   0  0  0  0  0  0  0  0  0  0  0  0
  -24.7090  -18.0090   18.9739 C   0  0  0  0  0  0  0  0  0  0  0  0
  -23.9443  -31.2213   26.8364 C   0  0  0  0  0  0  0  0  0  0  0  0
  -26.3098  -31.0742   27.3053 C   0  0  0  0  0  0  0  0  0  0  0  0
  -25.5423  -19.1161   19.1282 C   0  0  0  0  0  0  0  0  0  0  0  0
  -25.4885  -33.1832   29.8148 C   0  0  0  0  0  0  0  0  0  0  0  0
  -26.2575  -33.9620   30.6795 C   0  0  0  0  0  0  0  0  0  0  0  0
  -26.5416  -18.0861   21.0672 C   0  0  0  0  0  0  0  0  0  0  0  0
  -27.8997  -23.2102   20.7752 C   0  0  0  0  0  0  0  0  0  0  0  0
  -27.0173  -31.9631   31.8040 C   0  0  0  0  0  0  0  0  0  0  0  0
  -25.5408  -31.2752   25.0238 C   0  0  0  0  0  0  0  0  0  0  0  0
  -26.0482  -32.5317   22.8625 C   0  0  0  0  0  0  0  0  0  0  0  0
  -18.6148  -13.7194   23.4153 C   0  0  0  0  0  0  0  0  0  0  0  0
  -24.7783  -16.9352   19.8731 C   0  0  0  0  0  0  0  0  0  0  0  0
  -19.2388  -14.7573   22.6972 C   0  0  0  0  0  0  0  0  0  0  0  0
  -25.7099  -16.9655   20.9207 C   0  0  0  0  0  0  0  0  0  0  0  0
  -28.8414  -24.1977   21.0422 C   0  0  0  0  0  0  0  0  0  0  0  0
  -29.9687  -24.3116   20.2364 C   0  0  0  0  0  0  0  0  0  0  0  0
  -24.9892  -31.1053   27.7532 C   0  0  0  0  0  0  0  0  0  0  0  0
  -26.4568  -19.1560   20.1767 C   0  0  0  0  0  0  0  0  0  0  0  0
  -25.4838  -31.7944   29.9447 C   0  0  0  0  0  0  0  0  0  0  0  0
  -27.0219  -33.3519   31.6741 C   0  0  0  0  0  0  0  0  0  0  0  0
  -26.2482  -31.1843   30.9392 C   0  0  0  0  0  0  0  0  0  0  0  0
  -25.8263  -31.3623   23.6142 C   0  0  0  0  0  0  0  0  0  0  0  0
  -28.1300  -22.3684   19.6990 C   0  0  0  0  0  0  0  0  0  0  0  0
  -30.1066  -23.4204   19.1845 C   0  0  0  0  0  0  0  0  0  0  0  0
  -26.2743  -32.0810   21.5849 C   0  0  0  0  0  0  0  0  0  0  0  0
  -26.0501  -33.9029   23.2817 C   0  0  0  0  0  0  0  0  0  0  0  0
  -22.7541  -15.5915   21.9227 C   0  0  0  0  0  0  0  0  0  0  0  0
  -25.1483  -13.4304   22.2683 C   0  0  0  0  0  0  0  0  0  0  0  0
  -28.4803  -12.7340   22.0238 C   0  0  0  0  0  0  0  0  0  0  0  0
  -28.2754  -26.8821   19.3897 C   0  0  0  0  0  0  0  0  0  0  0  0
  -19.2141  -13.1582   24.6804 C   0  0  0  0  0  0  0  0  0  0  0  0
  -23.8910  -15.7365   19.6772 C   0  0  0  0  0  0  0  0  0  0  0  0
  -25.8378  -15.8294   21.9012 C   0  0  0  0  0  0  0  0  0  0  0  0
  -20.6958  -13.4843   24.8493 C   0  0  0  0  0  0  0  0  0  0  0  0
  -25.1802  -28.4735   18.6387 C   0  0  0  0  0  0  0  0  0  0  0  0
  -20.9545  -14.9591   24.5577 C   0  0  0  0  0  0  0  0  0  0  0  0
  -25.0149  -29.4999   19.7608 C   0  0  0  0  0  0  0  0  0  0  0  0
  -25.8295  -27.1863   19.1423 C   0  0  0  0  0  0  0  0  0  0  0  0
  -26.9426  -28.4009   20.9752 C   0  0  0  0  0  0  0  0  0  0  0  0
  -20.5863  -15.3082   23.1106 C   0  0  1  0  0  0  0  0  0  0  0  0
  -23.6907  -14.9263   20.9542 C   0  0  1  0  0  0  0  0  0  0  0  0
  -26.3432  -29.7370   20.5041 C   0  0  2  0  0  0  0  0  0  0  0  0
  -28.6208  -25.1176   22.1973 C   0  0  0  0  0  0  0  0  0  0  0  0
  -31.2956  -23.4941   18.2831 C   0  0  0  0  0  0  0  0  0  0  0  0
  -30.1419  -10.8939   22.4120 C   0  0  0  0  0  0  0  0  0  0  0  0
  -31.7968  -27.7280   20.0644 C   0  0  0  0  0  0  0  0  0  0  0  0
  -25.0002  -13.9340   25.2741 C   0  0  0  0  0  0  0  0  0  0  0  0
  -27.2408  -12.8396   25.4974 C   0  0  0  0  0  0  0  0  0  0  0  0
  -25.2986  -11.5355   24.6317 C   0  0  0  0  0  0  0  0  0  0  0  0
  -29.2649  -12.6828   19.1706 C   0  0  0  0  0  0  0  0  0  0  0  0
  -30.9945  -25.3628   20.4974 C   0  0  0  0  0  0  0  0  0  0  0  0
  -27.1346  -21.2919   19.3801 C   0  0  0  0  0  0  0  0  0  1  0  0
  -26.3545  -13.3057   23.1676 C   0  0  1  0  0  0  0  0  0  0  0  0
  -29.2219  -11.5638   21.4032 C   0  0  2  0  0  0  0  0  0  0  0  0
  -30.7224  -26.6899   19.7562 C   0  0  1  0  0  0  0  0  0  0  0  0
  -25.9700  -12.9262   24.6255 C   0  0  0  0  0  0  0  0  0  0  0  0
  -25.9041  -30.2521   22.8757 N   0  0  0  0  0  0  0  0  0  0  0  0
  -29.2131  -22.4483   18.8939 N   0  0  0  0  0  0  0  0  0  0  0  0
  -26.1774  -30.7219   21.6466 N   0  0  0  0  0  0  0  0  0  0  0  0
  -24.9439  -14.6824   21.6712 N   0  0  0  0  0  0  0  0  0  0  0  0
  -27.0856  -27.4806   19.8361 N   0  0  0  0  0  0  0  0  0  0  0  0
  -26.5444  -32.7185   20.4261 N   0  0  0  0  0  0  0  0  0  0  0  0
  -25.7998  -34.1895   24.6306 N   0  0  0  0  0  0  0  0  0  0  0  0
  -21.6188  -14.8555   22.2032 N   0  0  0  0  0  0  0  0  0  0  0  0
  -27.2507  -12.3546   22.5191 N   0  0  0  0  0  0  0  0  0  0  0  0
  -29.4215  -27.2197   20.0991 N   0  0  0  0  0  0  0  0  0  0  0  0
  -30.0455  -12.0252   20.2501 N   0  3  0  0  0  0  0  0  0  0  0  0
  -26.2509  -34.8469   22.4805 O   0  0  0  0  0  0  0  0  0  0  0  0
  -23.0410  -16.6905   22.3827 O   0  0  0  0  0  0  0  0  0  0  0  0
  -24.4186  -12.4509   22.0962 O   0  0  0  0  0  0  0  0  0  0  0  0
  -28.9469  -13.8701   22.0683 O   0  0  0  0  0  0  0  0  0  0  0  0
  -28.3143  -26.1087   18.4268 O   0  0  0  0  0  0  0  0  0  0  0  0
  -24.7204  -31.0226   29.0849 O   0  0  0  0  0  0  0  0  0  0  0  0
  -27.2709  -20.2357   20.3299 O   0  0  0  0  0  0  0  0  0  1  0  0
  -27.7615  -34.0998   32.5034 F   0  0  0  0  0  0  0  0  0  0  0  0
  -26.2487  -29.8505   31.0681 F   0  0  0  0  0  0  0  0  0  0  0  0
  1  2  1  0  0  0  0
  1  5  2  0  0  0  0
  2  6  2  0  0  0  0
  3  8  2  0  0  0  0
  3 16  1  0  0  0  0
  4  9  1  0  0  0  0
  4 16  2  0  0  0  0
  5 18  1  0  0  0  0
  6 20  1  0  0  0  0
  7 10  2  0  0  0  0
  7 19  1  0  0  0  0
  8 24  1  0  0  0  0
  9 24  2  0  0  0  0
 10 25  1  0  0  0  0
 11 12  2  0  0  0  0
 11 26  1  0  0  0  0
 12 27  1  0  0  0  0
 13 21  1  0  0  0  0
 13 25  2  0  0  0  0
 14 22  2  0  0  0  0
 14 30  1  0  0  0  0
 15 27  2  0  0  0  0
 15 28  1  0  0  0  0
 16 29  1  0  0  0  0
 17 29  1  0  0  0  0
 17 32  2  0  0  0  0
 17 33  1  0  0  0  0
 18 20  2  0  0  0  0
 18 38  1  0  0  0  0
 19 21  2  0  0  0  0
 19 39  1  0  0  0  0
 20 47  1  0  0  0  0
 21 40  1  0  0  0  0
 22 23  1  0  0  0  0
 22 50  1  0  0  0  0
 23 31  2  0  0  0  0
 23 58  1  0  0  0  0
 24 80  1  0  0  0  0
 25 81  1  0  0  0  0
 26 28  2  0  0  0  0
 26 80  1  0  0  0  0
 27 82  1  0  0  0  0
 28 83  1  0  0  0  0
 29 64  2  0  0  0  0
 30 59  1  0  0  0  0
 30 65  2  0  0  0  0
 31 51  1  0  0  0  0
 31 65  1  0  0  0  0
 32 66  1  0  0  0  0
 32 69  1  0  0  0  0
 33 70  1  0  0  0  0
 33 75  2  0  0  0  0
 34 48  1  0  0  0  0
 34 71  1  0  0  0  0
 34 76  2  0  0  0  0
 35 60  1  0  0  0  0
 35 67  1  0  0  0  0
 35 77  2  0  0  0  0
 36 61  1  0  0  0  0
 36 72  1  0  0  0  0
 36 78  2  0  0  0  0
 37 68  1  0  0  0  0
 37 73  1  0  0  0  0
 37 79  2  0  0  0  0
 38 41  1  0  0  0  0
 39 48  1  0  0  0  0
 40 67  1  0  0  0  0
 41 43  1  0  0  0  0
 42 44  1  0  0  0  0
 42 45  1  0  0  0  0
 43 47  1  0  0  0  0
 44 49  1  0  0  0  0
 45 68  1  0  0  0  0
 46 49  1  0  0  0  0
 46 68  1  0  0  0  0
 47 71  1  0  0  0  0
 48 67  1  0  0  0  0
 49 66  1  0  0  0  0
 52 61  1  0  0  0  0
 53 62  1  0  0  0  0
 54 63  1  0  0  0  0
 55 63  1  0  0  0  0
 56 63  1  0  0  0  0
 57 74  1  0  0  0  0
 58 62  1  0  0  0  0
 59 81  1  0  0  0  0
 60 63  1  0  0  0  0
 60 72  1  0  0  0  0
 61 74  1  0  0  0  0
 62 73  1  0  0  0  0
 64 66  1  0  0  0  0
M  CHG  1  74   1
M  ISO  4  37 100  59 101  73 100  81 101
M  END
> <Batch ID>
0113

> <Smiles>
CNC(C)C(=O)NC(C(=O)N1Cc2cc([101O:1][101CH2:1]c3cc(C)c(CC(C)[100NH:0][100C:0](=O)N4CCCC(n5nc(-c6ccc(Oc7ccc(F)cc7F)cc6)c(C(N)=O)c5N)C4)c(C)n3)ccc2CC1C(=O)NC1CCCc2ccccc21)C(C)(C)C

> <Shape>
0.227

> <Color>
0.063

> <Negative vol penalty>
0.000

$$$$

  -OEChem-04052320053D

 77 85  0     1  0  0  0  0  0999 V2000
  -25.2083  -20.1917   31.7237 C   0  0  0  0  0  0  0  0  0  0  0  0
  -25.7542  -19.8145   30.5010 C   0  0  0  0  0  0  0  0  0  0  0  0
  -23.1378   -9.8649   21.3923 C   0  0  0  0  0  0  0  0  0  0  0  0
  -23.9047  -10.7011   23.5253 C   0  0  0  0  0  0  0  0  0  0  0  0
  -23.8480  -20.0053   31.9657 C   0  0  0  0  0  0  0  0  0  0  0  0
  -24.9402  -19.2495   29.5199 C   0  0  0  0  0  0  0  0  0  0  0  0
  -25.8012  -21.1946   24.9242 C   0  0  0  0  0  0  0  0  0  0  0  0
  -22.4243   -8.8586   22.0433 C   0  0  0  0  0  0  0  0  0  0  0  0
  -23.1911   -9.6949   24.1763 C   0  0  0  0  0  0  0  0  0  0  0  0
  -26.9281  -20.7394   24.2411 C   0  0  0  0  0  0  0  0  0  0  0  0
  -20.6905   -5.8511   23.1263 C   0  0  0  0  0  0  0  0  0  0  0  0
  -20.7769   -4.5569   22.6134 C   0  0  0  0  0  0  0  0  0  0  0  0
  -25.5359  -19.2549   22.9460 C   0  0  0  0  0  0  0  0  0  0  0  0
  -23.1664   -4.5750   22.9702 C   0  0  0  0  0  0  0  0  0  0  0  0
  -23.8781  -10.7861   22.1332 C   0  0  0  0  0  0  0  0  0  0  0  0
  -24.1553  -13.1120   21.1227 C   0  0  0  0  0  0  0  0  0  0  0  0
  -23.0150  -19.4467   30.9836 C   0  0  0  0  0  0  0  0  0  0  0  0
  -24.5325  -20.6746   24.6304 C   0  0  0  0  0  0  0  0  0  0  0  0
  -23.5676  -19.0542   29.7495 C   0  0  0  0  0  0  0  0  0  0  0  0
  -24.3942  -19.7070   23.6250 C   0  0  0  0  0  0  0  0  0  0  0  0
  -22.4509   -8.7736   23.4353 C   0  0  0  0  0  0  0  0  0  0  0  0
  -26.7960  -19.7673   23.2538 C   0  0  0  0  0  0  0  0  0  0  0  0
  -21.8421   -6.5074   23.5612 C   0  0  0  0  0  0  0  0  0  0  0  0
  -22.0149   -3.9189   22.5353 C   0  0  0  0  0  0  0  0  0  0  0  0
  -23.0800   -5.8693   23.4831 C   0  0  0  0  0  0  0  0  0  0  0  0
  -24.6158  -11.8255   21.4613 C   0  0  0  0  0  0  0  0  0  0  0  0
  -25.2269  -13.7086   20.5045 C   0  0  0  0  0  0  0  0  0  0  0  0
  -22.8735  -13.7139   21.3470 C   0  0  0  0  0  0  0  0  0  0  0  0
  -22.3359  -19.0609   26.2659 C   0  0  0  0  0  0  0  0  0  0  0  0
  -20.5756  -19.4958   23.5761 C   0  0  0  0  0  0  0  0  0  0  0  0
  -20.5181  -20.0765   20.2136 C   0  0  0  0  0  0  0  0  0  0  0  0
  -30.5603  -14.8660   20.0735 C   0  0  0  0  0  0  0  0  0  0  0  0
  -21.5596  -19.2212   31.3086 C   0  0  0  0  0  0  0  0  0  0  0  0
  -23.3234  -21.1955   25.3578 C   0  0  0  0  0  0  0  0  0  0  0  0
  -23.0518  -19.1313   23.2577 C   0  0  0  0  0  0  0  0  0  0  0  0
  -20.6940  -18.9609   30.0785 C   0  0  0  0  0  0  0  0  0  0  0  0
  -29.5960  -11.7729   18.8665 C   0  0  0  0  0  0  0  0  0  0  0  0
  -21.3625  -17.9419   29.1611 C   0  0  0  0  0  0  0  0  0  0  0  0
  -28.1731  -11.6033   19.3988 C   0  0  0  0  0  0  0  0  0  0  0  0
  -30.2702  -18.3678   21.2480 C   0  0  0  0  0  0  0  0  0  0  0  0
  -29.3605  -16.8313   23.0257 C   0  0  0  0  0  0  0  0  0  0  0  0
  -30.5032  -12.3947   19.9221 C   0  0  0  0  0  0  0  0  0  0  0  0
  -31.0741  -17.2024   20.6783 C   0  0  0  0  0  0  0  0  0  0  0  0
  -30.1853  -15.6970   22.4264 C   0  0  0  0  0  0  0  0  0  0  0  0
  -28.5902  -13.5525   20.9784 C   0  0  0  0  0  0  0  0  0  0  0  0
  -22.7123  -18.4609   28.6510 C   0  0  1  0  0  0  0  0  0  0  0  0
  -22.1472  -20.2242   25.3337 C   0  0  1  0  0  0  0  0  0  0  0  0
  -30.0070  -18.1955   22.7495 C   0  0  0  0  0  0  0  0  0  0  0  0
  -27.6259  -12.9333   19.9467 C   0  0  2  0  0  0  0  0  0  0  0  0
  -18.9319  -20.3424   18.2873 C   0  0  0  0  0  0  0  0  0  0  0  0
  -20.1268  -16.4781   23.5323 C   0  0  0  0  0  0  0  0  0  0  0  0
  -19.3829  -16.6934   21.1514 C   0  0  0  0  0  0  0  0  0  0  0  0
  -18.1089  -17.8412   22.9631 C   0  0  0  0  0  0  0  0  0  0  0  0
  -21.4474  -22.8350   19.6786 C   0  0  0  0  0  0  0  0  0  0  0  0
  -29.1332  -19.3285   23.2823 C   0  0  0  0  0  0  0  0  0  1  0  0
  -20.3792  -18.7280   22.2912 C   0  0  1  0  0  0  0  0  0  0  0  0
  -19.7194  -21.0574   19.3743 C   0  0  2  0  0  0  0  0  0  0  0  0
  -19.5251  -17.4444   22.4925 C   0  0  0  0  0  0  0  0  0  0  0  0
  -25.8814  -11.6163   21.0889 N   0  0  0  0  0  0  0  0  0  0  0  0
  -26.2252  -12.7793   20.5098 N   0  0  0  0  0  0  0  0  0  0  0  0
  -21.9004  -19.6683   24.0017 N   0  0  0  0  0  0  0  0  0  0  0  0
  -29.9469  -13.6527   20.4201 N   0  0  0  0  0  0  0  0  0  0  0  0
  -30.4547  -15.9173   20.9992 N   0  0  0  0  0  0  0  0  0  0  0  0
  -25.4032  -14.9322   19.9622 N   0  0  0  0  0  0  0  0  0  0  0  0
  -21.8861  -12.9606   21.9965 N   0  0  0  0  0  0  0  0  0  0  0  0
  -22.5150  -19.4224   27.5875 N   0  0  0  0  0  0  0  0  0  0  0  0
  -19.8193  -19.6739   21.3320 N   0  0  0  0  0  0  0  0  0  0  0  0
  -20.6284  -22.0435   18.7247 N   0  3  0  0  0  0  0  0  0  0  0  0
  -22.6062  -14.8793   20.9677 O   0  0  0  0  0  0  0  0  0  0  0  0
  -22.3187  -17.9199   25.8193 O   0  0  0  0  0  0  0  0  0  0  0  0
  -19.5904  -19.9327   24.1762 O   0  0  0  0  0  0  0  0  0  0  0  0
  -21.6475  -19.7020   19.9058 O   0  0  0  0  0  0  0  0  0  0  0  0
  -31.1622  -15.0058   19.0015 O   0  0  0  0  0  0  0  0  0  0  0  0
  -21.7545   -7.7919   24.0709 O   0  0  0  0  0  0  0  0  0  0  0  0
  -27.9044  -19.3167   22.5798 O   0  0  0  0  0  0  0  0  0  1  0  0
  -22.0975   -2.6755   22.0441 F   0  0  0  0  0  0  0  0  0  0  0  0
  -24.1896   -6.4942   23.9004 F   0  0  0  0  0  0  0  0  0  0  0  0
  1  2  1  0  0  0  0
  1  5  2  0  0  0  0
  2  6  2  0  0  0  0
  3  8  2  0  0  0  0
  3 15  1  0  0  0  0
  4  9  1  0  0  0  0
  4 15  2  0  0  0  0
  5 17  1  0  0  0  0
  6 19  1  0  0  0  0
  7 10  2  0  0  0  0
  7 18  1  0  0  0  0
  8 21  1  0  0  0  0
  9 21  2  0  0  0  0
 10 22  1  0  0  0  0
 11 12  2  0  0  0  0
 11 23  1  0  0  0  0
 12 24  1  0  0  0  0
 13 20  1  0  0  0  0
 13 22  2  0  0  0  0
 14 24  2  0  0  0  0
 14 25  1  0  0  0  0
 15 26  1  0  0  0  0
 16 26  1  0  0  0  0
 16 27  2  0  0  0  0
 16 28  1  0  0  0  0
 17 19  2  0  0  0  0
 17 33  1  0  0  0  0
 18 20  2  0  0  0  0
 18 34  1  0  0  0  0
 19 46  1  0  0  0  0
 20 35  1  0  0  0  0
 21 74  1  0  0  0  0
 22 75  1  0  0  0  0
 23 25  2  0  0  0  0
 23 74  1  0  0  0  0
 24 76  1  0  0  0  0
 25 77  1  0  0  0  0
 26 59  2  0  0  0  0
 27 60  1  0  0  0  0
 27 64  1  0  0  0  0
 28 65  1  0  0  0  0
 28 69  2  0  0  0  0
 29 47  1  0  0  0  0
 29 66  1  0  0  0  0
 29 70  2  0  0  0  0
 30 56  1  0  0  0  0
 30 61  1  0  0  0  0
 30 71  2  0  0  0  0
 31 57  1  0  0  0  0
 31 67  1  0  0  0  0
 31 72  2  0  0  0  0
 32 62  1  0  0  0  0
 32 63  1  0  0  0  0
 32 73  2  0  0  0  0
 33 36  1  0  0  0  0
 34 47  1  0  0  0  0
 35 61  1  0  0  0  0
 36 38  1  0  0  0  0
 37 39  1  0  0  0  0
 37 42  1  0  0  0  0
 38 46  1  0  0  0  0
 39 49  1  0  0  0  0
 40 43  1  0  0  0  0
 40 48  1  0  0  0  0
 41 44  1  0  0  0  0
 41 48  1  0  0  0  0
 42 62  1  0  0  0  0
 43 63  1  0  0  0  0
 44 63  1  0  0  0  0
 45 49  1  0  0  0  0
 45 62  1  0  0  0  0
 46 66  1  0  0  0  0
 47 61  1  0  0  0  0
 48 55  1  0  0  0  0
 49 60  1  0  0  0  0
 50 57  1  0  0  0  0
 51 58  1  0  0  0  0
 52 58  1  0  0  0  0
 53 58  1  0  0  0  0
 54 68  1  0  0  0  0
 55 75  1  0  0  0  0
 56 58  1  0  0  0  0
 56 67  1  0  0  0  0
 57 68  1  0  0  0  0
 59 60  1  0  0  0  0
M  CHG  1  68   1
M  ISO  4  32 100  55 101  63 100  75 101
M  END
> <Batch ID>
0113

> <Smiles>
CNC(C)C(=O)NC(C(=O)N1Cc2cc([101O:1][101CH2:1]C3CC[100N:0]([100C:0](=O)N4CCCC(n5nc(-c6ccc(Oc7ccc(F)cc7F)cc6)c(C(N)=O)c5N)C4)CC3)ccc2CC1C(=O)NC1CCCc2ccccc21)C(C)(C)C

> <Shape>
0.164

> <Color>
0.146

> <Negative vol penalty>
0.000

$$$$

  -OEChem-04052320053D

 84 92  0     1  0  0  0  0  0999 V2000
  -20.9815  -15.3784   13.1840 C   0  0  0  0  0  0  0  0  0  0  0  0
  -21.7016  -16.0558   14.1628 C   0  0  0  0  0  0  0  0  0  0  0  0
  -22.9973   -9.8995   19.9812 C   0  0  0  0  0  0  0  0  0  0  0  0
  -23.7313   -9.9422   22.2826 C   0  0  0  0  0  0  0  0  0  0  0  0
  -20.3135  -16.0938   12.1911 C   0  0  0  0  0  0  0  0  0  0  0  0
  -21.7551  -17.4491   14.1485 C   0  0  0  0  0  0  0  0  0  0  0  0
  -21.0534  -19.4673   18.7398 C   0  0  0  0  0  0  0  0  0  0  0  0
  -22.2316   -8.7642   20.2465 C   0  0  0  0  0  0  0  0  0  0  0  0
  -22.9656   -8.8069   22.5479 C   0  0  0  0  0  0  0  0  0  0  0  0
  -22.1355  -19.4419   19.6186 C   0  0  0  0  0  0  0  0  0  0  0  0
  -21.4882   -5.7099   23.7461 C   0  0  0  0  0  0  0  0  0  0  0  0
  -22.0769   -4.6913   24.4954 C   0  0  0  0  0  0  0  0  0  0  0  0
  -22.6145  -21.7453   19.0857 C   0  0  0  0  0  0  0  0  0  0  0  0
  -23.7968   -4.4498   22.8159 C   0  0  0  0  0  0  0  0  0  0  0  0
  -26.4392  -20.0802   20.8125 C   0  0  0  0  0  0  0  0  0  0  0  0
  -23.7472  -10.4885   20.9993 C   0  0  0  0  0  0  0  0  0  0  0  0
  -24.1323  -13.0046   20.8307 C   0  0  0  0  0  0  0  0  0  0  0  0
  -20.3509  -17.4970   12.1703 C   0  0  0  0  0  0  0  0  0  0  0  0
  -20.7498  -20.6305   18.0179 C   0  0  0  0  0  0  0  0  0  0  0  0
  -21.0881  -18.1839   13.1536 C   0  0  0  0  0  0  0  0  0  0  0  0
  -21.5265  -21.7836   18.2003 C   0  0  0  0  0  0  0  0  0  0  0  0
  -22.2157   -8.2179   21.5299 C   0  0  0  0  0  0  0  0  0  0  0  0
  -22.9179  -20.5802   19.7895 C   0  0  0  0  0  0  0  0  0  0  0  0
  -22.0537   -6.0983   22.5316 C   0  0  0  0  0  0  0  0  0  0  0  0
  -23.2313   -4.0613   24.0304 C   0  0  0  0  0  0  0  0  0  0  0  0
  -23.2080   -5.4683   22.0665 C   0  0  0  0  0  0  0  0  0  0  0  0
  -24.5388  -11.6609   20.7258 C   0  0  0  0  0  0  0  0  0  0  0  0
  -27.3259  -19.6697   19.8472 C   0  0  0  0  0  0  0  0  0  0  0  0
  -25.2073  -20.1813   20.1387 C   0  0  0  0  0  0  0  0  0  1  0  0
  -25.2407  -13.7283   20.4646 C   0  0  0  0  0  0  0  0  0  0  0  0
  -22.8659  -13.5499   21.2240 C   0  0  0  0  0  0  0  0  0  0  0  0
  -20.6313  -21.3896   14.9335 C   0  0  0  0  0  0  0  0  0  0  0  0
  -19.4572  -24.1924   16.0685 C   0  0  0  0  0  0  0  0  0  0  0  0
  -19.2184  -26.3939   18.6653 C   0  0  0  0  0  0  0  0  0  0  0  0
  -30.7382  -14.6612   20.6953 C   0  0  0  0  0  0  0  0  0  0  0  0
  -19.6522  -18.2252   11.0495 C   0  0  0  0  0  0  0  0  0  0  0  0
  -19.5631  -20.6497   17.0939 C   0  0  0  0  0  0  0  0  0  0  0  0
  -21.2303  -23.0639   17.4642 C   0  0  0  0  0  0  0  0  0  0  0  0
  -19.4494  -19.7132   11.3232 C   0  0  0  0  0  0  0  0  0  0  0  0
  -29.5881  -12.2460   18.3457 C   0  0  0  0  0  0  0  0  0  0  0  0
  -20.7346  -20.3379   11.8569 C   0  0  0  0  0  0  0  0  0  0  0  0
  -28.1412  -11.9850   18.7679 C   0  0  0  0  0  0  0  0  0  0  0  0
  -30.4952  -12.4769   19.5523 C   0  0  0  0  0  0  0  0  0  0  0  0
  -28.5903  -13.2680   20.9012 C   0  0  0  0  0  0  0  0  0  0  0  0
  -21.1494  -19.6957   13.1862 C   0  0  1  0  0  0  0  0  0  0  0  0
  -19.6563  -21.7331   16.0240 C   0  0  1  0  0  0  0  0  0  0  0  0
  -27.6267  -13.0847   19.7162 C   0  0  2  0  0  0  0  0  0  0  0  0
  -18.2229  -28.6137   19.2807 C   0  0  0  0  0  0  0  0  0  0  0  0
  -21.6276  -25.6092   14.4586 C   0  0  0  0  0  0  0  0  0  0  0  0
  -21.2031  -27.6633   15.8257 C   0  0  0  0  0  0  0  0  0  0  0  0
  -19.3886  -26.7216   14.3963 C   0  0  0  0  0  0  0  0  0  0  0  0
  -27.6778  -17.7239   17.4878 C   0  0  0  0  0  0  0  0  0  0  0  0
  -28.1742  -20.1344   16.9195 C   0  0  0  0  0  0  0  0  0  0  0  0
  -25.9951  -19.1149   16.3021 C   0  0  0  0  0  0  0  0  0  0  0  0
  -17.5842  -25.1940   20.8214 C   0  0  0  0  0  0  0  0  0  0  0  0
  -28.7704  -19.3827   19.9181 C   0  0  0  0  0  0  0  0  0  0  0  0
  -30.8258  -16.8359   21.8878 C   0  0  0  0  0  0  0  0  0  0  0  0
  -30.5736  -17.9631   20.9039 C   0  0  0  0  0  0  0  0  0  0  0  0
  -20.0606  -25.5045   16.5079 C   0  0  1  0  0  0  0  0  0  0  0  0
  -18.0247  -27.1059   19.2756 C   0  0  2  0  0  0  0  0  0  0  0  0
  -20.5770  -26.3501   15.3097 C   0  0  0  0  0  0  0  0  0  0  0  0
  -27.0863  -19.1484   17.4006 C   0  0  0  0  0  0  0  0  0  0  0  0
  -25.8065  -11.5356   20.3243 N   0  0  0  0  0  0  0  0  0  0  0  0
  -25.2992  -19.8607   18.8453 N   0  0  0  0  0  0  0  0  0  0  0  0
  -26.5995  -19.5543   18.6986 N   0  0  0  0  0  0  0  0  0  0  0  0
  -26.2061  -12.8099   20.1736 N   0  0  0  0  0  0  0  0  0  0  0  0
  -20.0632  -23.0306   16.5673 N   0  0  0  0  0  0  0  0  0  0  0  0
  -29.9518  -13.5327   20.4102 N   0  0  0  0  0  0  0  0  0  0  0  0
  -25.4740  -15.0543   20.3663 N   0  0  0  0  0  0  0  0  0  0  0  0
  -21.8353  -12.6647   21.5683 N   0  0  0  0  0  0  0  0  0  0  0  0
  -20.3421  -20.2121   14.2707 N   0  0  0  0  0  0  0  0  0  0  0  0
  -19.0447  -26.1708   17.3157 N   0  0  0  0  0  0  0  0  0  0  0  0
  -30.1451  -15.6172   21.5108 N   0  0  0  0  0  0  0  0  0  0  0  0
  -17.8152  -26.6547   20.6805 N   0  3  0  0  0  0  0  0  0  0  0  0
  -29.1269  -18.2897   20.8751 N   0  3  0  0  0  0  0  0  0  0  0  0
  -22.6495  -14.7851   21.2529 O   0  0  0  0  0  0  0  0  0  0  0  0
  -21.5752  -22.1382   14.7091 O   0  0  0  0  0  0  0  0  0  0  0  0
  -18.4796  -24.1981   15.3163 O   0  0  0  0  0  0  0  0  0  0  0  0
  -20.2076  -26.0714   19.3194 O   0  0  0  0  0  0  0  0  0  0  0  0
  -31.8819  -14.8084   20.2513 O   0  0  0  0  0  0  0  0  0  0  0  0
  -21.4684   -7.1102   21.7891 O   0  0  0  0  0  0  0  0  0  0  0  0
  -23.9751  -20.5579   20.6461 O   0  0  0  0  0  0  0  0  0  1  0  0
  -23.7974   -3.0843   24.7509 F   0  0  0  0  0  0  0  0  0  0  0  0
  -23.7565   -5.8380   20.9011 F   0  0  0  0  0  0  0  0  0  0  0  0
  1  2  1  0  0  0  0
  1  5  2  0  0  0  0
  2  6  2  0  0  0  0
  3  8  2  0  0  0  0
  3 16  1  0  0  0  0
  4  9  1  0  0  0  0
  4 16  2  0  0  0  0
  5 18  1  0  0  0  0
  6 20  1  0  0  0  0
  7 10  2  0  0  0  0
  7 19  1  0  0  0  0
  8 22  1  0  0  0  0
  9 22  2  0  0  0  0
 10 23  1  0  0  0  0
 11 12  2  0  0  0  0
 11 24  1  0  0  0  0
 12 25  1  0  0  0  0
 13 21  1  0  0  0  0
 13 23  2  0  0  0  0
 14 25  2  0  0  0  0
 14 26  1  0  0  0  0
 15 28  2  0  0  0  0
 15 29  1  0  0  0  0
 16 27  1  0  0  0  0
 17 27  1  0  0  0  0
 17 30  2  0  0  0  0
 17 31  1  0  0  0  0
 18 20  2  0  0  0  0
 18 36  1  0  0  0  0
 19 21  2  0  0  0  0
 19 37  1  0  0  0  0
 20 45  1  0  0  0  0
 21 38  1  0  0  0  0
 22 81  1  0  0  0  0
 23 82  1  0  0  0  0
 24 26  2  0  0  0  0
 24 81  1  0  0  0  0
 25 83  1  0  0  0  0
 26 84  1  0  0  0  0
 27 63  2  0  0  0  0
 28 56  1  0  0  0  0
 28 65  1  0  0  0  0
 29 64  2  0  0  0  0
 29 82  1  0  0  0  0
 30 66  1  0  0  0  0
 30 69  1  0  0  0  0
 31 70  1  0  0  0  0
 31 76  2  0  0  0  0
 32 46  1  0  0  0  0
 32 71  1  0  0  0  0
 32 77  2  0  0  0  0
 33 59  1  0  0  0  0
 33 67  1  0  0  0  0
 33 78  2  0  0  0  0
 34 60  1  0  0  0  0
 34 72  1  0  0  0  0
 34 79  2  0  0  0  0
 35 68  1  0  0  0  0
 35 73  1  0  0  0  0
 35 80  2  0  0  0  0
 36 39  1  0  0  0  0
 37 46  1  0  0  0  0
 38 67  1  0  0  0  0
 39 41  1  0  0  0  0
 40 42  1  0  0  0  0
 40 43  1  0  0  0  0
 41 45  1  0  0  0  0
 42 47  1  0  0  0  0
 43 68  1  0  0  0  0
 44 47  1  0  0  0  0
 44 68  1  0  0  0  0
 45 71  1  0  0  0  0
 46 67  1  0  0  0  0
 47 66  1  0  0  0  0
 48 60  1  0  0  0  0
 49 61  1  0  0  0  0
 50 61  1  0  0  0  0
 51 61  1  0  0  0  0
 52 62  1  0  0  0  0
 53 62  1  0  0  0  0
 54 62  1  0  0  0  0
 55 74  1  0  0  0  0
 56 75  1  0  0  0  0
 57 58  1  0  0  0  0
 57 73  1  0  0  0  0
 58 75  1  0  0  0  0
 59 61  1  0  0  0  0
 59 72  1  0  0  0  0
 60 74  1  0  0  0  0
 62 65  1  0  0  0  0
 63 66  1  0  0  0  0
 64 65  1  0  0  0  0
M  CHG  2  74   1  75   1
M  ISO  4  29 101  35 100  73 100  82 101
M  END
> <Batch ID>
0113

> <Smiles>
CNC(C)C(=O)NC(C(=O)N1Cc2cc([101O:1][101c:1]3cc(CNCC[100NH:0][100C:0](=O)N4CCCC(n5nc(-c6ccc(Oc7ccc(F)cc7F)cc6)c(C(N)=O)c5N)C4)n(C(C)(C)C)n3)ccc2CC1C(=O)NC1CCCc2ccccc21)C(C)(C)C

> <Shape>
0.202

> <Color>
0.189

> <Negative vol penalty>
0.000

$$$$

  -OEChem-04052320053D

 81 89  0     1  0  0  0  0  0999 V2000
  -21.8429  -28.0341   22.1257 C   0  0  0  0  0  0  0  0  0  0  0  0
  -22.4869  -26.8182   21.9204 C   0  0  0  0  0  0  0  0  0  0  0  0
  -23.7205   -9.8236   21.6875 C   0  0  0  0  0  0  0  0  0  0  0  0
  -24.3557  -10.9758   23.7138 C   0  0  0  0  0  0  0  0  0  0  0  0
  -22.4788  -29.2256   21.7795 C   0  0  0  0  0  0  0  0  0  0  0  0
  -23.7669  -26.7930   21.3677 C   0  0  0  0  0  0  0  0  0  0  0  0
  -28.2678  -22.8537   22.6828 C   0  0  0  0  0  0  0  0  0  0  0  0
  -23.1784   -8.7868   22.4469 C   0  0  0  0  0  0  0  0  0  0  0  0
  -23.8136   -9.9390   24.4733 C   0  0  0  0  0  0  0  0  0  0  0  0
  -28.7187  -21.6981   22.0463 C   0  0  0  0  0  0  0  0  0  0  0  0
  -20.7493   -8.9279   25.4774 C   0  0  0  0  0  0  0  0  0  0  0  0
  -19.9553   -9.2741   26.5707 C   0  0  0  0  0  0  0  0  0  0  0  0
  -30.4213  -22.9875   20.9248 C   0  0  0  0  0  0  0  0  0  0  0  0
  -21.4791   -8.1151   28.0443 C   0  0  0  0  0  0  0  0  0  0  0  0
  -24.3092  -10.9181   22.3209 C   0  0  0  0  0  0  0  0  0  0  0  0
  -24.2098  -13.1477   21.0854 C   0  0  0  0  0  0  0  0  0  0  0  0
  -23.7711  -29.2156   21.2313 C   0  0  0  0  0  0  0  0  0  0  0  0
  -28.8844  -24.0888   22.4363 C   0  0  0  0  0  0  0  0  0  0  0  0
  -24.4202  -27.9854   21.0127 C   0  0  0  0  0  0  0  0  0  0  0  0
  -29.9780  -24.1568   21.5614 C   0  0  0  0  0  0  0  0  0  0  0  0
  -23.2250   -8.8445   23.8398 C   0  0  0  0  0  0  0  0  0  0  0  0
  -29.7937  -21.7654   21.1650 C   0  0  0  0  0  0  0  0  0  0  0  0
  -21.9082   -8.1753   25.6675 C   0  0  0  0  0  0  0  0  0  0  0  0
  -20.3202   -8.8677   27.8541 C   0  0  0  0  0  0  0  0  0  0  0  0
  -22.2731   -7.7689   26.9510 C   0  0  0  0  0  0  0  0  0  0  0  0
  -24.8699  -11.9892   21.5370 C   0  0  0  0  0  0  0  0  0  0  0  0
  -25.1705  -13.8415   20.3908 C   0  0  0  0  0  0  0  0  0  0  0  0
  -22.8500  -13.5600   21.2767 C   0  0  0  0  0  0  0  0  0  0  0  0
  -27.9355  -26.8652   21.2138 C   0  0  0  0  0  0  0  0  0  0  0  0
  -30.9015  -27.8279   22.1076 C   0  0  0  0  0  0  0  0  0  0  0  0
  -34.1249  -26.9793   22.8399 C   0  0  0  0  0  0  0  0  0  0  0  0
  -31.0583  -13.9067   20.8209 C   0  0  0  0  0  0  0  0  0  0  0  0
  -24.3992  -30.5264   20.8291 C   0  0  0  0  0  0  0  0  0  0  0  0
  -28.4031  -25.3215   23.1513 C   0  0  0  0  0  0  0  0  0  0  0  0
  -30.6874  -25.4548   21.2781 C   0  0  0  0  0  0  0  0  0  0  0  0
  -25.9050  -30.4341   20.5959 C   0  0  0  0  0  0  0  0  0  0  0  0
  -29.1580  -13.1704   17.8302 C   0  0  0  0  0  0  0  0  0  0  0  0
  -26.2390  -29.2169   19.7394 C   0  0  0  0  0  0  0  0  0  0  0  0
  -35.0013  -14.6610   22.7971 C   0  0  0  0  0  0  0  0  0  0  0  0
  -33.6346  -14.8660   23.3887 C   0  0  0  0  0  0  0  0  0  0  0  0
  -27.7705  -12.8933   18.4119 C   0  0  0  0  0  0  0  0  0  0  0  0
  -30.2571  -12.6316   18.7413 C   0  0  0  0  0  0  0  0  0  0  0  0
  -28.8133  -12.8611   20.7253 C   0  0  0  0  0  0  0  0  0  0  0  0
  -25.8188  -27.9184   20.4385 C   0  0  1  0  0  0  0  0  0  0  0  0
  -28.7778  -26.6138   22.4324 C   0  0  1  0  0  0  0  0  0  0  0  0
  -33.7823  -14.1869   22.0554 C   0  0  0  0  0  0  0  0  0  0  0  0
  -27.6591  -13.4015   19.8616 C   0  0  2  0  0  0  0  0  0  0  0  0
  -36.3261  -27.9877   23.4994 C   0  0  0  0  0  0  0  0  0  0  0  0
  -34.4917  -14.9339   19.7907 C   0  0  0  0  0  0  0  0  0  0  0  0
  -31.3160  -28.7910   19.2422 C   0  0  0  0  0  0  0  0  0  0  0  0
  -33.7738  -28.8967   19.7072 C   0  0  0  0  0  0  0  0  0  0  0  0
  -32.1987  -30.3356   20.9999 C   0  0  0  0  0  0  0  0  0  0  0  0
  -34.1875  -25.4670   25.3831 C   0  0  0  0  0  0  0  0  0  0  0  0
  -32.8652  -16.3491   21.0551 C   0  0  0  0  0  0  0  0  0  0  0  0
  -32.4599  -17.1424   19.8161 C   0  0  0  0  0  0  0  0  0  0  0  0
  -31.7283  -19.4215   19.1026 C   0  0  0  0  0  0  0  0  0  0  0  0
  -31.3415  -20.7807   19.6514 C   0  0  0  0  0  0  0  0  0  1  0  0
  -32.2613  -27.8490   21.4523 C   0  0  1  0  0  0  0  0  0  0  0  0
  -35.0304  -27.3652   23.9956 C   0  0  2  0  0  0  0  0  0  0  0  0
  -33.3319  -14.8993   20.7706 C   0  0  2  0  0  0  0  0  0  0  0  0
  -32.3731  -28.9438   20.3540 C   0  0  0  0  0  0  0  0  0  0  0  0
  -26.1507  -11.9457   21.1608 N   0  0  0  0  0  0  0  0  0  0  0  0
  -26.3032  -13.0856   20.4654 N   0  0  0  0  0  0  0  0  0  0  0  0
  -30.1757  -26.6334   21.9968 N   0  0  0  0  0  0  0  0  0  0  0  0
  -30.1045  -13.1680   20.1011 N   0  0  0  0  0  0  0  0  0  0  0  0
  -25.1482  -15.0182   19.7296 N   0  0  0  0  0  0  0  0  0  0  0  0
  -21.9975  -12.7286   22.0158 N   0  0  0  0  0  0  0  0  0  0  0  0
  -26.7729  -27.5672   21.4685 N   0  0  0  0  0  0  0  0  0  0  0  0
  -33.2327  -27.9847   22.5323 N   0  0  0  0  0  0  0  0  0  0  0  0
  -32.2570  -14.1482   20.1611 N   0  0  0  0  0  0  0  0  0  0  0  0
  -35.3680  -26.1651   24.8122 N   0  3  0  0  0  0  0  0  0  0  0  0
  -32.0879  -18.5228   20.2283 N   0  3  0  0  0  0  0  0  0  0  0  0
  -22.3998  -14.6259   20.7923 O   0  0  0  0  0  0  0  0  0  0  0  0
  -28.3133  -26.4541   20.1229 O   0  0  0  0  0  0  0  0  0  0  0  0
  -30.5011  -28.8318   22.7021 O   0  0  0  0  0  0  0  0  0  0  0  0
  -34.2038  -25.8959   22.2649 O   0  0  0  0  0  0  0  0  0  0  0  0
  -30.8546  -14.3251   21.9657 O   0  0  0  0  0  0  0  0  0  0  0  0
  -22.6959   -7.8331   24.5812 O   0  0  0  0  0  0  0  0  0  0  0  0
  -30.2354  -20.6391   20.5418 O   0  0  0  0  0  0  0  0  0  1  0  0
  -19.5584   -9.2015   28.9041 F   0  0  0  0  0  0  0  0  0  0  0  0
  -23.3860   -7.0466   27.1401 F   0  0  0  0  0  0  0  0  0  0  0  0
  1  2  1  0  0  0  0
  1  5  2  0  0  0  0
  2  6  2  0  0  0  0
  3  8  2  0  0  0  0
  3 15  1  0  0  0  0
  4  9  1  0  0  0  0
  4 15  2  0  0  0  0
  5 17  1  0  0  0  0
  6 19  1  0  0  0  0
  7 10  2  0  0  0  0
  7 18  1  0  0  0  0
  8 21  1  0  0  0  0
  9 21  2  0  0  0  0
 10 22  1  0  0  0  0
 11 12  2  0  0  0  0
 11 23  1  0  0  0  0
 12 24  1  0  0  0  0
 13 20  1  0  0  0  0
 13 22  2  0  0  0  0
 14 24  2  0  0  0  0
 14 25  1  0  0  0  0
 15 26  1  0  0  0  0
 16 26  1  0  0  0  0
 16 27  2  0  0  0  0
 16 28  1  0  0  0  0
 17 19  2  0  0  0  0
 17 33  1  0  0  0  0
 18 20  2  0  0  0  0
 18 34  1  0  0  0  0
 19 44  1  0  0  0  0
 20 35  1  0  0  0  0
 21 78  1  0  0  0  0
 22 79  1  0  0  0  0
 23 25  2  0  0  0  0
 23 78  1  0  0  0  0
 24 80  1  0  0  0  0
 25 81  1  0  0  0  0
 26 62  2  0  0  0  0
 27 63  1  0  0  0  0
 27 66  1  0  0  0  0
 28 67  1  0  0  0  0
 28 73  2  0  0  0  0
 29 45  1  0  0  0  0
 29 68  1  0  0  0  0
 29 74  2  0  0  0  0
 30 58  1  0  0  0  0
 30 64  1  0  0  0  0
 30 75  2  0  0  0  0
 31 59  1  0  0  0  0
 31 69  1  0  0  0  0
 31 76  2  0  0  0  0
 32 65  1  0  0  0  0
 32 70  1  0  0  0  0
 32 77  2  0  0  0  0
 33 36  1  0  0  0  0
 34 45  1  0  0  0  0
 35 64  1  0  0  0  0
 36 38  1  0  0  0  0
 37 41  1  0  0  0  0
 37 42  1  0  0  0  0
 38 44  1  0  0  0  0
 39 40  1  0  0  0  0
 39 46  1  0  0  0  0
 40 46  1  0  0  0  0
 41 47  1  0  0  0  0
 42 65  1  0  0  0  0
 43 47  1  0  0  0  0
 43 65  1  0  0  0  0
 44 68  1  0  0  0  0
 45 64  1  0  0  0  0
 46 60  1  0  0  0  0
 47 63  1  0  0  0  0
 48 59  1  0  0  0  0
 49 60  1  0  0  0  0
 50 61  1  0  0  0  0
 51 61  1  0  0  0  0
 52 61  1  0  0  0  0
 53 71  1  0  0  0  0
 54 55  1  0  0  0  0
 54 60  1  0  0  0  0
 55 72  1  0  0  0  0
 56 57  1  0  0  0  0
 56 72  1  0  0  0  0
 57 79  1  0  0  0  0
 58 61  1  0  0  0  0
 58 69  1  0  0  0  0
 59 71  1  0  0  0  0
 60 70  1  0  0  0  0
 62 63  1  0  0  0  0
M  CHG  2  71   1  72   1
M  ISO  4  32 100  57 101  70 100  79 101
M  END
> <Batch ID>
0113

> <Smiles>
CNC(C)C(=O)NC(C(=O)N1Cc2cc([101O:1][101CH2:1]CNCCC(C)([100NH:0][100C:0](=O)N3CCCC(n4nc(-c5ccc(Oc6ccc(F)cc6F)cc5)c(C(N)=O)c4N)C3)C3CC3)ccc2CC1C(=O)NC1CCCc2ccccc21)C(C)(C)C

> <Shape>
0.215

> <Color>
0.150

> <Negative vol penalty>
0.000

$$$$

  -OEChem-04052320053D

 85 93  0     1  0  0  0  0  0999 V2000
  -24.9183  -17.4496   25.6006 C   0  0  0  0  0  0  0  0  0  0  0  0
  -25.2506  -18.5494   24.8160 C   0  0  0  0  0  0  0  0  0  0  0  0
  -25.5099  -15.6356   21.6716 C   0  0  0  0  0  0  0  0  0  0  0  0
  -24.9485  -16.5502   19.5070 C   0  0  0  0  0  0  0  0  0  0  0  0
  -23.6059  -16.9792   25.6195 C   0  0  0  0  0  0  0  0  0  0  0  0
  -24.2708  -19.1787   24.0490 C   0  0  0  0  0  0  0  0  0  0  0  0
  -24.4827  -24.2270   24.3888 C   0  0  0  0  0  0  0  0  0  0  0  0
  -24.2853  -14.9688   21.7075 C   0  0  0  0  0  0  0  0  0  0  0  0
  -23.7239  -15.8833   19.5428 C   0  0  0  0  0  0  0  0  0  0  0  0
  -25.4695  -24.8742   23.6464 C   0  0  0  0  0  0  0  0  0  0  0  0
  -22.9329  -12.1705   20.3758 C   0  0  0  0  0  0  0  0  0  0  0  0
  -22.9326  -10.8372   20.7856 C   0  0  0  0  0  0  0  0  0  0  0  0
  -23.8324  -25.4259   21.9627 C   0  0  0  0  0  0  0  0  0  0  0  0
  -29.3303  -27.3977   20.6553 C   0  0  0  0  0  0  0  0  0  0  0  0
  -21.4598  -11.4002   22.6162 C   0  0  0  0  0  0  0  0  0  0  0  0
  -28.0963  -27.0878   18.7976 C   0  0  0  0  0  0  0  0  0  0  0  0
  -25.8415  -16.4264   20.5714 C   0  0  0  0  0  0  0  0  0  0  0  0
  -28.3224  -16.6336   20.0146 C   0  0  0  0  0  0  0  0  0  0  0  0
  -22.6076  -17.6091   24.8598 C   0  0  0  0  0  0  0  0  0  0  0  0
  -23.1634  -24.1648   23.9176 C   0  0  0  0  0  0  0  0  0  0  0  0
  -22.9441  -18.7155   24.0567 C   0  0  0  0  0  0  0  0  0  0  0  0
  -22.8302  -24.7795   22.7022 C   0  0  0  0  0  0  0  0  0  0  0  0
  -28.0481  -27.5829   20.0821 C   0  0  0  0  0  0  0  0  0  0  0  0
  -23.3924  -15.0926   20.6431 C   0  0  0  0  0  0  0  0  0  0  0  0
  -25.1450  -25.4713   22.4318 C   0  0  0  0  0  0  0  0  0  0  0  0
  -22.1967  -13.1187   21.0862 C   0  0  0  0  0  0  0  0  0  0  0  0
  -22.1960  -10.4521   21.9058 C   0  0  0  0  0  0  0  0  0  0  0  0
  -21.4601  -12.7335   22.2064 C   0  0  0  0  0  0  0  0  0  0  0  0
  -27.1061  -17.1160   20.5340 C   0  0  0  0  0  0  0  0  0  0  0  0
  -30.1232  -26.7950   19.7037 C   0  0  0  0  0  0  0  0  0  0  0  0
  -29.2128  -17.6597   20.2162 C   0  0  0  0  0  0  0  0  0  0  0  0
  -28.6205  -15.3710   19.4042 C   0  0  0  0  0  0  0  0  0  0  0  0
  -21.1848  -21.8182   23.0916 C   0  0  0  0  0  0  0  0  0  0  0  0
  -19.0455  -24.2419   22.8247 C   0  0  0  0  0  0  0  0  0  0  0  0
  -18.4875  -27.5732   22.3368 C   0  0  0  0  0  0  0  0  0  0  0  0
  -30.4302  -23.0058   19.8308 C   0  0  0  0  0  0  0  0  0  0  0  0
  -21.2128  -17.0355   24.8758 C   0  0  0  0  0  0  0  0  0  0  0  0
  -22.1051  -23.4859   24.7432 C   0  0  0  0  0  0  0  0  0  0  0  0
  -21.4245  -24.7584   22.1621 C   0  0  0  0  0  0  0  0  0  0  0  0
  -20.1557  -17.9890   24.3245 C   0  0  0  0  0  0  0  0  0  0  0  0
  -28.8133  -21.8967   22.9269 C   0  0  0  0  0  0  0  0  0  0  0  0
  -20.6305  -18.6136   23.0163 C   0  0  0  0  0  0  0  0  0  0  0  0
  -28.2916  -20.5219   22.5157 C   0  0  0  0  0  0  0  0  0  0  0  0
  -28.7583  -22.8949   21.7717 C   0  0  0  0  0  0  0  0  0  0  0  0
  -28.9355  -21.0510   20.1294 C   0  0  0  0  0  0  0  0  0  0  0  0
  -21.9042  -19.4403   23.2300 C   0  0  1  0  0  0  0  0  0  0  0  0
  -20.9007  -23.0389   23.9203 C   0  0  1  0  0  0  0  0  0  0  0  0
  -29.0190  -20.0134   21.2603 C   0  0  2  0  0  0  0  0  0  0  0  0
  -27.4108  -30.5703   19.9413 C   0  0  0  0  0  0  0  0  0  0  0  0
  -16.6322  -29.2504   22.1314 C   0  0  0  0  0  0  0  0  0  0  0  0
  -32.1942  -26.6917   21.1554 C   0  0  0  0  0  0  0  0  0  0  0  0
  -32.4176  -27.0278   18.6596 C   0  0  0  0  0  0  0  0  0  0  0  0
  -18.4719  -23.2571   19.9943 C   0  0  0  0  0  0  0  0  0  0  0  0
  -17.3748  -25.4582   19.5256 C   0  0  0  0  0  0  0  0  0  0  0  0
  -16.4475  -23.9543   21.2866 C   0  0  0  0  0  0  0  0  0  0  0  0
  -29.8104  -26.0099   17.3416 C   0  0  0  0  0  0  0  0  0  0  0  0
  -19.4342  -29.0827   24.6998 C   0  0  0  0  0  0  0  0  0  0  0  0
  -26.3473  -29.4826   20.0338 C   0  0  0  0  0  0  0  0  0  0  0  0
  -25.6900  -27.1985   20.8904 C   0  0  0  0  0  0  0  0  0  1  0  0
  -26.8388  -28.2126   20.7596 C   0  0  1  0  0  0  0  0  0  0  0  0
  -18.6195  -25.1747   21.7168 C   0  0  1  0  0  0  0  0  0  0  0  0
  -17.6084  -28.5660   23.0756 C   0  0  2  0  0  0  0  0  0  0  0  0
  -31.5394  -26.3799   19.7743 C   0  0  0  0  0  0  0  0  0  0  0  0
  -17.7554  -24.4600   20.6398 C   0  0  0  0  0  0  0  0  0  0  0  0
  -27.2108  -18.3523   21.0287 N   0  0  0  0  0  0  0  0  0  0  0  0
  -29.3626  -26.6117   18.5785 N   0  0  0  0  0  0  0  0  0  0  0  0
  -28.5035  -18.6554   20.8210 N   0  0  0  0  0  0  0  0  0  0  0  0
  -20.4264  -24.0769   23.0029 N   0  0  0  0  0  0  0  0  0  0  0  0
  -29.4249  -22.3609   20.5747 N   0  0  0  0  0  0  0  0  0  0  0  0
  -30.5256  -17.7984   19.9336 N   0  0  0  0  0  0  0  0  0  0  0  0
  -27.5890  -14.4310   19.2754 N   0  0  0  0  0  0  0  0  0  0  0  0
  -21.5828  -20.7185   23.8278 N   0  0  0  0  0  0  0  0  0  0  0  0
  -17.9559  -26.3012   22.3643 N   0  0  0  0  0  0  0  0  0  0  0  0
  -30.8069  -24.2567   20.2973 N   0  0  0  0  0  0  0  0  0  0  0  0
  -18.4445  -29.6135   23.7272 N   0  3  0  0  0  0  0  0  0  0  0  0
  -31.7952  -24.9304   19.6016 N   0  3  0  0  0  0  0  0  0  0  0  0
  -29.7716  -15.0785   19.0004 O   0  0  0  0  0  0  0  0  0  0  0  0
  -21.0513  -21.8697   21.8746 O   0  0  0  0  0  0  0  0  0  0  0  0
  -18.1848  -23.6858   23.5115 O   0  0  0  0  0  0  0  0  0  0  0  0
  -19.5386  -27.8946   21.7869 O   0  0  0  0  0  0  0  0  0  0  0  0
  -30.9494  -22.4975   18.8308 O   0  0  0  0  0  0  0  0  0  0  0  0
  -22.1974  -14.4418   20.6776 O   0  0  0  0  0  0  0  0  0  0  0  0
  -26.1064  -26.1032   21.7049 O   0  0  0  0  0  0  0  0  0  1  0  0
  -22.1946   -9.1714   22.2983 F   0  0  0  0  0  0  0  0  0  0  0  0
  -20.7500  -13.6397   22.8922 F   0  0  0  0  0  0  0  0  0  0  0  0
  1  2  1  0  0  0  0
  1  5  2  0  0  0  0
  2  6  2  0  0  0  0
  3  8  2  0  0  0  0
  3 17  1  0  0  0  0
  4  9  1  0  0  0  0
  4 17  2  0  0  0  0
  5 19  1  0  0  0  0
  6 21  1  0  0  0  0
  7 10  2  0  0  0  0
  7 20  1  0  0  0  0
  8 24  1  0  0  0  0
  9 24  2  0  0  0  0
 10 25  1  0  0  0  0
 11 12  2  0  0  0  0
 11 26  1  0  0  0  0
 12 27  1  0  0  0  0
 13 22  1  0  0  0  0
 13 25  2  0  0  0  0
 14 23  1  0  0  0  0
 14 30  2  0  0  0  0
 15 27  2  0  0  0  0
 15 28  1  0  0  0  0
 16 23  2  0  0  0  0
 16 66  1  0  0  0  0
 17 29  1  0  0  0  0
 18 29  1  0  0  0  0
 18 31  2  0  0  0  0
 18 32  1  0  0  0  0
 19 21  2  0  0  0  0
 19 37  1  0  0  0  0
 20 22  2  0  0  0  0
 20 38  1  0  0  0  0
 21 46  1  0  0  0  0
 22 39  1  0  0  0  0
 23 60  1  0  0  0  0
 24 82  1  0  0  0  0
 25 83  1  0  0  0  0
 26 28  2  0  0  0  0
 26 82  1  0  0  0  0
 27 84  1  0  0  0  0
 28 85  1  0  0  0  0
 29 65  2  0  0  0  0
 30 63  1  0  0  0  0
 30 66  1  0  0  0  0
 31 67  1  0  0  0  0
 31 70  1  0  0  0  0
 32 71  1  0  0  0  0
 32 77  2  0  0  0  0
 33 47  1  0  0  0  0
 33 72  1  0  0  0  0
 33 78  2  0  0  0  0
 34 61  1  0  0  0  0
 34 68  1  0  0  0  0
 34 79  2  0  0  0  0
 35 62  1  0  0  0  0
 35 73  1  0  0  0  0
 35 80  2  0  0  0  0
 36 69  1  0  0  0  0
 36 74  1  0  0  0  0
 36 81  2  0  0  0  0
 37 40  1  0  0  0  0
 38 47  1  0  0  0  0
 39 68  1  0  0  0  0
 40 42  1  0  0  0  0
 41 43  1  0  0  0  0
 41 44  1  0  0  0  0
 42 46  1  0  0  0  0
 43 48  1  0  0  0  0
 44 69  1  0  0  0  0
 45 48  1  0  0  0  0
 45 69  1  0  0  0  0
 46 72  1  0  0  0  0
 47 68  1  0  0  0  0
 48 67  1  0  0  0  0
 49 58  1  0  0  0  0
 50 62  1  0  0  0  0
 51 63  1  0  0  0  0
 52 63  1  0  0  0  0
 53 64  1  0  0  0  0
 54 64  1  0  0  0  0
 55 64  1  0  0  0  0
 56 66  1  0  0  0  0
 57 75  1  0  0  0  0
 58 60  1  0  0  0  0
 59 60  1  0  0  0  0
 59 83  1  0  0  0  0
 61 64  1  0  0  0  0
 61 73  1  0  0  0  0
 62 75  1  0  0  0  0
 63 76  1  0  0  0  0
 65 67  1  0  0  0  0
 74 76  1  0  0  0  0
M  CHG  2  75   1  76   1
M  ISO  4  36 100  59 101  74 100  83 101
M  END
> <Batch ID>
0113

> <Smiles>
CCC(c1cc(C(C)(C)N[100NH:0][100C:0](=O)N2CCCC(n3nc(-c4ccc(Oc5ccc(F)cc5F)cc4)c(C(N)=O)c3N)C2)n(C)c1)[101CH2:1][101O:1]c1ccc2c(c1)CN(C(=O)C(NC(=O)C(C)NC)C(C)(C)C)C(C(=O)NC1CCCc3ccccc31)C2

> <Shape>
0.221

> <Color>
0.035

> <Negative vol penalty>
0.000

$$$$

  -OEChem-04052320053D

 85 93  0     1  0  0  0  0  0999 V2000
  -23.0487  -35.7176   24.2727 C   0  0  0  0  0  0  0  0  0  0  0  0
  -24.0779  -34.9189   23.7849 C   0  0  0  0  0  0  0  0  0  0  0  0
  -25.1272  -13.5626   22.0924 C   0  0  0  0  0  0  0  0  0  0  0  0
  -25.3580  -14.2272   19.7811 C   0  0  0  0  0  0  0  0  0  0  0  0
  -21.8974  -35.1282   24.7935 C   0  0  0  0  0  0  0  0  0  0  0  0
  -23.9570  -33.5301   23.8185 C   0  0  0  0  0  0  0  0  0  0  0  0
  -26.1212  -29.5454   19.7022 C   0  0  0  0  0  0  0  0  0  0  0  0
  -24.2376  -12.5569   21.7144 C   0  0  0  0  0  0  0  0  0  0  0  0
  -24.4684  -13.2215   19.4031 C   0  0  0  0  0  0  0  0  0  0  0  0
  -27.2694  -28.7550   19.6755 C   0  0  0  0  0  0  0  0  0  0  0  0
  -24.4054   -9.4582   20.3718 C   0  0  0  0  0  0  0  0  0  0  0  0
  -24.5773   -8.1946   20.9369 C   0  0  0  0  0  0  0  0  0  0  0  0
  -26.0012  -26.8942   20.5406 C   0  0  0  0  0  0  0  0  0  0  0  0
  -28.0798  -24.9205   17.4500 C   0  0  0  0  0  0  0  0  0  0  0  0
  -22.3580   -8.3163   21.8841 C   0  0  0  0  0  0  0  0  0  0  0  0
  -28.6397  -22.2883   17.9015 C   0  0  0  0  0  0  0  0  0  0  0  0
  -25.6873  -14.3977   21.1258 C   0  0  0  0  0  0  0  0  0  0  0  0
  -28.0057  -15.3369   21.6265 C   0  0  0  0  0  0  0  0  0  0  0  0
  -21.7583  -33.7317   24.8247 C   0  0  0  0  0  0  0  0  0  0  0  0
  -24.9048  -29.0184   20.1593 C   0  0  0  0  0  0  0  0  0  0  0  0
  -22.8034  -32.9214   24.3415 C   0  0  0  0  0  0  0  0  0  0  0  0
  -24.8385  -27.6792   20.5697 C   0  0  0  0  0  0  0  0  0  0  0  0
  -29.2050  -24.5801   18.1926 C   0  0  0  0  0  0  0  0  0  0  0  0
  -29.4973  -23.2411   18.4271 C   0  0  0  0  0  0  0  0  0  0  0  0
  -23.9082  -12.3863   20.3698 C   0  0  0  0  0  0  0  0  0  0  0  0
  -27.2102  -27.4300   20.0974 C   0  0  0  0  0  0  0  0  0  0  0  0
  -23.2098  -10.1509   20.5629 C   0  0  0  0  0  0  0  0  0  0  0  0
  -23.5536   -7.6236   21.6931 C   0  0  0  0  0  0  0  0  0  0  0  0
  -22.1862   -9.5799   21.3190 C   0  0  0  0  0  0  0  0  0  0  0  0
  -26.6059  -15.4371   21.5157 C   0  0  0  0  0  0  0  0  0  0  0  0
  -27.2857  -23.8925   16.9679 C   0  0  0  0  0  0  0  0  0  0  0  0
  -28.4089  -16.5878   22.0256 C   0  0  0  0  0  0  0  0  0  0  0  0
  -28.8647  -14.2137   21.3898 C   0  0  0  0  0  0  0  0  0  0  0  0
  -22.9315  -29.6868   22.5600 C   0  0  0  0  0  0  0  0  0  0  0  0
  -21.0618  -27.4544   21.1306 C   0  0  0  0  0  0  0  0  0  0  0  0
  -20.8516  -24.7283   19.0883 C   0  0  0  0  0  0  0  0  0  0  0  0
  -28.1562  -22.1471   21.6060 C   0  0  0  0  0  0  0  0  0  0  0  0
  -20.5153  -33.1396   25.4406 C   0  0  0  0  0  0  0  0  0  0  0  0
  -23.6694  -29.8763   20.1567 C   0  0  0  0  0  0  0  0  0  0  0  0
  -23.5525  -27.0598   21.0501 C   0  0  0  0  0  0  0  0  0  0  0  0
  -20.3071  -31.6671   25.0962 C   0  0  0  0  0  0  0  0  0  0  0  0
  -25.7194  -20.5506   23.6531 C   0  0  0  0  0  0  0  0  0  0  0  0
  -21.6058  -30.8877   25.2770 C   0  0  0  0  0  0  0  0  0  0  0  0
  -25.8441  -19.0714   23.2841 C   0  0  0  0  0  0  0  0  0  0  0  0
  -25.9288  -21.4545   22.4401 C   0  0  0  0  0  0  0  0  0  0  0  0
  -27.3075  -19.7386   21.3316 C   0  0  0  0  0  0  0  0  0  0  0  0
  -22.6990  -31.4117   24.3380 C   0  0  1  0  0  0  0  0  0  0  0  0
  -22.5987  -29.3851   21.1262 C   0  0  1  0  0  0  0  0  0  0  0  0
  -27.1595  -18.7897   22.5333 C   0  0  2  0  0  0  0  0  0  0  0  0
  -26.0700  -24.2207   16.1672 C   0  0  0  0  0  0  0  0  0  0  0  0
  -31.2361  -26.0016   17.7619 C   0  0  0  0  0  0  0  0  0  0  0  0
  -19.1935  -23.1016   18.1387 C   0  0  0  0  0  0  0  0  0  0  0  0
  -20.9237  -26.0269   23.8238 C   0  0  0  0  0  0  0  0  0  0  0  0
  -20.0956  -23.9915   22.6238 C   0  0  0  0  0  0  0  0  0  0  0  0
  -18.7616  -26.0986   22.5690 C   0  0  0  0  0  0  0  0  0  0  0  0
  -21.4779  -25.5334   16.3101 C   0  0  0  0  0  0  0  0  0  0  0  0
  -30.6887  -22.8210   19.2160 C   0  0  0  0  0  0  0  0  0  0  0  0
  -29.3024  -26.9533   19.0721 C   0  0  0  0  0  0  0  0  0  1  0  0
  -31.6645  -22.2219   21.4817 C   0  0  0  0  0  0  0  0  0  0  0  0
  -30.0979  -25.6845   18.7359 C   0  0  1  0  0  0  0  0  0  0  0  0
  -20.9094  -25.9567   21.2429 C   0  0  1  0  0  0  0  0  0  0  0  0
  -19.9334  -24.4123   17.9215 C   0  0  2  0  0  0  0  0  0  0  0  0
  -30.4154  -22.6848   20.7309 C   0  0  2  0  0  0  0  0  0  0  0  0
  -20.1974  -25.5304   22.5577 C   0  0  0  0  0  0  0  0  0  0  0  0
  -27.5375  -22.5805   17.1753 N   0  0  0  0  0  0  0  0  0  0  0  0
  -26.1504  -16.6553   21.8200 N   0  0  0  0  0  0  0  0  0  0  0  0
  -27.2705  -17.3321   22.1260 N   0  0  0  0  0  0  0  0  0  0  0  0
  -22.3732  -27.9411   21.0349 N   0  0  0  0  0  0  0  0  0  0  0  0
  -27.1944  -21.1372   21.7741 N   0  0  0  0  0  0  0  0  0  0  0  0
  -29.6228  -17.1126   22.2970 N   0  0  0  0  0  0  0  0  0  0  0  0
  -28.2856  -13.0034   20.9847 N   0  0  0  0  0  0  0  0  0  0  0  0
  -22.4874  -30.9216   22.9929 N   0  0  0  0  0  0  0  0  0  0  0  0
  -20.2291  -25.5234   20.0273 N   0  0  0  0  0  0  0  0  0  0  0  0
  -29.3298  -21.7603   20.9707 N   0  0  0  0  0  0  0  0  0  0  0  0
  -20.7181  -24.3054   16.6591 N   0  3  0  0  0  0  0  0  0  0  0  0
  -30.1074  -14.2767   21.5490 O   0  0  0  0  0  0  0  0  0  0  0  0
  -23.5445  -28.8598   23.2249 O   0  0  0  0  0  0  0  0  0  0  0  0
  -20.0541  -28.1658   21.1208 O   0  0  0  0  0  0  0  0  0  0  0  0
  -22.0044  -24.3086   19.1615 O   0  0  0  0  0  0  0  0  0  0  0  0
  -27.9840  -23.3061   21.9982 O   0  0  0  0  0  0  0  0  0  0  0  0
  -31.3772  -22.1417   22.8733 O   0  0  0  0  0  0  0  0  0  0  0  0
  -23.0404  -11.4050   20.0005 O   0  0  0  0  0  0  0  0  0  0  0  0
  -28.3295  -26.6565   20.0730 O   0  0  0  0  0  0  0  0  0  1  0  0
  -23.7183   -6.4095   22.2344 F   0  0  0  0  0  0  0  0  0  0  0  0
  -21.0349  -10.2401   21.5051 F   0  0  0  0  0  0  0  0  0  0  0  0
  1  2  1  0  0  0  0
  1  5  2  0  0  0  0
  2  6  2  0  0  0  0
  3  8  2  0  0  0  0
  3 17  1  0  0  0  0
  4  9  1  0  0  0  0
  4 17  2  0  0  0  0
  5 19  1  0  0  0  0
  6 21  1  0  0  0  0
  7 10  2  0  0  0  0
  7 20  1  0  0  0  0
  8 25  1  0  0  0  0
  9 25  2  0  0  0  0
 10 26  1  0  0  0  0
 11 12  2  0  0  0  0
 11 27  1  0  0  0  0
 12 28  1  0  0  0  0
 13 22  1  0  0  0  0
 13 26  2  0  0  0  0
 14 23  1  0  0  0  0
 14 31  2  0  0  0  0
 15 28  2  0  0  0  0
 15 29  1  0  0  0  0
 16 24  1  0  0  0  0
 16 65  2  0  0  0  0
 17 30  1  0  0  0  0
 18 30  1  0  0  0  0
 18 32  2  0  0  0  0
 18 33  1  0  0  0  0
 19 21  2  0  0  0  0
 19 38  1  0  0  0  0
 20 22  2  0  0  0  0
 20 39  1  0  0  0  0
 21 47  1  0  0  0  0
 22 40  1  0  0  0  0
 23 24  2  0  0  0  0
 23 60  1  0  0  0  0
 24 57  1  0  0  0  0
 25 82  1  0  0  0  0
 26 83  1  0  0  0  0
 27 29  2  0  0  0  0
 27 82  1  0  0  0  0
 28 84  1  0  0  0  0
 29 85  1  0  0  0  0
 30 66  2  0  0  0  0
 31 50  1  0  0  0  0
 31 65  1  0  0  0  0
 32 67  1  0  0  0  0
 32 70  1  0  0  0  0
 33 71  1  0  0  0  0
 33 76  2  0  0  0  0
 34 48  1  0  0  0  0
 34 72  1  0  0  0  0
 34 77  2  0  0  0  0
 35 61  1  0  0  0  0
 35 68  1  0  0  0  0
 35 78  2  0  0  0  0
 36 62  1  0  0  0  0
 36 73  1  0  0  0  0
 36 79  2  0  0  0  0
 37 69  1  0  0  0  0
 37 74  1  0  0  0  0
 37 80  2  0  0  0  0
 38 41  1  0  0  0  0
 39 48  1  0  0  0  0
 40 68  1  0  0  0  0
 41 43  1  0  0  0  0
 42 44  1  0  0  0  0
 42 45  1  0  0  0  0
 43 47  1  0  0  0  0
 44 49  1  0  0  0  0
 45 69  1  0  0  0  0
 46 49  1  0  0  0  0
 46 69  1  0  0  0  0
 47 72  1  0  0  0  0
 48 68  1  0  0  0  0
 49 67  1  0  0  0  0
 51 60  1  0  0  0  0
 52 62  1  0  0  0  0
 53 64  1  0  0  0  0
 54 64  1  0  0  0  0
 55 64  1  0  0  0  0
 56 75  1  0  0  0  0
 57 63  1  0  0  0  0
 58 60  1  0  0  0  0
 58 83  1  0  0  0  0
 59 63  1  0  0  0  0
 59 81  1  0  0  0  0
 61 64  1  0  0  0  0
 61 73  1  0  0  0  0
 62 75  1  0  0  0  0
 63 74  1  0  0  0  0
 66 67  1  0  0  0  0
M  CHG  1  75   1
M  ISO  4  37 100  58 101  74 100  83 101
M  END
> <Batch ID>
0113

> <Smiles>
CNC(C)C(=O)NC(C(=O)N1Cc2cc([101O:1][101CH2:1]C(C)c3cc(C)ncc3CC(CO)[100NH:0][100C:0](=O)N3CCCC(n4nc(-c5ccc(Oc6ccc(F)cc6F)cc5)c(C(N)=O)c4N)C3)ccc2CC1C(=O)NC1CCCc2ccccc21)C(C)(C)C

> <Shape>
0.266

> <Color>
0.081

> <Negative vol penalty>
0.000

$$$$

  -OEChem-04052320053D

 84 92  0     1  0  0  0  0  0999 V2000
  -19.8822  -23.7369   22.2483 C   0  0  0  0  0  0  0  0  0  0  0  0
  -21.0524  -24.1494   21.6192 C   0  0  0  0  0  0  0  0  0  0  0  0
  -31.5827  -20.5303   18.6232 C   0  0  0  0  0  0  0  0  0  0  0  0
  -24.6700  -12.1836   20.8173 C   0  0  0  0  0  0  0  0  0  0  0  0
  -25.3421  -12.8767   18.6026 C   0  0  0  0  0  0  0  0  0  0  0  0
  -18.9651  -24.6838   22.7023 C   0  0  0  0  0  0  0  0  0  0  0  0
  -21.3058  -25.5092   21.4428 C   0  0  0  0  0  0  0  0  0  0  0  0
  -26.0693  -26.7661   22.6150 C   0  0  0  0  0  0  0  0  0  0  0  0
  -31.7307  -21.3843   17.5304 C   0  0  0  0  0  0  0  0  0  0  0  0
  -30.5646  -20.7537   19.5501 C   0  0  0  0  0  0  0  0  0  0  0  0
  -24.0690  -11.0458   20.2789 C   0  0  0  0  0  0  0  0  0  0  0  0
  -24.7411  -11.7389   18.0642 C   0  0  0  0  0  0  0  0  0  0  0  0
  -27.0559  -26.4679   21.6762 C   0  0  0  0  0  0  0  0  0  0  0  0
  -21.1962  -10.2685   18.6767 C   0  0  0  0  0  0  0  0  0  0  0  0
  -19.9238   -9.9293   19.1367 C   0  0  0  0  0  0  0  0  0  0  0  0
  -27.0271  -28.7606   20.9266 C   0  0  0  0  0  0  0  0  0  0  0  0
  -20.7703   -7.8026   19.9099 C   0  0  0  0  0  0  0  0  0  0  0  0
  -25.3065  -13.0991   19.9792 C   0  0  0  0  0  0  0  0  0  0  0  0
  -27.2565  -14.4051   20.9787 C   0  0  0  0  0  0  0  0  0  0  0  0
  -19.2118  -26.0562   22.5400 C   0  0  0  0  0  0  0  0  0  0  0  0
  -25.5455  -28.0634   22.7095 C   0  0  0  0  0  0  0  0  0  0  0  0
  -20.3905  -26.4754   21.8939 C   0  0  0  0  0  0  0  0  0  0  0  0
  -26.0357  -29.0733   21.8692 C   0  0  0  0  0  0  0  0  0  0  0  0
  -30.8607  -22.4619   17.3645 C   0  0  0  0  0  0  0  0  0  0  0  0
  -29.6945  -21.8313   19.3843 C   0  0  0  0  0  0  0  0  0  0  0  0
  -29.8426  -22.6854   18.2915 C   0  0  0  0  0  0  0  0  0  0  0  0
  -24.1045  -10.8235   18.9024 C   0  0  0  0  0  0  0  0  0  0  0  0
  -27.5329  -27.4645   20.8298 C   0  0  0  0  0  0  0  0  0  0  0  0
  -22.2556   -9.3747   18.8332 C   0  0  0  0  0  0  0  0  0  0  0  0
  -19.7109   -8.6964   19.7533 C   0  0  0  0  0  0  0  0  0  0  0  0
  -22.0427   -8.1418   19.4498 C   0  0  0  0  0  0  0  0  0  0  0  0
  -25.9270  -14.2748   20.5347 C   0  0  0  0  0  0  0  0  0  0  0  0
  -27.3479  -15.7052   21.4123 C   0  0  0  0  0  0  0  0  0  0  0  0
  -28.3144  -13.4376   20.9974 C   0  0  0  0  0  0  0  0  0  0  0  0
  -22.6672  -29.3544   22.3189 C   0  0  0  0  0  0  0  0  0  0  0  0
  -24.1507  -32.0313   23.3940 C   0  0  0  0  0  0  0  0  0  0  0  0
  -27.0628  -33.7617   23.8087 C   0  0  0  0  0  0  0  0  0  0  0  0
  -26.3239  -21.1480   20.7251 C   0  0  0  0  0  0  0  0  0  0  0  0
  -18.1687  -27.0413   23.0050 C   0  0  0  0  0  0  0  0  0  0  0  0
  -24.5007  -28.3751   23.7456 C   0  0  0  0  0  0  0  0  0  0  0  0
  -25.5210  -30.4867   21.9442 C   0  0  0  0  0  0  0  0  0  0  0  0
  -18.6883  -28.4725   23.1141 C   0  0  0  0  0  0  0  0  0  0  0  0
  -23.7513  -19.1746   22.1962 C   0  0  0  0  0  0  0  0  0  0  0  0
  -19.4856  -28.8474   21.8689 C   0  0  0  0  0  0  0  0  0  0  0  0
  -24.1945  -17.7357   21.9262 C   0  0  0  0  0  0  0  0  0  0  0  0
  -24.1004  -20.1003   21.0329 C   0  0  0  0  0  0  0  0  0  0  0  0
  -25.9599  -18.6331   20.3524 C   0  0  0  0  0  0  0  0  0  0  0  0
  -20.7126  -27.9421   21.7061 C   0  0  1  0  0  0  0  0  0  0  0  0
  -23.6723  -29.6104   23.4060 C   0  0  1  0  0  0  0  0  0  0  0  0
  -25.6795  -17.6730   21.5211 C   0  0  2  0  0  0  0  0  0  0  0  0
  -31.0406  -23.3614   16.1855 C   0  0  0  0  0  0  0  0  0  0  0  0
  -29.1567  -22.2871   21.8059 C   0  0  0  0  0  0  0  0  0  0  0  0
  -27.9533  -35.9383   24.6843 C   0  0  0  0  0  0  0  0  0  0  0  0
  -28.2373  -26.8178   17.5531 C   0  0  0  0  0  0  0  0  0  0  0  0
  -23.1179  -33.4542   20.9004 C   0  0  0  0  0  0  0  0  0  0  0  0
  -24.7811  -35.2744   21.3350 C   0  0  0  0  0  0  0  0  0  0  0  0
  -22.9857  -34.8038   23.0017 C   0  0  0  0  0  0  0  0  0  0  0  0
  -28.7355  -32.3964   25.8328 C   0  0  0  0  0  0  0  0  0  0  0  0
  -28.9021  -23.8503   18.1122 C   0  0  0  0  0  0  0  0  0  0  0  0
  -29.1911  -25.0298   19.0522 C   0  0  0  0  0  0  0  0  0  0  0  0
  -28.6124  -22.0482   20.3911 C   0  0  2  0  0  0  0  0  0  0  0  0
  -24.8995  -33.1715   22.7474 C   0  0  1  0  0  0  0  0  0  0  0  0
  -27.6418  -34.4860   25.0106 C   0  0  2  0  0  0  0  0  0  0  0  0
  -28.1854  -26.1818   18.9364 C   0  0  1  0  0  0  0  0  0  1  0  0
  -23.9546  -34.1490   21.9931 C   0  0  0  0  0  0  0  0  0  0  0  0
  -25.2242  -15.4021   20.6736 N   0  0  0  0  0  0  0  0  0  0  0  0
  -26.1154  -16.2531   21.2099 N   0  0  0  0  0  0  0  0  0  0  0  0
  -24.4952  -30.7402   22.9694 N   0  0  0  0  0  0  0  0  0  0  0  0
  -25.5229  -19.9944   20.6997 N   0  0  0  0  0  0  0  0  0  0  0  0
  -28.3613  -16.4216   21.9433 N   0  0  0  0  0  0  0  0  0  0  0  0
  -28.0497  -12.1487   20.5146 N   0  0  0  0  0  0  0  0  0  0  0  0
  -21.7651  -28.3495   22.6120 N   0  0  0  0  0  0  0  0  0  0  0  0
  -25.6844  -33.7969   23.8063 N   0  0  0  0  0  0  0  0  0  0  0  0
  -27.6621  -20.9585   20.4026 N   0  0  0  0  0  0  0  0  0  0  0  0
  -28.9001  -33.8243   25.4575 N   0  3  0  0  0  0  0  0  0  0  0  0
  -29.4559  -13.7032   21.4447 O   0  0  0  0  0  0  0  0  0  0  0  0
  -22.7063  -30.0203   21.2909 O   0  0  0  0  0  0  0  0  0  0  0  0
  -23.2968  -32.2767   24.2497 O   0  0  0  0  0  0  0  0  0  0  0  0
  -27.7634  -33.2220   22.9552 O   0  0  0  0  0  0  0  0  0  0  0  0
  -25.8805  -22.2634   21.0190 O   0  0  0  0  0  0  0  0  0  0  0  0
  -23.5184   -9.7132   18.3767 O   0  0  0  0  0  0  0  0  0  0  0  0
  -28.4954  -27.1759   19.9121 O   0  0  0  0  0  0  0  0  0  1  0  0
  -18.4893   -8.3714   20.1964 F   0  0  0  0  0  0  0  0  0  0  0  0
  -23.0568   -7.2795   19.6040 F   0  0  0  0  0  0  0  0  0  0  0  0
  1  2  1  0  0  0  0
  1  6  2  0  0  0  0
  2  7  2  0  0  0  0
  3  9  1  0  0  0  0
  3 10  2  0  0  0  0
  4 11  2  0  0  0  0
  4 18  1  0  0  0  0
  5 12  1  0  0  0  0
  5 18  2  0  0  0  0
  6 20  1  0  0  0  0
  7 22  1  0  0  0  0
  8 13  2  0  0  0  0
  8 21  1  0  0  0  0
  9 24  2  0  0  0  0
 10 25  1  0  0  0  0
 11 27  1  0  0  0  0
 12 27  2  0  0  0  0
 13 28  1  0  0  0  0
 14 15  2  0  0  0  0
 14 29  1  0  0  0  0
 15 30  1  0  0  0  0
 16 23  1  0  0  0  0
 16 28  2  0  0  0  0
 17 30  2  0  0  0  0
 17 31  1  0  0  0  0
 18 32  1  0  0  0  0
 19 32  1  0  0  0  0
 19 33  2  0  0  0  0
 19 34  1  0  0  0  0
 20 22  2  0  0  0  0
 20 39  1  0  0  0  0
 21 23  2  0  0  0  0
 21 40  1  0  0  0  0
 22 48  1  0  0  0  0
 23 41  1  0  0  0  0
 24 26  1  0  0  0  0
 24 51  1  0  0  0  0
 25 26  2  0  0  0  0
 25 61  1  0  0  0  0
 26 59  1  0  0  0  0
 27 81  1  0  0  0  0
 28 82  1  0  0  0  0
 29 31  2  0  0  0  0
 29 81  1  0  0  0  0
 30 83  1  0  0  0  0
 31 84  1  0  0  0  0
 32 66  2  0  0  0  0
 33 67  1  0  0  0  0
 33 70  1  0  0  0  0
 34 71  1  0  0  0  0
 34 76  2  0  0  0  0
 35 49  1  0  0  0  0
 35 72  1  0  0  0  0
 35 77  2  0  0  0  0
 36 62  1  0  0  0  0
 36 68  1  0  0  0  0
 36 78  2  0  0  0  0
 37 63  1  0  0  0  0
 37 73  1  0  0  0  0
 37 79  2  0  0  0  0
 38 69  1  0  0  0  0
 38 74  1  0  0  0  0
 38 80  2  0  0  0  0
 39 42  1  0  0  0  0
 40 49  1  0  0  0  0
 41 68  1  0  0  0  0
 42 44  1  0  0  0  0
 43 45  1  0  0  0  0
 43 46  1  0  0  0  0
 44 48  1  0  0  0  0
 45 50  1  0  0  0  0
 46 69  1  0  0  0  0
 47 50  1  0  0  0  0
 47 69  1  0  0  0  0
 48 72  1  0  0  0  0
 49 68  1  0  0  0  0
 50 67  1  0  0  0  0
 52 61  1  0  0  0  0
 53 63  1  0  0  0  0
 54 64  1  0  0  0  0
 55 65  1  0  0  0  0
 56 65  1  0  0  0  0
 57 65  1  0  0  0  0
 58 75  1  0  0  0  0
 59 60  1  0  0  0  0
 60 64  1  0  0  0  0
 61 74  1  0  0  0  0
 62 65  1  0  0  0  0
 62 73  1  0  0  0  0
 63 75  1  0  0  0  0
 64 82  1  0  0  0  0
 66 67  1  0  0  0  0
M  CHG  1  75   1
M  ISO  4  38 100  64 101  74 100  82 101
M  END
> <Batch ID>
0113

> <Smiles>
CNC(C)C(=O)NC(C(=O)N1Cc2cc([101O:1][101CH:1](C)CCc3c(C)cccc3C(C)[100NH:0][100C:0](=O)N3CCCC(n4nc(-c5ccc(Oc6ccc(F)cc6F)cc5)c(C(N)=O)c4N)C3)ccc2CC1C(=O)NC1CCCc2ccccc21)C(C)(C)C

> <Shape>
0.276

> <Color>
0.094

> <Negative vol penalty>
0.000

$$$$

  -OEChem-04052320053D

 86 94  0     1  0  0  0  0  0999 V2000
  -16.6785  -26.5714   22.2854 C   0  0  0  0  0  0  0  0  0  0  0  0
  -17.9584  -26.0604   22.0952 C   0  0  0  0  0  0  0  0  0  0  0  0
  -24.5900   -8.5615   21.3851 C   0  0  0  0  0  0  0  0  0  0  0  0
  -23.3453  -10.5234   22.0475 C   0  0  0  0  0  0  0  0  0  0  0  0
  -16.4495  -27.9407   22.1566 C   0  0  0  0  0  0  0  0  0  0  0  0
  -19.0100  -26.9184   21.7751 C   0  0  0  0  0  0  0  0  0  0  0  0
  -23.1994  -25.9375   24.4455 C   0  0  0  0  0  0  0  0  0  0  0  0
  -23.9511   -7.8205   22.3792 C   0  0  0  0  0  0  0  0  0  0  0  0
  -22.7063   -9.7824   23.0416 C   0  0  0  0  0  0  0  0  0  0  0  0
  -23.9727  -24.8503   24.0405 C   0  0  0  0  0  0  0  0  0  0  0  0
  -20.9550   -6.3193   22.8297 C   0  0  0  0  0  0  0  0  0  0  0  0
  -20.4735   -5.0556   22.4879 C   0  0  0  0  0  0  0  0  0  0  0  0
  -25.4870  -26.3541   22.9159 C   0  0  0  0  0  0  0  0  0  0  0  0
  -21.8997   -4.0588   24.1640 C   0  0  0  0  0  0  0  0  0  0  0  0
  -24.2871   -9.9130   21.2193 C   0  0  0  0  0  0  0  0  0  0  0  0
  -24.5241  -10.8601   18.8625 C   0  0  0  0  0  0  0  0  0  0  0  0
  -17.5007  -28.8171   21.8442 C   0  0  0  0  0  0  0  0  0  0  0  0
  -23.5588  -27.2424   24.0789 C   0  0  0  0  0  0  0  0  0  0  0  0
  -18.7946  -28.3005   21.6407 C   0  0  0  0  0  0  0  0  0  0  0  0
  -24.7180  -27.4563   23.3196 C   0  0  0  0  0  0  0  0  0  0  0  0
  -23.0092   -8.4309   23.2075 C   0  0  0  0  0  0  0  0  0  0  0  0
  -25.1151  -25.0583   23.2731 C   0  0  0  0  0  0  0  0  0  0  0  0
  -21.9089   -6.4527   23.8387 C   0  0  0  0  0  0  0  0  0  0  0  0
  -20.9458   -3.9254   23.1550 C   0  0  0  0  0  0  0  0  0  0  0  0
  -22.3812   -5.3225   24.5058 C   0  0  0  0  0  0  0  0  0  0  0  0
  -24.9472  -10.6791   20.1929 C   0  0  0  0  0  0  0  0  0  0  0  0
  -25.4879  -11.6620   18.3017 C   0  0  0  0  0  0  0  0  0  0  0  0
  -23.3635  -10.3492   18.1934 C   0  0  0  0  0  0  0  0  0  0  0  0
  -22.1987  -29.5445   22.3600 C   0  0  0  0  0  0  0  0  0  0  0  0
  -24.7362  -31.2802   23.3949 C   0  0  0  0  0  0  0  0  0  0  0  0
  -27.9395  -31.3102   24.5715 C   0  0  0  0  0  0  0  0  0  0  0  0
  -29.1927  -15.6019   20.6696 C   0  0  0  0  0  0  0  0  0  0  0  0
  -17.1954  -30.2836   21.6690 C   0  0  0  0  0  0  0  0  0  0  0  0
  -22.7288  -28.4065   24.5463 C   0  0  0  0  0  0  0  0  0  0  0  0
  -25.1583  -28.8392   22.9168 C   0  0  0  0  0  0  0  0  0  0  0  0
  -18.4367  -31.1717   21.6962 C   0  0  0  0  0  0  0  0  0  0  0  0
  -30.1367  -12.7415   18.6636 C   0  0  0  0  0  0  0  0  0  0  0  0
  -19.5328  -30.5843   20.8129 C   0  0  0  0  0  0  0  0  0  0  0  0
  -28.8573  -11.9040   18.7070 C   0  0  0  0  0  0  0  0  0  0  0  0
  -28.1654  -23.8793   22.1130 C   0  0  0  0  0  0  0  0  0  0  0  0
  -30.3910  -13.4320   20.0003 C   0  0  0  0  0  0  0  0  0  0  0  0
  -27.9831  -13.4436   20.5250 C   0  0  0  0  0  0  0  0  0  0  0  0
  -27.4867  -22.6917   24.0743 C   0  0  0  0  0  0  0  0  0  0  0  0
  -19.9659  -29.2023   21.3167 C   0  0  1  0  0  0  0  0  0  0  0  0
  -22.9049  -29.6512   23.6819 C   0  0  1  0  0  0  0  0  0  0  0  0
  -27.6582  -12.7378   19.1960 C   0  0  2  0  0  0  0  0  0  0  0  0
  -27.2271  -23.9740   23.3054 C   0  0  2  0  0  0  0  0  0  1  0  0
  -28.0656  -22.4139   21.7098 C   0  0  1  0  0  0  0  0  0  0  0  0
  -29.7590  -32.8813   25.2914 C   0  0  0  0  0  0  0  0  0  0  0  0
  -31.8885  -18.7033   15.8710 C   0  0  0  0  0  0  0  0  0  0  0  0
  -29.4970  -18.7767   16.5496 C   0  0  0  0  0  0  0  0  0  0  0  0
  -32.7499  -18.5033   18.7391 C   0  0  0  0  0  0  0  0  0  0  0  0
  -25.3097  -31.9504   20.4740 C   0  0  0  0  0  0  0  0  0  0  0  0
  -27.6003  -32.6874   21.1653 C   0  0  0  0  0  0  0  0  0  0  0  0
  -25.5907  -33.8650   22.0582 C   0  0  0  0  0  0  0  0  0  0  0  0
  -27.9902  -30.1826   27.3074 C   0  0  0  0  0  0  0  0  0  0  0  0
  -29.2842  -21.8859   20.9799 C   0  0  0  0  0  0  0  0  0  0  0  0
  -30.5354  -17.6861   20.7726 C   0  0  0  0  0  0  0  0  0  0  0  0
  -29.0996  -20.4309   20.5728 C   0  0  0  0  0  0  0  0  0  0  0  0
  -26.1337  -31.5386   22.8859 C   0  0  1  0  0  0  0  0  0  0  0  0
  -28.5760  -32.0384   25.7416 C   0  0  2  0  0  0  0  0  0  0  0  0
  -30.9318  -19.0402   17.0251 C   0  0  0  0  0  0  0  0  0  0  0  0
  -31.2865  -18.2526   18.3320 C   0  0  2  0  0  0  0  0  0  0  0  0
  -30.2964  -18.5154   19.5064 C   0  0  2  0  0  0  0  0  0  0  0  0
  -26.1495  -32.4840   21.6517 C   0  0  0  0  0  0  0  0  0  0  0  0
  -26.0909  -11.3148   20.4613 N   0  0  0  0  0  0  0  0  0  0  0  0
  -26.3947  -11.9029   19.2917 N   0  0  0  0  0  0  0  0  0  0  0  0
  -24.3102  -29.9444   23.3929 N   0  0  0  0  0  0  0  0  0  0  0  0
  -29.2189  -14.2236   20.3996 N   0  0  0  0  0  0  0  0  0  0  0  0
  -25.6399  -12.1774   17.0633 N   0  0  0  0  0  0  0  0  0  0  0  0
  -22.4765   -9.5410   18.9175 N   0  0  0  0  0  0  0  0  0  0  0  0
  -20.8372  -29.3331   22.4649 N   0  0  0  0  0  0  0  0  0  0  0  0
  -26.8987  -32.0317   24.0261 N   0  0  0  0  0  0  0  0  0  0  0  0
  -30.4059  -16.2657   20.5344 N   0  0  0  0  0  0  0  0  0  0  0  0
  -27.8934  -21.6941   23.0205 N   0  3  0  0  0  0  0  0  0  0  0  0
  -29.0553  -31.0621   26.7605 N   0  3  0  0  0  0  0  0  0  0  0  0
  -30.3319  -19.9498   19.9033 N   0  3  0  0  0  0  0  0  0  0  0  0
  -23.1289  -10.5883   16.9846 O   0  0  0  0  0  0  0  0  0  0  0  0
  -22.8413  -29.6477   21.3216 O   0  0  0  0  0  0  0  0  0  0  0  0
  -24.0504  -32.2278   23.7867 O   0  0  0  0  0  0  0  0  0  0  0  0
  -28.3292  -30.2129   24.1782 O   0  0  0  0  0  0  0  0  0  0  0  0
  -28.1627  -16.1985   21.0015 O   0  0  0  0  0  0  0  0  0  0  0  0
  -22.3854   -7.7081   24.1775 O   0  0  0  0  0  0  0  0  0  0  0  0
  -25.8712  -23.9989   22.8759 O   0  0  0  0  0  0  0  0  0  1  0  0
  -20.4822   -2.7121   22.8276 F   0  0  0  0  0  0  0  0  0  0  0  0
  -23.2967   -5.4445   25.4768 F   0  0  0  0  0  0  0  0  0  0  0  0
  1  2  1  0  0  0  0
  1  5  2  0  0  0  0
  2  6  2  0  0  0  0
  3  8  2  0  0  0  0
  3 15  1  0  0  0  0
  4  9  1  0  0  0  0
  4 15  2  0  0  0  0
  5 17  1  0  0  0  0
  6 19  1  0  0  0  0
  7 10  2  0  0  0  0
  7 18  1  0  0  0  0
  8 21  1  0  0  0  0
  9 21  2  0  0  0  0
 10 22  1  0  0  0  0
 11 12  2  0  0  0  0
 11 23  1  0  0  0  0
 12 24  1  0  0  0  0
 13 20  1  0  0  0  0
 13 22  2  0  0  0  0
 14 24  2  0  0  0  0
 14 25  1  0  0  0  0
 15 26  1  0  0  0  0
 16 26  1  0  0  0  0
 16 27  2  0  0  0  0
 16 28  1  0  0  0  0
 17 19  2  0  0  0  0
 17 33  1  0  0  0  0
 18 20  2  0  0  0  0
 18 34  1  0  0  0  0
 19 44  1  0  0  0  0
 20 35  1  0  0  0  0
 21 83  1  0  0  0  0
 22 84  1  0  0  0  0
 23 25  2  0  0  0  0
 23 83  1  0  0  0  0
 24 85  1  0  0  0  0
 25 86  1  0  0  0  0
 26 66  2  0  0  0  0
 27 67  1  0  0  0  0
 27 70  1  0  0  0  0
 28 71  1  0  0  0  0
 28 78  2  0  0  0  0
 29 45  1  0  0  0  0
 29 72  1  0  0  0  0
 29 79  2  0  0  0  0
 30 60  1  0  0  0  0
 30 68  1  0  0  0  0
 30 80  2  0  0  0  0
 31 61  1  0  0  0  0
 31 73  1  0  0  0  0
 31 81  2  0  0  0  0
 32 69  1  0  0  0  0
 32 74  1  0  0  0  0
 32 82  2  0  0  0  0
 33 36  1  0  0  0  0
 34 45  1  0  0  0  0
 35 68  1  0  0  0  0
 36 38  1  0  0  0  0
 37 39  1  0  0  0  0
 37 41  1  0  0  0  0
 38 44  1  0  0  0  0
 39 46  1  0  0  0  0
 40 47  1  0  0  0  0
 40 48  1  0  0  0  0
 41 69  1  0  0  0  0
 42 46  1  0  0  0  0
 42 69  1  0  0  0  0
 43 47  1  0  0  0  0
 43 75  1  0  0  0  0
 44 72  1  0  0  0  0
 45 68  1  0  0  0  0
 46 67  1  0  0  0  0
 47 84  1  0  0  0  0
 48 57  1  0  0  0  0
 48 75  1  0  0  0  0
 49 61  1  0  0  0  0
 50 62  1  0  0  0  0
 51 62  1  0  0  0  0
 52 63  1  0  0  0  0
 53 65  1  0  0  0  0
 54 65  1  0  0  0  0
 55 65  1  0  0  0  0
 56 76  1  0  0  0  0
 57 59  1  0  0  0  0
 58 64  1  0  0  0  0
 58 74  1  0  0  0  0
 59 77  1  0  0  0  0
 60 65  1  0  0  0  0
 60 73  1  0  0  0  0
 61 76  1  0  0  0  0
 62 63  1  0  0  0  0
 63 64  1  0  0  0  0
 64 77  1  0  0  0  0
 66 67  1  0  0  0  0
M  CHG  3  75   1  76   1  77   1
M  ISO  4  32 100  47 101  74 100  84 101
M  END
> <Batch ID>
0113

> <Smiles>
CNC(C)C(=O)NC(C(=O)N1Cc2cc([101O:1][101CH:1]3CNC(CCNC(C[100NH:0][100C:0](=O)N4CCCC(n5nc(-c6ccc(Oc7ccc(F)cc7F)cc6)c(C(N)=O)c5N)C4)C(C)C(C)C)C3)ccc2CC1C(=O)NC1CCCc2ccccc21)C(C)(C)C

> <Shape>
0.290

> <Color>
0.082

> <Negative vol penalty>
0.000

$$$$

  -OEChem-04052320053D

 84 92  0     1  0  0  0  0  0999 V2000
  -32.7540  -24.7305   18.1958 C   0  0  0  0  0  0  0  0  0  0  0  0
  -31.5812  -24.3505   18.8404 C   0  0  0  0  0  0  0  0  0  0  0  0
  -28.5992  -18.1931   20.4829 C   0  0  0  0  0  0  0  0  0  0  0  0
  -30.9143  -18.5915   21.0475 C   0  0  0  0  0  0  0  0  0  0  0  0
  -33.3793  -25.9288   18.5379 C   0  0  0  0  0  0  0  0  0  0  0  0
  -31.0335  -25.1681   19.8283 C   0  0  0  0  0  0  0  0  0  0  0  0
  -26.0225  -25.7136   19.3409 C   0  0  0  0  0  0  0  0  0  0  0  0
  -28.9638  -17.0265   19.8109 C   0  0  0  0  0  0  0  0  0  0  0  0
  -31.2789  -17.4248   20.3755 C   0  0  0  0  0  0  0  0  0  0  0  0
  -25.2217  -24.6599   19.7792 C   0  0  0  0  0  0  0  0  0  0  0  0
  -29.7842  -13.8448   20.6091 C   0  0  0  0  0  0  0  0  0  0  0  0
  -29.0168  -12.7016   20.8319 C   0  0  0  0  0  0  0  0  0  0  0  0
  -24.7803  -25.8553   21.8275 C   0  0  0  0  0  0  0  0  0  0  0  0
  -28.4748  -12.6069   18.4794 C   0  0  0  0  0  0  0  0  0  0  0  0
  -29.5745  -18.9756   21.1012 C   0  0  0  0  0  0  0  0  0  0  0  0
  -28.5520  -21.3079   21.2525 C   0  0  0  0  0  0  0  0  0  0  0  0
  -32.8338  -26.7662   19.5238 C   0  0  0  0  0  0  0  0  0  0  0  0
  -26.2174  -26.8433   20.1487 C   0  0  0  0  0  0  0  0  0  0  0  0
  -31.6528  -26.3781   20.1849 C   0  0  0  0  0  0  0  0  0  0  0  0
  -25.5820  -26.9231   21.3961 C   0  0  0  0  0  0  0  0  0  0  0  0
  -30.3037  -16.6423   19.7572 C   0  0  0  0  0  0  0  0  0  0  0  0
  -24.6028  -24.7293   21.0239 C   0  0  0  0  0  0  0  0  0  0  0  0
  -29.8969  -14.3692   19.3214 C   0  0  0  0  0  0  0  0  0  0  0  0
  -28.3621  -12.0826   19.7671 C   0  0  0  0  0  0  0  0  0  0  0  0
  -29.2422  -13.7502   18.2566 C   0  0  0  0  0  0  0  0  0  0  0  0
  -29.1985  -20.1812   21.7951 C   0  0  0  0  0  0  0  0  0  0  0  0
  -28.4216  -22.1722   22.3119 C   0  0  0  0  0  0  0  0  0  0  0  0
  -28.1090  -21.5514   19.9108 C   0  0  0  0  0  0  0  0  0  0  0  0
  -28.7366  -28.2119   21.5212 C   0  0  0  0  0  0  0  0  0  0  0  0
  -26.5772  -30.5036   22.3004 C   0  0  0  0  0  0  0  0  0  0  0  0
  -23.3157  -31.3440   22.8514 C   0  0  0  0  0  0  0  0  0  0  0  0
  -28.1819  -21.3513   28.2381 C   0  0  0  0  0  0  0  0  0  0  0  0
  -33.5711  -28.0291   19.8928 C   0  0  0  0  0  0  0  0  0  0  0  0
  -27.0626  -27.9831   19.6500 C   0  0  0  0  0  0  0  0  0  0  0  0
  -25.7427  -28.1227   22.2925 C   0  0  0  0  0  0  0  0  0  0  0  0
  -32.7232  -29.0195   20.6868 C   0  0  0  0  0  0  0  0  0  0  0  0
  -30.5079  -23.3671   26.4484 C   0  0  0  0  0  0  0  0  0  0  0  0
  -31.9757  -28.3039   21.8075 C   0  0  0  0  0  0  0  0  0  0  0  0
  -30.3777  -22.8808   25.0039 C   0  0  0  0  0  0  0  0  0  0  0  0
  -21.9403  -20.7579   27.0638 C   0  0  0  0  0  0  0  0  0  0  0  0
  -30.3623  -22.2196   27.4455 C   0  0  0  0  0  0  0  0  0  0  0  0
  -21.6387  -20.4417   28.5297 C   0  0  0  0  0  0  0  0  0  0  0  0
  -29.0070  -20.9275   25.8432 C   0  0  0  0  0  0  0  0  0  0  0  0
  -23.6864  -19.3857   29.2669 C   0  0  0  0  0  0  0  0  0  0  0  0
  -31.0145  -27.2500   21.2443 C   0  0  1  0  0  0  0  0  0  0  0  0
  -27.6059  -28.8603   20.7737 C   0  0  1  0  0  0  0  0  0  0  0  0
  -29.0911  -22.0578   24.8031 C   0  0  2  0  0  0  0  0  0  0  0  0
  -23.0661  -19.9375   26.4249 C   0  0  1  0  0  0  0  0  0  0  0  0
  -24.8259  -19.6193   28.2707 C   0  0  2  0  0  0  0  0  0  0  0  0
  -21.8654  -33.2828   23.5107 C   0  0  0  0  0  0  0  0  0  0  0  0
  -24.2375  -19.3353   24.3002 C   0  0  0  0  0  0  0  0  0  0  0  0
  -27.4682  -30.1808   25.2007 C   0  0  0  0  0  0  0  0  0  0  0  0
  -25.3930  -31.3940   25.9003 C   0  0  0  0  0  0  0  0  0  0  0  0
  -27.0912  -32.5464   24.4824 C   0  0  0  0  0  0  0  0  0  0  0  0
  -21.8340  -31.2560   20.2909 C   0  0  0  0  0  0  0  0  0  0  0  0
  -25.9691  -20.4289   28.8801 C   0  0  0  0  0  0  0  0  0  0  0  0
  -23.4998  -22.0022   23.1186 C   0  0  0  0  0  0  0  0  0  0  0  0
  -23.4343  -21.6949   24.6151 C   0  0  0  0  0  0  0  0  0  0  0  0
  -23.7555  -23.4817   22.8628 C   0  0  0  0  0  0  0  0  0  1  0  0
  -25.6435  -30.7420   23.4625 C   0  0  1  0  0  0  0  0  0  0  0  0
  -22.4776  -32.5079   22.3542 C   0  0  2  0  0  0  0  0  0  0  0  0
  -23.1509  -20.2135   24.9256 C   0  0  2  0  0  0  0  0  0  0  0  0
  -26.3973  -31.1922   24.7456 C   0  0  0  0  0  0  0  0  0  0  0  0
  -29.4607  -20.3147   23.0979 N   0  0  0  0  0  0  0  0  0  0  0  0
  -28.9765  -21.5356   23.3829 N   0  0  0  0  0  0  0  0  0  0  0  0
  -22.7870  -20.5292   29.4359 N   0  0  0  0  0  0  0  0  0  0  0  0
  -26.5841  -29.2086   21.7631 N   0  0  0  0  0  0  0  0  0  0  0  0
  -29.1213  -21.4803   27.2019 N   0  0  0  0  0  0  0  0  0  0  0  0
  -27.8875  -23.4071   22.4226 N   0  0  0  0  0  0  0  0  0  0  0  0
  -26.8084  -21.1676   19.5567 N   0  0  0  0  0  0  0  0  0  0  0  0
  -29.8188  -27.8811   20.7282 N   0  0  0  0  0  0  0  0  0  0  0  0
  -24.6420  -31.6933   22.9930 N   0  0  0  0  0  0  0  0  0  0  0  0
  -27.0305  -20.6410   27.9213 N   0  0  0  0  0  0  0  0  0  0  0  0
  -24.3752  -20.3507   27.0391 N   0  3  0  0  0  0  0  0  0  0  0  0
  -21.3742  -32.0162   21.4815 N   0  3  0  0  0  0  0  0  0  0  0  0
  -28.8503  -22.0784   19.0469 O   0  0  0  0  0  0  0  0  0  0  0  0
  -28.6354  -28.0269   22.7284 O   0  0  0  0  0  0  0  0  0  0  0  0
  -27.2694  -31.4341   21.8801 O   0  0  0  0  0  0  0  0  0  0  0  0
  -22.8406  -30.2367   23.0937 O   0  0  0  0  0  0  0  0  0  0  0  0
  -28.3539  -21.8381   29.3608 O   0  0  0  0  0  0  0  0  0  0  0  0
  -30.6598  -15.5038   19.1017 O   0  0  0  0  0  0  0  0  0  0  0  0
  -23.8211  -23.7019   21.4544 O   0  0  0  0  0  0  0  0  0  1  0  0
  -27.6264  -10.9839   19.9809 F   0  0  0  0  0  0  0  0  0  0  0  0
  -29.3477  -14.2487   17.0171 F   0  0  0  0  0  0  0  0  0  0  0  0
  1  2  1  0  0  0  0
  1  5  2  0  0  0  0
  2  6  2  0  0  0  0
  3  8  2  0  0  0  0
  3 15  1  0  0  0  0
  4  9  1  0  0  0  0
  4 15  2  0  0  0  0
  5 17  1  0  0  0  0
  6 19  1  0  0  0  0
  7 10  2  0  0  0  0
  7 18  1  0  0  0  0
  8 21  1  0  0  0  0
  9 21  2  0  0  0  0
 10 22  1  0  0  0  0
 11 12  2  0  0  0  0
 11 23  1  0  0  0  0
 12 24  1  0  0  0  0
 13 20  1  0  0  0  0
 13 22  2  0  0  0  0
 14 24  2  0  0  0  0
 14 25  1  0  0  0  0
 15 26  1  0  0  0  0
 16 26  1  0  0  0  0
 16 27  2  0  0  0  0
 16 28  1  0  0  0  0
 17 19  2  0  0  0  0
 17 33  1  0  0  0  0
 18 20  2  0  0  0  0
 18 34  1  0  0  0  0
 19 45  1  0  0  0  0
 20 35  1  0  0  0  0
 21 81  1  0  0  0  0
 22 82  1  0  0  0  0
 23 25  2  0  0  0  0
 23 81  1  0  0  0  0
 24 83  1  0  0  0  0
 25 84  1  0  0  0  0
 26 64  2  0  0  0  0
 27 65  1  0  0  0  0
 27 69  1  0  0  0  0
 28 70  1  0  0  0  0
 28 76  2  0  0  0  0
 29 46  1  0  0  0  0
 29 71  1  0  0  0  0
 29 77  2  0  0  0  0
 30 60  1  0  0  0  0
 30 67  1  0  0  0  0
 30 78  2  0  0  0  0
 31 61  1  0  0  0  0
 31 72  1  0  0  0  0
 31 79  2  0  0  0  0
 32 68  1  0  0  0  0
 32 73  1  0  0  0  0
 32 80  2  0  0  0  0
 33 36  1  0  0  0  0
 34 46  1  0  0  0  0
 35 67  1  0  0  0  0
 36 38  1  0  0  0  0
 37 39  1  0  0  0  0
 37 41  1  0  0  0  0
 38 45  1  0  0  0  0
 39 47  1  0  0  0  0
 40 42  1  0  0  0  0
 40 48  1  0  0  0  0
 41 68  1  0  0  0  0
 42 66  1  0  0  0  0
 43 47  1  0  0  0  0
 43 68  1  0  0  0  0
 44 49  1  0  0  0  0
 44 66  1  0  0  0  0
 45 71  1  0  0  0  0
 46 67  1  0  0  0  0
 47 65  1  0  0  0  0
 48 62  1  0  0  0  0
 48 74  1  0  0  0  0
 49 56  1  0  0  0  0
 49 74  1  0  0  0  0
 50 61  1  0  0  0  0
 51 62  1  0  0  0  0
 52 63  1  0  0  0  0
 53 63  1  0  0  0  0
 54 63  1  0  0  0  0
 55 75  1  0  0  0  0
 56 73  1  0  0  0  0
 57 58  1  0  0  0  0
 57 59  1  0  0  0  0
 58 62  1  0  0  0  0
 59 82  1  0  0  0  0
 60 63  1  0  0  0  0
 60 72  1  0  0  0  0
 61 75  1  0  0  0  0
 64 65  1  0  0  0  0
M  CHG  2  74   1  75   1
M  ISO  4  32 100  59 101  73 100  82 101
M  END
> <Batch ID>
0113

> <Smiles>
CNC(C)C(=O)NC(C(=O)N1Cc2cc([101O:1][101CH2:1]CCC(C)C3CCNCC(C[100NH:0][100C:0](=O)N4CCCC(n5nc(-c6ccc(Oc7ccc(F)cc7F)cc6)c(C(N)=O)c5N)C4)N3)ccc2CC1C(=O)NC1CCCc2ccccc21)C(C)(C)C

> <Shape>
0.216

> <Color>
0.047

> <Negative vol penalty>
0.000

$$$$

  -OEChem-04052320053D

 86 93  0     1  0  0  0  0  0999 V2000
  -29.3373  -36.8179   21.3824 C   0  0  0  0  0  0  0  0  0  0  0  0
  -29.5779  -35.5068   20.9841 C   0  0  0  0  0  0  0  0  0  0  0  0
  -22.9303  -25.4279   19.7298 C   0  0  0  0  0  0  0  0  0  0  0  0
  -23.0657  -23.0780   19.1853 C   0  0  0  0  0  0  0  0  0  0  0  0
  -28.4280  -37.0783   22.4068 C   0  0  0  0  0  0  0  0  0  0  0  0
  -28.9102  -34.4553   21.6107 C   0  0  0  0  0  0  0  0  0  0  0  0
  -27.0191  -29.2347   19.0271 C   0  0  0  0  0  0  0  0  0  0  0  0
  -23.0317  -25.7475   18.3759 C   0  0  0  0  0  0  0  0  0  0  0  0
  -23.1671  -23.3976   17.8314 C   0  0  0  0  0  0  0  0  0  0  0  0
  -27.5679  -27.9535   18.9908 C   0  0  0  0  0  0  0  0  0  0  0  0
  -23.6167  -27.1952   15.0917 C   0  0  0  0  0  0  0  0  0  0  0  0
  -24.4832  -28.2268   14.7304 C   0  0  0  0  0  0  0  0  0  0  0  0
  -26.1864  -27.3152   20.8625 C   0  0  0  0  0  0  0  0  0  0  0  0
  -26.3366  -27.0032   15.6816 C   0  0  0  0  0  0  0  0  0  0  0  0
  -22.9474  -24.0932   20.1346 C   0  0  0  0  0  0  0  0  0  0  0  0
  -21.6644  -23.5247   22.2649 C   0  0  0  0  0  0  0  0  0  0  0  0
  -27.7416  -36.0301   23.0397 C   0  0  0  0  0  0  0  0  0  0  0  0
  -26.0562  -29.5694   19.9900 C   0  0  0  0  0  0  0  0  0  0  0  0
  -27.9919  -34.7018   22.6455 C   0  0  0  0  0  0  0  0  0  0  0  0
  -25.6251  -28.6005   20.9073 C   0  0  0  0  0  0  0  0  0  0  0  0
  -23.1501  -24.7324   17.4266 C   0  0  0  0  0  0  0  0  0  0  0  0
  -27.1537  -26.9944   19.9104 C   0  0  0  0  0  0  0  0  0  0  0  0
  -24.1102  -26.0675   15.7480 C   0  0  0  0  0  0  0  0  0  0  0  0
  -25.8431  -28.1308   15.0253 C   0  0  0  0  0  0  0  0  0  0  0  0
  -25.4701  -25.9715   16.0429 C   0  0  0  0  0  0  0  0  0  0  0  0
  -22.8432  -23.7624   21.5331 C   0  0  0  0  0  0  0  0  0  0  0  0
  -22.1000  -23.2537   23.5390 C   0  0  0  0  0  0  0  0  0  0  0  0
  -20.2978  -23.5468   21.8318 C   0  0  0  0  0  0  0  0  0  0  0  0
  -25.9021  -31.6667   22.3736 C   0  0  0  0  0  0  0  0  0  0  0  0
  -22.8397  -30.6175   22.5810 C   0  0  0  0  0  0  0  0  0  0  0  0
  -29.5223  -19.1070   20.8710 C   0  0  0  0  0  0  0  0  0  0  0  0
  -20.3094  -28.0465   22.5101 C   0  0  0  0  0  0  0  0  0  0  0  0
  -27.2609  -21.1434   25.7213 C   0  0  0  0  0  0  0  0  0  0  0  0
  -26.8033  -36.3574   24.1743 C   0  0  0  0  0  0  0  0  0  0  0  0
  -25.4544  -30.9479   19.9989 C   0  0  0  0  0  0  0  0  0  0  0  0
  -24.5794  -28.9034   21.9480 C   0  0  0  0  0  0  0  0  0  0  0  0
  -25.8582  -35.2134   24.5324 C   0  0  0  0  0  0  0  0  0  0  0  0
  -25.6836  -24.2241   26.5568 C   0  0  0  0  0  0  0  0  0  0  0  0
  -26.6245  -33.8979   24.6279 C   0  0  0  0  0  0  0  0  0  0  0  0
  -24.6704  -24.4337   25.4301 C   0  0  0  0  0  0  0  0  0  0  0  0
  -26.9715  -23.5822   26.0455 C   0  0  0  0  0  0  0  0  0  0  0  0
  -25.7686  -22.5385   24.1647 C   0  0  0  0  0  0  0  0  0  0  0  0
  -27.2687  -33.5359   23.2842 C   0  0  1  0  0  0  0  0  0  0  0  0
  -24.8558  -31.3298   21.3492 C   0  0  1  0  0  0  0  0  0  0  0  0
  -24.4318  -23.1321   24.6413 C   0  0  2  0  0  0  0  0  0  0  0  0
  -30.8104  -17.7979   22.5810 C   0  0  0  0  0  0  0  0  0  0  0  0
  -17.8649  -27.4866   22.6007 C   0  0  0  0  0  0  0  0  0  0  0  0
  -25.7144  -19.7889   19.7131 C   0  0  0  0  0  0  0  0  0  0  0  0
  -23.3636  -30.0574   25.5342 C   0  0  0  0  0  0  0  0  0  0  0  0
  -21.3031  -28.6354   25.5584 C   0  0  0  0  0  0  0  0  0  0  0  0
  -21.1300  -31.0703   25.0448 C   0  0  0  0  0  0  0  0  0  0  0  0
  -20.1258  -27.8526   19.5626 C   0  0  0  0  0  0  0  0  0  0  0  0
  -27.8787  -17.3240   22.4911 C   0  0  0  0  0  0  0  0  0  0  0  0
  -27.2246  -23.3883   19.5779 C   0  0  0  0  0  0  0  0  0  0  0  0
  -26.3730  -22.1959   20.0304 C   0  0  0  0  0  0  0  0  0  0  0  0
  -27.4397  -18.7083   25.2770 C   0  0  0  0  0  0  0  0  0  0  0  0
  -28.1235  -20.4364   19.3119 C   0  0  0  0  0  0  0  0  0  0  0  0
  -28.7420  -18.4202   24.5536 C   0  0  0  0  0  0  0  0  0  0  0  0
  -26.8570  -24.6702   20.3176 C   0  0  0  0  0  0  0  0  0  1  0  0
  -22.1372  -29.5103   23.3291 C   0  0  1  0  0  0  0  0  0  0  0  0
  -29.7960  -18.9072   22.3507 C   0  0  2  0  0  0  0  0  0  0  0  0
  -18.9844  -28.0956   21.7709 C   0  0  2  0  0  0  0  0  0  0  0  0
  -26.6605  -20.9002   19.2437 C   0  0  1  0  0  0  0  0  0  0  0  0
  -22.0046  -29.8129   24.8484 C   0  0  0  0  0  0  0  0  0  0  0  0
  -23.9450  -23.6523   22.2801 N   0  0  0  0  0  0  0  0  0  0  0  0
  -23.4602  -23.3425   23.4947 N   0  0  0  0  0  0  0  0  0  0  0  0
  -24.0256  -30.2673   21.9202 N   0  0  0  0  0  0  0  0  0  0  0  0
  -26.6757  -22.3516   25.3079 N   0  0  0  0  0  0  0  0  0  0  0  0
  -21.4483  -22.9507   24.6818 N   0  0  0  0  0  0  0  0  0  0  0  0
  -20.0273  -23.8431   20.4889 N   0  0  0  0  0  0  0  0  0  0  0  0
  -26.2778  -32.9964   22.3777 N   0  0  0  0  0  0  0  0  0  0  0  0
  -28.5482  -20.0709   20.6353 N   0  0  0  0  0  0  0  0  0  0  0  0
  -20.8641  -29.3013   22.6481 N   0  0  0  0  0  0  0  0  0  0  0  0
  -26.9228  -20.0236   24.9713 N   0  0  0  0  0  0  0  0  0  0  0  0
  -19.0794  -27.3451   20.4869 N   0  3  0  0  0  0  0  0  0  0  0  0
  -28.5385  -18.5501   23.0665 N   0  3  1  0  0  0  0  0  0  0  0  0
  -19.3439  -23.3268   22.6161 O   0  0  0  0  0  0  0  0  0  0  0  0
  -26.3353  -30.7857   23.1070 O   0  0  0  0  0  0  0  0  0  0  0  0
  -22.3502  -31.7498   22.5769 O   0  0  0  0  0  0  0  0  0  0  0  0
  -30.1109  -18.4787   19.9939 O   0  0  0  0  0  0  0  0  0  0  0  0
  -20.8012  -27.0001   22.9268 O   0  0  0  0  0  0  0  0  0  0  0  0
  -28.0238  -21.0673   26.6904 O   0  0  0  0  0  0  0  0  0  0  0  0
  -23.2488  -25.0438   16.1054 O   0  0  0  0  0  0  0  0  0  0  0  0
  -27.6882  -25.7434   19.8775 O   0  0  0  0  0  0  0  0  0  1  0  0
  -26.6754  -29.1208   14.6769 F   0  0  0  0  0  0  0  0  0  0  0  0
  -25.9502  -24.8902   16.6722 F   0  0  0  0  0  0  0  0  0  0  0  0
  1  2  1  0  0  0  0
  1  5  2  0  0  0  0
  2  6  2  0  0  0  0
  3  8  2  0  0  0  0
  3 15  1  0  0  0  0
  4  9  1  0  0  0  0
  4 15  2  0  0  0  0
  5 17  1  0  0  0  0
  6 19  1  0  0  0  0
  7 10  2  0  0  0  0
  7 18  1  0  0  0  0
  8 21  1  0  0  0  0
  9 21  2  0  0  0  0
 10 22  1  0  0  0  0
 11 12  2  0  0  0  0
 11 23  1  0  0  0  0
 12 24  1  0  0  0  0
 13 20  1  0  0  0  0
 13 22  2  0  0  0  0
 14 24  2  0  0  0  0
 14 25  1  0  0  0  0
 15 26  1  0  0  0  0
 16 26  1  0  0  0  0
 16 27  2  0  0  0  0
 16 28  1  0  0  0  0
 17 19  2  0  0  0  0
 17 34  1  0  0  0  0
 18 20  2  0  0  0  0
 18 35  1  0  0  0  0
 19 43  1  0  0  0  0
 20 36  1  0  0  0  0
 21 83  1  0  0  0  0
 22 84  1  0  0  0  0
 23 25  2  0  0  0  0
 23 83  1  0  0  0  0
 24 85  1  0  0  0  0
 25 86  1  0  0  0  0
 26 65  2  0  0  0  0
 27 66  1  0  0  0  0
 27 69  1  0  0  0  0
 28 70  1  0  0  0  0
 28 77  2  0  0  0  0
 29 44  1  0  0  0  0
 29 71  1  0  0  0  0
 29 78  2  0  0  0  0
 30 60  1  0  0  0  0
 30 67  1  0  0  0  0
 30 79  2  0  0  0  0
 31 61  1  0  0  0  0
 31 72  1  0  0  0  0
 31 80  2  0  0  0  0
 32 62  1  0  0  0  0
 32 73  1  0  0  0  0
 32 81  2  0  0  0  0
 33 68  1  0  0  0  0
 33 74  1  0  0  0  0
 33 82  2  0  0  0  0
 34 37  1  0  0  0  0
 35 44  1  0  0  0  0
 36 67  1  0  0  0  0
 37 39  1  0  0  0  0
 38 40  1  0  0  0  0
 38 41  1  0  0  0  0
 39 43  1  0  0  0  0
 40 45  1  0  0  0  0
 41 68  1  0  0  0  0
 42 45  1  0  0  0  0
 42 68  1  0  0  0  0
 43 71  1  0  0  0  0
 44 67  1  0  0  0  0
 45 66  1  0  0  0  0
 46 61  1  0  0  0  0
 47 62  1  0  0  0  0
 48 63  1  0  0  0  0
 49 64  1  0  0  0  0
 50 64  1  0  0  0  0
 51 64  1  0  0  0  0
 52 75  1  0  0  0  0
 53 76  1  0  0  0  0
 54 55  1  0  0  0  0
 54 59  1  0  0  0  0
 55 63  1  0  0  0  0
 56 58  1  0  0  0  0
 56 74  1  0  0  0  0
 57 63  1  0  0  0  0
 57 72  1  0  0  0  0
 58 76  1  0  0  0  0
 59 84  1  0  0  0  0
 60 64  1  0  0  0  0
 60 73  1  0  0  0  0
 61 76  1  0  0  0  0
 62 75  1  0  0  0  0
 65 66  1  0  0  0  0
M  CHG  2  75   1  76   1
M  ISO  4  33 100  59 101  74 100  84 101
M  END
> <Batch ID>
0113

> <Smiles>
CNC(C)C(=O)NC(C(=O)N1Cc2cc([101O:1][101CH2:1]CCC(C)CNC(=O)C(C)N(C)CC[100NH:0][100C:0](=O)N3CCCC(n4nc(-c5ccc(Oc6ccc(F)cc6F)cc5)c(C(N)=O)c4N)C3)ccc2CC1C(=O)NC1CCCc2ccccc21)C(C)(C)C

> <Shape>
0.175

> <Color>
0.055

> <Negative vol penalty>
0.000

$$$$

  -OEChem-04052320053D

 86 94  0     1  0  0  0  0  0999 V2000
  -22.4852   -8.4920   20.5409 C   0  0  0  0  0  0  0  0  0  0  0  0
  -22.0057   -9.7808   20.3296 C   0  0  0  0  0  0  0  0  0  0  0  0
  -25.3458  -27.0023   19.2047 C   0  0  0  0  0  0  0  0  0  0  0  0
  -25.9902  -26.7883   21.5233 C   0  0  0  0  0  0  0  0  0  0  0  0
  -23.7155   -8.3014   21.1685 C   0  0  0  0  0  0  0  0  0  0  0  0
  -22.7558  -10.8797   20.7469 C   0  0  0  0  0  0  0  0  0  0  0  0
  -23.1517  -16.3304   17.9830 C   0  0  0  0  0  0  0  0  0  0  0  0
  -25.6995  -25.6713   18.9835 C   0  0  0  0  0  0  0  0  0  0  0  0
  -26.3438  -25.4572   21.3021 C   0  0  0  0  0  0  0  0  0  0  0  0
  -22.5147  -17.5485   18.2157 C   0  0  0  0  0  0  0  0  0  0  0  0
  -28.9404  -23.7597   19.9578 C   0  0  0  0  0  0  0  0  0  0  0  0
  -30.1506  -23.3138   20.4891 C   0  0  0  0  0  0  0  0  0  0  0  0
  -24.4038  -18.2792   19.5259 C   0  0  0  0  0  0  0  0  0  0  0  0
  -28.9680  -21.6615   21.7961 C   0  0  0  0  0  0  0  0  0  0  0  0
  -25.4912  -27.5608   20.4746 C   0  0  0  0  0  0  0  0  0  0  0  0
  -25.6656  -30.0743   20.0749 C   0  0  0  0  0  0  0  0  0  0  0  0
  -24.4856   -9.3988   21.5850 C   0  0  0  0  0  0  0  0  0  0  0  0
  -24.4170  -16.0729   18.5300 C   0  0  0  0  0  0  0  0  0  0  0  0
  -23.9970  -10.7035   21.3819 C   0  0  0  0  0  0  0  0  0  0  0  0
  -25.0558  -17.0580   19.2966 C   0  0  0  0  0  0  0  0  0  0  0  0
  -26.1985  -24.8988   20.0322 C   0  0  0  0  0  0  0  0  0  0  0  0
  -23.1395  -18.5220   18.9897 C   0  0  0  0  0  0  0  0  0  0  0  0
  -27.7440  -23.1565   20.3457 C   0  0  0  0  0  0  0  0  0  0  0  0
  -30.1644  -22.2647   21.4082 C   0  0  0  0  0  0  0  0  0  0  0  0
  -27.7578  -22.1074   21.2648 C   0  0  0  0  0  0  0  0  0  0  0  0
  -25.1266  -28.9359   20.7036 C   0  0  0  0  0  0  0  0  0  0  0  0
  -24.9890  -31.1294   20.6365 C   0  0  0  0  0  0  0  0  0  0  0  0
  -26.6865  -30.1695   19.0727 C   0  0  0  0  0  0  0  0  0  0  0  0
  -25.5824  -13.9440   20.5826 C   0  0  0  0  0  0  0  0  0  0  0  0
  -20.5531  -24.3960   21.6252 C   0  0  0  0  0  0  0  0  0  0  0  0
  -28.4176  -15.2981   19.7761 C   0  0  0  0  0  0  0  0  0  0  0  0
  -30.0910  -18.0183   18.5732 C   0  0  0  0  0  0  0  0  0  0  0  0
  -21.4729  -28.2831   23.7981 C   0  0  0  0  0  0  0  0  0  0  0  0
  -25.7875   -9.1418   22.3016 C   0  0  0  0  0  0  0  0  0  0  0  0
  -25.1022  -14.7641   18.2475 C   0  0  0  0  0  0  0  0  0  0  0  0
  -26.4229  -16.8387   19.8896 C   0  0  0  0  0  0  0  0  0  0  0  0
  -26.6937  -10.3680   22.3769 C   0  0  0  0  0  0  0  0  0  0  0  0
  -23.8837  -30.7275   24.7882 C   0  0  0  0  0  0  0  0  0  0  0  0
  -18.0355  -27.9530   22.6915 C   0  0  0  0  0  0  0  0  0  0  0  0
  -25.8972  -11.5946   22.8105 C   0  0  0  0  0  0  0  0  0  0  0  0
  -23.8028  -31.8115   23.7191 C   0  0  0  0  0  0  0  0  0  0  0  0
  -18.5897  -26.6471   22.1395 C   0  0  0  0  0  0  0  0  0  0  0  0
  -22.5084  -30.1367   25.0575 C   0  0  0  0  0  0  0  0  0  0  0  0
  -19.2563  -28.8600   22.6879 C   0  0  0  0  0  0  0  0  0  0  0  0
  -21.8110  -30.5615   22.7082 C   0  0  0  0  0  0  0  0  0  0  0  0
  -24.7929  -11.9215   21.7980 C   0  0  1  0  0  0  0  0  0  0  0  0
  -26.1682  -14.4125   19.2807 C   0  0  1  0  0  0  0  0  0  0  0  0
  -23.1306  -31.3170   22.4282 C   0  0  2  0  0  0  0  0  0  0  0  0
  -19.9877  -26.5688   22.7592 C   0  0  1  0  0  0  0  0  0  0  0  0
  -32.4068  -18.8400   18.0642 C   0  0  0  0  0  0  0  0  0  0  0  0
  -20.5472  -20.5828   18.1328 C   0  0  0  0  0  0  0  0  0  0  0  0
  -28.9174  -15.7274   22.7553 C   0  0  0  0  0  0  0  0  0  0  0  0
  -30.7215  -17.3534   22.1472 C   0  0  0  0  0  0  0  0  0  0  0  0
  -30.9165  -14.9629   21.4617 C   0  0  0  0  0  0  0  0  0  0  0  0
  -21.9789  -25.9798   19.5726 C   0  0  0  0  0  0  0  0  0  0  0  0
  -29.4617  -18.3666   15.7023 C   0  0  0  0  0  0  0  0  0  0  0  0
  -21.1575  -23.3604   22.5651 C   0  0  0  0  0  0  0  0  0  0  0  0
  -20.6473  -21.9477   22.3276 C   0  0  0  0  0  0  0  0  0  0  0  0
  -20.6207  -20.1025   20.6443 C   0  0  0  0  0  0  0  0  0  0  0  0
  -20.9714  -25.8388   21.8538 C   0  0  2  0  0  0  0  0  0  0  0  0
  -29.2378  -16.4529   20.2983 C   0  0  1  0  0  0  0  0  0  0  0  0
  -31.1690  -18.1499   17.5125 C   0  0  2  0  0  0  0  0  0  0  0  0
  -21.0909  -19.7017   19.2499 C   0  0  2  0  0  0  0  0  0  1  0  0
  -29.9217  -16.1278   21.6562 C   0  0  0  0  0  0  0  0  0  0  0  0
  -24.1807  -29.2392   21.5964 N   0  0  0  0  0  0  0  0  0  0  0  0
  -24.1200  -30.5802   21.5329 N   0  0  0  0  0  0  0  0  0  0  0  0
  -27.0492  -15.5404   19.5902 N   0  0  0  0  0  0  0  0  0  0  0  0
  -21.8848  -29.6235   23.8376 N   0  0  0  0  0  0  0  0  0  0  0  0
  -20.3717  -27.9650   23.0001 N   0  0  0  0  0  0  0  0  0  0  0  0
  -25.0587  -32.4641   20.4462 N   0  0  0  0  0  0  0  0  0  0  0  0
  -28.0196  -30.2945   19.4867 N   0  0  0  0  0  0  0  0  0  0  0  0
  -25.3506  -12.5828   20.6378 N   0  0  0  0  0  0  0  0  0  0  0  0
  -30.1669  -16.8091   19.2314 N   0  0  0  0  0  0  0  0  0  0  0  0
  -21.0391  -26.5726   20.5588 N   0  3  0  0  0  0  0  0  0  0  0  0
  -30.6643  -18.9435   16.3565 N   0  3  0  0  0  0  0  0  0  0  0  0
  -21.0229  -21.4992   20.9635 N   0  3  0  0  0  0  0  0  0  0  0  0
  -26.4228  -30.1610   17.8463 O   0  0  0  0  0  0  0  0  0  0  0  0
  -25.3588  -14.7570   21.4718 O   0  0  0  0  0  0  0  0  0  0  0  0
  -19.7555  -24.0855   20.7401 O   0  0  0  0  0  0  0  0  0  0  0  0
  -28.9720  -14.2228   19.5350 O   0  0  0  0  0  0  0  0  0  0  0  0
  -29.2664  -18.9016   18.7980 O   0  0  0  0  0  0  0  0  0  0  0  0
  -22.0566  -27.4105   24.4545 O   0  0  0  0  0  0  0  0  0  0  0  0
  -26.5434  -23.5999   19.8167 O   0  0  0  0  0  0  0  0  0  0  0  0
  -22.5161  -19.7186   19.2202 O   0  0  0  0  0  0  0  0  0  1  0  0
  -31.3267  -21.8356   21.9171 F   0  0  0  0  0  0  0  0  0  0  0  0
  -26.6117  -21.5232   21.6404 F   0  0  0  0  0  0  0  0  0  0  0  0
  1  2  1  0  0  0  0
  1  5  2  0  0  0  0
  2  6  2  0  0  0  0
  3  8  2  0  0  0  0
  3 15  1  0  0  0  0
  4  9  1  0  0  0  0
  4 15  2  0  0  0  0
  5 17  1  0  0  0  0
  6 19  1  0  0  0  0
  7 10  2  0  0  0  0
  7 18  1  0  0  0  0
  8 21  1  0  0  0  0
  9 21  2  0  0  0  0
 10 22  1  0  0  0  0
 11 12  2  0  0  0  0
 11 23  1  0  0  0  0
 12 24  1  0  0  0  0
 13 20  1  0  0  0  0
 13 22  2  0  0  0  0
 14 24  2  0  0  0  0
 14 25  1  0  0  0  0
 15 26  1  0  0  0  0
 16 26  1  0  0  0  0
 16 27  2  0  0  0  0
 16 28  1  0  0  0  0
 17 19  2  0  0  0  0
 17 34  1  0  0  0  0
 18 20  2  0  0  0  0
 18 35  1  0  0  0  0
 19 46  1  0  0  0  0
 20 36  1  0  0  0  0
 21 83  1  0  0  0  0
 22 84  1  0  0  0  0
 23 25  2  0  0  0  0
 23 83  1  0  0  0  0
 24 85  1  0  0  0  0
 25 86  1  0  0  0  0
 26 65  2  0  0  0  0
 27 66  1  0  0  0  0
 27 70  1  0  0  0  0
 28 71  1  0  0  0  0
 28 77  2  0  0  0  0
 29 47  1  0  0  0  0
 29 72  1  0  0  0  0
 29 78  2  0  0  0  0
 30 57  1  0  0  0  0
 30 60  1  0  0  0  0
 30 79  2  0  0  0  0
 31 61  1  0  0  0  0
 31 67  1  0  0  0  0
 31 80  2  0  0  0  0
 32 62  1  0  0  0  0
 32 73  1  0  0  0  0
 32 81  2  0  0  0  0
 33 68  1  0  0  0  0
 33 69  1  0  0  0  0
 33 82  2  0  0  0  0
 34 37  1  0  0  0  0
 35 47  1  0  0  0  0
 36 67  1  0  0  0  0
 37 40  1  0  0  0  0
 38 41  1  0  0  0  0
 38 43  1  0  0  0  0
 39 42  1  0  0  0  0
 39 44  1  0  0  0  0
 40 46  1  0  0  0  0
 41 48  1  0  0  0  0
 42 49  1  0  0  0  0
 43 68  1  0  0  0  0
 44 69  1  0  0  0  0
 45 48  1  0  0  0  0
 45 68  1  0  0  0  0
 46 72  1  0  0  0  0
 47 67  1  0  0  0  0
 48 66  1  0  0  0  0
 49 60  1  0  0  0  0
 49 69  1  0  0  0  0
 50 62  1  0  0  0  0
 51 63  1  0  0  0  0
 52 64  1  0  0  0  0
 53 64  1  0  0  0  0
 54 64  1  0  0  0  0
 55 74  1  0  0  0  0
 56 75  1  0  0  0  0
 57 58  1  0  0  0  0
 58 76  1  0  0  0  0
 59 63  1  0  0  0  0
 59 76  1  0  0  0  0
 60 74  1  0  0  0  0
 61 64  1  0  0  0  0
 61 73  1  0  0  0  0
 62 75  1  0  0  0  0
 63 84  1  0  0  0  0
 65 66  1  0  0  0  0
M  CHG  3  74   1  75   1  76   1
M  ISO  4  33 100  63 101  69 100  84 101
M  END
> <Batch ID>
0113

> <Smiles>
CNC(C)C(=O)NC(C(=O)N1Cc2cc([101O:1][101CH:1](C)CNCCC(=O)C(NC)C3CCC[100N:0]3[100C:0](=O)N3CCCC(n4nc(-c5ccc(Oc6ccc(F)cc6F)cc5)c(C(N)=O)c4N)C3)ccc2CC1C(=O)NC1CCCc2ccccc21)C(C)(C)C

> <Shape>
0.269

> <Color>
0.057

> <Negative vol penalty>
0.000

$$$$

  -OEChem-04052320053D

 83 91  0     1  0  0  0  0  0999 V2000
  -16.3954  -24.2145   26.8782 C   0  0  0  0  0  0  0  0  0  0  0  0
  -17.5043  -23.3892   26.7213 C   0  0  0  0  0  0  0  0  0  0  0  0
  -22.9843  -10.0397   20.0141 C   0  0  0  0  0  0  0  0  0  0  0  0
  -23.9110   -9.9685   22.2442 C   0  0  0  0  0  0  0  0  0  0  0  0
  -16.1822  -25.2696   25.9921 C   0  0  0  0  0  0  0  0  0  0  0  0
  -18.4001  -23.6179   25.6774 C   0  0  0  0  0  0  0  0  0  0  0  0
  -24.4626  -22.7565   25.7735 C   0  0  0  0  0  0  0  0  0  0  0  0
  -22.2315   -8.8984   20.2905 C   0  0  0  0  0  0  0  0  0  0  0  0
  -23.1581   -8.8273   22.5206 C   0  0  0  0  0  0  0  0  0  0  0  0
  -25.2692  -21.7138   25.3195 C   0  0  0  0  0  0  0  0  0  0  0  0
  -19.9637   -8.0910   23.3416 C   0  0  0  0  0  0  0  0  0  0  0  0
  -19.2943   -8.0384   24.5641 C   0  0  0  0  0  0  0  0  0  0  0  0
  -25.6556  -22.9157   23.2640 C   0  0  0  0  0  0  0  0  0  0  0  0
  -20.5364   -6.0534   25.1589 C   0  0  0  0  0  0  0  0  0  0  0  0
  -23.8241  -10.5747   20.9910 C   0  0  0  0  0  0  0  0  0  0  0  0
  -24.2209  -13.0933   20.9074 C   0  0  0  0  0  0  0  0  0  0  0  0
  -17.0810  -25.5172   24.9426 C   0  0  0  0  0  0  0  0  0  0  0  0
  -24.2373  -23.8836   24.9703 C   0  0  0  0  0  0  0  0  0  0  0  0
  -18.1980  -24.6765   24.7756 C   0  0  0  0  0  0  0  0  0  0  0  0
  -24.8478  -23.9725   23.7111 C   0  0  0  0  0  0  0  0  0  0  0  0
  -22.3184   -8.2922   21.5437 C   0  0  0  0  0  0  0  0  0  0  0  0
  -25.8635  -21.7920   24.0634 C   0  0  0  0  0  0  0  0  0  0  0  0
  -20.9195   -7.1247   23.0276 C   0  0  0  0  0  0  0  0  0  0  0  0
  -19.5806   -7.0196   25.4728 C   0  0  0  0  0  0  0  0  0  0  0  0
  -21.2058   -6.1059   23.9363 C   0  0  0  0  0  0  0  0  0  0  0  0
  -24.6024  -11.7533   20.7059 C   0  0  0  0  0  0  0  0  0  0  0  0
  -25.3022  -13.8259   20.4824 C   0  0  0  0  0  0  0  0  0  0  0  0
  -22.9983  -13.6281   21.4320 C   0  0  0  0  0  0  0  0  0  0  0  0
  -21.6742  -25.2184   23.6464 C   0  0  0  0  0  0  0  0  0  0  0  0
  -23.7872  -27.5395   22.8278 C   0  0  0  0  0  0  0  0  0  0  0  0
  -27.0260  -28.4241   22.2157 C   0  0  0  0  0  0  0  0  0  0  0  0
  -30.9600  -14.3685   20.7163 C   0  0  0  0  0  0  0  0  0  0  0  0
  -16.7832  -26.6409   23.9816 C   0  0  0  0  0  0  0  0  0  0  0  0
  -23.3862  -25.0118   25.4855 C   0  0  0  0  0  0  0  0  0  0  0  0
  -24.6539  -25.1700   22.8185 C   0  0  0  0  0  0  0  0  0  0  0  0
  -17.9814  -27.0445   23.1262 C   0  0  0  0  0  0  0  0  0  0  0  0
  -29.4364  -12.4526   17.9325 C   0  0  0  0  0  0  0  0  0  0  0  0
  -18.6681  -25.8091   22.5526 C   0  0  0  0  0  0  0  0  0  0  0  0
  -28.0375  -12.1505   18.4667 C   0  0  0  0  0  0  0  0  0  0  0  0
  -31.8239  -17.0852   22.6936 C   0  0  0  0  0  0  0  0  0  0  0  0
  -29.7694  -17.6276   21.3272 C   0  0  0  0  0  0  0  0  0  0  0  0
  -30.4515  -12.6106   19.0601 C   0  0  0  0  0  0  0  0  0  0  0  0
  -31.3287  -15.6457   22.8062 C   0  0  0  0  0  0  0  0  0  0  0  0
  -29.3269  -16.1660   21.4448 C   0  0  0  0  0  0  0  0  0  0  0  0
  -28.6635  -13.3228   20.6151 C   0  0  0  0  0  0  0  0  0  0  0  0
  -19.2057  -24.9076   23.6705 C   0  0  1  0  0  0  0  0  0  0  0  0
  -22.8099  -25.8819   24.3727 C   0  0  1  0  0  0  0  0  0  0  0  0
  -27.6090  -13.2019   19.5047 C   0  0  2  0  0  0  0  0  0  0  0  0
  -30.6421  -18.0355   22.5122 C   0  0  0  0  0  0  0  0  0  0  0  0
  -28.4372  -30.3826   21.5301 C   0  0  0  0  0  0  0  0  0  0  0  0
  -31.1866  -20.3222   24.5684 C   0  0  0  0  0  0  0  0  0  0  0  0
  -32.9251  -21.0130   22.8730 C   0  0  0  0  0  0  0  0  0  0  0  0
  -22.8459  -27.2054   19.9447 C   0  0  0  0  0  0  0  0  0  0  0  0
  -24.8909  -28.4469   19.2066 C   0  0  0  0  0  0  0  0  0  0  0  0
  -23.2043  -29.5758   20.6571 C   0  0  0  0  0  0  0  0  0  0  0  0
  -28.5569  -28.3554   24.7476 C   0  0  0  0  0  0  0  0  0  0  0  0
  -28.8503  -20.1228   22.9050 C   0  0  0  0  0  0  0  0  0  0  0  0
  -30.0525  -20.4034   22.0160 C   0  0  0  0  0  0  0  0  0  0  0  0
  -27.7091  -21.1164   22.7244 C   0  0  0  0  0  0  0  0  0  1  0  0
  -24.6954  -27.7908   21.6484 C   0  0  1  0  0  0  0  0  0  0  0  0
  -27.8575  -29.5992   22.6975 C   0  0  2  0  0  0  0  0  0  0  0  0
  -32.0556  -19.8832   23.4009 C   0  0  0  0  0  0  0  0  0  0  0  0
  -23.9114  -28.2312   20.3800 C   0  0  0  0  0  0  0  0  0  0  0  0
  -25.8302  -11.6384   20.1926 N   0  0  0  0  0  0  0  0  0  0  0  0
  -26.2294  -12.9156   20.0680 N   0  0  0  0  0  0  0  0  0  0  0  0
  -23.8080  -26.2443   23.3643 N   0  0  0  0  0  0  0  0  0  0  0  0
  -30.0008  -13.5799   20.0590 N   0  0  0  0  0  0  0  0  0  0  0  0
  -30.4849  -15.2868   21.6647 N   0  0  0  0  0  0  0  0  0  0  0  0
  -25.5407  -15.1534   20.4264 N   0  0  0  0  0  0  0  0  0  0  0  0
  -21.9910  -12.7347   21.8212 N   0  0  0  0  0  0  0  0  0  0  0  0
  -20.4341  -25.4498   24.2103 N   0  0  0  0  0  0  0  0  0  0  0  0
  -25.6926  -28.7555   22.0994 N   0  0  0  0  0  0  0  0  0  0  0  0
  -28.9838  -29.1222   23.5489 N   0  3  0  0  0  0  0  0  0  0  0  0
  -31.1559  -19.4112   22.2861 N   0  3  1  0  0  0  0  0  0  0  0  0
  -22.7986  -14.8620   21.5367 O   0  0  0  0  0  0  0  0  0  0  0  0
  -21.9057  -24.5475   22.6474 O   0  0  0  0  0  0  0  0  0  0  0  0
  -23.0906  -28.4603   23.2617 O   0  0  0  0  0  0  0  0  0  0  0  0
  -27.5114  -27.3234   21.9638 O   0  0  0  0  0  0  0  0  0  0  0  0
  -32.1672  -14.2589   20.4679 O   0  0  0  0  0  0  0  0  0  0  0  0
  -21.5838   -7.1787   21.8138 O   0  0  0  0  0  0  0  0  0  0  0  0
  -26.6562  -20.7684   23.6145 O   0  0  0  0  0  0  0  0  0  1  0  0
  -18.9388   -6.9702   26.6475 F   0  0  0  0  0  0  0  0  0  0  0  0
  -22.1239   -5.1755   23.6408 F   0  0  0  0  0  0  0  0  0  0  0  0
  1  2  1  0  0  0  0
  1  5  2  0  0  0  0
  2  6  2  0  0  0  0
  3  8  2  0  0  0  0
  3 15  1  0  0  0  0
  4  9  1  0  0  0  0
  4 15  2  0  0  0  0
  5 17  1  0  0  0  0
  6 19  1  0  0  0  0
  7 10  2  0  0  0  0
  7 18  1  0  0  0  0
  8 21  1  0  0  0  0
  9 21  2  0  0  0  0
 10 22  1  0  0  0  0
 11 12  2  0  0  0  0
 11 23  1  0  0  0  0
 12 24  1  0  0  0  0
 13 20  1  0  0  0  0
 13 22  2  0  0  0  0
 14 24  2  0  0  0  0
 14 25  1  0  0  0  0
 15 26  1  0  0  0  0
 16 26  1  0  0  0  0
 16 27  2  0  0  0  0
 16 28  1  0  0  0  0
 17 19  2  0  0  0  0
 17 33  1  0  0  0  0
 18 20  2  0  0  0  0
 18 34  1  0  0  0  0
 19 46  1  0  0  0  0
 20 35  1  0  0  0  0
 21 80  1  0  0  0  0
 22 81  1  0  0  0  0
 23 25  2  0  0  0  0
 23 80  1  0  0  0  0
 24 82  1  0  0  0  0
 25 83  1  0  0  0  0
 26 64  2  0  0  0  0
 27 65  1  0  0  0  0
 27 69  1  0  0  0  0
 28 70  1  0  0  0  0
 28 75  2  0  0  0  0
 29 47  1  0  0  0  0
 29 71  1  0  0  0  0
 29 76  2  0  0  0  0
 30 60  1  0  0  0  0
 30 66  1  0  0  0  0
 30 77  2  0  0  0  0
 31 61  1  0  0  0  0
 31 72  1  0  0  0  0
 31 78  2  0  0  0  0
 32 67  1  0  0  0  0
 32 68  1  0  0  0  0
 32 79  2  0  0  0  0
 33 36  1  0  0  0  0
 34 47  1  0  0  0  0
 35 66  1  0  0  0  0
 36 38  1  0  0  0  0
 37 39  1  0  0  0  0
 37 42  1  0  0  0  0
 38 46  1  0  0  0  0
 39 48  1  0  0  0  0
 40 43  1  0  0  0  0
 40 49  1  0  0  0  0
 41 44  1  0  0  0  0
 41 49  1  0  0  0  0
 42 67  1  0  0  0  0
 43 68  1  0  0  0  0
 44 68  1  0  0  0  0
 45 48  1  0  0  0  0
 45 67  1  0  0  0  0
 46 71  1  0  0  0  0
 47 66  1  0  0  0  0
 48 65  1  0  0  0  0
 49 74  1  0  0  0  0
 50 61  1  0  0  0  0
 51 62  1  0  0  0  0
 52 62  1  0  0  0  0
 53 63  1  0  0  0  0
 54 63  1  0  0  0  0
 55 63  1  0  0  0  0
 56 73  1  0  0  0  0
 57 58  1  0  0  0  0
 57 59  1  0  0  0  0
 58 74  1  0  0  0  0
 59 81  1  0  0  0  0
 60 63  1  0  0  0  0
 60 72  1  0  0  0  0
 61 73  1  0  0  0  0
 62 74  1  0  0  0  0
 64 65  1  0  0  0  0
M  CHG  2  73   1  74   1
M  ISO  4  32 100  59 101  68 100  81 101
M  END
> <Batch ID>
0113

> <Smiles>
CNC(C)C(=O)NC(C(=O)N1Cc2cc([101O:1][101CH2:1]CCN(C(C)C)C3CC[100N:0]([100C:0](=O)N4CCCC(n5nc(-c6ccc(Oc7ccc(F)cc7F)cc6)c(C(N)=O)c5N)C4)CC3)ccc2CC1C(=O)NC1CCCc2ccccc21)C(C)(C)C

> <Shape>
0.253

> <Color>
0.195

> <Negative vol penalty>
0.000

$$$$

  -OEChem-04052320053D

 86 94  0     1  0  0  0  0  0999 V2000
  -29.2774  -23.8818   18.2409 C   0  0  0  0  0  0  0  0  0  0  0  0
  -28.2347  -24.7518   17.9427 C   0  0  0  0  0  0  0  0  0  0  0  0
  -23.9721  -14.9953   21.9638 C   0  0  0  0  0  0  0  0  0  0  0  0
  -25.9436  -16.3904   22.0257 C   0  0  0  0  0  0  0  0  0  0  0  0
  -29.7196  -23.7549   19.5561 C   0  0  0  0  0  0  0  0  0  0  0  0
  -27.6419  -25.5038   18.9575 C   0  0  0  0  0  0  0  0  0  0  0  0
  -22.8736  -29.2944   18.8091 C   0  0  0  0  0  0  0  0  0  0  0  0
  -24.7729  -13.8728   21.7536 C   0  0  0  0  0  0  0  0  0  0  0  0
  -26.7445  -15.2678   21.8156 C   0  0  0  0  0  0  0  0  0  0  0  0
  -21.4950  -29.2222   19.0045 C   0  0  0  0  0  0  0  0  0  0  0  0
  -27.6614  -13.3132   19.2138 C   0  0  0  0  0  0  0  0  0  0  0  0
  -28.6872  -13.4156   18.2742 C   0  0  0  0  0  0  0  0  0  0  0  0
  -21.7848  -29.9651   21.2812 C   0  0  0  0  0  0  0  0  0  0  0  0
  -30.3114  -12.9234   19.9937 C   0  0  0  0  0  0  0  0  0  0  0  0
  -24.5574  -16.2541   22.0997 C   0  0  0  0  0  0  0  0  0  0  0  0
  -23.3168  -17.9443   23.5529 C   0  0  0  0  0  0  0  0  0  0  0  0
  -29.1230  -24.4968   20.5888 C   0  0  0  0  0  0  0  0  0  0  0  0
  -23.7205  -29.6928   19.8533 C   0  0  0  0  0  0  0  0  0  0  0  0
  -28.0900  -25.4075   20.2874 C   0  0  0  0  0  0  0  0  0  0  0  0
  -23.1735  -30.0440   21.0957 C   0  0  0  0  0  0  0  0  0  0  0  0
  -26.1592  -14.0090   21.6796 C   0  0  0  0  0  0  0  0  0  0  0  0
  -20.9507  -29.5547   20.2415 C   0  0  0  0  0  0  0  0  0  0  0  0
  -27.9606  -13.0160   20.5434 C   0  0  0  0  0  0  0  0  0  0  0  0
  -30.0122  -13.2207   18.6641 C   0  0  0  0  0  0  0  0  0  0  0  0
  -29.2855  -12.8210   20.9333 C   0  0  0  0  0  0  0  0  0  0  0  0
  -23.7306  -17.4141   22.3162 C   0  0  0  0  0  0  0  0  0  0  0  0
  -22.5548  -19.0375   23.2201 C   0  0  0  0  0  0  0  0  0  0  0  0
  -23.5964  -17.4894   24.8836 C   0  0  0  0  0  0  0  0  0  0  0  0
  -26.0938  -28.3221   21.4635 C   0  0  0  0  0  0  0  0  0  0  0  0
  -26.3768  -31.2693   22.7887 C   0  0  0  0  0  0  0  0  0  0  0  0
  -22.4114  -23.2654   19.2388 C   0  0  0  0  0  0  0  0  0  0  0  0
  -20.2020  -26.0959   22.1219 C   0  0  0  0  0  0  0  0  0  0  0  0
  -24.9045  -34.2464   23.5740 C   0  0  0  0  0  0  0  0  0  0  0  0
  -29.6462  -24.3263   21.9932 C   0  0  0  0  0  0  0  0  0  0  0  0
  -25.2029  -29.7912   19.6185 C   0  0  0  0  0  0  0  0  0  0  0  0
  -24.0377  -30.4972   22.2431 C   0  0  0  0  0  0  0  0  0  0  0  0
  -28.6714  -24.8242   23.0553 C   0  0  0  0  0  0  0  0  0  0  0  0
  -20.1271  -20.5052   19.1813 C   0  0  0  0  0  0  0  0  0  0  0  0
  -28.1871  -26.2224   22.7018 C   0  0  0  0  0  0  0  0  0  0  0  0
  -20.7978  -19.4655   20.0782 C   0  0  0  0  0  0  0  0  0  0  0  0
  -21.1561  -21.3100   18.3934 C   0  0  0  0  0  0  0  0  0  0  0  0
  -22.8650  -20.9309   20.1420 C   0  0  0  0  0  0  0  0  0  0  0  0
  -22.2897  -24.2331   23.7523 C   0  0  0  0  0  0  0  0  0  0  0  0
  -27.4096  -26.2130   21.3795 C   0  0  1  0  0  0  0  0  0  0  0  0
  -26.0182  -29.7153   20.9057 C   0  0  1  0  0  0  0  0  0  0  0  0
  -22.2426  -24.6163   22.2791 C   0  0  1  0  0  0  0  0  0  0  0  0
  -23.0387  -23.4864   21.6177 C   0  0  2  0  0  0  0  0  0  0  0  0
  -21.8624  -20.1166   20.9787 C   0  0  2  0  0  0  0  0  0  0  0  0
  -24.2330  -23.3393   22.5649 C   0  0  2  0  0  0  0  0  0  0  0  0
  -24.8882  -21.9709   22.5466 C   0  0  0  0  0  0  0  0  0  0  0  0
  -25.3772  -36.4442   24.6890 C   0  0  0  0  0  0  0  0  0  0  0  0
  -24.7834  -23.0988   19.8514 C   0  0  0  0  0  0  0  0  0  0  0  0
  -23.5898  -25.3064   19.9777 C   0  0  0  0  0  0  0  0  0  0  0  0
  -26.1832  -29.9227   25.5198 C   0  0  0  0  0  0  0  0  0  0  0  0
  -25.7060  -32.1693   26.5163 C   0  0  0  0  0  0  0  0  0  0  0  0
  -27.8847  -31.7499   25.3759 C   0  0  0  0  0  0  0  0  0  0  0  0
  -24.3591  -35.7569   21.0881 C   0  0  0  0  0  0  0  0  0  0  0  0
  -20.8204  -24.7562   21.7674 C   0  0  0  0  0  0  0  0  0  0  0  0
  -17.6936  -28.0355   20.4917 C   0  0  0  0  0  0  0  0  0  0  0  0
  -18.0946  -27.3862   21.8094 C   0  0  0  0  0  0  0  0  0  0  0  0
  -18.8902  -28.5103   19.6764 C   0  0  0  0  0  0  0  0  0  1  0  0
  -25.7810  -31.9631   23.9899 C   0  0  1  0  0  0  0  0  0  0  0  0
  -25.3620  -35.6800   23.3743 C   0  0  2  0  0  0  0  0  0  0  0  0
  -23.4589  -23.7932   20.1866 C   0  0  0  0  0  0  0  0  0  0  0  0
  -26.3723  -31.4409   25.3297 C   0  0  0  0  0  0  0  0  0  0  0  0
  -23.2695  -18.1129   21.2754 N   0  0  0  0  0  0  0  0  0  0  0  0
  -22.5580  -19.0933   21.8574 N   0  0  0  0  0  0  0  0  0  0  0  0
  -25.4817  -30.5711   21.9658 N   0  0  0  0  0  0  0  0  0  0  0  0
  -22.1624  -21.8935   19.2823 N   0  0  0  0  0  0  0  0  0  0  0  0
  -21.8889  -19.9468   23.9632 N   0  0  0  0  0  0  0  0  0  0  0  0
  -24.3965  -16.3502   25.0459 N   0  0  0  0  0  0  0  0  0  0  0  0
  -27.1500  -27.5770   20.9747 N   0  0  0  0  0  0  0  0  0  0  0  0
  -18.9105  -26.2192   21.6179 N   0  0  0  0  0  0  0  0  0  0  0  0
  -25.9696  -33.3931   23.7705 N   0  0  0  0  0  0  0  0  0  0  0  0
  -23.6417  -23.6017   23.9283 N   0  3  0  0  0  0  0  0  0  0  0  0
  -24.4517  -36.3875   22.4300 N   0  3  0  0  0  0  0  0  0  0  0  0
  -23.1364  -18.0662   25.8981 O   0  0  0  0  0  0  0  0  0  0  0  0
  -25.2569  -27.9512   22.2781 O   0  0  0  0  0  0  0  0  0  0  0  0
  -27.5905  -31.3501   22.5841 O   0  0  0  0  0  0  0  0  0  0  0  0
  -21.8308  -24.0510   18.4851 O   0  0  0  0  0  0  0  0  0  0  0  0
  -20.7871  -26.9534   22.7780 O   0  0  0  0  0  0  0  0  0  0  0  0
  -23.7205  -33.9171   23.5609 O   0  0  0  0  0  0  0  0  0  0  0  0
  -26.9410  -12.9138   21.4749 O   0  0  0  0  0  0  0  0  0  0  0  0
  -19.6056  -29.4844   20.4351 O   0  0  0  0  0  0  0  0  0  1  0  0
  -30.9970  -13.3176   17.7614 F   0  0  0  0  0  0  0  0  0  0  0  0
  -29.5790  -12.5341   22.2090 F   0  0  0  0  0  0  0  0  0  0  0  0
  1  2  1  0  0  0  0
  1  5  2  0  0  0  0
  2  6  2  0  0  0  0
  3  8  2  0  0  0  0
  3 15  1  0  0  0  0
  4  9  1  0  0  0  0
  4 15  2  0  0  0  0
  5 17  1  0  0  0  0
  6 19  1  0  0  0  0
  7 10  2  0  0  0  0
  7 18  1  0  0  0  0
  8 21  1  0  0  0  0
  9 21  2  0  0  0  0
 10 22  1  0  0  0  0
 11 12  2  0  0  0  0
 11 23  1  0  0  0  0
 12 24  1  0  0  0  0
 13 20  1  0  0  0  0
 13 22  2  0  0  0  0
 14 24  2  0  0  0  0
 14 25  1  0  0  0  0
 15 26  1  0  0  0  0
 16 26  1  0  0  0  0
 16 27  2  0  0  0  0
 16 28  1  0  0  0  0
 17 19  2  0  0  0  0
 17 34  1  0  0  0  0
 18 20  2  0  0  0  0
 18 35  1  0  0  0  0
 19 44  1  0  0  0  0
 20 36  1  0  0  0  0
 21 83  1  0  0  0  0
 22 84  1  0  0  0  0
 23 25  2  0  0  0  0
 23 83  1  0  0  0  0
 24 85  1  0  0  0  0
 25 86  1  0  0  0  0
 26 66  2  0  0  0  0
 27 67  1  0  0  0  0
 27 70  1  0  0  0  0
 28 71  1  0  0  0  0
 28 77  2  0  0  0  0
 29 45  1  0  0  0  0
 29 72  1  0  0  0  0
 29 78  2  0  0  0  0
 30 62  1  0  0  0  0
 30 68  1  0  0  0  0
 30 79  2  0  0  0  0
 31 64  1  0  0  0  0
 31 69  1  0  0  0  0
 31 80  2  0  0  0  0
 32 58  1  0  0  0  0
 32 73  1  0  0  0  0
 32 81  2  0  0  0  0
 33 63  1  0  0  0  0
 33 74  1  0  0  0  0
 33 82  2  0  0  0  0
 34 37  1  0  0  0  0
 35 45  1  0  0  0  0
 36 68  1  0  0  0  0
 37 39  1  0  0  0  0
 38 40  1  0  0  0  0
 38 41  1  0  0  0  0
 39 44  1  0  0  0  0
 40 48  1  0  0  0  0
 41 69  1  0  0  0  0
 42 48  1  0  0  0  0
 42 69  1  0  0  0  0
 43 46  1  0  0  0  0
 43 75  1  0  0  0  0
 44 72  1  0  0  0  0
 45 68  1  0  0  0  0
 46 47  1  0  0  0  0
 46 58  1  0  0  0  0
 47 49  1  0  0  0  0
 47 64  1  0  0  0  0
 48 67  1  0  0  0  0
 49 50  1  0  0  0  0
 49 75  1  0  0  0  0
 51 63  1  0  0  0  0
 52 64  1  0  0  0  0
 53 64  1  0  0  0  0
 54 65  1  0  0  0  0
 55 65  1  0  0  0  0
 56 65  1  0  0  0  0
 57 76  1  0  0  0  0
 59 60  1  0  0  0  0
 59 61  1  0  0  0  0
 60 73  1  0  0  0  0
 61 84  1  0  0  0  0
 62 65  1  0  0  0  0
 62 74  1  0  0  0  0
 63 76  1  0  0  0  0
 66 67  1  0  0  0  0
M  CHG  2  75   1  76   1
M  ISO  4  31 100  61 101  64 100  84 101
M  END
> <Batch ID>
0113

> <Smiles>
CNC(C)C(=O)NC(C(=O)N1Cc2cc([101O:1][101CH2:1]CCNC(=O)CC3CNC(C)C3[100C:0](C)(C)[100C:0](=O)N3CCCC(n4nc(-c5ccc(Oc6ccc(F)cc6F)cc5)c(C(N)=O)c4N)C3)ccc2CC1C(=O)NC1CCCc2ccccc21)C(C)(C)C

> <Shape>
0.258

> <Color>
0.062

> <Negative vol penalty>
0.000

$$$$

  -OEChem-04052320053D

 82 90  0     1  0  0  0  0  0999 V2000
  -17.1593  -28.2549   24.5527 C   0  0  0  0  0  0  0  0  0  0  0  0
  -18.1144  -27.3939   24.0216 C   0  0  0  0  0  0  0  0  0  0  0  0
  -26.1938  -13.7355   21.8370 C   0  0  0  0  0  0  0  0  0  0  0  0
  -26.2426  -12.5678   19.7225 C   0  0  0  0  0  0  0  0  0  0  0  0
  -17.1072  -29.5825   24.1300 C   0  0  0  0  0  0  0  0  0  0  0  0
  -19.0172  -27.8599   23.0665 C   0  0  0  0  0  0  0  0  0  0  0  0
  -23.7623  -26.3423   23.9753 C   0  0  0  0  0  0  0  0  0  0  0  0
  -24.9671  -13.1428   22.1360 C   0  0  0  0  0  0  0  0  0  0  0  0
  -25.0159  -11.9750   20.0215 C   0  0  0  0  0  0  0  0  0  0  0  0
  -24.0879  -25.0306   23.6327 C   0  0  0  0  0  0  0  0  0  0  0  0
  -23.8837   -9.4168   21.9173 C   0  0  0  0  0  0  0  0  0  0  0  0
  -23.7486   -8.0506   21.6709 C   0  0  0  0  0  0  0  0  0  0  0  0
  -25.1235  -25.8241   21.6036 C   0  0  0  0  0  0  0  0  0  0  0  0
  -21.9367   -8.5061   20.1391 C   0  0  0  0  0  0  0  0  0  0  0  0
  -26.8316  -13.4480   20.6302 C   0  0  0  0  0  0  0  0  0  0  0  0
  -29.3800  -13.5631   20.6245 C   0  0  0  0  0  0  0  0  0  0  0  0
  -18.0161  -30.0674   23.1764 C   0  0  0  0  0  0  0  0  0  0  0  0
  -24.1058  -27.4055   23.1279 C   0  0  0  0  0  0  0  0  0  0  0  0
  -18.9764  -29.1949   22.6297 C   0  0  0  0  0  0  0  0  0  0  0  0
  -24.8034  -27.1486   21.9390 C   0  0  0  0  0  0  0  0  0  0  0  0
  -24.3781  -12.2626   21.2282 C   0  0  0  0  0  0  0  0  0  0  0  0
  -24.7661  -24.7711   22.4453 C   0  0  0  0  0  0  0  0  0  0  0  0
  -23.0453  -10.3277   21.2747 C   0  0  0  0  0  0  0  0  0  0  0  0
  -22.7752   -7.5952   20.7818 C   0  0  0  0  0  0  0  0  0  0  0  0
  -22.0718   -9.8723   20.3855 C   0  0  0  0  0  0  0  0  0  0  0  0
  -28.0985  -14.0604   20.3205 C   0  0  0  0  0  0  0  0  0  0  0  0
  -30.2425  -14.5067   20.1223 C   0  0  0  0  0  0  0  0  0  0  0  0
  -29.7570  -12.3561   21.3003 C   0  0  0  0  0  0  0  0  0  0  0  0
  -22.4741  -29.6019   21.5102 C   0  0  0  0  0  0  0  0  0  0  0  0
  -25.4331  -30.7663   20.8693 C   0  0  0  0  0  0  0  0  0  0  0  0
  -28.7816  -30.1715   20.5850 C   0  0  0  0  0  0  0  0  0  0  0  0
  -29.2908  -20.4381   19.0733 C   0  0  0  0  0  0  0  0  0  0  0  0
  -17.8905  -31.4980   22.7157 C   0  0  0  0  0  0  0  0  0  0  0  0
  -23.7709  -28.8171   23.5247 C   0  0  0  0  0  0  0  0  0  0  0  0
  -25.2128  -28.2566   21.0045 C   0  0  0  0  0  0  0  0  0  0  0  0
  -19.1237  -32.0101   21.9758 C   0  0  0  0  0  0  0  0  0  0  0  0
  -30.1015  -17.7807   16.5471 C   0  0  0  0  0  0  0  0  0  0  0  0
  -19.5875  -30.9897   20.9412 C   0  0  0  0  0  0  0  0  0  0  0  0
  -30.1977  -16.5047   17.3840 C   0  0  0  0  0  0  0  0  0  0  0  0
  -26.3584  -20.3186   17.7451 C   0  0  0  0  0  0  0  0  0  0  0  0
  -30.3714  -19.0321   17.3690 C   0  0  0  0  0  0  0  0  0  0  0  0
  -28.9364  -17.9159   19.0852 C   0  0  0  0  0  0  0  0  0  0  0  0
  -19.9889  -29.6694   21.6100 C   0  0  1  0  0  0  0  0  0  0  0  0
  -23.7161  -29.7743   22.3381 C   0  0  1  0  0  0  0  0  0  0  0  0
  -25.6462  -21.1357   18.7857 C   0  0  2  0  0  0  0  0  0  0  0  0
  -29.9133  -16.7453   18.8777 C   0  0  1  0  0  0  0  0  0  0  0  0
  -26.7765  -20.2235   19.1897 C   0  0  2  0  0  0  0  0  0  0  0  0
  -28.2099  -21.5488   21.9666 C   0  0  0  0  0  0  0  0  0  0  0  0
  -30.9427  -31.3101   20.0099 C   0  0  0  0  0  0  0  0  0  0  0  0
  -23.2463  -20.9775   18.0177 C   0  0  0  0  0  0  0  0  0  0  0  0
  -23.3459  -20.1368   22.0905 C   0  0  0  0  0  0  0  0  0  0  0  0
  -24.6932  -30.6708   17.9107 C   0  0  0  0  0  0  0  0  0  0  0  0
  -27.1271  -30.8911   17.3665 C   0  0  0  0  0  0  0  0  0  0  0  0
  -25.9577  -32.7139   18.6045 C   0  0  0  0  0  0  0  0  0  0  0  0
  -29.9133  -29.6325   23.2660 C   0  0  0  0  0  0  0  0  0  0  0  0
  -27.9521  -21.9201   20.5202 C   0  0  0  0  0  0  0  0  0  0  0  0
  -24.2114  -22.4619   22.5699 C   0  0  0  0  0  0  0  0  0  1  0  0
  -26.4610  -30.5371   19.7877 C   0  0  1  0  0  0  0  0  0  0  0  0
  -29.9869  -30.9190   21.1263 C   0  0  2  0  0  0  0  0  0  0  0  0
  -24.2157  -20.7995   19.1752 C   0  0  2  0  0  0  0  0  0  0  0  0
  -24.2566  -21.2631   21.6292 C   0  0  2  0  0  0  0  0  0  0  0  0
  -26.0505  -31.1820   18.4338 C   0  0  0  0  0  0  0  0  0  0  0  0
  -28.1387  -15.2292   19.6753 N   0  0  0  0  0  0  0  0  0  0  0  0
  -29.4559  -15.4743   19.5699 N   0  0  0  0  0  0  0  0  0  0  0  0
  -24.8571  -29.6192   21.4336 N   0  0  0  0  0  0  0  0  0  0  0  0
  -29.4419  -19.1667   18.4946 N   0  0  0  0  0  0  0  0  0  0  0  0
  -31.5895  -14.5949   20.1039 N   0  0  0  0  0  0  0  0  0  0  0  0
  -28.7442  -11.4986   21.7513 N   0  0  0  0  0  0  0  0  0  0  0  0
  -21.2990  -29.7864   22.2135 N   0  0  0  0  0  0  0  0  0  0  0  0
  -27.7294  -31.0225   20.3205 N   0  0  0  0  0  0  0  0  0  0  0  0
  -28.0461  -20.7597   19.6402 N   0  0  0  0  0  0  0  0  0  0  0  0
  -30.7269  -30.0705   22.1027 N   0  3  0  0  0  0  0  0  0  0  0  0
  -23.8032  -21.7041   20.2783 N   0  3  0  0  0  0  0  0  0  0  0  0
  -30.9560  -12.0551   21.5128 O   0  0  0  0  0  0  0  0  0  0  0  0
  -22.5745  -29.3236   20.3210 O   0  0  0  0  0  0  0  0  0  0  0  0
  -25.1568  -31.9203   21.2063 O   0  0  0  0  0  0  0  0  0  0  0  0
  -28.7754  -28.9550   20.4105 O   0  0  0  0  0  0  0  0  0  0  0  0
  -30.2244  -21.2525   19.0762 O   0  0  0  0  0  0  0  0  0  0  0  0
  -23.1812  -11.6838   21.5198 O   0  0  0  0  0  0  0  0  0  0  0  0
  -25.0846  -23.4918   22.1082 O   0  0  0  0  0  0  0  0  0  1  0  0
  -22.6466   -6.2833   20.5441 F   0  0  0  0  0  0  0  0  0  0  0  0
  -21.2642  -10.7427   19.7642 F   0  0  0  0  0  0  0  0  0  0  0  0
  1  2  1  0  0  0  0
  1  5  2  0  0  0  0
  2  6  2  0  0  0  0
  3  8  2  0  0  0  0
  3 15  1  0  0  0  0
  4  9  1  0  0  0  0
  4 15  2  0  0  0  0
  5 17  1  0  0  0  0
  6 19  1  0  0  0  0
  7 10  2  0  0  0  0
  7 18  1  0  0  0  0
  8 21  1  0  0  0  0
  9 21  2  0  0  0  0
 10 22  1  0  0  0  0
 11 12  2  0  0  0  0
 11 23  1  0  0  0  0
 12 24  1  0  0  0  0
 13 20  1  0  0  0  0
 13 22  2  0  0  0  0
 14 24  2  0  0  0  0
 14 25  1  0  0  0  0
 15 26  1  0  0  0  0
 16 26  1  0  0  0  0
 16 27  2  0  0  0  0
 16 28  1  0  0  0  0
 17 19  2  0  0  0  0
 17 33  1  0  0  0  0
 18 20  2  0  0  0  0
 18 34  1  0  0  0  0
 19 43  1  0  0  0  0
 20 35  1  0  0  0  0
 21 79  1  0  0  0  0
 22 80  1  0  0  0  0
 23 25  2  0  0  0  0
 23 79  1  0  0  0  0
 24 81  1  0  0  0  0
 25 82  1  0  0  0  0
 26 63  2  0  0  0  0
 27 64  1  0  0  0  0
 27 67  1  0  0  0  0
 28 68  1  0  0  0  0
 28 74  2  0  0  0  0
 29 44  1  0  0  0  0
 29 69  1  0  0  0  0
 29 75  2  0  0  0  0
 30 58  1  0  0  0  0
 30 65  1  0  0  0  0
 30 76  2  0  0  0  0
 31 59  1  0  0  0  0
 31 70  1  0  0  0  0
 31 77  2  0  0  0  0
 32 66  1  0  0  0  0
 32 71  1  0  0  0  0
 32 78  2  0  0  0  0
 33 36  1  0  0  0  0
 34 44  1  0  0  0  0
 35 65  1  0  0  0  0
 36 38  1  0  0  0  0
 37 39  1  0  0  0  0
 37 41  1  0  0  0  0
 38 43  1  0  0  0  0
 39 46  1  0  0  0  0
 40 45  1  0  0  0  0
 40 47  1  0  0  0  0
 41 66  1  0  0  0  0
 42 46  1  0  0  0  0
 42 66  1  0  0  0  0
 43 69  1  0  0  0  0
 44 65  1  0  0  0  0
 45 47  1  0  0  0  0
 45 60  1  0  0  0  0
 46 64  1  0  0  0  0
 47 71  1  0  0  0  0
 48 56  1  0  0  0  0
 49 59  1  0  0  0  0
 50 60  1  0  0  0  0
 51 61  1  0  0  0  0
 52 62  1  0  0  0  0
 53 62  1  0  0  0  0
 54 62  1  0  0  0  0
 55 72  1  0  0  0  0
 56 71  1  0  0  0  0
 57 61  1  0  0  0  0
 57 80  1  0  0  0  0
 58 62  1  0  0  0  0
 58 70  1  0  0  0  0
 59 72  1  0  0  0  0
 60 73  1  0  0  0  0
 61 73  1  0  0  0  0
 63 64  1  0  0  0  0
M  CHG  2  72   1  73   1
M  ISO  4  32 100  57 101  71 100  80 101
M  END
> <Batch ID>
0113

> <Smiles>
CC[100N:0](C1CC1C(C)NC(C)[101CH2:1][101O:1]c1ccc2c(c1)CN(C(=O)C(NC(=O)C(C)NC)C(C)(C)C)C(C(=O)NC1CCCc3ccccc31)C2)[100C:0](=O)N1CCCC(n2nc(-c3ccc(Oc4ccc(F)cc4F)cc3)c(C(N)=O)c2N)C1

> <Shape>
0.247

> <Color>
0.084

> <Negative vol penalty>
0.000

$$$$

  -OEChem-04052320053D

 90 98  0     1  0  0  0  0  0999 V2000
  -17.2377  -25.4253   21.7042 C   0  0  0  0  0  0  0  0  0  0  0  0
  -18.3812  -25.4463   20.9122 C   0  0  0  0  0  0  0  0  0  0  0  0
  -30.5892  -25.5924   17.6150 C   0  0  0  0  0  0  0  0  0  0  0  0
  -26.8263  -13.0110   21.2780 C   0  0  0  0  0  0  0  0  0  0  0  0
  -24.5289  -13.5953   20.8116 C   0  0  0  0  0  0  0  0  0  0  0  0
  -17.0259  -26.4301   22.6474 C   0  0  0  0  0  0  0  0  0  0  0  0
  -19.3131  -26.4727   21.0621 C   0  0  0  0  0  0  0  0  0  0  0  0
  -24.0820  -24.7707   21.1404 C   0  0  0  0  0  0  0  0  0  0  0  0
  -26.5648  -11.6906   20.9123 C   0  0  0  0  0  0  0  0  0  0  0  0
  -24.2674  -12.2749   20.4457 C   0  0  0  0  0  0  0  0  0  0  0  0
  -24.6587  -24.4357   19.9161 C   0  0  0  0  0  0  0  0  0  0  0  0
  -23.6736   -9.3306   21.9980 C   0  0  0  0  0  0  0  0  0  0  0  0
  -22.5074   -8.7416   22.4866 C   0  0  0  0  0  0  0  0  0  0  0  0
  -31.0401  -24.9996   18.7892 C   0  0  0  0  0  0  0  0  0  0  0  0
  -29.4475  -25.1036   16.9899 C   0  0  0  0  0  0  0  0  0  0  0  0
  -25.8074  -26.5567   19.8837 C   0  0  0  0  0  0  0  0  0  0  0  0
  -21.7364   -8.3912   20.2239 C   0  0  0  0  0  0  0  0  0  0  0  0
  -25.8083  -13.9633   21.2277 C   0  0  0  0  0  0  0  0  0  0  0  0
  -26.5132  -16.3716   20.7684 C   0  0  0  0  0  0  0  0  0  0  0  0
  -17.9604  -27.4640   22.8156 C   0  0  0  0  0  0  0  0  0  0  0  0
  -24.3556  -26.0079   21.7413 C   0  0  0  0  0  0  0  0  0  0  0  0
  -19.1129  -27.4930   22.0074 C   0  0  0  0  0  0  0  0  0  0  0  0
  -25.2349  -26.9039   21.1169 C   0  0  0  0  0  0  0  0  0  0  0  0
  -25.2853  -11.3225   20.4961 C   0  0  0  0  0  0  0  0  0  0  0  0
  -25.5192  -25.3299   19.2861 C   0  0  0  0  0  0  0  0  0  0  0  0
  -23.8712   -9.4500   20.6224 C   0  0  0  0  0  0  0  0  0  0  0  0
  -21.5388   -8.2719   21.5996 C   0  0  0  0  0  0  0  0  0  0  0  0
  -22.9026   -8.9802   19.7353 C   0  0  0  0  0  0  0  0  0  0  0  0
  -26.0777  -15.3273   21.6060 C   0  0  0  0  0  0  0  0  0  0  0  0
  -30.3192  -23.9291   19.2935 C   0  0  0  0  0  0  0  0  0  0  0  0
  -28.7981  -24.0283   17.5746 C   0  0  0  0  0  0  0  0  0  0  0  0
  -26.6195  -17.4584   21.6015 C   0  0  0  0  0  0  0  0  0  0  0  0
  -26.7962  -16.3603   19.3629 C   0  0  0  0  0  0  0  0  0  0  0  0
  -22.6137  -28.5364   22.5633 C   0  0  0  0  0  0  0  0  0  0  0  0
  -25.4018  -29.5401   23.8830 C   0  0  0  0  0  0  0  0  0  0  0  0
  -28.8104  -29.3790   23.9253 C   0  0  0  0  0  0  0  0  0  0  0  0
  -24.0876  -20.4913   25.6890 C   0  0  0  0  0  0  0  0  0  0  0  0
  -17.6649  -28.5540   23.8153 C   0  0  0  0  0  0  0  0  0  0  0  0
  -23.7465  -26.3431   23.0751 C   0  0  0  0  0  0  0  0  0  0  0  0
  -25.5771  -28.2364   21.7301 C   0  0  0  0  0  0  0  0  0  0  0  0
  -18.8842  -29.4006   24.1716 C   0  0  0  0  0  0  0  0  0  0  0  0
  -26.4448  -17.7991   26.6362 C   0  0  0  0  0  0  0  0  0  0  0  0
  -19.6391  -29.8069   22.9099 C   0  0  0  0  0  0  0  0  0  0  0  0
  -26.5321  -16.9677   25.3575 C   0  0  0  0  0  0  0  0  0  0  0  0
  -25.1013  -18.5116   26.7589 C   0  0  0  0  0  0  0  0  0  0  0  0
  -24.8409  -18.5175   24.3000 C   0  0  0  0  0  0  0  0  0  0  0  0
  -20.1591  -28.5760   22.1576 C   0  0  1  0  0  0  0  0  0  0  0  0
  -23.6921  -27.8433   23.3470 C   0  0  1  0  0  0  0  0  0  0  0  0
  -26.1998  -17.8236   24.1229 C   0  0  2  0  0  0  0  0  0  0  0  0
  -28.8504  -21.7729   15.5105 C   0  0  0  0  0  0  0  0  0  0  0  0
  -31.1521  -29.8083   24.7189 C   0  0  0  0  0  0  0  0  0  0  0  0
  -31.4995  -23.6972   23.6010 C   0  0  0  0  0  0  0  0  0  0  0  0
  -25.0802  -32.1233   22.2913 C   0  0  0  0  0  0  0  0  0  0  0  0
  -27.4957  -32.6132   22.7314 C   0  0  0  0  0  0  0  0  0  0  0  0
  -25.8937  -32.4366   24.6354 C   0  0  0  0  0  0  0  0  0  0  0  0
  -23.6557  -22.7680   24.8464 C   0  0  0  0  0  0  0  0  0  0  0  0
  -28.7357  -27.0618   25.7648 C   0  0  0  0  0  0  0  0  0  0  0  0
  -30.7737  -23.2686   20.5523 C   0  0  0  0  0  0  0  0  0  0  0  0
  -27.7075  -21.9916   16.4948 C   0  0  0  0  0  0  0  0  0  0  0  0
  -27.8984  -22.1321   23.4082 C   0  0  0  0  0  0  0  0  0  0  0  0
  -26.7219  -22.1393   24.3891 C   0  0  0  0  0  0  0  0  0  0  0  0
  -29.1459  -22.8451   23.9466 C   0  0  0  0  0  0  0  0  0  0  0  0
  -25.4791  -21.4661   23.8138 C   0  0  0  0  0  0  0  0  0  0  0  0
  -26.3230  -23.6216   17.8400 C   0  0  0  0  0  0  0  0  0  1  0  0
  -27.5445  -23.4665   16.9183 C   0  0  1  0  0  0  0  0  0  0  0  0
  -26.5856  -30.3424   23.3995 C   0  0  1  0  0  0  0  0  0  0  0  0
  -29.7969  -29.2126   25.0671 C   0  0  2  0  0  0  0  0  0  0  0  0
  -30.3395  -22.9226   22.9875 C   0  0  1  0  0  0  0  0  0  0  0  0
  -26.2560  -31.8547   23.2517 C   0  0  0  0  0  0  0  0  0  0  0  0
  -25.9185  -15.7156   22.8740 N   0  0  0  0  0  0  0  0  0  0  0  0
  -29.2059  -23.4264   18.7144 N   0  0  0  0  0  0  0  0  0  0  0  0
  -26.2558  -17.0161   22.8394 N   0  0  0  0  0  0  0  0  0  0  0  0
  -24.9514  -28.5208   23.0320 N   0  0  0  0  0  0  0  0  0  0  0  0
  -24.7905  -19.2827   25.5547 N   0  0  0  0  0  0  0  0  0  0  0  0
  -26.9879  -18.7395   21.3887 N   0  0  0  0  0  0  0  0  0  0  0  0
  -26.6346  -15.1595   18.6584 N   0  0  0  0  0  0  0  0  0  0  0  0
  -21.3426  -28.0510   22.8044 N   0  0  0  0  0  0  0  0  0  0  0  0
  -27.6775  -30.0564   24.3239 N   0  0  0  0  0  0  0  0  0  0  0  0
  -24.3511  -21.4930   24.7425 N   0  0  0  0  0  0  0  0  0  0  0  0
  -29.9854  -27.7682   25.3824 N   0  3  0  0  0  0  0  0  0  0  0  0
  -29.9382  -23.6145   21.7348 N   0  3  0  0  0  0  0  0  0  0  0  0
  -27.1967  -17.3807   18.7531 O   0  0  0  0  0  0  0  0  0  0  0  0
  -22.9125  -29.4454   21.7977 O   0  0  0  0  0  0  0  0  0  0  0  0
  -24.8997  -29.8032   24.9786 O   0  0  0  0  0  0  0  0  0  0  0  0
  -29.0252  -28.9542   22.7922 O   0  0  0  0  0  0  0  0  0  0  0  0
  -23.2782  -20.6686   26.6084 O   0  0  0  0  0  0  0  0  0  0  0  0
  -25.0298  -10.0343   20.1389 O   0  0  0  0  0  0  0  0  0  0  0  0
  -26.0830  -25.0057   18.0907 O   0  0  0  0  0  0  0  0  0  1  0  0
  -20.4197   -7.7049   22.0689 F   0  0  0  0  0  0  0  0  0  0  0  0
  -23.0874   -9.0910   18.4127 F   0  0  0  0  0  0  0  0  0  0  0  0
  1  2  1  0  0  0  0
  1  6  2  0  0  0  0
  2  7  2  0  0  0  0
  3 14  1  0  0  0  0
  3 15  2  0  0  0  0
  4  9  2  0  0  0  0
  4 18  1  0  0  0  0
  5 10  1  0  0  0  0
  5 18  2  0  0  0  0
  6 20  1  0  0  0  0
  7 22  1  0  0  0  0
  8 11  2  0  0  0  0
  8 21  1  0  0  0  0
  9 24  1  0  0  0  0
 10 24  2  0  0  0  0
 11 25  1  0  0  0  0
 12 13  2  0  0  0  0
 12 26  1  0  0  0  0
 13 27  1  0  0  0  0
 14 30  2  0  0  0  0
 15 31  1  0  0  0  0
 16 23  1  0  0  0  0
 16 25  2  0  0  0  0
 17 27  2  0  0  0  0
 17 28  1  0  0  0  0
 18 29  1  0  0  0  0
 19 29  1  0  0  0  0
 19 32  2  0  0  0  0
 19 33  1  0  0  0  0
 20 22  2  0  0  0  0
 20 38  1  0  0  0  0
 21 23  2  0  0  0  0
 21 39  1  0  0  0  0
 22 47  1  0  0  0  0
 23 40  1  0  0  0  0
 24 87  1  0  0  0  0
 25 88  1  0  0  0  0
 26 28  2  0  0  0  0
 26 87  1  0  0  0  0
 27 89  1  0  0  0  0
 28 90  1  0  0  0  0
 29 70  2  0  0  0  0
 30 58  1  0  0  0  0
 30 71  1  0  0  0  0
 31 65  1  0  0  0  0
 31 71  2  0  0  0  0
 32 72  1  0  0  0  0
 32 75  1  0  0  0  0
 33 76  1  0  0  0  0
 33 82  2  0  0  0  0
 34 48  1  0  0  0  0
 34 77  1  0  0  0  0
 34 83  2  0  0  0  0
 35 66  1  0  0  0  0
 35 73  1  0  0  0  0
 35 84  2  0  0  0  0
 36 67  1  0  0  0  0
 36 78  1  0  0  0  0
 36 85  2  0  0  0  0
 37 74  1  0  0  0  0
 37 79  1  0  0  0  0
 37 86  2  0  0  0  0
 38 41  1  0  0  0  0
 39 48  1  0  0  0  0
 40 73  1  0  0  0  0
 41 43  1  0  0  0  0
 42 44  1  0  0  0  0
 42 45  1  0  0  0  0
 43 47  1  0  0  0  0
 44 49  1  0  0  0  0
 45 74  1  0  0  0  0
 46 49  1  0  0  0  0
 46 74  1  0  0  0  0
 47 77  1  0  0  0  0
 48 73  1  0  0  0  0
 49 72  1  0  0  0  0
 50 59  1  0  0  0  0
 51 67  1  0  0  0  0
 52 68  1  0  0  0  0
 53 69  1  0  0  0  0
 54 69  1  0  0  0  0
 55 69  1  0  0  0  0
 56 79  1  0  0  0  0
 57 80  1  0  0  0  0
 58 81  1  0  0  0  0
 59 65  1  0  0  0  0
 60 61  1  0  0  0  0
 60 62  1  0  0  0  0
 61 63  1  0  0  0  0
 62 68  1  0  0  0  0
 63 79  1  0  0  0  0
 64 65  1  0  0  0  0
 64 88  1  0  0  0  0
 66 69  1  0  0  0  0
 66 78  1  0  0  0  0
 67 80  1  0  0  0  0
 68 81  1  0  0  0  0
 70 72  1  0  0  0  0
M  CHG  2  80   1  81   1
M  ISO  4  37 100  64 101  79 100  88 101
M  END
> <Batch ID>
0113

> <Smiles>
CCC(c1cccc(CNC(C)CCCC[100N:0](C)[100C:0](=O)N2CCCC(n3nc(-c4ccc(Oc5ccc(F)cc5F)cc4)c(C(N)=O)c3N)C2)n1)[101CH2:1][101O:1]c1ccc2c(c1)CN(C(=O)C(NC(=O)C(C)NC)C(C)(C)C)C(C(=O)NC1CCCc3ccccc31)C2

> <Shape>
0.240

> <Color>
0.057

> <Negative vol penalty>
0.000

$$$$

  -OEChem-04052320053D

 84 92  0     1  0  0  0  0  0999 V2000
  -31.9859  -28.6556   15.6510 C   0  0  0  0  0  0  0  0  0  0  0  0
  -31.1818  -27.8143   16.4133 C   0  0  0  0  0  0  0  0  0  0  0  0
  -24.1594   -9.4262   22.0553 C   0  0  0  0  0  0  0  0  0  0  0  0
  -23.0198   -9.8532   19.9681 C   0  0  0  0  0  0  0  0  0  0  0  0
  -32.3702  -29.8970   16.1563 C   0  0  0  0  0  0  0  0  0  0  0  0
  -30.7624  -28.2135   17.6818 C   0  0  0  0  0  0  0  0  0  0  0  0
  -25.8525  -27.2728   18.4899 C   0  0  0  0  0  0  0  0  0  0  0  0
  -23.4002   -8.2696   22.2331 C   0  0  0  0  0  0  0  0  0  0  0  0
  -22.2607   -8.6966   20.1460 C   0  0  0  0  0  0  0  0  0  0  0  0
  -25.4975  -25.9592   18.7938 C   0  0  0  0  0  0  0  0  0  0  0  0
  -20.2793   -7.4721   23.2570 C   0  0  0  0  0  0  0  0  0  0  0  0
  -19.7321   -7.2448   24.5197 C   0  0  0  0  0  0  0  0  0  0  0  0
  -25.3923  -26.5354   21.1339 C   0  0  0  0  0  0  0  0  0  0  0  0
  -27.8875  -22.1336   20.5767 C   0  0  0  0  0  0  0  0  0  0  0  0
  -20.9606   -5.1705   24.6786 C   0  0  0  0  0  0  0  0  0  0  0  0
  -27.3756  -20.8780   18.7792 C   0  0  0  0  0  0  0  0  0  0  0  0
  -23.9691  -10.2181   20.9228 C   0  0  0  0  0  0  0  0  0  0  0  0
  -25.9937  -11.5236   20.0835 C   0  0  0  0  0  0  0  0  0  0  0  0
  -31.9473  -30.3156   17.4277 C   0  0  0  0  0  0  0  0  0  0  0  0
  -25.9909  -28.2265   19.5086 C   0  0  0  0  0  0  0  0  0  0  0  0
  -31.1425  -29.4611   18.2051 C   0  0  0  0  0  0  0  0  0  0  0  0
  -25.7466  -27.8610   20.8401 C   0  0  0  0  0  0  0  0  0  0  0  0
  -28.4179  -21.5100   19.4205 C   0  0  0  0  0  0  0  0  0  0  0  0
  -22.4509   -7.9048   21.2785 C   0  0  0  0  0  0  0  0  0  0  0  0
  -25.2701  -25.5897   20.1162 C   0  0  0  0  0  0  0  0  0  0  0  0
  -21.1671   -6.5486   22.7050 C   0  0  0  0  0  0  0  0  0  0  0  0
  -20.0728   -6.0940   25.2305 C   0  0  0  0  0  0  0  0  0  0  0  0
  -21.5078   -5.3979   23.4158 C   0  0  0  0  0  0  0  0  0  0  0  0
  -24.7526  -11.4132   20.7388 C   0  0  0  0  0  0  0  0  0  0  0  0
  -26.5371  -21.8635   20.6069 C   0  0  0  0  0  0  0  0  0  0  0  0
  -26.3153  -12.8555   20.1794 C   0  0  0  0  0  0  0  0  0  0  0  0
  -26.7850  -10.5127   19.4452 C   0  0  0  0  0  0  0  0  0  0  0  0
  -28.3849  -30.0084   20.6028 C   0  0  0  0  0  0  0  0  0  0  0  0
  -26.0530  -31.3242   22.4339 C   0  0  0  0  0  0  0  0  0  0  0  0
  -22.9910  -30.9938   23.9043 C   0  0  0  0  0  0  0  0  0  0  0  0
  -24.7651  -18.1181   19.5908 C   0  0  0  0  0  0  0  0  0  0  0  0
  -32.4272  -31.6464   17.9506 C   0  0  0  0  0  0  0  0  0  0  0  0
  -26.3484  -29.6457   19.1616 C   0  0  0  0  0  0  0  0  0  0  0  0
  -25.8622  -28.8519   21.9684 C   0  0  0  0  0  0  0  0  0  0  0  0
  -31.6315  -32.1519   19.1512 C   0  0  0  0  0  0  0  0  0  0  0  0
  -24.2708  -16.5630   22.9107 C   0  0  0  0  0  0  0  0  0  0  0  0
  -31.4414  -31.0361   20.1738 C   0  0  0  0  0  0  0  0  0  0  0  0
  -24.3965  -15.0834   22.5617 C   0  0  0  0  0  0  0  0  0  0  0  0
  -23.6450  -17.3705   21.7744 C   0  0  0  0  0  0  0  0  0  0  0  0
  -24.4751  -15.7182   20.1204 C   0  0  0  0  0  0  0  0  0  0  0  0
  -30.6467  -29.8690   19.5755 C   0  0  1  0  0  0  0  0  0  0  0  0
  -26.9629  -30.4099   20.3302 C   0  0  1  0  0  0  0  0  0  0  0  0
  -25.1486  -14.9033   21.2347 C   0  0  2  0  0  0  0  0  0  0  0  0
  -25.7835  -21.7025   23.0023 C   0  0  0  0  0  0  0  0  0  0  0  0
  -21.3665  -32.2231   25.3697 C   0  0  0  0  0  0  0  0  0  0  0  0
  -30.7792  -20.9029   20.0543 C   0  0  0  0  0  0  0  0  0  0  0  0
  -30.3321  -22.9925   18.7240 C   0  0  0  0  0  0  0  0  0  0  0  0
  -30.1464  -20.7558   17.6543 C   0  0  0  0  0  0  0  0  0  0  0  0
  -27.7998  -30.7308   24.8642 C   0  0  0  0  0  0  0  0  0  0  0  0
  -25.7868  -31.0840   26.3103 C   0  0  0  0  0  0  0  0  0  0  0  0
  -26.6627  -32.9576   24.9156 C   0  0  0  0  0  0  0  0  0  0  0  0
  -20.8974  -30.9563   21.8128 C   0  0  0  0  0  0  0  0  0  0  0  0
  -25.3270  -23.8073   21.6897 C   0  0  0  0  0  0  0  0  0  1  0  0
  -24.8746  -20.5756   19.1458 C   0  0  0  0  0  0  0  0  0  0  0  0
  -25.4808  -22.2820   21.6176 C   0  0  1  0  0  0  0  0  0  0  0  0
  -25.4691  -31.0311   23.7949 C   0  0  1  0  0  0  0  0  0  0  0  0
  -21.7861  -31.9166   23.9404 C   0  0  2  0  0  0  0  0  0  0  0  0
  -29.8266  -21.5329   18.9827 C   0  0  0  0  0  0  0  0  0  0  0  0
  -26.4292  -31.4315   24.9504 C   0  0  0  0  0  0  0  0  0  0  0  0
  -24.3157  -12.5817   21.2158 N   0  0  0  0  0  0  0  0  0  0  0  0
  -26.2372  -21.0993   19.5095 N   0  0  0  0  0  0  0  0  0  0  0  0
  -25.2876  -13.4390   20.8601 N   0  0  0  0  0  0  0  0  0  0  0  0
  -26.2204  -30.2258   21.5788 N   0  0  0  0  0  0  0  0  0  0  0  0
  -24.3298  -17.1305   20.4942 N   0  0  0  0  0  0  0  0  0  0  0  0
  -27.3742  -13.5726   19.7472 N   0  0  0  0  0  0  0  0  0  0  0  0
  -26.3066   -9.1953   19.4377 N   0  0  0  0  0  0  0  0  0  0  0  0
  -29.2361  -30.1890   19.5294 N   0  0  0  0  0  0  0  0  0  0  0  0
  -24.1733  -31.7001   23.8358 N   0  0  0  0  0  0  0  0  0  0  0  0
  -24.5031  -19.4317   19.9637 N   0  0  0  0  0  0  0  0  0  0  0  0
  -20.6322  -31.2895   23.2360 N   0  3  0  0  0  0  0  0  0  0  0  0
  -27.8916  -10.7670   18.9119 O   0  0  0  0  0  0  0  0  0  0  0  0
  -28.6877  -29.5688   21.7059 O   0  0  0  0  0  0  0  0  0  0  0  0
  -26.3430  -32.4861   22.1378 O   0  0  0  0  0  0  0  0  0  0  0  0
  -22.8933  -29.7691   23.9375 O   0  0  0  0  0  0  0  0  0  0  0  0
  -25.3359  -17.8462   18.5292 O   0  0  0  0  0  0  0  0  0  0  0  0
  -21.7101   -6.7762   21.4516 O   0  0  0  0  0  0  0  0  0  0  0  0
  -24.9241  -24.3081   20.4156 O   0  0  0  0  0  0  0  0  0  1  0  0
  -19.5484   -5.8766   26.4438 F   0  0  0  0  0  0  0  0  0  0  0  0
  -22.3611   -4.5076   22.8913 F   0  0  0  0  0  0  0  0  0  0  0  0
  1  2  1  0  0  0  0
  1  5  2  0  0  0  0
  2  6  2  0  0  0  0
  3  8  2  0  0  0  0
  3 17  1  0  0  0  0
  4  9  1  0  0  0  0
  4 17  2  0  0  0  0
  5 19  1  0  0  0  0
  6 21  1  0  0  0  0
  7 10  2  0  0  0  0
  7 20  1  0  0  0  0
  8 24  1  0  0  0  0
  9 24  2  0  0  0  0
 10 25  1  0  0  0  0
 11 12  2  0  0  0  0
 11 26  1  0  0  0  0
 12 27  1  0  0  0  0
 13 22  1  0  0  0  0
 13 25  2  0  0  0  0
 14 23  1  0  0  0  0
 14 30  2  0  0  0  0
 15 27  2  0  0  0  0
 15 28  1  0  0  0  0
 16 23  2  0  0  0  0
 16 66  1  0  0  0  0
 17 29  1  0  0  0  0
 18 29  1  0  0  0  0
 18 31  2  0  0  0  0
 18 32  1  0  0  0  0
 19 21  2  0  0  0  0
 19 37  1  0  0  0  0
 20 22  2  0  0  0  0
 20 38  1  0  0  0  0
 21 46  1  0  0  0  0
 22 39  1  0  0  0  0
 23 63  1  0  0  0  0
 24 81  1  0  0  0  0
 25 82  1  0  0  0  0
 26 28  2  0  0  0  0
 26 81  1  0  0  0  0
 27 83  1  0  0  0  0
 28 84  1  0  0  0  0
 29 65  2  0  0  0  0
 30 60  1  0  0  0  0
 30 66  1  0  0  0  0
 31 67  1  0  0  0  0
 31 70  1  0  0  0  0
 32 71  1  0  0  0  0
 32 76  2  0  0  0  0
 33 47  1  0  0  0  0
 33 72  1  0  0  0  0
 33 77  2  0  0  0  0
 34 61  1  0  0  0  0
 34 68  1  0  0  0  0
 34 78  2  0  0  0  0
 35 62  1  0  0  0  0
 35 73  1  0  0  0  0
 35 79  2  0  0  0  0
 36 69  1  0  0  0  0
 36 74  1  0  0  0  0
 36 80  2  0  0  0  0
 37 40  1  0  0  0  0
 38 47  1  0  0  0  0
 39 68  1  0  0  0  0
 40 42  1  0  0  0  0
 41 43  1  0  0  0  0
 41 44  1  0  0  0  0
 42 46  1  0  0  0  0
 43 48  1  0  0  0  0
 44 69  1  0  0  0  0
 45 48  1  0  0  0  0
 45 69  1  0  0  0  0
 46 72  1  0  0  0  0
 47 68  1  0  0  0  0
 48 67  1  0  0  0  0
 49 60  1  0  0  0  0
 50 62  1  0  0  0  0
 51 63  1  0  0  0  0
 52 63  1  0  0  0  0
 53 63  1  0  0  0  0
 54 64  1  0  0  0  0
 55 64  1  0  0  0  0
 56 64  1  0  0  0  0
 57 75  1  0  0  0  0
 58 60  1  0  0  0  0
 58 82  1  0  0  0  0
 59 66  1  0  0  0  0
 59 74  1  0  0  0  0
 61 64  1  0  0  0  0
 61 73  1  0  0  0  0
 62 75  1  0  0  0  0
 65 67  1  0  0  0  0
M  CHG  1  75   1
M  ISO  4  36 100  58 101  74 100  82 101
M  END
> <Batch ID>
0113

> <Smiles>
CNC(C)C(=O)NC(C(=O)N1Cc2cc([101O:1][101CH2:1]C(C)c3cc(C(C)(C)C)cn3C[100NH:0][100C:0](=O)N3CCCC(n4nc(-c5ccc(Oc6ccc(F)cc6F)cc5)c(C(N)=O)c4N)C3)ccc2CC1C(=O)NC1CCCc2ccccc21)C(C)(C)C

> <Shape>
0.253

> <Color>
0.091

> <Negative vol penalty>
0.000

$$$$

  -OEChem-04052320053D

 80 88  0     1  0  0  0  0  0999 V2000
  -29.3943  -34.3631   25.1012 C   0  0  0  0  0  0  0  0  0  0  0  0
  -29.8932  -33.6637   24.0070 C   0  0  0  0  0  0  0  0  0  0  0  0
  -23.9245   -9.6533   22.3637 C   0  0  0  0  0  0  0  0  0  0  0  0
  -23.6478  -11.8278   23.3794 C   0  0  0  0  0  0  0  0  0  0  0  0
  -28.4622  -33.7615   25.9456 C   0  0  0  0  0  0  0  0  0  0  0  0
  -29.4610  -32.3616   23.7572 C   0  0  0  0  0  0  0  0  0  0  0  0
  -28.1449  -27.8580   18.3442 C   0  0  0  0  0  0  0  0  0  0  0  0
  -23.3392   -9.0570   23.4806 C   0  0  0  0  0  0  0  0  0  0  0  0
  -23.0624  -11.2316   24.4963 C   0  0  0  0  0  0  0  0  0  0  0  0
  -28.4651  -26.5721   17.9108 C   0  0  0  0  0  0  0  0  0  0  0  0
  -20.2236   -8.5856   24.7069 C   0  0  0  0  0  0  0  0  0  0  0  0
  -19.2637   -7.5979   24.4861 C   0  0  0  0  0  0  0  0  0  0  0  0
  -26.7921  -25.6629   19.3920 C   0  0  0  0  0  0  0  0  0  0  0  0
  -20.6263   -6.0051   25.6874 C   0  0  0  0  0  0  0  0  0  0  0  0
  -24.0789  -11.0387   22.3131 C   0  0  0  0  0  0  0  0  0  0  0  0
  -24.0308  -12.1139   20.0002 C   0  0  0  0  0  0  0  0  0  0  0  0
  -28.0110  -32.4550   25.7005 C   0  0  0  0  0  0  0  0  0  0  0  0
  -27.1518  -28.0555   19.3143 C   0  0  0  0  0  0  0  0  0  0  0  0
  -28.5229  -31.7415   24.5999 C   0  0  0  0  0  0  0  0  0  0  0  0
  -26.4595  -26.9525   19.8341 C   0  0  0  0  0  0  0  0  0  0  0  0
  -22.9081   -9.8462   24.5469 C   0  0  0  0  0  0  0  0  0  0  0  0
  -27.7907  -25.4741   18.4368 C   0  0  0  0  0  0  0  0  0  0  0  0
  -21.3849   -8.2830   25.4178 C   0  0  0  0  0  0  0  0  0  0  0  0
  -19.4650   -6.3077   24.9764 C   0  0  0  0  0  0  0  0  0  0  0  0
  -21.5863   -6.9927   25.9081 C   0  0  0  0  0  0  0  0  0  0  0  0
  -24.6840  -11.6551   21.1599 C   0  0  0  0  0  0  0  0  0  0  0  0
  -25.0396  -12.6113   19.2120 C   0  0  0  0  0  0  0  0  0  0  0  0
  -22.6368  -12.0923   19.6655 C   0  0  0  0  0  0  0  0  0  0  0  0
  -27.0940  -29.2746   22.2493 C   0  0  0  0  0  0  0  0  0  0  0  0
  -23.8930  -28.8484   21.9428 C   0  0  0  0  0  0  0  0  0  0  0  0
  -21.3228  -27.1872   20.4323 C   0  0  0  0  0  0  0  0  0  0  0  0
  -30.4815  -14.7842   20.4432 C   0  0  0  0  0  0  0  0  0  0  0  0
  -27.0380  -31.8294   26.6683 C   0  0  0  0  0  0  0  0  0  0  0  0
  -26.7997  -29.4509   19.7516 C   0  0  0  0  0  0  0  0  0  0  0  0
  -25.3711  -27.1123   20.8628 C   0  0  0  0  0  0  0  0  0  0  0  0
  -26.3502  -30.5819   26.1196 C   0  0  0  0  0  0  0  0  0  0  0  0
  -29.7027  -12.0494   18.3006 C   0  0  0  0  0  0  0  0  0  0  0  0
  -27.3699  -29.6530   25.4684 C   0  0  0  0  0  0  0  0  0  0  0  0
  -28.2693  -11.6796   18.6858 C   0  0  0  0  0  0  0  0  0  0  0  0
  -28.8406  -20.8644   19.5929 C   0  0  0  0  0  0  0  0  0  0  0  0
  -30.5182  -12.4878   19.5151 C   0  0  0  0  0  0  0  0  0  0  0  0
  -28.4762  -13.1997   20.6971 C   0  0  0  0  0  0  0  0  0  0  0  0
  -31.1148  -21.5487   19.6066 C   0  0  0  0  0  0  0  0  0  0  0  0
  -28.0599  -30.3364   24.2817 C   0  0  1  0  0  0  0  0  0  0  0  0
  -26.1275  -29.4964   21.1204 C   0  0  1  0  0  0  0  0  0  0  0  0
  -27.5987  -12.8045   19.4970 C   0  0  2  0  0  0  0  0  0  0  0  0
  -30.2542  -20.2987   19.5312 C   0  0  1  0  0  0  0  0  0  0  0  0
  -28.9211  -22.0588   18.6498 C   0  0  1  0  0  0  0  0  0  0  0  0
  -18.8184  -27.0300   20.4158 C   0  0  0  0  0  0  0  0  0  0  0  0
  -23.9761  -27.2877   24.5633 C   0  0  0  0  0  0  0  0  0  0  0  0
  -21.7119  -26.3737   24.0101 C   0  0  0  0  0  0  0  0  0  0  0  0
  -22.0204  -28.8286   24.3284 C   0  0  0  0  0  0  0  0  0  0  0  0
  -21.1755  -27.9874   17.5868 C   0  0  0  0  0  0  0  0  0  0  0  0
  -27.9238  -23.1564   18.9530 C   0  0  0  0  0  0  0  0  0  1  0  0
  -30.2888  -17.0597   21.4150 C   0  0  0  0  0  0  0  0  0  0  0  0
  -29.9651  -18.0433   20.2995 C   0  0  0  0  0  0  0  0  0  0  0  0
  -22.9303  -27.7251   22.2436 C   0  0  1  0  0  0  0  0  0  0  0  0
  -20.0402  -27.6854   19.7910 C   0  0  2  0  0  0  0  0  0  0  0  0
  -22.6815  -27.5503   23.7684 C   0  0  0  0  0  0  0  0  0  0  0  0
  -26.0055  -11.8442   21.1163 N   0  0  0  0  0  0  0  0  0  0  0  0
  -26.1909  -12.4272   19.9197 N   0  0  0  0  0  0  0  0  0  0  0  0
  -25.0676  -28.4962   21.2631 N   0  0  0  0  0  0  0  0  0  0  0  0
  -29.8280  -13.5577   20.2396 N   0  0  0  0  0  0  0  0  0  0  0  0
  -25.0453  -13.1839   17.9895 N   0  0  0  0  0  0  0  0  0  0  0  0
  -21.7362  -11.5453   20.5896 N   0  0  0  0  0  0  0  0  0  0  0  0
  -27.1904  -30.3393   23.1248 N   0  0  0  0  0  0  0  0  0  0  0  0
  -21.7252  -28.0019   21.4694 N   0  0  0  0  0  0  0  0  0  0  0  0
  -29.7541  -15.7461   21.1335 N   0  0  0  0  0  0  0  0  0  0  0  0
  -30.5288  -19.3536   20.6005 N   0  0  0  0  0  0  0  0  0  0  0  0
  -30.3290  -22.5715   18.8315 N   0  3  0  0  0  0  0  0  0  0  0  0
  -20.0401  -27.3846   18.3314 N   0  3  0  0  0  0  0  0  0  0  0  0
  -22.2047  -12.5299   18.5722 O   0  0  0  0  0  0  0  0  0  0  0  0
  -27.7058  -28.2153   22.3216 O   0  0  0  0  0  0  0  0  0  0  0  0
  -23.6097  -29.9973   22.2915 O   0  0  0  0  0  0  0  0  0  0  0  0
  -21.9072  -26.1745   20.0536 O   0  0  0  0  0  0  0  0  0  0  0  0
  -31.6262  -15.0076   20.0351 O   0  0  0  0  0  0  0  0  0  0  0  0
  -22.3366   -9.2648   25.6368 O   0  0  0  0  0  0  0  0  0  0  0  0
  -28.1017  -24.2179   18.0160 O   0  0  0  0  0  0  0  0  0  1  0  0
  -18.5424   -5.3598   24.7657 F   0  0  0  0  0  0  0  0  0  0  0  0
  -22.6994   -6.6963   26.5928 F   0  0  0  0  0  0  0  0  0  0  0  0
  1  2  1  0  0  0  0
  1  5  2  0  0  0  0
  2  6  2  0  0  0  0
  3  8  2  0  0  0  0
  3 15  1  0  0  0  0
  4  9  1  0  0  0  0
  4 15  2  0  0  0  0
  5 17  1  0  0  0  0
  6 19  1  0  0  0  0
  7 10  2  0  0  0  0
  7 18  1  0  0  0  0
  8 21  1  0  0  0  0
  9 21  2  0  0  0  0
 10 22  1  0  0  0  0
 11 12  2  0  0  0  0
 11 23  1  0  0  0  0
 12 24  1  0  0  0  0
 13 20  1  0  0  0  0
 13 22  2  0  0  0  0
 14 24  2  0  0  0  0
 14 25  1  0  0  0  0
 15 26  1  0  0  0  0
 16 26  1  0  0  0  0
 16 27  2  0  0  0  0
 16 28  1  0  0  0  0
 17 19  2  0  0  0  0
 17 33  1  0  0  0  0
 18 20  2  0  0  0  0
 18 34  1  0  0  0  0
 19 44  1  0  0  0  0
 20 35  1  0  0  0  0
 21 77  1  0  0  0  0
 22 78  1  0  0  0  0
 23 25  2  0  0  0  0
 23 77  1  0  0  0  0
 24 79  1  0  0  0  0
 25 80  1  0  0  0  0
 26 60  2  0  0  0  0
 27 61  1  0  0  0  0
 27 64  1  0  0  0  0
 28 65  1  0  0  0  0
 28 72  2  0  0  0  0
 29 45  1  0  0  0  0
 29 66  1  0  0  0  0
 29 73  2  0  0  0  0
 30 57  1  0  0  0  0
 30 62  1  0  0  0  0
 30 74  2  0  0  0  0
 31 58  1  0  0  0  0
 31 67  1  0  0  0  0
 31 75  2  0  0  0  0
 32 63  1  0  0  0  0
 32 68  1  0  0  0  0
 32 76  2  0  0  0  0
 33 36  1  0  0  0  0
 34 45  1  0  0  0  0
 35 62  1  0  0  0  0
 36 38  1  0  0  0  0
 37 39  1  0  0  0  0
 37 41  1  0  0  0  0
 38 44  1  0  0  0  0
 39 46  1  0  0  0  0
 40 47  1  0  0  0  0
 40 48  1  0  0  0  0
 41 63  1  0  0  0  0
 42 46  1  0  0  0  0
 42 63  1  0  0  0  0
 43 47  1  0  0  0  0
 43 70  1  0  0  0  0
 44 66  1  0  0  0  0
 45 62  1  0  0  0  0
 46 61  1  0  0  0  0
 47 69  1  0  0  0  0
 48 54  1  0  0  0  0
 48 70  1  0  0  0  0
 49 58  1  0  0  0  0
 50 59  1  0  0  0  0
 51 59  1  0  0  0  0
 52 59  1  0  0  0  0
 53 71  1  0  0  0  0
 54 78  1  0  0  0  0
 55 56  1  0  0  0  0
 55 68  1  0  0  0  0
 56 69  1  0  0  0  0
 57 59  1  0  0  0  0
 57 67  1  0  0  0  0
 58 71  1  0  0  0  0
 60 61  1  0  0  0  0
M  CHG  2  70   1  71   1
M  ISO  4  32 100  54 101  68 100  78 101
M  END
> <Batch ID>
0113

> <Smiles>
CNC(C)C(=O)NC(C(=O)N1Cc2cc([101O:1][101CH2:1]C3CC(NCC[100NH:0][100C:0](=O)N4CCCC(n5nc(-c6ccc(Oc7ccc(F)cc7F)cc6)c(C(N)=O)c5N)C4)CN3)ccc2CC1C(=O)NC1CCCc2ccccc21)C(C)(C)C

> <Shape>
0.280

> <Color>
0.082

> <Negative vol penalty>
0.000

$$$$

  -OEChem-04052320053D

 83 91  0     1  0  0  0  0  0999 V2000
  -28.7039  -35.4816   24.7469 C   0  0  0  0  0  0  0  0  0  0  0  0
  -29.0207  -34.3417   24.0149 C   0  0  0  0  0  0  0  0  0  0  0  0
  -28.1336  -11.6285   19.2002 C   0  0  0  0  0  0  0  0  0  0  0  0
  -27.3113  -12.3552   21.3526 C   0  0  0  0  0  0  0  0  0  0  0  0
  -27.5736  -35.4927   25.5631 C   0  0  0  0  0  0  0  0  0  0  0  0
  -28.2079  -33.2118   24.0997 C   0  0  0  0  0  0  0  0  0  0  0  0
  -26.9532  -29.2345   19.6150 C   0  0  0  0  0  0  0  0  0  0  0  0
  -27.2957  -10.5148   19.2560 C   0  0  0  0  0  0  0  0  0  0  0  0
  -26.4733  -11.2414   21.4084 C   0  0  0  0  0  0  0  0  0  0  0  0
  -27.4800  -27.9837   19.2960 C   0  0  0  0  0  0  0  0  0  0  0  0
  -23.5080  -10.2893   20.0967 C   0  0  0  0  0  0  0  0  0  0  0  0
  -22.1897  -10.4919   20.5048 C   0  0  0  0  0  0  0  0  0  0  0  0
  -25.6739  -26.9242   20.4937 C   0  0  0  0  0  0  0  0  0  0  0  0
  -22.5329   -8.9845   22.3615 C   0  0  0  0  0  0  0  0  0  0  0  0
  -28.1415  -12.5487   20.2485 C   0  0  0  0  0  0  0  0  0  0  0  0
  -30.4119  -13.7020   20.0982 C   0  0  0  0  0  0  0  0  0  0  0  0
  -26.7412  -34.3657   25.6505 C   0  0  0  0  0  0  0  0  0  0  0  0
  -25.7868  -29.3398   20.3863 C   0  0  0  0  0  0  0  0  0  0  0  0
  -27.0662  -33.2074   24.9189 C   0  0  0  0  0  0  0  0  0  0  0  0
  -25.1329  -28.1774   20.8190 C   0  0  0  0  0  0  0  0  0  0  0  0
  -26.4655  -10.3213   20.3601 C   0  0  0  0  0  0  0  0  0  0  0  0
  -26.8420  -26.8284   19.7378 C   0  0  0  0  0  0  0  0  0  0  0  0
  -24.3388   -9.4342   20.8209 C   0  0  0  0  0  0  0  0  0  0  0  0
  -21.7022   -9.8395   21.6373 C   0  0  0  0  0  0  0  0  0  0  0  0
  -23.8512   -8.7819   21.9533 C   0  0  0  0  0  0  0  0  0  0  0  0
  -29.0072  -13.6990   20.1917 C   0  0  0  0  0  0  0  0  0  0  0  0
  -30.7517  -15.0327   20.0764 C   0  0  0  0  0  0  0  0  0  0  0  0
  -31.3276  -12.6005   20.0365 C   0  0  0  0  0  0  0  0  0  0  0  0
  -25.0744  -30.6033   23.2147 C   0  0  0  0  0  0  0  0  0  0  0  0
  -22.0437  -29.8184   22.3656 C   0  0  0  0  0  0  0  0  0  0  0  0
  -20.3916  -27.0306   20.7794 C   0  0  0  0  0  0  0  0  0  0  0  0
  -27.7940  -19.9697   18.4244 C   0  0  0  0  0  0  0  0  0  0  0  0
  -25.5564  -34.4088   26.5827 C   0  0  0  0  0  0  0  0  0  0  0  0
  -25.2164  -30.6960   20.6993 C   0  0  0  0  0  0  0  0  0  0  0  0
  -23.8667  -28.2359   21.6326 C   0  0  0  0  0  0  0  0  0  0  0  0
  -24.5399  -33.2990   26.3275 C   0  0  0  0  0  0  0  0  0  0  0  0
  -29.2450  -19.3077   21.6077 C   0  0  0  0  0  0  0  0  0  0  0  0
  -25.2447  -31.9556   26.1684 C   0  0  0  0  0  0  0  0  0  0  0  0
  -26.4316  -23.3947   16.5343 C   0  0  0  0  0  0  0  0  0  0  0  0
  -25.4872  -22.4229   18.6697 C   0  0  0  0  0  0  0  0  0  0  0  0
  -29.4753  -17.7955   21.5973 C   0  0  0  0  0  0  0  0  0  0  0  0
  -27.2121  -24.4204   17.3507 C   0  0  0  0  0  0  0  0  0  0  0  0
  -26.2699  -23.4518   19.4801 C   0  0  0  0  0  0  0  0  0  0  0  0
  -27.9572  -19.6874   20.8801 C   0  0  0  0  0  0  0  0  0  0  0  0
  -28.0756  -17.6522   19.4952 C   0  0  0  0  0  0  0  0  0  0  0  0
  -26.1955  -31.9705   24.9653 C   0  0  1  0  0  0  0  0  0  0  0  0
  -24.3084  -30.6939   21.9252 C   0  0  1  0  0  0  0  0  0  0  0  0
  -26.1779  -22.1099   17.3351 C   0  0  0  0  0  0  0  0  0  0  0  0
  -29.3910  -17.2252   20.1687 C   0  0  2  0  0  0  0  0  0  0  0  0
  -26.5241  -24.7265   18.6783 C   0  0  0  0  0  0  0  0  0  1  0  0
  -18.2700  -26.9370   19.4425 C   0  0  0  0  0  0  0  0  0  0  0  0
  -24.1686  -21.8773   15.8837 C   0  0  0  0  0  0  0  0  0  0  0  0
  -20.7369  -29.1106   25.0305 C   0  0  0  0  0  0  0  0  0  0  0  0
  -19.2639  -27.5019   23.8014 C   0  0  0  0  0  0  0  0  0  0  0  0
  -19.1544  -29.9389   23.2800 C   0  0  0  0  0  0  0  0  0  0  0  0
  -25.5611  -18.8719   15.2992 C   0  0  0  0  0  0  0  0  0  0  0  0
  -26.2320  -20.9497   14.0946 C   0  0  0  0  0  0  0  0  0  0  0  0
  -21.7608  -25.7706   18.4779 C   0  0  0  0  0  0  0  0  0  0  0  0
  -27.6596  -20.0924   15.9493 C   0  0  0  0  0  0  0  0  0  0  0  0
  -21.1668  -28.6014   22.5361 C   0  0  1  0  0  0  0  0  0  0  0  0
  -19.7883  -27.0044   19.3867 C   0  0  2  0  0  0  0  0  0  0  0  0
  -25.3494  -21.1201   16.5182 C   0  0  1  0  0  0  0  0  0  0  0  0
  -20.1089  -28.7860   23.6604 C   0  0  0  0  0  0  0  0  0  0  0  0
  -26.1884  -20.2743   15.4828 C   0  0  0  0  0  0  0  0  0  0  0  0
  -28.4902  -14.9301   20.2270 N   0  0  0  0  0  0  0  0  0  0  0  0
  -29.5758  -15.7190   20.1554 N   0  0  0  0  0  0  0  0  0  0  0  0
  -23.3518  -29.5853   21.9181 N   0  0  0  0  0  0  0  0  0  0  0  0
  -27.9408  -19.1169   19.5309 N   0  0  0  0  0  0  0  0  0  0  0  0
  -31.9387  -15.6708   19.9976 N   0  0  0  0  0  0  0  0  0  0  0  0
  -30.8099  -11.2986   20.0701 N   0  0  0  0  0  0  0  0  0  0  0  0
  -25.4521  -31.8278   23.7319 N   0  0  0  0  0  0  0  0  0  0  0  0
  -20.5993  -28.3199   21.2219 N   0  0  0  0  0  0  0  0  0  0  0  0
  -27.7952  -19.3482   17.1816 N   0  0  0  0  0  0  0  0  0  0  0  0
  -20.2838  -25.8202   18.6297 N   0  3  0  0  0  0  0  0  0  0  0  0
  -32.5693  -12.7659   19.9706 O   0  0  0  0  0  0  0  0  0  0  0  0
  -25.3043  -29.5040   23.7049 O   0  0  0  0  0  0  0  0  0  0  0  0
  -21.5826  -30.9354   22.6133 O   0  0  0  0  0  0  0  0  0  0  0  0
  -20.6492  -26.0094   21.4131 O   0  0  0  0  0  0  0  0  0  0  0  0
  -27.6764  -21.1947   18.5355 O   0  0  0  0  0  0  0  0  0  0  0  0
  -25.6476   -9.2348   20.4148 O   0  0  0  0  0  0  0  0  0  0  0  0
  -27.3545  -25.6063   19.4283 O   0  0  0  0  0  0  0  0  0  1  0  0
  -20.4366  -10.0354   22.0300 F   0  0  0  0  0  0  0  0  0  0  0  0
  -24.6450   -7.9602   22.6538 F   0  0  0  0  0  0  0  0  0  0  0  0
  1  2  1  0  0  0  0
  1  5  2  0  0  0  0
  2  6  2  0  0  0  0
  3  8  2  0  0  0  0
  3 15  1  0  0  0  0
  4  9  1  0  0  0  0
  4 15  2  0  0  0  0
  5 17  1  0  0  0  0
  6 19  1  0  0  0  0
  7 10  2  0  0  0  0
  7 18  1  0  0  0  0
  8 21  1  0  0  0  0
  9 21  2  0  0  0  0
 10 22  1  0  0  0  0
 11 12  2  0  0  0  0
 11 23  1  0  0  0  0
 12 24  1  0  0  0  0
 13 20  1  0  0  0  0
 13 22  2  0  0  0  0
 14 24  2  0  0  0  0
 14 25  1  0  0  0  0
 15 26  1  0  0  0  0
 16 26  1  0  0  0  0
 16 27  2  0  0  0  0
 16 28  1  0  0  0  0
 17 19  2  0  0  0  0
 17 33  1  0  0  0  0
 18 20  2  0  0  0  0
 18 34  1  0  0  0  0
 19 46  1  0  0  0  0
 20 35  1  0  0  0  0
 21 80  1  0  0  0  0
 22 81  1  0  0  0  0
 23 25  2  0  0  0  0
 23 80  1  0  0  0  0
 24 82  1  0  0  0  0
 25 83  1  0  0  0  0
 26 65  2  0  0  0  0
 27 66  1  0  0  0  0
 27 69  1  0  0  0  0
 28 70  1  0  0  0  0
 28 75  2  0  0  0  0
 29 47  1  0  0  0  0
 29 71  1  0  0  0  0
 29 76  2  0  0  0  0
 30 60  1  0  0  0  0
 30 67  1  0  0  0  0
 30 77  2  0  0  0  0
 31 61  1  0  0  0  0
 31 72  1  0  0  0  0
 31 78  2  0  0  0  0
 32 68  1  0  0  0  0
 32 73  1  0  0  0  0
 32 79  2  0  0  0  0
 33 36  1  0  0  0  0
 34 47  1  0  0  0  0
 35 67  1  0  0  0  0
 36 38  1  0  0  0  0
 37 41  1  0  0  0  0
 37 44  1  0  0  0  0
 38 46  1  0  0  0  0
 39 42  1  0  0  0  0
 39 48  1  0  0  0  0
 40 43  1  0  0  0  0
 40 48  1  0  0  0  0
 41 49  1  0  0  0  0
 42 50  1  0  0  0  0
 43 50  1  0  0  0  0
 44 68  1  0  0  0  0
 45 49  1  0  0  0  0
 45 68  1  0  0  0  0
 46 71  1  0  0  0  0
 47 67  1  0  0  0  0
 48 62  1  0  0  0  0
 49 66  1  0  0  0  0
 50 81  1  0  0  0  0
 51 61  1  0  0  0  0
 52 62  1  0  0  0  0
 53 63  1  0  0  0  0
 54 63  1  0  0  0  0
 55 63  1  0  0  0  0
 56 64  1  0  0  0  0
 57 64  1  0  0  0  0
 58 74  1  0  0  0  0
 59 64  1  0  0  0  0
 59 73  1  0  0  0  0
 60 63  1  0  0  0  0
 60 72  1  0  0  0  0
 61 74  1  0  0  0  0
 62 64  1  0  0  0  0
 65 66  1  0  0  0  0
M  CHG  1  74   1
M  ISO  4  32 100  50 101  73 100  81 101
M  END
> <Batch ID>
0113

> <Smiles>
CNC(C)C(=O)NC(C(=O)N1Cc2cc([101O:1][101CH:1]3CCC(C(C)C(C)(C)C[100NH:0][100C:0](=O)N4CCCC(n5nc(-c6ccc(Oc7ccc(F)cc7F)cc6)c(C(N)=O)c5N)C4)CC3)ccc2CC1C(=O)NC1CCCc2ccccc21)C(C)(C)C

> <Shape>
0.302

> <Color>
0.055

> <Negative vol penalty>
0.000

$$$$

  -OEChem-04052320053D

 85 93  0     1  0  0  0  0  0999 V2000
  -16.8471  -29.1530   23.7784 C   0  0  0  0  0  0  0  0  0  0  0  0
  -17.4634  -28.5254   22.7006 C   0  0  0  0  0  0  0  0  0  0  0  0
  -24.9553  -14.7991   19.6010 C   0  0  0  0  0  0  0  0  0  0  0  0
  -23.2007  -14.1492   21.1294 C   0  0  0  0  0  0  0  0  0  0  0  0
  -17.4955  -30.1941   24.4413 C   0  0  0  0  0  0  0  0  0  0  0  0
  -18.7283  -28.9394   22.2844 C   0  0  0  0  0  0  0  0  0  0  0  0
  -24.7780  -26.3837   19.4233 C   0  0  0  0  0  0  0  0  0  0  0  0
  -29.0443  -23.2262   19.2867 C   0  0  0  0  0  0  0  0  0  0  0  0
  -25.5673  -13.5580   19.7757 C   0  0  0  0  0  0  0  0  0  0  0  0
  -23.8127  -12.9080   21.3041 C   0  0  0  0  0  0  0  0  0  0  0  0
  -25.6515  -26.6199   18.3626 C   0  0  0  0  0  0  0  0  0  0  0  0
  -24.0419   -9.9867   19.6206 C   0  0  0  0  0  0  0  0  0  0  0  0
  -23.2285   -8.8542   19.5856 C   0  0  0  0  0  0  0  0  0  0  0  0
  -27.7815  -22.6891   19.5111 C   0  0  0  0  0  0  0  0  0  0  0  0
  -26.7098  -28.3762   19.6332 C   0  0  0  0  0  0  0  0  0  0  0  0
  -23.9036   -8.2998   21.8382 C   0  0  0  0  0  0  0  0  0  0  0  0
  -28.8640  -24.3810   21.3581 C   0  0  0  0  0  0  0  0  0  0  0  0
  -23.7720  -15.0948   20.2779 C   0  0  0  0  0  0  0  0  0  0  0  0
  -22.1726  -16.7204   19.1346 C   0  0  0  0  0  0  0  0  0  0  0  0
  -18.7730  -30.6146   24.0391 C   0  0  0  0  0  0  0  0  0  0  0  0
  -24.8569  -27.1506   20.5946 C   0  0  0  0  0  0  0  0  0  0  0  0
  -19.3939  -29.9880   22.9417 C   0  0  0  0  0  0  0  0  0  0  0  0
  -25.8378  -28.1461   20.7083 C   0  0  0  0  0  0  0  0  0  0  0  0
  -29.6029  -24.0891   20.2229 C   0  0  0  0  0  0  0  0  0  0  0  0
  -24.9960  -12.6124   20.6272 C   0  0  0  0  0  0  0  0  0  0  0  0
  -26.6157  -27.6182   18.4664 C   0  0  0  0  0  0  0  0  0  0  0  0
  -24.7863  -10.2758   20.7643 C   0  0  0  0  0  0  0  0  0  0  0  0
  -23.1593   -8.0107   20.6944 C   0  0  0  0  0  0  0  0  0  0  0  0
  -24.7171   -9.4324   21.8731 C   0  0  0  0  0  0  0  0  0  0  0  0
  -23.1397  -16.3770   20.0983 C   0  0  0  0  0  0  0  0  0  0  0  0
  -27.1242  -23.0434   20.6782 C   0  0  0  0  0  0  0  0  0  0  0  0
  -21.8965  -18.0430   19.3813 C   0  0  0  0  0  0  0  0  0  0  0  0
  -21.5772  -15.9157   18.1081 C   0  0  0  0  0  0  0  0  0  0  0  0
  -22.8923  -29.1351   22.1131 C   0  0  0  0  0  0  0  0  0  0  0  0
  -25.2324  -29.1111   24.3594 C   0  0  0  0  0  0  0  0  0  0  0  0
  -28.5258  -28.6197   25.1070 C   0  0  0  0  0  0  0  0  0  0  0  0
  -25.3323  -22.2368   22.2058 C   0  0  0  0  0  0  0  0  0  0  0  0
  -19.4144  -31.7758   24.7567 C   0  0  0  0  0  0  0  0  0  0  0  0
  -23.9247  -26.8655   21.7401 C   0  0  0  0  0  0  0  0  0  0  0  0
  -25.9773  -28.9836   21.9523 C   0  0  0  0  0  0  0  0  0  0  0  0
  -20.9118  -31.9049   24.4897 C   0  0  0  0  0  0  0  0  0  0  0  0
  -21.8391  -21.2748   22.9006 C   0  0  0  0  0  0  0  0  0  0  0  0
  -21.2017  -31.7696   22.9982 C   0  0  0  0  0  0  0  0  0  0  0  0
  -21.7226  -19.9074   22.2292 C   0  0  0  0  0  0  0  0  0  0  0  0
  -23.2611  -21.5518   23.3795 C   0  0  0  0  0  0  0  0  0  0  0  0
  -24.1756  -20.0472   21.6388 C   0  0  0  0  0  0  0  0  0  0  0  0
  -20.7759  -30.3921   22.4761 C   0  0  1  0  0  0  0  0  0  0  0  0
  -23.7606  -28.0510   22.6862 C   0  0  1  0  0  0  0  0  0  0  0  0
  -22.7640  -19.7567   21.1068 C   0  0  1  0  0  0  0  0  0  0  0  0
  -30.5817  -28.3886   26.5272 C   0  0  0  0  0  0  0  0  0  0  0  0
  -31.6494  -27.3897   16.5039 C   0  0  0  0  0  0  0  0  0  0  0  0
  -25.2434  -32.1581   24.2005 C   0  0  0  0  0  0  0  0  0  0  0  0
  -27.4573  -32.1416   25.3695 C   0  0  0  0  0  0  0  0  0  0  0  0
  -25.4366  -31.2336   26.5161 C   0  0  0  0  0  0  0  0  0  0  0  0
  -24.8889  -22.3886   19.7665 C   0  0  0  0  0  0  0  0  0  0  0  0
  -28.0616  -25.7250   25.5122 C   0  0  0  0  0  0  0  0  0  0  0  0
  -30.9646  -24.6843   20.0094 C   0  0  0  0  0  0  0  0  0  0  0  0
  -29.2049  -26.9538   16.0405 C   0  0  0  0  0  0  0  0  0  0  0  0
  -30.9458  -26.0160   19.2658 C   0  0  0  0  0  0  0  0  0  0  0  0
  -27.8043  -26.7390   16.6035 C   0  0  0  0  0  0  0  0  0  1  0  0
  -26.4756  -29.9278   24.6168 C   0  0  1  0  0  0  0  0  0  0  0  0
  -29.2004  -27.8335   26.2166 C   0  0  2  0  0  0  0  0  0  0  0  0
  -30.2847  -27.0994   17.1145 C   0  0  1  0  0  0  0  0  0  0  0  0
  -26.1496  -31.3510   25.1514 C   0  0  0  0  0  0  0  0  0  0  0  0
  -27.6346  -23.8786   21.6107 N   0  0  0  0  0  0  0  0  0  0  0  0
  -23.4567  -17.3991   20.8976 N   0  0  0  0  0  0  0  0  0  0  0  0
  -22.6845  -18.3977   20.4365 N   0  0  0  0  0  0  0  0  0  0  0  0
  -25.0384  -28.6710   23.0424 N   0  0  0  0  0  0  0  0  0  0  0  0
  -24.2356  -21.3572   22.3053 N   0  0  0  0  0  0  0  0  0  0  0  0
  -21.0591  -18.9256   18.7964 N   0  0  0  0  0  0  0  0  0  0  0  0
  -21.9748  -14.5766   17.9940 N   0  0  0  0  0  0  0  0  0  0  0  0
  -21.7494  -29.3878   22.8476 N   0  0  0  0  0  0  0  0  0  0  0  0
  -27.3100  -29.1308   25.5095 N   0  0  0  0  0  0  0  0  0  0  0  0
  -25.8136  -22.4800   20.9011 N   0  0  0  0  0  0  0  0  0  0  0  0
  -29.3461  -26.4035   25.8234 N   0  3  0  0  0  0  0  0  0  0  0  0
  -30.3917  -25.8376   17.8986 N   0  3  0  0  0  0  0  0  0  0  0  0
  -20.7300  -16.3751   17.3052 O   0  0  0  0  0  0  0  0  0  0  0  0
  -23.2346  -29.7015   21.0818 O   0  0  0  0  0  0  0  0  0  0  0  0
  -24.4653  -28.8663   25.2939 O   0  0  0  0  0  0  0  0  0  0  0  0
  -29.0288  -28.7690   23.9956 O   0  0  0  0  0  0  0  0  0  0  0  0
  -25.8222  -22.7840   23.2009 O   0  0  0  0  0  0  0  0  0  0  0  0
  -25.5928  -11.4010   20.7978 O   0  0  0  0  0  0  0  0  0  0  0  0
  -27.4691  -27.8512   17.4323 O   0  0  0  0  0  0  0  0  0  1  0  0
  -22.3769   -6.9240   20.6613 F   0  0  0  0  0  0  0  0  0  0  0  0
  -25.4289   -9.7055   22.9752 F   0  0  0  0  0  0  0  0  0  0  0  0
  1  2  1  0  0  0  0
  1  5  2  0  0  0  0
  2  6  2  0  0  0  0
  3  9  2  0  0  0  0
  3 18  1  0  0  0  0
  4 10  1  0  0  0  0
  4 18  2  0  0  0  0
  5 20  1  0  0  0  0
  6 22  1  0  0  0  0
  7 11  2  0  0  0  0
  7 21  1  0  0  0  0
  8 14  2  0  0  0  0
  8 24  1  0  0  0  0
  9 25  1  0  0  0  0
 10 25  2  0  0  0  0
 11 26  1  0  0  0  0
 12 13  2  0  0  0  0
 12 27  1  0  0  0  0
 13 28  1  0  0  0  0
 14 31  1  0  0  0  0
 15 23  1  0  0  0  0
 15 26  2  0  0  0  0
 16 28  2  0  0  0  0
 16 29  1  0  0  0  0
 17 24  2  0  0  0  0
 17 65  1  0  0  0  0
 18 30  1  0  0  0  0
 19 30  1  0  0  0  0
 19 32  2  0  0  0  0
 19 33  1  0  0  0  0
 20 22  2  0  0  0  0
 20 38  1  0  0  0  0
 21 23  2  0  0  0  0
 21 39  1  0  0  0  0
 22 47  1  0  0  0  0
 23 40  1  0  0  0  0
 24 57  1  0  0  0  0
 25 82  1  0  0  0  0
 26 83  1  0  0  0  0
 27 29  2  0  0  0  0
 27 82  1  0  0  0  0
 28 84  1  0  0  0  0
 29 85  1  0  0  0  0
 30 66  2  0  0  0  0
 31 65  2  0  0  0  0
 31 74  1  0  0  0  0
 32 67  1  0  0  0  0
 32 70  1  0  0  0  0
 33 71  1  0  0  0  0
 33 77  2  0  0  0  0
 34 48  1  0  0  0  0
 34 72  1  0  0  0  0
 34 78  2  0  0  0  0
 35 61  1  0  0  0  0
 35 68  1  0  0  0  0
 35 79  2  0  0  0  0
 36 62  1  0  0  0  0
 36 73  1  0  0  0  0
 36 80  2  0  0  0  0
 37 69  1  0  0  0  0
 37 74  1  0  0  0  0
 37 81  2  0  0  0  0
 38 41  1  0  0  0  0
 39 48  1  0  0  0  0
 40 68  1  0  0  0  0
 41 43  1  0  0  0  0
 42 44  1  0  0  0  0
 42 45  1  0  0  0  0
 43 47  1  0  0  0  0
 44 49  1  0  0  0  0
 45 69  1  0  0  0  0
 46 49  1  0  0  0  0
 46 69  1  0  0  0  0
 47 72  1  0  0  0  0
 48 68  1  0  0  0  0
 49 67  1  0  0  0  0
 50 62  1  0  0  0  0
 51 63  1  0  0  0  0
 52 64  1  0  0  0  0
 53 64  1  0  0  0  0
 54 64  1  0  0  0  0
 55 74  1  0  0  0  0
 56 75  1  0  0  0  0
 57 59  1  0  0  0  0
 58 60  1  0  0  0  0
 58 63  1  0  0  0  0
 59 76  1  0  0  0  0
 60 83  1  0  0  0  0
 61 64  1  0  0  0  0
 61 73  1  0  0  0  0
 62 75  1  0  0  0  0
 63 76  1  0  0  0  0
 66 67  1  0  0  0  0
M  CHG  2  75   1  76   1
M  ISO  4  37 100  60 101  74 100  83 101
M  END
> <Batch ID>
0113

> <Smiles>
CNC(C)C(=O)NC(C(=O)N1Cc2cc([101O:1][101CH2:1]CC(C)NCCc3ccc([100N:0](C)[100C:0](=O)N4CCCC(n5nc(-c6ccc(Oc7ccc(F)cc7F)cc6)c(C(N)=O)c5N)C4)nc3)ccc2CC1C(=O)NC1CCCc2ccccc21)C(C)(C)C

> <Shape>
0.238

> <Color>
0.076

> <Negative vol penalty>
0.000

$$$$
