
  -OEChem-04052320083D

 84 92  0     1  0  0  0  0  0999 V2000
  -29.9699  -31.7753   31.7876 C   0  0  0  0  0  0  0  0  0  0  0  0
  -30.3730  -30.4438   31.7758 C   0  0  0  0  0  0  0  0  0  0  0  0
  -22.6940  -10.1776   20.1725 C   0  0  0  0  0  0  0  0  0  0  0  0
  -24.2785   -9.4660   21.8518 C   0  0  0  0  0  0  0  0  0  0  0  0
  -28.7271  -32.1309   31.2653 C   0  0  0  0  0  0  0  0  0  0  0  0
  -29.5329  -29.4669   31.2426 C   0  0  0  0  0  0  0  0  0  0  0  0
  -31.2153  -24.4316   28.1895 C   0  0  0  0  0  0  0  0  0  0  0  0
  -21.9498   -9.0168   20.3828 C   0  0  0  0  0  0  0  0  0  0  0  0
  -23.5342   -8.3052   22.0622 C   0  0  0  0  0  0  0  0  0  0  0  0
  -31.3694  -23.1033   28.5837 C   0  0  0  0  0  0  0  0  0  0  0  0
  -20.7165   -7.4183   23.7036 C   0  0  0  0  0  0  0  0  0  0  0  0
  -20.4771   -7.0339   25.0229 C   0  0  0  0  0  0  0  0  0  0  0  0
  -29.1422  -22.6170   27.7950 C   0  0  0  0  0  0  0  0  0  0  0  0
  -21.6173   -4.9422   24.6204 C   0  0  0  0  0  0  0  0  0  0  0  0
  -23.8584  -10.4022   20.9070 C   0  0  0  0  0  0  0  0  0  0  0  0
  -24.1954  -12.9303   20.8544 C   0  0  0  0  0  0  0  0  0  0  0  0
  -27.8754  -31.1591   30.7166 C   0  0  0  0  0  0  0  0  0  0  0  0
  -30.0174  -24.8659   27.6040 C   0  0  0  0  0  0  0  0  0  0  0  0
  -28.2769  -29.8096   30.7136 C   0  0  0  0  0  0  0  0  0  0  0  0
  -28.9763  -23.9508   27.3918 C   0  0  0  0  0  0  0  0  0  0  0  0
  -22.3698   -8.0806   21.3277 C   0  0  0  0  0  0  0  0  0  0  0  0
  -30.3318  -22.1964   28.3892 C   0  0  0  0  0  0  0  0  0  0  0  0
  -21.4062   -6.5646   22.8426 C   0  0  0  0  0  0  0  0  0  0  0  0
  -20.9275   -5.7959   25.4813 C   0  0  0  0  0  0  0  0  0  0  0  0
  -21.8566   -5.3266   23.3010 C   0  0  0  0  0  0  0  0  0  0  0  0
  -24.6280  -11.6008   20.6897 C   0  0  0  0  0  0  0  0  0  0  0  0
  -25.2906  -13.6910   20.5253 C   0  0  0  0  0  0  0  0  0  0  0  0
  -22.9178  -13.4327   21.2679 C   0  0  0  0  0  0  0  0  0  0  0  0
  -27.7818  -26.9882   28.3796 C   0  0  0  0  0  0  0  0  0  0  0  0
  -26.6081  -26.2413   25.4493 C   0  0  0  0  0  0  0  0  0  0  0  0
  -25.7390  -24.8281   22.4670 C   0  0  0  0  0  0  0  0  0  0  0  0
  -30.6758  -14.7802   20.6738 C   0  0  0  0  0  0  0  0  0  0  0  0
  -26.5214  -31.5851   30.2066 C   0  0  0  0  0  0  0  0  0  0  0  0
  -29.8768  -26.2960   27.1598 C   0  0  0  0  0  0  0  0  0  0  0  0
  -27.6778  -24.3620   26.7491 C   0  0  0  0  0  0  0  0  0  0  0  0
  -25.8484  -30.5407   29.3197 C   0  0  0  0  0  0  0  0  0  0  0  0
  -29.6639  -12.4164   18.3468 C   0  0  0  0  0  0  0  0  0  0  0  0
  -25.9424  -29.1582   29.9576 C   0  0  0  0  0  0  0  0  0  0  0  0
  -31.5435  -19.0348   22.7336 C   0  0  0  0  0  0  0  0  0  0  0  0
  -31.8032  -17.3321   24.5833 C   0  0  0  0  0  0  0  0  0  0  0  0
  -28.2275  -12.0912   18.7542 C   0  0  0  0  0  0  0  0  0  0  0  0
  -30.6633  -18.0571   21.9543 C   0  0  0  0  0  0  0  0  0  0  0  0
  -30.9242  -16.3511   23.8069 C   0  0  0  0  0  0  0  0  0  0  0  0
  -30.5567  -12.5665   19.5728 C   0  0  0  0  0  0  0  0  0  0  0  0
  -28.6406  -13.2898   20.9608 C   0  0  0  0  0  0  0  0  0  0  0  0
  -27.4041  -28.7245   30.1214 C   0  0  1  0  0  0  0  0  0  0  0  0
  -28.4236  -26.7453   27.0429 C   0  0  1  0  0  0  0  0  0  0  0  0
  -31.5063  -18.8014   24.2508 C   0  0  0  0  0  0  0  0  0  0  0  0
  -27.6906  -13.1280   19.7563 C   0  0  2  0  0  0  0  0  0  0  0  0
  -30.9985  -16.6046   22.3001 C   0  0  0  0  0  0  0  0  0  0  0  0
  -23.9668  -24.9066   20.6920 C   0  0  0  0  0  0  0  0  0  0  0  0
  -24.7202  -24.6806   27.2687 C   0  0  0  0  0  0  0  0  0  0  0  0
  -23.4448  -23.9829   25.2303 C   0  0  0  0  0  0  0  0  0  0  0  0
  -23.6038  -26.3981   25.8340 C   0  0  0  0  0  0  0  0  0  0  0  0
  -28.1610  -20.5558   29.3091 C   0  0  0  0  0  0  0  0  0  0  0  0
  -29.7623  -18.6394   29.0736 C   0  0  0  0  0  0  0  0  0  0  0  0
  -28.7509  -15.6086   22.0927 C   0  0  0  0  0  0  0  0  0  0  0  0
  -27.6886  -25.6376   20.3927 C   0  0  0  0  0  0  0  0  0  0  0  0
  -30.1803  -19.2628   24.8618 C   0  0  0  0  0  0  0  0  0  0  0  0
  -29.1428  -19.9383   27.0311 C   0  0  0  0  0  0  0  0  0  0  0  0
  -25.6398  -25.2134   24.9157 C   0  0  1  0  0  0  0  0  0  0  0  0
  -25.3150  -25.4441   21.1459 C   0  0  2  0  0  0  0  0  0  0  0  0
  -24.3800  -25.0632   25.8144 C   0  0  0  0  0  0  0  0  0  0  0  0
  -29.3757  -20.0243   28.5443 C   0  0  0  0  0  0  0  0  0  1  0  0
  -25.8989  -11.5182   20.2872 N   0  0  0  0  0  0  0  0  0  0  0  0
  -26.2742  -12.8054   20.1961 N   0  0  0  0  0  0  0  0  0  0  0  0
  -27.5863  -25.7727   26.3377 N   0  0  0  0  0  0  0  0  0  0  0  0
  -30.0140  -13.5549   20.5053 N   0  0  0  0  0  0  0  0  0  0  0  0
  -25.4986  -15.0243   20.4883 N   0  0  0  0  0  0  0  0  0  0  0  0
  -21.9035  -12.5132   21.5681 N   0  0  0  0  0  0  0  0  0  0  0  0
  -27.9430  -28.2755   28.8555 N   0  0  0  0  0  0  0  0  0  0  0  0
  -25.3494  -25.6018   23.5397 N   0  0  0  0  0  0  0  0  0  0  0  0
  -30.1195  -15.6897   21.5858 N   0  0  0  0  0  0  0  0  0  0  0  0
  -26.3209  -25.1442   20.0880 N   0  3  0  0  0  0  0  0  0  0  0  0
  -30.3506  -19.4336   26.3299 N   0  3  0  0  0  0  0  0  0  0  0  0
  -22.6775  -14.6610   21.3523 O   0  0  0  0  0  0  0  0  0  0  0  0
  -27.1834  -26.0758   28.9373 O   0  0  0  0  0  0  0  0  0  0  0  0
  -26.5049  -27.4155   25.0855 O   0  0  0  0  0  0  0  0  0  0  0  0
  -26.3511  -23.7648   22.5401 O   0  0  0  0  0  0  0  0  0  0  0  0
  -31.7115  -15.0452   20.0499 O   0  0  0  0  0  0  0  0  0  0  0  0
  -21.6437   -6.9480   21.5333 O   0  0  0  0  0  0  0  0  0  0  0  0
  -30.4793  -20.8994   28.7737 O   0  0  0  0  0  0  0  0  0  1  0  0
  -20.6989   -5.4276   26.7487 F   0  0  0  0  0  0  0  0  0  0  0  0
  -22.5207   -4.5027   22.4789 F   0  0  0  0  0  0  0  0  0  0  0  0
  1  2  1  0  0  0  0
  1  5  2  0  0  0  0
  2  6  2  0  0  0  0
  3  8  2  0  0  0  0
  3 15  1  0  0  0  0
  4  9  1  0  0  0  0
  4 15  2  0  0  0  0
  5 17  1  0  0  0  0
  6 19  1  0  0  0  0
  7 10  2  0  0  0  0
  7 18  1  0  0  0  0
  8 21  1  0  0  0  0
  9 21  2  0  0  0  0
 10 22  1  0  0  0  0
 11 12  2  0  0  0  0
 11 23  1  0  0  0  0
 12 24  1  0  0  0  0
 13 20  1  0  0  0  0
 13 22  2  0  0  0  0
 14 24  2  0  0  0  0
 14 25  1  0  0  0  0
 15 26  1  0  0  0  0
 16 26  1  0  0  0  0
 16 27  2  0  0  0  0
 16 28  1  0  0  0  0
 17 19  2  0  0  0  0
 17 33  1  0  0  0  0
 18 20  2  0  0  0  0
 18 34  1  0  0  0  0
 19 46  1  0  0  0  0
 20 35  1  0  0  0  0
 21 81  1  0  0  0  0
 22 82  1  0  0  0  0
 23 25  2  0  0  0  0
 23 81  1  0  0  0  0
 24 83  1  0  0  0  0
 25 84  1  0  0  0  0
 26 65  2  0  0  0  0
 27 66  1  0  0  0  0
 27 69  1  0  0  0  0
 28 70  1  0  0  0  0
 28 76  2  0  0  0  0
 29 47  1  0  0  0  0
 29 71  1  0  0  0  0
 29 77  2  0  0  0  0
 30 61  1  0  0  0  0
 30 67  1  0  0  0  0
 30 78  2  0  0  0  0
 31 62  1  0  0  0  0
 31 72  1  0  0  0  0
 31 79  2  0  0  0  0
 32 68  1  0  0  0  0
 32 73  1  0  0  0  0
 32 80  2  0  0  0  0
 33 36  1  0  0  0  0
 34 47  1  0  0  0  0
 35 67  1  0  0  0  0
 36 38  1  0  0  0  0
 37 41  1  0  0  0  0
 37 44  1  0  0  0  0
 38 46  1  0  0  0  0
 39 42  1  0  0  0  0
 39 48  1  0  0  0  0
 40 43  1  0  0  0  0
 40 48  1  0  0  0  0
 41 49  1  0  0  0  0
 42 50  1  0  0  0  0
 43 50  1  0  0  0  0
 44 68  1  0  0  0  0
 45 49  1  0  0  0  0
 45 68  1  0  0  0  0
 46 71  1  0  0  0  0
 47 67  1  0  0  0  0
 48 59  1  0  0  0  0
 49 66  1  0  0  0  0
 50 73  1  0  0  0  0
 51 62  1  0  0  0  0
 52 63  1  0  0  0  0
 53 63  1  0  0  0  0
 54 63  1  0  0  0  0
 55 64  1  0  0  0  0
 56 64  1  0  0  0  0
 57 73  1  0  0  0  0
 58 74  1  0  0  0  0
 59 75  1  0  0  0  0
 60 64  1  0  0  0  0
 60 75  1  0  0  0  0
 61 63  1  0  0  0  0
 61 72  1  0  0  0  0
 62 74  1  0  0  0  0
 64 82  1  0  0  0  0
 65 66  1  0  0  0  0
M  CHG  2  74   1  75   1
M  ISO  4  32 100  64 101  73 100  82 101
M  END
> <Batch ID>
0114

> <Smiles>
CNC(C)C(=O)NC(C(=O)N1Cc2cc([101O:1][101C:1](C)(C)CNCC3CCC([100N:0](C)[100C:0](=O)N4CCCC(n5nc(-c6ccc(Oc7ccc(F)cc7F)cc6)c(C(N)=O)c5N)C4)CC3)ccc2CC1C(=O)NC1CCCc2ccccc21)C(C)(C)C

> <Shape>
0.194

> <Color>
0.195

> <Negative vol penalty>
0.000

$$$$

  -OEChem-04052320083D

 81 89  0     1  0  0  0  0  0999 V2000
  -27.4198  -23.7205   17.1539 C   0  0  0  0  0  0  0  0  0  0  0  0
  -26.2339  -24.1361   17.7508 C   0  0  0  0  0  0  0  0  0  0  0  0
  -27.6320  -15.4219   21.7296 C   0  0  0  0  0  0  0  0  0  0  0  0
  -26.1594  -15.8776   19.8693 C   0  0  0  0  0  0  0  0  0  0  0  0
  -28.6441  -24.0560   17.7306 C   0  0  0  0  0  0  0  0  0  0  0  0
  -26.2715  -24.8866   18.9255 C   0  0  0  0  0  0  0  0  0  0  0  0
  -23.0812  -28.8180   18.8221 C   0  0  0  0  0  0  0  0  0  0  0  0
  -27.2088  -14.0929   21.7392 C   0  0  0  0  0  0  0  0  0  0  0  0
  -25.7362  -14.5485   19.8788 C   0  0  0  0  0  0  0  0  0  0  0  0
  -21.7317  -28.5489   19.0457 C   0  0  0  0  0  0  0  0  0  0  0  0
  -24.0012  -11.3634   19.6439 C   0  0  0  0  0  0  0  0  0  0  0  0
  -22.6328  -11.1179   19.5311 C   0  0  0  0  0  0  0  0  0  0  0  0
  -22.1870  -22.9474   19.2119 C   0  0  0  0  0  0  0  0  0  0  0  0
  -21.9715  -29.2783   21.3326 C   0  0  0  0  0  0  0  0  0  0  0  0
  -21.6800  -24.1074   21.2568 C   0  0  0  0  0  0  0  0  0  0  0  0
  -22.2400  -12.3773   21.5552 C   0  0  0  0  0  0  0  0  0  0  0  0
  -20.9395  -23.3320   18.7476 C   0  0  0  0  0  0  0  0  0  0  0  0
  -27.1072  -16.3143   20.7947 C   0  0  0  0  0  0  0  0  0  0  0  0
  -28.6231  -18.2312   20.0631 C   0  0  0  0  0  0  0  0  0  0  0  0
  -28.6969  -24.8192   18.9077 C   0  0  0  0  0  0  0  0  0  0  0  0
  -23.8900  -29.3098   19.8567 C   0  0  0  0  0  0  0  0  0  0  0  0
  -27.4976  -25.2315   19.5192 C   0  0  0  0  0  0  0  0  0  0  0  0
  -23.3304  -29.5552   21.1188 C   0  0  0  0  0  0  0  0  0  0  0  0
  -22.5567  -23.3466   20.4914 C   0  0  0  0  0  0  0  0  0  0  0  0
  -26.2609  -13.6561   20.8137 C   0  0  0  0  0  0  0  0  0  0  0  0
  -21.1773  -28.7763   20.3019 C   0  0  0  0  0  0  0  0  0  0  0  0
  -24.4891  -12.1158   20.7124 C   0  0  0  0  0  0  0  0  0  0  0  0
  -21.7522  -11.6248   20.4867 C   0  0  0  0  0  0  0  0  0  0  0  0
  -23.6085  -12.6227   21.6680 C   0  0  0  0  0  0  0  0  0  0  0  0
  -27.5436  -17.6875   20.7847 C   0  0  0  0  0  0  0  0  0  0  0  0
  -20.4553  -24.4403   20.7009 C   0  0  0  0  0  0  0  0  0  0  0  0
  -28.6190  -19.5647   20.3918 C   0  0  0  0  0  0  0  0  0  0  0  0
  -29.5470  -17.5883   19.1749 C   0  0  0  0  0  0  0  0  0  0  0  0
  -26.4712  -28.2533   21.3815 C   0  0  0  0  0  0  0  0  0  0  0  0
  -26.3720  -31.1832   22.7701 C   0  0  0  0  0  0  0  0  0  0  0  0
  -24.5179  -33.9072   23.6580 C   0  0  0  0  0  0  0  0  0  0  0  0
  -24.3430  -23.2936   22.2670 C   0  0  0  0  0  0  0  0  0  0  0  0
  -30.0427  -25.1171   19.5199 C   0  0  0  0  0  0  0  0  0  0  0  0
  -25.3377  -29.6203   19.5919 C   0  0  0  0  0  0  0  0  0  0  0  0
  -24.1511  -30.1016   22.2574 C   0  0  0  0  0  0  0  0  0  0  0  0
  -30.0049  -26.2334   20.5604 C   0  0  0  0  0  0  0  0  0  0  0  0
  -27.3971  -22.5439   23.9367 C   0  0  0  0  0  0  0  0  0  0  0  0
  -28.8392  -26.0273   21.5223 C   0  0  0  0  0  0  0  0  0  0  0  0
  -27.8826  -21.2663   23.2481 C   0  0  0  0  0  0  0  0  0  0  0  0
  -25.8766  -22.5670   24.0823 C   0  0  0  0  0  0  0  0  0  0  0  0
  -25.6157  -21.0616   22.1497 C   0  0  0  0  0  0  0  0  0  0  0  0
  -27.4978  -26.0680   20.7803 C   0  0  1  0  0  0  0  0  0  0  0  0
  -26.1875  -29.6331   20.8588 C   0  0  1  0  0  0  0  0  0  0  0  0
  -27.1357  -21.0221   21.9221 C   0  0  2  0  0  0  0  0  0  0  0  0
  -24.7062  -36.1264   24.8145 C   0  0  0  0  0  0  0  0  0  0  0  0
  -26.4370  -29.7669   25.4719 C   0  0  0  0  0  0  0  0  0  0  0  0
  -25.6753  -31.9034   26.5318 C   0  0  0  0  0  0  0  0  0  0  0  0
  -27.8620  -31.8174   25.3344 C   0  0  0  0  0  0  0  0  0  0  0  0
  -23.7046  -35.3769   21.2213 C   0  0  0  0  0  0  0  0  0  0  0  0
  -18.2610  -27.2258   21.7649 C   0  0  0  0  0  0  0  0  0  0  0  0
  -18.4975  -25.9692   20.9360 C   0  0  0  0  0  0  0  0  0  0  0  0
  -19.4887  -28.1256   21.8450 C   0  0  0  0  0  0  0  0  0  1  0  0
  -25.7153  -31.7616   24.0001 C   0  0  1  0  0  0  0  0  0  0  0  0
  -24.7652  -35.3947   23.4826 C   0  0  2  0  0  0  0  0  0  0  0  0
  -26.4071  -31.3002   25.3139 C   0  0  0  0  0  0  0  0  0  0  0  0
  -20.0609  -24.0708   19.4617 N   0  0  0  0  0  0  0  0  0  0  0  0
  -26.9005  -18.6010   21.5168 N   0  0  0  0  0  0  0  0  0  0  0  0
  -27.5780  -19.7321   21.2570 N   0  0  0  0  0  0  0  0  0  0  0  0
  -25.5632  -30.3832   21.9506 N   0  0  0  0  0  0  0  0  0  0  0  0
  -25.2368  -22.3330   22.7859 N   0  0  0  0  0  0  0  0  0  0  0  0
  -29.4044  -20.5987   20.0225 N   0  0  0  0  0  0  0  0  0  0  0  0
  -29.4085  -16.2121   18.9484 N   0  0  0  0  0  0  0  0  0  0  0  0
  -23.8217  -22.9781   21.0127 N   0  0  0  0  0  0  0  0  0  0  0  0
  -19.5927  -25.2000   21.4756 N   0  0  0  0  0  0  0  0  0  0  0  0
  -27.1266  -27.4346   20.4817 N   0  0  0  0  0  0  0  0  0  0  0  0
  -25.6965  -33.2081   23.8109 N   0  0  0  0  0  0  0  0  0  0  0  0
  -23.7416  -35.9866   22.5755 N   0  3  0  0  0  0  0  0  0  0  0  0
  -30.4781  -18.2125   18.6119 O   0  0  0  0  0  0  0  0  0  0  0  0
  -26.1225  -27.9540   22.5175 O   0  0  0  0  0  0  0  0  0  0  0  0
  -27.5571  -31.4377   22.5409 O   0  0  0  0  0  0  0  0  0  0  0  0
  -23.3916  -33.4153   23.6630 O   0  0  0  0  0  0  0  0  0  0  0  0
  -24.0819  -24.3335   22.8773 O   0  0  0  0  0  0  0  0  0  0  0  0
  -25.8479  -12.3593   20.8226 O   0  0  0  0  0  0  0  0  0  0  0  0
  -19.8604  -28.5139   20.5232 O   0  0  0  0  0  0  0  0  0  1  0  0
  -20.4380  -11.3903   20.3774 F   0  0  0  0  0  0  0  0  0  0  0  0
  -24.0711  -13.3472   22.6961 F   0  0  0  0  0  0  0  0  0  0  0  0
  1  2  1  0  0  0  0
  1  5  2  0  0  0  0
  2  6  2  0  0  0  0
  3  8  2  0  0  0  0
  3 18  1  0  0  0  0
  4  9  1  0  0  0  0
  4 18  2  0  0  0  0
  5 20  1  0  0  0  0
  6 22  1  0  0  0  0
  7 10  2  0  0  0  0
  7 21  1  0  0  0  0
  8 25  1  0  0  0  0
  9 25  2  0  0  0  0
 10 26  1  0  0  0  0
 11 12  2  0  0  0  0
 11 27  1  0  0  0  0
 12 28  1  0  0  0  0
 13 17  2  0  0  0  0
 13 24  1  0  0  0  0
 14 23  1  0  0  0  0
 14 26  2  0  0  0  0
 15 24  2  0  0  0  0
 15 31  1  0  0  0  0
 16 28  2  0  0  0  0
 16 29  1  0  0  0  0
 17 61  1  0  0  0  0
 18 30  1  0  0  0  0
 19 30  1  0  0  0  0
 19 32  2  0  0  0  0
 19 33  1  0  0  0  0
 20 22  2  0  0  0  0
 20 38  1  0  0  0  0
 21 23  2  0  0  0  0
 21 39  1  0  0  0  0
 22 47  1  0  0  0  0
 23 40  1  0  0  0  0
 24 68  1  0  0  0  0
 25 78  1  0  0  0  0
 26 79  1  0  0  0  0
 27 29  2  0  0  0  0
 27 78  1  0  0  0  0
 28 80  1  0  0  0  0
 29 81  1  0  0  0  0
 30 62  2  0  0  0  0
 31 61  2  0  0  0  0
 31 69  1  0  0  0  0
 32 63  1  0  0  0  0
 32 66  1  0  0  0  0
 33 67  1  0  0  0  0
 33 73  2  0  0  0  0
 34 48  1  0  0  0  0
 34 70  1  0  0  0  0
 34 74  2  0  0  0  0
 35 58  1  0  0  0  0
 35 64  1  0  0  0  0
 35 75  2  0  0  0  0
 36 59  1  0  0  0  0
 36 71  1  0  0  0  0
 36 76  2  0  0  0  0
 37 65  1  0  0  0  0
 37 68  1  0  0  0  0
 37 77  2  0  0  0  0
 38 41  1  0  0  0  0
 39 48  1  0  0  0  0
 40 64  1  0  0  0  0
 41 43  1  0  0  0  0
 42 44  1  0  0  0  0
 42 45  1  0  0  0  0
 43 47  1  0  0  0  0
 44 49  1  0  0  0  0
 45 65  1  0  0  0  0
 46 49  1  0  0  0  0
 46 65  1  0  0  0  0
 47 70  1  0  0  0  0
 48 64  1  0  0  0  0
 49 63  1  0  0  0  0
 50 59  1  0  0  0  0
 51 60  1  0  0  0  0
 52 60  1  0  0  0  0
 53 60  1  0  0  0  0
 54 72  1  0  0  0  0
 55 56  1  0  0  0  0
 55 57  1  0  0  0  0
 56 69  1  0  0  0  0
 57 79  1  0  0  0  0
 58 60  1  0  0  0  0
 58 71  1  0  0  0  0
 59 72  1  0  0  0  0
 62 63  1  0  0  0  0
M  CHG  1  72   1
M  ISO  4  37 100  57 101  68 100  79 101
M  END
> <Batch ID>
0114

> <Smiles>
CNC(C)C(=O)NC(C(=O)N1Cc2cc([101O:1][101CH2:1]CCNc3cc([100NH:0][100C:0](=O)N4CCCC(n5nc(-c6ccc(Oc7ccc(F)cc7F)cc6)c(C(N)=O)c5N)C4)ccn3)ccc2CC1C(=O)NC1CCCc2ccccc21)C(C)(C)C

> <Shape>
0.296

> <Color>
0.080

> <Negative vol penalty>
0.000

$$$$

  -OEChem-04052320083D

 90 99  0     1  0  0  0  0  0999 V2000
  -17.2742  -26.7748   20.8946 C   0  0  0  0  0  0  0  0  0  0  0  0
  -18.4863  -26.6672   20.2204 C   0  0  0  0  0  0  0  0  0  0  0  0
  -26.9413  -15.2850   21.7700 C   0  0  0  0  0  0  0  0  0  0  0  0
  -26.3173  -15.2954   19.4360 C   0  0  0  0  0  0  0  0  0  0  0  0
  -17.0544  -27.8416   21.7650 C   0  0  0  0  0  0  0  0  0  0  0  0
  -19.4790  -27.6269   20.4153 C   0  0  0  0  0  0  0  0  0  0  0  0
  -25.5337  -26.7076   20.4442 C   0  0  0  0  0  0  0  0  0  0  0  0
  -26.6443  -13.9241   21.8433 C   0  0  0  0  0  0  0  0  0  0  0  0
  -26.0204  -13.9345   19.5093 C   0  0  0  0  0  0  0  0  0  0  0  0
  -26.5147  -26.8891   19.4703 C   0  0  0  0  0  0  0  0  0  0  0  0
  -24.7553  -10.5439   19.1722 C   0  0  0  0  0  0  0  0  0  0  0  0
  -23.5698  -10.1063   18.5818 C   0  0  0  0  0  0  0  0  0  0  0  0
  -27.0228  -29.0584   20.3949 C   0  0  0  0  0  0  0  0  0  0  0  0
  -26.7158  -29.4641   15.3777 C   0  0  0  0  0  0  0  0  0  0  0  0
  -22.3061  -11.5546   20.0457 C   0  0  0  0  0  0  0  0  0  0  0  0
  -26.7778  -15.9707   20.5663 C   0  0  0  0  0  0  0  0  0  0  0  0
  -28.3220  -17.9604   20.1615 C   0  0  0  0  0  0  0  0  0  0  0  0
  -18.0484  -28.8096   21.9781 C   0  0  0  0  0  0  0  0  0  0  0  0
  -25.2821  -27.7065   21.3958 C   0  0  0  0  0  0  0  0  0  0  0  0
  -19.2717  -28.7084   21.2884 C   0  0  0  0  0  0  0  0  0  0  0  0
  -26.0399  -28.8861   21.3814 C   0  0  0  0  0  0  0  0  0  0  0  0
  -28.0179  -28.9815   15.6582 C   0  0  0  0  0  0  0  0  0  0  0  0
  -26.1838  -13.2488   20.7130 C   0  0  0  0  0  0  0  0  0  0  0  0
  -27.2574  -28.0658   19.4437 C   0  0  0  0  0  0  0  0  0  0  0  0
  -24.7163  -11.4868   20.1995 C   0  0  0  0  0  0  0  0  0  0  0  0
  -22.3452  -10.6116   19.0185 C   0  0  0  0  0  0  0  0  0  0  0  0
  -23.4917  -11.9921   20.6362 C   0  0  0  0  0  0  0  0  0  0  0  0
  -27.0838  -17.3766   20.4901 C   0  0  0  0  0  0  0  0  0  0  0  0
  -26.1589  -28.6236   14.4393 C   0  0  0  0  0  0  0  0  0  0  0  0
  -28.2171  -27.8608   14.8825 C   0  0  0  0  0  0  0  0  0  0  0  0
  -28.0922  -19.3129   20.2281 C   0  0  0  0  0  0  0  0  0  0  0  0
  -29.5683  -17.3360   19.8260 C   0  0  0  0  0  0  0  0  0  0  0  0
  -22.7755  -29.5130   22.1422 C   0  0  0  0  0  0  0  0  0  0  0  0
  -24.6803  -30.4612   24.5907 C   0  0  0  0  0  0  0  0  0  0  0  0
  -27.8397  -30.8426   25.8233 C   0  0  0  0  0  0  0  0  0  0  0  0
  -23.5185  -22.8681   18.9701 C   0  0  0  0  0  0  0  0  0  0  0  0
  -17.7470  -29.9706   22.8924 C   0  0  0  0  0  0  0  0  0  0  0  0
  -24.2388  -27.4842   22.4562 C   0  0  0  0  0  0  0  0  0  0  0  0
  -25.8226  -29.9806   22.3930 C   0  0  0  0  0  0  0  0  0  0  0  0
  -18.9906  -30.7405   23.3294 C   0  0  0  0  0  0  0  0  0  0  0  0
  -24.7294  -22.1910   22.4076 C   0  0  0  0  0  0  0  0  0  0  0  0
  -19.8931  -31.0209   22.1321 C   0  0  0  0  0  0  0  0  0  0  0  0
  -25.5093  -20.8893   22.2323 C   0  0  0  0  0  0  0  0  0  0  0  0
  -23.5087  -24.0489   15.7079 C   0  0  0  0  0  0  0  0  0  0  0  0
  -25.8829  -23.8374   16.5447 C   0  0  0  0  0  0  0  0  0  0  0  0
  -23.6138  -22.3264   21.3761 C   0  0  0  0  0  0  0  0  0  0  0  0
  -23.1461  -22.8098   16.5220 C   0  0  0  0  0  0  0  0  0  0  0  0
  -25.4657  -22.6139   17.3661 C   0  0  0  0  0  0  0  0  0  0  0  0
  -24.8596  -20.8920   19.7910 C   0  0  0  0  0  0  0  0  0  0  0  0
  -20.3823  -29.7159   21.4924 C   0  0  1  0  0  0  0  0  0  0  0  0
  -23.7147  -28.7833   23.0604 C   0  0  1  0  0  0  0  0  0  0  0  0
  -26.0193  -20.7468   20.7879 C   0  0  2  0  0  0  0  0  0  0  0  0
  -24.9857  -24.0109   15.3211 C   0  0  0  0  0  0  0  0  0  0  0  0
  -29.3927  -26.9699   14.7798 C   0  0  0  0  0  0  0  0  0  0  0  0
  -29.3963  -31.0123   16.2126 C   0  0  0  0  0  0  0  0  0  0  0  0
  -29.0807  -31.6795   27.8376 C   0  0  0  0  0  0  0  0  0  0  0  0
  -24.1804  -33.3367   23.7010 C   0  0  0  0  0  0  0  0  0  0  0  0
  -26.1391  -34.0350   25.0953 C   0  0  0  0  0  0  0  0  0  0  0  0
  -24.1490  -32.9905   26.1776 C   0  0  0  0  0  0  0  0  0  0  0  0
  -29.0155  -28.1782   26.3500 C   0  0  0  0  0  0  0  0  0  0  0  0
  -24.8270  -28.6672   13.8014 C   0  0  0  0  0  0  0  0  0  0  0  0
  -26.8815  -26.5651   13.1937 C   0  0  0  0  0  0  0  0  0  0  0  0
  -26.6037  -25.2199   13.8517 C   0  0  0  0  0  0  0  0  0  0  0  0
  -28.4710  -29.5862   18.0757 C   0  0  0  0  0  0  0  0  0  1  0  0
  -28.9783  -29.5759   16.6091 C   0  0  1  0  0  0  0  0  0  0  0  0
  -25.7005  -31.5561   24.7894 C   0  0  1  0  0  0  0  0  0  0  0  0
  -28.4500  -30.4713   27.1628 C   0  0  2  0  0  0  0  0  0  0  0  0
  -25.0452  -32.9599   24.9204 C   0  0  0  0  0  0  0  0  0  0  0  0
  -26.1378  -18.2839   20.7465 N   0  0  0  0  0  0  0  0  0  0  0  0
  -27.0806  -27.6529   14.1454 N   0  0  0  0  0  0  0  0  0  0  0  0
  -26.7816  -19.4516   20.5792 N   0  0  0  0  0  0  0  0  0  0  0  0
  -24.7868  -29.7188   23.4060 N   0  0  0  0  0  0  0  0  0  0  0  0
  -24.1139  -22.1402   20.0139 N   0  0  0  0  0  0  0  0  0  0  0  0
  -24.0299  -22.6616   17.6799 N   0  0  0  0  0  0  0  0  0  0  0  0
  -28.8855  -20.3853   20.0201 N   0  0  0  0  0  0  0  0  0  0  0  0
  -29.6296  -15.9360   19.8042 N   0  0  0  0  0  0  0  0  0  0  0  0
  -21.4523  -29.1384   22.2773 N   0  0  0  0  0  0  0  0  0  0  0  0
  -26.5035  -31.1615   25.9417 N   0  0  0  0  0  0  0  0  0  0  0  0
  -24.7862  -29.4676   12.5398 N   0  3  0  0  0  0  0  0  0  0  0  0
  -25.3404  -25.2800   14.6347 N   0  3  0  0  0  0  0  0  0  0  0  0
  -29.5021  -29.4314   26.9822 N   0  3  0  0  0  0  0  0  0  0  0  0
  -30.6013  -17.9999   19.5697 O   0  0  0  0  0  0  0  0  0  0  0  0
  -23.2183  -30.3547   21.3695 O   0  0  0  0  0  0  0  0  0  0  0  0
  -23.8250  -30.2669   25.4580 O   0  0  0  0  0  0  0  0  0  0  0  0
  -28.4849  -30.8526   24.7773 O   0  0  0  0  0  0  0  0  0  0  0  0
  -22.5879  -23.6561   19.1802 O   0  0  0  0  0  0  0  0  0  0  0  0
  -25.8942  -11.9208   20.7841 O   0  0  0  0  0  0  0  0  0  0  0  0
  -28.2214  -28.2469   18.4875 O   0  0  0  0  0  0  0  0  0  1  0  0
  -21.2069  -10.1925   18.4503 F   0  0  0  0  0  0  0  0  0  0  0  0
  -23.4479  -12.8990   21.6218 F   0  0  0  0  0  0  0  0  0  0  0  0
  1  2  1  0  0  0  0
  1  5  2  0  0  0  0
  2  6  2  0  0  0  0
  3  8  2  0  0  0  0
  3 16  1  0  0  0  0
  4  9  1  0  0  0  0
  4 16  2  0  0  0  0
  5 18  1  0  0  0  0
  6 20  1  0  0  0  0
  7 10  2  0  0  0  0
  7 19  1  0  0  0  0
  8 23  1  0  0  0  0
  9 23  2  0  0  0  0
 10 24  1  0  0  0  0
 11 12  2  0  0  0  0
 11 25  1  0  0  0  0
 12 26  1  0  0  0  0
 13 21  1  0  0  0  0
 13 24  2  0  0  0  0
 14 22  1  0  0  0  0
 14 29  2  0  0  0  0
 15 26  2  0  0  0  0
 15 27  1  0  0  0  0
 16 28  1  0  0  0  0
 17 28  1  0  0  0  0
 17 31  2  0  0  0  0
 17 32  1  0  0  0  0
 18 20  2  0  0  0  0
 18 37  1  0  0  0  0
 19 21  2  0  0  0  0
 19 38  1  0  0  0  0
 20 50  1  0  0  0  0
 21 39  1  0  0  0  0
 22 30  2  0  0  0  0
 22 65  1  0  0  0  0
 23 87  1  0  0  0  0
 24 88  1  0  0  0  0
 25 27  2  0  0  0  0
 25 87  1  0  0  0  0
 26 89  1  0  0  0  0
 27 90  1  0  0  0  0
 28 69  2  0  0  0  0
 29 61  1  0  0  0  0
 29 70  1  0  0  0  0
 30 54  1  0  0  0  0
 30 70  1  0  0  0  0
 31 71  1  0  0  0  0
 31 75  1  0  0  0  0
 32 76  1  0  0  0  0
 32 82  2  0  0  0  0
 33 51  1  0  0  0  0
 33 77  1  0  0  0  0
 33 83  2  0  0  0  0
 34 66  1  0  0  0  0
 34 72  1  0  0  0  0
 34 84  2  0  0  0  0
 35 67  1  0  0  0  0
 35 78  1  0  0  0  0
 35 85  2  0  0  0  0
 36 73  1  0  0  0  0
 36 74  1  0  0  0  0
 36 86  2  0  0  0  0
 37 40  1  0  0  0  0
 38 51  1  0  0  0  0
 39 72  1  0  0  0  0
 40 42  1  0  0  0  0
 41 43  1  0  0  0  0
 41 46  1  0  0  0  0
 42 50  1  0  0  0  0
 43 52  1  0  0  0  0
 44 47  1  0  0  0  0
 44 53  1  0  0  0  0
 45 48  1  0  0  0  0
 45 53  1  0  0  0  0
 46 73  1  0  0  0  0
 47 74  1  0  0  0  0
 48 74  1  0  0  0  0
 49 52  1  0  0  0  0
 49 73  1  0  0  0  0
 50 77  1  0  0  0  0
 51 72  1  0  0  0  0
 52 71  1  0  0  0  0
 53 80  1  0  0  0  0
 55 65  1  0  0  0  0
 56 67  1  0  0  0  0
 57 68  1  0  0  0  0
 58 68  1  0  0  0  0
 59 68  1  0  0  0  0
 60 81  1  0  0  0  0
 61 79  1  0  0  0  0
 62 63  1  0  0  0  0
 62 70  1  0  0  0  0
 63 80  1  0  0  0  0
 64 65  1  0  0  0  0
 64 88  1  0  0  0  0
 66 68  1  0  0  0  0
 66 78  1  0  0  0  0
 67 81  1  0  0  0  0
 69 71  1  0  0  0  0
M  CHG  3  79   1  80   1  81   1
M  ISO  4  36 100  64 101  74 100  88 101
M  END
> <Batch ID>
0114

> <Smiles>
CNC(C)C(=O)NC(C(=O)N1Cc2cc([101O:1][101CH2:1]C(C)c3cc(CN)n(CCNC4CC[100N:0]([100C:0](=O)N5CCCC(n6nc(-c7ccc(Oc8ccc(F)cc8F)cc7)c(C(N)=O)c6N)C5)CC4)c3C)ccc2CC1C(=O)NC1CCCc2ccccc21)C(C)(C)C

> <Shape>
0.229

> <Color>
0.078

> <Negative vol penalty>
0.000

$$$$

  -OEChem-04052320083D

 81 89  0     1  0  0  0  0  0999 V2000
  -21.9151  -12.3354   18.8182 C   0  0  0  0  0  0  0  0  0  0  0  0
  -21.7075  -13.5608   19.4432 C   0  0  0  0  0  0  0  0  0  0  0  0
  -17.0146  -22.1115   26.1484 C   0  0  0  0  0  0  0  0  0  0  0  0
  -25.0146  -28.2542   19.2473 C   0  0  0  0  0  0  0  0  0  0  0  0
  -25.6905  -26.3880   20.6248 C   0  0  0  0  0  0  0  0  0  0  0  0
  -23.1413  -11.6852   18.9510 C   0  0  0  0  0  0  0  0  0  0  0  0
  -22.7258  -14.1364   20.2023 C   0  0  0  0  0  0  0  0  0  0  0  0
  -23.2907  -19.0807   19.2644 C   0  0  0  0  0  0  0  0  0  0  0  0
  -26.3423  -28.6738   19.1643 C   0  0  0  0  0  0  0  0  0  0  0  0
  -27.0182  -26.8076   20.5418 C   0  0  0  0  0  0  0  0  0  0  0  0
  -22.3718  -19.9492   19.8517 C   0  0  0  0  0  0  0  0  0  0  0  0
  -28.9830  -29.1562   21.9752 C   0  0  0  0  0  0  0  0  0  0  0  0
  -29.7341  -29.1667   23.1505 C   0  0  0  0  0  0  0  0  0  0  0  0
  -17.4411  -23.3529   26.6814 C   0  0  0  0  0  0  0  0  0  0  0  0
  -23.9759  -20.4705   21.5764 C   0  0  0  0  0  0  0  0  0  0  0  0
  -31.2912  -27.6015   22.1694 C   0  0  0  0  0  0  0  0  0  0  0  0
  -18.0934  -21.5487   25.5028 C   0  0  0  0  0  0  0  0  0  0  0  0
  -24.6887  -27.1113   19.9776 C   0  0  0  0  0  0  0  0  0  0  0  0
  -22.6487  -25.7942   19.1958 C   0  0  0  0  0  0  0  0  0  0  0  0
  -24.1784  -12.2577   19.7042 C   0  0  0  0  0  0  0  0  0  0  0  0
  -24.5574  -18.8919   19.8357 C   0  0  0  0  0  0  0  0  0  0  0  0
  -23.9666  -13.4927   20.3464 C   0  0  0  0  0  0  0  0  0  0  0  0
  -24.9100  -19.6009   20.9929 C   0  0  0  0  0  0  0  0  0  0  0  0
  -27.3441  -27.9505   19.8115 C   0  0  0  0  0  0  0  0  0  0  0  0
  -22.7133  -20.6421   21.0095 C   0  0  0  0  0  0  0  0  0  0  0  0
  -29.3860  -28.3683   20.8969 C   0  0  0  0  0  0  0  0  0  0  0  0
  -30.8882  -28.3894   23.2476 C   0  0  0  0  0  0  0  0  0  0  0  0
  -30.5401  -27.5910   20.9941 C   0  0  0  0  0  0  0  0  0  0  0  0
  -23.3174  -26.6777   20.0642 C   0  0  0  0  0  0  0  0  0  0  0  0
  -18.7675  -23.5110   26.3452 C   0  0  0  0  0  0  0  0  0  0  0  0
  -21.3763  -25.7088   19.7059 C   0  0  0  0  0  0  0  0  0  0  0  0
  -23.1344  -25.1118   18.0322 C   0  0  0  0  0  0  0  0  0  0  0  0
  -26.1132  -16.4112   21.0723 C   0  0  0  0  0  0  0  0  0  0  0  0
  -28.5726  -18.5216   21.2135 C   0  0  0  0  0  0  0  0  0  0  0  0
  -29.5944  -21.7749   21.3515 C   0  0  0  0  0  0  0  0  0  0  0  0
  -19.1166  -26.5416   25.1878 C   0  0  0  0  0  0  0  0  0  0  0  0
  -25.4704  -11.4949   19.8580 C   0  0  0  0  0  0  0  0  0  0  0  0
  -25.5469  -17.9717   19.1750 C   0  0  0  0  0  0  0  0  0  0  0  0
  -26.2643  -19.4489   21.6342 C   0  0  0  0  0  0  0  0  0  0  0  0
  -26.6255  -12.3507   20.3715 C   0  0  0  0  0  0  0  0  0  0  0  0
  -18.1653  -28.2298   22.2009 C   0  0  0  0  0  0  0  0  0  0  0  0
  -26.1770  -13.1955   21.5596 C   0  0  0  0  0  0  0  0  0  0  0  0
  -19.3175  -27.9437   21.2362 C   0  0  0  0  0  0  0  0  0  0  0  0
  -18.6613  -28.4157   23.6331 C   0  0  0  0  0  0  0  0  0  0  0  0
  -20.6471  -27.0271   23.1832 C   0  0  0  0  0  0  0  0  0  0  0  0
  -25.0552  -14.1609   21.1580 C   0  0  1  0  0  0  0  0  0  0  0  0
  -26.6227  -17.4656   20.1308 C   0  0  1  0  0  0  0  0  0  0  0  0
  -20.1905  -26.7768   21.7357 C   0  0  2  0  0  0  0  0  0  0  0  0
  -31.6652  -23.1848   21.4975 C   0  0  0  0  0  0  0  0  0  0  0  0
  -28.8328  -17.8288   24.1736 C   0  0  0  0  0  0  0  0  0  0  0  0
  -30.2187  -19.8936   24.4635 C   0  0  0  0  0  0  0  0  0  0  0  0
  -31.0080  -18.0644   22.9623 C   0  0  0  0  0  0  0  0  0  0  0  0
  -29.0182  -23.0945   18.7659 C   0  0  0  0  0  0  0  0  0  0  0  0
  -19.6959  -24.6198   26.6474 C   0  0  0  0  0  0  0  0  0  0  0  0
  -20.5298  -22.1605   25.0580 C   0  0  0  0  0  0  0  0  0  0  0  0
  -21.8955  -21.6531   23.0007 C   0  0  0  0  0  0  0  0  0  1  0  0
  -29.0706  -19.5163   22.2341 C   0  0  1  0  0  0  0  0  0  0  0  0
  -30.6522  -22.5325   20.5695 C   0  0  2  0  0  0  0  0  0  0  0  0
  -20.4982  -21.9450   23.5411 C   0  0  2  0  0  0  0  0  0  0  0  0
  -29.7562  -18.8274   23.4476 C   0  0  0  0  0  0  0  0  0  0  0  0
  -22.5345  -27.1219   21.0510 N   0  0  0  0  0  0  0  0  0  0  0  0
  -19.1533  -22.4083   25.6286 N   0  0  0  0  0  0  0  0  0  0  0  0
  -21.3607  -26.5152   20.8058 N   0  0  0  0  0  0  0  0  0  0  0  0
  -27.1948  -18.5328   20.9542 N   0  0  0  0  0  0  0  0  0  0  0  0
  -19.4813  -27.2742   24.0462 N   0  0  0  0  0  0  0  0  0  0  0  0
  -20.2805  -25.0234   19.3163 N   0  0  0  0  0  0  0  0  0  0  0  0
  -24.4673  -25.3118   17.6479 N   0  0  0  0  0  0  0  0  0  0  0  0
  -25.5972  -15.2954   20.4414 N   0  0  0  0  0  0  0  0  0  0  0  0
  -29.9304  -20.4472   21.5112 N   0  0  0  0  0  0  0  0  0  0  0  0
  -19.9441  -25.4716   25.5056 N   0  0  0  0  0  0  0  0  0  0  0  0
  -30.0200  -23.5976   19.7407 N   0  3  0  0  0  0  0  0  0  0  0  0
  -22.4032  -24.3600   17.3438 O   0  0  0  0  0  0  0  0  0  0  0  0
  -26.1844  -16.5957   22.2817 O   0  0  0  0  0  0  0  0  0  0  0  0
  -29.3776  -17.7674   20.6613 O   0  0  0  0  0  0  0  0  0  0  0  0
  -28.5740  -22.3084   21.7812 O   0  0  0  0  0  0  0  0  0  0  0  0
  -18.1238  -26.8171   25.8699 O   0  0  0  0  0  0  0  0  0  0  0  0
  -20.0163  -23.1400   22.9226 O   0  0  0  0  0  0  0  0  0  0  0  0
  -28.6397  -28.3596   19.7305 O   0  0  0  0  0  0  0  0  0  0  0  0
  -21.8180  -21.4900   21.5852 O   0  0  0  0  0  0  0  0  0  1  0  0
  -31.6102  -28.4007   24.3758 F   0  0  0  0  0  0  0  0  0  0  0  0
  -30.9329  -26.8329   19.9612 F   0  0  0  0  0  0  0  0  0  0  0  0
  1  2  1  0  0  0  0
  1  6  2  0  0  0  0
  2  7  2  0  0  0  0
  3 14  1  0  0  0  0
  3 17  2  0  0  0  0
  4  9  2  0  0  0  0
  4 18  1  0  0  0  0
  5 10  1  0  0  0  0
  5 18  2  0  0  0  0
  6 20  1  0  0  0  0
  7 22  1  0  0  0  0
  8 11  2  0  0  0  0
  8 21  1  0  0  0  0
  9 24  1  0  0  0  0
 10 24  2  0  0  0  0
 11 25  1  0  0  0  0
 12 13  2  0  0  0  0
 12 26  1  0  0  0  0
 13 27  1  0  0  0  0
 14 30  2  0  0  0  0
 15 23  1  0  0  0  0
 15 25  2  0  0  0  0
 16 27  2  0  0  0  0
 16 28  1  0  0  0  0
 17 62  1  0  0  0  0
 18 29  1  0  0  0  0
 19 29  1  0  0  0  0
 19 31  2  0  0  0  0
 19 32  1  0  0  0  0
 20 22  2  0  0  0  0
 20 37  1  0  0  0  0
 21 23  2  0  0  0  0
 21 38  1  0  0  0  0
 22 46  1  0  0  0  0
 23 39  1  0  0  0  0
 24 78  1  0  0  0  0
 25 79  1  0  0  0  0
 26 28  2  0  0  0  0
 26 78  1  0  0  0  0
 27 80  1  0  0  0  0
 28 81  1  0  0  0  0
 29 61  2  0  0  0  0
 30 54  1  0  0  0  0
 30 62  1  0  0  0  0
 31 63  1  0  0  0  0
 31 66  1  0  0  0  0
 32 67  1  0  0  0  0
 32 72  2  0  0  0  0
 33 47  1  0  0  0  0
 33 68  1  0  0  0  0
 33 73  2  0  0  0  0
 34 57  1  0  0  0  0
 34 64  1  0  0  0  0
 34 74  2  0  0  0  0
 35 58  1  0  0  0  0
 35 69  1  0  0  0  0
 35 75  2  0  0  0  0
 36 65  1  0  0  0  0
 36 70  1  0  0  0  0
 36 76  2  0  0  0  0
 37 40  1  0  0  0  0
 38 47  1  0  0  0  0
 39 64  1  0  0  0  0
 40 42  1  0  0  0  0
 41 43  1  0  0  0  0
 41 44  1  0  0  0  0
 42 46  1  0  0  0  0
 43 48  1  0  0  0  0
 44 65  1  0  0  0  0
 45 48  1  0  0  0  0
 45 65  1  0  0  0  0
 46 68  1  0  0  0  0
 47 64  1  0  0  0  0
 48 63  1  0  0  0  0
 49 58  1  0  0  0  0
 50 60  1  0  0  0  0
 51 60  1  0  0  0  0
 52 60  1  0  0  0  0
 53 71  1  0  0  0  0
 54 70  1  0  0  0  0
 55 59  1  0  0  0  0
 55 62  1  0  0  0  0
 56 59  1  0  0  0  0
 56 79  1  0  0  0  0
 57 60  1  0  0  0  0
 57 69  1  0  0  0  0
 58 71  1  0  0  0  0
 59 77  1  0  0  0  0
 61 63  1  0  0  0  0
M  CHG  1  71   1
M  ISO  4  36 100  56 101  70 100  79 101
M  END
> <Batch ID>
0114

> <Smiles>
CNC(C)C(=O)NC(C(=O)N1Cc2cc([101O:1][101CH2:1]C(O)Cn3cccc3C[100NH:0][100C:0](=O)N3CCCC(n4nc(-c5ccc(Oc6ccc(F)cc6F)cc5)c(C(N)=O)c4N)C3)ccc2CC1C(=O)NC1CCCc2ccccc21)C(C)(C)C

> <Shape>
0.181

> <Color>
0.072

> <Negative vol penalty>
0.000

$$$$

  -OEChem-04052320083D

 83 92  0     1  0  0  0  0  0999 V2000
  -20.5700  -25.5505   23.9108 C   0  0  0  0  0  0  0  0  0  0  0  0
  -21.9128  -25.2010   23.8098 C   0  0  0  0  0  0  0  0  0  0  0  0
  -26.5541  -28.3619   18.8004 C   0  0  0  0  0  0  0  0  0  0  0  0
  -26.5960  -27.0778   20.8465 C   0  0  0  0  0  0  0  0  0  0  0  0
  -19.6184  -24.5772   24.2126 C   0  0  0  0  0  0  0  0  0  0  0  0
  -22.3050  -23.8782   24.0116 C   0  0  0  0  0  0  0  0  0  0  0  0
  -26.8429  -20.9086   21.1665 C   0  0  0  0  0  0  0  0  0  0  0  0
  -25.8127  -29.3557   19.4393 C   0  0  0  0  0  0  0  0  0  0  0  0
  -25.8546  -28.0716   21.4854 C   0  0  0  0  0  0  0  0  0  0  0  0
  -28.1583  -20.6307   21.5356 C   0  0  0  0  0  0  0  0  0  0  0  0
  -26.4225  -31.1090   22.8538 C   0  0  0  0  0  0  0  0  0  0  0  0
  -26.8346  -31.5061   24.1258 C   0  0  0  0  0  0  0  0  0  0  0  0
  -27.4719  -18.4556   22.3211 C   0  0  0  0  0  0  0  0  0  0  0  0
  -29.8121  -16.2239   18.4601 C   0  0  0  0  0  0  0  0  0  0  0  0
  -24.6963  -30.8349   25.0282 C   0  0  0  0  0  0  0  0  0  0  0  0
  -26.9457  -27.2228   19.5040 C   0  0  0  0  0  0  0  0  0  0  0  0
  -29.1132  -26.1033   18.7580 C   0  0  0  0  0  0  0  0  0  0  0  0
  -19.9979  -23.2399   24.4087 C   0  0  0  0  0  0  0  0  0  0  0  0
  -25.8285  -19.9648   21.3823 C   0  0  0  0  0  0  0  0  0  0  0  0
  -21.3577  -22.8863   24.3176 C   0  0  0  0  0  0  0  0  0  0  0  0
  -26.1449  -18.7230   21.9515 C   0  0  0  0  0  0  0  0  0  0  0  0
  -29.5992  -15.3928   19.5410 C   0  0  0  0  0  0  0  0  0  0  0  0
  -29.7030  -15.8771   20.8443 C   0  0  0  0  0  0  0  0  0  0  0  0
  -25.4630  -29.2106   20.7818 C   0  0  0  0  0  0  0  0  0  0  0  0
  -28.4725  -19.4052   22.1157 C   0  0  0  0  0  0  0  0  0  0  0  0
  -25.1472  -30.5749   22.6690 C   0  0  0  0  0  0  0  0  0  0  0  0
  -25.9716  -31.3691   25.2130 C   0  0  0  0  0  0  0  0  0  0  0  0
  -24.2842  -30.4378   23.7562 C   0  0  0  0  0  0  0  0  0  0  0  0
  -27.7111  -26.1956   18.8444 C   0  0  0  0  0  0  0  0  0  0  0  0
  -30.1171  -17.5451   18.7541 C   0  0  0  0  0  0  0  0  0  0  0  0
  -30.0221  -17.2000   21.0402 C   0  0  0  0  0  0  0  0  0  0  0  0
  -29.3379  -24.9573   18.0352 C   0  0  0  0  0  0  0  0  0  0  0  0
  -30.1221  -26.9755   19.2843 C   0  0  0  0  0  0  0  0  0  0  0  0
  -23.1579  -19.8962   23.1048 C   0  0  0  0  0  0  0  0  0  0  0  0
  -22.7199  -17.0581   21.5961 C   0  0  0  0  0  0  0  0  0  0  0  0
  -24.1071  -14.3931   19.9773 C   0  0  0  0  0  0  0  0  0  0  0  0
  -28.2351  -19.5964   16.9444 C   0  0  0  0  0  0  0  0  0  0  0  0
  -18.9392  -22.2318   24.7795 C   0  0  0  0  0  0  0  0  0  0  0  0
  -24.4192  -20.2695   20.9540 C   0  0  0  0  0  0  0  0  0  0  0  0
  -29.2967  -13.9284   19.5422 C   0  0  0  0  0  0  0  0  0  0  0  0
  -29.4829  -14.7948   21.8461 C   0  0  0  0  0  0  0  0  0  0  0  0
  -25.0961  -17.6678   22.1859 C   0  0  0  0  0  0  0  0  0  0  0  0
  -19.3909  -20.7836   24.6094 C   0  0  0  0  0  0  0  0  0  0  0  0
  -28.7886  -13.7317   20.9799 C   0  0  0  0  0  0  0  0  0  0  0  0
  -26.1446  -22.0386   15.4140 C   0  0  0  0  0  0  0  0  0  0  0  0
  -20.7774  -20.5825   25.2129 C   0  0  0  0  0  0  0  0  0  0  0  0
  -26.4769  -23.3281   16.1669 C   0  0  0  0  0  0  0  0  0  0  0  0
  -26.1701  -20.8230   16.3380 C   0  0  0  0  0  0  0  0  0  0  0  0
  -27.7493  -21.9459   17.8608 C   0  0  0  0  0  0  0  0  0  0  0  0
  -21.8192  -21.4574   24.5052 C   0  0  1  0  0  0  0  0  0  0  0  0
  -23.3768  -19.4348   21.6916 C   0  0  1  0  0  0  0  0  0  0  0  0
  -27.7908  -23.1918   16.9596 C   0  0  2  0  0  0  0  0  0  0  0  0
  -31.5963  -17.6728   22.9485 C   0  0  0  0  0  0  0  0  0  0  0  0
  -23.4999  -12.2127   18.8937 C   0  0  0  0  0  0  0  0  0  0  0  0
  -22.3624  -15.7923   24.3493 C   0  0  0  0  0  0  0  0  0  0  0  0
  -22.7116  -13.5519   23.2877 C   0  0  0  0  0  0  0  0  0  0  0  0
  -20.7718  -14.9645   22.6060 C   0  0  0  0  0  0  0  0  0  0  0  0
  -25.1496  -15.2747   17.3514 C   0  0  0  0  0  0  0  0  0  0  0  0
  -30.3533  -18.5011   17.6318 C   0  0  0  0  0  0  0  0  0  0  0  0
  -30.1650  -17.7652   22.4348 C   0  0  1  0  0  0  0  0  0  1  0  0
  -23.1019  -15.6257   21.8812 C   0  0  1  0  0  0  0  0  0  0  0  0
  -23.7370  -13.6994   18.6788 C   0  0  2  0  0  0  0  0  0  0  0  0
  -22.2566  -15.0040   23.0285 C   0  0  0  0  0  0  0  0  0  0  0  0
  -27.0890  -25.1885   18.2257 N   0  0  0  0  0  0  0  0  0  0  0  0
  -30.2268  -18.0543   20.0113 N   0  0  0  0  0  0  0  0  0  0  0  0
  -28.1049  -24.4526   17.7435 N   0  0  0  0  0  0  0  0  0  0  0  0
  -23.7316  -18.0156   21.7559 N   0  0  0  0  0  0  0  0  0  0  0  0
  -27.4434  -20.7510   17.0588 N   0  0  0  0  0  0  0  0  0  0  0  0
  -30.4681  -24.3421   17.6268 N   0  0  0  0  0  0  0  0  0  0  0  0
  -29.7173  -28.1086   20.0029 N   0  0  0  0  0  0  0  0  0  0  0  0
  -22.1897  -20.8736   23.2339 N   0  0  0  0  0  0  0  0  0  0  0  0
  -22.9994  -14.9154   20.6110 N   0  0  0  0  0  0  0  0  0  0  0  0
  -29.4291  -19.6129   17.6548 N   0  0  0  0  0  0  0  0  0  0  0  0
  -24.8275  -13.8612   17.6760 N   0  3  0  0  0  0  0  0  0  0  0  0
  -31.3462  -26.7653   19.1080 O   0  0  0  0  0  0  0  0  0  0  0  0
  -23.8174  -19.4008   24.0111 O   0  0  0  0  0  0  0  0  0  0  0  0
  -21.5683  -17.3170   21.2378 O   0  0  0  0  0  0  0  0  0  0  0  0
  -25.2627  -14.4615   20.3901 O   0  0  0  0  0  0  0  0  0  0  0  0
  -27.9050  -18.6250   16.2555 O   0  0  0  0  0  0  0  0  0  0  0  0
  -24.7398  -30.1804   21.4056 O   0  0  0  0  0  0  0  0  0  0  0  0
  -29.7555  -19.1315   22.4775 O   0  0  0  0  0  0  0  0  0  1  0  0
  -26.3681  -31.7491   26.4347 F   0  0  0  0  0  0  0  0  0  0  0  0
  -23.0583  -29.9243   23.5850 F   0  0  0  0  0  0  0  0  0  0  0  0
  1  2  1  0  0  0  0
  1  5  2  0  0  0  0
  2  6  2  0  0  0  0
  3  8  2  0  0  0  0
  3 16  1  0  0  0  0
  4  9  1  0  0  0  0
  4 16  2  0  0  0  0
  5 18  1  0  0  0  0
  6 20  1  0  0  0  0
  7 10  2  0  0  0  0
  7 19  1  0  0  0  0
  8 24  1  0  0  0  0
  9 24  2  0  0  0  0
 10 25  1  0  0  0  0
 11 12  2  0  0  0  0
 11 26  1  0  0  0  0
 12 27  1  0  0  0  0
 13 21  1  0  0  0  0
 13 25  2  0  0  0  0
 14 22  2  0  0  0  0
 14 30  1  0  0  0  0
 15 27  2  0  0  0  0
 15 28  1  0  0  0  0
 16 29  1  0  0  0  0
 17 29  1  0  0  0  0
 17 32  2  0  0  0  0
 17 33  1  0  0  0  0
 18 20  2  0  0  0  0
 18 38  1  0  0  0  0
 19 21  2  0  0  0  0
 19 39  1  0  0  0  0
 20 50  1  0  0  0  0
 21 42  1  0  0  0  0
 22 23  1  0  0  0  0
 22 40  1  0  0  0  0
 23 31  2  0  0  0  0
 23 41  1  0  0  0  0
 24 80  1  0  0  0  0
 25 81  1  0  0  0  0
 26 28  2  0  0  0  0
 26 80  1  0  0  0  0
 27 82  1  0  0  0  0
 28 83  1  0  0  0  0
 29 64  2  0  0  0  0
 30 59  1  0  0  0  0
 30 65  2  0  0  0  0
 31 60  1  0  0  0  0
 31 65  1  0  0  0  0
 32 66  1  0  0  0  0
 32 69  1  0  0  0  0
 33 70  1  0  0  0  0
 33 75  2  0  0  0  0
 34 51  1  0  0  0  0
 34 71  1  0  0  0  0
 34 76  2  0  0  0  0
 35 61  1  0  0  0  0
 35 67  1  0  0  0  0
 35 77  2  0  0  0  0
 36 62  1  0  0  0  0
 36 72  1  0  0  0  0
 36 78  2  0  0  0  0
 37 68  1  0  0  0  0
 37 73  1  0  0  0  0
 37 79  2  0  0  0  0
 38 43  1  0  0  0  0
 39 51  1  0  0  0  0
 40 44  1  0  0  0  0
 41 44  1  0  0  0  0
 42 67  1  0  0  0  0
 43 46  1  0  0  0  0
 45 47  1  0  0  0  0
 45 48  1  0  0  0  0
 46 50  1  0  0  0  0
 47 52  1  0  0  0  0
 48 68  1  0  0  0  0
 49 52  1  0  0  0  0
 49 68  1  0  0  0  0
 50 71  1  0  0  0  0
 51 67  1  0  0  0  0
 52 66  1  0  0  0  0
 53 60  1  0  0  0  0
 54 62  1  0  0  0  0
 55 63  1  0  0  0  0
 56 63  1  0  0  0  0
 57 63  1  0  0  0  0
 58 74  1  0  0  0  0
 59 73  1  0  0  0  0
 60 81  1  0  0  0  0
 61 63  1  0  0  0  0
 61 72  1  0  0  0  0
 62 74  1  0  0  0  0
 64 66  1  0  0  0  0
M  CHG  1  74   1
M  ISO  4  37 100  60 101  73 100  81 101
M  END
> <Batch ID>
0114

> <Smiles>
CNC(C)C(=O)NC(C(=O)N1Cc2cc([101O:1][101CH:1](C)c3nc(C[100NH:0][100C:0](=O)N4CCCC(n5nc(-c6ccc(Oc7ccc(F)cc7F)cc6)c(C(N)=O)c5N)C4)cc4c3CCC4)ccc2CC1C(=O)NC1CCCc2ccccc21)C(C)(C)C

> <Shape>
0.205

> <Color>
0.047

> <Negative vol penalty>
0.000

$$$$

  -OEChem-04052320083D

 86 94  0     1  0  0  0  0  0999 V2000
  -18.6045  -27.4871   21.3447 C   0  0  0  0  0  0  0  0  0  0  0  0
  -28.3826  -18.4852   17.8932 C   0  0  0  0  0  0  0  0  0  0  0  0
  -27.2718  -19.3159   18.0006 C   0  0  0  0  0  0  0  0  0  0  0  0
  -17.9689  -28.2271   22.3417 C   0  0  0  0  0  0  0  0  0  0  0  0
  -19.6726  -26.6511   21.6702 C   0  0  0  0  0  0  0  0  0  0  0  0
  -23.8051  -15.3277   19.9738 C   0  0  0  0  0  0  0  0  0  0  0  0
  -25.9197  -16.3363   20.5639 C   0  0  0  0  0  0  0  0  0  0  0  0
  -29.4866  -18.6892   18.7199 C   0  0  0  0  0  0  0  0  0  0  0  0
  -27.2640  -20.3504   18.9355 C   0  0  0  0  0  0  0  0  0  0  0  0
  -24.7422  -26.9859   19.8985 C   0  0  0  0  0  0  0  0  0  0  0  0
  -18.4015  -28.1311   23.6643 C   0  0  0  0  0  0  0  0  0  0  0  0
  -20.1052  -26.5552   22.9928 C   0  0  0  0  0  0  0  0  0  0  0  0
  -24.3670  -14.0602   20.1266 C   0  0  0  0  0  0  0  0  0  0  0  0
  -26.4816  -15.0688   20.7167 C   0  0  0  0  0  0  0  0  0  0  0  0
  -24.0132  -27.7381   20.8186 C   0  0  0  0  0  0  0  0  0  0  0  0
  -27.6939  -12.6239   18.7208 C   0  0  0  0  0  0  0  0  0  0  0  0
  -28.9524  -12.4013   18.1621 C   0  0  0  0  0  0  0  0  0  0  0  0
  -26.0084  -28.0453   22.1392 C   0  0  0  0  0  0  0  0  0  0  0  0
  -29.8314  -11.8777   20.3508 C   0  0  0  0  0  0  0  0  0  0  0  0
  -24.5815  -16.4658   20.1924 C   0  0  0  0  0  0  0  0  0  0  0  0
  -23.4290  -18.3161   18.8674 C   0  0  0  0  0  0  0  0  0  0  0  0
  -29.4962  -19.7328   19.6588 C   0  0  0  0  0  0  0  0  0  0  0  0
  -26.1097  -26.7482   20.0979 C   0  0  0  0  0  0  0  0  0  0  0  0
  -28.3686  -20.5677   19.7764 C   0  0  0  0  0  0  0  0  0  0  0  0
  -26.7531  -27.2920   21.2188 C   0  0  0  0  0  0  0  0  0  0  0  0
  -19.4696  -27.2952   23.9899 C   0  0  0  0  0  0  0  0  0  0  0  0
  -25.7052  -13.9308   20.4981 C   0  0  0  0  0  0  0  0  0  0  0  0
  -24.6456  -28.2655   21.9406 C   0  0  0  0  0  0  0  0  0  0  0  0
  -27.5041  -12.4735   20.0945 C   0  0  0  0  0  0  0  0  0  0  0  0
  -30.0211  -12.0282   18.9771 C   0  0  0  0  0  0  0  0  0  0  0  0
  -28.5728  -12.1004   20.9095 C   0  0  0  0  0  0  0  0  0  0  0  0
  -24.0018  -17.7753   20.0341 C   0  0  0  0  0  0  0  0  0  0  0  0
  -23.0278  -19.5773   19.2346 C   0  0  0  0  0  0  0  0  0  0  0  0
  -23.2735  -17.7307   17.5678 C   0  0  0  0  0  0  0  0  0  0  0  0
  -27.8964  -24.1546   20.5275 C   0  0  0  0  0  0  0  0  0  0  0  0
  -30.3380  -26.2828   20.3483 C   0  0  0  0  0  0  0  0  0  0  0  0
  -31.4027  -29.5066   20.6951 C   0  0  0  0  0  0  0  0  0  0  0  0
  -21.5137  -21.8559   24.4663 C   0  0  0  0  0  0  0  0  0  0  0  0
  -30.6936  -19.8847   20.5631 C   0  0  0  0  0  0  0  0  0  0  0  0
  -26.8877  -25.9573   19.0822 C   0  0  0  0  0  0  0  0  0  0  0  0
  -28.2236  -27.0828   21.4683 C   0  0  0  0  0  0  0  0  0  0  0  0
  -30.7556  -21.2364   21.2698 C   0  0  0  0  0  0  0  0  0  0  0  0
  -24.1054  -23.1129   22.2753 C   0  0  0  0  0  0  0  0  0  0  0  0
  -29.3950  -21.5931   21.8599 C   0  0  0  0  0  0  0  0  0  0  0  0
  -24.3139  -21.9229   21.3369 C   0  0  0  0  0  0  0  0  0  0  0  0
  -23.8333  -22.6496   23.7035 C   0  0  0  0  0  0  0  0  0  0  0  0
  -22.8925  -20.5179   22.9007 C   0  0  0  0  0  0  0  0  0  0  0  0
  -28.3322  -21.7161   20.7613 C   0  0  1  0  0  0  0  0  0  0  0  0
  -28.1642  -25.3456   19.6514 C   0  0  1  0  0  0  0  0  0  0  0  0
  -23.1495  -20.9197   21.4369 C   0  0  2  0  0  0  0  0  0  0  0  0
  -32.9650  -31.4674   20.5853 C   0  0  0  0  0  0  0  0  0  0  0  0
  -31.3308  -25.1782   23.0137 C   0  0  0  0  0  0  0  0  0  0  0  0
  -32.7711  -27.2134   23.2411 C   0  0  0  0  0  0  0  0  0  0  0  0
  -33.1310  -25.6390   21.3399 C   0  0  0  0  0  0  0  0  0  0  0  0
  -30.6134  -30.1276   17.9111 C   0  0  0  0  0  0  0  0  0  0  0  0
  -20.5423  -25.7971   25.7494 C   0  0  0  0  0  0  0  0  0  0  0  0
  -20.2500  -23.3017   26.0379 C   0  0  0  0  0  0  0  0  0  0  0  0
  -23.1930  -29.2129   25.1176 C   0  0  0  0  0  0  0  0  0  0  0  0
  -20.9736  -28.2788   25.7812 C   0  0  0  0  0  0  0  0  0  0  0  0
  -24.3719  -28.9593   24.1989 C   0  0  0  0  0  0  0  0  0  1  0  0
  -19.9421  -27.1903   25.4321 C   0  0  1  0  0  0  0  0  0  0  0  0
  -31.0909  -27.1324   21.3434 C   0  0  1  0  0  0  0  0  0  0  0  0
  -32.2374  -30.3946   19.7900 C   0  0  2  0  0  0  0  0  0  0  0  0
  -19.5730  -24.6092   25.6255 C   0  0  1  0  0  0  0  0  0  0  0  0
  -32.0528  -26.2933   22.2311 C   0  0  0  0  0  0  0  0  0  0  0  0
  -23.9694  -18.6236   21.0653 N   0  0  0  0  0  0  0  0  0  0  0  0
  -23.3716  -19.7103   20.5477 N   0  0  0  0  0  0  0  0  0  0  0  0
  -28.9397  -26.2972   20.4497 N   0  0  0  0  0  0  0  0  0  0  0  0
  -22.7022  -21.7116   23.7315 N   0  0  0  0  0  0  0  0  0  0  0  0
  -22.4181  -20.5745   18.5591 N   0  0  0  0  0  0  0  0  0  0  0  0
  -22.1019  -17.0115   17.2949 N   0  0  0  0  0  0  0  0  0  0  0  0
  -28.4640  -22.9807   20.0700 N   0  0  0  0  0  0  0  0  0  0  0  0
  -31.7513  -28.1784   20.5700 N   0  0  0  0  0  0  0  0  0  0  0  0
  -21.4154  -23.0107   25.2327 N   0  0  0  0  0  0  0  0  0  0  0  0
  -18.3950  -24.8304   26.5136 N   0  3  0  0  0  0  0  0  0  0  0  0
  -31.3708  -31.0650   18.7798 N   0  3  0  0  0  0  0  0  0  0  0  0
  -22.1731  -28.1542   24.9096 N   0  3  0  0  0  0  0  0  0  0  0  0
  -24.1548  -17.8282   16.6805 O   0  0  0  0  0  0  0  0  0  0  0  0
  -27.2259  -24.2909   21.5442 O   0  0  0  0  0  0  0  0  0  0  0  0
  -30.9671  -25.6359   19.5072 O   0  0  0  0  0  0  0  0  0  0  0  0
  -30.5313  -29.9475   21.4413 O   0  0  0  0  0  0  0  0  0  0  0  0
  -20.6044  -21.0195   24.4375 O   0  0  0  0  0  0  0  0  0  0  0  0
  -26.2538  -12.6941   20.6476 O   0  0  0  0  0  0  0  0  0  0  0  0
  -23.9363  -28.9995   22.8406 O   0  0  0  0  0  0  0  0  0  1  0  0
  -31.2293  -11.8129   18.4403 F   0  0  0  0  0  0  0  0  0  0  0  0
  -28.3963  -11.9532   22.2298 F   0  0  0  0  0  0  0  0  0  0  0  0
  1  4  1  0  0  0  0
  1  5  2  0  0  0  0
  2  3  1  0  0  0  0
  2  8  2  0  0  0  0
  3  9  2  0  0  0  0
  4 11  2  0  0  0  0
  5 12  1  0  0  0  0
  6 13  2  0  0  0  0
  6 20  1  0  0  0  0
  7 14  1  0  0  0  0
  7 20  2  0  0  0  0
  8 22  1  0  0  0  0
  9 24  1  0  0  0  0
 10 15  2  0  0  0  0
 10 23  1  0  0  0  0
 11 26  1  0  0  0  0
 12 26  2  0  0  0  0
 13 27  1  0  0  0  0
 14 27  2  0  0  0  0
 15 28  1  0  0  0  0
 16 17  2  0  0  0  0
 16 29  1  0  0  0  0
 17 30  1  0  0  0  0
 18 25  1  0  0  0  0
 18 28  2  0  0  0  0
 19 30  2  0  0  0  0
 19 31  1  0  0  0  0
 20 32  1  0  0  0  0
 21 32  1  0  0  0  0
 21 33  2  0  0  0  0
 21 34  1  0  0  0  0
 22 24  2  0  0  0  0
 22 39  1  0  0  0  0
 23 25  2  0  0  0  0
 23 40  1  0  0  0  0
 24 48  1  0  0  0  0
 25 41  1  0  0  0  0
 26 61  1  0  0  0  0
 27 83  1  0  0  0  0
 28 84  1  0  0  0  0
 29 31  2  0  0  0  0
 29 83  1  0  0  0  0
 30 85  1  0  0  0  0
 31 86  1  0  0  0  0
 32 66  2  0  0  0  0
 33 67  1  0  0  0  0
 33 70  1  0  0  0  0
 34 71  1  0  0  0  0
 34 78  2  0  0  0  0
 35 49  1  0  0  0  0
 35 72  1  0  0  0  0
 35 79  2  0  0  0  0
 36 62  1  0  0  0  0
 36 68  1  0  0  0  0
 36 80  2  0  0  0  0
 37 63  1  0  0  0  0
 37 73  1  0  0  0  0
 37 81  2  0  0  0  0
 38 69  1  0  0  0  0
 38 74  1  0  0  0  0
 38 82  2  0  0  0  0
 39 42  1  0  0  0  0
 40 49  1  0  0  0  0
 41 68  1  0  0  0  0
 42 44  1  0  0  0  0
 43 45  1  0  0  0  0
 43 46  1  0  0  0  0
 44 48  1  0  0  0  0
 45 50  1  0  0  0  0
 46 69  1  0  0  0  0
 47 50  1  0  0  0  0
 47 69  1  0  0  0  0
 48 72  1  0  0  0  0
 49 68  1  0  0  0  0
 50 67  1  0  0  0  0
 51 63  1  0  0  0  0
 52 65  1  0  0  0  0
 53 65  1  0  0  0  0
 54 65  1  0  0  0  0
 55 76  1  0  0  0  0
 56 61  1  0  0  0  0
 56 64  1  0  0  0  0
 57 64  1  0  0  0  0
 57 74  1  0  0  0  0
 58 60  1  0  0  0  0
 58 77  1  0  0  0  0
 59 61  1  0  0  0  0
 59 77  1  0  0  0  0
 60 84  1  0  0  0  0
 62 65  1  0  0  0  0
 62 73  1  0  0  0  0
 63 76  1  0  0  0  0
 64 75  1  0  0  0  0
 66 67  1  0  0  0  0
M  CHG  3  75   1  76   1  77   1
M  ISO  4  38 100  60 101  74 100  84 101
M  END
> <Batch ID>
0114

> <Smiles>
CNC(C)C(=O)NC(C(=O)N1Cc2cc([101O:1][101CH2:1]CNCC(CC(N)C[100NH:0][100C:0](=O)N3CCCC(n4nc(-c5ccc(Oc6ccc(F)cc6F)cc5)c(C(N)=O)c4N)C3)c3ccccc3)ccc2CC1C(=O)NC1CCCc2ccccc21)C(C)(C)C

> <Shape>
0.221

> <Color>
0.065

> <Negative vol penalty>
0.000

$$$$

  -OEChem-04052320083D

 88 96  0     1  0  0  0  0  0999 V2000
  -28.2537  -36.3796   25.3983 C   0  0  0  0  0  0  0  0  0  0  0  0
  -28.2690  -34.9889   25.4306 C   0  0  0  0  0  0  0  0  0  0  0  0
  -22.8765   -9.9670   20.0032 C   0  0  0  0  0  0  0  0  0  0  0  0
  -24.5418   -9.1298   21.5404 C   0  0  0  0  0  0  0  0  0  0  0  0
  -27.0701  -37.0560   25.1058 C   0  0  0  0  0  0  0  0  0  0  0  0
  -27.1003  -34.2737   25.1714 C   0  0  0  0  0  0  0  0  0  0  0  0
  -27.8698  -30.3590   22.0525 C   0  0  0  0  0  0  0  0  0  0  0  0
  -21.8660   -9.5239   20.8565 C   0  0  0  0  0  0  0  0  0  0  0  0
  -23.5313   -8.6867   22.3938 C   0  0  0  0  0  0  0  0  0  0  0  0
  -28.4420  -29.2115   22.6001 C   0  0  0  0  0  0  0  0  0  0  0  0
  -21.3962   -6.0719   22.5799 C   0  0  0  0  0  0  0  0  0  0  0  0
  -21.5192   -4.7919   23.1203 C   0  0  0  0  0  0  0  0  0  0  0  0
  -26.2583  -28.1958   22.7380 C   0  0  0  0  0  0  0  0  0  0  0  0
  -21.5108   -5.7308   25.3464 C   0  0  0  0  0  0  0  0  0  0  0  0
  -24.2144   -9.7699   20.3451 C   0  0  0  0  0  0  0  0  0  0  0  0
  -25.4785   -9.8331   18.1303 C   0  0  0  0  0  0  0  0  0  0  0  0
  -25.8886  -36.3486   24.8333 C   0  0  0  0  0  0  0  0  0  0  0  0
  -26.4840  -30.4377   21.8533 C   0  0  0  0  0  0  0  0  0  0  0  0
  -25.8995  -34.9413   24.8762 C   0  0  0  0  0  0  0  0  0  0  0  0
  -25.6713  -29.3444   22.1853 C   0  0  0  0  0  0  0  0  0  0  0  0
  -22.1934   -8.8838   22.0518 C   0  0  0  0  0  0  0  0  0  0  0  0
  -27.6359  -28.1309   22.9456 C   0  0  0  0  0  0  0  0  0  0  0  0
  -21.3305   -7.1814   23.4228 C   0  0  0  0  0  0  0  0  0  0  0  0
  -21.5765   -4.6213   24.5035 C   0  0  0  0  0  0  0  0  0  0  0  0
  -21.3878   -7.0108   24.8060 C   0  0  0  0  0  0  0  0  0  0  0  0
  -25.2587  -10.2269   19.4638 C   0  0  0  0  0  0  0  0  0  0  0  0
  -26.5840  -10.5481   17.7388 C   0  0  0  0  0  0  0  0  0  0  0  0
  -24.7487   -8.9040   17.3180 C   0  0  0  0  0  0  0  0  0  0  0  0
  -24.1604  -32.3004   22.9648 C   0  0  0  0  0  0  0  0  0  0  0  0
  -22.3587  -30.6747   20.8122 C   0  0  0  0  0  0  0  0  0  0  0  0
  -22.0285  -27.2581   19.7006 C   0  0  0  0  0  0  0  0  0  0  0  0
  -28.9572  -15.7243   19.5898 C   0  0  0  0  0  0  0  0  0  0  0  0
  -24.6227  -37.1244   24.5686 C   0  0  0  0  0  0  0  0  0  0  0  0
  -25.8855  -31.6723   21.2368 C   0  0  0  0  0  0  0  0  0  0  0  0
  -24.1805  -29.3709   21.9727 C   0  0  0  0  0  0  0  0  0  0  0  0
  -23.5148  -36.2852   23.9373 C   0  0  0  0  0  0  0  0  0  0  0  0
  -24.3392  -18.8783   22.3005 C   0  0  0  0  0  0  0  0  0  0  0  0
  -30.5626  -12.5479   19.4889 C   0  0  0  0  0  0  0  0  0  0  0  0
  -23.3691  -34.9552   24.6699 C   0  0  0  0  0  0  0  0  0  0  0  0
  -24.3510  -18.5003   20.8166 C   0  0  0  0  0  0  0  0  0  0  0  0
  -29.4051  -11.5573   19.3507 C   0  0  0  0  0  0  0  0  0  0  0  0
  -25.7761  -18.7201   22.8003 C   0  0  0  0  0  0  0  0  0  0  0  0
  -30.1913  -13.7284   20.3836 C   0  0  0  0  0  0  0  0  0  0  0  0
  -27.8006  -13.4466   19.8555 C   0  0  0  0  0  0  0  0  0  0  0  0
  -24.6580  -34.1297   24.5762 C   0  0  1  0  0  0  0  0  0  0  0  0
  -24.4029  -31.8404   21.5550 C   0  0  1  0  0  0  0  0  0  0  0  0
  -25.7694  -17.9965   20.5291 C   0  0  2  0  0  0  0  0  0  0  0  0
  -28.1084  -12.2671   18.9172 C   0  0  2  0  0  0  0  0  0  0  0  0
  -26.6403  -18.7375   21.5458 C   0  0  1  0  0  0  0  0  0  0  0  0
  -21.2569  -26.3249   17.5027 C   0  0  0  0  0  0  0  0  0  0  0  0
  -28.6464  -22.3252   20.0035 C   0  0  0  0  0  0  0  0  0  0  0  0
  -27.9614  -17.8016   17.2991 C   0  0  0  0  0  0  0  0  0  0  0  0
  -19.6271  -30.5268   22.1635 C   0  0  0  0  0  0  0  0  0  0  0  0
  -19.2393  -28.3522   20.9851 C   0  0  0  0  0  0  0  0  0  0  0  0
  -19.5607  -30.4441   19.6649 C   0  0  0  0  0  0  0  0  0  0  0  0
  -24.5178  -25.6942   19.3588 C   0  0  0  0  0  0  0  0  0  0  0  0
  -29.7492  -25.1908   23.1668 C   0  0  0  0  0  0  0  0  0  0  0  0
  -28.7952  -24.4363   22.2463 C   0  0  0  0  0  0  0  0  0  0  0  0
  -27.9127  -20.8467   21.9508 C   0  0  0  0  0  0  0  0  0  0  0  0
  -29.5272  -26.6961   23.0881 C   0  0  0  0  0  0  0  0  0  1  0  0
  -21.5418  -29.4056   20.8434 C   0  0  1  0  0  0  0  0  0  0  0  0
  -22.4586  -26.6935   18.3587 C   0  0  2  0  0  0  0  0  0  0  0  0
  -26.1730  -18.1474   19.0704 C   0  0  1  0  0  0  0  0  0  0  0  0
  -28.1461  -22.2694   21.4437 C   0  0  1  0  0  0  0  0  0  0  0  0
  -27.5912  -17.6274   18.7704 C   0  0  1  0  0  0  0  0  0  0  0  0
  -20.0149  -29.6857   20.9310 C   0  0  0  0  0  0  0  0  0  0  0  0
  -26.1528  -11.1226   19.8910 N   0  0  0  0  0  0  0  0  0  0  0  0
  -26.9452  -11.2974   18.8197 N   0  0  0  0  0  0  0  0  0  0  0  0
  -23.6419  -30.6028   21.3728 N   0  0  0  0  0  0  0  0  0  0  0  0
  -28.9536  -14.3584   19.9174 N   0  0  0  0  0  0  0  0  0  0  0  0
  -27.2725  -10.6028   16.5790 N   0  0  0  0  0  0  0  0  0  0  0  0
  -23.6384   -8.2565   17.8768 N   0  0  0  0  0  0  0  0  0  0  0  0
  -24.7639  -33.5040   23.2755 N   0  0  0  0  0  0  0  0  0  0  0  0
  -21.9414  -28.6339   19.6716 N   0  0  0  0  0  0  0  0  0  0  0  0
  -27.7444  -16.2407   19.1504 N   0  0  0  0  0  0  0  0  0  0  0  0
  -29.0434  -23.0018   22.3260 N   0  0  0  0  0  0  0  0  0  0  0  0
  -26.8863  -20.1465   21.1403 N   0  3  0  0  0  0  0  0  0  0  0  0
  -23.2895  -25.4717   18.5532 N   0  3  0  0  0  0  0  0  0  0  0  0
  -25.0815   -8.6430   16.1370 O   0  0  0  0  0  0  0  0  0  0  0  0
  -23.4752  -31.6148   23.7145 O   0  0  0  0  0  0  0  0  0  0  0  0
  -21.8789  -31.6904   20.3026 O   0  0  0  0  0  0  0  0  0  0  0  0
  -21.7898  -26.5494   20.6759 O   0  0  0  0  0  0  0  0  0  0  0  0
  -29.9679  -16.4300   19.6769 O   0  0  0  0  0  0  0  0  0  0  0  0
  -25.2125  -17.4841   18.2499 O   0  0  0  0  0  0  0  0  0  0  0  0
  -21.2076   -8.4515   22.8848 O   0  0  0  0  0  0  0  0  0  0  0  0
  -28.1917  -27.0099   23.4808 O   0  0  0  0  0  0  0  0  0  1  0  0
  -21.6931   -3.3919   25.0223 F   0  0  0  0  0  0  0  0  0  0  0  0
  -21.3241   -8.0728   25.6208 F   0  0  0  0  0  0  0  0  0  0  0  0
  1  2  1  0  0  0  0
  1  5  2  0  0  0  0
  2  6  2  0  0  0  0
  3  8  2  0  0  0  0
  3 15  1  0  0  0  0
  4  9  1  0  0  0  0
  4 15  2  0  0  0  0
  5 17  1  0  0  0  0
  6 19  1  0  0  0  0
  7 10  2  0  0  0  0
  7 18  1  0  0  0  0
  8 21  1  0  0  0  0
  9 21  2  0  0  0  0
 10 22  1  0  0  0  0
 11 12  2  0  0  0  0
 11 23  1  0  0  0  0
 12 24  1  0  0  0  0
 13 20  1  0  0  0  0
 13 22  2  0  0  0  0
 14 24  2  0  0  0  0
 14 25  1  0  0  0  0
 15 26  1  0  0  0  0
 16 26  1  0  0  0  0
 16 27  2  0  0  0  0
 16 28  1  0  0  0  0
 17 19  2  0  0  0  0
 17 33  1  0  0  0  0
 18 20  2  0  0  0  0
 18 34  1  0  0  0  0
 19 45  1  0  0  0  0
 20 35  1  0  0  0  0
 21 85  1  0  0  0  0
 22 86  1  0  0  0  0
 23 25  2  0  0  0  0
 23 85  1  0  0  0  0
 24 87  1  0  0  0  0
 25 88  1  0  0  0  0
 26 67  2  0  0  0  0
 27 68  1  0  0  0  0
 27 71  1  0  0  0  0
 28 72  1  0  0  0  0
 28 79  2  0  0  0  0
 29 46  1  0  0  0  0
 29 73  1  0  0  0  0
 29 80  2  0  0  0  0
 30 61  1  0  0  0  0
 30 69  1  0  0  0  0
 30 81  2  0  0  0  0
 31 62  1  0  0  0  0
 31 74  1  0  0  0  0
 31 82  2  0  0  0  0
 32 70  1  0  0  0  0
 32 75  1  0  0  0  0
 32 83  2  0  0  0  0
 33 36  1  0  0  0  0
 34 46  1  0  0  0  0
 35 69  1  0  0  0  0
 36 39  1  0  0  0  0
 37 40  1  0  0  0  0
 37 42  1  0  0  0  0
 38 41  1  0  0  0  0
 38 43  1  0  0  0  0
 39 45  1  0  0  0  0
 40 47  1  0  0  0  0
 41 48  1  0  0  0  0
 42 49  1  0  0  0  0
 43 70  1  0  0  0  0
 44 48  1  0  0  0  0
 44 70  1  0  0  0  0
 45 73  1  0  0  0  0
 46 69  1  0  0  0  0
 47 49  1  0  0  0  0
 47 63  1  0  0  0  0
 48 68  1  0  0  0  0
 49 77  1  0  0  0  0
 50 62  1  0  0  0  0
 51 64  1  0  0  0  0
 52 65  1  0  0  0  0
 53 66  1  0  0  0  0
 54 66  1  0  0  0  0
 55 66  1  0  0  0  0
 56 78  1  0  0  0  0
 57 58  1  0  0  0  0
 57 60  1  0  0  0  0
 58 76  1  0  0  0  0
 59 64  1  0  0  0  0
 59 77  1  0  0  0  0
 60 86  1  0  0  0  0
 61 66  1  0  0  0  0
 61 74  1  0  0  0  0
 62 78  1  0  0  0  0
 63 65  1  0  0  0  0
 63 84  1  0  0  0  0
 64 76  1  0  0  0  0
 65 75  1  0  0  0  0
 67 68  1  0  0  0  0
M  CHG  2  77   1  78   1
M  ISO  4  32 100  60 101  75 100  86 101
M  END
> <Batch ID>
0114

> <Smiles>
CNC(C)C(=O)NC(C(=O)N1Cc2cc([101O:1][101CH2:1]CCNC(C)CNC3CCCC3C(O)C(C)[100NH:0][100C:0](=O)N3CCCC(n4nc(-c5ccc(Oc6ccc(F)cc6F)cc5)c(C(N)=O)c4N)C3)ccc2CC1C(=O)NC1CCCc2ccccc21)C(C)(C)C

> <Shape>
0.281

> <Color>
0.080

> <Negative vol penalty>
0.000

$$$$

  -OEChem-04052320083D

 81 89  0     1  0  0  0  0  0999 V2000
  -19.0699  -27.7384   23.8882 C   0  0  0  0  0  0  0  0  0  0  0  0
  -20.1087  -26.9488   23.4056 C   0  0  0  0  0  0  0  0  0  0  0  0
  -22.9871  -10.0114   19.9362 C   0  0  0  0  0  0  0  0  0  0  0  0
  -23.8581   -9.8459   22.1837 C   0  0  0  0  0  0  0  0  0  0  0  0
  -18.1795  -28.3371   22.9979 C   0  0  0  0  0  0  0  0  0  0  0  0
  -20.2569  -26.7565   22.0325 C   0  0  0  0  0  0  0  0  0  0  0  0
  -25.0646  -27.2273   20.5127 C   0  0  0  0  0  0  0  0  0  0  0  0
  -22.2188   -8.8671   20.1497 C   0  0  0  0  0  0  0  0  0  0  0  0
  -23.0896   -8.7015   22.3972 C   0  0  0  0  0  0  0  0  0  0  0  0
  -25.9154  -26.1483   20.7483 C   0  0  0  0  0  0  0  0  0  0  0  0
  -21.0832   -5.9433   23.6559 C   0  0  0  0  0  0  0  0  0  0  0  0
  -20.3841   -5.8458   24.8589 C   0  0  0  0  0  0  0  0  0  0  0  0
  -25.6479  -25.4446   18.4565 C   0  0  0  0  0  0  0  0  0  0  0  0
  -19.1699   -7.8629   24.3167 C   0  0  0  0  0  0  0  0  0  0  0  0
  -23.8069  -10.5008   20.9532 C   0  0  0  0  0  0  0  0  0  0  0  0
  -24.2256  -13.0171   20.9772 C   0  0  0  0  0  0  0  0  0  0  0  0
  -18.3226  -28.1599   21.6127 C   0  0  0  0  0  0  0  0  0  0  0  0
  -24.4894  -27.4172   19.2479 C   0  0  0  0  0  0  0  0  0  0  0  0
  -19.3667  -27.3522   21.1230 C   0  0  0  0  0  0  0  0  0  0  0  0
  -24.7921  -26.5282   18.2067 C   0  0  0  0  0  0  0  0  0  0  0  0
  -22.2700   -8.2121   21.3802 C   0  0  0  0  0  0  0  0  0  0  0  0
  -26.2049  -25.2551   19.7210 C   0  0  0  0  0  0  0  0  0  0  0  0
  -20.8257   -7.0006   22.7833 C   0  0  0  0  0  0  0  0  0  0  0  0
  -19.4274   -6.8056   25.1894 C   0  0  0  0  0  0  0  0  0  0  0  0
  -19.8690   -7.9604   23.1137 C   0  0  0  0  0  0  0  0  0  0  0  0
  -24.6013  -11.6826   20.7331 C   0  0  0  0  0  0  0  0  0  0  0  0
  -25.3228  -13.7559   20.6073 C   0  0  0  0  0  0  0  0  0  0  0  0
  -22.9948  -13.5421   21.4923 C   0  0  0  0  0  0  0  0  0  0  0  0
  -21.5177  -27.4766   18.1212 C   0  0  0  0  0  0  0  0  0  0  0  0
  -22.9936  -28.3585   15.3705 C   0  0  0  0  0  0  0  0  0  0  0  0
  -25.8343  -28.3616   13.4791 C   0  0  0  0  0  0  0  0  0  0  0  0
  -30.8398  -14.5967   20.5807 C   0  0  0  0  0  0  0  0  0  0  0  0
  -17.3072  -28.7887   20.6917 C   0  0  0  0  0  0  0  0  0  0  0  0
  -23.5948  -28.6012   19.0027 C   0  0  0  0  0  0  0  0  0  0  0  0
  -24.2165  -26.6992   16.8254 C   0  0  0  0  0  0  0  0  0  0  0  0
  -17.7569  -28.8403   19.2338 C   0  0  0  0  0  0  0  0  0  0  0  0
  -29.5088  -12.4082   18.1078 C   0  0  0  0  0  0  0  0  0  0  0  0
  -18.3378  -27.4961   18.8064 C   0  0  0  0  0  0  0  0  0  0  0  0
  -28.7470  -21.8959   20.3326 C   0  0  0  0  0  0  0  0  0  0  0  0
  -26.9354  -20.5039   19.2432 C   0  0  0  0  0  0  0  0  0  0  0  0
  -28.0853  -12.1297   18.5938 C   0  0  0  0  0  0  0  0  0  0  0  0
  -29.2279  -20.6662   21.1030 C   0  0  0  0  0  0  0  0  0  0  0  0
  -27.4170  -19.2748   20.0138 C   0  0  0  0  0  0  0  0  0  0  0  0
  -30.4903  -12.5227   19.2720 C   0  0  0  0  0  0  0  0  0  0  0  0
  -28.6838  -13.2179   20.7975 C   0  0  0  0  0  0  0  0  0  0  0  0
  -19.5752  -27.1401   19.6392 C   0  0  1  0  0  0  0  0  0  0  0  0
  -22.6577  -28.4062   17.8148 C   0  0  1  0  0  0  0  0  0  0  0  0
  -27.2517  -21.8048   19.9952 C   0  0  0  0  0  0  0  0  0  0  0  0
  -27.6480  -13.1497   19.6623 C   0  0  2  0  0  0  0  0  0  0  0  0
  -28.9039  -19.3850   20.3396 C   0  0  0  0  0  0  0  0  0  0  0  0
  -26.7228  -29.1270   11.2605 C   0  0  0  0  0  0  0  0  0  0  0  0
  -21.5235  -26.0664   13.9938 C   0  0  0  0  0  0  0  0  0  0  0  0
  -23.1291  -26.2759   12.0843 C   0  0  0  0  0  0  0  0  0  0  0  0
  -21.6308  -28.1834   12.6667 C   0  0  0  0  0  0  0  0  0  0  0  0
  -27.8629  -30.0953   14.7588 C   0  0  0  0  0  0  0  0  0  0  0  0
  -26.8085  -23.0189   19.1812 C   0  0  0  0  0  0  0  0  0  1  0  0
  -31.0370  -16.6590   21.9473 C   0  0  0  0  0  0  0  0  0  0  0  0
  -30.7463  -17.8700   21.0806 C   0  0  0  0  0  0  0  0  0  0  0  0
  -23.5733  -27.6245   14.1855 C   0  0  1  0  0  0  0  0  0  0  0  0
  -26.5445  -29.4748   12.7301 C   0  0  2  0  0  0  0  0  0  0  0  0
  -22.4736  -27.0330   13.2590 C   0  0  0  0  0  0  0  0  0  0  0  0
  -25.8404  -11.5766   20.2457 N   0  0  0  0  0  0  0  0  0  0  0  0
  -26.2527  -12.8541   20.1804 N   0  0  0  0  0  0  0  0  0  0  0  0
  -23.3422  -27.8687   16.6372 N   0  0  0  0  0  0  0  0  0  0  0  0
  -30.0180  -13.5070   20.2487 N   0  0  0  0  0  0  0  0  0  0  0  0
  -25.5732  -15.0824   20.6087 N   0  0  0  0  0  0  0  0  0  0  0  0
  -21.9711  -12.6433   21.8220 N   0  0  0  0  0  0  0  0  0  0  0  0
  -20.7266  -27.8856   19.1777 N   0  0  0  0  0  0  0  0  0  0  0  0
  -24.4711  -28.5642   13.5226 N   0  0  0  0  0  0  0  0  0  0  0  0
  -30.3135  -15.4860   21.5097 N   0  0  0  0  0  0  0  0  0  0  0  0
  -29.3030  -18.2168   21.1686 N   0  3  0  0  0  0  0  0  0  0  0  0
  -27.8902  -29.7205   13.3215 N   0  3  0  0  0  0  0  0  0  0  0  0
  -22.8024  -14.7728   21.6400 O   0  0  0  0  0  0  0  0  0  0  0  0
  -21.3662  -26.4639   17.4480 O   0  0  0  0  0  0  0  0  0  0  0  0
  -22.2643  -29.3348   15.1795 O   0  0  0  0  0  0  0  0  0  0  0  0
  -26.4289  -27.4059   13.9726 O   0  0  0  0  0  0  0  0  0  0  0  0
  -31.9574  -14.7676   20.0819 O   0  0  0  0  0  0  0  0  0  0  0  0
  -21.5201   -7.0956   21.5889 O   0  0  0  0  0  0  0  0  0  0  0  0
  -27.0346  -24.2007   19.9485 O   0  0  0  0  0  0  0  0  0  1  0  0
  -18.7550   -6.7110   26.3440 F   0  0  0  0  0  0  0  0  0  0  0  0
  -19.6165   -8.9778   22.2789 F   0  0  0  0  0  0  0  0  0  0  0  0
  1  2  1  0  0  0  0
  1  5  2  0  0  0  0
  2  6  2  0  0  0  0
  3  8  2  0  0  0  0
  3 15  1  0  0  0  0
  4  9  1  0  0  0  0
  4 15  2  0  0  0  0
  5 17  1  0  0  0  0
  6 19  1  0  0  0  0
  7 10  2  0  0  0  0
  7 18  1  0  0  0  0
  8 21  1  0  0  0  0
  9 21  2  0  0  0  0
 10 22  1  0  0  0  0
 11 12  2  0  0  0  0
 11 23  1  0  0  0  0
 12 24  1  0  0  0  0
 13 20  1  0  0  0  0
 13 22  2  0  0  0  0
 14 24  2  0  0  0  0
 14 25  1  0  0  0  0
 15 26  1  0  0  0  0
 16 26  1  0  0  0  0
 16 27  2  0  0  0  0
 16 28  1  0  0  0  0
 17 19  2  0  0  0  0
 17 33  1  0  0  0  0
 18 20  2  0  0  0  0
 18 34  1  0  0  0  0
 19 46  1  0  0  0  0
 20 35  1  0  0  0  0
 21 78  1  0  0  0  0
 22 79  1  0  0  0  0
 23 25  2  0  0  0  0
 23 78  1  0  0  0  0
 24 80  1  0  0  0  0
 25 81  1  0  0  0  0
 26 62  2  0  0  0  0
 27 63  1  0  0  0  0
 27 66  1  0  0  0  0
 28 67  1  0  0  0  0
 28 73  2  0  0  0  0
 29 47  1  0  0  0  0
 29 68  1  0  0  0  0
 29 74  2  0  0  0  0
 30 59  1  0  0  0  0
 30 64  1  0  0  0  0
 30 75  2  0  0  0  0
 31 60  1  0  0  0  0
 31 69  1  0  0  0  0
 31 76  2  0  0  0  0
 32 65  1  0  0  0  0
 32 70  1  0  0  0  0
 32 77  2  0  0  0  0
 33 36  1  0  0  0  0
 34 47  1  0  0  0  0
 35 64  1  0  0  0  0
 36 38  1  0  0  0  0
 37 41  1  0  0  0  0
 37 44  1  0  0  0  0
 38 46  1  0  0  0  0
 39 42  1  0  0  0  0
 39 48  1  0  0  0  0
 40 43  1  0  0  0  0
 40 48  1  0  0  0  0
 41 49  1  0  0  0  0
 42 50  1  0  0  0  0
 43 50  1  0  0  0  0
 44 65  1  0  0  0  0
 45 49  1  0  0  0  0
 45 65  1  0  0  0  0
 46 68  1  0  0  0  0
 47 64  1  0  0  0  0
 48 56  1  0  0  0  0
 49 63  1  0  0  0  0
 50 71  1  0  0  0  0
 51 60  1  0  0  0  0
 52 61  1  0  0  0  0
 53 61  1  0  0  0  0
 54 61  1  0  0  0  0
 55 72  1  0  0  0  0
 56 79  1  0  0  0  0
 57 58  1  0  0  0  0
 57 70  1  0  0  0  0
 58 71  1  0  0  0  0
 59 61  1  0  0  0  0
 59 69  1  0  0  0  0
 60 72  1  0  0  0  0
 62 63  1  0  0  0  0
M  CHG  2  71   1  72   1
M  ISO  4  32 100  56 101  70 100  79 101
M  END
> <Batch ID>
0114

> <Smiles>
CNC(C)C(=O)NC(C(=O)N1Cc2cc([101O:1][101CH2:1]C3CCC(NCC[100NH:0][100C:0](=O)N4CCCC(n5nc(-c6ccc(Oc7ccc(F)cc7F)cc6)c(C(N)=O)c5N)C4)CC3)ccc2CC1C(=O)NC1CCCc2ccccc21)C(C)(C)C

> <Shape>
0.278

> <Color>
0.211

> <Negative vol penalty>
0.000

$$$$

  -OEChem-04052320083D

 85 93  0     1  0  0  0  0  0999 V2000
  -26.9204  -24.3684   24.4340 C   0  0  0  0  0  0  0  0  0  0  0  0
  -25.9958  -23.3446   24.2541 C   0  0  0  0  0  0  0  0  0  0  0  0
  -24.9707  -30.6543   20.4872 C   0  0  0  0  0  0  0  0  0  0  0  0
  -24.7780  -28.8653   22.0994 C   0  0  0  0  0  0  0  0  0  0  0  0
  -27.9271  -24.5706   23.4908 C   0  0  0  0  0  0  0  0  0  0  0  0
  -26.0767  -22.5231   23.1303 C   0  0  0  0  0  0  0  0  0  0  0  0
  -24.7159  -16.5599   22.8233 C   0  0  0  0  0  0  0  0  0  0  0  0
  -24.4428  -31.5495   21.4174 C   0  0  0  0  0  0  0  0  0  0  0  0
  -24.2501  -29.7606   23.0297 C   0  0  0  0  0  0  0  0  0  0  0  0
  -23.5806  -15.8781   22.3875 C   0  0  0  0  0  0  0  0  0  0  0  0
  -25.5319  -33.2636   24.1209 C   0  0  0  0  0  0  0  0  0  0  0  0
  -26.1628  -34.4996   24.2614 C   0  0  0  0  0  0  0  0  0  0  0  0
  -24.6031  -15.5701   20.2245 C   0  0  0  0  0  0  0  0  0  0  0  0
  -19.8406  -19.1536   18.2497 C   0  0  0  0  0  0  0  0  0  0  0  0
  -24.1154  -35.6164   23.6304 C   0  0  0  0  0  0  0  0  0  0  0  0
  -21.5501  -19.0528   19.9002 C   0  0  0  0  0  0  0  0  0  0  0  0
  -25.1383  -29.3121   20.8282 C   0  0  0  0  0  0  0  0  0  0  0  0
  -27.0395  -28.0643   19.6722 C   0  0  0  0  0  0  0  0  0  0  0  0
  -28.0262  -23.7451   22.3598 C   0  0  0  0  0  0  0  0  0  0  0  0
  -25.8008  -16.7617   21.9580 C   0  0  0  0  0  0  0  0  0  0  0  0
  -27.0848  -22.7154   22.1704 C   0  0  0  0  0  0  0  0  0  0  0  0
  -25.7521  -16.2525   20.6525 C   0  0  0  0  0  0  0  0  0  0  0  0
  -20.8686  -19.7847   18.9412 C   0  0  0  0  0  0  0  0  0  0  0  0
  -19.5299  -17.8286   18.5343 C   0  0  0  0  0  0  0  0  0  0  0  0
  -24.0825  -31.1027   22.6887 C   0  0  0  0  0  0  0  0  0  0  0  0
  -23.5228  -15.3856   21.0870 C   0  0  0  0  0  0  0  0  0  0  0  0
  -24.1927  -33.2039   23.7351 C   0  0  0  0  0  0  0  0  0  0  0  0
  -25.4546  -35.6760   24.0162 C   0  0  0  0  0  0  0  0  0  0  0  0
  -23.4845  -34.3804   23.4899 C   0  0  0  0  0  0  0  0  0  0  0  0
  -25.6831  -28.3867   19.8675 C   0  0  0  0  0  0  0  0  0  0  0  0
  -20.2714  -17.1841   19.5114 C   0  0  0  0  0  0  0  0  0  0  0  0
  -27.0304  -27.1447   18.6520 C   0  0  0  0  0  0  0  0  0  0  0  0
  -28.2035  -28.5524   20.3522 C   0  0  0  0  0  0  0  0  0  0  0  0
  -27.2538  -19.3128   20.7397 C   0  0  0  0  0  0  0  0  0  0  0  0
  -29.3275  -17.0990   19.5902 C   0  0  0  0  0  0  0  0  0  0  0  0
  -29.8923  -13.8626   18.6664 C   0  0  0  0  0  0  0  0  0  0  0  0
  -22.8923  -23.3006   16.6644 C   0  0  0  0  0  0  0  0  0  0  0  0
  -29.1030  -24.0323   21.3436 C   0  0  0  0  0  0  0  0  0  0  0  0
  -27.0291  -17.4759   22.4518 C   0  0  0  0  0  0  0  0  0  0  0  0
  -26.8983  -16.4249   19.6908 C   0  0  0  0  0  0  0  0  0  0  0  0
  -29.3451  -22.8810   20.3708 C   0  0  0  0  0  0  0  0  0  0  0  0
  -24.5126  -25.8591   14.7921 C   0  0  0  0  0  0  0  0  0  0  0  0
  -28.0201  -22.3434   19.8396 C   0  0  0  0  0  0  0  0  0  0  0  0
  -25.1187  -26.7680   15.8629 C   0  0  0  0  0  0  0  0  0  0  0  0
  -23.1596  -25.2999   15.2263 C   0  0  0  0  0  0  0  0  0  0  0  0
  -23.7688  -25.5246   17.6037 C   0  0  0  0  0  0  0  0  0  0  0  0
  -27.1545  -21.7876   20.9768 C   0  0  1  0  0  0  0  0  0  0  0  0
  -27.8670  -18.0722   21.3250 C   0  0  1  0  0  0  0  0  0  0  0  0
  -25.1598  -26.0681   17.2347 C   0  0  2  0  0  0  0  0  0  0  0  0
  -18.4265  -17.1553   17.7912 C   0  0  0  0  0  0  0  0  0  0  0  0
  -31.6738  -12.3635   17.7302 C   0  0  0  0  0  0  0  0  0  0  0  0
  -28.8789  -18.2992   16.8211 C   0  0  0  0  0  0  0  0  0  0  0  0
  -29.8905  -16.2311   15.8373 C   0  0  0  0  0  0  0  0  0  0  0  0
  -31.2535  -17.6978   17.3252 C   0  0  0  0  0  0  0  0  0  0  0  0
  -18.9733  -15.5321   20.8327 C   0  0  0  0  0  0  0  0  0  0  0  0
  -29.8671  -12.1374   21.0710 C   0  0  0  0  0  0  0  0  0  0  0  0
  -20.5908  -14.7590   19.0908 C   0  0  0  0  0  0  0  0  0  0  0  0
  -22.6931  -21.3827   18.2267 C   0  0  0  0  0  0  0  0  0  0  0  0
  -22.0987  -14.8125   19.2706 C   0  0  0  0  0  0  0  0  0  1  0  0
  -21.2250  -21.2013   18.6615 C   0  0  2  0  0  0  0  0  0  0  0  0
  -29.4207  -16.2747   18.3289 C   0  0  1  0  0  0  0  0  0  0  0  0
  -31.0232  -12.9043   18.9939 C   0  0  2  0  0  0  0  0  0  0  0  0
  -29.8383  -17.1240   17.0954 C   0  0  0  0  0  0  0  0  0  0  0  0
  -21.2770  -17.7642   20.2042 N   0  0  0  0  0  0  0  0  0  0  0  0
  -24.8714  -27.7258   19.0378 N   0  0  0  0  0  0  0  0  0  0  0  0
  -25.7202  -26.9790   18.3113 N   0  0  0  0  0  0  0  0  0  0  0  0
  -28.0746  -17.1357   20.2186 N   0  0  0  0  0  0  0  0  0  0  0  0
  -23.2676  -24.6479   16.5337 N   0  0  0  0  0  0  0  0  0  0  0  0
  -28.0154  -26.4700   18.0221 N   0  0  0  0  0  0  0  0  0  0  0  0
  -28.0334  -29.4944   21.3760 N   0  0  0  0  0  0  0  0  0  0  0  0
  -27.6268  -20.4799   21.3786 N   0  0  0  0  0  0  0  0  0  0  0  0
  -30.3263  -15.1708   18.6287 N   0  0  0  0  0  0  0  0  0  0  0  0
  -23.0319  -22.7580   17.9359 N   0  0  0  0  0  0  0  0  0  0  0  0
  -19.9618  -15.8486   19.8014 N   0  0  3  0  0  0  0  0  0  0  0  0
  -20.9796  -22.1160   19.8344 N   0  3  0  0  0  0  0  0  0  0  0  0
  -30.5119  -11.7523   19.7892 N   0  3  0  0  0  0  0  0  0  0  0  0
  -29.3615  -28.1769   20.0496 O   0  0  0  0  0  0  0  0  0  0  0  0
  -26.4995  -19.2183   19.7786 O   0  0  0  0  0  0  0  0  0  0  0  0
  -30.3312  -17.6828   20.0066 O   0  0  0  0  0  0  0  0  0  0  0  0
  -28.7401  -13.4877   18.4606 O   0  0  0  0  0  0  0  0  0  0  0  0
  -22.4696  -22.6295   15.7168 O   0  0  0  0  0  0  0  0  0  0  0  0
  -23.5675  -31.9761   23.5968 O   0  0  0  0  0  0  0  0  0  0  0  0
  -22.4156  -14.7203   20.6589 O   0  0  0  0  0  0  0  0  0  1  0  0
  -26.0601  -36.8630   24.1527 F   0  0  0  0  0  0  0  0  0  0  0  0
  -22.1974  -34.3294   23.1201 F   0  0  0  0  0  0  0  0  0  0  0  0
  1  2  1  0  0  0  0
  1  5  2  0  0  0  0
  2  6  2  0  0  0  0
  3  8  2  0  0  0  0
  3 17  1  0  0  0  0
  4  9  1  0  0  0  0
  4 17  2  0  0  0  0
  5 19  1  0  0  0  0
  6 21  1  0  0  0  0
  7 10  2  0  0  0  0
  7 20  1  0  0  0  0
  8 25  1  0  0  0  0
  9 25  2  0  0  0  0
 10 26  1  0  0  0  0
 11 12  2  0  0  0  0
 11 27  1  0  0  0  0
 12 28  1  0  0  0  0
 13 22  1  0  0  0  0
 13 26  2  0  0  0  0
 14 23  2  0  0  0  0
 14 24  1  0  0  0  0
 15 28  2  0  0  0  0
 15 29  1  0  0  0  0
 16 23  1  0  0  0  0
 16 64  2  0  0  0  0
 17 30  1  0  0  0  0
 18 30  1  0  0  0  0
 18 32  2  0  0  0  0
 18 33  1  0  0  0  0
 19 21  2  0  0  0  0
 19 38  1  0  0  0  0
 20 22  2  0  0  0  0
 20 39  1  0  0  0  0
 21 47  1  0  0  0  0
 22 40  1  0  0  0  0
 23 60  1  0  0  0  0
 24 31  2  0  0  0  0
 24 50  1  0  0  0  0
 25 82  1  0  0  0  0
 26 83  1  0  0  0  0
 27 29  2  0  0  0  0
 27 82  1  0  0  0  0
 28 84  1  0  0  0  0
 29 85  1  0  0  0  0
 30 65  2  0  0  0  0
 31 64  1  0  0  0  0
 31 74  1  0  0  0  0
 32 66  1  0  0  0  0
 32 69  1  0  0  0  0
 33 70  1  0  0  0  0
 33 77  2  0  0  0  0
 34 48  1  0  0  0  0
 34 71  1  0  0  0  0
 34 78  2  0  0  0  0
 35 61  1  0  0  0  0
 35 67  1  0  0  0  0
 35 79  2  0  0  0  0
 36 62  1  0  0  0  0
 36 72  1  0  0  0  0
 36 80  2  0  0  0  0
 37 68  1  0  0  0  0
 37 73  1  0  0  0  0
 37 81  2  0  0  0  0
 38 41  1  0  0  0  0
 39 48  1  0  0  0  0
 40 67  1  0  0  0  0
 41 43  1  0  0  0  0
 42 44  1  0  0  0  0
 42 45  1  0  0  0  0
 43 47  1  0  0  0  0
 44 49  1  0  0  0  0
 45 68  1  0  0  0  0
 46 49  1  0  0  0  0
 46 68  1  0  0  0  0
 47 71  1  0  0  0  0
 48 67  1  0  0  0  0
 49 66  1  0  0  0  0
 51 62  1  0  0  0  0
 52 63  1  0  0  0  0
 53 63  1  0  0  0  0
 54 63  1  0  0  0  0
 55 74  1  0  0  0  0
 56 76  1  0  0  0  0
 57 59  1  0  0  0  0
 57 74  1  0  0  0  0
 58 60  1  0  0  0  0
 58 73  1  0  0  0  0
 59 83  1  0  0  0  0
 60 75  1  0  0  0  0
 61 63  1  0  0  0  0
 61 72  1  0  0  0  0
 62 76  1  0  0  0  0
 65 66  1  0  0  0  0
M  CHG  2  75   1  76   1
M  ISO  4  37 100  59 101  73 100  83 101
M  END
> <Batch ID>
0114

> <Smiles>
CNC(C)C(=O)NC(C(=O)N1Cc2cc([101O:1][101CH2:1]CN(C)c3ncc(C(N)C[100NH:0][100C:0](=O)N4CCCC(n5nc(-c6ccc(Oc7ccc(F)cc7F)cc6)c(C(N)=O)c5N)C4)cc3C)ccc2CC1C(=O)NC1CCCc2ccccc21)C(C)(C)C

> <Shape>
0.206

> <Color>
0.071

> <Negative vol penalty>
0.000

$$$$

  -OEChem-04052320083D

 85 93  0     1  0  0  0  0  0999 V2000
  -24.7077  -17.9263   15.4552 C   0  0  0  0  0  0  0  0  0  0  0  0
  -25.5814  -17.4122   16.4080 C   0  0  0  0  0  0  0  0  0  0  0  0
  -23.1158   -9.8439   19.9687 C   0  0  0  0  0  0  0  0  0  0  0  0
  -23.5294  -10.0355   22.3413 C   0  0  0  0  0  0  0  0  0  0  0  0
  -24.6002  -19.3055   15.2818 C   0  0  0  0  0  0  0  0  0  0  0  0
  -26.3488  -18.2771   17.1874 C   0  0  0  0  0  0  0  0  0  0  0  0
  -27.9991  -17.4825   23.0313 C   0  0  0  0  0  0  0  0  0  0  0  0
  -22.3100   -8.7290   20.1992 C   0  0  0  0  0  0  0  0  0  0  0  0
  -22.7235   -8.9205   22.5718 C   0  0  0  0  0  0  0  0  0  0  0  0
  -29.1747  -17.0174   23.6190 C   0  0  0  0  0  0  0  0  0  0  0  0
  -22.9966   -5.5586   22.3404 C   0  0  0  0  0  0  0  0  0  0  0  0
  -23.4695   -4.5888   23.2243 C   0  0  0  0  0  0  0  0  0  0  0  0
  -29.9238  -19.2923   23.9066 C   0  0  0  0  0  0  0  0  0  0  0  0
  -21.5410   -4.9365   24.6375 C   0  0  0  0  0  0  0  0  0  0  0  0
  -33.4335  -15.0167   23.6448 C   0  0  0  0  0  0  0  0  0  0  0  0
  -23.7256  -10.4972   21.0398 C   0  0  0  0  0  0  0  0  0  0  0  0
  -33.9356  -15.3453   21.4746 C   0  0  0  0  0  0  0  0  0  0  0  0
  -24.1547  -12.9967   20.7641 C   0  0  0  0  0  0  0  0  0  0  0  0
  -25.3596  -20.1880   16.0661 C   0  0  0  0  0  0  0  0  0  0  0  0
  -27.7815  -18.8580   22.8666 C   0  0  0  0  0  0  0  0  0  0  0  0
  -26.2523  -19.6694   17.0234 C   0  0  0  0  0  0  0  0  0  0  0  0
  -28.7435  -19.7724   23.3188 C   0  0  0  0  0  0  0  0  0  0  0  0
  -33.5589  -14.3729   22.4336 C   0  0  0  0  0  0  0  0  0  0  0  0
  -22.1138   -8.2673   21.5007 C   0  0  0  0  0  0  0  0  0  0  0  0
  -30.1385  -17.9222   24.0542 C   0  0  0  0  0  0  0  0  0  0  0  0
  -21.7959   -6.2175   22.6050 C   0  0  0  0  0  0  0  0  0  0  0  0
  -22.7417   -4.2777   24.3729 C   0  0  0  0  0  0  0  0  0  0  0  0
  -21.0681   -5.9064   23.7536 C   0  0  0  0  0  0  0  0  0  0  0  0
  -24.5585  -11.6486   20.8023 C   0  0  0  0  0  0  0  0  0  0  0  0
  -34.0290  -16.5538   22.1290 C   0  0  0  0  0  0  0  0  0  0  0  0
  -25.3098  -13.6940   20.5073 C   0  0  0  0  0  0  0  0  0  0  0  0
  -34.1831  -15.1527   20.0732 C   0  0  0  0  0  0  0  0  0  0  0  0
  -22.8519  -13.5675   20.9446 C   0  0  0  0  0  0  0  0  0  0  0  0
  -27.3587  -20.7790   20.3696 C   0  0  0  0  0  0  0  0  0  0  0  0
  -26.7957  -22.9988   22.6670 C   0  0  0  0  0  0  0  0  0  0  0  0
  -27.2562  -24.0097   25.8939 C   0  0  0  0  0  0  0  0  0  0  0  0
  -30.9782  -12.4523   21.5948 C   0  0  0  0  0  0  0  0  0  0  0  0
  -25.2441  -21.6698   15.8098 C   0  0  0  0  0  0  0  0  0  0  0  0
  -26.4963  -19.3445   22.2549 C   0  0  0  0  0  0  0  0  0  0  0  0
  -28.5491  -21.2598   23.1836 C   0  0  0  0  0  0  0  0  0  0  0  0
  -25.8162  -22.5289   16.9345 C   0  0  0  0  0  0  0  0  0  0  0  0
  -29.5616  -13.2355   18.3579 C   0  0  0  0  0  0  0  0  0  0  0  0
  -27.1841  -22.0067   17.3622 C   0  0  0  0  0  0  0  0  0  0  0  0
  -28.0677  -13.0418   18.6248 C   0  0  0  0  0  0  0  0  0  0  0  0
  -30.3956  -12.2003   19.1068 C   0  0  0  0  0  0  0  0  0  0  0  0
  -28.6651  -11.9706   20.8464 C   0  0  0  0  0  0  0  0  0  0  0  0
  -27.0833  -20.5761   17.9051 C   0  0  1  0  0  0  0  0  0  0  0  0
  -26.6070  -20.7492   21.6703 C   0  0  1  0  0  0  0  0  0  0  0  0
  -27.7691  -13.0009   20.1352 C   0  0  2  0  0  0  0  0  0  0  0  0
  -33.3898  -18.4156   20.5547 C   0  0  0  0  0  0  0  0  0  0  0  0
  -35.8197  -17.9608   21.0484 C   0  0  0  0  0  0  0  0  0  0  0  0
  -26.7071  -25.8854   27.4680 C   0  0  0  0  0  0  0  0  0  0  0  0
  -28.9161  -24.7383   21.3300 C   0  0  0  0  0  0  0  0  0  0  0  0
  -29.0036  -26.1156   23.4189 C   0  0  0  0  0  0  0  0  0  0  0  0
  -26.8872  -25.9778   22.1056 C   0  0  0  0  0  0  0  0  0  0  0  0
  -25.7688  -22.2060   27.7087 C   0  0  0  0  0  0  0  0  0  0  0  0
  -33.3381  -12.9329   22.1924 C   0  0  0  0  0  0  0  0  0  0  0  0
  -33.6989  -17.3926   24.5312 C   0  0  0  0  0  0  0  0  0  0  0  0
  -32.4557  -18.2725   24.4593 C   0  0  0  0  0  0  0  0  0  1  0  0
  -34.3842  -17.8948   21.6166 C   0  0  0  0  0  0  0  0  0  0  0  0
  -27.6478  -23.9726   23.4445 C   0  0  1  0  0  0  0  0  0  0  0  0
  -26.2811  -24.5256   26.9368 C   0  0  2  0  0  0  0  0  0  0  0  0
  -28.1185  -25.1731   22.5757 C   0  0  0  0  0  0  0  0  0  0  0  0
  -25.8679  -11.4963   20.5869 N   0  0  0  0  0  0  0  0  0  0  0  0
  -33.7219  -16.3419   23.4477 N   0  0  0  0  0  0  0  0  0  0  0  0
  -26.2968  -12.7577   20.4107 N   0  0  0  0  0  0  0  0  0  0  0  0
  -27.2789  -21.6859   22.5733 N   0  0  0  0  0  0  0  0  0  0  0  0
  -30.0769  -12.2256   20.5414 N   0  0  0  0  0  0  0  0  0  0  0  0
  -25.5673  -15.0106   20.3568 N   0  0  0  0  0  0  0  0  0  0  0  0
  -33.1103  -15.2863   19.1830 N   0  0  0  0  0  0  0  0  0  0  0  0
  -21.7753  -12.7075   21.2010 N   0  0  0  0  0  0  0  0  0  0  0  0
  -26.5643  -20.5835   19.2561 N   0  0  0  0  0  0  0  0  0  0  0  0
  -26.8668  -24.3531   24.6165 N   0  0  0  0  0  0  0  0  0  0  0  0
  -32.2973  -12.6786   21.2212 N   0  0  0  0  0  0  0  0  0  0  0  0
  -26.1996  -23.5774   28.0836 N   0  3  0  0  0  0  0  0  0  0  0  0
  -35.3175  -14.8553   19.6314 O   0  0  0  0  0  0  0  0  0  0  0  0
  -22.6457  -14.8022   20.8642 O   0  0  0  0  0  0  0  0  0  0  0  0
  -28.5697  -20.9670   20.3758 O   0  0  0  0  0  0  0  0  0  0  0  0
  -25.7366  -23.3869   22.1675 O   0  0  0  0  0  0  0  0  0  0  0  0
  -28.2645  -23.3695   26.1838 O   0  0  0  0  0  0  0  0  0  0  0  0
  -30.6320  -12.4580   22.7810 O   0  0  0  0  0  0  0  0  0  0  0  0
  -21.3273   -7.1795   21.7260 O   0  0  0  0  0  0  0  0  0  0  0  0
  -31.2871  -17.4709   24.6276 O   0  0  0  0  0  0  0  0  0  1  0  0
  -23.1952   -3.3453   25.2209 F   0  0  0  0  0  0  0  0  0  0  0  0
  -19.9134   -6.5352   24.0125 F   0  0  0  0  0  0  0  0  0  0  0  0
  1  2  1  0  0  0  0
  1  5  2  0  0  0  0
  2  6  2  0  0  0  0
  3  8  2  0  0  0  0
  3 16  1  0  0  0  0
  4  9  1  0  0  0  0
  4 16  2  0  0  0  0
  5 19  1  0  0  0  0
  6 21  1  0  0  0  0
  7 10  2  0  0  0  0
  7 20  1  0  0  0  0
  8 24  1  0  0  0  0
  9 24  2  0  0  0  0
 10 25  1  0  0  0  0
 11 12  2  0  0  0  0
 11 26  1  0  0  0  0
 12 27  1  0  0  0  0
 13 22  1  0  0  0  0
 13 25  2  0  0  0  0
 14 27  2  0  0  0  0
 14 28  1  0  0  0  0
 15 23  2  0  0  0  0
 15 65  1  0  0  0  0
 16 29  1  0  0  0  0
 17 23  1  0  0  0  0
 17 30  2  0  0  0  0
 17 32  1  0  0  0  0
 18 29  1  0  0  0  0
 18 31  2  0  0  0  0
 18 33  1  0  0  0  0
 19 21  2  0  0  0  0
 19 38  1  0  0  0  0
 20 22  2  0  0  0  0
 20 39  1  0  0  0  0
 21 47  1  0  0  0  0
 22 40  1  0  0  0  0
 23 57  1  0  0  0  0
 24 82  1  0  0  0  0
 25 83  1  0  0  0  0
 26 28  2  0  0  0  0
 26 82  1  0  0  0  0
 27 84  1  0  0  0  0
 28 85  1  0  0  0  0
 29 64  2  0  0  0  0
 30 60  1  0  0  0  0
 30 65  1  0  0  0  0
 31 66  1  0  0  0  0
 31 69  1  0  0  0  0
 32 70  1  0  0  0  0
 32 76  2  0  0  0  0
 33 71  1  0  0  0  0
 33 77  2  0  0  0  0
 34 48  1  0  0  0  0
 34 72  1  0  0  0  0
 34 78  2  0  0  0  0
 35 61  1  0  0  0  0
 35 67  1  0  0  0  0
 35 79  2  0  0  0  0
 36 62  1  0  0  0  0
 36 73  1  0  0  0  0
 36 80  2  0  0  0  0
 37 68  1  0  0  0  0
 37 74  1  0  0  0  0
 37 81  2  0  0  0  0
 38 41  1  0  0  0  0
 39 48  1  0  0  0  0
 40 67  1  0  0  0  0
 41 43  1  0  0  0  0
 42 44  1  0  0  0  0
 42 45  1  0  0  0  0
 43 47  1  0  0  0  0
 44 49  1  0  0  0  0
 45 68  1  0  0  0  0
 46 49  1  0  0  0  0
 46 68  1  0  0  0  0
 47 72  1  0  0  0  0
 48 67  1  0  0  0  0
 49 66  1  0  0  0  0
 50 60  1  0  0  0  0
 51 60  1  0  0  0  0
 52 62  1  0  0  0  0
 53 63  1  0  0  0  0
 54 63  1  0  0  0  0
 55 63  1  0  0  0  0
 56 75  1  0  0  0  0
 57 74  1  0  0  0  0
 58 59  1  0  0  0  0
 58 65  1  0  0  0  0
 59 83  1  0  0  0  0
 61 63  1  0  0  0  0
 61 73  1  0  0  0  0
 62 75  1  0  0  0  0
 64 66  1  0  0  0  0
M  CHG  1  75   1
M  ISO  4  37 100  59 101  74 100  83 101
M  END
> <Batch ID>
0114

> <Smiles>
CNC(C)C(=O)NC(C(=O)N1Cc2cc([101O:1][101CH2:1]Cn3cc(C[100NH:0][100C:0](=O)N4CCCC(n5nc(-c6ccc(Oc7ccc(F)cc7F)cc6)c(C(N)=O)c5N)C4)c(C(N)=O)c3C(C)C)ccc2CC1C(=O)NC1CCCc2ccccc21)C(C)(C)C

> <Shape>
0.173

> <Color>
0.183

> <Negative vol penalty>
0.000

$$$$

  -OEChem-04052320083D

 82 90  0     1  0  0  0  0  0999 V2000
  -27.0145  -29.7598   18.7556 C   0  0  0  0  0  0  0  0  0  0  0  0
  -27.2731  -28.4490   19.1435 C   0  0  0  0  0  0  0  0  0  0  0  0
  -27.7998  -16.9680   18.9923 C   0  0  0  0  0  0  0  0  0  0  0  0
  -27.6701  -17.2491   21.3884 C   0  0  0  0  0  0  0  0  0  0  0  0
  -25.9780  -30.4720   19.3575 C   0  0  0  0  0  0  0  0  0  0  0  0
  -26.4960  -27.8501   20.1344 C   0  0  0  0  0  0  0  0  0  0  0  0
  -23.8515  -21.4789   22.0661 C   0  0  0  0  0  0  0  0  0  0  0  0
  -28.5047  -18.1672   18.8897 C   0  0  0  0  0  0  0  0  0  0  0  0
  -28.3751  -18.4483   21.2858 C   0  0  0  0  0  0  0  0  0  0  0  0
  -23.7973  -20.6239   23.1660 C   0  0  0  0  0  0  0  0  0  0  0  0
  -27.7278  -21.6528   20.4239 C   0  0  0  0  0  0  0  0  0  0  0  0
  -27.2553  -22.7464   21.1494 C   0  0  0  0  0  0  0  0  0  0  0  0
  -21.9826  -21.9243   24.0797 C   0  0  0  0  0  0  0  0  0  0  0  0
  -21.8991  -18.0467   26.2468 C   0  0  0  0  0  0  0  0  0  0  0  0
  -29.3523  -22.8600   22.3439 C   0  0  0  0  0  0  0  0  0  0  0  0
  -20.4696  -17.6753   23.9526 C   0  0  0  0  0  0  0  0  0  0  0  0
  -27.3824  -16.5089   20.2416 C   0  0  0  0  0  0  0  0  0  0  0  0
  -27.1899  -13.9814   20.5286 C   0  0  0  0  0  0  0  0  0  0  0  0
  -25.1816  -29.8783   20.3494 C   0  0  0  0  0  0  0  0  0  0  0  0
  -22.9775  -22.5713   21.9699 C   0  0  0  0  0  0  0  0  0  0  0  0
  -25.4487  -28.5556   20.7510 C   0  0  0  0  0  0  0  0  0  0  0  0
  -22.0260  -22.7902   22.9764 C   0  0  0  0  0  0  0  0  0  0  0  0
  -21.0539  -16.9478   26.1403 C   0  0  0  0  0  0  0  0  0  0  0  0
  -20.3215  -16.7516   24.9747 C   0  0  0  0  0  0  0  0  0  0  0  0
  -28.7924  -18.9073   20.0365 C   0  0  0  0  0  0  0  0  0  0  0  0
  -22.8646  -20.8482   24.1744 C   0  0  0  0  0  0  0  0  0  0  0  0
  -29.0126  -21.1628   20.6584 C   0  0  0  0  0  0  0  0  0  0  0  0
  -28.0676  -23.3501   22.1094 C   0  0  0  0  0  0  0  0  0  0  0  0
  -29.8248  -21.7664   21.6184 C   0  0  0  0  0  0  0  0  0  0  0  0
  -26.6537  -15.2705   20.3481 C   0  0  0  0  0  0  0  0  0  0  0  0
  -21.9759  -18.9130   25.1682 C   0  0  0  0  0  0  0  0  0  1  0  0
  -26.0931  -13.1556   20.5670 C   0  0  0  0  0  0  0  0  0  0  0  0
  -28.5572  -13.5675   20.6507 C   0  0  0  0  0  0  0  0  0  0  0  0
  -23.3365  -25.7270   21.8423 C   0  0  0  0  0  0  0  0  0  0  0  0
  -20.1330  -25.6799   21.3349 C   0  0  0  0  0  0  0  0  0  0  0  0
  -17.1662  -24.0326   21.6971 C   0  0  0  0  0  0  0  0  0  0  0  0
  -20.3546  -14.0629   22.0154 C   0  0  0  0  0  0  0  0  0  0  0  0
  -24.1027  -30.7038   21.0046 C   0  0  0  0  0  0  0  0  0  0  0  0
  -23.0309  -23.4687   20.7640 C   0  0  0  0  0  0  0  0  0  0  0  0
  -21.0517  -23.9369   22.9107 C   0  0  0  0  0  0  0  0  0  0  0  0
  -23.0862  -29.8713   21.7817 C   0  0  0  0  0  0  0  0  0  0  0  0
  -21.6109  -12.8049   18.9306 C   0  0  0  0  0  0  0  0  0  0  0  0
  -23.7958  -28.8428   22.6566 C   0  0  0  0  0  0  0  0  0  0  0  0
  -23.0941  -13.1779   18.9604 C   0  0  0  0  0  0  0  0  0  0  0  0
  -20.7445  -13.8844   19.5756 C   0  0  0  0  0  0  0  0  0  0  0  0
  -22.6296  -14.6394   20.9721 C   0  0  0  0  0  0  0  0  0  0  0  0
  -24.6119  -27.8631   21.8048 C   0  0  1  0  0  0  0  0  0  0  0  0
  -22.4354  -24.8497   21.0201 C   0  0  1  0  0  0  0  0  0  0  0  0
  -23.5488  -13.5558   20.3830 C   0  0  2  0  0  0  0  0  0  0  0  0
  -20.5033  -16.6674   28.5830 C   0  0  0  0  0  0  0  0  0  0  0  0
  -14.7141  -24.2620   21.2157 C   0  0  0  0  0  0  0  0  0  0  0  0
  -19.8622  -27.6375   23.6596 C   0  0  0  0  0  0  0  0  0  0  0  0
  -17.4201  -27.0926   23.7430 C   0  0  0  0  0  0  0  0  0  0  0  0
  -18.3938  -28.1379   21.6980 C   0  0  0  0  0  0  0  0  0  0  0  0
  -17.1619  -21.6286   19.9709 C   0  0  0  0  0  0  0  0  0  0  0  0
  -19.4025  -15.5916   24.8070 C   0  0  0  0  0  0  0  0  0  0  0  0
  -20.1225  -14.2777   24.4770 C   0  0  0  0  0  0  0  0  0  0  0  0
  -20.9486  -15.9946   27.2841 C   0  0  2  0  0  0  0  0  0  0  0  0
  -18.9099  -25.7183   22.2189 C   0  0  1  0  0  0  0  0  0  0  0  0
  -16.0500  -23.7392   20.7110 C   0  0  2  0  0  0  0  0  0  0  0  0
  -18.6660  -27.1260   22.8323 C   0  0  0  0  0  0  0  0  0  0  0  0
  -21.2806  -18.7549   24.0196 N   0  0  0  0  0  0  0  0  0  0  0  0
  -25.3199  -15.2688   20.2766 N   0  0  0  0  0  0  0  0  0  0  0  0
  -25.0088  -13.9685   20.4128 N   0  0  0  0  0  0  0  0  0  0  0  0
  -21.1477  -24.7900   21.7147 N   0  0  0  0  0  0  0  0  0  0  0  0
  -21.2277  -14.1954   20.9231 N   0  0  0  0  0  0  0  0  0  0  0  0
  -25.9600  -11.8206   20.7171 N   0  0  0  0  0  0  0  0  0  0  0  0
  -29.5593  -14.5455   20.5895 N   0  0  0  0  0  0  0  0  0  0  0  0
  -23.7437  -26.8783   21.1957 N   0  0  0  0  0  0  0  0  0  0  0  0
  -17.8042  -25.2202   21.4078 N   0  0  0  0  0  0  0  0  0  0  0  0
  -20.8946  -14.3715   23.2580 N   0  0  0  0  0  0  0  0  0  0  0  0
  -15.9268  -22.2706   20.4899 N   0  3  0  0  0  0  0  0  0  0  0  0
  -28.8816  -12.3642   20.7930 O   0  0  0  0  0  0  0  0  0  0  0  0
  -23.6388  -25.3854   22.9797 O   0  0  0  0  0  0  0  0  0  0  0  0
  -20.1831  -26.4073   20.3399 O   0  0  0  0  0  0  0  0  0  0  0  0
  -17.4419  -23.2849   22.6328 O   0  0  0  0  0  0  0  0  0  0  0  0
  -19.1824  -13.6916   21.8931 O   0  0  0  0  0  0  0  0  0  0  0  0
  -22.2275  -15.3909   27.5077 O   0  0  0  0  0  0  0  0  0  0  0  0
  -29.4805  -20.0774   19.9368 O   0  0  0  0  0  0  0  0  0  0  0  0
  -22.8100  -20.0156   25.2494 O   0  0  0  0  0  0  0  0  0  1  0  0
  -27.6142  -24.4012   22.8049 F   0  0  0  0  0  0  0  0  0  0  0  0
  -31.0604  -21.3008   21.8473 F   0  0  0  0  0  0  0  0  0  0  0  0
  1  2  1  0  0  0  0
  1  5  2  0  0  0  0
  2  6  2  0  0  0  0
  3  8  2  0  0  0  0
  3 17  1  0  0  0  0
  4  9  1  0  0  0  0
  4 17  2  0  0  0  0
  5 19  1  0  0  0  0
  6 21  1  0  0  0  0
  7 10  2  0  0  0  0
  7 20  1  0  0  0  0
  8 25  1  0  0  0  0
  9 25  2  0  0  0  0
 10 26  1  0  0  0  0
 11 12  2  0  0  0  0
 11 27  1  0  0  0  0
 12 28  1  0  0  0  0
 13 22  1  0  0  0  0
 13 26  2  0  0  0  0
 14 23  2  0  0  0  0
 14 31  1  0  0  0  0
 15 28  2  0  0  0  0
 15 29  1  0  0  0  0
 16 24  2  0  0  0  0
 16 62  1  0  0  0  0
 17 30  1  0  0  0  0
 18 30  1  0  0  0  0
 18 32  2  0  0  0  0
 18 33  1  0  0  0  0
 19 21  2  0  0  0  0
 19 38  1  0  0  0  0
 20 22  2  0  0  0  0
 20 39  1  0  0  0  0
 21 47  1  0  0  0  0
 22 40  1  0  0  0  0
 23 24  1  0  0  0  0
 23 58  1  0  0  0  0
 24 56  1  0  0  0  0
 25 79  1  0  0  0  0
 26 80  1  0  0  0  0
 27 29  2  0  0  0  0
 27 79  1  0  0  0  0
 28 81  1  0  0  0  0
 29 82  1  0  0  0  0
 30 63  2  0  0  0  0
 31 62  2  0  0  0  0
 31 80  1  0  0  0  0
 32 64  1  0  0  0  0
 32 67  1  0  0  0  0
 33 68  1  0  0  0  0
 33 73  2  0  0  0  0
 34 48  1  0  0  0  0
 34 69  1  0  0  0  0
 34 74  2  0  0  0  0
 35 59  1  0  0  0  0
 35 65  1  0  0  0  0
 35 75  2  0  0  0  0
 36 60  1  0  0  0  0
 36 70  1  0  0  0  0
 36 76  2  0  0  0  0
 37 66  1  0  0  0  0
 37 71  1  0  0  0  0
 37 77  2  0  0  0  0
 38 41  1  0  0  0  0
 39 48  1  0  0  0  0
 40 65  1  0  0  0  0
 41 43  1  0  0  0  0
 42 44  1  0  0  0  0
 42 45  1  0  0  0  0
 43 47  1  0  0  0  0
 44 49  1  0  0  0  0
 45 66  1  0  0  0  0
 46 49  1  0  0  0  0
 46 66  1  0  0  0  0
 47 69  1  0  0  0  0
 48 65  1  0  0  0  0
 49 64  1  0  0  0  0
 50 58  1  0  0  0  0
 51 60  1  0  0  0  0
 52 61  1  0  0  0  0
 53 61  1  0  0  0  0
 54 61  1  0  0  0  0
 55 72  1  0  0  0  0
 56 57  1  0  0  0  0
 57 71  1  0  0  0  0
 58 78  1  0  0  0  0
 59 61  1  0  0  0  0
 59 70  1  0  0  0  0
 60 72  1  0  0  0  0
 63 64  1  0  0  0  0
M  CHG  1  72   1
M  ISO  4  31 101  37 100  71 100  80 101
M  END
> <Batch ID>
0114

> <Smiles>
CNC(C)C(=O)NC(C(=O)N1Cc2cc([101O:1][101c:1]3cc(C(C)O)c(CC[100NH:0][100C:0](=O)N4CCCC(n5nc(-c6ccc(Oc7ccc(F)cc7F)cc6)c(C(N)=O)c5N)C4)cn3)ccc2CC1C(=O)NC1CCCc2ccccc21)C(C)(C)C

> <Shape>
0.195

> <Color>
0.067

> <Negative vol penalty>
0.000

$$$$

  -OEChem-04052320083D

 85 93  0     1  0  0  0  0  0999 V2000
  -21.3863   -9.3009   20.1502 C   0  0  0  0  0  0  0  0  0  0  0  0
  -22.6917   -9.5811   19.7593 C   0  0  0  0  0  0  0  0  0  0  0  0
  -21.4141  -25.4483   23.1430 C   0  0  0  0  0  0  0  0  0  0  0  0
  -21.9517  -25.7555   20.8077 C   0  0  0  0  0  0  0  0  0  0  0  0
  -20.5555  -10.3304   20.5905 C   0  0  0  0  0  0  0  0  0  0  0  0
  -23.1668  -10.8912   19.8074 C   0  0  0  0  0  0  0  0  0  0  0  0
  -29.1715  -14.6122   20.9964 C   0  0  0  0  0  0  0  0  0  0  0  0
  -20.2127  -26.1320   22.9564 C   0  0  0  0  0  0  0  0  0  0  0  0
  -20.7503  -26.4391   20.6210 C   0  0  0  0  0  0  0  0  0  0  0  0
  -29.9581  -15.6034   20.4111 C   0  0  0  0  0  0  0  0  0  0  0  0
  -19.1908  -29.3420   22.6813 C   0  0  0  0  0  0  0  0  0  0  0  0
  -18.8384  -30.3023   23.6296 C   0  0  0  0  0  0  0  0  0  0  0  0
  -28.4580  -17.2890   21.2641 C   0  0  0  0  0  0  0  0  0  0  0  0
  -16.8180  -29.0731   24.1236 C   0  0  0  0  0  0  0  0  0  0  0  0
  -22.2837  -25.2601   22.0687 C   0  0  0  0  0  0  0  0  0  0  0  0
  -23.7454  -23.1703   22.1294 C   0  0  0  0  0  0  0  0  0  0  0  0
  -21.0237  -11.6523   20.6532 C   0  0  0  0  0  0  0  0  0  0  0  0
  -28.0143  -14.9519   21.7119 C   0  0  0  0  0  0  0  0  0  0  0  0
  -22.3410  -11.9395   20.2477 C   0  0  0  0  0  0  0  0  0  0  0  0
  -27.6599  -16.3005   21.8597 C   0  0  0  0  0  0  0  0  0  0  0  0
  -19.8808  -26.6274   21.6954 C   0  0  0  0  0  0  0  0  0  0  0  0
  -29.5998  -16.9419   20.5424 C   0  0  0  0  0  0  0  0  0  0  0  0
  -18.3568  -28.2473   22.4541 C   0  0  0  0  0  0  0  0  0  0  0  0
  -17.6520  -30.1678   24.3507 C   0  0  0  0  0  0  0  0  0  0  0  0
  -17.1704  -28.1128   23.1752 C   0  0  0  0  0  0  0  0  0  0  0  0
  -23.5251  -24.5545   22.2610 C   0  0  0  0  0  0  0  0  0  0  0  0
  -25.0790  -23.0063   22.4140 C   0  0  0  0  0  0  0  0  0  0  0  0
  -22.8266  -22.1262   21.7811 C   0  0  0  0  0  0  0  0  0  0  0  0
  -24.9131  -14.3363   21.3847 C   0  0  0  0  0  0  0  0  0  0  0  0
  -24.7097  -15.8427   24.2503 C   0  0  0  0  0  0  0  0  0  0  0  0
  -26.0719  -18.0543   26.4640 C   0  0  0  0  0  0  0  0  0  0  0  0
  -29.8025  -26.6698   22.0691 C   0  0  0  0  0  0  0  0  0  0  0  0
  -20.0737  -12.7388   21.0911 C   0  0  0  0  0  0  0  0  0  0  0  0
  -27.1912  -13.8725   22.3599 C   0  0  0  0  0  0  0  0  0  0  0  0
  -26.4383  -16.7190   22.6349 C   0  0  0  0  0  0  0  0  0  0  0  0
  -20.7719  -14.0431   21.4675 C   0  0  0  0  0  0  0  0  0  0  0  0
  -28.6315  -24.9527   24.9600 C   0  0  0  0  0  0  0  0  0  0  0  0
  -21.8095  -14.4166   20.4135 C   0  0  0  0  0  0  0  0  0  0  0  0
  -27.2099  -24.5311   24.5842 C   0  0  0  0  0  0  0  0  0  0  0  0
  -29.6993  -21.6039   19.9414 C   0  0  0  0  0  0  0  0  0  0  0  0
  -30.2765  -20.2598   20.3721 C   0  0  0  0  0  0  0  0  0  0  0  0
  -29.3118  -20.6850   17.6160 C   0  0  0  0  0  0  0  0  0  0  0  0
  -28.9858  -26.3209   24.3817 C   0  0  0  0  0  0  0  0  0  0  0  0
  -27.3627  -26.0274   22.5505 C   0  0  0  0  0  0  0  0  0  0  0  0
  -22.9007  -13.3442   20.3092 C   0  0  1  0  0  0  0  0  0  0  0  0
  -25.7520  -14.3000   22.6308 C   0  0  1  0  0  0  0  0  0  0  0  0
  -29.8894  -19.3250   18.0422 C   0  0  1  0  0  0  0  0  0  0  0  0
  -26.9792  -24.6291   23.0642 C   0  0  2  0  0  0  0  0  0  0  0  0
  -29.9054  -21.8213   18.4458 C   0  0  1  0  0  0  0  0  0  0  0  0
  -29.7010  -19.1013   19.5549 C   0  0  1  0  0  0  0  0  0  1  0  0
  -29.2526  -18.2039   17.2163 C   0  0  0  0  0  0  0  0  0  0  0  0
  -25.6572  -19.1079   28.7035 C   0  0  0  0  0  0  0  0  0  0  0  0
  -22.6136  -17.6728   22.9985 C   0  0  0  0  0  0  0  0  0  0  0  0
  -22.9396  -19.2447   24.9196 C   0  0  0  0  0  0  0  0  0  0  0  0
  -22.0943  -16.9340   25.3307 C   0  0  0  0  0  0  0  0  0  0  0  0
  -31.0114  -27.2219   17.2409 C   0  0  0  0  0  0  0  0  0  0  0  0
  -28.5560  -16.9080   27.5929 C   0  0  0  0  0  0  0  0  0  0  0  0
  -29.2634  -25.5444   17.9171 C   0  0  0  0  0  0  0  0  0  0  0  0
  -30.4739  -26.9709   19.6990 C   0  0  0  0  0  0  0  0  0  0  0  0
  -30.0214  -24.3162   18.4150 C   0  0  0  0  0  0  0  0  0  0  0  0
  -24.5179  -17.2725   24.6953 C   0  0  1  0  0  0  0  0  0  0  0  0
  -26.3201  -17.9597   27.9587 C   0  0  2  0  0  0  0  0  0  0  0  0
  -23.0634  -17.7733   24.4697 C   0  0  0  0  0  0  0  0  0  0  0  0
  -29.9115  -26.9067   18.2672 C   0  0  1  0  0  0  0  0  0  0  0  0
  -24.6302  -25.2223   22.6027 N   0  0  0  0  0  0  0  0  0  0  0  0
  -25.5578  -24.2535   22.6884 N   0  0  0  0  0  0  0  0  0  0  0  0
  -25.6624  -15.6264   23.2446 N   0  0  0  0  0  0  0  0  0  0  0  0
  -28.7461  -26.3468   22.9368 N   0  0  0  0  0  0  0  0  0  0  0  0
  -25.8771  -21.9182   22.4539 N   0  0  0  0  0  0  0  0  0  0  0  0
  -21.4930  -22.4693   21.5200 N   0  0  0  0  0  0  0  0  0  0  0  0
  -23.8379  -13.4686   21.4050 N   0  0  0  0  0  0  0  0  0  0  0  0
  -24.9613  -17.3308   26.0840 N   0  0  0  0  0  0  0  0  0  0  0  0
  -29.4914  -26.6652   20.7149 N   0  0  0  0  0  0  0  0  0  0  0  0
  -29.2513  -23.0975   18.0512 N   0  3  0  0  0  0  0  0  0  0  0  0
  -27.7824  -17.9962   28.2442 N   0  3  0  0  0  0  0  0  0  0  0  0
  -23.1742  -20.9224   21.7197 O   0  0  0  0  0  0  0  0  0  0  0  0
  -25.2178  -15.0965   20.4731 O   0  0  0  0  0  0  0  0  0  0  0  0
  -24.0441  -14.9499   24.7807 O   0  0  0  0  0  0  0  0  0  0  0  0
  -26.7891  -18.7078   25.7097 O   0  0  0  0  0  0  0  0  0  0  0  0
  -30.9400  -26.9368   22.4713 O   0  0  0  0  0  0  0  0  0  0  0  0
  -18.7084  -27.2943   21.5129 O   0  0  0  0  0  0  0  0  0  0  0  0
  -30.3655  -17.9113   19.9716 O   0  0  0  0  0  0  0  0  0  1  0  0
  -17.3145  -31.0893   25.2624 F   0  0  0  0  0  0  0  0  0  0  0  0
  -16.3657  -27.0626   22.9622 F   0  0  0  0  0  0  0  0  0  0  0  0
  -28.6646  -28.2089   18.1198 Cl  0  0  0  0  0  0  0  0  0  0  0  0
  1  2  1  0  0  0  0
  1  5  2  0  0  0  0
  2  6  2  0  0  0  0
  3  8  2  0  0  0  0
  3 15  1  0  0  0  0
  4  9  1  0  0  0  0
  4 15  2  0  0  0  0
  5 17  1  0  0  0  0
  6 19  1  0  0  0  0
  7 10  2  0  0  0  0
  7 18  1  0  0  0  0
  8 21  1  0  0  0  0
  9 21  2  0  0  0  0
 10 22  1  0  0  0  0
 11 12  2  0  0  0  0
 11 23  1  0  0  0  0
 12 24  1  0  0  0  0
 13 20  1  0  0  0  0
 13 22  2  0  0  0  0
 14 24  2  0  0  0  0
 14 25  1  0  0  0  0
 15 26  1  0  0  0  0
 16 26  1  0  0  0  0
 16 27  2  0  0  0  0
 16 28  1  0  0  0  0
 17 19  2  0  0  0  0
 17 33  1  0  0  0  0
 18 20  2  0  0  0  0
 18 34  1  0  0  0  0
 19 45  1  0  0  0  0
 20 35  1  0  0  0  0
 21 81  1  0  0  0  0
 22 82  1  0  0  0  0
 23 25  2  0  0  0  0
 23 81  1  0  0  0  0
 24 83  1  0  0  0  0
 25 84  1  0  0  0  0
 26 65  2  0  0  0  0
 27 66  1  0  0  0  0
 27 69  1  0  0  0  0
 28 70  1  0  0  0  0
 28 76  2  0  0  0  0
 29 46  1  0  0  0  0
 29 71  1  0  0  0  0
 29 77  2  0  0  0  0
 30 61  1  0  0  0  0
 30 67  1  0  0  0  0
 30 78  2  0  0  0  0
 31 62  1  0  0  0  0
 31 72  1  0  0  0  0
 31 79  2  0  0  0  0
 32 68  1  0  0  0  0
 32 73  1  0  0  0  0
 32 80  2  0  0  0  0
 33 36  1  0  0  0  0
 34 46  1  0  0  0  0
 35 67  1  0  0  0  0
 36 38  1  0  0  0  0
 37 39  1  0  0  0  0
 37 43  1  0  0  0  0
 38 45  1  0  0  0  0
 39 48  1  0  0  0  0
 40 41  1  0  0  0  0
 40 49  1  0  0  0  0
 41 50  1  0  0  0  0
 42 47  1  0  0  0  0
 42 49  1  0  0  0  0
 43 68  1  0  0  0  0
 44 48  1  0  0  0  0
 44 68  1  0  0  0  0
 45 71  1  0  0  0  0
 46 67  1  0  0  0  0
 47 50  1  0  0  0  0
 47 51  1  0  0  0  0
 48 66  1  0  0  0  0
 49 74  1  0  0  0  0
 50 82  1  0  0  0  0
 52 62  1  0  0  0  0
 53 63  1  0  0  0  0
 54 63  1  0  0  0  0
 55 63  1  0  0  0  0
 56 64  1  0  0  0  0
 57 75  1  0  0  0  0
 58 60  1  0  0  0  0
 58 64  1  0  0  0  0
 59 64  1  0  0  0  0
 59 73  1  0  0  0  0
 60 74  1  0  0  0  0
 61 63  1  0  0  0  0
 61 72  1  0  0  0  0
 62 75  1  0  0  0  0
 64 85  1  0  0  0  0
 65 66  1  0  0  0  0
M  CHG  2  74   1  75   1
M  ISO  4  32 100  50 101  73 100  82 101
M  END
> <Batch ID>
0114

> <Smiles>
CNC(C)C(=O)NC(C(=O)N1Cc2cc([101O:1][101CH:1]3CCC(NCCC(C)(Cl)C[100NH:0][100C:0](=O)N4CCCC(n5nc(-c6ccc(Oc7ccc(F)cc7F)cc6)c(C(N)=O)c5N)C4)CC3C)ccc2CC1C(=O)NC1CCCc2ccccc21)C(C)(C)C

> <Shape>
0.207

> <Color>
0.054

> <Negative vol penalty>
0.000

$$$$

  -OEChem-04052320083D

 84 93  0     1  0  0  0  0  0999 V2000
  -32.4935  -33.5521   19.0676 C   0  0  0  0  0  0  0  0  0  0  0  0
  -32.7575  -32.1909   18.9534 C   0  0  0  0  0  0  0  0  0  0  0  0
  -23.1955   -9.7893   19.9507 C   0  0  0  0  0  0  0  0  0  0  0  0
  -23.8388   -9.9174   22.2760 C   0  0  0  0  0  0  0  0  0  0  0  0
  -31.3681  -33.9865   19.7666 C   0  0  0  0  0  0  0  0  0  0  0  0
  -31.8966  -31.2634   19.5392 C   0  0  0  0  0  0  0  0  0  0  0  0
  -30.4518  -25.7132   17.3913 C   0  0  0  0  0  0  0  0  0  0  0  0
  -22.4854   -8.6175   20.2118 C   0  0  0  0  0  0  0  0  0  0  0  0
  -23.1286   -8.7456   22.5371 C   0  0  0  0  0  0  0  0  0  0  0  0
  -30.9224  -24.4371   17.6978 C   0  0  0  0  0  0  0  0  0  0  0  0
  -19.9078   -7.8411   23.0149 C   0  0  0  0  0  0  0  0  0  0  0  0
  -19.0953   -7.8165   24.1484 C   0  0  0  0  0  0  0  0  0  0  0  0
  -31.1705  -18.0867   19.3876 C   0  0  0  0  0  0  0  0  0  0  0  0
  -29.0767  -24.1286   19.2202 C   0  0  0  0  0  0  0  0  0  0  0  0
  -31.3169  -20.1283   21.2832 C   0  0  0  0  0  0  0  0  0  0  0  0
  -20.3725   -5.9617   25.0235 C   0  0  0  0  0  0  0  0  0  0  0  0
  -23.8723  -10.4392   20.9828 C   0  0  0  0  0  0  0  0  0  0  0  0
  -24.1215  -12.9696   20.7754 C   0  0  0  0  0  0  0  0  0  0  0  0
  -30.4878  -33.0636   20.3530 C   0  0  0  0  0  0  0  0  0  0  0  0
  -29.2942  -26.2116   18.0062 C   0  0  0  0  0  0  0  0  0  0  0  0
  -30.7591  -31.6860   20.2478 C   0  0  0  0  0  0  0  0  0  0  0  0
  -31.8764  -17.8875   20.5740 C   0  0  0  0  0  0  0  0  0  0  0  0
  -28.5921  -25.4103   18.9179 C   0  0  0  0  0  0  0  0  0  0  0  0
  -30.5379  -19.3068   19.1488 C   0  0  0  0  0  0  0  0  0  0  0  0
  -30.6110  -20.3275   20.0967 C   0  0  0  0  0  0  0  0  0  0  0  0
  -22.4519   -8.0957   21.5049 C   0  0  0  0  0  0  0  0  0  0  0  0
  -30.2365  -23.6457   18.6145 C   0  0  0  0  0  0  0  0  0  0  0  0
  -20.9526   -6.9261   22.8856 C   0  0  0  0  0  0  0  0  0  0  0  0
  -31.9495  -18.9082   21.5218 C   0  0  0  0  0  0  0  0  0  0  0  0
  -19.3277   -6.8768   25.1527 C   0  0  0  0  0  0  0  0  0  0  0  0
  -21.1850   -5.9864   23.8899 C   0  0  0  0  0  0  0  0  0  0  0  0
  -24.6066  -11.6494   20.7137 C   0  0  0  0  0  0  0  0  0  0  0  0
  -25.2006  -13.7481   20.4348 C   0  0  0  0  0  0  0  0  0  0  0  0
  -22.8126  -13.4492   21.1106 C   0  0  0  0  0  0  0  0  0  0  0  0
  -28.6489  -28.6713   19.9133 C   0  0  0  0  0  0  0  0  0  0  0  0
  -25.5835  -27.7052   19.4751 C   0  0  0  0  0  0  0  0  0  0  0  0
  -23.4254  -25.1795   18.6937 C   0  0  0  0  0  0  0  0  0  0  0  0
  -30.5135  -14.9882   21.0117 C   0  0  0  0  0  0  0  0  0  0  0  0
  -29.3098  -33.5824   21.1390 C   0  0  0  0  0  0  0  0  0  0  0  0
  -28.7847  -27.5799   17.6448 C   0  0  0  0  0  0  0  0  0  0  0  0
  -27.3330  -25.8910   19.5903 C   0  0  0  0  0  0  0  0  0  0  0  0
  -28.2449  -32.5230   21.4109 C   0  0  0  0  0  0  0  0  0  0  0  0
  -29.7051  -12.4749   18.5135 C   0  0  0  0  0  0  0  0  0  0  0  0
  -28.8900  -31.2321   21.9049 C   0  0  0  0  0  0  0  0  0  0  0  0
  -28.2537  -12.1483   18.8717 C   0  0  0  0  0  0  0  0  0  0  0  0
  -33.5186  -15.9508   19.7244 C   0  0  0  0  0  0  0  0  0  0  0  0
  -30.5270  -12.7430   19.7688 C   0  0  0  0  0  0  0  0  0  0  0  0
  -32.8623  -14.5827   19.9014 C   0  0  0  0  0  0  0  0  0  0  0  0
  -28.5476  -13.4962   21.0073 C   0  0  0  0  0  0  0  0  0  0  0  0
  -32.5917  -16.4950   20.8292 C   0  0  2  0  0  0  0  0  0  0  0  0
  -29.8356  -30.6484   20.8483 C   0  0  1  0  0  0  0  0  0  0  0  0
  -27.8824  -28.1838   18.7165 C   0  0  1  0  0  0  0  0  0  0  0  0
  -27.6453  -13.2272   19.7878 C   0  0  2  0  0  0  0  0  0  0  0  0
  -29.7886  -19.4976   17.8709 C   0  0  0  0  0  0  0  0  0  0  0  0
  -20.9771  -24.6837   18.4550 C   0  0  0  0  0  0  0  0  0  0  0  0
  -25.3053  -27.6285   22.5127 C   0  0  0  0  0  0  0  0  0  0  0  0
  -23.2341  -26.2532   22.2185 C   0  0  0  0  0  0  0  0  0  0  0  0
  -23.3282  -28.5735   21.3076 C   0  0  0  0  0  0  0  0  0  0  0  0
  -23.7273  -24.4810   15.8337 C   0  0  0  0  0  0  0  0  0  0  0  0
  -32.6617  -19.8223   23.5986 C   0  0  0  0  0  0  0  0  0  0  0  0
  -29.9435  -21.6429   19.8629 C   0  0  0  0  0  0  0  0  0  1  0  0
  -24.6553  -26.7430   20.1761 C   0  0  1  0  0  0  0  0  0  0  0  0
  -22.2459  -25.1215   17.7399 C   0  0  2  0  0  0  0  0  0  0  0  0
  -24.1555  -27.2909   21.5427 C   0  0  0  0  0  0  0  0  0  0  0  0
  -25.8935  -11.5889   20.3615 N   0  0  0  0  0  0  0  0  0  0  0  0
  -26.2263  -12.8807   20.1987 N   0  0  0  0  0  0  0  0  0  0  0  0
  -26.8784  -27.2383   19.2086 N   0  0  0  0  0  0  0  0  0  0  0  0
  -29.9139  -13.8068   20.5689 N   0  0  0  0  0  0  0  0  0  0  0  0
  -31.8157  -15.2514   20.6526 N   0  0  0  0  0  0  0  0  0  0  0  0
  -25.3626  -15.0831   20.3171 N   0  0  0  0  0  0  0  0  0  0  0  0
  -21.8211  -12.5135   21.4357 N   0  0  0  0  0  0  0  0  0  0  0  0
  -29.0817  -29.9795   19.8096 N   0  0  0  0  0  0  0  0  0  0  0  0
  -23.5889  -26.4403   19.2277 N   0  0  0  0  0  0  0  0  0  0  0  0
  -22.5193  -24.1584   16.6360 N   0  3  0  0  0  0  0  0  0  0  0  0
  -22.5262  -14.6705   21.1056 O   0  0  0  0  0  0  0  0  0  0  0  0
  -28.8328  -27.9169   20.8614 O   0  0  0  0  0  0  0  0  0  0  0  0
  -25.1725  -28.8271   19.1686 O   0  0  0  0  0  0  0  0  0  0  0  0
  -24.1290  -24.2032   18.9432 O   0  0  0  0  0  0  0  0  0  0  0  0
  -29.8805  -15.8123   21.6866 O   0  0  0  0  0  0  0  0  0  0  0  0
  -21.7588   -6.9524   21.7600 O   0  0  0  0  0  0  0  0  0  0  0  0
  -32.6367  -18.7281   22.6840 O   0  0  0  0  0  0  0  0  0  0  0  0
  -30.6973  -22.3912   18.9180 O   0  0  0  0  0  0  0  0  0  1  0  0
  -18.5483   -6.8542   26.2419 F   0  0  0  0  0  0  0  0  0  0  0  0
  -22.1879   -5.1055   23.7719 F   0  0  0  0  0  0  0  0  0  0  0  0
  1  2  1  0  0  0  0
  1  5  2  0  0  0  0
  2  6  2  0  0  0  0
  3  8  2  0  0  0  0
  3 17  1  0  0  0  0
  4  9  1  0  0  0  0
  4 17  2  0  0  0  0
  5 19  1  0  0  0  0
  6 21  1  0  0  0  0
  7 10  2  0  0  0  0
  7 20  1  0  0  0  0
  8 26  1  0  0  0  0
  9 26  2  0  0  0  0
 10 27  1  0  0  0  0
 11 12  2  0  0  0  0
 11 28  1  0  0  0  0
 12 30  1  0  0  0  0
 13 22  2  0  0  0  0
 13 24  1  0  0  0  0
 14 23  1  0  0  0  0
 14 27  2  0  0  0  0
 15 25  1  0  0  0  0
 15 29  2  0  0  0  0
 16 30  2  0  0  0  0
 16 31  1  0  0  0  0
 17 32  1  0  0  0  0
 18 32  1  0  0  0  0
 18 33  2  0  0  0  0
 18 34  1  0  0  0  0
 19 21  2  0  0  0  0
 19 39  1  0  0  0  0
 20 23  2  0  0  0  0
 20 40  1  0  0  0  0
 21 51  1  0  0  0  0
 22 29  1  0  0  0  0
 22 50  1  0  0  0  0
 23 41  1  0  0  0  0
 24 25  2  0  0  0  0
 24 54  1  0  0  0  0
 25 61  1  0  0  0  0
 26 80  1  0  0  0  0
 27 82  1  0  0  0  0
 28 31  2  0  0  0  0
 28 80  1  0  0  0  0
 29 81  1  0  0  0  0
 30 83  1  0  0  0  0
 31 84  1  0  0  0  0
 32 65  2  0  0  0  0
 33 66  1  0  0  0  0
 33 70  1  0  0  0  0
 34 71  1  0  0  0  0
 34 75  2  0  0  0  0
 35 52  1  0  0  0  0
 35 72  1  0  0  0  0
 35 76  2  0  0  0  0
 36 62  1  0  0  0  0
 36 67  1  0  0  0  0
 36 77  2  0  0  0  0
 37 63  1  0  0  0  0
 37 73  1  0  0  0  0
 37 78  2  0  0  0  0
 38 68  1  0  0  0  0
 38 69  1  0  0  0  0
 38 79  2  0  0  0  0
 39 42  1  0  0  0  0
 40 52  1  0  0  0  0
 41 67  1  0  0  0  0
 42 44  1  0  0  0  0
 43 45  1  0  0  0  0
 43 47  1  0  0  0  0
 44 51  1  0  0  0  0
 45 53  1  0  0  0  0
 46 48  1  0  0  0  0
 46 50  1  0  0  0  0
 47 68  1  0  0  0  0
 48 69  1  0  0  0  0
 49 53  1  0  0  0  0
 49 68  1  0  0  0  0
 50 69  1  0  0  0  0
 51 72  1  0  0  0  0
 52 67  1  0  0  0  0
 53 66  1  0  0  0  0
 55 63  1  0  0  0  0
 56 64  1  0  0  0  0
 57 64  1  0  0  0  0
 58 64  1  0  0  0  0
 59 74  1  0  0  0  0
 60 81  1  0  0  0  0
 61 82  1  0  0  0  0
 62 64  1  0  0  0  0
 62 73  1  0  0  0  0
 63 74  1  0  0  0  0
 65 66  1  0  0  0  0
M  CHG  1  74   1
M  ISO  4  38 100  61 101  69 100  82 101
M  END
> <Batch ID>
0114

> <Smiles>
CNC(C)C(=O)NC(C(=O)N1Cc2cc([101O:1][101CH2:1]c3cc(OC)c(C4CC[100N:0]4[100C:0](=O)N4CCCC(n5nc(-c6ccc(Oc7ccc(F)cc7F)cc6)c(C(N)=O)c5N)C4)cc3C)ccc2CC1C(=O)NC1CCCc2ccccc21)C(C)(C)C

> <Shape>
0.273

> <Color>
0.177

> <Negative vol penalty>
0.000

$$$$

  -OEChem-04052320083D

 80 88  0     1  0  0  0  0  0999 V2000
  -19.9309  -33.7380   24.2007 C   0  0  0  0  0  0  0  0  0  0  0  0
  -21.2365  -33.4668   23.8043 C   0  0  0  0  0  0  0  0  0  0  0  0
  -24.1280  -13.1971   20.3769 C   0  0  0  0  0  0  0  0  0  0  0  0
  -26.2714  -13.0303   21.4793 C   0  0  0  0  0  0  0  0  0  0  0  0
  -19.0666  -32.6897   24.5138 C   0  0  0  0  0  0  0  0  0  0  0  0
  -21.6790  -32.1470   23.7218 C   0  0  0  0  0  0  0  0  0  0  0  0
  -25.6523  -29.8426   19.6711 C   0  0  0  0  0  0  0  0  0  0  0  0
  -24.1045  -11.8121   20.2131 C   0  0  0  0  0  0  0  0  0  0  0  0
  -26.2479  -11.6453   21.3154 C   0  0  0  0  0  0  0  0  0  0  0  0
  -27.0174  -29.5697   19.7472 C   0  0  0  0  0  0  0  0  0  0  0  0
  -23.3121   -8.2854   19.8260 C   0  0  0  0  0  0  0  0  0  0  0  0
  -22.1233   -7.6177   20.1202 C   0  0  0  0  0  0  0  0  0  0  0  0
  -26.5216  -27.2730   20.2936 C   0  0  0  0  0  0  0  0  0  0  0  0
  -22.2343   -8.4225   22.3955 C   0  0  0  0  0  0  0  0  0  0  0  0
  -25.2115  -13.8062   21.0100 C   0  0  0  0  0  0  0  0  0  0  0  0
  -24.7338  -15.9732   22.2685 C   0  0  0  0  0  0  0  0  0  0  0  0
  -19.4958  -31.3560   24.4258 C   0  0  0  0  0  0  0  0  0  0  0  0
  -24.7099  -28.8337   19.9167 C   0  0  0  0  0  0  0  0  0  0  0  0
  -20.8200  -31.0799   24.0353 C   0  0  0  0  0  0  0  0  0  0  0  0
  -25.1451  -27.5351   20.2174 C   0  0  0  0  0  0  0  0  0  0  0  0
  -25.1644  -11.0362   20.6823 C   0  0  0  0  0  0  0  0  0  0  0  0
  -27.4522  -28.2854   20.0614 C   0  0  0  0  0  0  0  0  0  0  0  0
  -23.9620   -9.0217   20.8167 C   0  0  0  0  0  0  0  0  0  0  0  0
  -21.5844   -7.6862   21.4049 C   0  0  0  0  0  0  0  0  0  0  0  0
  -23.4231   -9.0902   22.1014 C   0  0  0  0  0  0  0  0  0  0  0  0
  -25.2366  -15.2369   21.1790 C   0  0  0  0  0  0  0  0  0  0  0  0
  -25.0002  -17.2825   21.9503 C   0  0  0  0  0  0  0  0  0  0  0  0
  -24.0841  -15.5145   23.4615 C   0  0  0  0  0  0  0  0  0  0  0  0
  -22.4076  -28.3889   22.0627 C   0  0  0  0  0  0  0  0  0  0  0  0
  -21.7390  -25.7953   20.2328 C   0  0  0  0  0  0  0  0  0  0  0  0
  -22.8405  -23.4689   17.9919 C   0  0  0  0  0  0  0  0  0  0  0  0
  -28.4499  -21.1357   20.1616 C   0  0  0  0  0  0  0  0  0  0  0  0
  -18.5397  -30.2582   24.8199 C   0  0  0  0  0  0  0  0  0  0  0  0
  -23.2412  -29.1379   19.8043 C   0  0  0  0  0  0  0  0  0  0  0  0
  -24.1740  -26.4118   20.4698 C   0  0  0  0  0  0  0  0  0  0  0  0
  -18.9734  -28.8735   24.3459 C   0  0  0  0  0  0  0  0  0  0  0  0
  -26.5802  -19.3646   17.6191 C   0  0  0  0  0  0  0  0  0  0  0  0
  -20.4507  -28.6441   24.6487 C   0  0  0  0  0  0  0  0  0  0  0  0
  -26.0203  -18.1866   18.4184 C   0  0  0  0  0  0  0  0  0  0  0  0
  -30.8369  -23.4574   20.0537 C   0  0  0  0  0  0  0  0  0  0  0  0
  -27.9944  -19.7168   18.0707 C   0  0  0  0  0  0  0  0  0  0  0  0
  -27.5636  -18.8272   20.3283 C   0  0  0  0  0  0  0  0  0  0  0  0
  -31.1490  -24.9415   20.1657 C   0  0  0  0  0  0  0  0  0  0  0  0
  -29.1117  -24.5641   18.8654 C   0  0  0  0  0  0  0  0  0  0  0  0
  -21.3296  -29.6605   23.9098 C   0  0  1  0  0  0  0  0  0  0  0  0
  -22.3667  -28.1566   20.5787 C   0  0  1  0  0  0  0  0  0  0  0  0
  -26.1275  -18.4367   19.9344 C   0  0  2  0  0  0  0  0  0  0  0  0
  -29.3344  -23.4190   19.8334 C   0  0  1  0  0  0  0  0  0  0  0  0
  -22.0749  -21.4530   16.7084 C   0  0  0  0  0  0  0  0  0  0  0  0
  -31.8298  -28.7470   18.0234 C   0  0  0  0  0  0  0  0  0  0  0  0
  -21.9187  -24.1133   22.7722 C   0  0  0  0  0  0  0  0  0  0  0  0
  -22.0977  -22.0766   21.3271 C   0  0  0  0  0  0  0  0  0  0  0  0
  -20.0441  -23.4901   21.2386 C   0  0  0  0  0  0  0  0  0  0  0  0
  -23.3631  -24.7821   15.3916 C   0  0  0  0  0  0  0  0  0  0  0  0
  -30.5200  -26.5911   18.3498 C   0  0  0  0  0  0  0  0  0  0  0  0
  -29.6504  -28.7859   19.3041 C   0  0  0  0  0  0  0  0  0  1  0  0
  -22.1887  -24.3543   20.2158 C   0  0  1  0  0  0  0  0  0  0  0  0
  -22.2457  -22.9640   16.6897 C   0  0  2  0  0  0  0  0  0  0  0  0
  -30.8886  -27.9572   18.9398 C   0  0  2  0  0  0  0  0  0  0  0  0
  -21.5809  -23.5300   21.3856 C   0  0  0  0  0  0  0  0  0  0  0  0
  -25.7811  -16.0140   20.2389 N   0  0  0  0  0  0  0  0  0  0  0  0
  -25.6219  -17.2521   20.7367 N   0  0  0  0  0  0  0  0  0  0  0  0
  -22.7484  -26.7608   20.3544 N   0  0  0  0  0  0  0  0  0  0  0  0
  -28.0240  -19.9610   19.5197 N   0  0  0  0  0  0  0  0  0  0  0  0
  -24.7610  -18.4453   22.5930 N   0  0  0  0  0  0  0  0  0  0  0  0
  -23.8899  -14.1367   23.6290 N   0  0  0  0  0  0  0  0  0  0  0  0
  -21.4659  -29.2925   22.5168 N   0  0  0  0  0  0  0  0  0  0  0  0
  -21.8623  -23.8405   18.8900 N   0  0  0  0  0  0  0  0  0  0  0  0
  -28.8769  -22.1592   19.3244 N   0  0  0  0  0  0  0  0  0  0  0  0
  -30.0400  -25.6373   19.3960 N   0  3  2  0  0  0  0  0  0  0  0  0
  -23.1281  -23.3231   15.5436 N   0  3  0  0  0  0  0  0  0  0  0  0
  -23.6728  -16.3044   24.3449 O   0  0  0  0  0  0  0  0  0  0  0  0
  -23.2315  -27.7915   22.7453 O   0  0  0  0  0  0  0  0  0  0  0  0
  -20.5372  -26.0549   20.1344 O   0  0  0  0  0  0  0  0  0  0  0  0
  -24.0515  -23.5244   18.1938 O   0  0  0  0  0  0  0  0  0  0  0  0
  -28.4449  -21.2652   21.3906 O   0  0  0  0  0  0  0  0  0  0  0  0
  -25.1417   -9.6847   20.5228 O   0  0  0  0  0  0  0  0  0  0  0  0
  -28.7840  -28.0164   20.1370 O   0  0  0  0  0  0  0  0  0  1  0  0
  -20.4420   -7.0462   21.6868 F   0  0  0  0  0  0  0  0  0  0  0  0
  -24.0423   -9.7969   23.0569 F   0  0  0  0  0  0  0  0  0  0  0  0
  1  2  1  0  0  0  0
  1  5  2  0  0  0  0
  2  6  2  0  0  0  0
  3  8  2  0  0  0  0
  3 15  1  0  0  0  0
  4  9  1  0  0  0  0
  4 15  2  0  0  0  0
  5 17  1  0  0  0  0
  6 19  1  0  0  0  0
  7 10  2  0  0  0  0
  7 18  1  0  0  0  0
  8 21  1  0  0  0  0
  9 21  2  0  0  0  0
 10 22  1  0  0  0  0
 11 12  2  0  0  0  0
 11 23  1  0  0  0  0
 12 24  1  0  0  0  0
 13 20  1  0  0  0  0
 13 22  2  0  0  0  0
 14 24  2  0  0  0  0
 14 25  1  0  0  0  0
 15 26  1  0  0  0  0
 16 26  1  0  0  0  0
 16 27  2  0  0  0  0
 16 28  1  0  0  0  0
 17 19  2  0  0  0  0
 17 33  1  0  0  0  0
 18 20  2  0  0  0  0
 18 34  1  0  0  0  0
 19 45  1  0  0  0  0
 20 35  1  0  0  0  0
 21 77  1  0  0  0  0
 22 78  1  0  0  0  0
 23 25  2  0  0  0  0
 23 77  1  0  0  0  0
 24 79  1  0  0  0  0
 25 80  1  0  0  0  0
 26 61  2  0  0  0  0
 27 62  1  0  0  0  0
 27 65  1  0  0  0  0
 28 66  1  0  0  0  0
 28 72  2  0  0  0  0
 29 46  1  0  0  0  0
 29 67  1  0  0  0  0
 29 73  2  0  0  0  0
 30 57  1  0  0  0  0
 30 63  1  0  0  0  0
 30 74  2  0  0  0  0
 31 58  1  0  0  0  0
 31 68  1  0  0  0  0
 31 75  2  0  0  0  0
 32 64  1  0  0  0  0
 32 69  1  0  0  0  0
 32 76  2  0  0  0  0
 33 36  1  0  0  0  0
 34 46  1  0  0  0  0
 35 63  1  0  0  0  0
 36 38  1  0  0  0  0
 37 39  1  0  0  0  0
 37 41  1  0  0  0  0
 38 45  1  0  0  0  0
 39 47  1  0  0  0  0
 40 43  1  0  0  0  0
 40 48  1  0  0  0  0
 41 64  1  0  0  0  0
 42 47  1  0  0  0  0
 42 64  1  0  0  0  0
 43 70  1  0  0  0  0
 44 48  1  0  0  0  0
 44 70  1  0  0  0  0
 45 67  1  0  0  0  0
 46 63  1  0  0  0  0
 47 62  1  0  0  0  0
 48 69  1  0  0  0  0
 49 58  1  0  0  0  0
 50 59  1  0  0  0  0
 51 60  1  0  0  0  0
 52 60  1  0  0  0  0
 53 60  1  0  0  0  0
 54 71  1  0  0  0  0
 55 59  1  0  0  0  0
 55 70  1  0  0  0  0
 56 59  1  0  0  0  0
 56 78  1  0  0  0  0
 57 60  1  0  0  0  0
 57 68  1  0  0  0  0
 58 71  1  0  0  0  0
 61 62  1  0  0  0  0
M  CHG  2  70   1  71   1
M  ISO  4  32 100  56 101  69 100  78 101
M  END
> <Batch ID>
0114

> <Smiles>
CNC(C)C(=O)NC(C(=O)N1Cc2cc([101O:1][101CH2:1]C(C)CN3CCC([100NH:0][100C:0](=O)N4CCCC(n5nc(-c6ccc(Oc7ccc(F)cc7F)cc6)c(C(N)=O)c5N)C4)C3)ccc2CC1C(=O)NC1CCCc2ccccc21)C(C)(C)C

> <Shape>
0.232

> <Color>
0.077

> <Negative vol penalty>
0.000

$$$$

  -OEChem-04052320083D

 82 90  0     1  0  0  0  0  0999 V2000
  -28.2125  -31.3896   25.6716 C   0  0  0  0  0  0  0  0  0  0  0  0
  -27.5259  -30.2180   25.3695 C   0  0  0  0  0  0  0  0  0  0  0  0
  -23.8173   -9.4246   20.1107 C   0  0  0  0  0  0  0  0  0  0  0  0
  -24.3051   -9.8365   22.4408 C   0  0  0  0  0  0  0  0  0  0  0  0
  -29.0709  -31.9557   24.7300 C   0  0  0  0  0  0  0  0  0  0  0  0
  -27.6964  -29.6124   24.1251 C   0  0  0  0  0  0  0  0  0  0  0  0
  -28.3023  -24.5967   24.4722 C   0  0  0  0  0  0  0  0  0  0  0  0
  -23.3644   -8.1451   20.4317 C   0  0  0  0  0  0  0  0  0  0  0  0
  -23.8521   -8.5569   22.7618 C   0  0  0  0  0  0  0  0  0  0  0  0
  -27.1567  -23.8298   24.6803 C   0  0  0  0  0  0  0  0  0  0  0  0
  -20.8823   -7.0038   23.1959 C   0  0  0  0  0  0  0  0  0  0  0  0
  -20.0405   -6.8742   24.3005 C   0  0  0  0  0  0  0  0  0  0  0  0
  -27.0994  -23.2883   22.3303 C   0  0  0  0  0  0  0  0  0  0  0  0
  -27.2719  -19.9782   21.9956 C   0  0  0  0  0  0  0  0  0  0  0  0
  -21.6434   -5.4016   25.3492 C   0  0  0  0  0  0  0  0  0  0  0  0
  -26.7587  -19.6323   24.1604 C   0  0  0  0  0  0  0  0  0  0  0  0
  -24.2878  -10.2704   21.1153 C   0  0  0  0  0  0  0  0  0  0  0  0
  -23.9961  -12.7759   20.7344 C   0  0  0  0  0  0  0  0  0  0  0  0
  -29.2594  -31.3515   23.4770 C   0  0  0  0  0  0  0  0  0  0  0  0
  -28.8497  -24.7242   23.1874 C   0  0  0  0  0  0  0  0  0  0  0  0
  -28.5570  -30.1717   23.1653 C   0  0  0  0  0  0  0  0  0  0  0  0
  -28.2535  -24.0553   22.1089 C   0  0  0  0  0  0  0  0  0  0  0  0
  -26.3831  -20.3377   23.0386 C   0  0  0  0  0  0  0  0  0  0  0  0
  -23.3817   -7.7112   21.7572 C   0  0  0  0  0  0  0  0  0  0  0  0
  -26.5534  -23.1779   23.6089 C   0  0  0  0  0  0  0  0  0  0  0  0
  -22.1046   -6.3323   23.1679 C   0  0  0  0  0  0  0  0  0  0  0  0
  -20.4210   -6.0731   25.3772 C   0  0  0  0  0  0  0  0  0  0  0  0
  -22.4851   -5.5313   24.2445 C   0  0  0  0  0  0  0  0  0  0  0  0
  -24.7564  -11.5921   20.7842 C   0  0  0  0  0  0  0  0  0  0  0  0
  -28.1635  -19.0638   22.5118 C   0  0  0  0  0  0  0  0  0  0  0  0
  -24.8974  -13.7479   20.3747 C   0  0  0  0  0  0  0  0  0  0  0  0
  -22.6000  -12.9787   20.9903 C   0  0  0  0  0  0  0  0  0  0  0  0
  -29.3594  -27.1494   21.1969 C   0  0  0  0  0  0  0  0  0  0  0  0
  -30.8599  -24.8777   19.4333 C   0  0  0  0  0  0  0  0  0  0  0  0
  -31.2159  -21.5714   18.6663 C   0  0  0  0  0  0  0  0  0  0  0  0
  -29.8990  -16.1725   20.8759 C   0  0  0  0  0  0  0  0  0  0  0  0
  -30.1613  -32.0262   22.4740 C   0  0  0  0  0  0  0  0  0  0  0  0
  -30.1012  -25.5333   22.9841 C   0  0  0  0  0  0  0  0  0  0  0  0
  -28.8136  -24.1436   20.7136 C   0  0  0  0  0  0  0  0  0  0  0  0
  -30.5735  -31.1184   21.3180 C   0  0  0  0  0  0  0  0  0  0  0  0
  -29.6538  -13.3684   18.6956 C   0  0  0  0  0  0  0  0  0  0  0  0
  -29.3621  -30.3737   20.7660 C   0  0  0  0  0  0  0  0  0  0  0  0
  -28.2986  -12.7509   19.0449 C   0  0  0  0  0  0  0  0  0  0  0  0
  -30.3544  -13.9280   19.9317 C   0  0  0  0  0  0  0  0  0  0  0  0
  -28.1949  -14.2609   21.0717 C   0  0  0  0  0  0  0  0  0  0  0  0
  -28.7346  -29.4716   21.8355 C   0  0  1  0  0  0  0  0  0  0  0  0
  -30.2765  -26.0115   21.5460 C   0  0  1  0  0  0  0  0  0  0  0  0
  -27.4254  -13.7329   19.8488 C   0  0  2  0  0  0  0  0  0  0  0  0
  -23.8983  -20.6686   23.2824 C   0  0  0  0  0  0  0  0  0  0  0  0
  -32.4939  -20.0256   17.1580 C   0  0  0  0  0  0  0  0  0  0  0  0
  -27.6199  -16.8469   25.2367 C   0  0  0  0  0  0  0  0  0  0  0  0
  -29.1687  -18.7340   25.9049 C   0  0  0  0  0  0  0  0  0  0  0  0
  -29.0935  -25.7092   17.0885 C   0  0  0  0  0  0  0  0  0  0  0  0
  -29.7171  -23.5684   15.9498 C   0  0  0  0  0  0  0  0  0  0  0  0
  -31.4777  -25.2519   16.4877 C   0  0  0  0  0  0  0  0  0  0  0  0
  -32.4414  -20.1586   20.9600 C   0  0  0  0  0  0  0  0  0  0  0  0
  -29.2927  -18.3687   21.8599 C   0  0  0  0  0  0  0  0  0  0  0  0
  -25.2345  -21.3153   22.9400 C   0  0  1  0  0  0  0  0  0  1  0  0
  -30.4367  -23.9063   18.3580 C   0  0  1  0  0  0  0  0  0  0  0  0
  -32.4492  -20.6981   18.5212 C   0  0  2  0  0  0  0  0  0  0  0  0
  -28.5284  -17.9740   24.7417 C   0  0  0  0  0  0  0  0  0  0  0  0
  -30.1693  -24.6087   16.9969 C   0  0  0  0  0  0  0  0  0  0  0  0
  -26.0417  -11.7916   20.4804 N   0  0  0  0  0  0  0  0  0  0  0  0
  -27.8417  -18.8609   23.8284 N   0  0  0  0  0  0  0  0  0  0  0  0
  -26.0960  -13.1120   20.2361 N   0  0  0  0  0  0  0  0  0  0  0  0
  -30.0350  -24.9519   20.5646 N   0  0  0  0  0  0  0  0  0  0  0  0
  -29.4733  -14.8534   20.6481 N   0  0  0  0  0  0  0  0  0  0  0  0
  -24.7737  -15.0760   20.1666 N   0  0  0  0  0  0  0  0  0  0  0  0
  -21.8187  -11.8717   21.3488 N   0  0  0  0  0  0  0  0  0  0  0  0
  -29.5148  -28.2637   21.9991 N   0  0  0  0  0  0  0  0  0  0  0  0
  -31.4703  -22.8780   18.3069 N   0  0  0  0  0  0  0  0  0  0  0  0
  -29.0007  -16.9854   21.5564 N   0  0  0  0  0  0  0  0  0  0  0  0
  -32.4593  -19.6381   19.5687 N   0  3  0  0  0  0  0  0  0  0  0  0
  -22.0580  -14.1053   20.8877 O   0  0  0  0  0  0  0  0  0  0  0  0
  -28.5703  -27.0260   20.2675 O   0  0  0  0  0  0  0  0  0  0  0  0
  -31.8885  -25.5407   19.2785 O   0  0  0  0  0  0  0  0  0  0  0  0
  -30.1341  -21.1369   19.0555 O   0  0  0  0  0  0  0  0  0  0  0  0
  -30.9959  -16.5960   20.4959 O   0  0  0  0  0  0  0  0  0  0  0  0
  -22.9396   -6.4627   22.0709 O   0  0  0  0  0  0  0  0  0  0  0  0
  -25.4348  -22.4293   23.8092 O   0  0  0  0  0  0  0  0  0  1  0  0
  -19.6132   -5.9499   26.4385 F   0  0  0  0  0  0  0  0  0  0  0  0
  -23.6587   -4.8847   24.2238 F   0  0  0  0  0  0  0  0  0  0  0  0
  1  2  1  0  0  0  0
  1  5  2  0  0  0  0
  2  6  2  0  0  0  0
  3  8  2  0  0  0  0
  3 17  1  0  0  0  0
  4  9  1  0  0  0  0
  4 17  2  0  0  0  0
  5 19  1  0  0  0  0
  6 21  1  0  0  0  0
  7 10  2  0  0  0  0
  7 20  1  0  0  0  0
  8 24  1  0  0  0  0
  9 24  2  0  0  0  0
 10 25  1  0  0  0  0
 11 12  2  0  0  0  0
 11 26  1  0  0  0  0
 12 27  1  0  0  0  0
 13 22  1  0  0  0  0
 13 25  2  0  0  0  0
 14 23  1  0  0  0  0
 14 30  2  0  0  0  0
 15 27  2  0  0  0  0
 15 28  1  0  0  0  0
 16 23  2  0  0  0  0
 16 64  1  0  0  0  0
 17 29  1  0  0  0  0
 18 29  1  0  0  0  0
 18 31  2  0  0  0  0
 18 32  1  0  0  0  0
 19 21  2  0  0  0  0
 19 37  1  0  0  0  0
 20 22  2  0  0  0  0
 20 38  1  0  0  0  0
 21 46  1  0  0  0  0
 22 39  1  0  0  0  0
 23 58  1  0  0  0  0
 24 79  1  0  0  0  0
 25 80  1  0  0  0  0
 26 28  2  0  0  0  0
 26 79  1  0  0  0  0
 27 81  1  0  0  0  0
 28 82  1  0  0  0  0
 29 63  2  0  0  0  0
 30 57  1  0  0  0  0
 30 64  1  0  0  0  0
 31 65  1  0  0  0  0
 31 68  1  0  0  0  0
 32 69  1  0  0  0  0
 32 74  2  0  0  0  0
 33 47  1  0  0  0  0
 33 70  1  0  0  0  0
 33 75  2  0  0  0  0
 34 59  1  0  0  0  0
 34 66  1  0  0  0  0
 34 76  2  0  0  0  0
 35 60  1  0  0  0  0
 35 71  1  0  0  0  0
 35 77  2  0  0  0  0
 36 67  1  0  0  0  0
 36 72  1  0  0  0  0
 36 78  2  0  0  0  0
 37 40  1  0  0  0  0
 38 47  1  0  0  0  0
 39 66  1  0  0  0  0
 40 42  1  0  0  0  0
 41 43  1  0  0  0  0
 41 44  1  0  0  0  0
 42 46  1  0  0  0  0
 43 48  1  0  0  0  0
 44 67  1  0  0  0  0
 45 48  1  0  0  0  0
 45 67  1  0  0  0  0
 46 70  1  0  0  0  0
 47 66  1  0  0  0  0
 48 65  1  0  0  0  0
 49 58  1  0  0  0  0
 50 60  1  0  0  0  0
 51 61  1  0  0  0  0
 52 61  1  0  0  0  0
 53 62  1  0  0  0  0
 54 62  1  0  0  0  0
 55 62  1  0  0  0  0
 56 73  1  0  0  0  0
 57 72  1  0  0  0  0
 58 80  1  0  0  0  0
 59 62  1  0  0  0  0
 59 71  1  0  0  0  0
 60 73  1  0  0  0  0
 61 64  1  0  0  0  0
 63 65  1  0  0  0  0
M  CHG  1  73   1
M  ISO  4  36 100  58 101  72 100  80 101
M  END
> <Batch ID>
0114

> <Smiles>
CNC(C)C(=O)NC(C(=O)N1Cc2cc([101O:1][101CH:1](C)c3cc(C[100NH:0][100C:0](=O)N4CCCC(n5nc(-c6ccc(Oc7ccc(F)cc7F)cc6)c(C(N)=O)c5N)C4)n(C(C)C)c3)ccc2CC1C(=O)NC1CCCc2ccccc21)C(C)(C)C

> <Shape>
0.256

> <Color>
0.140

> <Negative vol penalty>
0.000

$$$$

  -OEChem-04052320083D

 81 89  0     1  0  0  0  0  0999 V2000
  -27.6840  -34.8426   23.6072 C   0  0  0  0  0  0  0  0  0  0  0  0
  -28.4934  -33.7563   23.2907 C   0  0  0  0  0  0  0  0  0  0  0  0
  -22.9333  -10.2270   20.0901 C   0  0  0  0  0  0  0  0  0  0  0  0
  -24.3764   -9.5567   21.9081 C   0  0  0  0  0  0  0  0  0  0  0  0
  -26.3275  -34.6481   23.8643 C   0  0  0  0  0  0  0  0  0  0  0  0
  -27.9471  -32.4747   23.2322 C   0  0  0  0  0  0  0  0  0  0  0  0
  -28.6412  -26.2645   19.7297 C   0  0  0  0  0  0  0  0  0  0  0  0
  -28.9348  -18.9624   22.2270 C   0  0  0  0  0  0  0  0  0  0  0  0
  -22.3051   -8.9824   20.1298 C   0  0  0  0  0  0  0  0  0  0  0  0
  -23.7481   -8.3120   21.9479 C   0  0  0  0  0  0  0  0  0  0  0  0
  -28.8026  -24.9016   19.9753 C   0  0  0  0  0  0  0  0  0  0  0  0
  -20.8730   -7.0126   23.1586 C   0  0  0  0  0  0  0  0  0  0  0  0
  -20.5230   -6.5047   24.4097 C   0  0  0  0  0  0  0  0  0  0  0  0
  -28.9672  -20.3357   22.0120 C   0  0  0  0  0  0  0  0  0  0  0  0
  -26.4302  -24.6962   20.3607 C   0  0  0  0  0  0  0  0  0  0  0  0
  -21.9316   -4.5804   24.0225 C   0  0  0  0  0  0  0  0  0  0  0  0
  -23.9691  -10.5142   20.9792 C   0  0  0  0  0  0  0  0  0  0  0  0
  -24.2577  -12.9579   21.6522 C   0  0  0  0  0  0  0  0  0  0  0  0
  -25.7622  -33.3648   23.7995 C   0  0  0  0  0  0  0  0  0  0  0  0
  -27.3725  -26.8565   19.8086 C   0  0  0  0  0  0  0  0  0  0  0  0
  -26.5820  -32.2627   23.4900 C   0  0  0  0  0  0  0  0  0  0  0  0
  -26.2550  -26.0663   20.1131 C   0  0  0  0  0  0  0  0  0  0  0  0
  -29.0686  -18.0925   21.1506 C   0  0  0  0  0  0  0  0  0  0  0  0
  -22.7124   -8.0248   21.0587 C   0  0  0  0  0  0  0  0  0  0  0  0
  -27.6975  -24.1178   20.2937 C   0  0  0  0  0  0  0  0  0  0  0  0
  -21.7523   -6.3043   22.3394 C   0  0  0  0  0  0  0  0  0  0  0  0
  -21.0523   -5.2886   24.8416 C   0  0  0  0  0  0  0  0  0  0  0  0
  -22.2816   -5.0882   22.7714 C   0  0  0  0  0  0  0  0  0  0  0  0
  -24.6189  -11.7996   20.9382 C   0  0  0  0  0  0  0  0  0  0  0  0
  -29.1342  -20.7849   20.7120 C   0  0  0  0  0  0  0  0  0  0  0  0
  -29.2308  -18.6421   19.8890 C   0  0  0  0  0  0  0  0  0  0  0  0
  -25.1806  -13.8998   21.2680 C   0  0  0  0  0  0  0  0  0  0  0  0
  -23.1840  -13.1639   22.5798 C   0  0  0  0  0  0  0  0  0  0  0  0
  -26.0632  -29.1235   21.6115 C   0  0  0  0  0  0  0  0  0  0  0  0
  -23.5439  -28.7167   19.6090 C   0  0  0  0  0  0  0  0  0  0  0  0
  -21.8624  -26.6835   17.4443 C   0  0  0  0  0  0  0  0  0  0  0  0
  -30.6968  -14.9746   20.4113 C   0  0  0  0  0  0  0  0  0  0  0  0
  -24.3006  -33.1977   24.1317 C   0  0  0  0  0  0  0  0  0  0  0  0
  -27.2113  -28.3228   19.5146 C   0  0  0  0  0  0  0  0  0  0  0  0
  -24.8685  -26.6496   20.1905 C   0  0  0  0  0  0  0  0  0  0  0  0
  -23.7229  -31.8582   23.6818 C   0  0  0  0  0  0  0  0  0  0  0  0
  -28.6129  -13.8533   17.5650 C   0  0  0  0  0  0  0  0  0  0  0  0
  -24.6551  -30.7162   24.0737 C   0  0  0  0  0  0  0  0  0  0  0  0
  -27.3935  -13.2516   18.2616 C   0  0  0  0  0  0  0  0  0  0  0  0
  -29.8652  -13.7584   18.4312 C   0  0  0  0  0  0  0  0  0  0  0  0
  -28.4866  -13.7487   20.4839 C   0  0  0  0  0  0  0  0  0  0  0  0
  -26.0213  -30.8605   23.3924 C   0  0  1  0  0  0  0  0  0  0  0  0
  -25.9480  -28.9197   20.1273 C   0  0  1  0  0  0  0  0  0  0  0  0
  -27.1979  -13.8702   19.6567 C   0  0  2  0  0  0  0  0  0  0  0  0
  -29.3825  -17.7562   18.6962 C   0  0  0  0  0  0  0  0  0  0  0  0
  -19.8166  -26.6145   15.9927 C   0  0  0  0  0  0  0  0  0  0  0  0
  -21.8064  -28.2977   22.0819 C   0  0  0  0  0  0  0  0  0  0  0  0
  -20.0484  -27.3151   20.5946 C   0  0  0  0  0  0  0  0  0  0  0  0
  -20.7530  -29.6887   20.2902 C   0  0  0  0  0  0  0  0  0  0  0  0
  -31.4227  -16.7349   21.9778 C   0  0  0  0  0  0  0  0  0  0  0  0
  -23.4747  -26.3169   14.9897 C   0  0  0  0  0  0  0  0  0  0  0  0
  -29.0335  -16.6203   21.3745 C   0  0  0  0  0  0  0  0  0  0  0  0
  -29.1754  -22.2606   20.4437 C   0  0  0  0  0  0  0  0  0  1  0  0
  -22.3212  -27.8313   19.5952 C   0  0  1  0  0  0  0  0  0  0  0  0
  -21.3020  -26.9344   16.0560 C   0  0  2  0  0  0  0  0  0  0  0  0
  -21.2585  -28.2723   20.6410 C   0  0  0  0  0  0  0  0  0  0  0  0
  -25.6877  -11.9863   20.1593 N   0  0  0  0  0  0  0  0  0  0  0  0
  -29.2673  -19.9706   19.6411 N   0  0  0  0  0  0  0  0  0  0  0  0
  -26.0061  -13.2729   20.3816 N   0  0  0  0  0  0  0  0  0  0  0  0
  -24.7633  -28.0893   19.9010 N   0  0  0  0  0  0  0  0  0  0  0  0
  -29.6385  -14.3143   19.7657 N   0  0  0  0  0  0  0  0  0  0  0  0
  -25.3584  -15.1948   21.6053 N   0  0  0  0  0  0  0  0  0  0  0  0
  -22.3290  -12.0897   22.8615 N   0  0  0  0  0  0  0  0  0  0  0  0
  -25.9432  -30.4413   22.0094 N   0  0  0  0  0  0  0  0  0  0  0  0
  -21.8379  -27.8241   18.2187 N   0  0  0  0  0  0  0  0  0  0  0  0
  -30.3599  -16.0126   21.2932 N   0  0  0  0  0  0  0  0  0  0  0  0
  -22.0080  -26.0891   15.0519 N   0  3  0  0  0  0  0  0  0  0  0  0
  -22.9788  -14.2725   23.1298 O   0  0  0  0  0  0  0  0  0  0  0  0
  -26.2459  -28.1565   22.3418 O   0  0  0  0  0  0  0  0  0  0  0  0
  -23.4226  -29.9192   19.3624 O   0  0  0  0  0  0  0  0  0  0  0  0
  -22.2768  -25.5847   17.8069 O   0  0  0  0  0  0  0  0  0  0  0  0
  -31.8759  -14.6609   20.2037 O   0  0  0  0  0  0  0  0  0  0  0  0
  -22.0994   -6.8103   21.0980 O   0  0  0  0  0  0  0  0  0  0  0  0
  -27.8523  -22.7874   20.5345 O   0  0  0  0  0  0  0  0  0  1  0  0
  -20.7173   -4.8018   26.0437 F   0  0  0  0  0  0  0  0  0  0  0  0
  -23.1277   -4.4039   21.9894 F   0  0  0  0  0  0  0  0  0  0  0  0
  1  2  1  0  0  0  0
  1  5  2  0  0  0  0
  2  6  2  0  0  0  0
  3  9  2  0  0  0  0
  3 17  1  0  0  0  0
  4 10  1  0  0  0  0
  4 17  2  0  0  0  0
  5 19  1  0  0  0  0
  6 21  1  0  0  0  0
  7 11  2  0  0  0  0
  7 20  1  0  0  0  0
  8 14  2  0  0  0  0
  8 23  1  0  0  0  0
  9 24  1  0  0  0  0
 10 24  2  0  0  0  0
 11 25  1  0  0  0  0
 12 13  2  0  0  0  0
 12 26  1  0  0  0  0
 13 27  1  0  0  0  0
 14 30  1  0  0  0  0
 15 22  1  0  0  0  0
 15 25  2  0  0  0  0
 16 27  2  0  0  0  0
 16 28  1  0  0  0  0
 17 29  1  0  0  0  0
 18 29  1  0  0  0  0
 18 32  2  0  0  0  0
 18 33  1  0  0  0  0
 19 21  2  0  0  0  0
 19 38  1  0  0  0  0
 20 22  2  0  0  0  0
 20 39  1  0  0  0  0
 21 47  1  0  0  0  0
 22 40  1  0  0  0  0
 23 31  2  0  0  0  0
 23 57  1  0  0  0  0
 24 78  1  0  0  0  0
 25 79  1  0  0  0  0
 26 28  2  0  0  0  0
 26 78  1  0  0  0  0
 27 80  1  0  0  0  0
 28 81  1  0  0  0  0
 29 62  2  0  0  0  0
 30 58  1  0  0  0  0
 30 63  2  0  0  0  0
 31 50  1  0  0  0  0
 31 63  1  0  0  0  0
 32 64  1  0  0  0  0
 32 67  1  0  0  0  0
 33 68  1  0  0  0  0
 33 73  2  0  0  0  0
 34 48  1  0  0  0  0
 34 69  1  0  0  0  0
 34 74  2  0  0  0  0
 35 59  1  0  0  0  0
 35 65  1  0  0  0  0
 35 75  2  0  0  0  0
 36 60  1  0  0  0  0
 36 70  1  0  0  0  0
 36 76  2  0  0  0  0
 37 66  1  0  0  0  0
 37 71  1  0  0  0  0
 37 77  2  0  0  0  0
 38 41  1  0  0  0  0
 39 48  1  0  0  0  0
 40 65  1  0  0  0  0
 41 43  1  0  0  0  0
 42 44  1  0  0  0  0
 42 45  1  0  0  0  0
 43 47  1  0  0  0  0
 44 49  1  0  0  0  0
 45 66  1  0  0  0  0
 46 49  1  0  0  0  0
 46 66  1  0  0  0  0
 47 69  1  0  0  0  0
 48 65  1  0  0  0  0
 49 64  1  0  0  0  0
 51 60  1  0  0  0  0
 52 61  1  0  0  0  0
 53 61  1  0  0  0  0
 54 61  1  0  0  0  0
 55 71  1  0  0  0  0
 56 72  1  0  0  0  0
 57 71  1  0  0  0  0
 58 79  1  0  0  0  0
 59 61  1  0  0  0  0
 59 70  1  0  0  0  0
 60 72  1  0  0  0  0
 62 64  1  0  0  0  0
M  CHG  1  72   1
M  ISO  4  37 100  58 101  71 100  79 101
M  END
> <Batch ID>
0114

> <Smiles>
CNC(C)C(=O)NC(C(=O)N1Cc2cc([101O:1][101CH2:1]c3ccc(C[100N:0](C)[100C:0](=O)N4CCCC(n5nc(-c6ccc(Oc7ccc(F)cc7F)cc6)c(C(N)=O)c5N)C4)c(C)n3)ccc2CC1C(=O)NC1CCCc2ccccc21)C(C)(C)C

> <Shape>
0.377

> <Color>
0.153

> <Negative vol penalty>
0.000

$$$$

  -OEChem-04052320083D

 83 91  0     1  0  0  0  0  0999 V2000
  -34.4402  -30.6505   13.3999 C   0  0  0  0  0  0  0  0  0  0  0  0
  -34.6382  -30.0359   14.6321 C   0  0  0  0  0  0  0  0  0  0  0  0
  -23.0749   -9.8673   19.9390 C   0  0  0  0  0  0  0  0  0  0  0  0
  -23.8364   -9.8717   22.2319 C   0  0  0  0  0  0  0  0  0  0  0  0
  -33.2511  -30.4434   12.7020 C   0  0  0  0  0  0  0  0  0  0  0  0
  -33.6467  -29.2146   15.1677 C   0  0  0  0  0  0  0  0  0  0  0  0
  -34.4698  -24.1684   18.5388 C   0  0  0  0  0  0  0  0  0  0  0  0
  -22.3319   -8.7134   20.1880 C   0  0  0  0  0  0  0  0  0  0  0  0
  -23.0933   -8.7177   22.4809 C   0  0  0  0  0  0  0  0  0  0  0  0
  -34.4334  -23.9428   19.9141 C   0  0  0  0  0  0  0  0  0  0  0  0
  -19.8661   -7.9172   23.0845 C   0  0  0  0  0  0  0  0  0  0  0  0
  -19.1100   -7.8752   24.2559 C   0  0  0  0  0  0  0  0  0  0  0  0
  -30.2575  -18.9573   23.1454 C   0  0  0  0  0  0  0  0  0  0  0  0
  -32.1377  -23.2252   19.7294 C   0  0  0  0  0  0  0  0  0  0  0  0
  -20.3530   -5.9375   24.9889 C   0  0  0  0  0  0  0  0  0  0  0  0
  -32.2484  -18.5189   21.9204 C   0  0  0  0  0  0  0  0  0  0  0  0
  -23.8272  -10.4464   20.9610 C   0  0  0  0  0  0  0  0  0  0  0  0
  -31.5221  -19.3684   22.7393 C   0  0  0  0  0  0  0  0  0  0  0  0
  -24.1674  -12.9719   20.8441 C   0  0  0  0  0  0  0  0  0  0  0  0
  -32.2485  -29.6115   13.2247 C   0  0  0  0  0  0  0  0  0  0  0  0
  -33.3352  -23.9340   17.7487 C   0  0  0  0  0  0  0  0  0  0  0  0
  -32.4425  -28.9973   14.4767 C   0  0  0  0  0  0  0  0  0  0  0  0
  -32.1631  -23.4461   18.3439 C   0  0  0  0  0  0  0  0  0  0  0  0
  -29.7646  -17.7266   22.7261 C   0  0  0  0  0  0  0  0  0  0  0  0
  -22.3411   -8.1386   21.4589 C   0  0  0  0  0  0  0  0  0  0  0  0
  -33.2663  -23.4739   20.5101 C   0  0  0  0  0  0  0  0  0  0  0  0
  -20.8657   -6.9692   22.8653 C   0  0  0  0  0  0  0  0  0  0  0  0
  -19.3534   -6.8854   25.2081 C   0  0  0  0  0  0  0  0  0  0  0  0
  -21.1091   -5.9795   23.8175 C   0  0  0  0  0  0  0  0  0  0  0  0
  -24.5954  -11.6381   20.7043 C   0  0  0  0  0  0  0  0  0  0  0  0
  -30.5695  -16.9506   21.9076 C   0  0  0  0  0  0  0  0  0  0  0  0
  -25.2589  -13.7226   20.4811 C   0  0  0  0  0  0  0  0  0  0  0  0
  -32.0781  -20.6771   23.1697 C   0  0  0  0  0  0  0  0  0  0  0  0
  -22.8969  -13.4864   21.2646 C   0  0  0  0  0  0  0  0  0  0  0  0
  -31.4658  -25.7377   15.9168 C   0  0  0  0  0  0  0  0  0  0  0  0
  -30.1139  -22.8869   15.1633 C   0  0  0  0  0  0  0  0  0  0  0  0
  -29.4989  -19.6484   16.0468 C   0  0  0  0  0  0  0  0  0  0  0  0
  -30.7245  -14.7713   20.6534 C   0  0  0  0  0  0  0  0  0  0  0  0
  -30.9605  -29.4556   12.4557 C   0  0  0  0  0  0  0  0  0  0  0  0
  -33.3990  -24.1568   16.2625 C   0  0  0  0  0  0  0  0  0  0  0  0
  -30.9241  -23.1593   17.5371 C   0  0  0  0  0  0  0  0  0  0  0  0
  -30.1144  -28.2722   12.9183 C   0  0  0  0  0  0  0  0  0  0  0  0
  -29.6100  -12.3599   18.2827 C   0  0  0  0  0  0  0  0  0  0  0  0
  -30.0170  -28.2482   14.4404 C   0  0  0  0  0  0  0  0  0  0  0  0
  -28.1708  -12.0669   18.7129 C   0  0  0  0  0  0  0  0  0  0  0  0
  -30.5257  -12.5877   19.4840 C   0  0  0  0  0  0  0  0  0  0  0  0
  -28.6193  -13.3092   20.8676 C   0  0  0  0  0  0  0  0  0  0  0  0
  -31.4008  -28.0796   15.0792 C   0  0  1  0  0  0  0  0  0  0  0  0
  -32.0271  -24.3734   15.6314 C   0  0  1  0  0  0  0  0  0  0  0  0
  -27.6458  -13.1369   19.6902 C   0  0  2  0  0  0  0  0  0  0  0  0
  -28.4083  -17.2892   23.1646 C   0  0  0  0  0  0  0  0  0  0  0  0
  -28.3349  -17.5748   15.2450 C   0  0  0  0  0  0  0  0  0  0  0  0
  -27.4242  -24.0981   15.9434 C   0  0  0  0  0  0  0  0  0  0  0  0
  -26.4864  -21.7788   16.0400 C   0  0  0  0  0  0  0  0  0  0  0  0
  -27.3708  -22.6760   13.8869 C   0  0  0  0  0  0  0  0  0  0  0  0
  -32.0293  -18.1150   15.9766 C   0  0  0  0  0  0  0  0  0  0  0  0
  -34.1503  -21.9535   23.6522 C   0  0  0  0  0  0  0  0  0  0  0  0
  -34.4503  -22.8755   22.4839 C   0  0  0  0  0  0  0  0  0  1  0  0
  -28.9880  -22.0550   15.7284 C   0  0  1  0  0  0  0  0  0  0  0  0
  -29.6435  -18.3490   15.2753 C   0  0  2  0  0  0  0  0  0  0  0  0
  -27.5899  -22.6591   15.4155 C   0  0  0  0  0  0  0  0  0  0  0  0
  -31.8031  -17.3163   21.4925 N   0  0  0  0  0  0  0  0  0  0  0  0
  -25.8600  -11.5436   20.2851 N   0  0  0  0  0  0  0  0  0  0  0  0
  -26.2360  -12.8276   20.1582 N   0  0  0  0  0  0  0  0  0  0  0  0
  -31.0344  -23.3990   16.0887 N   0  0  0  0  0  0  0  0  0  0  0  0
  -29.9668  -13.6170   20.3632 N   0  0  0  0  0  0  0  0  0  0  0  0
  -25.4684  -15.0543   20.4097 N   0  0  0  0  0  0  0  0  0  0  0  0
  -21.8858  -12.5762   21.6014 N   0  0  0  0  0  0  0  0  0  0  0  0
  -30.0772  -15.6948   21.4735 N   0  0  0  0  0  0  0  0  0  0  0  0
  -33.4635  -20.7616   23.2303 N   0  0  0  0  0  0  0  0  0  0  0  0
  -31.8314  -26.7005   14.9956 N   0  0  0  0  0  0  0  0  0  0  0  0
  -29.1828  -20.7029   15.2165 N   0  0  0  0  0  0  0  0  0  0  0  0
  -30.6849  -17.4872   15.9027 N   0  3  0  0  0  0  0  0  0  0  0  0
  -31.3089  -21.5887   23.4627 O   0  0  0  0  0  0  0  0  0  0  0  0
  -22.6599  -14.7168   21.3238 O   0  0  0  0  0  0  0  0  0  0  0  0
  -30.7526  -25.9041   16.8993 O   0  0  0  0  0  0  0  0  0  0  0  0
  -30.1784  -23.0695   13.9451 O   0  0  0  0  0  0  0  0  0  0  0  0
  -29.6476  -19.7200   17.2647 O   0  0  0  0  0  0  0  0  0  0  0  0
  -31.8532  -14.9413   20.1853 O   0  0  0  0  0  0  0  0  0  0  0  0
  -21.6160   -7.0127   21.7022 O   0  0  0  0  0  0  0  0  0  0  0  0
  -33.2278  -23.2536   21.8524 O   0  0  0  0  0  0  0  0  0  1  0  0
  -18.6283   -6.8462   26.3336 F   0  0  0  0  0  0  0  0  0  0  0  0
  -22.0689   -5.0668   23.6130 F   0  0  0  0  0  0  0  0  0  0  0  0
  1  2  1  0  0  0  0
  1  5  2  0  0  0  0
  2  6  2  0  0  0  0
  3  8  2  0  0  0  0
  3 17  1  0  0  0  0
  4  9  1  0  0  0  0
  4 17  2  0  0  0  0
  5 20  1  0  0  0  0
  6 22  1  0  0  0  0
  7 10  2  0  0  0  0
  7 21  1  0  0  0  0
  8 25  1  0  0  0  0
  9 25  2  0  0  0  0
 10 26  1  0  0  0  0
 11 12  2  0  0  0  0
 11 27  1  0  0  0  0
 12 28  1  0  0  0  0
 13 18  2  0  0  0  0
 13 24  1  0  0  0  0
 14 23  1  0  0  0  0
 14 26  2  0  0  0  0
 15 28  2  0  0  0  0
 15 29  1  0  0  0  0
 16 18  1  0  0  0  0
 16 62  2  0  0  0  0
 17 30  1  0  0  0  0
 18 33  1  0  0  0  0
 19 30  1  0  0  0  0
 19 32  2  0  0  0  0
 19 34  1  0  0  0  0
 20 22  2  0  0  0  0
 20 39  1  0  0  0  0
 21 23  2  0  0  0  0
 21 40  1  0  0  0  0
 22 48  1  0  0  0  0
 23 41  1  0  0  0  0
 24 31  2  0  0  0  0
 24 51  1  0  0  0  0
 25 80  1  0  0  0  0
 26 81  1  0  0  0  0
 27 29  2  0  0  0  0
 27 80  1  0  0  0  0
 28 82  1  0  0  0  0
 29 83  1  0  0  0  0
 30 63  2  0  0  0  0
 31 62  1  0  0  0  0
 31 69  1  0  0  0  0
 32 64  1  0  0  0  0
 32 67  1  0  0  0  0
 33 70  1  0  0  0  0
 33 74  2  0  0  0  0
 34 68  1  0  0  0  0
 34 75  2  0  0  0  0
 35 49  1  0  0  0  0
 35 71  1  0  0  0  0
 35 76  2  0  0  0  0
 36 59  1  0  0  0  0
 36 65  1  0  0  0  0
 36 77  2  0  0  0  0
 37 60  1  0  0  0  0
 37 72  1  0  0  0  0
 37 78  2  0  0  0  0
 38 66  1  0  0  0  0
 38 69  1  0  0  0  0
 38 79  2  0  0  0  0
 39 42  1  0  0  0  0
 40 49  1  0  0  0  0
 41 65  1  0  0  0  0
 42 44  1  0  0  0  0
 43 45  1  0  0  0  0
 43 46  1  0  0  0  0
 44 48  1  0  0  0  0
 45 50  1  0  0  0  0
 46 66  1  0  0  0  0
 47 50  1  0  0  0  0
 47 66  1  0  0  0  0
 48 71  1  0  0  0  0
 49 65  1  0  0  0  0
 50 64  1  0  0  0  0
 52 60  1  0  0  0  0
 53 61  1  0  0  0  0
 54 61  1  0  0  0  0
 55 61  1  0  0  0  0
 56 73  1  0  0  0  0
 57 58  1  0  0  0  0
 57 70  1  0  0  0  0
 58 81  1  0  0  0  0
 59 61  1  0  0  0  0
 59 72  1  0  0  0  0
 60 73  1  0  0  0  0
 63 64  1  0  0  0  0
M  CHG  1  73   1
M  ISO  4  38 100  58 101  69 100  81 101
M  END
> <Batch ID>
0114

> <Smiles>
CNC(C)C(=O)NC(C(=O)N1Cc2cc([101O:1][101CH2:1]CNC(=O)c3cnc([100NH:0][100C:0](=O)N4CCCC(n5nc(-c6ccc(Oc7ccc(F)cc7F)cc6)c(C(N)=O)c5N)C4)c(C)c3)ccc2CC1C(=O)NC1CCCc2ccccc21)C(C)(C)C

> <Shape>
0.191

> <Color>
0.188

> <Negative vol penalty>
0.000

$$$$

  -OEChem-04052320083D

 85 94  0     1  0  0  0  0  0999 V2000
  -25.7181  -20.2797   15.4565 C   0  0  0  0  0  0  0  0  0  0  0  0
  -26.5566  -19.2307   15.8161 C   0  0  0  0  0  0  0  0  0  0  0  0
  -26.2395  -28.0907   18.8673 C   0  0  0  0  0  0  0  0  0  0  0  0
  -25.9552  -26.9453   20.9754 C   0  0  0  0  0  0  0  0  0  0  0  0
  -24.5270  -20.4841   16.1500 C   0  0  0  0  0  0  0  0  0  0  0  0
  -26.1987  -18.3784   16.8614 C   0  0  0  0  0  0  0  0  0  0  0  0
  -29.0499  -14.4396   17.6096 C   0  0  0  0  0  0  0  0  0  0  0  0
  -25.0628  -28.8038   19.0960 C   0  0  0  0  0  0  0  0  0  0  0  0
  -24.7785  -27.6584   21.2042 C   0  0  0  0  0  0  0  0  0  0  0  0
  -30.3324  -14.5291   18.1488 C   0  0  0  0  0  0  0  0  0  0  0  0
  -23.9054  -30.7493   22.2551 C   0  0  0  0  0  0  0  0  0  0  0  0
  -23.7153  -31.2927   23.5256 C   0  0  0  0  0  0  0  0  0  0  0  0
  -29.4903  -13.7400   20.2672 C   0  0  0  0  0  0  0  0  0  0  0  0
  -21.7017  -29.9830   23.7846 C   0  0  0  0  0  0  0  0  0  0  0  0
  -31.9061  -18.5365   22.1913 C   0  0  0  0  0  0  0  0  0  0  0  0
  -26.6857  -27.1614   19.8069 C   0  0  0  0  0  0  0  0  0  0  0  0
  -29.2061  -26.7933   19.9478 C   0  0  0  0  0  0  0  0  0  0  0  0
  -24.1611  -19.6410   17.2122 C   0  0  0  0  0  0  0  0  0  0  0  0
  -27.9741  -14.0094   18.3995 C   0  0  0  0  0  0  0  0  0  0  0  0
  -24.9892  -18.5538   17.5578 C   0  0  0  0  0  0  0  0  0  0  0  0
  -28.1956  -13.6435   19.7349 C   0  0  0  0  0  0  0  0  0  0  0  0
  -24.3323  -28.5877   20.2645 C   0  0  0  0  0  0  0  0  0  0  0  0
  -30.5523  -14.1820   19.4786 C   0  0  0  0  0  0  0  0  0  0  0  0
  -22.9935  -29.8227   21.7493 C   0  0  0  0  0  0  0  0  0  0  0  0
  -22.6135  -30.9096   24.2904 C   0  0  0  0  0  0  0  0  0  0  0  0
  -21.8918  -29.4395   22.5141 C   0  0  0  0  0  0  0  0  0  0  0  0
  -27.9010  -26.4240   19.5710 C   0  0  0  0  0  0  0  0  0  0  0  0
  -32.0721  -17.5824   21.2275 C   0  0  0  0  0  0  0  0  0  0  0  0
  -29.9975  -25.7652   19.4969 C   0  0  0  0  0  0  0  0  0  0  0  0
  -30.0535  -18.4573   20.9822 C   0  0  0  0  0  0  0  0  0  0  0  0
  -29.6623  -27.9611   20.6434 C   0  0  0  0  0  0  0  0  0  0  0  0
  -25.2446  -15.3141   19.3750 C   0  0  0  0  0  0  0  0  0  0  0  0
  -24.6924  -12.3390   20.5439 C   0  0  0  0  0  0  0  0  0  0  0  0
  -25.9751   -9.3706   21.6347 C   0  0  0  0  0  0  0  0  0  0  0  0
  -28.9127  -19.9926   18.3343 C   0  0  0  0  0  0  0  0  0  0  0  0
  -22.8570  -19.9031   17.9235 C   0  0  0  0  0  0  0  0  0  0  0  0
  -26.6015  -13.8929   17.7954 C   0  0  0  0  0  0  0  0  0  0  0  0
  -27.0781  -13.1563   20.6195 C   0  0  0  0  0  0  0  0  0  0  0  0
  -22.7789  -19.2289   19.2894 C   0  0  0  0  0  0  0  0  0  0  0  0
  -31.2652  -21.7025   24.2435 C   0  0  0  0  0  0  0  0  0  0  0  0
  -30.1854  -21.0287   25.0727 C   0  0  0  0  0  0  0  0  0  0  0  0
  -30.2082  -22.4240   16.0789 C   0  0  0  0  0  0  0  0  0  0  0  0
  -23.1778  -17.7656   19.1703 C   0  0  0  0  0  0  0  0  0  0  0  0
  -30.8274  -21.4531   22.8046 C   0  0  0  0  0  0  0  0  0  0  0  0
  -29.9220  -19.7345   24.3171 C   0  0  0  0  0  0  0  0  0  0  0  0
  -29.8815  -23.7582   16.7521 C   0  0  0  0  0  0  0  0  0  0  0  0
  -29.1025  -21.3943   16.3007 C   0  0  0  0  0  0  0  0  0  0  0  0
  -28.4069  -22.5102   18.3851 C   0  0  0  0  0  0  0  0  0  0  0  0
  -24.6354  -17.6325   18.7113 C   0  0  1  0  0  0  0  0  0  0  0  0
  -25.4858  -13.9328   18.8351 C   0  0  1  0  0  0  0  0  0  0  0  0
  -30.0578  -20.1177   22.8337 C   0  0  0  0  0  0  0  0  0  0  0  0
  -29.5184  -23.5632   18.2365 C   0  0  2  0  0  0  0  0  0  0  0  0
  -25.2781   -7.1456   22.5627 C   0  0  0  0  0  0  0  0  0  0  0  0
  -24.1627  -13.6379   23.2536 C   0  0  0  0  0  0  0  0  0  0  0  0
  -24.4153  -11.3806   24.3068 C   0  0  0  0  0  0  0  0  0  0  0  0
  -22.5885  -11.7882   22.6578 C   0  0  0  0  0  0  0  0  0  0  0  0
  -27.1608   -7.9146   19.3471 C   0  0  0  0  0  0  0  0  0  0  0  0
  -33.2336  -16.6729   20.9156 C   0  0  0  0  0  0  0  0  0  0  0  0
  -28.6916  -18.7247   20.4563 C   0  0  0  0  0  0  0  0  0  0  0  0
  -33.1837  -15.3343   21.6554 C   0  0  0  0  0  0  0  0  0  0  0  0
  -31.9000  -14.5523   21.4028 C   0  0  0  0  0  0  0  0  0  1  0  0
  -24.9781  -11.6323   21.8469 C   0  0  1  0  0  0  0  0  0  0  0  0
  -25.6107   -7.9341   21.3055 C   0  0  2  0  0  0  0  0  0  0  0  0
  -24.0571  -12.1207   23.0004 C   0  0  0  0  0  0  0  0  0  0  0  0
  -27.8612  -25.2530   18.9298 N   0  0  0  0  0  0  0  0  0  0  0  0
  -30.6486  -19.0618   22.0156 N   0  0  0  0  0  0  0  0  0  0  0  0
  -29.1512  -24.8775   18.9003 N   0  0  0  0  0  0  0  0  0  0  0  0
  -30.9103  -17.5546   20.4942 N   0  3  0  0  0  0  0  0  0  0  0  0
  -25.7529  -13.0657   19.9845 N   0  0  0  0  0  0  0  0  0  0  0  0
  -28.8071  -21.2556   17.7288 N   0  0  0  0  0  0  0  0  0  0  0  0
  -31.3277  -25.5431   19.5564 N   0  0  0  0  0  0  0  0  0  0  0  0
  -28.7160  -28.9179   21.0348 N   0  0  0  0  0  0  0  0  0  0  0  0
  -24.9106  -16.2450   18.4100 N   0  0  0  0  0  0  0  0  0  0  0  0
  -24.8787  -10.2040   21.5670 N   0  0  0  0  0  0  0  0  0  0  0  0
  -28.6214  -19.9504   19.6923 N   0  0  0  0  0  0  0  0  0  0  0  0
  -26.7438   -7.2580   20.6128 N   0  3  0  0  0  0  0  0  0  0  0  0
  -30.8752  -28.1583   20.8954 O   0  0  0  0  0  0  0  0  0  0  0  0
  -25.3522  -15.5198   20.5783 O   0  0  0  0  0  0  0  0  0  0  0  0
  -23.5717  -12.2438   20.0374 O   0  0  0  0  0  0  0  0  0  0  0  0
  -27.1173   -9.7179   21.9266 O   0  0  0  0  0  0  0  0  0  0  0  0
  -29.2474  -18.9788   17.7121 O   0  0  0  0  0  0  0  0  0  0  0  0
  -23.1841  -29.2835   20.4881 O   0  0  0  0  0  0  0  0  0  0  0  0
  -31.8031  -14.2690   20.0076 O   0  0  0  0  0  0  0  0  0  1  0  0
  -22.4319  -31.4303   25.5110 F   0  0  0  0  0  0  0  0  0  0  0  0
  -21.0130  -28.5489   22.0340 F   0  0  0  0  0  0  0  0  0  0  0  0
  1  2  1  0  0  0  0
  1  5  2  0  0  0  0
  2  6  2  0  0  0  0
  3  8  2  0  0  0  0
  3 16  1  0  0  0  0
  4  9  1  0  0  0  0
  4 16  2  0  0  0  0
  5 18  1  0  0  0  0
  6 20  1  0  0  0  0
  7 10  2  0  0  0  0
  7 19  1  0  0  0  0
  8 22  1  0  0  0  0
  9 22  2  0  0  0  0
 10 23  1  0  0  0  0
 11 12  2  0  0  0  0
 11 24  1  0  0  0  0
 12 25  1  0  0  0  0
 13 21  1  0  0  0  0
 13 23  2  0  0  0  0
 14 25  2  0  0  0  0
 14 26  1  0  0  0  0
 15 28  2  0  0  0  0
 15 66  1  0  0  0  0
 16 27  1  0  0  0  0
 17 27  1  0  0  0  0
 17 29  2  0  0  0  0
 17 31  1  0  0  0  0
 18 20  2  0  0  0  0
 18 36  1  0  0  0  0
 19 21  2  0  0  0  0
 19 37  1  0  0  0  0
 20 49  1  0  0  0  0
 21 38  1  0  0  0  0
 22 82  1  0  0  0  0
 23 83  1  0  0  0  0
 24 26  2  0  0  0  0
 24 82  1  0  0  0  0
 25 84  1  0  0  0  0
 26 85  1  0  0  0  0
 27 65  2  0  0  0  0
 28 58  1  0  0  0  0
 28 68  1  0  0  0  0
 29 67  1  0  0  0  0
 29 71  1  0  0  0  0
 30 59  1  0  0  0  0
 30 66  1  0  0  0  0
 30 68  2  0  0  0  0
 31 72  1  0  0  0  0
 31 77  2  0  0  0  0
 32 50  1  0  0  0  0
 32 73  1  0  0  0  0
 32 78  2  0  0  0  0
 33 62  1  0  0  0  0
 33 69  1  0  0  0  0
 33 79  2  0  0  0  0
 34 63  1  0  0  0  0
 34 74  1  0  0  0  0
 34 80  2  0  0  0  0
 35 70  1  0  0  0  0
 35 75  1  0  0  0  0
 35 81  2  0  0  0  0
 36 39  1  0  0  0  0
 37 50  1  0  0  0  0
 38 69  1  0  0  0  0
 39 43  1  0  0  0  0
 40 41  1  0  0  0  0
 40 44  1  0  0  0  0
 41 45  1  0  0  0  0
 42 46  1  0  0  0  0
 42 47  1  0  0  0  0
 43 49  1  0  0  0  0
 44 51  1  0  0  0  0
 45 51  1  0  0  0  0
 46 52  1  0  0  0  0
 47 70  1  0  0  0  0
 48 52  1  0  0  0  0
 48 70  1  0  0  0  0
 49 73  1  0  0  0  0
 50 69  1  0  0  0  0
 51 66  1  0  0  0  0
 52 67  1  0  0  0  0
 53 63  1  0  0  0  0
 54 64  1  0  0  0  0
 55 64  1  0  0  0  0
 56 64  1  0  0  0  0
 57 76  1  0  0  0  0
 58 60  1  0  0  0  0
 59 75  1  0  0  0  0
 60 61  1  0  0  0  0
 61 83  1  0  0  0  0
 62 64  1  0  0  0  0
 62 74  1  0  0  0  0
 63 76  1  0  0  0  0
 65 67  1  0  0  0  0
M  CHG  2  68   1  76   1
M  ISO  4  35 100  61 101  75 100  83 101
M  END
> <Batch ID>
0114

> <Smiles>
CNC(C)C(=O)NC(C(=O)N1Cc2cc([101O:1][101CH2:1]CCc3cn(C4CCCC4)c(C[100NH:0][100C:0](=O)N4CCCC(n5nc(-c6ccc(Oc7ccc(F)cc7F)cc6)c(C(N)=O)c5N)C4)n3)ccc2CC1C(=O)NC1CCCc2ccccc21)C(C)(C)C

> <Shape>
0.259

> <Color>
0.060

> <Negative vol penalty>
0.000

$$$$

  -OEChem-04052320083D

 87 96  0     1  0  0  0  0  0999 V2000
  -30.2260  -30.6488   26.1576 C   0  0  0  0  0  0  0  0  0  0  0  0
  -29.6613  -29.6936   25.3185 C   0  0  0  0  0  0  0  0  0  0  0  0
  -24.9839   -7.9426   21.0869 C   0  0  0  0  0  0  0  0  0  0  0  0
  -23.9832  -10.0913   21.5547 C   0  0  0  0  0  0  0  0  0  0  0  0
  -29.4160  -31.6069   26.7659 C   0  0  0  0  0  0  0  0  0  0  0  0
  -28.2860  -29.6952   25.0881 C   0  0  0  0  0  0  0  0  0  0  0  0
  -27.1349  -29.0655   20.1969 C   0  0  0  0  0  0  0  0  0  0  0  0
  -24.2773   -7.3818   22.1507 C   0  0  0  0  0  0  0  0  0  0  0  0
  -23.2764   -9.5304   22.6185 C   0  0  0  0  0  0  0  0  0  0  0  0
  -27.2117  -27.7704   19.6864 C   0  0  0  0  0  0  0  0  0  0  0  0
  -21.1343   -6.2904   22.7535 C   0  0  0  0  0  0  0  0  0  0  0  0
  -20.5055   -5.0639   22.5391 C   0  0  0  0  0  0  0  0  0  0  0  0
  -24.8184  -27.5523   19.8962 C   0  0  0  0  0  0  0  0  0  0  0  0
  -21.8295   -4.0770   24.3026 C   0  0  0  0  0  0  0  0  0  0  0  0
  -24.8370   -9.2974   20.7889 C   0  0  0  0  0  0  0  0  0  0  0  0
  -25.1498   -9.9752   18.3496 C   0  0  0  0  0  0  0  0  0  0  0  0
  -28.0314  -31.6261   26.5352 C   0  0  0  0  0  0  0  0  0  0  0  0
  -25.8985  -29.6107   20.5718 C   0  0  0  0  0  0  0  0  0  0  0  0
  -27.4566  -30.6535   25.6949 C   0  0  0  0  0  0  0  0  0  0  0  0
  -24.7284  -28.8555   20.4089 C   0  0  0  0  0  0  0  0  0  0  0  0
  -23.4235   -8.1757   22.9165 C   0  0  0  0  0  0  0  0  0  0  0  0
  -26.0537  -27.0126   19.5386 C   0  0  0  0  0  0  0  0  0  0  0  0
  -22.1108   -6.4102   23.7423 C   0  0  0  0  0  0  0  0  0  0  0  0
  -20.8531   -3.9572   23.3137 C   0  0  0  0  0  0  0  0  0  0  0  0
  -22.4584   -5.3035   24.5169 C   0  0  0  0  0  0  0  0  0  0  0  0
  -25.5672   -9.8774   19.6905 C   0  0  0  0  0  0  0  0  0  0  0  0
  -26.1921  -10.6009   17.7104 C   0  0  0  0  0  0  0  0  0  0  0  0
  -23.9291   -9.5396   17.7367 C   0  0  0  0  0  0  0  0  0  0  0  0
  -24.6471  -30.6698   23.2950 C   0  0  0  0  0  0  0  0  0  0  0  0
  -22.1884  -31.5486   21.3702 C   0  0  0  0  0  0  0  0  0  0  0  0
  -20.4826  -31.0785   18.4520 C   0  0  0  0  0  0  0  0  0  0  0  0
  -30.5268  -14.2058   20.0018 C   0  0  0  0  0  0  0  0  0  0  0  0
  -27.1902  -32.6521   27.2524 C   0  0  0  0  0  0  0  0  0  0  0  0
  -25.8295  -31.0189   21.0959 C   0  0  0  0  0  0  0  0  0  0  0  0
  -23.3741  -29.4020   20.7774 C   0  0  0  0  0  0  0  0  0  0  0  0
  -25.7927  -32.8156   26.6603 C   0  0  0  0  0  0  0  0  0  0  0  0
  -30.9364  -11.1856   17.9514 C   0  0  0  0  0  0  0  0  0  0  0  0
  -25.1556  -31.4522   26.4113 C   0  0  0  0  0  0  0  0  0  0  0  0
  -29.5802  -10.4935   18.0931 C   0  0  0  0  0  0  0  0  0  0  0  0
  -27.7250  -16.4660   19.5217 C   0  0  0  0  0  0  0  0  0  0  0  0
  -27.4278  -20.7613   20.9284 C   0  0  0  0  0  0  0  0  0  0  0  0
  -29.2680  -20.4176   19.2429 C   0  0  0  0  0  0  0  0  0  0  0  0
  -31.2934  -12.0011   19.1919 C   0  0  0  0  0  0  0  0  0  0  0  0
  -28.1351  -15.0054   19.6658 C   0  0  0  0  0  0  0  0  0  0  0  0
  -28.9050  -12.2773   19.7439 C   0  0  0  0  0  0  0  0  0  0  0  0
  -27.1874  -19.2582   20.9628 C   0  0  0  0  0  0  0  0  0  0  0  0
  -29.0179  -18.9163   19.2857 C   0  0  0  0  0  0  0  0  0  0  0  0
  -25.9722  -30.6378   25.4007 C   0  0  1  0  0  0  0  0  0  0  0  0
  -24.5783  -31.2866   21.9266 C   0  0  1  0  0  0  0  0  0  0  0  0
  -28.0024  -21.2143   19.5812 C   0  0  0  0  0  0  0  0  0  0  0  0
  -28.4836  -11.4992   18.4896 C   0  0  2  0  0  0  0  0  0  0  0  0
  -28.3259  -17.0757   20.7782 C   0  0  1  0  0  0  0  0  0  0  0  0
  -29.6841  -16.3820   20.9014 C   0  0  1  0  0  0  0  0  0  0  0  0
  -18.4936  -31.9216   17.1752 C   0  0  0  0  0  0  0  0  0  0  0  0
  -30.3289  -17.6908   22.9446 C   0  0  0  0  0  0  0  0  0  0  0  0
  -29.1748  -15.4741   23.1859 C   0  0  0  0  0  0  0  0  0  0  0  0
  -20.3364  -30.0075   23.2424 C   0  0  0  0  0  0  0  0  0  0  0  0
  -18.5858  -30.0761   21.4538 C   0  0  0  0  0  0  0  0  0  0  0  0
  -19.4309  -32.2005   22.4515 C   0  0  0  0  0  0  0  0  0  0  0  0
  -22.1658  -31.9527   16.1801 C   0  0  0  0  0  0  0  0  0  0  0  0
  -28.2924  -22.7135   19.5923 C   0  0  0  0  0  0  0  0  0  0  0  0
  -27.0297  -23.5228   19.3244 C   0  0  0  0  0  0  0  0  0  0  0  0
  -27.3235  -25.0168   19.2933 C   0  0  0  0  0  0  0  0  0  1  0  0
  -20.9204  -30.8876   20.8864 C   0  0  1  0  0  0  0  0  0  0  0  0
  -19.9908  -32.0599   17.4034 C   0  0  2  0  0  0  0  0  0  0  0  0
  -30.1547  -16.2946   22.3485 C   0  0  0  0  0  0  0  0  0  0  0  0
  -19.8440  -30.7816   22.0033 C   0  0  0  0  0  0  0  0  0  0  0  0
  -26.7801  -10.3990   19.8924 N   0  0  0  0  0  0  0  0  0  0  0  0
  -27.1339  -10.8305   18.6698 N   0  0  0  0  0  0  0  0  0  0  0  0
  -23.3594  -30.7815   21.2915 N   0  0  0  0  0  0  0  0  0  0  0  0
  -30.2107  -12.9184   19.5481 N   0  0  0  0  0  0  0  0  0  0  0  0
  -29.4597  -15.0601   20.2951 N   0  0  0  0  0  0  0  0  0  0  0  0
  -26.3858  -10.9714   16.4268 N   0  0  0  0  0  0  0  0  0  0  0  0
  -22.9645   -8.9148   18.5389 N   0  0  0  0  0  0  0  0  0  0  0  0
  -25.7178  -31.1024   24.0539 N   0  0  0  0  0  0  0  0  0  0  0  0
  -20.4909  -31.6388   19.7119 N   0  0  0  0  0  0  0  0  0  0  0  0
  -28.4735  -18.5363   20.6413 N   0  3  0  0  0  0  0  0  0  0  0  0
  -20.6875  -31.8252   16.1071 N   0  3  0  0  0  0  0  0  0  0  0  0
  -23.7073   -9.6849   16.5106 O   0  0  0  0  0  0  0  0  0  0  0  0
  -23.7913  -29.8624   23.6376 O   0  0  0  0  0  0  0  0  0  0  0  0
  -22.1429  -32.7057   21.7955 O   0  0  0  0  0  0  0  0  0  0  0  0
  -20.8217  -29.9286   18.1812 O   0  0  0  0  0  0  0  0  0  0  0  0
  -31.7007  -14.5831   20.1076 O   0  0  0  0  0  0  0  0  0  0  0  0
  -22.7335   -7.6287   23.9544 O   0  0  0  0  0  0  0  0  0  0  0  0
  -26.1263  -25.7389   19.0376 O   0  0  0  0  0  0  0  0  0  1  0  0
  -20.2481   -2.7799   23.1088 F   0  0  0  0  0  0  0  0  0  0  0  0
  -23.3949   -5.4127   25.4692 F   0  0  0  0  0  0  0  0  0  0  0  0
  1  2  1  0  0  0  0
  1  5  2  0  0  0  0
  2  6  2  0  0  0  0
  3  8  2  0  0  0  0
  3 15  1  0  0  0  0
  4  9  1  0  0  0  0
  4 15  2  0  0  0  0
  5 17  1  0  0  0  0
  6 19  1  0  0  0  0
  7 10  2  0  0  0  0
  7 18  1  0  0  0  0
  8 21  1  0  0  0  0
  9 21  2  0  0  0  0
 10 22  1  0  0  0  0
 11 12  2  0  0  0  0
 11 23  1  0  0  0  0
 12 24  1  0  0  0  0
 13 20  1  0  0  0  0
 13 22  2  0  0  0  0
 14 24  2  0  0  0  0
 14 25  1  0  0  0  0
 15 26  1  0  0  0  0
 16 26  1  0  0  0  0
 16 27  2  0  0  0  0
 16 28  1  0  0  0  0
 17 19  2  0  0  0  0
 17 33  1  0  0  0  0
 18 20  2  0  0  0  0
 18 34  1  0  0  0  0
 19 48  1  0  0  0  0
 20 35  1  0  0  0  0
 21 84  1  0  0  0  0
 22 85  1  0  0  0  0
 23 25  2  0  0  0  0
 23 84  1  0  0  0  0
 24 86  1  0  0  0  0
 25 87  1  0  0  0  0
 26 68  2  0  0  0  0
 27 69  1  0  0  0  0
 27 73  1  0  0  0  0
 28 74  1  0  0  0  0
 28 79  2  0  0  0  0
 29 49  1  0  0  0  0
 29 75  1  0  0  0  0
 29 80  2  0  0  0  0
 30 64  1  0  0  0  0
 30 70  1  0  0  0  0
 30 81  2  0  0  0  0
 31 65  1  0  0  0  0
 31 76  1  0  0  0  0
 31 82  2  0  0  0  0
 32 71  1  0  0  0  0
 32 72  1  0  0  0  0
 32 83  2  0  0  0  0
 33 36  1  0  0  0  0
 34 49  1  0  0  0  0
 35 70  1  0  0  0  0
 36 38  1  0  0  0  0
 37 39  1  0  0  0  0
 37 43  1  0  0  0  0
 38 48  1  0  0  0  0
 39 51  1  0  0  0  0
 40 44  1  0  0  0  0
 40 52  1  0  0  0  0
 41 46  1  0  0  0  0
 41 50  1  0  0  0  0
 42 47  1  0  0  0  0
 42 50  1  0  0  0  0
 43 71  1  0  0  0  0
 44 72  1  0  0  0  0
 45 51  1  0  0  0  0
 45 71  1  0  0  0  0
 46 77  1  0  0  0  0
 47 77  1  0  0  0  0
 48 75  1  0  0  0  0
 49 70  1  0  0  0  0
 50 61  1  0  0  0  0
 51 69  1  0  0  0  0
 52 53  1  0  0  0  0
 52 77  1  0  0  0  0
 53 66  1  0  0  0  0
 53 72  1  0  0  0  0
 54 65  1  0  0  0  0
 55 66  1  0  0  0  0
 56 66  1  0  0  0  0
 57 67  1  0  0  0  0
 58 67  1  0  0  0  0
 59 67  1  0  0  0  0
 60 78  1  0  0  0  0
 61 62  1  0  0  0  0
 62 63  1  0  0  0  0
 63 85  1  0  0  0  0
 64 67  1  0  0  0  0
 64 76  1  0  0  0  0
 65 78  1  0  0  0  0
 68 69  1  0  0  0  0
M  CHG  2  77   1  78   1
M  ISO  4  32 100  63 101  72 100  85 101
M  END
> <Batch ID>
0114

> <Smiles>
CNC(C)C(=O)NC(C(=O)N1Cc2cc([101O:1][101CH2:1]CCC3CCN(C4CC[100N:0]([100C:0](=O)N5CCCC(n6nc(-c7ccc(Oc8ccc(F)cc8F)cc7)c(C(N)=O)c6N)C5)C4C(C)C)CC3)ccc2CC1C(=O)NC1CCCc2ccccc21)C(C)(C)C

> <Shape>
0.311

> <Color>
0.087

> <Negative vol penalty>
0.000

$$$$

  -OEChem-04052320083D

 84 92  0     1  0  0  0  0  0999 V2000
  -26.9218  -11.3321   17.8352 C   0  0  0  0  0  0  0  0  0  0  0  0
  -27.2925  -12.6298   17.4975 C   0  0  0  0  0  0  0  0  0  0  0  0
  -25.0313  -27.4009   21.6729 C   0  0  0  0  0  0  0  0  0  0  0  0
  -23.7428  -29.3602   21.0914 C   0  0  0  0  0  0  0  0  0  0  0  0
  -26.0708  -11.1108   18.9172 C   0  0  0  0  0  0  0  0  0  0  0  0
  -26.8116  -13.7070   18.2410 C   0  0  0  0  0  0  0  0  0  0  0  0
  -29.7750  -18.9109   19.5230 C   0  0  0  0  0  0  0  0  0  0  0  0
  -24.0204  -26.9945   22.5437 C   0  0  0  0  0  0  0  0  0  0  0  0
  -22.7318  -28.9538   21.9623 C   0  0  0  0  0  0  0  0  0  0  0  0
  -29.7345  -20.1798   18.9469 C   0  0  0  0  0  0  0  0  0  0  0  0
  -20.1876  -26.7295   21.9576 C   0  0  0  0  0  0  0  0  0  0  0  0
  -18.8717  -26.8055   21.5012 C   0  0  0  0  0  0  0  0  0  0  0  0
  -28.1482  -20.8834   20.6225 C   0  0  0  0  0  0  0  0  0  0  0  0
  -18.3346  -28.3234   23.3024 C   0  0  0  0  0  0  0  0  0  0  0  0
  -24.8925  -28.5838   20.9467 C   0  0  0  0  0  0  0  0  0  0  0  0
  -26.0637  -28.6832   18.6826 C   0  0  0  0  0  0  0  0  0  0  0  0
  -25.5868  -12.1851   19.6802 C   0  0  0  0  0  0  0  0  0  0  0  0
  -28.9928  -18.6150   20.6487 C   0  0  0  0  0  0  0  0  0  0  0  0
  -25.9522  -13.4999   19.3333 C   0  0  0  0  0  0  0  0  0  0  0  0
  -28.1825  -19.6107   21.2127 C   0  0  0  0  0  0  0  0  0  0  0  0
  -22.8706  -27.7709   22.6885 C   0  0  0  0  0  0  0  0  0  0  0  0
  -28.9188  -21.1654   19.4948 C   0  0  0  0  0  0  0  0  0  0  0  0
  -20.5769  -27.4504   23.0865 C   0  0  0  0  0  0  0  0  0  0  0  0
  -17.9452  -27.6025   22.1735 C   0  0  0  0  0  0  0  0  0  0  0  0
  -19.6505  -28.2474   23.7589 C   0  0  0  0  0  0  0  0  0  0  0  0
  -25.9367  -29.0045   20.0473 C   0  0  0  0  0  0  0  0  0  0  0  0
  -27.2128  -29.3220   18.2850 C   0  0  0  0  0  0  0  0  0  0  0  0
  -29.8237  -26.0260   19.7326 C   0  0  0  0  0  0  0  0  0  0  0  0
  -28.7176  -25.9286   18.9783 C   0  0  0  0  0  0  0  0  0  0  0  0
  -25.2185  -27.8794   17.8488 C   0  0  0  0  0  0  0  0  0  0  0  0
  -26.6402  -16.5700   21.2709 C   0  0  0  0  0  0  0  0  0  0  0  0
  -26.9966  -17.6841   24.2965 C   0  0  0  0  0  0  0  0  0  0  0  0
  -28.0340  -20.2020   26.3533 C   0  0  0  0  0  0  0  0  0  0  0  0
  -31.4363  -28.7599   21.5743 C   0  0  0  0  0  0  0  0  0  0  0  0
  -24.6315  -11.8997   20.8118 C   0  0  0  0  0  0  0  0  0  0  0  0
  -29.0681  -17.2492   21.2744 C   0  0  0  0  0  0  0  0  0  0  0  0
  -27.3390  -19.3499   22.4328 C   0  0  0  0  0  0  0  0  0  0  0  0
  -29.8463  -26.8763   20.9767 C   0  0  0  0  0  0  0  0  0  0  0  0
  -24.4655  -13.0694   21.7785 C   0  0  0  0  0  0  0  0  0  0  0  0
  -29.0662  -31.6585   21.9122 C   0  0  0  0  0  0  0  0  0  0  0  0
  -24.2572  -14.3709   21.0109 C   0  0  0  0  0  0  0  0  0  0  0  0
  -28.7830  -32.0071   20.4566 C   0  0  0  0  0  0  0  0  0  0  0  0
  -31.9737  -25.1238   20.6374 C   0  0  0  0  0  0  0  0  0  0  0  0
  -30.3804  -30.9097   22.0741 C   0  0  0  0  0  0  0  0  0  0  0  0
  -32.2691  -26.4625   21.3180 C   0  0  0  0  0  0  0  0  0  0  0  0
  -30.2267  -30.0191   19.7657 C   0  0  0  0  0  0  0  0  0  0  0  0
  -25.4712  -14.6926   20.1308 C   0  0  1  0  0  0  0  0  0  0  0  0
  -31.0959  -25.2742   19.3841 C   0  0  2  0  0  0  0  0  0  0  0  0
  -27.8394  -16.9068   22.1113 C   0  0  1  0  0  0  0  0  0  0  0  0
  -28.9391  -30.8176   19.4961 C   0  0  1  0  0  0  0  0  0  0  0  0
  -28.1611  -20.8396   28.7771 C   0  0  0  0  0  0  0  0  0  0  0  0
  -24.0068  -18.2934   24.2905 C   0  0  0  0  0  0  0  0  0  0  0  0
  -24.3719  -19.7565   26.2891 C   0  0  0  0  0  0  0  0  0  0  0  0
  -24.8679  -17.3156   26.4252 C   0  0  0  0  0  0  0  0  0  0  0  0
  -28.2849  -25.2013   15.2579 C   0  0  0  0  0  0  0  0  0  0  0  0
  -30.9869  -20.3825   26.2706 C   0  0  0  0  0  0  0  0  0  0  0  0
  -31.8574  -25.9648   18.2477 C   0  0  0  0  0  0  0  0  0  0  0  0
  -27.5098  -24.0580   17.8504 C   0  0  0  0  0  0  0  0  0  0  0  0
  -27.6548  -23.1309   19.0531 C   0  0  0  0  0  0  0  0  0  1  0  0
  -28.6306  -25.0997   17.7295 C   0  0  1  0  0  0  0  0  0  0  0  0
  -26.4032  -18.8201   25.0942 C   0  0  1  0  0  0  0  0  0  0  0  0
  -28.8868  -20.1901   27.6091 C   0  0  2  0  0  0  0  0  0  0  0  0
  -24.9267  -18.5511   25.5006 C   0  0  0  0  0  0  0  0  0  0  0  0
  -26.9262  -29.7864   20.4873 N   0  0  0  0  0  0  0  0  0  0  0  0
  -27.6860  -29.9618   19.3927 N   0  0  0  0  0  0  0  0  0  0  0  0
  -27.4422  -17.9971   23.0044 N   0  0  0  0  0  0  0  0  0  0  0  0
  -31.1861  -27.4391   21.1693 N   0  0  0  0  0  0  0  0  0  0  0  0
  -30.5107  -29.7541   21.1836 N   0  0  0  0  0  0  0  0  0  0  0  0
  -27.8546  -29.3931   17.0995 N   0  0  0  0  0  0  0  0  0  0  0  0
  -24.0777  -27.2970   18.4178 N   0  0  0  0  0  0  0  0  0  0  0  0
  -26.5477  -15.2333   20.9328 N   0  0  0  0  0  0  0  0  0  0  0  0
  -27.3026  -19.0406   26.2216 N   0  0  0  0  0  0  0  0  0  0  0  0
  -32.8061  -24.9977   17.6630 N   0  3  0  0  0  0  0  0  0  0  0  0
  -28.3800  -25.9570   16.5314 N   0  3  0  0  0  0  0  0  0  0  0  0
  -30.1602  -20.9288   27.3774 N   0  3  0  0  0  0  0  0  0  0  0  0
  -25.4764  -27.6699   16.6393 O   0  0  0  0  0  0  0  0  0  0  0  0
  -25.8562  -17.4568   20.9539 O   0  0  0  0  0  0  0  0  0  0  0  0
  -27.0688  -16.5620   24.8037 O   0  0  0  0  0  0  0  0  0  0  0  0
  -28.0154  -21.1486   25.5697 O   0  0  0  0  0  0  0  0  0  0  0  0
  -32.4471  -29.0428   22.2322 O   0  0  0  0  0  0  0  0  0  0  0  0
  -21.8839  -27.3745   23.5380 O   0  0  0  0  0  0  0  0  0  0  0  0
  -28.8766  -22.4131   18.9302 O   0  0  0  0  0  0  0  0  0  1  0  0
  -16.6820  -27.6766   21.7342 F   0  0  0  0  0  0  0  0  0  0  0  0
  -20.0189  -28.9432   24.8433 F   0  0  0  0  0  0  0  0  0  0  0  0
  1  2  1  0  0  0  0
  1  5  2  0  0  0  0
  2  6  2  0  0  0  0
  3  8  2  0  0  0  0
  3 15  1  0  0  0  0
  4  9  1  0  0  0  0
  4 15  2  0  0  0  0
  5 17  1  0  0  0  0
  6 19  1  0  0  0  0
  7 10  2  0  0  0  0
  7 18  1  0  0  0  0
  8 21  1  0  0  0  0
  9 21  2  0  0  0  0
 10 22  1  0  0  0  0
 11 12  2  0  0  0  0
 11 23  1  0  0  0  0
 12 24  1  0  0  0  0
 13 20  1  0  0  0  0
 13 22  2  0  0  0  0
 14 24  2  0  0  0  0
 14 25  1  0  0  0  0
 15 26  1  0  0  0  0
 16 26  1  0  0  0  0
 16 27  2  0  0  0  0
 16 30  1  0  0  0  0
 17 19  2  0  0  0  0
 17 35  1  0  0  0  0
 18 20  2  0  0  0  0
 18 36  1  0  0  0  0
 19 47  1  0  0  0  0
 20 37  1  0  0  0  0
 21 81  1  0  0  0  0
 22 82  1  0  0  0  0
 23 25  2  0  0  0  0
 23 81  1  0  0  0  0
 24 83  1  0  0  0  0
 25 84  1  0  0  0  0
 26 64  2  0  0  0  0
 27 65  1  0  0  0  0
 27 69  1  0  0  0  0
 28 29  2  0  0  0  0
 28 38  1  0  0  0  0
 28 48  1  0  0  0  0
 29 60  1  0  0  0  0
 30 70  1  0  0  0  0
 30 76  2  0  0  0  0
 31 49  1  0  0  0  0
 31 71  1  0  0  0  0
 31 77  2  0  0  0  0
 32 61  1  0  0  0  0
 32 66  1  0  0  0  0
 32 78  2  0  0  0  0
 33 62  1  0  0  0  0
 33 72  1  0  0  0  0
 33 79  2  0  0  0  0
 34 67  1  0  0  0  0
 34 68  1  0  0  0  0
 34 80  2  0  0  0  0
 35 39  1  0  0  0  0
 36 49  1  0  0  0  0
 37 66  1  0  0  0  0
 38 67  1  0  0  0  0
 39 41  1  0  0  0  0
 40 42  1  0  0  0  0
 40 44  1  0  0  0  0
 41 47  1  0  0  0  0
 42 50  1  0  0  0  0
 43 45  1  0  0  0  0
 43 48  1  0  0  0  0
 44 68  1  0  0  0  0
 45 67  1  0  0  0  0
 46 50  1  0  0  0  0
 46 68  1  0  0  0  0
 47 71  1  0  0  0  0
 48 57  1  0  0  0  0
 49 66  1  0  0  0  0
 50 65  1  0  0  0  0
 51 62  1  0  0  0  0
 52 63  1  0  0  0  0
 53 63  1  0  0  0  0
 54 63  1  0  0  0  0
 55 74  1  0  0  0  0
 56 75  1  0  0  0  0
 57 73  1  0  0  0  0
 58 59  1  0  0  0  0
 58 60  1  0  0  0  0
 59 82  1  0  0  0  0
 60 74  1  0  0  0  0
 61 63  1  0  0  0  0
 61 72  1  0  0  0  0
 62 75  1  0  0  0  0
 64 65  1  0  0  0  0
M  CHG  3  73   1  74   1  75   1
M  ISO  4  34 100  59 101  67 100  82 101
M  END
> <Batch ID>
0114

> <Smiles>
CNC(C=C1C[100N:0]([100C:0](=O)N2CCCC(n3nc(-c4ccc(Oc5ccc(F)cc5F)cc4)c(C(N)=O)c3N)C2)CCC1CN)C[101CH2:1][101O:1]c1ccc2c(c1)CN(C(=O)C(NC(=O)C(C)NC)C(C)(C)C)C(C(=O)NC1CCCc3ccccc31)C2

> <Shape>
0.225

> <Color>
0.048

> <Negative vol penalty>
0.000

$$$$

  -OEChem-04052320083D

 86 94  0     1  0  0  0  0  0999 V2000
  -18.0225  -25.3743   21.5124 C   0  0  0  0  0  0  0  0  0  0  0  0
  -19.3987  -25.2454   21.3551 C   0  0  0  0  0  0  0  0  0  0  0  0
  -24.8974   -9.1534   20.2801 C   0  0  0  0  0  0  0  0  0  0  0  0
  -24.3940   -9.8259   22.5454 C   0  0  0  0  0  0  0  0  0  0  0  0
  -17.4380  -26.6401   21.5160 C   0  0  0  0  0  0  0  0  0  0  0  0
  -20.1912  -26.3823   21.2002 C   0  0  0  0  0  0  0  0  0  0  0  0
  -24.3907  -26.2230   24.0258 C   0  0  0  0  0  0  0  0  0  0  0  0
  -24.6095   -7.8289   20.6093 C   0  0  0  0  0  0  0  0  0  0  0  0
  -24.1061   -8.5014   22.8746 C   0  0  0  0  0  0  0  0  0  0  0  0
  -25.4423  -25.4352   23.5596 C   0  0  0  0  0  0  0  0  0  0  0  0
  -22.8903   -5.3498   24.2189 C   0  0  0  0  0  0  0  0  0  0  0  0
  -21.7405   -5.1023   24.9688 C   0  0  0  0  0  0  0  0  0  0  0  0
  -26.5352  -27.4095   22.7070 C   0  0  0  0  0  0  0  0  0  0  0  0
  -20.3906   -6.0878   23.2242 C   0  0  0  0  0  0  0  0  0  0  0  0
  -28.7555  -20.8336   21.2297 C   0  0  0  0  0  0  0  0  0  0  0  0
  -24.7897  -10.1520   21.2481 C   0  0  0  0  0  0  0  0  0  0  0  0
  -24.1905  -12.4899   20.4219 C   0  0  0  0  0  0  0  0  0  0  0  0
  -18.2248  -27.7936   21.3707 C   0  0  0  0  0  0  0  0  0  0  0  0
  -24.3982  -27.6110   23.8262 C   0  0  0  0  0  0  0  0  0  0  0  0
  -19.6165  -27.6646   21.2005 C   0  0  0  0  0  0  0  0  0  0  0  0
  -25.4837  -28.2129   23.1739 C   0  0  0  0  0  0  0  0  0  0  0  0
  -29.0856  -21.5435   20.0964 C   0  0  0  0  0  0  0  0  0  0  0  0
  -30.4420  -21.2609   19.8004 C   0  0  0  0  0  0  0  0  0  0  0  0
  -24.2139   -7.5029   21.9065 C   0  0  0  0  0  0  0  0  0  0  0  0
  -26.5134  -26.0281   22.8975 C   0  0  0  0  0  0  0  0  0  0  0  0
  -22.7903   -5.9663   22.9717 C   0  0  0  0  0  0  0  0  0  0  0  0
  -20.4907   -5.4713   24.4714 C   0  0  0  0  0  0  0  0  0  0  0  0
  -21.5405   -6.3353   22.4743 C   0  0  0  0  0  0  0  0  0  0  0  0
  -25.0874  -11.5203   20.9088 C   0  0  0  0  0  0  0  0  0  0  0  0
  -30.8993  -20.3868   20.7617 C   0  0  0  0  0  0  0  0  0  0  0  0
  -24.9584  -13.6169   20.2589 C   0  0  0  0  0  0  0  0  0  0  0  0
  -22.7885  -12.3815   20.1421 C   0  0  0  0  0  0  0  0  0  0  0  0
  -22.5314  -29.6644   22.2762 C   0  0  0  0  0  0  0  0  0  0  0  0
  -24.4683  -31.8683   23.6594 C   0  0  0  0  0  0  0  0  0  0  0  0
  -27.5005  -32.5979   25.0452 C   0  0  0  0  0  0  0  0  0  0  0  0
  -28.6704  -17.1180   22.3586 C   0  0  0  0  0  0  0  0  0  0  0  0
  -17.5422  -29.1380   21.3335 C   0  0  0  0  0  0  0  0  0  0  0  0
  -23.2690  -28.4498   24.3587 C   0  0  0  0  0  0  0  0  0  0  0  0
  -25.5494  -29.7012   22.9521 C   0  0  0  0  0  0  0  0  0  0  0  0
  -18.4966  -30.3115   21.5391 C   0  0  0  0  0  0  0  0  0  0  0  0
  -29.9537  -14.2623   20.3880 C   0  0  0  0  0  0  0  0  0  0  0  0
  -19.7416  -30.1451   20.6737 C   0  0  0  0  0  0  0  0  0  0  0  0
  -28.7317  -13.3495   20.3669 C   0  0  0  0  0  0  0  0  0  0  0  0
  -30.0508  -15.0628   21.6860 C   0  0  0  0  0  0  0  0  0  0  0  0
  -27.5907  -14.9245   21.9754 C   0  0  0  0  0  0  0  0  0  0  0  0
  -20.5125  -28.8754   21.0545 C   0  0  1  0  0  0  0  0  0  0  0  0
  -23.1344  -29.7922   23.6465 C   0  0  1  0  0  0  0  0  0  0  0  0
  -27.4536  -14.1509   20.6554 C   0  0  2  0  0  0  0  0  0  0  0  0
  -31.2240  -21.8026   18.6699 C   0  0  0  0  0  0  0  0  0  0  0  0
  -26.9203  -21.7309   18.8046 C   0  0  0  0  0  0  0  0  0  0  0  0
  -33.3493  -20.8081   21.1785 C   0  0  0  0  0  0  0  0  0  0  0  0
  -32.6306  -18.8598   19.7493 C   0  0  0  0  0  0  0  0  0  0  0  0
  -28.8023  -34.4935   26.0500 C   0  0  0  0  0  0  0  0  0  0  0  0
  -24.9453  -33.0149   20.8724 C   0  0  0  0  0  0  0  0  0  0  0  0
  -26.9262  -34.2396   21.7912 C   0  0  0  0  0  0  0  0  0  0  0  0
  -24.6427  -34.7292   22.6679 C   0  0  0  0  0  0  0  0  0  0  0  0
  -27.7541  -31.2005   27.6417 C   0  0  0  0  0  0  0  0  0  0  0  0
  -28.8132  -24.5383   20.5328 C   0  0  0  0  0  0  0  0  0  0  0  0
  -28.2273  -25.7216   21.2775 C   0  0  0  0  0  0  0  0  0  1  0  0
  -29.9212  -19.2311   22.8273 C   0  0  0  0  0  0  0  0  0  0  0  0
  -28.1620  -22.4538   19.3205 C   0  0  1  0  0  0  0  0  0  0  0  0
  -32.2315  -19.7694   20.9334 C   0  0  0  0  0  0  0  0  0  0  0  0
  -25.7620  -32.5454   23.2762 C   0  0  1  0  0  0  0  0  0  0  0  0
  -27.8746  -33.3206   26.3267 C   0  0  2  0  0  0  0  0  0  0  0  0
  -25.5672  -33.6040   22.1542 C   0  0  0  0  0  0  0  0  0  0  0  0
  -26.3302  -11.9902   21.0460 N   0  0  0  0  0  0  0  0  0  0  0  0
  -29.8655  -20.1338   21.6251 N   0  0  0  0  0  0  0  0  0  0  0  0
  -26.2196  -13.2674   20.6427 N   0  0  0  0  0  0  0  0  0  0  0  0
  -24.4183  -30.4779   23.4857 N   0  0  0  0  0  0  0  0  0  0  0  0
  -28.7938  -15.7658   21.9878 N   0  0  0  0  0  0  0  0  0  0  0  0
  -24.6711  -14.8629   19.8259 N   0  0  0  0  0  0  0  0  0  0  0  0
  -22.1556  -11.1512   20.3659 N   0  0  0  0  0  0  0  0  0  0  0  0
  -21.2742  -29.0909   22.2661 N   0  0  0  0  0  0  0  0  0  0  0  0
  -26.3242  -33.0805   24.5115 N   0  0  0  0  0  0  0  0  0  0  0  0
  -29.8625  -17.8281   22.4485 N   0  0  0  0  0  0  0  0  0  0  0  0
  -28.5620  -32.3890   27.2651 N   0  3  0  0  0  0  0  0  0  0  0  0
  -27.7155  -23.6305   20.1142 N   0  3  0  0  0  0  0  0  0  0  0  0
  -22.1203  -13.3425   19.6909 O   0  0  0  0  0  0  0  0  0  0  0  0
  -23.1595  -30.0583   21.3005 O   0  0  0  0  0  0  0  0  0  0  0  0
  -23.5390  -32.5471   24.1035 O   0  0  0  0  0  0  0  0  0  0  0  0
  -28.1853  -31.6981   24.5637 O   0  0  0  0  0  0  0  0  0  0  0  0
  -27.5800  -17.6470   22.5989 O   0  0  0  0  0  0  0  0  0  0  0  0
  -23.9327   -6.2106   22.2281 O   0  0  0  0  0  0  0  0  0  0  0  0
  -27.5408  -25.2615   22.4409 O   0  0  0  0  0  0  0  0  0  1  0  0
  -19.3865   -5.2322   25.1910 F   0  0  0  0  0  0  0  0  0  0  0  0
  -21.4379   -6.9268   21.2762 F   0  0  0  0  0  0  0  0  0  0  0  0
  1  2  1  0  0  0  0
  1  5  2  0  0  0  0
  2  6  2  0  0  0  0
  3  8  2  0  0  0  0
  3 16  1  0  0  0  0
  4  9  1  0  0  0  0
  4 16  2  0  0  0  0
  5 18  1  0  0  0  0
  6 20  1  0  0  0  0
  7 10  2  0  0  0  0
  7 19  1  0  0  0  0
  8 24  1  0  0  0  0
  9 24  2  0  0  0  0
 10 25  1  0  0  0  0
 11 12  2  0  0  0  0
 11 26  1  0  0  0  0
 12 27  1  0  0  0  0
 13 21  1  0  0  0  0
 13 25  2  0  0  0  0
 14 27  2  0  0  0  0
 14 28  1  0  0  0  0
 15 22  2  0  0  0  0
 15 67  1  0  0  0  0
 16 29  1  0  0  0  0
 17 29  1  0  0  0  0
 17 31  2  0  0  0  0
 17 32  1  0  0  0  0
 18 20  2  0  0  0  0
 18 37  1  0  0  0  0
 19 21  2  0  0  0  0
 19 38  1  0  0  0  0
 20 46  1  0  0  0  0
 21 39  1  0  0  0  0
 22 23  1  0  0  0  0
 22 61  1  0  0  0  0
 23 30  2  0  0  0  0
 23 49  1  0  0  0  0
 24 83  1  0  0  0  0
 25 84  1  0  0  0  0
 26 28  2  0  0  0  0
 26 83  1  0  0  0  0
 27 85  1  0  0  0  0
 28 86  1  0  0  0  0
 29 66  2  0  0  0  0
 30 62  1  0  0  0  0
 30 67  1  0  0  0  0
 31 68  1  0  0  0  0
 31 71  1  0  0  0  0
 32 72  1  0  0  0  0
 32 78  2  0  0  0  0
 33 47  1  0  0  0  0
 33 73  1  0  0  0  0
 33 79  2  0  0  0  0
 34 63  1  0  0  0  0
 34 69  1  0  0  0  0
 34 80  2  0  0  0  0
 35 64  1  0  0  0  0
 35 74  1  0  0  0  0
 35 81  2  0  0  0  0
 36 70  1  0  0  0  0
 36 75  1  0  0  0  0
 36 82  2  0  0  0  0
 37 40  1  0  0  0  0
 38 47  1  0  0  0  0
 39 69  1  0  0  0  0
 40 42  1  0  0  0  0
 41 43  1  0  0  0  0
 41 44  1  0  0  0  0
 42 46  1  0  0  0  0
 43 48  1  0  0  0  0
 44 70  1  0  0  0  0
 45 48  1  0  0  0  0
 45 70  1  0  0  0  0
 46 73  1  0  0  0  0
 47 69  1  0  0  0  0
 48 68  1  0  0  0  0
 50 61  1  0  0  0  0
 51 62  1  0  0  0  0
 52 62  1  0  0  0  0
 53 64  1  0  0  0  0
 54 65  1  0  0  0  0
 55 65  1  0  0  0  0
 56 65  1  0  0  0  0
 57 76  1  0  0  0  0
 58 59  1  0  0  0  0
 58 77  1  0  0  0  0
 59 84  1  0  0  0  0
 60 67  1  0  0  0  0
 60 75  1  0  0  0  0
 61 77  1  0  0  0  0
 63 65  1  0  0  0  0
 63 74  1  0  0  0  0
 64 76  1  0  0  0  0
 66 68  1  0  0  0  0
M  CHG  2  76   1  77   1
M  ISO  4  36 100  59 101  75 100  84 101
M  END
> <Batch ID>
0114

> <Smiles>
CNC(C)C(=O)NC(C(=O)N1Cc2cc([101O:1][101CH2:1]CNC(C)c3cn(C[100NH:0][100C:0](=O)N4CCCC(n5nc(-c6ccc(Oc7ccc(F)cc7F)cc6)c(C(N)=O)c5N)C4)c(C(C)C)c3C)ccc2CC1C(=O)NC1CCCc2ccccc21)C(C)(C)C

> <Shape>
0.308

> <Color>
0.103

> <Negative vol penalty>
0.000

$$$$

  -OEChem-04052320083D

 83 91  0     1  0  0  0  0  0999 V2000
  -28.6882  -28.7106   10.6595 C   0  0  0  0  0  0  0  0  0  0  0  0
  -28.5011  -27.7753   11.6722 C   0  0  0  0  0  0  0  0  0  0  0  0
  -22.6103  -10.2743   20.2083 C   0  0  0  0  0  0  0  0  0  0  0  0
  -24.2836   -9.4167   21.7254 C   0  0  0  0  0  0  0  0  0  0  0  0
  -29.6837  -28.5118    9.7037 C   0  0  0  0  0  0  0  0  0  0  0  0
  -29.3087  -26.6400   11.7291 C   0  0  0  0  0  0  0  0  0  0  0  0
  -30.9552  -25.6602   16.4168 C   0  0  0  0  0  0  0  0  0  0  0  0
  -21.8693   -9.1028   20.3632 C   0  0  0  0  0  0  0  0  0  0  0  0
  -23.5425   -8.2451   21.8804 C   0  0  0  0  0  0  0  0  0  0  0  0
  -30.0560  -25.0557   17.2941 C   0  0  0  0  0  0  0  0  0  0  0  0
  -23.0032   -5.3912   20.1498 C   0  0  0  0  0  0  0  0  0  0  0  0
  -23.6897   -4.1782   20.0958 C   0  0  0  0  0  0  0  0  0  0  0  0
  -31.0973  -22.9195   16.8799 C   0  0  0  0  0  0  0  0  0  0  0  0
  -22.9582   -3.6642   22.3403 C   0  0  0  0  0  0  0  0  0  0  0  0
  -23.8175  -10.4312   20.8894 C   0  0  0  0  0  0  0  0  0  0  0  0
  -24.1732  -12.9534   21.0308 C   0  0  0  0  0  0  0  0  0  0  0  0
  -30.5102  -27.3783    9.7546 C   0  0  0  0  0  0  0  0  0  0  0  0
  -31.9269  -24.8958   15.7549 C   0  0  0  0  0  0  0  0  0  0  0  0
  -30.3153  -26.4251   10.7724 C   0  0  0  0  0  0  0  0  0  0  0  0
  -32.0093  -23.5171   15.9966 C   0  0  0  0  0  0  0  0  0  0  0  0
  -22.3354   -8.0882   21.1992 C   0  0  0  0  0  0  0  0  0  0  0  0
  -30.1251  -23.6847   17.5236 C   0  0  0  0  0  0  0  0  0  0  0  0
  -22.2942   -5.7407   21.2991 C   0  0  0  0  0  0  0  0  0  0  0  0
  -23.6672   -3.3147   21.1910 C   0  0  0  0  0  0  0  0  0  0  0  0
  -22.2716   -4.8772   22.3943 C   0  0  0  0  0  0  0  0  0  0  0  0
  -24.5837  -11.6410   20.7293 C   0  0  0  0  0  0  0  0  0  0  0  0
  -25.2541  -13.7350   20.7034 C   0  0  0  0  0  0  0  0  0  0  0  0
  -22.9264  -13.4239   21.5597 C   0  0  0  0  0  0  0  0  0  0  0  0
  -32.5774  -24.2414   12.7132 C   0  0  0  0  0  0  0  0  0  0  0  0
  -35.1818  -22.7877   13.9887 C   0  0  0  0  0  0  0  0  0  0  0  0
  -36.6342  -21.2986   16.6942 C   0  0  0  0  0  0  0  0  0  0  0  0
  -30.7485  -14.7115   20.7578 C   0  0  0  0  0  0  0  0  0  0  0  0
  -31.5418  -27.1829    8.6718 C   0  0  0  0  0  0  0  0  0  0  0  0
  -32.9066  -25.5673   14.8320 C   0  0  0  0  0  0  0  0  0  0  0  0
  -33.0469  -22.6551   15.3266 C   0  0  0  0  0  0  0  0  0  0  0  0
  -32.6014  -26.1409    9.0209 C   0  0  0  0  0  0  0  0  0  0  0  0
  -29.4889  -12.6059   18.1778 C   0  0  0  0  0  0  0  0  0  0  0  0
  -31.9480  -24.8841    9.5870 C   0  0  0  0  0  0  0  0  0  0  0  0
  -28.0696  -12.2707   18.6396 C   0  0  0  0  0  0  0  0  0  0  0  0
  -30.4595  -12.6913   19.3536 C   0  0  0  0  0  0  0  0  0  0  0  0
  -28.6262  -13.2716   20.8950 C   0  0  0  0  0  0  0  0  0  0  0  0
  -31.2829  -19.1941   21.8975 C   0  0  0  0  0  0  0  0  0  0  0  0
  -28.6628  -19.4087   20.7190 C   0  0  0  0  0  0  0  0  0  0  0  0
  -31.1875  -25.1933   10.8822 C   0  0  1  0  0  0  0  0  0  0  0  0
  -33.5259  -24.6095   13.8189 C   0  0  1  0  0  0  0  0  0  0  0  0
  -27.5999  -13.2298   19.7499 C   0  0  2  0  0  0  0  0  0  0  0  0
  -29.4334  -20.6332   21.2323 C   0  0  2  0  0  0  0  0  0  0  0  0
  -30.5565  -17.9475   21.3901 C   0  0  1  0  0  0  0  0  0  0  0  0
  -38.7574  -20.1758   17.4212 C   0  0  0  0  0  0  0  0  0  0  0  0
  -33.0489  -21.5167   20.9688 C   0  0  0  0  0  0  0  0  0  0  0  0
  -31.7727  -21.4708   23.1402 C   0  0  0  0  0  0  0  0  0  0  0  0
  -34.3756  -20.2761   12.4552 C   0  0  0  0  0  0  0  0  0  0  0  0
  -35.9226  -18.9665   13.9250 C   0  0  0  0  0  0  0  0  0  0  0  0
  -36.8291  -20.7605   12.4477 C   0  0  0  0  0  0  0  0  0  0  0  0
  -37.1312  -23.3337   18.7848 C   0  0  0  0  0  0  0  0  0  0  0  0
  -28.9805  -21.8500   20.4134 C   0  0  0  0  0  0  0  0  0  0  0  0
  -30.8852  -16.7136   22.2180 C   0  0  0  0  0  0  0  0  0  0  0  0
  -29.7046  -21.9350   19.0785 C   0  0  0  0  0  0  0  0  0  1  0  0
  -35.4905  -21.3995   14.4951 C   0  0  1  0  0  0  0  0  0  0  0  0
  -37.9952  -21.4892   17.3390 C   0  0  2  0  0  0  0  0  0  0  0  0
  -31.6753  -21.5427   21.6233 C   0  0  0  0  0  0  0  0  0  0  0  0
  -35.6335  -20.3663   13.3420 C   0  0  0  0  0  0  0  0  0  0  0  0
  -25.8282  -11.5879   20.2472 N   0  0  0  0  0  0  0  0  0  0  0  0
  -26.2090  -12.8767   20.2432 N   0  0  0  0  0  0  0  0  0  0  0  0
  -33.9782  -23.3572   14.4281 N   0  0  0  0  0  0  0  0  0  0  0  0
  -29.9563  -13.6182   20.3703 N   0  0  0  0  0  0  0  0  0  0  0  0
  -30.8931  -20.4000   21.1432 N   0  0  1  0  0  0  0  0  0  0  0  0
  -25.4714  -15.0658   20.7669 N   0  0  0  0  0  0  0  0  0  0  0  0
  -22.7833  -13.5171   22.9508 N   0  0  0  0  0  0  0  0  0  0  0  0
  -32.1087  -25.3221   11.9909 N   0  0  0  0  0  0  0  0  0  0  0  0
  -36.6767  -21.5257   15.3349 N   0  0  0  0  0  0  0  0  0  0  0  0
  -30.1941  -15.5443   21.7221 N   0  0  0  0  0  0  0  0  0  0  0  0
  -29.0847  -18.1977   21.4781 N   0  3  0  0  0  0  0  0  0  0  0  0
  -37.8433  -22.0315   18.7188 N   0  3  0  0  0  0  0  0  0  0  0  0
  -21.9618  -13.7363   20.8210 O   0  0  0  0  0  0  0  0  0  0  0  0
  -32.2931  -23.0638   12.5281 O   0  0  0  0  0  0  0  0  0  0  0  0
  -35.9825  -23.3492   13.2368 O   0  0  0  0  0  0  0  0  0  0  0  0
  -35.6341  -20.9766   17.3320 O   0  0  0  0  0  0  0  0  0  0  0  0
  -31.8648  -14.9323   20.2760 O   0  0  0  0  0  0  0  0  0  0  0  0
  -21.6125   -6.9450   21.3508 O   0  0  0  0  0  0  0  0  0  0  0  0
  -29.2482  -23.0920   18.3790 O   0  0  0  0  0  0  0  0  0  1  0  0
  -24.3253   -2.1492   21.1384 F   0  0  0  0  0  0  0  0  0  0  0  0
  -21.5913   -5.2070   23.5007 F   0  0  0  0  0  0  0  0  0  0  0  0
  1  2  1  0  0  0  0
  1  5  2  0  0  0  0
  2  6  2  0  0  0  0
  3  8  2  0  0  0  0
  3 15  1  0  0  0  0
  4  9  1  0  0  0  0
  4 15  2  0  0  0  0
  5 17  1  0  0  0  0
  6 19  1  0  0  0  0
  7 10  2  0  0  0  0
  7 18  1  0  0  0  0
  8 21  1  0  0  0  0
  9 21  2  0  0  0  0
 10 22  1  0  0  0  0
 11 12  2  0  0  0  0
 11 23  1  0  0  0  0
 12 24  1  0  0  0  0
 13 20  1  0  0  0  0
 13 22  2  0  0  0  0
 14 24  2  0  0  0  0
 14 25  1  0  0  0  0
 15 26  1  0  0  0  0
 16 26  1  0  0  0  0
 16 27  2  0  0  0  0
 16 28  1  0  0  0  0
 17 19  2  0  0  0  0
 17 33  1  0  0  0  0
 18 20  2  0  0  0  0
 18 34  1  0  0  0  0
 19 44  1  0  0  0  0
 20 35  1  0  0  0  0
 21 80  1  0  0  0  0
 22 81  1  0  0  0  0
 23 25  2  0  0  0  0
 23 80  1  0  0  0  0
 24 82  1  0  0  0  0
 25 83  1  0  0  0  0
 26 63  2  0  0  0  0
 27 64  1  0  0  0  0
 27 68  1  0  0  0  0
 28 69  1  0  0  0  0
 28 75  2  0  0  0  0
 29 45  1  0  0  0  0
 29 70  1  0  0  0  0
 29 76  2  0  0  0  0
 30 59  1  0  0  0  0
 30 65  1  0  0  0  0
 30 77  2  0  0  0  0
 31 60  1  0  0  0  0
 31 71  1  0  0  0  0
 31 78  2  0  0  0  0
 32 66  1  0  0  0  0
 32 72  1  0  0  0  0
 32 79  2  0  0  0  0
 33 36  1  0  0  0  0
 34 45  1  0  0  0  0
 35 65  1  0  0  0  0
 36 38  1  0  0  0  0
 37 39  1  0  0  0  0
 37 40  1  0  0  0  0
 38 44  1  0  0  0  0
 39 46  1  0  0  0  0
 40 66  1  0  0  0  0
 41 46  1  0  0  0  0
 41 66  1  0  0  0  0
 42 48  1  0  0  0  0
 42 67  1  0  0  0  0
 43 47  1  0  0  0  0
 43 73  1  0  0  0  0
 44 70  1  0  0  0  0
 45 65  1  0  0  0  0
 46 64  1  0  0  0  0
 47 56  1  0  0  0  0
 47 67  1  0  0  0  0
 48 57  1  0  0  0  0
 48 73  1  0  0  0  0
 49 60  1  0  0  0  0
 50 61  1  0  0  0  0
 51 61  1  0  0  0  0
 52 62  1  0  0  0  0
 53 62  1  0  0  0  0
 54 62  1  0  0  0  0
 55 74  1  0  0  0  0
 56 58  1  0  0  0  0
 57 72  1  0  0  0  0
 58 81  1  0  0  0  0
 59 62  1  0  0  0  0
 59 71  1  0  0  0  0
 60 74  1  0  0  0  0
 61 67  1  0  0  0  0
 63 64  1  0  0  0  0
M  CHG  2  73   1  74   1
M  ISO  4  32 100  58 101  72 100  81 101
M  END
> <Batch ID>
0114

> <Smiles>
CNC(C)C(=O)NC(C(=O)N1Cc2cc([101O:1][101CH2:1]CC3CNC(C[100NH:0][100C:0](=O)N4CCCC(n5nc(-c6ccc(Oc7ccc(F)cc7F)cc6)c(C(N)=O)c5N)C4)CN3C(C)C)ccc2CC1C(=O)NC1CCCc2ccccc21)C(C)(C)C

> <Shape>
0.226

> <Color>
0.176

> <Negative vol penalty>
0.000

$$$$

  -OEChem-04052320083D

 80 88  0     1  0  0  0  0  0999 V2000
  -32.1615  -29.4864   18.0066 C   0  0  0  0  0  0  0  0  0  0  0  0
  -31.5367  -28.3510   18.5124 C   0  0  0  0  0  0  0  0  0  0  0  0
  -23.0664   -9.8853   19.9357 C   0  0  0  0  0  0  0  0  0  0  0  0
  -23.8370   -9.8713   22.2254 C   0  0  0  0  0  0  0  0  0  0  0  0
  -31.4097  -30.4609   17.3515 C   0  0  0  0  0  0  0  0  0  0  0  0
  -30.1596  -28.1898   18.3643 C   0  0  0  0  0  0  0  0  0  0  0  0
  -28.8982  -23.5115   16.8922 C   0  0  0  0  0  0  0  0  0  0  0  0
  -22.3183   -8.7338   20.1804 C   0  0  0  0  0  0  0  0  0  0  0  0
  -23.0888   -8.7198   22.4702 C   0  0  0  0  0  0  0  0  0  0  0  0
  -28.9027  -22.5145   17.8666 C   0  0  0  0  0  0  0  0  0  0  0  0
  -19.8597   -7.9326   23.0818 C   0  0  0  0  0  0  0  0  0  0  0  0
  -19.1081   -7.8874   24.2559 C   0  0  0  0  0  0  0  0  0  0  0  0
  -26.5054  -22.7011   18.0602 C   0  0  0  0  0  0  0  0  0  0  0  0
  -20.3437   -5.9386   24.9718 C   0  0  0  0  0  0  0  0  0  0  0  0
  -23.8258  -10.4540   20.9582 C   0  0  0  0  0  0  0  0  0  0  0  0
  -24.1791  -12.9784   20.8557 C   0  0  0  0  0  0  0  0  0  0  0  0
  -30.0242  -30.3071   17.1868 C   0  0  0  0  0  0  0  0  0  0  0  0
  -27.6964  -24.1196   16.5016 C   0  0  0  0  0  0  0  0  0  0  0  0
  -29.3884  -29.1638   17.7075 C   0  0  0  0  0  0  0  0  0  0  0  0
  -26.4880  -23.7039   17.0788 C   0  0  0  0  0  0  0  0  0  0  0  0
  -22.3294   -8.1511   21.4476 C   0  0  0  0  0  0  0  0  0  0  0  0
  -27.7066  -22.1111   18.4529 C   0  0  0  0  0  0  0  0  0  0  0  0
  -20.8533   -6.9808   22.8526 C   0  0  0  0  0  0  0  0  0  0  0  0
  -19.3501   -6.8904   25.2009 C   0  0  0  0  0  0  0  0  0  0  0  0
  -21.0953   -5.9838   23.7976 C   0  0  0  0  0  0  0  0  0  0  0  0
  -24.5993  -11.6432   20.7059 C   0  0  0  0  0  0  0  0  0  0  0  0
  -25.2731  -13.7255   20.4930 C   0  0  0  0  0  0  0  0  0  0  0  0
  -22.9130  -13.4970   21.2845 C   0  0  0  0  0  0  0  0  0  0  0  0
  -26.5438  -27.0801   16.6033 C   0  0  0  0  0  0  0  0  0  0  0  0
  -24.0998  -25.7695   14.9207 C   0  0  0  0  0  0  0  0  0  0  0  0
  -22.3248  -22.9757   14.0896 C   0  0  0  0  0  0  0  0  0  0  0  0
  -30.7624  -14.7172   20.6633 C   0  0  0  0  0  0  0  0  0  0  0  0
  -29.2464  -31.4097   16.5131 C   0  0  0  0  0  0  0  0  0  0  0  0
  -27.7054  -25.1749   15.4299 C   0  0  0  0  0  0  0  0  0  0  0  0
  -25.1686  -24.3108   16.6800 C   0  0  0  0  0  0  0  0  0  0  0  0
  -27.8490  -30.9855   16.0685 C   0  0  0  0  0  0  0  0  0  0  0  0
  -29.6024  -12.3563   18.2639 C   0  0  0  0  0  0  0  0  0  0  0  0
  -27.1416  -30.2243   17.1852 C   0  0  0  0  0  0  0  0  0  0  0  0
  -28.1656  -12.0661   18.7014 C   0  0  0  0  0  0  0  0  0  0  0  0
  -28.9562  -19.2012   18.6797 C   0  0  0  0  0  0  0  0  0  0  0  0
  -26.8553  -18.9948   20.0618 C   0  0  0  0  0  0  0  0  0  0  0  0
  -30.5262  -12.5637   19.4621 C   0  0  0  0  0  0  0  0  0  0  0  0
  -28.6344  -13.2931   20.8631 C   0  0  0  0  0  0  0  0  0  0  0  0
  -29.7935  -19.0724   19.9475 C   0  0  0  0  0  0  0  0  0  0  0  0
  -27.7059  -18.8646   21.3210 C   0  0  0  0  0  0  0  0  0  0  0  0
  -27.9004  -28.9413   17.5449 C   0  0  1  0  0  0  0  0  0  0  0  0
  -26.4827  -26.0860   15.4783 C   0  0  1  0  0  0  0  0  0  0  0  0
  -27.6539  -13.1321   19.6888 C   0  0  2  0  0  0  0  0  0  0  0  0
  -27.5644  -19.7877   18.9558 C   0  0  0  0  0  0  0  0  0  1  0  0
  -26.7189  -19.8062   17.6816 C   0  0  0  0  0  0  0  0  0  0  0  0
  -20.3587  -22.2251   12.7227 C   0  0  0  0  0  0  0  0  0  0  0  0
  -22.2055  -26.9135   17.0214 C   0  0  0  0  0  0  0  0  0  0  0  0
  -20.4310  -25.3715   16.1601 C   0  0  0  0  0  0  0  0  0  0  0  0
  -21.3958  -27.1190   14.6641 C   0  0  0  0  0  0  0  0  0  0  0  0
  -24.0111  -21.2008   12.4268 C   0  0  0  0  0  0  0  0  0  0  0  0
  -30.8442  -16.8580   21.9162 C   0  0  0  0  0  0  0  0  0  0  0  0
  -29.8713  -17.9894   22.1909 C   0  0  0  0  0  0  0  0  0  0  0  0
  -22.7929  -25.1030   15.2770 C   0  0  1  0  0  0  0  0  0  0  0  0
  -21.8645  -22.4370   12.7471 C   0  0  2  0  0  0  0  0  0  0  0  0
  -21.7312  -26.1165   15.7898 C   0  0  0  0  0  0  0  0  0  0  0  0
  -25.8618  -11.5446   20.2810 N   0  0  0  0  0  0  0  0  0  0  0  0
  -26.2442  -12.8273   20.1606 N   0  0  0  0  0  0  0  0  0  0  0  0
  -25.2301  -25.3433   15.6323 N   0  0  0  0  0  0  0  0  0  0  0  0
  -29.9846  -13.5880   20.3585 N   0  0  0  0  0  0  0  0  0  0  0  0
  -25.4894  -15.0564   20.4291 N   0  0  0  0  0  0  0  0  0  0  0  0
  -21.8984  -12.5900   21.6196 N   0  0  0  0  0  0  0  0  0  0  0  0
  -27.6469  -27.9113   16.5604 N   0  0  0  0  0  0  0  0  0  0  0  0
  -22.3815  -24.3533   14.0950 N   0  0  0  0  0  0  0  0  0  0  0  0
  -30.1716  -15.6424   21.5152 N   0  0  0  0  0  0  0  0  0  0  0  0
  -29.0392  -18.2537   20.9662 N   0  3  0  0  0  0  0  0  0  0  0  0
  -22.5273  -21.1342   12.4569 N   0  3  0  0  0  0  0  0  0  0  0  0
  -22.6829  -14.7282   21.3522 O   0  0  0  0  0  0  0  0  0  0  0  0
  -25.6552  -27.0931   17.4470 O   0  0  0  0  0  0  0  0  0  0  0  0
  -24.1182  -26.6313   14.0383 O   0  0  0  0  0  0  0  0  0  0  0  0
  -22.6025  -22.2473   15.0399 O   0  0  0  0  0  0  0  0  0  0  0  0
  -31.8971  -14.8908   20.2057 O   0  0  0  0  0  0  0  0  0  0  0  0
  -21.5993   -7.0276   21.6868 O   0  0  0  0  0  0  0  0  0  0  0  0
  -27.7083  -21.1386   19.4048 O   0  0  0  0  0  0  0  0  0  1  0  0
  -18.6292   -6.8479   26.3291 F   0  0  0  0  0  0  0  0  0  0  0  0
  -22.0494   -5.0674   23.5836 F   0  0  0  0  0  0  0  0  0  0  0  0
  1  2  1  0  0  0  0
  1  5  2  0  0  0  0
  2  6  2  0  0  0  0
  3  8  2  0  0  0  0
  3 15  1  0  0  0  0
  4  9  1  0  0  0  0
  4 15  2  0  0  0  0
  5 17  1  0  0  0  0
  6 19  1  0  0  0  0
  7 10  2  0  0  0  0
  7 18  1  0  0  0  0
  8 21  1  0  0  0  0
  9 21  2  0  0  0  0
 10 22  1  0  0  0  0
 11 12  2  0  0  0  0
 11 23  1  0  0  0  0
 12 24  1  0  0  0  0
 13 20  1  0  0  0  0
 13 22  2  0  0  0  0
 14 24  2  0  0  0  0
 14 25  1  0  0  0  0
 15 26  1  0  0  0  0
 16 26  1  0  0  0  0
 16 27  2  0  0  0  0
 16 28  1  0  0  0  0
 17 19  2  0  0  0  0
 17 33  1  0  0  0  0
 18 20  2  0  0  0  0
 18 34  1  0  0  0  0
 19 46  1  0  0  0  0
 20 35  1  0  0  0  0
 21 77  1  0  0  0  0
 22 78  1  0  0  0  0
 23 25  2  0  0  0  0
 23 77  1  0  0  0  0
 24 79  1  0  0  0  0
 25 80  1  0  0  0  0
 26 61  2  0  0  0  0
 27 62  1  0  0  0  0
 27 65  1  0  0  0  0
 28 66  1  0  0  0  0
 28 72  2  0  0  0  0
 29 47  1  0  0  0  0
 29 67  1  0  0  0  0
 29 73  2  0  0  0  0
 30 58  1  0  0  0  0
 30 63  1  0  0  0  0
 30 74  2  0  0  0  0
 31 59  1  0  0  0  0
 31 68  1  0  0  0  0
 31 75  2  0  0  0  0
 32 64  1  0  0  0  0
 32 69  1  0  0  0  0
 32 76  2  0  0  0  0
 33 36  1  0  0  0  0
 34 47  1  0  0  0  0
 35 63  1  0  0  0  0
 36 38  1  0  0  0  0
 37 39  1  0  0  0  0
 37 42  1  0  0  0  0
 38 46  1  0  0  0  0
 39 48  1  0  0  0  0
 40 44  1  0  0  0  0
 40 49  1  0  0  0  0
 41 45  1  0  0  0  0
 41 49  1  0  0  0  0
 42 64  1  0  0  0  0
 43 48  1  0  0  0  0
 43 64  1  0  0  0  0
 44 70  1  0  0  0  0
 45 70  1  0  0  0  0
 46 67  1  0  0  0  0
 47 63  1  0  0  0  0
 48 62  1  0  0  0  0
 49 50  1  0  0  0  0
 49 78  1  0  0  0  0
 51 59  1  0  0  0  0
 52 60  1  0  0  0  0
 53 60  1  0  0  0  0
 54 60  1  0  0  0  0
 55 71  1  0  0  0  0
 56 57  1  0  0  0  0
 56 69  1  0  0  0  0
 57 70  1  0  0  0  0
 58 60  1  0  0  0  0
 58 68  1  0  0  0  0
 59 71  1  0  0  0  0
 61 62  1  0  0  0  0
M  CHG  2  70   1  71   1
M  ISO  4  32 100  49 101  69 100  78 101
M  END
> <Batch ID>
0114

> <Smiles>
CNC(C)C(=O)NC(C(=O)N1Cc2cc([101O:1][101C:1]3(C)CCN(CC[100NH:0][100C:0](=O)N4CCCC(n5nc(-c6ccc(Oc7ccc(F)cc7F)cc6)c(C(N)=O)c5N)C4)CC3)ccc2CC1C(=O)NC1CCCc2ccccc21)C(C)(C)C

> <Shape>
0.220

> <Color>
0.192

> <Negative vol penalty>
0.000

$$$$

  -OEChem-04052320083D

 82 90  0     1  0  0  0  0  0999 V2000
  -18.7015  -32.9852   21.1078 C   0  0  0  0  0  0  0  0  0  0  0  0
  -19.9739  -32.7235   20.6098 C   0  0  0  0  0  0  0  0  0  0  0  0
  -26.4707  -13.2410   20.3815 C   0  0  0  0  0  0  0  0  0  0  0  0
  -25.3313  -14.8776   21.7454 C   0  0  0  0  0  0  0  0  0  0  0  0
  -18.2876  -32.3984   22.3028 C   0  0  0  0  0  0  0  0  0  0  0  0
  -20.8335  -31.8756   21.3072 C   0  0  0  0  0  0  0  0  0  0  0  0
  -24.9302  -28.0045   18.9119 C   0  0  0  0  0  0  0  0  0  0  0  0
  -25.7697  -12.2192   21.0220 C   0  0  0  0  0  0  0  0  0  0  0  0
  -24.6302  -13.8558   22.3859 C   0  0  0  0  0  0  0  0  0  0  0  0
  -26.3060  -28.1024   18.7086 C   0  0  0  0  0  0  0  0  0  0  0  0
  -24.0163   -9.2045   22.0476 C   0  0  0  0  0  0  0  0  0  0  0  0
  -23.4708   -8.1957   21.2536 C   0  0  0  0  0  0  0  0  0  0  0  0
  -26.6897  -26.9367   20.7855 C   0  0  0  0  0  0  0  0  0  0  0  0
  -30.0650  -24.5472   17.5732 C   0  0  0  0  0  0  0  0  0  0  0  0
  -22.1370   -9.8367   20.0851 C   0  0  0  0  0  0  0  0  0  0  0  0
  -26.2515  -14.5702   20.7433 C   0  0  0  0  0  0  0  0  0  0  0  0
  -26.5903  -16.3246   18.9227 C   0  0  0  0  0  0  0  0  0  0  0  0
  -19.1391  -31.5352   23.0103 C   0  0  0  0  0  0  0  0  0  0  0  0
  -24.4231  -27.3806   20.0608 C   0  0  0  0  0  0  0  0  0  0  0  0
  -20.4311  -31.2777   22.5136 C   0  0  0  0  0  0  0  0  0  0  0  0
  -25.3070  -26.8299   20.9997 C   0  0  0  0  0  0  0  0  0  0  0  0
  -30.0349  -23.2404   18.0471 C   0  0  0  0  0  0  0  0  0  0  0  0
  -30.2460  -22.9920   19.3988 C   0  0  0  0  0  0  0  0  0  0  0  0
  -24.8495  -12.5266   22.0241 C   0  0  0  0  0  0  0  0  0  0  0  0
  -27.1860  -27.5710   19.6469 C   0  0  0  0  0  0  0  0  0  0  0  0
  -23.6221  -10.5293   21.8605 C   0  0  0  0  0  0  0  0  0  0  0  0
  -22.5312   -8.5118   20.2723 C   0  0  0  0  0  0  0  0  0  0  0  0
  -22.6824  -10.8454   20.8792 C   0  0  0  0  0  0  0  0  0  0  0  0
  -26.9757  -15.6261   20.0825 C   0  0  0  0  0  0  0  0  0  0  0  0
  -30.3084  -25.5622   18.4845 C   0  0  0  0  0  0  0  0  0  0  0  0
  -30.4815  -24.0765   20.2283 C   0  0  0  0  0  0  0  0  0  0  0  0
  -27.6107  -17.2179   18.7048 C   0  0  0  0  0  0  0  0  0  0  0  0
  -25.4150  -16.1792   18.1145 C   0  0  0  0  0  0  0  0  0  0  0  0
  -22.6426  -28.3176   22.5216 C   0  0  0  0  0  0  0  0  0  0  0  0
  -22.7292  -25.1656   23.2829 C   0  0  0  0  0  0  0  0  0  0  0  0
  -24.3344  -22.1652   23.0226 C   0  0  0  0  0  0  0  0  0  0  0  0
  -31.2552  -20.9968   20.5595 C   0  0  0  0  0  0  0  0  0  0  0  0
  -18.6646  -30.9617   24.3220 C   0  0  0  0  0  0  0  0  0  0  0  0
  -22.9361  -27.2596   20.2521 C   0  0  0  0  0  0  0  0  0  0  0  0
  -24.8131  -26.1322   22.2397 C   0  0  0  0  0  0  0  0  0  0  0  0
  -19.4992  -29.7792   24.8073 C   0  0  0  0  0  0  0  0  0  0  0  0
  -32.1892  -17.5720   20.8340 C   0  0  0  0  0  0  0  0  0  0  0  0
  -20.9875  -30.0917   24.6884 C   0  0  0  0  0  0  0  0  0  0  0  0
  -30.8844  -16.8179   20.5676 C   0  0  0  0  0  0  0  0  0  0  0  0
  -31.9496  -18.8597   21.6203 C   0  0  0  0  0  0  0  0  0  0  0  0
  -29.6396  -19.0073   20.7771 C   0  0  0  0  0  0  0  0  0  0  0  0
  -21.3834  -30.3438   23.2285 C   0  0  1  0  0  0  0  0  0  0  0  0
  -22.5358  -27.0574   21.7103 C   0  0  1  0  0  0  0  0  0  0  0  0
  -29.8225  -17.7363   19.9316 C   0  0  2  0  0  0  0  0  0  0  0  0
  -29.7751  -22.1279   17.0847 C   0  0  0  0  0  0  0  0  0  0  0  0
  -30.7154  -23.8756   21.6907 C   0  0  0  0  0  0  0  0  0  0  0  0
  -24.1861  -19.7790   23.7852 C   0  0  0  0  0  0  0  0  0  0  0  0
  -23.7313  -25.9885   26.0449 C   0  0  0  0  0  0  0  0  0  0  0  0
  -24.4554  -23.6201   26.4112 C   0  0  0  0  0  0  0  0  0  0  0  0
  -22.0427  -24.1438   26.0547 C   0  0  0  0  0  0  0  0  0  0  0  0
  -24.1089  -21.1698   20.2446 C   0  0  0  0  0  0  0  0  0  0  0  0
  -28.9893  -27.6854   18.1005 C   0  0  0  0  0  0  0  0  0  1  0  0
  -30.3498  -26.9962   18.0046 C   0  0  1  0  0  0  0  0  0  0  0  0
  -23.6439  -24.2887   24.1035 C   0  0  1  0  0  0  0  0  0  0  0  0
  -23.8228  -20.7742   22.6942 C   0  0  2  0  0  0  0  0  0  0  0  0
  -23.4780  -24.5251   25.6313 C   0  0  0  0  0  0  0  0  0  0  0  0
  -28.1495  -16.0399   20.5675 N   0  0  0  0  0  0  0  0  0  0  0  0
  -30.5181  -25.3598   19.8046 N   0  0  0  0  0  0  0  0  0  0  0  0
  -28.5104  -17.0080   19.7081 N   0  0  0  0  0  0  0  0  0  0  0  0
  -23.3506  -26.0449   22.3850 N   0  0  0  0  0  0  0  0  0  0  0  0
  -30.9352  -19.6811   20.9562 N   0  0  0  0  0  0  0  0  0  0  0  0
  -27.8171  -18.1544   17.7547 N   0  0  0  0  0  0  0  0  0  0  0  0
  -24.4677  -15.2133   18.4807 N   0  0  0  0  0  0  0  0  0  0  0  0
  -30.2220  -21.6701   19.9086 N   0  0  0  0  0  0  0  0  0  0  0  0
  -21.4978  -29.0913   22.5124 N   0  0  0  0  0  0  0  0  0  0  0  0
  -23.3835  -22.9173   23.6793 N   0  0  0  0  0  0  0  0  0  0  0  0
  -24.4077  -20.2972   21.4092 N   0  3  0  0  0  0  0  0  0  0  0  0
  -25.2187  -16.8735   17.0884 O   0  0  0  0  0  0  0  0  0  0  0  0
  -23.6859  -28.5686   23.1133 O   0  0  0  0  0  0  0  0  0  0  0  0
  -21.5080  -25.0687   23.4280 O   0  0  0  0  0  0  0  0  0  0  0  0
  -25.4659  -22.5452   22.7295 O   0  0  0  0  0  0  0  0  0  0  0  0
  -32.3729  -21.4804   20.7567 O   0  0  0  0  0  0  0  0  0  0  0  0
  -31.3019  -27.7129   18.7878 O   0  0  0  0  0  0  0  0  0  0  0  0
  -24.1651  -11.5298   22.6491 O   0  0  0  0  0  0  0  0  0  0  0  0
  -28.5294  -27.6657   19.4513 O   0  0  0  0  0  0  0  0  0  1  0  0
  -22.0087   -7.5432   19.5089 F   0  0  0  0  0  0  0  0  0  0  0  0
  -22.3007  -12.1166   20.6940 F   0  0  0  0  0  0  0  0  0  0  0  0
  1  2  1  0  0  0  0
  1  5  2  0  0  0  0
  2  6  2  0  0  0  0
  3  8  2  0  0  0  0
  3 16  1  0  0  0  0
  4  9  1  0  0  0  0
  4 16  2  0  0  0  0
  5 18  1  0  0  0  0
  6 20  1  0  0  0  0
  7 10  2  0  0  0  0
  7 19  1  0  0  0  0
  8 24  1  0  0  0  0
  9 24  2  0  0  0  0
 10 25  1  0  0  0  0
 11 12  2  0  0  0  0
 11 26  1  0  0  0  0
 12 27  1  0  0  0  0
 13 21  1  0  0  0  0
 13 25  2  0  0  0  0
 14 22  2  0  0  0  0
 14 30  1  0  0  0  0
 15 27  2  0  0  0  0
 15 28  1  0  0  0  0
 16 29  1  0  0  0  0
 17 29  1  0  0  0  0
 17 32  2  0  0  0  0
 17 33  1  0  0  0  0
 18 20  2  0  0  0  0
 18 38  1  0  0  0  0
 19 21  2  0  0  0  0
 19 39  1  0  0  0  0
 20 47  1  0  0  0  0
 21 40  1  0  0  0  0
 22 23  1  0  0  0  0
 22 50  1  0  0  0  0
 23 31  2  0  0  0  0
 23 69  1  0  0  0  0
 24 79  1  0  0  0  0
 25 80  1  0  0  0  0
 26 28  2  0  0  0  0
 26 79  1  0  0  0  0
 27 81  1  0  0  0  0
 28 82  1  0  0  0  0
 29 62  2  0  0  0  0
 30 58  1  0  0  0  0
 30 63  2  0  0  0  0
 31 51  1  0  0  0  0
 31 63  1  0  0  0  0
 32 64  1  0  0  0  0
 32 67  1  0  0  0  0
 33 68  1  0  0  0  0
 33 73  2  0  0  0  0
 34 48  1  0  0  0  0
 34 70  1  0  0  0  0
 34 74  2  0  0  0  0
 35 59  1  0  0  0  0
 35 65  1  0  0  0  0
 35 75  2  0  0  0  0
 36 60  1  0  0  0  0
 36 71  1  0  0  0  0
 36 76  2  0  0  0  0
 37 66  1  0  0  0  0
 37 69  1  0  0  0  0
 37 77  2  0  0  0  0
 38 41  1  0  0  0  0
 39 48  1  0  0  0  0
 40 65  1  0  0  0  0
 41 43  1  0  0  0  0
 42 44  1  0  0  0  0
 42 45  1  0  0  0  0
 43 47  1  0  0  0  0
 44 49  1  0  0  0  0
 45 66  1  0  0  0  0
 46 49  1  0  0  0  0
 46 66  1  0  0  0  0
 47 70  1  0  0  0  0
 48 65  1  0  0  0  0
 49 64  1  0  0  0  0
 52 60  1  0  0  0  0
 53 61  1  0  0  0  0
 54 61  1  0  0  0  0
 55 61  1  0  0  0  0
 56 72  1  0  0  0  0
 57 58  1  0  0  0  0
 57 80  1  0  0  0  0
 58 78  1  0  0  0  0
 59 61  1  0  0  0  0
 59 71  1  0  0  0  0
 60 72  1  0  0  0  0
 62 64  1  0  0  0  0
M  CHG  1  72   1
M  ISO  4  37 100  57 101  69 100  80 101
M  END
> <Batch ID>
0114

> <Smiles>
CNC(C)C(=O)NC(C(=O)N1Cc2cc([101O:1][101CH2:1]C(O)c3cc(C)c([100NH:0][100C:0](=O)N4CCCC(n5nc(-c6ccc(Oc7ccc(F)cc7F)cc6)c(C(N)=O)c5N)C4)c(C)n3)ccc2CC1C(=O)NC1CCCc2ccccc21)C(C)(C)C

> <Shape>
0.225

> <Color>
0.086

> <Negative vol penalty>
0.000

$$$$

  -OEChem-04052320083D

 83 91  0     1  0  0  0  0  0999 V2000
  -27.5471  -28.4157   19.1757 C   0  0  0  0  0  0  0  0  0  0  0  0
  -27.0779  -27.2672   19.8051 C   0  0  0  0  0  0  0  0  0  0  0  0
  -28.4514  -20.7331   18.4414 C   0  0  0  0  0  0  0  0  0  0  0  0
  -30.8566  -20.5796   18.6113 C   0  0  0  0  0  0  0  0  0  0  0  0
  -26.8982  -29.6335   19.3757 C   0  0  0  0  0  0  0  0  0  0  0  0
  -25.9599  -27.3360   20.6357 C   0  0  0  0  0  0  0  0  0  0  0  0
  -22.6917  -23.5566   19.8113 C   0  0  0  0  0  0  0  0  0  0  0  0
  -28.5836  -21.6620   17.4093 C   0  0  0  0  0  0  0  0  0  0  0  0
  -30.9888  -21.5085   17.5792 C   0  0  0  0  0  0  0  0  0  0  0  0
  -23.0084  -22.3115   20.3528 C   0  0  0  0  0  0  0  0  0  0  0  0
  -30.7801  -24.8621   17.2038 C   0  0  0  0  0  0  0  0  0  0  0  0
  -31.7099  -25.8884   17.3707 C   0  0  0  0  0  0  0  0  0  0  0  0
  -21.4934  -22.7287   22.1830 C   0  0  0  0  0  0  0  0  0  0  0  0
  -32.8913  -25.1383   15.4013 C   0  0  0  0  0  0  0  0  0  0  0  0
  -29.5879  -20.1919   19.0425 C   0  0  0  0  0  0  0  0  0  0  0  0
  -28.8137  -19.4249   21.3489 C   0  0  0  0  0  0  0  0  0  0  0  0
  -25.7660  -29.7154   20.2015 C   0  0  0  0  0  0  0  0  0  0  0  0
  -21.7801  -24.4031   20.4585 C   0  0  0  0  0  0  0  0  0  0  0  0
  -25.2961  -28.5562   20.8480 C   0  0  0  0  0  0  0  0  0  0  0  0
  -21.1649  -23.9830   21.6464 C   0  0  0  0  0  0  0  0  0  0  0  0
  -29.8523  -22.0497   16.9782 C   0  0  0  0  0  0  0  0  0  0  0  0
  -22.4114  -21.8986   21.5403 C   0  0  0  0  0  0  0  0  0  0  0  0
  -30.9060  -23.9738   16.1357 C   0  0  0  0  0  0  0  0  0  0  0  0
  -32.7655  -26.0265   16.4695 C   0  0  0  0  0  0  0  0  0  0  0  0
  -31.9616  -24.1119   15.2344 C   0  0  0  0  0  0  0  0  0  0  0  0
  -29.4520  -19.2327   20.1090 C   0  0  0  0  0  0  0  0  0  0  0  0
  -28.9574  -18.2236   21.9990 C   0  0  0  0  0  0  0  0  0  0  0  0
  -28.1501  -20.5856   21.8668 C   0  0  0  0  0  0  0  0  0  0  0  0
  -21.9403  -27.3020   21.7526 C   0  0  0  0  0  0  0  0  0  0  0  0
  -29.8078  -12.6349   19.9605 C   0  0  0  0  0  0  0  0  0  0  0  0
  -18.7375  -26.9065   22.0812 C   0  0  0  0  0  0  0  0  0  0  0  0
  -16.0937  -24.7633   22.3334 C   0  0  0  0  0  0  0  0  0  0  0  0
  -25.1263  -31.0628   20.4248 C   0  0  0  0  0  0  0  0  0  0  0  0
  -21.4290  -25.7320   19.8475 C   0  0  0  0  0  0  0  0  0  0  0  0
  -20.1644  -24.8459   22.3695 C   0  0  0  0  0  0  0  0  0  0  0  0
  -23.7244  -30.9798   21.0232 C   0  0  0  0  0  0  0  0  0  0  0  0
  -31.8536  -14.4358   22.2867 C   0  0  0  0  0  0  0  0  0  0  0  0
  -23.7006  -30.0018   22.1936 C   0  0  0  0  0  0  0  0  0  0  0  0
  -24.9321  -18.0281   20.5990 C   0  0  0  0  0  0  0  0  0  0  0  0
  -22.5159  -17.3028   20.4214 C   0  0  0  0  0  0  0  0  0  0  0  0
  -31.4319  -15.8906   22.0843 C   0  0  0  0  0  0  0  0  0  0  0  0
  -24.5096  -19.2106   21.4656 C   0  0  0  0  0  0  0  0  0  0  0  0
  -22.0999  -18.4877   21.2880 C   0  0  0  0  0  0  0  0  0  0  0  0
  -31.8177  -13.6565   20.9758 C   0  0  0  0  0  0  0  0  0  0  0  0
  -30.0755  -15.1623   20.0706 C   0  0  0  0  0  0  0  0  0  0  0  0
  -24.0716  -28.5857   21.7368 C   0  0  1  0  0  0  0  0  0  0  0  0
  -20.8752  -26.7282   20.8615 C   0  0  1  0  0  0  0  0  0  0  0  0
  -23.9515  -16.8542   20.7279 C   0  0  0  0  0  0  0  0  0  0  0  0
  -30.0684  -15.9774   21.3760 C   0  0  2  0  0  0  0  0  0  0  0  0
  -23.0806  -19.6515   21.1605 C   0  0  0  0  0  0  0  0  0  1  0  0
  -27.8889  -11.4807   18.9408 C   0  0  0  0  0  0  0  0  0  0  0  0
  -13.6021  -24.7351   22.6314 C   0  0  0  0  0  0  0  0  0  0  0  0
  -23.2394  -14.7051   19.6104 C   0  0  0  0  0  0  0  0  0  0  0  0
  -19.0865  -27.5612   25.0409 C   0  0  0  0  0  0  0  0  0  0  0  0
  -16.8089  -26.6052   25.4493 C   0  0  0  0  0  0  0  0  0  0  0  0
  -17.0767  -28.5981   23.9730 C   0  0  0  0  0  0  0  0  0  0  0  0
  -15.6821  -23.4035   19.7371 C   0  0  0  0  0  0  0  0  0  0  0  0
  -27.5316  -13.6186   20.2283 C   0  0  0  0  0  0  0  0  0  0  0  0
  -26.3550  -14.2327   19.4775 C   0  0  0  0  0  0  0  0  0  0  0  0
  -28.4705  -12.8447   19.2958 C   0  0  1  0  0  0  0  0  0  0  0  0
  -17.8349  -26.3323   23.1463 C   0  0  1  0  0  0  0  0  0  0  0  0
  -14.7479  -24.7368   21.6314 C   0  0  2  0  0  0  0  0  0  0  0  0
  -24.3642  -15.7037   19.8116 C   0  0  2  0  0  0  0  0  0  0  0  0
  -17.7220  -27.2585   24.3900 C   0  0  0  0  0  0  0  0  0  0  0  0
  -29.9634  -18.0059   19.9770 N   0  0  0  0  0  0  0  0  0  0  0  0
  -29.6465  -17.4164   21.1424 N   0  0  0  0  0  0  0  0  0  0  0  0
  -19.8588  -26.1391   21.7356 N   0  0  0  0  0  0  0  0  0  0  0  0
  -30.5135  -13.7824   20.3228 N   0  0  0  0  0  0  0  0  0  0  0  0
  -28.5602  -17.7895   23.2140 N   0  0  0  0  0  0  0  0  0  0  0  0
  -28.0936  -21.7354   21.0673 N   0  0  0  0  0  0  0  0  0  0  0  0
  -22.9488  -27.9583   21.0733 N   0  0  0  0  0  0  0  0  0  0  0  0
  -16.5609  -26.0506   22.4935 N   0  0  0  0  0  0  0  0  0  0  0  0
  -14.6312  -23.5186   20.7809 N   0  3  0  0  0  0  0  0  0  0  0  0
  -25.5182  -15.0046   20.4346 N   0  3  0  0  0  0  0  0  0  0  0  0
  -27.6370  -20.6079   23.0113 O   0  0  0  0  0  0  0  0  0  0  0  0
  -21.8527  -27.1610   22.9668 O   0  0  0  0  0  0  0  0  0  0  0  0
  -30.2101  -11.4847   20.1537 O   0  0  0  0  0  0  0  0  0  0  0  0
  -18.4540  -27.9925   21.5694 O   0  0  0  0  0  0  0  0  0  0  0  0
  -16.6708  -23.7441   22.7059 O   0  0  0  0  0  0  0  0  0  0  0  0
  -29.9816  -22.9559   15.9709 O   0  0  0  0  0  0  0  0  0  0  0  0
  -22.7193  -20.6840   22.0712 O   0  0  0  0  0  0  0  0  0  1  0  0
  -33.6574  -27.0130   16.6290 F   0  0  0  0  0  0  0  0  0  0  0  0
  -32.0870  -23.2624   14.2057 F   0  0  0  0  0  0  0  0  0  0  0  0
  1  2  1  0  0  0  0
  1  5  2  0  0  0  0
  2  6  2  0  0  0  0
  3  8  2  0  0  0  0
  3 15  1  0  0  0  0
  4  9  1  0  0  0  0
  4 15  2  0  0  0  0
  5 17  1  0  0  0  0
  6 19  1  0  0  0  0
  7 10  2  0  0  0  0
  7 18  1  0  0  0  0
  8 21  1  0  0  0  0
  9 21  2  0  0  0  0
 10 22  1  0  0  0  0
 11 12  2  0  0  0  0
 11 23  1  0  0  0  0
 12 24  1  0  0  0  0
 13 20  1  0  0  0  0
 13 22  2  0  0  0  0
 14 24  2  0  0  0  0
 14 25  1  0  0  0  0
 15 26  1  0  0  0  0
 16 26  1  0  0  0  0
 16 27  2  0  0  0  0
 16 28  1  0  0  0  0
 17 19  2  0  0  0  0
 17 33  1  0  0  0  0
 18 20  2  0  0  0  0
 18 34  1  0  0  0  0
 19 46  1  0  0  0  0
 20 35  1  0  0  0  0
 21 80  1  0  0  0  0
 22 81  1  0  0  0  0
 23 25  2  0  0  0  0
 23 80  1  0  0  0  0
 24 82  1  0  0  0  0
 25 83  1  0  0  0  0
 26 65  2  0  0  0  0
 27 66  1  0  0  0  0
 27 69  1  0  0  0  0
 28 70  1  0  0  0  0
 28 75  2  0  0  0  0
 29 47  1  0  0  0  0
 29 71  1  0  0  0  0
 29 76  2  0  0  0  0
 30 60  1  0  0  0  0
 30 68  1  0  0  0  0
 30 77  2  0  0  0  0
 31 61  1  0  0  0  0
 31 67  1  0  0  0  0
 31 78  2  0  0  0  0
 32 62  1  0  0  0  0
 32 72  1  0  0  0  0
 32 79  2  0  0  0  0
 33 36  1  0  0  0  0
 34 47  1  0  0  0  0
 35 67  1  0  0  0  0
 36 38  1  0  0  0  0
 37 41  1  0  0  0  0
 37 44  1  0  0  0  0
 38 46  1  0  0  0  0
 39 42  1  0  0  0  0
 39 48  1  0  0  0  0
 40 43  1  0  0  0  0
 40 48  1  0  0  0  0
 41 49  1  0  0  0  0
 42 50  1  0  0  0  0
 43 50  1  0  0  0  0
 44 68  1  0  0  0  0
 45 49  1  0  0  0  0
 45 68  1  0  0  0  0
 46 71  1  0  0  0  0
 47 67  1  0  0  0  0
 48 63  1  0  0  0  0
 49 66  1  0  0  0  0
 50 81  1  0  0  0  0
 51 60  1  0  0  0  0
 52 62  1  0  0  0  0
 53 63  1  0  0  0  0
 54 64  1  0  0  0  0
 55 64  1  0  0  0  0
 56 64  1  0  0  0  0
 57 73  1  0  0  0  0
 58 59  1  0  0  0  0
 58 60  1  0  0  0  0
 59 74  1  0  0  0  0
 61 64  1  0  0  0  0
 61 72  1  0  0  0  0
 62 73  1  0  0  0  0
 63 74  1  0  0  0  0
 65 66  1  0  0  0  0
M  CHG  2  73   1  74   1
M  ISO  4  30 100  50 101  60 100  81 101
M  END
> <Batch ID>
0114

> <Smiles>
CNC(C)C(=O)NC(C(=O)N1Cc2cc([101O:1][101CH:1]3CCC(C(C)NCC[100CH:0](C)[100C:0](=O)N4CCCC(n5nc(-c6ccc(Oc7ccc(F)cc7F)cc6)c(C(N)=O)c5N)C4)CC3)ccc2CC1C(=O)NC1CCCc2ccccc21)C(C)(C)C

> <Shape>
0.238

> <Color>
0.066

> <Negative vol penalty>
0.000

$$$$

  -OEChem-04052320083D

 91100  0     1  0  0  0  0  0999 V2000
  -14.6857  -27.6517   25.5583 C   0  0  0  0  0  0  0  0  0  0  0  0
  -16.0040  -27.6623   26.0026 C   0  0  0  0  0  0  0  0  0  0  0  0
  -23.0756   -9.8669   19.9425 C   0  0  0  0  0  0  0  0  0  0  0  0
  -23.8368   -9.8773   22.2354 C   0  0  0  0  0  0  0  0  0  0  0  0
  -14.0732  -26.4444   25.2251 C   0  0  0  0  0  0  0  0  0  0  0  0
  -16.7102  -26.4652   26.1150 C   0  0  0  0  0  0  0  0  0  0  0  0
  -21.4024  -26.7944   24.2387 C   0  0  0  0  0  0  0  0  0  0  0  0
  -27.8018  -25.2059   26.2081 C   0  0  0  0  0  0  0  0  0  0  0  0
  -27.0156  -23.6565   27.8869 C   0  0  0  0  0  0  0  0  0  0  0  0
  -26.7177  -26.0428   26.4727 C   0  0  0  0  0  0  0  0  0  0  0  0
  -25.9315  -24.4934   28.1515 C   0  0  0  0  0  0  0  0  0  0  0  0
  -22.3331   -8.7133   20.1942 C   0  0  0  0  0  0  0  0  0  0  0  0
  -23.0942   -8.7237   22.4872 C   0  0  0  0  0  0  0  0  0  0  0  0
  -22.3614  -27.4260   25.0293 C   0  0  0  0  0  0  0  0  0  0  0  0
  -19.8672   -7.9232   23.0924 C   0  0  0  0  0  0  0  0  0  0  0  0
  -19.1109   -7.8839   24.2638 C   0  0  0  0  0  0  0  0  0  0  0  0
  -23.1912  -25.2728   25.7323 C   0  0  0  0  0  0  0  0  0  0  0  0
  -20.3547   -5.9485   25.0017 C   0  0  0  0  0  0  0  0  0  0  0  0
  -23.8275  -10.4489   20.9631 C   0  0  0  0  0  0  0  0  0  0  0  0
  -24.1667  -12.9742   20.8400 C   0  0  0  0  0  0  0  0  0  0  0  0
  -14.7754  -25.2329   25.3243 C   0  0  0  0  0  0  0  0  0  0  0  0
  -21.3234  -25.3949   24.1974 C   0  0  0  0  0  0  0  0  0  0  0  0
  -16.1061  -25.2403   25.7841 C   0  0  0  0  0  0  0  0  0  0  0  0
  -22.2320  -24.6258   24.9384 C   0  0  0  0  0  0  0  0  0  0  0  0
  -27.9507  -24.0127   26.9151 C   0  0  0  0  0  0  0  0  0  0  0  0
  -25.7826  -25.6866   27.4444 C   0  0  0  0  0  0  0  0  0  0  0  0
  -22.3423   -8.1417   21.4665 C   0  0  0  0  0  0  0  0  0  0  0  0
  -23.2541  -26.6653   25.7785 C   0  0  0  0  0  0  0  0  0  0  0  0
  -20.8672   -6.9752   22.8756 C   0  0  0  0  0  0  0  0  0  0  0  0
  -19.3547   -6.8965   25.2184 C   0  0  0  0  0  0  0  0  0  0  0  0
  -21.1110   -5.9879   23.8303 C   0  0  0  0  0  0  0  0  0  0  0  0
  -24.5952  -11.6403   20.7036 C   0  0  0  0  0  0  0  0  0  0  0  0
  -25.2579  -13.7244   20.4752 C   0  0  0  0  0  0  0  0  0  0  0  0
  -22.8959  -13.4892   21.2590 C   0  0  0  0  0  0  0  0  0  0  0  0
  -19.1125  -23.2489   24.9787 C   0  0  0  0  0  0  0  0  0  0  0  0
  -21.2185  -21.1704   23.6495 C   0  0  0  0  0  0  0  0  0  0  0  0
  -24.4447  -20.4716   22.7834 C   0  0  0  0  0  0  0  0  0  0  0  0
  -30.7406  -14.7493   20.6594 C   0  0  0  0  0  0  0  0  0  0  0  0
  -14.0560  -23.9481   24.9979 C   0  0  0  0  0  0  0  0  0  0  0  0
  -20.3004  -24.7286   23.3188 C   0  0  0  0  0  0  0  0  0  0  0  0
  -22.2021  -23.1202   24.9129 C   0  0  0  0  0  0  0  0  0  0  0  0
  -14.9933  -22.7617   24.7877 C   0  0  0  0  0  0  0  0  0  0  0  0
  -29.6042  -12.3609   18.2760 C   0  0  0  0  0  0  0  0  0  0  0  0
  -16.0394  -22.7048   25.8964 C   0  0  0  0  0  0  0  0  0  0  0  0
  -28.1673  -12.0662   18.7100 C   0  0  0  0  0  0  0  0  0  0  0  0
  -28.4942  -20.2980   24.3638 C   0  0  0  0  0  0  0  0  0  0  0  0
  -30.5217  -12.5841   19.4761 C   0  0  0  0  0  0  0  0  0  0  0  0
  -28.3162  -21.7587   24.7801 C   0  0  0  0  0  0  0  0  0  0  0  0
  -28.6200  -13.3148   20.8629 C   0  0  0  0  0  0  0  0  0  0  0  0
  -29.7485  -20.7904   26.3532 C   0  0  0  0  0  0  0  0  0  0  0  0
  -16.9132  -23.9650   25.8956 C   0  0  1  0  0  0  0  0  0  0  0  0
  -19.9790  -23.3017   23.7523 C   0  0  1  0  0  0  0  0  0  0  0  0
  -27.6454  -13.1378   19.6860 C   0  0  2  0  0  0  0  0  0  0  0  0
  -29.1518  -19.6394   25.5681 C   0  0  2  0  0  0  0  0  0  0  0  0
  -24.9316  -27.6294   28.8025 C   0  0  0  0  0  0  0  0  0  0  0  0
  -25.8620  -18.6786   21.7472 C   0  0  0  0  0  0  0  0  0  0  0  0
  -31.7605  -16.1583   25.6137 C   0  0  0  0  0  0  0  0  0  0  0  0
  -21.0767  -19.5646   26.2402 C   0  0  0  0  0  0  0  0  0  0  0  0
  -23.1627  -18.3735   25.5343 C   0  0  0  0  0  0  0  0  0  0  0  0
  -21.0924  -18.1827   24.1558 C   0  0  0  0  0  0  0  0  0  0  0  0
  -25.2704  -22.2457   20.5630 C   0  0  0  0  0  0  0  0  0  0  0  0
  -29.1094  -23.1174   26.6328 C   0  0  0  0  0  0  0  0  0  0  0  0
  -31.6247  -16.7408   23.1720 C   0  0  0  0  0  0  0  0  0  0  0  0
  -30.8050  -16.9014   21.8937 C   0  0  0  0  0  0  0  0  0  0  0  0
  -29.6749  -17.3290   24.7763 C   0  0  0  0  0  0  0  0  0  0  0  0
  -24.6090  -26.5948   27.7318 C   0  0  1  0  0  0  0  0  0  1  0  0
  -22.3835  -20.3565   24.1590 C   0  0  1  0  0  0  0  0  0  0  0  0
  -25.0496  -19.9395   21.4967 C   0  0  2  0  0  0  0  0  0  0  0  0
  -30.8097  -16.3564   24.4265 C   0  0  2  0  0  0  0  0  0  0  0  0
  -21.9284  -19.1477   25.0245 C   0  0  0  0  0  0  0  0  0  0  0  0
  -25.8599  -11.5452   20.2847 N   0  0  0  0  0  0  0  0  0  0  0  0
  -26.2355  -12.8290   20.1547 N   0  0  0  0  0  0  0  0  0  0  0  0
  -21.1795  -22.5154   24.0435 N   0  0  0  0  0  0  0  0  0  0  0  0
  -29.9706  -13.6130   20.3612 N   0  0  0  0  0  0  0  0  0  0  0  0
  -28.6923  -21.7934   26.1973 N   0  0  1  0  0  0  0  0  0  0  0  0
  -25.4669  -15.0560   20.4006 N   0  0  0  0  0  0  0  0  0  0  0  0
  -21.8851  -12.5794   21.5979 N   0  0  0  0  0  0  0  0  0  0  0  0
  -17.8994  -23.8956   24.8388 N   0  0  0  0  0  0  0  0  0  0  0  0
  -23.1690  -19.9892   22.9857 N   0  0  0  0  0  0  0  0  0  0  0  0
  -30.1410  -15.6785   21.5007 N   0  0  0  0  0  0  0  0  0  0  0  0
  -30.1897  -18.6774   25.1552 N   0  3  0  0  0  0  0  0  0  0  0  0
  -25.9447  -20.9613   20.8838 N   0  3  0  0  0  0  0  0  0  0  0  0
  -22.6584  -14.7197   21.3151 O   0  0  0  0  0  0  0  0  0  0  0  0
  -19.5142  -22.6635   25.9775 O   0  0  0  0  0  0  0  0  0  0  0  0
  -20.3782  -20.6343   22.9229 O   0  0  0  0  0  0  0  0  0  0  0  0
  -25.0454  -21.2356   23.5357 O   0  0  0  0  0  0  0  0  0  0  0  0
  -31.8762  -14.9254   20.2049 O   0  0  0  0  0  0  0  0  0  0  0  0
  -21.6177   -7.0161   21.7125 O   0  0  0  0  0  0  0  0  0  0  0  0
  -24.1908  -27.2793   26.5515 O   0  0  0  0  0  0  0  0  0  1  0  0
  -18.6294   -6.8598   26.3440 F   0  0  0  0  0  0  0  0  0  0  0  0
  -22.0711   -5.0752   23.6282 F   0  0  0  0  0  0  0  0  0  0  0  0
  1  2  1  0  0  0  0
  1  5  2  0  0  0  0
  2  6  2  0  0  0  0
  3 12  2  0  0  0  0
  3 19  1  0  0  0  0
  4 13  1  0  0  0  0
  4 19  2  0  0  0  0
  5 21  1  0  0  0  0
  6 23  1  0  0  0  0
  7 14  2  0  0  0  0
  7 22  1  0  0  0  0
  8 10  2  0  0  0  0
  8 25  1  0  0  0  0
  9 11  1  0  0  0  0
  9 25  2  0  0  0  0
 10 26  1  0  0  0  0
 11 26  2  0  0  0  0
 12 27  1  0  0  0  0
 13 27  2  0  0  0  0
 14 28  1  0  0  0  0
 15 16  2  0  0  0  0
 15 29  1  0  0  0  0
 16 30  1  0  0  0  0
 17 24  1  0  0  0  0
 17 28  2  0  0  0  0
 18 30  2  0  0  0  0
 18 31  1  0  0  0  0
 19 32  1  0  0  0  0
 20 32  1  0  0  0  0
 20 33  2  0  0  0  0
 20 34  1  0  0  0  0
 21 23  2  0  0  0  0
 21 39  1  0  0  0  0
 22 24  2  0  0  0  0
 22 40  1  0  0  0  0
 23 51  1  0  0  0  0
 24 41  1  0  0  0  0
 25 62  1  0  0  0  0
 26 66  1  0  0  0  0
 27 88  1  0  0  0  0
 28 89  1  0  0  0  0
 29 31  2  0  0  0  0
 29 88  1  0  0  0  0
 30 90  1  0  0  0  0
 31 91  1  0  0  0  0
 32 71  2  0  0  0  0
 33 72  1  0  0  0  0
 33 76  1  0  0  0  0
 34 77  1  0  0  0  0
 34 83  2  0  0  0  0
 35 52  1  0  0  0  0
 35 78  1  0  0  0  0
 35 84  2  0  0  0  0
 36 67  1  0  0  0  0
 36 73  1  0  0  0  0
 36 85  2  0  0  0  0
 37 68  1  0  0  0  0
 37 79  1  0  0  0  0
 37 86  2  0  0  0  0
 38 74  1  0  0  0  0
 38 80  1  0  0  0  0
 38 87  2  0  0  0  0
 39 42  1  0  0  0  0
 40 52  1  0  0  0  0
 41 73  1  0  0  0  0
 42 44  1  0  0  0  0
 43 45  1  0  0  0  0
 43 47  1  0  0  0  0
 44 51  1  0  0  0  0
 45 53  1  0  0  0  0
 46 48  1  0  0  0  0
 46 54  1  0  0  0  0
 47 74  1  0  0  0  0
 48 75  1  0  0  0  0
 49 53  1  0  0  0  0
 49 74  1  0  0  0  0
 50 54  1  0  0  0  0
 50 75  1  0  0  0  0
 51 78  1  0  0  0  0
 52 73  1  0  0  0  0
 53 72  1  0  0  0  0
 54 81  1  0  0  0  0
 55 66  1  0  0  0  0
 56 68  1  0  0  0  0
 57 69  1  0  0  0  0
 58 70  1  0  0  0  0
 59 70  1  0  0  0  0
 60 70  1  0  0  0  0
 61 82  1  0  0  0  0
 62 75  1  0  0  0  0
 63 64  1  0  0  0  0
 63 69  1  0  0  0  0
 64 80  1  0  0  0  0
 65 69  1  0  0  0  0
 65 81  1  0  0  0  0
 66 89  1  0  0  0  0
 67 70  1  0  0  0  0
 67 79  1  0  0  0  0
 68 82  1  0  0  0  0
 71 72  1  0  0  0  0
M  CHG  2  81   1  82   1
M  ISO  4  38 100  66 101  80 100  89 101
M  END
> <Batch ID>
0114

> <Smiles>
CNC(C)C(=O)NC(C(=O)N1Cc2cc([101O:1][101CH:1](C)c3ccc(CN4CCC(NCC(C)CC[100NH:0][100C:0](=O)N5CCCC(n6nc(-c7ccc(Oc8ccc(F)cc8F)cc7)c(C(N)=O)c6N)C5)C4)cc3)ccc2CC1C(=O)NC1CCCc2ccccc21)C(C)(C)C

> <Shape>
0.167

> <Color>
0.180

> <Negative vol penalty>
0.000

$$$$

  -OEChem-04052320083D

 87 95  0     1  0  0  0  0  0999 V2000
  -28.7341  -12.7109   20.0884 C   0  0  0  0  0  0  0  0  0  0  0  0
  -28.4806  -14.0786   20.1109 C   0  0  0  0  0  0  0  0  0  0  0  0
  -30.5267  -21.4877   21.1139 C   0  0  0  0  0  0  0  0  0  0  0  0
  -28.6279  -21.0338   19.6907 C   0  0  0  0  0  0  0  0  0  0  0  0
  -27.6854  -11.8060   20.2472 C   0  0  0  0  0  0  0  0  0  0  0  0
  -27.1779  -14.5422   20.2912 C   0  0  0  0  0  0  0  0  0  0  0  0
  -25.4505  -19.5968   23.2867 C   0  0  0  0  0  0  0  0  0  0  0  0
  -30.9388  -20.1612   20.9872 C   0  0  0  0  0  0  0  0  0  0  0  0
  -29.0400  -19.7072   19.5639 C   0  0  0  0  0  0  0  0  0  0  0  0
  -25.1099  -20.8760   22.8493 C   0  0  0  0  0  0  0  0  0  0  0  0
  -32.2931  -16.8038   21.3295 C   0  0  0  0  0  0  0  0  0  0  0  0
  -32.6980  -16.1357   22.4850 C   0  0  0  0  0  0  0  0  0  0  0  0
  -22.7765  -20.2664   22.9027 C   0  0  0  0  0  0  0  0  0  0  0  0
  -21.1515  -25.0607   22.2928 C   0  0  0  0  0  0  0  0  0  0  0  0
  -22.4736  -24.5222   20.3437 C   0  0  0  0  0  0  0  0  0  0  0  0
  -30.5132  -16.4883   23.4544 C   0  0  0  0  0  0  0  0  0  0  0  0
  -29.3712  -21.9240   20.4657 C   0  0  0  0  0  0  0  0  0  0  0  0
  -29.3025  -24.3783   19.7730 C   0  0  0  0  0  0  0  0  0  0  0  0
  -26.3706  -12.2588   20.4392 C   0  0  0  0  0  0  0  0  0  0  0  0
  -24.4557  -18.6377   23.5252 C   0  0  0  0  0  0  0  0  0  0  0  0
  -26.1104  -13.6425   20.4513 C   0  0  0  0  0  0  0  0  0  0  0  0
  -23.1069  -18.9765   23.3455 C   0  0  0  0  0  0  0  0  0  0  0  0
  -21.8874  -24.1378   21.5497 C   0  0  0  0  0  0  0  0  0  0  0  0
  -21.0016  -26.3680   21.8299 C   0  0  0  0  0  0  0  0  0  0  0  0
  -22.3238  -25.8295   19.8808 C   0  0  0  0  0  0  0  0  0  0  0  0
  -21.5878  -26.7524   20.6239 C   0  0  0  0  0  0  0  0  0  0  0  0
  -30.1955  -19.2710   20.2122 C   0  0  0  0  0  0  0  0  0  0  0  0
  -23.7729  -21.2101   22.6545 C   0  0  0  0  0  0  0  0  0  0  0  0
  -30.9982  -17.3142   21.2364 C   0  0  0  0  0  0  0  0  0  0  0  0
  -31.8081  -15.9779   23.5475 C   0  0  0  0  0  0  0  0  0  0  0  0
  -30.1083  -17.1564   22.2989 C   0  0  0  0  0  0  0  0  0  0  0  0
  -28.9446  -23.2941   20.5966 C   0  0  0  0  0  0  0  0  0  0  0  0
  -28.6396  -25.4532   20.3131 C   0  0  0  0  0  0  0  0  0  0  0  0
  -30.1576  -24.4108   18.6226 C   0  0  0  0  0  0  0  0  0  0  0  0
  -23.7411  -15.7938   22.2983 C   0  0  0  0  0  0  0  0  0  0  0  0
  -21.5397  -15.7531   24.6804 C   0  0  0  0  0  0  0  0  0  0  0  0
  -19.2327  -18.0905   26.1742 C   0  0  0  0  0  0  0  0  0  0  0  0
  -24.0371  -27.7411   22.4874 C   0  0  0  0  0  0  0  0  0  0  0  0
  -25.2629  -11.2423   20.5590 C   0  0  0  0  0  0  0  0  0  0  0  0
  -24.8379  -17.2705   24.0223 C   0  0  0  0  0  0  0  0  0  0  0  0
  -21.9997  -17.9895   23.6070 C   0  0  0  0  0  0  0  0  0  0  0  0
  -23.9653  -11.8186   21.1198 C   0  0  0  0  0  0  0  0  0  0  0  0
  -26.1611  -25.9289   24.6968 C   0  0  0  0  0  0  0  0  0  0  0  0
  -23.6230  -13.1345   20.4285 C   0  0  0  0  0  0  0  0  0  0  0  0
  -27.0994  -25.1670   23.7593 C   0  0  0  0  0  0  0  0  0  0  0  0
  -24.7480  -26.0244   24.1258 C   0  0  0  0  0  0  0  0  0  0  0  0
  -25.6057  -25.8185   21.8245 C   0  0  0  0  0  0  0  0  0  0  0  0
  -24.7144  -14.1845   20.6693 C   0  0  1  0  0  0  0  0  0  0  0  0
  -23.7746  -16.2135   23.7406 C   0  0  1  0  0  0  0  0  0  0  0  0
  -27.0561  -25.7445   22.3318 C   0  0  2  0  0  0  0  0  0  0  0  0
  -20.2063  -27.3336   22.6472 C   0  0  0  0  0  0  0  0  0  0  0  0
  -22.4830  -25.3447   17.4260 C   0  0  0  0  0  0  0  0  0  0  0  0
  -18.2652  -18.1751   28.4881 C   0  0  0  0  0  0  0  0  0  0  0  0
  -21.0613  -30.4248   20.4423 C   0  0  0  0  0  0  0  0  0  0  0  0
  -19.2158  -14.2037   23.4522 C   0  0  0  0  0  0  0  0  0  0  0  0
  -17.6572  -15.5486   24.8771 C   0  0  0  0  0  0  0  0  0  0  0  0
  -19.3577  -14.0689   25.9454 C   0  0  0  0  0  0  0  0  0  0  0  0
  -23.9147  -30.5857   21.5792 C   0  0  0  0  0  0  0  0  0  0  0  0
  -23.7992  -29.6612   19.2692 C   0  0  0  0  0  0  0  0  0  0  0  0
  -20.1880  -20.8595   26.5979 C   0  0  0  0  0  0  0  0  0  0  0  0
  -22.9627  -26.2123   18.5853 C   0  0  0  0  0  0  0  0  0  0  0  0
  -22.0487  -22.7319   22.0484 C   0  0  0  0  0  0  0  0  0  1  0  0
  -20.1060  -16.2050   24.8190 C   0  0  1  0  0  0  0  0  0  0  0  0
  -19.3373  -18.7146   27.5541 C   0  0  2  0  0  0  0  0  0  0  0  0
  -21.8849  -29.2152   20.8917 C   0  0  2  0  0  0  0  0  0  0  0  0
  -19.1022  -15.0194   24.7555 C   0  0  0  0  0  0  0  0  0  0  0  0
  -23.4258  -29.3916   20.7378 C   0  0  0  0  0  0  0  0  0  0  0  0
  -28.1187  -23.6479   21.5849 N   0  0  0  0  0  0  0  0  0  0  0  0
  -27.9521  -24.9665   21.3858 N   0  0  0  0  0  0  0  0  0  0  0  0
  -22.4246  -16.6637   24.0857 N   0  0  0  0  0  0  0  0  0  0  0  0
  -24.7768  -26.5811   22.7711 N   0  0  0  0  0  0  0  0  0  0  0  0
  -28.5837  -26.7577   19.9704 N   0  0  0  0  0  0  0  0  0  0  0  0
  -30.7587  -23.2163   18.2029 N   0  0  0  0  0  0  0  0  0  0  0  0
  -21.4354  -28.0775   20.1546 N   0  0  0  0  0  0  0  0  0  0  0  0
  -24.5908  -14.7465   21.9972 N   0  0  0  0  0  0  0  0  0  0  0  0
  -20.0395  -16.9788   26.0540 N   0  0  0  0  0  0  0  0  0  0  0  0
  -24.1246  -28.2058   21.1809 N   0  0  0  0  0  0  0  0  0  0  0  0
  -19.1830  -20.1943   27.4665 N   0  3  0  0  0  0  0  0  0  0  0  0
  -30.3949  -25.4709   17.9955 O   0  0  0  0  0  0  0  0  0  0  0  0
  -22.9983  -16.3761   21.5167 O   0  0  0  0  0  0  0  0  0  0  0  0
  -21.8642  -14.6362   25.0913 O   0  0  0  0  0  0  0  0  0  0  0  0
  -18.5051  -18.5418   25.2925 O   0  0  0  0  0  0  0  0  0  0  0  0
  -23.3539  -28.3227   23.3371 O   0  0  0  0  0  0  0  0  0  0  0  0
  -30.5975  -17.9765   20.0882 O   0  0  0  0  0  0  0  0  0  0  0  0
  -23.4378  -22.4578   22.2270 O   0  0  0  0  0  0  0  0  0  1  0  0
  -32.1966  -15.3350   24.6565 F   0  0  0  0  0  0  0  0  0  0  0  0
  -28.8628  -17.6436   22.2148 F   0  0  0  0  0  0  0  0  0  0  0  0
  1  2  1  0  0  0  0
  1  5  2  0  0  0  0
  2  6  2  0  0  0  0
  3  8  2  0  0  0  0
  3 17  1  0  0  0  0
  4  9  1  0  0  0  0
  4 17  2  0  0  0  0
  5 19  1  0  0  0  0
  6 21  1  0  0  0  0
  7 10  2  0  0  0  0
  7 20  1  0  0  0  0
  8 27  1  0  0  0  0
  9 27  2  0  0  0  0
 10 28  1  0  0  0  0
 11 12  2  0  0  0  0
 11 29  1  0  0  0  0
 12 30  1  0  0  0  0
 13 22  1  0  0  0  0
 13 28  2  0  0  0  0
 14 23  1  0  0  0  0
 14 24  2  0  0  0  0
 15 23  2  0  0  0  0
 15 25  1  0  0  0  0
 16 30  2  0  0  0  0
 16 31  1  0  0  0  0
 17 32  1  0  0  0  0
 18 32  1  0  0  0  0
 18 33  2  0  0  0  0
 18 34  1  0  0  0  0
 19 21  2  0  0  0  0
 19 39  1  0  0  0  0
 20 22  2  0  0  0  0
 20 40  1  0  0  0  0
 21 48  1  0  0  0  0
 22 41  1  0  0  0  0
 23 62  1  0  0  0  0
 24 26  1  0  0  0  0
 24 51  1  0  0  0  0
 25 26  2  0  0  0  0
 25 61  1  0  0  0  0
 26 74  1  0  0  0  0
 27 84  1  0  0  0  0
 28 85  1  0  0  0  0
 29 31  2  0  0  0  0
 29 84  1  0  0  0  0
 30 86  1  0  0  0  0
 31 87  1  0  0  0  0
 32 68  2  0  0  0  0
 33 69  1  0  0  0  0
 33 72  1  0  0  0  0
 34 73  1  0  0  0  0
 34 79  2  0  0  0  0
 35 49  1  0  0  0  0
 35 75  1  0  0  0  0
 35 80  2  0  0  0  0
 36 63  1  0  0  0  0
 36 70  1  0  0  0  0
 36 81  2  0  0  0  0
 37 64  1  0  0  0  0
 37 76  1  0  0  0  0
 37 82  2  0  0  0  0
 38 71  1  0  0  0  0
 38 77  1  0  0  0  0
 38 83  2  0  0  0  0
 39 42  1  0  0  0  0
 40 49  1  0  0  0  0
 41 70  1  0  0  0  0
 42 44  1  0  0  0  0
 43 45  1  0  0  0  0
 43 46  1  0  0  0  0
 44 48  1  0  0  0  0
 45 50  1  0  0  0  0
 46 71  1  0  0  0  0
 47 50  1  0  0  0  0
 47 71  1  0  0  0  0
 48 75  1  0  0  0  0
 49 70  1  0  0  0  0
 50 69  1  0  0  0  0
 52 61  1  0  0  0  0
 53 64  1  0  0  0  0
 54 65  1  0  0  0  0
 55 66  1  0  0  0  0
 56 66  1  0  0  0  0
 57 66  1  0  0  0  0
 58 67  1  0  0  0  0
 59 67  1  0  0  0  0
 60 78  1  0  0  0  0
 62 85  1  0  0  0  0
 63 66  1  0  0  0  0
 63 76  1  0  0  0  0
 64 78  1  0  0  0  0
 65 67  1  0  0  0  0
 65 74  1  0  0  0  0
 67 77  1  0  0  0  0
 68 69  1  0  0  0  0
M  CHG  1  78   1
M  ISO  4  38 100  62 101  77 100  85 101
M  END
> <Batch ID>
0114

> <Smiles>
CCc1cc([101CH2:1][101O:1]c2ccc3c(c2)CN(C(=O)C(NC(=O)C(C)NC)C(C)(C)C)C(C(=O)NC2CCCc4ccccc42)C3)cc(C)c1NC(C)C(C)(C)[100NH:0][100C:0](=O)N1CCCC(n2nc(-c3ccc(Oc4ccc(F)cc4F)cc3)c(C(N)=O)c2N)C1

> <Shape>
0.205

> <Color>
0.070

> <Negative vol penalty>
0.000

$$$$

  -OEChem-04052320083D

 75 82  0     1  0  0  0  0  0999 V2000
  -19.6030  -33.6899   24.2302 C   0  0  0  0  0  0  0  0  0  0  0  0
  -20.9449  -33.4407   23.9608 C   0  0  0  0  0  0  0  0  0  0  0  0
  -27.9537  -17.2897   18.1935 C   0  0  0  0  0  0  0  0  0  0  0  0
  -27.8330  -17.1533   20.6027 C   0  0  0  0  0  0  0  0  0  0  0  0
  -18.7101  -32.6270   24.3596 C   0  0  0  0  0  0  0  0  0  0  0  0
  -21.3948  -32.1282   23.8215 C   0  0  0  0  0  0  0  0  0  0  0  0
  -25.7966  -30.1246   20.0644 C   0  0  0  0  0  0  0  0  0  0  0  0
  -27.7216  -15.9172   18.1042 C   0  0  0  0  0  0  0  0  0  0  0  0
  -27.6009  -15.7808   20.5134 C   0  0  0  0  0  0  0  0  0  0  0  0
  -27.1449  -29.8351   20.2695 C   0  0  0  0  0  0  0  0  0  0  0  0
  -26.6178  -12.3026   20.9056 C   0  0  0  0  0  0  0  0  0  0  0  0
  -25.6073  -11.7620   21.7007 C   0  0  0  0  0  0  0  0  0  0  0  0
  -26.5931  -27.5061   20.5698 C   0  0  0  0  0  0  0  0  0  0  0  0
  -23.9895  -13.1924   20.6172 C   0  0  0  0  0  0  0  0  0  0  0  0
  -28.0094  -17.9078   19.4428 C   0  0  0  0  0  0  0  0  0  0  0  0
  -27.2865  -20.3520   19.5458 C   0  0  0  0  0  0  0  0  0  0  0  0
  -19.1474  -31.3012   24.2122 C   0  0  0  0  0  0  0  0  0  0  0  0
  -24.8335  -29.1069   20.1214 C   0  0  0  0  0  0  0  0  0  0  0  0
  -20.5072  -31.0465   23.9503 C   0  0  0  0  0  0  0  0  0  0  0  0
  -25.2335  -27.7848   20.3626 C   0  0  0  0  0  0  0  0  0  0  0  0
  -27.5452  -15.1628   19.2641 C   0  0  0  0  0  0  0  0  0  0  0  0
  -27.5430  -28.5262   20.5251 C   0  0  0  0  0  0  0  0  0  0  0  0
  -26.3142  -13.2883   19.9664 C   0  0  0  0  0  0  0  0  0  0  0  0
  -24.2931  -12.2068   21.5564 C   0  0  0  0  0  0  0  0  0  0  0  0
  -25.0001  -13.7331   19.8222 C   0  0  0  0  0  0  0  0  0  0  0  0
  -28.2497  -19.3254   19.5357 C   0  0  0  0  0  0  0  0  0  0  0  0
  -28.0191  -21.5092   19.6488 C   0  0  0  0  0  0  0  0  0  0  0  0
  -25.8573  -20.2672   19.4689 C   0  0  0  0  0  0  0  0  0  0  0  0
  -22.3067  -28.5100   21.9552 C   0  0  0  0  0  0  0  0  0  0  0  0
  -21.8483  -26.0775   19.8587 C   0  0  0  0  0  0  0  0  0  0  0  0
  -23.1944  -23.9300   17.5733 C   0  0  0  0  0  0  0  0  0  0  0  0
  -32.1733  -24.4520   21.9354 C   0  0  0  0  0  0  0  0  0  0  0  0
  -18.1542  -30.1832   24.4076 C   0  0  0  0  0  0  0  0  0  0  0  0
  -23.3862  -29.4313   19.8715 C   0  0  0  0  0  0  0  0  0  0  0  0
  -24.2412  -26.6529   20.4139 C   0  0  0  0  0  0  0  0  0  0  0  0
  -18.6391  -28.8376   23.8743 C   0  0  0  0  0  0  0  0  0  0  0  0
  -32.9959  -22.3045   19.2173 C   0  0  0  0  0  0  0  0  0  0  0  0
  -20.0737  -28.5724   24.3199 C   0  0  0  0  0  0  0  0  0  0  0  0
  -31.7580  -21.4191   19.0631 C   0  0  0  0  0  0  0  0  0  0  0  0
  -33.2816  -22.6247   20.6829 C   0  0  0  0  0  0  0  0  0  0  0  0
  -30.9074  -22.3190   21.2688 C   0  0  0  0  0  0  0  0  0  0  0  0
  -21.0287  -29.6377   23.7678 C   0  0  1  0  0  0  0  0  0  0  0  0
  -22.4317  -28.3981   20.4620 C   0  0  1  0  0  0  0  0  0  0  0  0
  -30.5464  -22.0151   19.8047 C   0  0  2  0  0  0  0  0  0  0  0  0
  -22.5781  -22.0302   16.0539 C   0  0  0  0  0  0  0  0  0  0  0  0
  -21.7452  -24.1953   22.2579 C   0  0  0  0  0  0  0  0  0  0  0  0
  -22.0856  -22.2801   20.6818 C   0  0  0  0  0  0  0  0  0  0  0  0
  -20.0537  -23.7129   20.4802 C   0  0  0  0  0  0  0  0  0  0  0  0
  -24.0025  -25.4437   15.1620 C   0  0  0  0  0  0  0  0  0  0  0  0
  -30.9226  -26.2000   23.1762 C   0  0  0  0  0  0  0  0  0  0  0  0
  -29.1608  -27.1421   21.5848 C   0  0  0  0  0  0  0  0  0  1  0  0
  -22.2982  -24.6389   19.7753 C   0  0  1  0  0  0  0  0  0  0  0  0
  -22.7488  -23.5364   16.1765 C   0  0  2  0  0  0  0  0  0  0  0  0
  -30.5244  -27.3407   22.2423 C   0  0  1  0  0  0  0  0  0  0  0  0
  -21.5644  -23.7282   20.7998 C   0  0  0  0  0  0  0  0  0  0  0  0
  -29.4990  -19.7896   19.6251 N   0  0  0  0  0  0  0  0  0  0  0  0
  -29.3258  -21.1206   19.6922 N   0  0  0  0  0  0  0  0  0  0  0  0
  -22.8370  -27.0218   20.1694 N   0  0  0  0  0  0  0  0  0  0  0  0
  -32.0932  -23.1880   21.3279 N   0  0  0  0  0  0  0  0  0  0  0  0
  -27.6667  -22.8111   19.7055 N   0  0  0  0  0  0  0  0  0  0  0  0
  -25.2678  -18.9998   19.3669 N   0  0  0  0  0  0  0  0  0  0  0  0
  -21.3196  -29.3818   22.3734 N   0  0  0  0  0  0  0  0  0  0  0  0
  -22.1220  -24.2361   18.3842 N   0  0  0  0  0  0  0  0  0  0  0  0
  -30.9998  -24.9148   22.5181 N   0  0  0  0  0  0  0  0  0  0  0  0
  -30.4936  -28.6149   23.0195 N   0  3  0  0  0  0  0  0  0  0  0  0
  -23.7531  -23.9792   15.1685 N   0  3  0  0  0  0  0  0  0  0  0  0
  -25.1256  -21.2861   19.4735 O   0  0  0  0  0  0  0  0  0  0  0  0
  -23.0499  -27.8528   22.6746 O   0  0  0  0  0  0  0  0  0  0  0  0
  -20.6646  -26.3542   19.6486 O   0  0  0  0  0  0  0  0  0  0  0  0
  -24.3754  -23.9590   17.9123 O   0  0  0  0  0  0  0  0  0  0  0  0
  -33.2121  -25.1209   21.9523 O   0  0  0  0  0  0  0  0  0  0  0  0
  -27.3185  -13.8235   19.1773 O   0  0  0  0  0  0  0  0  0  0  0  0
  -28.8584  -28.2411   20.7263 O   0  0  0  0  0  0  0  0  0  1  0  0
  -23.3226  -11.6864   22.3189 F   0  0  0  0  0  0  0  0  0  0  0  0
  -24.7021  -14.6789   18.9208 F   0  0  0  0  0  0  0  0  0  0  0  0
  1  2  1  0  0  0  0
  1  5  2  0  0  0  0
  2  6  2  0  0  0  0
  3  8  2  0  0  0  0
  3 15  1  0  0  0  0
  4  9  1  0  0  0  0
  4 15  2  0  0  0  0
  5 17  1  0  0  0  0
  6 19  1  0  0  0  0
  7 10  2  0  0  0  0
  7 18  1  0  0  0  0
  8 21  1  0  0  0  0
  9 21  2  0  0  0  0
 10 22  1  0  0  0  0
 11 12  2  0  0  0  0
 11 23  1  0  0  0  0
 12 24  1  0  0  0  0
 13 20  1  0  0  0  0
 13 22  2  0  0  0  0
 14 24  2  0  0  0  0
 14 25  1  0  0  0  0
 15 26  1  0  0  0  0
 16 26  1  0  0  0  0
 16 27  2  0  0  0  0
 16 28  1  0  0  0  0
 17 19  2  0  0  0  0
 17 33  1  0  0  0  0
 18 20  2  0  0  0  0
 18 34  1  0  0  0  0
 19 42  1  0  0  0  0
 20 35  1  0  0  0  0
 21 72  1  0  0  0  0
 22 73  1  0  0  0  0
 23 25  2  0  0  0  0
 23 72  1  0  0  0  0
 24 74  1  0  0  0  0
 25 75  1  0  0  0  0
 26 56  2  0  0  0  0
 27 57  1  0  0  0  0
 27 60  1  0  0  0  0
 28 61  1  0  0  0  0
 28 67  2  0  0  0  0
 29 43  1  0  0  0  0
 29 62  1  0  0  0  0
 29 68  2  0  0  0  0
 30 52  1  0  0  0  0
 30 58  1  0  0  0  0
 30 69  2  0  0  0  0
 31 53  1  0  0  0  0
 31 63  1  0  0  0  0
 31 70  2  0  0  0  0
 32 59  1  0  0  0  0
 32 64  1  0  0  0  0
 32 71  2  0  0  0  0
 33 36  1  0  0  0  0
 34 43  1  0  0  0  0
 35 58  1  0  0  0  0
 36 38  1  0  0  0  0
 37 39  1  0  0  0  0
 37 40  1  0  0  0  0
 38 42  1  0  0  0  0
 39 44  1  0  0  0  0
 40 59  1  0  0  0  0
 41 44  1  0  0  0  0
 41 59  1  0  0  0  0
 42 62  1  0  0  0  0
 43 58  1  0  0  0  0
 44 57  1  0  0  0  0
 45 53  1  0  0  0  0
 46 55  1  0  0  0  0
 47 55  1  0  0  0  0
 48 55  1  0  0  0  0
 49 66  1  0  0  0  0
 50 54  1  0  0  0  0
 50 64  1  0  0  0  0
 51 54  1  0  0  0  0
 51 73  1  0  0  0  0
 52 55  1  0  0  0  0
 52 63  1  0  0  0  0
 53 66  1  0  0  0  0
 54 65  1  0  0  0  0
 56 57  1  0  0  0  0
M  CHG  2  65   1  66   1
M  ISO  4  32 100  51 101  64 100  73 101
M  END
> <Batch ID>
0114

> <Smiles>
CNC(C)C(=O)NC(C(=O)N1Cc2cc([101O:1][101CH2:1]C(N)C[100NH:0][100C:0](=O)N3CCCC(n4nc(-c5ccc(Oc6ccc(F)cc6F)cc5)c(C(N)=O)c4N)C3)ccc2CC1C(=O)NC1CCCc2ccccc21)C(C)(C)C

> <Shape>
0.200

> <Color>
0.071

> <Negative vol penalty>
0.000

$$$$

  -OEChem-04052320083D

 82 90  0     1  0  0  0  0  0999 V2000
  -35.8766  -33.1053   28.3618 C   0  0  0  0  0  0  0  0  0  0  0  0
  -35.6089  -31.7429   28.4494 C   0  0  0  0  0  0  0  0  0  0  0  0
  -23.0695   -9.8058   19.9512 C   0  0  0  0  0  0  0  0  0  0  0  0
  -23.8248   -9.8366   22.2459 C   0  0  0  0  0  0  0  0  0  0  0  0
  -35.1075  -33.9133   27.5255 C   0  0  0  0  0  0  0  0  0  0  0  0
  -34.5711  -31.1879   27.7015 C   0  0  0  0  0  0  0  0  0  0  0  0
  -34.4255  -25.6090   25.1796 C   0  0  0  0  0  0  0  0  0  0  0  0
  -22.3335   -8.6494   20.2090 C   0  0  0  0  0  0  0  0  0  0  0  0
  -23.0886   -8.6802   22.5037 C   0  0  0  0  0  0  0  0  0  0  0  0
  -33.8480  -24.4085   25.5908 C   0  0  0  0  0  0  0  0  0  0  0  0
  -19.8651   -7.8641   23.1064 C   0  0  0  0  0  0  0  0  0  0  0  0
  -19.1061   -7.8282   24.2761 C   0  0  0  0  0  0  0  0  0  0  0  0
  -31.9154  -24.8773   24.2254 C   0  0  0  0  0  0  0  0  0  0  0  0
  -20.3599   -5.9056   25.0304 C   0  0  0  0  0  0  0  0  0  0  0  0
  -23.8153  -10.3994   20.9697 C   0  0  0  0  0  0  0  0  0  0  0  0
  -24.1393  -12.9259   20.8301 C   0  0  0  0  0  0  0  0  0  0  0  0
  -34.0659  -33.3662   26.7596 C   0  0  0  0  0  0  0  0  0  0  0  0
  -33.7463  -26.4593   24.2952 C   0  0  0  0  0  0  0  0  0  0  0  0
  -33.7864  -31.9896   26.8552 C   0  0  0  0  0  0  0  0  0  0  0  0
  -32.4875  -26.0869   23.8025 C   0  0  0  0  0  0  0  0  0  0  0  0
  -22.3430   -8.0866   21.4852 C   0  0  0  0  0  0  0  0  0  0  0  0
  -32.5916  -24.0439   25.1160 C   0  0  0  0  0  0  0  0  0  0  0  0
  -20.8714   -6.9208   22.8986 C   0  0  0  0  0  0  0  0  0  0  0  0
  -19.3535   -6.8489   25.2381 C   0  0  0  0  0  0  0  0  0  0  0  0
  -21.1188   -5.9416   23.8607 C   0  0  0  0  0  0  0  0  0  0  0  0
  -24.5763  -11.5937   20.7039 C   0  0  0  0  0  0  0  0  0  0  0  0
  -25.2268  -13.6803   20.4629 C   0  0  0  0  0  0  0  0  0  0  0  0
  -22.8643  -13.4360   21.2424 C   0  0  0  0  0  0  0  0  0  0  0  0
  -32.6298  -29.4312   24.4532 C   0  0  0  0  0  0  0  0  0  0  0  0
  -31.9967  -28.9453   21.3091 C   0  0  0  0  0  0  0  0  0  0  0  0
  -31.3951  -26.7303   18.7835 C   0  0  0  0  0  0  0  0  0  0  0  0
  -30.7027  -14.7400   20.6537 C   0  0  0  0  0  0  0  0  0  0  0  0
  -33.2314  -34.2877   25.9057 C   0  0  0  0  0  0  0  0  0  0  0  0
  -34.3944  -27.7381   23.8403 C   0  0  0  0  0  0  0  0  0  0  0  0
  -31.7258  -26.9548   22.8356 C   0  0  0  0  0  0  0  0  0  0  0  0
  -32.3911  -33.5564   24.8620 C   0  0  0  0  0  0  0  0  0  0  0  0
  -29.5870  -12.3284   18.2839 C   0  0  0  0  0  0  0  0  0  0  0  0
  -31.6781  -32.3636   25.4911 C   0  0  0  0  0  0  0  0  0  0  0  0
  -28.1508  -12.0279   18.7164 C   0  0  0  0  0  0  0  0  0  0  0  0
  -29.7102  -18.0115   22.0606 C   0  0  0  0  0  0  0  0  0  0  0  0
  -30.3503  -19.3188   22.5259 C   0  0  0  0  0  0  0  0  0  0  0  0
  -32.2237  -18.0208   23.6081 C   0  0  0  0  0  0  0  0  0  0  0  0
  -30.5001  -12.5654   19.4848 C   0  0  0  0  0  0  0  0  0  0  0  0
  -28.5904  -13.2939   20.8618 C   0  0  0  0  0  0  0  0  0  0  0  0
  -32.6851  -31.3462   26.0408 C   0  0  1  0  0  0  0  0  0  0  0  0
  -33.3904  -28.7711   23.3381 C   0  0  1  0  0  0  0  0  0  0  0  0
  -27.6199  -13.1029   19.6837 C   0  0  2  0  0  0  0  0  0  0  0  0
  -30.7511  -16.9016   21.8737 C   0  0  1  0  0  0  0  0  0  0  0  0
  -31.1641  -19.0995   23.7972 C   0  0  1  0  0  0  0  0  0  0  0  0
  -31.5988  -16.7034   23.1401 C   0  0  1  0  0  0  0  0  0  0  0  0
  -30.8754  -26.6335   16.3303 C   0  0  0  0  0  0  0  0  0  0  0  0
  -29.1195  -29.7797   21.8881 C   0  0  0  0  0  0  0  0  0  0  0  0
  -28.4590  -28.7709   19.6939 C   0  0  0  0  0  0  0  0  0  0  0  0
  -30.0586  -30.6841   19.7540 C   0  0  0  0  0  0  0  0  0  0  0  0
  -33.8673  -25.2110   18.2015 C   0  0  0  0  0  0  0  0  0  0  0  0
  -33.1516  -15.2129   24.0839 C   0  0  0  0  0  0  0  0  0  0  0  0
  -32.2111  -20.4768   25.5976 C   0  0  0  0  0  0  0  0  0  0  0  0
  -32.9099  -21.8004   25.8382 C   0  0  0  0  0  0  0  0  0  1  0  0
  -30.8261  -28.4021   20.5257 C   0  0  1  0  0  0  0  0  0  0  0  0
  -31.9720  -26.6174   17.3839 C   0  0  2  0  0  0  0  0  0  0  0  0
  -29.6290  -29.3936   20.4851 C   0  0  0  0  0  0  0  0  0  0  0  0
  -25.8427  -11.5036   20.2888 N   0  0  0  0  0  0  0  0  0  0  0  0
  -26.2107  -12.7887   20.1509 N   0  0  0  0  0  0  0  0  0  0  0  0
  -32.3988  -28.1983   22.4254 N   0  0  0  0  0  0  0  0  0  0  0  0
  -29.9404  -13.5970   20.3614 N   0  0  0  0  0  0  0  0  0  0  0  0
  -25.4278  -15.0126   20.3796 N   0  0  0  0  0  0  0  0  0  0  0  0
  -21.8583  -12.5223   21.5850 N   0  0  0  0  0  0  0  0  0  0  0  0
  -33.2456  -30.5576   24.9645 N   0  0  0  0  0  0  0  0  0  0  0  0
  -31.3468  -28.0400   19.2120 N   0  0  0  0  0  0  0  0  0  0  0  0
  -30.0953  -15.6713   21.4871 N   0  0  0  0  0  0  0  0  0  0  0  0
  -31.8348  -20.3746   24.1651 N   0  3  0  0  0  0  0  0  0  0  0  0
  -32.7419  -25.3494   17.2417 N   0  3  0  0  0  0  0  0  0  0  0  0
  -22.6192  -14.6653   21.2894 O   0  0  0  0  0  0  0  0  0  0  0  0
  -31.5625  -28.9547   24.8214 O   0  0  0  0  0  0  0  0  0  0  0  0
  -32.5390  -29.9898   20.9398 O   0  0  0  0  0  0  0  0  0  0  0  0
  -31.0209  -25.7545   19.4304 O   0  0  0  0  0  0  0  0  0  0  0  0
  -31.8383  -14.9200   20.2009 O   0  0  0  0  0  0  0  0  0  0  0  0
  -21.6246   -6.9583   21.7371 O   0  0  0  0  0  0  0  0  0  0  0  0
  -32.0254  -22.8730   25.5163 O   0  0  0  0  0  0  0  0  0  1  0  0
  -32.6665  -15.7943   22.8830 O   0  0  0  0  0  0  0  0  0  0  0  0
  -18.6256   -6.8154   26.3621 F   0  0  0  0  0  0  0  0  0  0  0  0
  -22.0851   -5.0334   23.6672 F   0  0  0  0  0  0  0  0  0  0  0  0
  1  2  1  0  0  0  0
  1  5  2  0  0  0  0
  2  6  2  0  0  0  0
  3  8  2  0  0  0  0
  3 15  1  0  0  0  0
  4  9  1  0  0  0  0
  4 15  2  0  0  0  0
  5 17  1  0  0  0  0
  6 19  1  0  0  0  0
  7 10  2  0  0  0  0
  7 18  1  0  0  0  0
  8 21  1  0  0  0  0
  9 21  2  0  0  0  0
 10 22  1  0  0  0  0
 11 12  2  0  0  0  0
 11 23  1  0  0  0  0
 12 24  1  0  0  0  0
 13 20  1  0  0  0  0
 13 22  2  0  0  0  0
 14 24  2  0  0  0  0
 14 25  1  0  0  0  0
 15 26  1  0  0  0  0
 16 26  1  0  0  0  0
 16 27  2  0  0  0  0
 16 28  1  0  0  0  0
 17 19  2  0  0  0  0
 17 33  1  0  0  0  0
 18 20  2  0  0  0  0
 18 34  1  0  0  0  0
 19 45  1  0  0  0  0
 20 35  1  0  0  0  0
 21 78  1  0  0  0  0
 22 79  1  0  0  0  0
 23 25  2  0  0  0  0
 23 78  1  0  0  0  0
 24 81  1  0  0  0  0
 25 82  1  0  0  0  0
 26 62  2  0  0  0  0
 27 63  1  0  0  0  0
 27 66  1  0  0  0  0
 28 67  1  0  0  0  0
 28 73  2  0  0  0  0
 29 46  1  0  0  0  0
 29 68  1  0  0  0  0
 29 74  2  0  0  0  0
 30 59  1  0  0  0  0
 30 64  1  0  0  0  0
 30 75  2  0  0  0  0
 31 60  1  0  0  0  0
 31 69  1  0  0  0  0
 31 76  2  0  0  0  0
 32 65  1  0  0  0  0
 32 70  1  0  0  0  0
 32 77  2  0  0  0  0
 33 36  1  0  0  0  0
 34 46  1  0  0  0  0
 35 64  1  0  0  0  0
 36 38  1  0  0  0  0
 37 39  1  0  0  0  0
 37 43  1  0  0  0  0
 38 45  1  0  0  0  0
 39 47  1  0  0  0  0
 40 41  1  0  0  0  0
 40 48  1  0  0  0  0
 41 49  1  0  0  0  0
 42 49  1  0  0  0  0
 42 50  1  0  0  0  0
 43 65  1  0  0  0  0
 44 47  1  0  0  0  0
 44 65  1  0  0  0  0
 45 68  1  0  0  0  0
 46 64  1  0  0  0  0
 47 63  1  0  0  0  0
 48 50  1  0  0  0  0
 48 70  1  0  0  0  0
 49 71  1  0  0  0  0
 50 80  1  0  0  0  0
 51 60  1  0  0  0  0
 52 61  1  0  0  0  0
 53 61  1  0  0  0  0
 54 61  1  0  0  0  0
 55 72  1  0  0  0  0
 56 80  1  0  0  0  0
 57 58  1  0  0  0  0
 57 71  1  0  0  0  0
 58 79  1  0  0  0  0
 59 61  1  0  0  0  0
 59 69  1  0  0  0  0
 60 72  1  0  0  0  0
 62 63  1  0  0  0  0
M  CHG  2  71   1  72   1
M  ISO  4  32 100  58 101  70 100  79 101
M  END
> <Batch ID>
0114

> <Smiles>
CNC(C)C(=O)NC(C(=O)N1Cc2cc([101O:1][101CH2:1]CNC3CCC([100NH:0][100C:0](=O)N4CCCC(n5nc(-c6ccc(Oc7ccc(F)cc7F)cc6)c(C(N)=O)c5N)C4)C(OC)C3)ccc2CC1C(=O)NC1CCCc2ccccc21)C(C)(C)C

> <Shape>
0.206

> <Color>
0.206

> <Negative vol penalty>
0.000

$$$$

  -OEChem-04052320083D

 85 93  0     1  0  0  0  0  0999 V2000
  -31.2559  -31.1574   24.5212 C   0  0  0  0  0  0  0  0  0  0  0  0
  -30.2726  -30.2313   24.1883 C   0  0  0  0  0  0  0  0  0  0  0  0
  -23.0008   -9.8949   19.9809 C   0  0  0  0  0  0  0  0  0  0  0  0
  -23.7309   -9.9432   22.2834 C   0  0  0  0  0  0  0  0  0  0  0  0
  -32.5774  -30.7425   24.6803 C   0  0  0  0  0  0  0  0  0  0  0  0
  -30.6104  -28.8898   24.0133 C   0  0  0  0  0  0  0  0  0  0  0  0
  -27.1801  -24.0156   25.4208 C   0  0  0  0  0  0  0  0  0  0  0  0
  -22.2359   -8.7593   20.2472 C   0  0  0  0  0  0  0  0  0  0  0  0
  -22.9660   -8.8076   22.5498 C   0  0  0  0  0  0  0  0  0  0  0  0
  -26.3567  -23.1945   24.6517 C   0  0  0  0  0  0  0  0  0  0  0  0
  -23.2123   -5.4696   22.0725 C   0  0  0  0  0  0  0  0  0  0  0  0
  -23.8024   -4.4518   22.8218 C   0  0  0  0  0  0  0  0  0  0  0  0
  -29.6987  -20.2384   19.0708 C   0  0  0  0  0  0  0  0  0  0  0  0
  -28.9363  -21.1824   18.3396 C   0  0  0  0  0  0  0  0  0  0  0  0
  -28.1679  -21.6206   24.4038 C   0  0  0  0  0  0  0  0  0  0  0  0
  -22.0820   -4.6907   24.5011 C   0  0  0  0  0  0  0  0  0  0  0  0
  -23.7484  -10.4868   20.9989 C   0  0  0  0  0  0  0  0  0  0  0  0
  -24.1310  -13.0030   20.8258 C   0  0  0  0  0  0  0  0  0  0  0  0
  -32.9300  -29.3936   24.5166 C   0  0  0  0  0  0  0  0  0  0  0  0
  -28.5092  -23.6500   25.6785 C   0  0  0  0  0  0  0  0  0  0  0  0
  -31.9381  -28.4567   24.1691 C   0  0  0  0  0  0  0  0  0  0  0  0
  -29.0054  -22.4376   25.1785 C   0  0  0  0  0  0  0  0  0  0  0  0
  -22.2185   -8.2156   21.5316 C   0  0  0  0  0  0  0  0  0  0  0  0
  -26.8514  -21.9982   24.1407 C   0  0  0  0  0  0  0  0  0  0  0  0
  -22.0571   -6.0980   22.5375 C   0  0  0  0  0  0  0  0  0  0  0  0
  -23.2373   -4.0624   24.0361 C   0  0  0  0  0  0  0  0  0  0  0  0
  -21.4919   -5.7085   23.7518 C   0  0  0  0  0  0  0  0  0  0  0  0
  -24.5392  -11.6595   20.7243 C   0  0  0  0  0  0  0  0  0  0  0  0
  -28.8151  -19.4654   19.7912 C   0  0  0  0  0  0  0  0  0  0  0  0
  -27.6099  -20.9576   18.6356 C   0  0  0  0  0  0  0  0  0  0  0  0
  -25.2393  -13.7271   20.4600 C   0  0  0  0  0  0  0  0  0  0  0  0
  -22.8634  -13.5477   21.2158 C   0  0  0  0  0  0  0  0  0  0  0  0
  -31.3512  -24.9068   25.0099 C   0  0  0  0  0  0  0  0  0  0  0  0
  -32.4273  -22.4894   26.8862 C   0  0  0  0  0  0  0  0  0  0  0  0
  -31.8890  -19.3910   28.2118 C   0  0  0  0  0  0  0  0  0  0  0  0
  -30.7353  -14.6664   20.6980 C   0  0  0  0  0  0  0  0  0  0  0  0
  -34.3797  -29.0005   24.6526 C   0  0  0  0  0  0  0  0  0  0  0  0
  -29.3765  -24.5339   26.5322 C   0  0  0  0  0  0  0  0  0  0  0  0
  -30.4188  -21.9898   25.4434 C   0  0  0  0  0  0  0  0  0  0  0  0
  -34.5904  -27.4976   24.8172 C   0  0  0  0  0  0  0  0  0  0  0  0
  -29.5918  -12.2451   18.3515 C   0  0  0  0  0  0  0  0  0  0  0  0
  -33.7589  -26.7270   23.7966 C   0  0  0  0  0  0  0  0  0  0  0  0
  -28.1445  -11.9834   18.7718 C   0  0  0  0  0  0  0  0  0  0  0  0
  -30.4966  -12.4796   19.5591 C   0  0  0  0  0  0  0  0  0  0  0  0
  -28.5887  -13.2714   20.9032 C   0  0  0  0  0  0  0  0  0  0  0  0
  -32.2610  -26.9885   23.9951 C   0  0  1  0  0  0  0  0  0  0  0  0
  -30.8678  -24.3102   26.3015 C   0  0  1  0  0  0  0  0  0  0  0  0
  -27.6272  -13.0846   19.7170 C   0  0  2  0  0  0  0  0  0  0  0  0
  -26.2073  -21.5282   16.6204 C   0  0  0  0  0  0  0  0  0  0  0  0
  -26.3626  -23.1464   18.5472 C   0  0  0  0  0  0  0  0  0  0  0  0
  -32.9652  -17.6612   29.6770 C   0  0  0  0  0  0  0  0  0  0  0  0
  -34.2731  -21.6959   24.5897 C   0  0  0  0  0  0  0  0  0  0  0  0
  -34.5988  -19.4803   25.7092 C   0  0  0  0  0  0  0  0  0  0  0  0
  -35.3187  -21.5741   26.8582 C   0  0  0  0  0  0  0  0  0  0  0  0
  -29.6974  -19.5399   30.1952 C   0  0  0  0  0  0  0  0  0  0  0  0
  -29.0752  -18.3411   20.7138 C   0  0  0  0  0  0  0  0  0  0  0  0
  -30.5686  -17.9795   20.8963 C   0  0  0  0  0  0  0  0  0  0  0  0
  -25.6997  -20.1717   21.2476 C   0  0  0  0  0  0  0  0  0  0  0  0
  -26.2808  -19.3398   20.1022 C   0  0  0  0  0  0  0  0  0  0  0  0
  -30.8186  -16.8437   21.8862 C   0  0  0  0  0  0  0  0  0  0  0  0
  -26.6835  -20.3976   22.3897 C   0  0  0  0  0  0  0  0  0  1  0  0
  -26.4006  -21.6532   18.1490 C   0  0  0  0  0  0  0  0  0  0  0  0
  -32.8520  -21.0602   26.6495 C   0  0  1  0  0  0  0  0  0  0  0  0
  -32.0334  -18.8621   29.6274 C   0  0  2  0  0  0  0  0  0  0  0  0
  -34.2345  -20.9617   25.9449 C   0  0  0  0  0  0  0  0  0  0  0  0
  -25.8077  -11.5348   20.3252 N   0  0  0  0  0  0  0  0  0  0  0  0
  -27.5483  -19.9118   19.5191 N   0  0  0  0  0  0  0  0  0  0  0  0
  -26.2062  -12.8091   20.1726 N   0  0  0  0  0  0  0  0  0  0  0  0
  -31.2296  -22.8915   26.2783 N   0  0  0  0  0  0  0  0  0  0  0  0
  -29.9507  -13.5365   20.4139 N   0  0  0  0  0  0  0  0  0  0  0  0
  -25.4713  -15.0532   20.3594 N   0  0  0  0  0  0  0  0  0  0  0  0
  -21.8331  -12.6621   21.5603 N   0  0  0  0  0  0  0  0  0  0  0  0
  -31.7585  -26.2230   25.1158 N   0  0  0  0  0  0  0  0  0  0  0  0
  -32.7944  -20.3969   27.9476 N   0  0  0  0  0  0  0  0  0  0  0  0
  -30.1399  -15.6235   21.5105 N   0  0  0  0  0  0  0  0  0  0  0  0
  -30.7058  -18.4494   30.1641 N   0  3  0  0  0  0  0  0  0  0  0  0
  -22.6456  -14.7827   21.2418 O   0  0  0  0  0  0  0  0  0  0  0  0
  -31.3558  -24.2231   23.9930 O   0  0  0  0  0  0  0  0  0  0  0  0
  -33.1287  -23.2199   27.5905 O   0  0  0  0  0  0  0  0  0  0  0  0
  -31.0588  -18.9530   27.4185 O   0  0  0  0  0  0  0  0  0  0  0  0
  -31.8797  -14.8140   20.2557 O   0  0  0  0  0  0  0  0  0  0  0  0
  -21.4720   -7.1077   21.7920 O   0  0  0  0  0  0  0  0  0  0  0  0
  -26.0500  -21.1952   23.3891 O   0  0  0  0  0  0  0  0  0  1  0  0
  -23.8032   -3.0839   24.7549 F   0  0  0  0  0  0  0  0  0  0  0  0
  -20.3814   -6.3077   24.2031 F   0  0  0  0  0  0  0  0  0  0  0  0
  1  2  1  0  0  0  0
  1  5  2  0  0  0  0
  2  6  2  0  0  0  0
  3  8  2  0  0  0  0
  3 17  1  0  0  0  0
  4  9  1  0  0  0  0
  4 17  2  0  0  0  0
  5 19  1  0  0  0  0
  6 21  1  0  0  0  0
  7 10  2  0  0  0  0
  7 20  1  0  0  0  0
  8 23  1  0  0  0  0
  9 23  2  0  0  0  0
 10 24  1  0  0  0  0
 11 12  2  0  0  0  0
 11 25  1  0  0  0  0
 12 26  1  0  0  0  0
 13 14  1  0  0  0  0
 13 29  2  0  0  0  0
 14 30  2  0  0  0  0
 15 22  1  0  0  0  0
 15 24  2  0  0  0  0
 16 26  2  0  0  0  0
 16 27  1  0  0  0  0
 17 28  1  0  0  0  0
 18 28  1  0  0  0  0
 18 31  2  0  0  0  0
 18 32  1  0  0  0  0
 19 21  2  0  0  0  0
 19 37  1  0  0  0  0
 20 22  2  0  0  0  0
 20 38  1  0  0  0  0
 21 46  1  0  0  0  0
 22 39  1  0  0  0  0
 23 82  1  0  0  0  0
 24 83  1  0  0  0  0
 25 27  2  0  0  0  0
 25 82  1  0  0  0  0
 26 84  1  0  0  0  0
 27 85  1  0  0  0  0
 28 66  2  0  0  0  0
 29 56  1  0  0  0  0
 29 67  1  0  0  0  0
 30 62  1  0  0  0  0
 30 67  1  0  0  0  0
 31 68  1  0  0  0  0
 31 71  1  0  0  0  0
 32 72  1  0  0  0  0
 32 77  2  0  0  0  0
 33 47  1  0  0  0  0
 33 73  1  0  0  0  0
 33 78  2  0  0  0  0
 34 63  1  0  0  0  0
 34 69  1  0  0  0  0
 34 79  2  0  0  0  0
 35 64  1  0  0  0  0
 35 74  1  0  0  0  0
 35 80  2  0  0  0  0
 36 70  1  0  0  0  0
 36 75  1  0  0  0  0
 36 81  2  0  0  0  0
 37 40  1  0  0  0  0
 38 47  1  0  0  0  0
 39 69  1  0  0  0  0
 40 42  1  0  0  0  0
 41 43  1  0  0  0  0
 41 44  1  0  0  0  0
 42 46  1  0  0  0  0
 43 48  1  0  0  0  0
 44 70  1  0  0  0  0
 45 48  1  0  0  0  0
 45 70  1  0  0  0  0
 46 73  1  0  0  0  0
 47 69  1  0  0  0  0
 48 68  1  0  0  0  0
 49 62  1  0  0  0  0
 50 62  1  0  0  0  0
 51 64  1  0  0  0  0
 52 65  1  0  0  0  0
 53 65  1  0  0  0  0
 54 65  1  0  0  0  0
 55 76  1  0  0  0  0
 56 57  1  0  0  0  0
 57 60  1  0  0  0  0
 58 59  1  0  0  0  0
 58 61  1  0  0  0  0
 59 67  1  0  0  0  0
 60 75  1  0  0  0  0
 61 83  1  0  0  0  0
 63 65  1  0  0  0  0
 63 74  1  0  0  0  0
 64 76  1  0  0  0  0
 66 68  1  0  0  0  0
M  CHG  1  76   1
M  ISO  4  36 100  61 101  75 100  83 101
M  END
> <Batch ID>
0114

> <Smiles>
CNC(C)C(=O)NC(C(=O)N1Cc2cc([101O:1][101CH2:1]CCn3c(CCC[100NH:0][100C:0](=O)N4CCCC(n5nc(-c6ccc(Oc7ccc(F)cc7F)cc6)c(C(N)=O)c5N)C4)ccc3C(C)C)ccc2CC1C(=O)NC1CCCc2ccccc21)C(C)(C)C

> <Shape>
0.203

> <Color>
0.202

> <Negative vol penalty>
0.000

$$$$

  -OEChem-04052320083D

 81 89  0     1  0  0  0  0  0999 V2000
  -29.1032  -34.4950   20.4638 C   0  0  0  0  0  0  0  0  0  0  0  0
  -29.4395  -33.2486   19.9452 C   0  0  0  0  0  0  0  0  0  0  0  0
  -24.4127   -9.2832   21.6028 C   0  0  0  0  0  0  0  0  0  0  0  0
  -22.5102  -10.4087   20.6276 C   0  0  0  0  0  0  0  0  0  0  0  0
  -28.4579  -34.5848   21.6964 C   0  0  0  0  0  0  0  0  0  0  0  0
  -29.1315  -32.0913   20.6595 C   0  0  0  0  0  0  0  0  0  0  0  0
  -27.4985  -26.6616   18.3451 C   0  0  0  0  0  0  0  0  0  0  0  0
  -23.6766   -8.1006   21.6740 C   0  0  0  0  0  0  0  0  0  0  0  0
  -21.7741   -9.2260   20.6987 C   0  0  0  0  0  0  0  0  0  0  0  0
  -28.2166  -25.4918   18.1006 C   0  0  0  0  0  0  0  0  0  0  0  0
  -21.2969   -6.7645   23.6680 C   0  0  0  0  0  0  0  0  0  0  0  0
  -21.3642   -6.0304   24.8522 C   0  0  0  0  0  0  0  0  0  0  0  0
  -27.4819  -24.6050   20.2203 C   0  0  0  0  0  0  0  0  0  0  0  0
  -22.2489   -4.1425   23.6315 C   0  0  0  0  0  0  0  0  0  0  0  0
  -23.8295  -10.4373   21.0797 C   0  0  0  0  0  0  0  0  0  0  0  0
  -25.7891  -11.8736   20.3021 C   0  0  0  0  0  0  0  0  0  0  0  0
  -28.1332  -33.4276   22.4217 C   0  0  0  0  0  0  0  0  0  0  0  0
  -26.7743  -26.8165   19.5358 C   0  0  0  0  0  0  0  0  0  0  0  0
  -28.4824  -32.1658   21.9036 C   0  0  0  0  0  0  0  0  0  0  0  0
  -26.7533  -25.7766   20.4763 C   0  0  0  0  0  0  0  0  0  0  0  0
  -22.3574   -8.0719   21.2219 C   0  0  0  0  0  0  0  0  0  0  0  0
  -28.2108  -24.4645   19.0396 C   0  0  0  0  0  0  0  0  0  0  0  0
  -21.7056   -6.1876   22.4656 C   0  0  0  0  0  0  0  0  0  0  0  0
  -21.8402   -4.7194   24.8339 C   0  0  0  0  0  0  0  0  0  0  0  0
  -22.1816   -4.8766   22.4473 C   0  0  0  0  0  0  0  0  0  0  0  0
  -24.5891  -11.6595   21.0064 C   0  0  0  0  0  0  0  0  0  0  0  0
  -26.1026  -13.1878   20.5495 C   0  0  0  0  0  0  0  0  0  0  0  0
  -26.5521  -10.9658   19.4963 C   0  0  0  0  0  0  0  0  0  0  0  0
  -26.9047  -28.8259   21.9953 C   0  0  0  0  0  0  0  0  0  0  0  0
  -24.5063  -18.5351   20.9347 C   0  0  0  0  0  0  0  0  0  0  0  0
  -24.2059  -27.2731   22.9052 C   0  0  0  0  0  0  0  0  0  0  0  0
  -22.2945  -24.4503   22.7472 C   0  0  0  0  0  0  0  0  0  0  0  0
  -27.4777  -33.5770   23.7718 C   0  0  0  0  0  0  0  0  0  0  0  0
  -25.9831  -28.0736   19.7725 C   0  0  0  0  0  0  0  0  0  0  0  0
  -25.9753  -25.8852   21.7613 C   0  0  0  0  0  0  0  0  0  0  0  0
  -26.8512  -32.2855   24.2910 C   0  0  0  0  0  0  0  0  0  0  0  0
  -24.1591  -16.4803   23.8496 C   0  0  0  0  0  0  0  0  0  0  0  0
  -25.7832  -19.5282   15.3555 C   0  0  0  0  0  0  0  0  0  0  0  0
  -27.8160  -31.1168   24.1174 C   0  0  0  0  0  0  0  0  0  0  0  0
  -24.3084  -15.0595   23.3072 C   0  0  0  0  0  0  0  0  0  0  0  0
  -26.1135  -20.9734   15.6779 C   0  0  0  0  0  0  0  0  0  0  0  0
  -23.4465  -17.3871   22.8512 C   0  0  0  0  0  0  0  0  0  0  0  0
  -24.2364  -16.0057   20.9567 C   0  0  0  0  0  0  0  0  0  0  0  0
  -25.2446  -19.0092   16.6700 C   0  0  0  0  0  0  0  0  0  0  0  0
  -28.1429  -30.8864   22.6370 C   0  0  1  0  0  0  0  0  0  0  0  0
  -25.6981  -28.3312   21.2489 C   0  0  1  0  0  0  0  0  0  0  0  0
  -24.9786  -15.0643   21.9218 C   0  0  2  0  0  0  0  0  0  0  0  0
  -26.6939  -20.9371   17.0915 C   0  0  2  0  0  0  0  0  0  0  0  0
  -20.1618  -23.4636   23.6277 C   0  0  0  0  0  0  0  0  0  0  0  0
  -30.3357  -20.8001   18.4473 C   0  0  0  0  0  0  0  0  0  0  0  0
  -25.5527  -26.7699   25.5965 C   0  0  0  0  0  0  0  0  0  0  0  0
  -23.8215  -25.0209   26.0572 C   0  0  0  0  0  0  0  0  0  0  0  0
  -23.1364  -27.3985   25.7405 C   0  0  0  0  0  0  0  0  0  0  0  0
  -21.1576  -24.1864   20.0275 C   0  0  0  0  0  0  0  0  0  0  0  0
  -25.1756  -18.4128   19.5889 C   0  0  0  0  0  0  0  0  0  0  0  0
  -28.2155  -20.9138   17.1155 C   0  0  0  0  0  0  0  0  0  0  0  0
  -25.5636  -19.7766   19.0469 C   0  0  0  0  0  0  0  0  0  0  0  0
  -28.4032  -22.1183   19.3776 C   0  0  0  0  0  0  0  0  0  1  0  0
  -23.9050  -26.0534   23.7425 C   0  0  1  0  0  0  0  0  0  0  0  0
  -20.8099  -24.2516   22.5000 C   0  0  2  0  0  0  0  0  0  0  0  0
  -28.8086  -20.8997   18.5376 C   0  0  2  0  0  0  0  0  0  0  0  0
  -24.1202  -26.3091   25.2609 C   0  0  0  0  0  0  0  0  0  0  0  0
  -24.1690  -12.7502   21.6529 N   0  0  0  0  0  0  0  0  0  0  0  0
  -25.1101  -13.6623   21.3558 N   0  0  0  0  0  0  0  0  0  0  0  0
  -25.2228  -27.1365   21.9496 N   0  0  0  0  0  0  0  0  0  0  0  0
  -24.1001  -17.3467   21.5419 N   0  0  0  0  0  0  0  0  0  0  0  0
  -27.1276  -13.9722   20.1539 N   0  0  0  0  0  0  0  0  0  0  0  0
  -26.2638  -10.8835   18.1272 N   0  0  0  0  0  0  0  0  0  0  0  0
  -27.0518  -30.1998   21.9794 N   0  0  0  0  0  0  0  0  0  0  0  0
  -22.5499  -25.6420   23.3920 N   0  0  0  0  0  0  0  0  0  0  0  0
  -26.1722  -19.6315   17.6882 N   0  3  1  0  0  0  0  0  0  0  0  0
  -20.5915  -23.5127   21.2244 N   0  3  0  0  0  0  0  0  0  0  0  0
  -27.4516  -10.2370   19.9792 O   0  0  0  0  0  0  0  0  0  0  0  0
  -27.6464  -28.0208   22.5461 O   0  0  0  0  0  0  0  0  0  0  0  0
  -24.3528  -19.6541   21.4311 O   0  0  0  0  0  0  0  0  0  0  0  0
  -23.5577  -28.3066   23.0874 O   0  0  0  0  0  0  0  0  0  0  0  0
  -23.1424  -23.6286   22.4059 O   0  0  0  0  0  0  0  0  0  0  0  0
  -21.6389   -6.9180   21.2910 O   0  0  0  0  0  0  0  0  0  0  0  0
  -28.9114  -23.3220   18.8038 O   0  0  0  0  0  0  0  0  0  1  0  0
  -21.9062   -4.0151   25.9713 F   0  0  0  0  0  0  0  0  0  0  0  0
  -22.5768   -4.3174   21.2954 F   0  0  0  0  0  0  0  0  0  0  0  0
  1  2  1  0  0  0  0
  1  5  2  0  0  0  0
  2  6  2  0  0  0  0
  3  8  2  0  0  0  0
  3 15  1  0  0  0  0
  4  9  1  0  0  0  0
  4 15  2  0  0  0  0
  5 17  1  0  0  0  0
  6 19  1  0  0  0  0
  7 10  2  0  0  0  0
  7 18  1  0  0  0  0
  8 21  1  0  0  0  0
  9 21  2  0  0  0  0
 10 22  1  0  0  0  0
 11 12  2  0  0  0  0
 11 23  1  0  0  0  0
 12 24  1  0  0  0  0
 13 20  1  0  0  0  0
 13 22  2  0  0  0  0
 14 24  2  0  0  0  0
 14 25  1  0  0  0  0
 15 26  1  0  0  0  0
 16 26  1  0  0  0  0
 16 27  2  0  0  0  0
 16 28  1  0  0  0  0
 17 19  2  0  0  0  0
 17 33  1  0  0  0  0
 18 20  2  0  0  0  0
 18 34  1  0  0  0  0
 19 45  1  0  0  0  0
 20 35  1  0  0  0  0
 21 78  1  0  0  0  0
 22 79  1  0  0  0  0
 23 25  2  0  0  0  0
 23 78  1  0  0  0  0
 24 80  1  0  0  0  0
 25 81  1  0  0  0  0
 26 63  2  0  0  0  0
 27 64  1  0  0  0  0
 27 67  1  0  0  0  0
 28 68  1  0  0  0  0
 28 73  2  0  0  0  0
 29 46  1  0  0  0  0
 29 69  1  0  0  0  0
 29 74  2  0  0  0  0
 30 55  1  0  0  0  0
 30 66  1  0  0  0  0
 30 75  2  0  0  0  0
 31 59  1  0  0  0  0
 31 65  1  0  0  0  0
 31 76  2  0  0  0  0
 32 60  1  0  0  0  0
 32 70  1  0  0  0  0
 32 77  2  0  0  0  0
 33 36  1  0  0  0  0
 34 46  1  0  0  0  0
 35 65  1  0  0  0  0
 36 39  1  0  0  0  0
 37 40  1  0  0  0  0
 37 42  1  0  0  0  0
 38 41  1  0  0  0  0
 38 44  1  0  0  0  0
 39 45  1  0  0  0  0
 40 47  1  0  0  0  0
 41 48  1  0  0  0  0
 42 66  1  0  0  0  0
 43 47  1  0  0  0  0
 43 66  1  0  0  0  0
 44 71  1  0  0  0  0
 45 69  1  0  0  0  0
 46 65  1  0  0  0  0
 47 64  1  0  0  0  0
 48 56  1  0  0  0  0
 48 71  1  0  0  0  0
 49 60  1  0  0  0  0
 50 61  1  0  0  0  0
 51 62  1  0  0  0  0
 52 62  1  0  0  0  0
 53 62  1  0  0  0  0
 54 72  1  0  0  0  0
 55 57  1  0  0  0  0
 56 61  1  0  0  0  0
 57 71  1  0  0  0  0
 58 61  1  0  0  0  0
 58 79  1  0  0  0  0
 59 62  1  0  0  0  0
 59 70  1  0  0  0  0
 60 72  1  0  0  0  0
 63 64  1  0  0  0  0
M  CHG  2  71   1  72   1
M  ISO  4  30 100  55 100  58 101  79 101
M  END
> <Batch ID>
0114

> <Smiles>
CNC(C)C(=O)NC(C(=O)N1Cc2cc([101O:1][101CH2:1]C(C)CC3CCCN3C[100CH2:0][100C:0](=O)N3CCCC(n4nc(-c5ccc(Oc6ccc(F)cc6F)cc5)c(C(N)=O)c4N)C3)ccc2CC1C(=O)NC1CCCc2ccccc21)C(C)(C)C

> <Shape>
0.201

> <Color>
0.110

> <Negative vol penalty>
0.000

$$$$

  -OEChem-04052320083D

 87 95  0     1  0  0  0  0  0999 V2000
  -24.6020  -22.7853   14.7383 C   0  0  0  0  0  0  0  0  0  0  0  0
  -23.8781  -23.4285   15.7371 C   0  0  0  0  0  0  0  0  0  0  0  0
  -17.5025  -30.6257   23.2010 C   0  0  0  0  0  0  0  0  0  0  0  0
  -27.4359  -14.8388   21.9602 C   0  0  0  0  0  0  0  0  0  0  0  0
  -26.1657  -15.4276   19.9912 C   0  0  0  0  0  0  0  0  0  0  0  0
  -25.9354  -22.4415   14.9566 C   0  0  0  0  0  0  0  0  0  0  0  0
  -24.4871  -23.7273   16.9555 C   0  0  0  0  0  0  0  0  0  0  0  0
  -23.4533  -28.4234   18.5438 C   0  0  0  0  0  0  0  0  0  0  0  0
  -16.7449  -29.5762   23.7208 C   0  0  0  0  0  0  0  0  0  0  0  0
  -18.8224  -30.4050   22.8076 C   0  0  0  0  0  0  0  0  0  0  0  0
  -27.0376  -13.5095   21.8196 C   0  0  0  0  0  0  0  0  0  0  0  0
  -25.7674  -14.0983   19.8506 C   0  0  0  0  0  0  0  0  0  0  0  0
  -22.2038  -28.6388   19.1237 C   0  0  0  0  0  0  0  0  0  0  0  0
  -26.0632  -10.0252   22.1856 C   0  0  0  0  0  0  0  0  0  0  0  0
  -25.6382   -9.3496   23.3294 C   0  0  0  0  0  0  0  0  0  0  0  0
  -23.2061  -28.5158   21.3145 C   0  0  0  0  0  0  0  0  0  0  0  0
  -23.8705  -10.9691   23.6292 C   0  0  0  0  0  0  0  0  0  0  0  0
  -27.0000  -15.7979   21.0460 C   0  0  0  0  0  0  0  0  0  0  0  0
  -28.5523  -17.7804   20.6363 C   0  0  0  0  0  0  0  0  0  0  0  0
  -26.5638  -22.7449   16.1747 C   0  0  0  0  0  0  0  0  0  0  0  0
  -24.5886  -28.2414   19.3465 C   0  0  0  0  0  0  0  0  0  0  0  0
  -25.8298  -23.3861   17.1908 C   0  0  0  0  0  0  0  0  0  0  0  0
  -24.4692  -28.3008   20.7423 C   0  0  0  0  0  0  0  0  0  0  0  0
  -17.3073  -28.3061   23.8475 C   0  0  0  0  0  0  0  0  0  0  0  0
  -19.3849  -29.1349   22.9342 C   0  0  0  0  0  0  0  0  0  0  0  0
  -18.6273  -28.0854   23.4542 C   0  0  0  0  0  0  0  0  0  0  0  0
  -26.2034  -13.1392   20.7649 C   0  0  0  0  0  0  0  0  0  0  0  0
  -22.0796  -28.6822   20.5093 C   0  0  0  0  0  0  0  0  0  0  0  0
  -25.3919  -11.1728   21.7636 C   0  0  0  0  0  0  0  0  0  0  0  0
  -24.5418   -9.8215   24.0513 C   0  0  0  0  0  0  0  0  0  0  0  0
  -24.2956  -11.6447   22.4854 C   0  0  0  0  0  0  0  0  0  0  0  0
  -27.4106  -17.1714   21.1909 C   0  0  0  0  0  0  0  0  0  0  0  0
  -28.4891  -19.0835   21.0657 C   0  0  0  0  0  0  0  0  0  0  0  0
  -29.5780  -17.2184   19.8071 C   0  0  0  0  0  0  0  0  0  0  0  0
  -26.6718  -25.8806   19.7833 C   0  0  0  0  0  0  0  0  0  0  0  0
  -21.2079  -22.9018   21.0452 C   0  0  0  0  0  0  0  0  0  0  0  0
  -28.1830  -28.0784   21.6295 C   0  0  0  0  0  0  0  0  0  0  0  0
  -27.9725  -30.9146   23.5159 C   0  0  0  0  0  0  0  0  0  0  0  0
  -23.9527  -22.5987   22.7733 C   0  0  0  0  0  0  0  0  0  0  0  0
  -27.9933  -22.3111   16.3819 C   0  0  0  0  0  0  0  0  0  0  0  0
  -25.9336  -28.0366   18.7051 C   0  0  0  0  0  0  0  0  0  0  0  0
  -25.6606  -28.1315   21.6481 C   0  0  0  0  0  0  0  0  0  0  0  0
  -28.6734  -22.9987   17.5630 C   0  0  0  0  0  0  0  0  0  0  0  0
  -26.8451  -21.7617   24.6734 C   0  0  0  0  0  0  0  0  0  0  0  0
  -27.7627  -22.9826   18.7866 C   0  0  0  0  0  0  0  0  0  0  0  0
  -27.4210  -20.5453   23.9463 C   0  0  0  0  0  0  0  0  0  0  0  0
  -25.3181  -21.7560   24.6607 C   0  0  0  0  0  0  0  0  0  0  0  0
  -25.2863  -20.4108   22.5959 C   0  0  0  0  0  0  0  0  0  0  0  0
  -26.4624  -23.7493   18.5167 C   0  0  1  0  0  0  0  0  0  0  0  0
  -26.9373  -27.3513   19.6272 C   0  0  1  0  0  0  0  0  0  0  0  0
  -26.8233  -20.4015   22.5337 C   0  0  2  0  0  0  0  0  0  0  0  0
  -16.4745  -27.1993   24.4069 C   0  0  0  0  0  0  0  0  0  0  0  0
  -18.8285  -23.5149   20.4541 C   0  0  0  0  0  0  0  0  0  0  0  0
  -29.3676  -32.4477   24.9303 C   0  0  0  0  0  0  0  0  0  0  0  0
  -28.1553  -26.0210   23.8825 C   0  0  0  0  0  0  0  0  0  0  0  0
  -28.6670  -27.8737   25.4867 C   0  0  0  0  0  0  0  0  0  0  0  0
  -30.2870  -27.3121   23.6749 C   0  0  0  0  0  0  0  0  0  0  0  0
  -27.4270  -33.2277   21.7520 C   0  0  0  0  0  0  0  0  0  0  0  0
  -19.2304  -26.7234   23.5900 C   0  0  0  0  0  0  0  0  0  0  0  0
  -20.8066  -28.9242   22.5035 C   0  0  0  0  0  0  0  0  0  1  0  0
  -22.6433  -23.3197   20.7922 C   0  0  0  0  0  0  0  0  0  0  0  0
  -20.0072  -24.6725   22.3946 C   0  0  0  0  0  0  0  0  0  0  0  0
  -20.1572  -24.0156   21.0213 C   0  0  1  0  0  0  0  0  0  0  0  0
  -28.1218  -28.4762   23.0845 C   0  0  1  0  0  0  0  0  0  0  0  0
  -28.8191  -32.1745   23.5385 C   0  0  2  0  0  0  0  0  0  0  0  0
  -28.7848  -27.4220   24.0154 C   0  0  0  0  0  0  0  0  0  0  0  0
  -26.6761  -18.0180   21.9174 N   0  0  0  0  0  0  0  0  0  0  0  0
  -27.3578  -19.1723   21.8222 N   0  0  0  0  0  0  0  0  0  0  0  0
  -26.9531  -27.9275   20.9733 N   0  0  0  0  0  0  0  0  0  0  0  0
  -24.8152  -21.6186   23.2917 N   0  0  0  0  0  0  0  0  0  0  0  0
  -29.2916  -20.1506   20.8663 N   0  0  0  0  0  0  0  0  0  0  0  0
  -29.4891  -15.8634   19.4601 N   0  0  0  0  0  0  0  0  0  0  0  0
  -26.6915  -25.1761   18.5947 N   0  0  0  0  0  0  0  0  0  0  0  0
  -28.7156  -29.8061   23.1694 N   0  0  0  0  0  0  0  0  0  0  0  0
  -23.5277  -22.3953   21.4661 N   0  0  0  0  0  0  0  0  0  0  0  0
  -28.0088  -33.3508   23.1134 N   0  3  0  0  0  0  0  0  0  0  0  0
  -19.3580  -26.0063   22.2933 N   0  3  0  0  0  0  0  0  0  0  0  0
  -30.5535  -17.8937   19.3997 O   0  0  0  0  0  0  0  0  0  0  0  0
  -26.4659  -25.4190   20.8997 O   0  0  0  0  0  0  0  0  0  0  0  0
  -20.9122  -21.7346   21.3049 O   0  0  0  0  0  0  0  0  0  0  0  0
  -29.2816  -27.9149   21.0930 O   0  0  0  0  0  0  0  0  0  0  0  0
  -26.7728  -30.9134   23.7828 O   0  0  0  0  0  0  0  0  0  0  0  0
  -23.5927  -23.5848   23.4251 O   0  0  0  0  0  0  0  0  0  0  0  0
  -25.8147  -11.8421   20.6273 O   0  0  0  0  0  0  0  0  0  0  0  0
  -20.8611  -28.8916   21.0779 O   0  0  0  0  0  0  0  0  0  1  0  0
  -24.1328   -9.1717   25.1488 F   0  0  0  0  0  0  0  0  0  0  0  0
  -23.6460  -12.7461   22.0842 F   0  0  0  0  0  0  0  0  0  0  0  0
  1  2  1  0  0  0  0
  1  6  2  0  0  0  0
  2  7  2  0  0  0  0
  3  9  1  0  0  0  0
  3 10  2  0  0  0  0
  4 11  2  0  0  0  0
  4 18  1  0  0  0  0
  5 12  1  0  0  0  0
  5 18  2  0  0  0  0
  6 20  1  0  0  0  0
  7 22  1  0  0  0  0
  8 13  2  0  0  0  0
  8 21  1  0  0  0  0
  9 24  2  0  0  0  0
 10 25  1  0  0  0  0
 11 27  1  0  0  0  0
 12 27  2  0  0  0  0
 13 28  1  0  0  0  0
 14 15  2  0  0  0  0
 14 29  1  0  0  0  0
 15 30  1  0  0  0  0
 16 23  1  0  0  0  0
 16 28  2  0  0  0  0
 17 30  2  0  0  0  0
 17 31  1  0  0  0  0
 18 32  1  0  0  0  0
 19 32  1  0  0  0  0
 19 33  2  0  0  0  0
 19 34  1  0  0  0  0
 20 22  2  0  0  0  0
 20 40  1  0  0  0  0
 21 23  2  0  0  0  0
 21 41  1  0  0  0  0
 22 49  1  0  0  0  0
 23 42  1  0  0  0  0
 24 26  1  0  0  0  0
 24 52  1  0  0  0  0
 25 26  2  0  0  0  0
 25 60  1  0  0  0  0
 26 59  1  0  0  0  0
 27 84  1  0  0  0  0
 28 85  1  0  0  0  0
 29 31  2  0  0  0  0
 29 84  1  0  0  0  0
 30 86  1  0  0  0  0
 31 87  1  0  0  0  0
 32 67  2  0  0  0  0
 33 68  1  0  0  0  0
 33 71  1  0  0  0  0
 34 72  1  0  0  0  0
 34 78  2  0  0  0  0
 35 50  1  0  0  0  0
 35 73  1  0  0  0  0
 35 79  2  0  0  0  0
 36 61  1  0  0  0  0
 36 63  1  0  0  0  0
 36 80  2  0  0  0  0
 37 64  1  0  0  0  0
 37 69  1  0  0  0  0
 37 81  2  0  0  0  0
 38 65  1  0  0  0  0
 38 74  1  0  0  0  0
 38 82  2  0  0  0  0
 39 70  1  0  0  0  0
 39 75  1  0  0  0  0
 39 83  2  0  0  0  0
 40 43  1  0  0  0  0
 41 50  1  0  0  0  0
 42 69  1  0  0  0  0
 43 45  1  0  0  0  0
 44 46  1  0  0  0  0
 44 47  1  0  0  0  0
 45 49  1  0  0  0  0
 46 51  1  0  0  0  0
 47 70  1  0  0  0  0
 48 51  1  0  0  0  0
 48 70  1  0  0  0  0
 49 73  1  0  0  0  0
 50 69  1  0  0  0  0
 51 68  1  0  0  0  0
 53 63  1  0  0  0  0
 54 65  1  0  0  0  0
 55 66  1  0  0  0  0
 56 66  1  0  0  0  0
 57 66  1  0  0  0  0
 58 76  1  0  0  0  0
 59 77  1  0  0  0  0
 60 85  1  0  0  0  0
 61 75  1  0  0  0  0
 62 63  1  0  0  0  0
 62 77  1  0  0  0  0
 64 66  1  0  0  0  0
 64 74  1  0  0  0  0
 65 76  1  0  0  0  0
 67 68  1  0  0  0  0
M  CHG  2  76   1  77   1
M  ISO  4  39 100  60 101  75 100  85 101
M  END
> <Batch ID>
0114

> <Smiles>
CNC(C)C(=O)NC(C(=O)N1Cc2cc([101O:1][101CH2:1]c3cccc(C)c3CNCC(C)C(=O)C[100NH:0][100C:0](=O)N3CCCC(n4nc(-c5ccc(Oc6ccc(F)cc6F)cc5)c(C(N)=O)c4N)C3)ccc2CC1C(=O)NC1CCCc2ccccc21)C(C)(C)C

> <Shape>
0.211

> <Color>
0.072

> <Negative vol penalty>
0.000

$$$$

  -OEChem-04052320083D

 84 93  0     1  0  0  0  0  0999 V2000
  -29.1922  -24.9800   16.5196 C   0  0  0  0  0  0  0  0  0  0  0  0
  -27.9726  -25.0057   17.1885 C   0  0  0  0  0  0  0  0  0  0  0  0
  -26.1800  -13.4246   21.1664 C   0  0  0  0  0  0  0  0  0  0  0  0
  -25.1713  -14.3192   19.1616 C   0  0  0  0  0  0  0  0  0  0  0  0
  -30.3049  -25.6087   17.0768 C   0  0  0  0  0  0  0  0  0  0  0  0
  -27.8653  -25.6592   18.4156 C   0  0  0  0  0  0  0  0  0  0  0  0
  -23.7068  -28.5320   18.7297 C   0  0  0  0  0  0  0  0  0  0  0  0
  -25.6544  -12.1671   20.8698 C   0  0  0  0  0  0  0  0  0  0  0  0
  -24.6456  -13.0617   18.8650 C   0  0  0  0  0  0  0  0  0  0  0  0
  -22.5000  -27.8801   18.9796 C   0  0  0  0  0  0  0  0  0  0  0  0
  -24.2767   -8.8020   20.8268 C   0  0  0  0  0  0  0  0  0  0  0  0
  -23.6756   -8.0878   21.8631 C   0  0  0  0  0  0  0  0  0  0  0  0
  -22.6545  -28.4988   21.3061 C   0  0  0  0  0  0  0  0  0  0  0  0
  -22.0744   -9.8719   22.1637 C   0  0  0  0  0  0  0  0  0  0  0  0
  -20.5024  -25.0533   22.9915 C   0  0  0  0  0  0  0  0  0  0  0  0
  -25.9384  -14.5007   20.3123 C   0  0  0  0  0  0  0  0  0  0  0  0
  -27.7287  -16.3157   20.2204 C   0  0  0  0  0  0  0  0  0  0  0  0
  -30.2089  -26.2785   18.3067 C   0  0  0  0  0  0  0  0  0  0  0  0
  -24.4032  -29.1639   19.7700 C   0  0  0  0  0  0  0  0  0  0  0  0
  -28.9782  -26.2964   18.9904 C   0  0  0  0  0  0  0  0  0  0  0  0
  -23.8686  -29.1602   21.0663 C   0  0  0  0  0  0  0  0  0  0  0  0
  -24.8872  -11.9856   19.7191 C   0  0  0  0  0  0  0  0  0  0  0  0
  -21.9751  -27.8610   20.2685 C   0  0  0  0  0  0  0  0  0  0  0  0
  -23.7768  -10.0512   20.4589 C   0  0  0  0  0  0  0  0  0  0  0  0
  -22.5744   -8.6227   22.5316 C   0  0  0  0  0  0  0  0  0  0  0  0
  -22.6756  -10.5861   21.1274 C   0  0  0  0  0  0  0  0  0  0  0  0
  -26.4807  -15.8000   20.6185 C   0  0  0  0  0  0  0  0  0  0  0  0
  -20.4533  -24.5895   21.7072 C   0  0  0  0  0  0  0  0  0  0  0  0
  -27.7678  -17.5770   20.7625 C   0  0  0  0  0  0  0  0  0  0  0  0
  -21.8269  -23.2850   22.8526 C   0  0  0  0  0  0  0  0  0  0  0  0
  -28.7603  -15.7088   19.4310 C   0  0  0  0  0  0  0  0  0  0  0  0
  -27.2571  -28.7808   21.1160 C   0  0  0  0  0  0  0  0  0  0  0  0
  -26.4244  -31.4687   22.7297 C   0  0  0  0  0  0  0  0  0  0  0  0
  -23.9382  -33.4978   23.8909 C   0  0  0  0  0  0  0  0  0  0  0  0
  -23.2603  -21.2084   22.3050 C   0  0  0  0  0  0  0  0  0  0  0  0
  -31.4506  -26.9031   18.8920 C   0  0  0  0  0  0  0  0  0  0  0  0
  -25.6903  -29.8857   19.4789 C   0  0  0  0  0  0  0  0  0  0  0  0
  -24.5670  -29.8411   22.2140 C   0  0  0  0  0  0  0  0  0  0  0  0
  -31.1618  -27.8944   20.0164 C   0  0  0  0  0  0  0  0  0  0  0  0
  -24.6334  -26.1200   25.7892 C   0  0  0  0  0  0  0  0  0  0  0  0
  -26.1201  -20.1533   24.4120 C   0  0  0  0  0  0  0  0  0  0  0  0
  -30.1549  -27.3071   21.0002 C   0  0  0  0  0  0  0  0  0  0  0  0
  -23.5742  -25.3484   26.6033 C   0  0  0  0  0  0  0  0  0  0  0  0
  -23.7444  -25.8910   24.5493 C   0  0  0  0  0  0  0  0  0  0  0  0
  -26.5922  -18.9108   23.6648 C   0  0  0  0  0  0  0  0  0  0  0  0
  -24.6105  -20.3590   24.2950 C   0  0  0  0  0  0  0  0  0  0  0  0
  -24.6018  -19.1340   22.1317 C   0  0  0  0  0  0  0  0  0  0  0  0
  -28.8160  -27.0162   20.3116 C   0  0  1  0  0  0  0  0  0  0  0  0
  -26.5721  -30.0557   20.7121 C   0  0  1  0  0  0  0  0  0  0  0  0
  -23.1753  -24.6466   25.2790 C   0  0  0  0  0  0  0  0  0  0  0  0
  -26.1251  -18.9539   22.2027 C   0  0  2  0  0  0  0  0  0  0  0  0
  -23.5660  -35.6011   25.2081 C   0  0  0  0  0  0  0  0  0  0  0  0
  -21.2488  -23.1469   25.8965 C   0  0  0  0  0  0  0  0  0  0  0  0
  -27.0312  -29.9573   25.3099 C   0  0  0  0  0  0  0  0  0  0  0  0
  -25.7656  -31.7203   26.5582 C   0  0  0  0  0  0  0  0  0  0  0  0
  -27.8196  -32.3305   25.2810 C   0  0  0  0  0  0  0  0  0  0  0  0
  -22.6138  -34.8327   21.6054 C   0  0  0  0  0  0  0  0  0  0  0  0
  -19.6914  -25.0782   20.4993 C   0  0  0  0  0  0  0  0  0  0  0  0
  -20.4803  -26.1034   19.6919 C   0  0  0  0  0  0  0  0  0  1  0  0
  -25.7023  -31.7586   24.0233 C   0  0  1  0  0  0  0  0  0  0  0  0
  -23.7519  -35.0028   23.8223 C   0  0  2  0  0  0  0  0  0  0  0  0
  -21.7018  -24.3589   25.0803 C   0  0  2  0  0  0  0  0  0  0  0  0
  -26.5672  -31.4271   25.2721 C   0  0  0  0  0  0  0  0  0  0  0  0
  -25.7779  -16.6632   21.3567 N   0  0  0  0  0  0  0  0  0  0  0  0
  -21.3593  -24.2271   23.6780 N   0  0  0  0  0  0  0  0  0  0  0  0
  -26.5870  -17.7340   21.4268 N   0  0  0  0  0  0  0  0  0  0  0  0
  -21.2823  -23.4952   21.6498 N   0  3  0  0  0  0  0  0  0  0  0  0
  -25.8257  -30.5279   21.8800 N   0  0  0  0  0  0  0  0  0  0  0  0
  -24.1524  -20.3003   22.9007 N   0  0  0  0  0  0  0  0  0  0  0  0
  -28.6967  -18.5561   20.7312 N   0  0  0  0  0  0  0  0  0  0  0  0
  -28.5574  -14.4069   18.9531 N   0  0  0  0  0  0  0  0  0  0  0  0
  -22.7453  -22.2336   23.1821 N   0  0  0  0  0  0  0  0  0  0  0  0
  -28.0633  -28.2393   20.1330 N   0  0  0  0  0  0  0  0  0  0  0  0
  -25.2714  -33.1503   23.9473 N   0  0  0  0  0  0  0  0  0  0  0  0
  -22.5551  -35.3397   23.0006 N   0  3  0  0  0  0  0  0  0  0  0  0
  -29.8373  -16.2972   19.1713 O   0  0  0  0  0  0  0  0  0  0  0  0
  -27.0694  -28.3231   22.2372 O   0  0  0  0  0  0  0  0  0  0  0  0
  -27.4772  -32.0607   22.4791 O   0  0  0  0  0  0  0  0  0  0  0  0
  -22.9953  -32.7095   23.8976 O   0  0  0  0  0  0  0  0  0  0  0  0
  -22.9063  -21.1166   21.1311 O   0  0  0  0  0  0  0  0  0  0  0  0
  -24.3743  -10.7586   19.4292 O   0  0  0  0  0  0  0  0  0  0  0  0
  -20.7977  -27.2249   20.5153 O   0  0  0  0  0  0  0  0  0  1  0  0
  -21.9962   -7.9361   23.5258 F   0  0  0  0  0  0  0  0  0  0  0  0
  -22.1901  -11.7852   20.7776 F   0  0  0  0  0  0  0  0  0  0  0  0
  1  2  1  0  0  0  0
  1  5  2  0  0  0  0
  2  6  2  0  0  0  0
  3  8  2  0  0  0  0
  3 16  1  0  0  0  0
  4  9  1  0  0  0  0
  4 16  2  0  0  0  0
  5 18  1  0  0  0  0
  6 20  1  0  0  0  0
  7 10  2  0  0  0  0
  7 19  1  0  0  0  0
  8 22  1  0  0  0  0
  9 22  2  0  0  0  0
 10 23  1  0  0  0  0
 11 12  2  0  0  0  0
 11 24  1  0  0  0  0
 12 25  1  0  0  0  0
 13 21  1  0  0  0  0
 13 23  2  0  0  0  0
 14 25  2  0  0  0  0
 14 26  1  0  0  0  0
 15 28  2  0  0  0  0
 15 65  1  0  0  0  0
 16 27  1  0  0  0  0
 17 27  1  0  0  0  0
 17 29  2  0  0  0  0
 17 31  1  0  0  0  0
 18 20  2  0  0  0  0
 18 36  1  0  0  0  0
 19 21  2  0  0  0  0
 19 37  1  0  0  0  0
 20 48  1  0  0  0  0
 21 38  1  0  0  0  0
 22 81  1  0  0  0  0
 23 82  1  0  0  0  0
 24 26  2  0  0  0  0
 24 81  1  0  0  0  0
 25 83  1  0  0  0  0
 26 84  1  0  0  0  0
 27 64  2  0  0  0  0
 28 58  1  0  0  0  0
 28 67  1  0  0  0  0
 29 66  1  0  0  0  0
 29 70  1  0  0  0  0
 30 65  1  0  0  0  0
 30 67  2  0  0  0  0
 30 72  1  0  0  0  0
 31 71  1  0  0  0  0
 31 76  2  0  0  0  0
 32 49  1  0  0  0  0
 32 73  1  0  0  0  0
 32 77  2  0  0  0  0
 33 60  1  0  0  0  0
 33 68  1  0  0  0  0
 33 78  2  0  0  0  0
 34 61  1  0  0  0  0
 34 74  1  0  0  0  0
 34 79  2  0  0  0  0
 35 69  1  0  0  0  0
 35 72  1  0  0  0  0
 35 80  2  0  0  0  0
 36 39  1  0  0  0  0
 37 49  1  0  0  0  0
 38 68  1  0  0  0  0
 39 42  1  0  0  0  0
 40 43  1  0  0  0  0
 40 44  1  0  0  0  0
 41 45  1  0  0  0  0
 41 46  1  0  0  0  0
 42 48  1  0  0  0  0
 43 50  1  0  0  0  0
 44 50  1  0  0  0  0
 45 51  1  0  0  0  0
 46 69  1  0  0  0  0
 47 51  1  0  0  0  0
 47 69  1  0  0  0  0
 48 73  1  0  0  0  0
 49 68  1  0  0  0  0
 50 62  1  0  0  0  0
 51 66  1  0  0  0  0
 52 61  1  0  0  0  0
 53 62  1  0  0  0  0
 54 63  1  0  0  0  0
 55 63  1  0  0  0  0
 56 63  1  0  0  0  0
 57 75  1  0  0  0  0
 58 59  1  0  0  0  0
 59 82  1  0  0  0  0
 60 63  1  0  0  0  0
 60 74  1  0  0  0  0
 61 75  1  0  0  0  0
 62 65  1  0  0  0  0
 64 66  1  0  0  0  0
M  CHG  2  67   1  75   1
M  ISO  4  35 100  59 101  72 100  82 101
M  END
> <Batch ID>
0114

> <Smiles>
CNC(C)C(=O)NC(C(=O)N1Cc2cc([101O:1][101CH2:1]Cc3cn(C(C)C4CCC4)c([100NH:0][100C:0](=O)N4CCCC(n5nc(-c6ccc(Oc7ccc(F)cc7F)cc6)c(C(N)=O)c5N)C4)n3)ccc2CC1C(=O)NC1CCCc2ccccc21)C(C)(C)C

> <Shape>
0.265

> <Color>
0.079

> <Negative vol penalty>
0.000

$$$$

  -OEChem-04052320083D

 84 92  0     1  0  0  0  0  0999 V2000
  -24.1013  -31.7173   21.1009 C   0  0  0  0  0  0  0  0  0  0  0  0
  -25.4455  -31.5262   21.4043 C   0  0  0  0  0  0  0  0  0  0  0  0
  -23.4419   -9.8176   21.2081 C   0  0  0  0  0  0  0  0  0  0  0  0
  -24.1044  -10.6597   23.3735 C   0  0  0  0  0  0  0  0  0  0  0  0
  -23.3262  -30.6428   20.6670 C   0  0  0  0  0  0  0  0  0  0  0  0
  -26.0150  -30.2599   21.2750 C   0  0  0  0  0  0  0  0  0  0  0  0
  -32.2026  -27.0671   19.5909 C   0  0  0  0  0  0  0  0  0  0  0  0
  -22.7920   -8.7476   21.8230 C   0  0  0  0  0  0  0  0  0  0  0  0
  -23.4544   -9.5897   23.9885 C   0  0  0  0  0  0  0  0  0  0  0  0
  -33.0962  -26.1198   20.0887 C   0  0  0  0  0  0  0  0  0  0  0  0
  -19.8679   -8.2004   23.4303 C   0  0  0  0  0  0  0  0  0  0  0  0
  -18.5908   -7.8704   22.9766 C   0  0  0  0  0  0  0  0  0  0  0  0
  -31.6799  -24.3542   19.2545 C   0  0  0  0  0  0  0  0  0  0  0  0
  -32.4273  -15.6282   22.3727 C   0  0  0  0  0  0  0  0  0  0  0  0
  -19.3712   -5.6613   22.3867 C   0  0  0  0  0  0  0  0  0  0  0  0
  -32.5376  -16.8298   24.4222 C   0  0  0  0  0  0  0  0  0  0  0  0
  -24.0982  -10.7737   21.9834 C   0  0  0  0  0  0  0  0  0  0  0  0
  -24.2231  -13.1356   21.0277 C   0  0  0  0  0  0  0  0  0  0  0  0
  -23.8889  -29.3648   20.5230 C   0  0  0  0  0  0  0  0  0  0  0  0
  -31.0335  -26.6642   18.9296 C   0  0  0  0  0  0  0  0  0  0  0  0
  -25.2463  -29.1670   20.8400 C   0  0  0  0  0  0  0  0  0  0  0  0
  -30.7743  -25.2983   18.7470 C   0  0  0  0  0  0  0  0  0  0  0  0
  -32.9738  -16.6676   23.1172 C   0  0  0  0  0  0  0  0  0  0  0  0
  -31.4748  -14.7944   22.9479 C   0  0  0  0  0  0  0  0  0  0  0  0
  -22.7981   -8.6336   23.2132 C   0  0  0  0  0  0  0  0  0  0  0  0
  -32.8335  -24.7631   19.9231 C   0  0  0  0  0  0  0  0  0  0  0  0
  -20.8967   -7.2609   23.3621 C   0  0  0  0  0  0  0  0  0  0  0  0
  -18.3425   -6.6009   22.4549 C   0  0  0  0  0  0  0  0  0  0  0  0
  -20.6483   -5.9914   22.8404 C   0  0  0  0  0  0  0  0  0  0  0  0
  -24.7703  -11.8789   21.3487 C   0  0  0  0  0  0  0  0  0  0  0  0
  -31.1059  -15.0403   24.2607 C   0  0  0  0  0  0  0  0  0  0  0  0
  -25.2595  -13.8226   20.4443 C   0  0  0  0  0  0  0  0  0  0  0  0
  -22.8965  -13.6371   21.2380 C   0  0  0  0  0  0  0  0  0  0  0  0
  -27.9198  -27.0224   19.4593 C   0  0  0  0  0  0  0  0  0  0  0  0
  -27.6589  -25.6108   16.5505 C   0  0  0  0  0  0  0  0  0  0  0  0
  -29.0491  -23.5955   14.1730 C   0  0  0  0  0  0  0  0  0  0  0  0
  -31.2031  -13.3849   20.8778 C   0  0  0  0  0  0  0  0  0  0  0  0
  -22.9996  -28.2239   20.0959 C   0  0  0  0  0  0  0  0  0  0  0  0
  -30.0930  -27.6988   18.3749 C   0  0  0  0  0  0  0  0  0  0  0  0
  -29.5435  -24.8141   18.0265 C   0  0  0  0  0  0  0  0  0  0  0  0
  -23.7710  -26.9931   19.6267 C   0  0  0  0  0  0  0  0  0  0  0  0
  -29.2594  -13.1198   17.9064 C   0  0  0  0  0  0  0  0  0  0  0  0
  -24.8957  -26.6636   20.6030 C   0  0  0  0  0  0  0  0  0  0  0  0
  -27.8369  -12.8919   18.4228 C   0  0  0  0  0  0  0  0  0  0  0  0
  -30.2984  -12.4147   18.7765 C   0  0  0  0  0  0  0  0  0  0  0  0
  -28.7954  -12.4928   20.7269 C   0  0  0  0  0  0  0  0  0  0  0  0
  -25.9065  -27.8137   20.6886 C   0  0  1  0  0  0  0  0  0  0  0  0
  -28.6767  -27.1700   18.1698 C   0  0  1  0  0  0  0  0  0  0  0  0
  -27.7190  -13.2372   19.9203 C   0  0  2  0  0  0  0  0  0  0  0  0
  -30.0874  -14.1788   24.9340 C   0  0  0  0  0  0  0  0  0  0  0  0
  -28.5811  -22.5954   11.9195 C   0  0  0  0  0  0  0  0  0  0  0  0
  -25.7875  -23.5774   17.8441 C   0  0  0  0  0  0  0  0  0  0  0  0
  -26.1154  -22.1074   15.8442 C   0  0  0  0  0  0  0  0  0  0  0  0
  -25.0736  -24.3582   15.5780 C   0  0  0  0  0  0  0  0  0  0  0  0
  -31.3660  -24.9735   12.9516 C   0  0  0  0  0  0  0  0  0  0  0  0
  -34.0081  -17.5891   22.5231 C   0  0  0  0  0  0  0  0  0  0  0  0
  -33.3641  -18.8017   21.8475 C   0  0  0  0  0  0  0  0  0  0  0  0
  -34.4236  -19.7478   21.2798 C   0  0  0  0  0  0  0  0  0  0  0  0
  -33.7814  -20.9443   20.5746 C   0  0  0  0  0  0  0  0  0  0  0  0
  -34.8419  -21.8675   19.9772 C   0  0  0  0  0  0  0  0  0  0  0  0
  -27.5498  -24.1877   16.0587 C   0  0  1  0  0  0  0  0  0  0  0  0
  -29.1986  -23.7639   12.6717 C   0  0  2  0  0  0  0  0  0  0  0  0
  -26.1539  -23.5665   16.3466 C   0  0  0  0  0  0  0  0  0  0  0  0
  -31.6144  -16.0401   25.0153 N   0  0  0  0  0  0  0  0  0  0  0  0
  -26.0547  -11.7711   20.9983 N   0  0  0  0  0  0  0  0  0  0  0  0
  -26.3231  -12.9688   20.4509 N   0  0  0  0  0  0  0  0  0  0  0  0
  -28.6513  -25.8641   17.5079 N   0  0  0  0  0  0  0  0  0  0  0  0
  -30.1283  -12.7931   20.1810 N   0  0  0  0  0  0  0  0  0  0  0  0
  -25.3558  -15.0676   19.9315 N   0  0  0  0  0  0  0  0  0  0  0  0
  -21.9548  -12.7994   21.8510 N   0  0  0  0  0  0  0  0  0  0  0  0
  -30.9137  -13.7318   22.1970 N   0  0  0  0  0  0  0  0  0  0  0  0
  -26.7825  -27.8034   19.5367 N   0  0  0  0  0  0  0  0  0  0  0  0
  -27.9117  -24.2152   14.6456 N   0  0  0  0  0  0  0  0  0  0  0  0
  -34.2112  -23.0028   19.3191 N   0  0  0  0  0  0  0  0  0  1  0  0
  -30.6395  -23.8526   12.3014 N   0  3  0  0  0  0  0  0  0  0  0  0
  -22.5516  -14.7881   20.8777 O   0  0  0  0  0  0  0  0  0  0  0  0
  -28.3360  -26.2556   20.3198 O   0  0  0  0  0  0  0  0  0  0  0  0
  -26.8964  -26.4676   16.0965 O   0  0  0  0  0  0  0  0  0  0  0  0
  -29.8582  -22.9729   14.8573 O   0  0  0  0  0  0  0  0  0  0  0  0
  -32.2909  -13.5951   20.3352 O   0  0  0  0  0  0  0  0  0  0  0  0
  -22.1638   -7.5898   23.8136 O   0  0  0  0  0  0  0  0  0  0  0  0
  -33.7038  -23.8363   20.4086 O   0  0  0  0  0  0  0  0  0  1  0  0
  -17.1157   -6.2836   22.0207 F   0  0  0  0  0  0  0  0  0  0  0  0
  -21.6323   -5.0842   22.7734 F   0  0  0  0  0  0  0  0  0  0  0  0
  1  2  1  0  0  0  0
  1  5  2  0  0  0  0
  2  6  2  0  0  0  0
  3  8  2  0  0  0  0
  3 17  1  0  0  0  0
  4  9  1  0  0  0  0
  4 17  2  0  0  0  0
  5 19  1  0  0  0  0
  6 21  1  0  0  0  0
  7 10  2  0  0  0  0
  7 20  1  0  0  0  0
  8 25  1  0  0  0  0
  9 25  2  0  0  0  0
 10 26  1  0  0  0  0
 11 12  2  0  0  0  0
 11 27  1  0  0  0  0
 12 28  1  0  0  0  0
 13 22  1  0  0  0  0
 13 26  2  0  0  0  0
 14 23  2  0  0  0  0
 14 24  1  0  0  0  0
 15 28  2  0  0  0  0
 15 29  1  0  0  0  0
 16 23  1  0  0  0  0
 16 64  2  0  0  0  0
 17 30  1  0  0  0  0
 18 30  1  0  0  0  0
 18 32  2  0  0  0  0
 18 33  1  0  0  0  0
 19 21  2  0  0  0  0
 19 38  1  0  0  0  0
 20 22  2  0  0  0  0
 20 39  1  0  0  0  0
 21 47  1  0  0  0  0
 22 40  1  0  0  0  0
 23 56  1  0  0  0  0
 24 31  2  0  0  0  0
 24 71  1  0  0  0  0
 25 81  1  0  0  0  0
 26 82  1  0  0  0  0
 27 29  2  0  0  0  0
 27 81  1  0  0  0  0
 28 83  1  0  0  0  0
 29 84  1  0  0  0  0
 30 65  2  0  0  0  0
 31 50  1  0  0  0  0
 31 64  1  0  0  0  0
 32 66  1  0  0  0  0
 32 69  1  0  0  0  0
 33 70  1  0  0  0  0
 33 76  2  0  0  0  0
 34 48  1  0  0  0  0
 34 72  1  0  0  0  0
 34 77  2  0  0  0  0
 35 61  1  0  0  0  0
 35 67  1  0  0  0  0
 35 78  2  0  0  0  0
 36 62  1  0  0  0  0
 36 73  1  0  0  0  0
 36 79  2  0  0  0  0
 37 68  1  0  0  0  0
 37 71  1  0  0  0  0
 37 80  2  0  0  0  0
 38 41  1  0  0  0  0
 39 48  1  0  0  0  0
 40 67  1  0  0  0  0
 41 43  1  0  0  0  0
 42 44  1  0  0  0  0
 42 45  1  0  0  0  0
 43 47  1  0  0  0  0
 44 49  1  0  0  0  0
 45 68  1  0  0  0  0
 46 49  1  0  0  0  0
 46 68  1  0  0  0  0
 47 72  1  0  0  0  0
 48 67  1  0  0  0  0
 49 66  1  0  0  0  0
 51 62  1  0  0  0  0
 52 63  1  0  0  0  0
 53 63  1  0  0  0  0
 54 63  1  0  0  0  0
 55 75  1  0  0  0  0
 56 57  1  0  0  0  0
 57 58  1  0  0  0  0
 58 59  1  0  0  0  0
 59 60  1  0  0  0  0
 60 74  1  0  0  0  0
 61 63  1  0  0  0  0
 61 73  1  0  0  0  0
 62 75  1  0  0  0  0
 65 66  1  0  0  0  0
 74 82  1  0  0  0  0
M  CHG  1  75   1
M  ISO  4  37 100  71 100  74 101  82 101
M  END
> <Batch ID>
0114

> <Smiles>
CNC(C)C(=O)NC(C(=O)N1Cc2cc([101O:1][101NH:1]CCCCCc3cnc(C)c([100NH:0][100C:0](=O)N4CCCC(n5nc(-c6ccc(Oc7ccc(F)cc7F)cc6)c(C(N)=O)c5N)C4)c3)ccc2CC1C(=O)NC1CCCc2ccccc21)C(C)(C)C

> <Shape>
0.244

> <Color>
0.173

> <Negative vol penalty>
0.000

$$$$

  -OEChem-04052320083D

 79 87  0     1  0  0  0  0  0999 V2000
  -36.6585  -26.8884   13.2020 C   0  0  0  0  0  0  0  0  0  0  0  0
  -36.8044  -25.7618   14.0052 C   0  0  0  0  0  0  0  0  0  0  0  0
  -30.2406  -18.9306   23.1706 C   0  0  0  0  0  0  0  0  0  0  0  0
  -23.0711   -9.8754   19.9375 C   0  0  0  0  0  0  0  0  0  0  0  0
  -23.8328   -9.8743   22.2303 C   0  0  0  0  0  0  0  0  0  0  0  0
  -35.5843  -27.7536   13.4053 C   0  0  0  0  0  0  0  0  0  0  0  0
  -35.8766  -25.5005   15.0128 C   0  0  0  0  0  0  0  0  0  0  0  0
  -33.9350  -20.0055   16.8946 C   0  0  0  0  0  0  0  0  0  0  0  0
  -22.3256   -8.7227   20.1847 C   0  0  0  0  0  0  0  0  0  0  0  0
  -23.0872   -8.7216   22.4775 C   0  0  0  0  0  0  0  0  0  0  0  0
  -34.3001  -19.2003   17.9726 C   0  0  0  0  0  0  0  0  0  0  0  0
  -19.3772   -7.9266   21.6359 C   0  0  0  0  0  0  0  0  0  0  0  0
  -18.0698   -7.8839   21.1516 C   0  0  0  0  0  0  0  0  0  0  0  0
  -31.5045  -19.3575   22.7787 C   0  0  0  0  0  0  0  0  0  0  0  0
  -29.7629  -17.6993   22.7358 C   0  0  0  0  0  0  0  0  0  0  0  0
  -32.4573  -20.0875   19.2517 C   0  0  0  0  0  0  0  0  0  0  0  0
  -18.6253   -5.9439   19.8232 C   0  0  0  0  0  0  0  0  0  0  0  0
  -23.8248  -10.4512   20.9603 C   0  0  0  0  0  0  0  0  0  0  0  0
  -24.1706  -12.9761   20.8475 C   0  0  0  0  0  0  0  0  0  0  0  0
  -34.6376  -27.4976   14.4096 C   0  0  0  0  0  0  0  0  0  0  0  0
  -32.8330  -20.8673   16.9910 C   0  0  0  0  0  0  0  0  0  0  0  0
  -34.7894  -26.3639   15.2306 C   0  0  0  0  0  0  0  0  0  0  0  0
  -32.0788  -20.9008   18.1726 C   0  0  0  0  0  0  0  0  0  0  0  0
  -22.3336   -8.1458   21.4546 C   0  0  0  0  0  0  0  0  0  0  0  0
  -33.5630  -19.2433   19.1524 C   0  0  0  0  0  0  0  0  0  0  0  0
  -20.3087   -6.9780   21.2138 C   0  0  0  0  0  0  0  0  0  0  0  0
  -17.6939   -6.8926   20.2452 C   0  0  0  0  0  0  0  0  0  0  0  0
  -19.9327   -5.9866   20.3075 C   0  0  0  0  0  0  0  0  0  0  0  0
  -24.5956  -11.6415   20.7055 C   0  0  0  0  0  0  0  0  0  0  0  0
  -32.2454  -18.5225   21.9579 C   0  0  0  0  0  0  0  0  0  0  0  0
  -30.5817  -16.9387   21.9167 C   0  0  0  0  0  0  0  0  0  0  0  0
  -25.2637  -13.7249   20.4856 C   0  0  0  0  0  0  0  0  0  0  0  0
  -22.9013  -13.4927   21.2690 C   0  0  0  0  0  0  0  0  0  0  0  0
  -32.4265  -24.0156   16.8291 C   0  0  0  0  0  0  0  0  0  0  0  0
  -29.2841  -23.2259   16.9843 C   0  0  0  0  0  0  0  0  0  0  0  0
  -26.9085  -20.9633   17.9243 C   0  0  0  0  0  0  0  0  0  0  0  0
  -30.7318  -14.7611   20.6590 C   0  0  0  0  0  0  0  0  0  0  0  0
  -33.5194  -28.4871   14.6224 C   0  0  0  0  0  0  0  0  0  0  0  0
  -32.4362  -21.7098   15.8099 C   0  0  0  0  0  0  0  0  0  0  0  0
  -30.8749  -21.7938   18.3199 C   0  0  0  0  0  0  0  0  0  0  0  0
  -32.3725  -27.9378   15.4669 C   0  0  0  0  0  0  0  0  0  0  0  0
  -29.6115  -12.3561   18.2845 C   0  0  0  0  0  0  0  0  0  0  0  0
  -32.9129  -27.2297   16.7052 C   0  0  0  0  0  0  0  0  0  0  0  0
  -28.1718  -12.0656   18.7144 C   0  0  0  0  0  0  0  0  0  0  0  0
  -30.5280  -12.5798   19.4861 C   0  0  0  0  0  0  0  0  0  0  0  0
  -28.6233  -13.3033   20.8710 C   0  0  0  0  0  0  0  0  0  0  0  0
  -33.7901  -26.0331   16.3177 C   0  0  1  0  0  0  0  0  0  0  0  0
  -31.6041  -22.9282   16.1977 C   0  0  1  0  0  0  0  0  0  0  0  0
  -27.6493  -13.1351   19.6935 C   0  0  2  0  0  0  0  0  0  0  0  0
  -34.7117  -18.4774   22.4663 C   0  0  0  0  0  0  0  0  0  0  0  0
  -24.4236  -20.6139   17.9551 C   0  0  0  0  0  0  0  0  0  0  0  0
  -29.0447  -25.1531   19.3377 C   0  0  0  0  0  0  0  0  0  0  0  0
  -26.8602  -24.0724   19.9105 C   0  0  0  0  0  0  0  0  0  0  0  0
  -27.1375  -25.2374   17.7222 C   0  0  0  0  0  0  0  0  0  0  0  0
  -27.1083  -18.5608   16.2077 C   0  0  0  0  0  0  0  0  0  0  0  0
  -33.6239  -18.9539   21.5122 C   0  0  1  0  0  0  0  0  0  1  0  0
  -28.2879  -23.0178   18.0993 C   0  0  1  0  0  0  0  0  0  0  0  0
  -25.7144  -20.3897   17.1828 C   0  0  2  0  0  0  0  0  0  0  0  0
  -27.8564  -24.3547   18.7656 C   0  0  0  0  0  0  0  0  0  0  0  0
  -25.8600  -11.5449   20.2859 N   0  0  0  0  0  0  0  0  0  0  0  0
  -31.8151  -17.3199   21.5152 N   0  0  0  0  0  0  0  0  0  0  0  0
  -26.2389  -12.8282   20.1611 N   0  0  0  0  0  0  0  0  0  0  0  0
  -30.5308  -22.6032   17.1393 N   0  0  0  0  0  0  0  0  0  0  0  0
  -29.9714  -13.6090   20.3670 N   0  0  0  0  0  0  0  0  0  0  0  0
  -25.4762  -15.0562   20.4164 N   0  0  0  0  0  0  0  0  0  0  0  0
  -21.8882  -12.5842   21.6044 N   0  0  0  0  0  0  0  0  0  0  0  0
  -30.0865  -15.6847   21.4807 N   0  0  0  0  0  0  0  0  0  0  0  0
  -32.9671  -24.9095   15.9245 N   0  0  0  0  0  0  0  0  0  0  0  0
  -27.1860  -22.2535   17.5248 N   0  0  0  0  0  0  0  0  0  0  0  0
  -25.8891  -18.9244   16.9747 N   0  3  0  0  0  0  0  0  0  0  0  0
  -22.6671  -14.7236   21.3302 O   0  0  0  0  0  0  0  0  0  0  0  0
  -32.5596  -24.0426   18.0470 O   0  0  0  0  0  0  0  0  0  0  0  0
  -28.9654  -23.9097   16.0084 O   0  0  0  0  0  0  0  0  0  0  0  0
  -27.5303  -20.3315   18.7756 O   0  0  0  0  0  0  0  0  0  0  0  0
  -31.8607  -14.9293   20.1910 O   0  0  0  0  0  0  0  0  0  0  0  0
  -21.6060   -7.0212   21.6962 O   0  0  0  0  0  0  0  0  0  0  0  0
  -33.9176  -18.4589   20.2064 O   0  0  0  0  0  0  0  0  0  1  0  0
  -16.4380   -6.8508   19.7814 F   0  0  0  0  0  0  0  0  0  0  0  0
  -20.8228   -5.0718   19.8992 F   0  0  0  0  0  0  0  0  0  0  0  0
  1  2  1  0  0  0  0
  1  6  2  0  0  0  0
  2  7  2  0  0  0  0
  3 14  2  0  0  0  0
  3 15  1  0  0  0  0
  4  9  2  0  0  0  0
  4 18  1  0  0  0  0
  5 10  1  0  0  0  0
  5 18  2  0  0  0  0
  6 20  1  0  0  0  0
  7 22  1  0  0  0  0
  8 11  2  0  0  0  0
  8 21  1  0  0  0  0
  9 24  1  0  0  0  0
 10 24  2  0  0  0  0
 11 25  1  0  0  0  0
 12 13  2  0  0  0  0
 12 26  1  0  0  0  0
 13 27  1  0  0  0  0
 14 30  1  0  0  0  0
 15 31  2  0  0  0  0
 16 23  1  0  0  0  0
 16 25  2  0  0  0  0
 17 27  2  0  0  0  0
 17 28  1  0  0  0  0
 18 29  1  0  0  0  0
 19 29  1  0  0  0  0
 19 32  2  0  0  0  0
 19 33  1  0  0  0  0
 20 22  2  0  0  0  0
 20 38  1  0  0  0  0
 21 23  2  0  0  0  0
 21 39  1  0  0  0  0
 22 47  1  0  0  0  0
 23 40  1  0  0  0  0
 24 76  1  0  0  0  0
 25 77  1  0  0  0  0
 26 28  2  0  0  0  0
 26 76  1  0  0  0  0
 27 78  1  0  0  0  0
 28 79  1  0  0  0  0
 29 60  2  0  0  0  0
 30 56  1  0  0  0  0
 30 61  2  0  0  0  0
 31 61  1  0  0  0  0
 31 67  1  0  0  0  0
 32 62  1  0  0  0  0
 32 65  1  0  0  0  0
 33 66  1  0  0  0  0
 33 71  2  0  0  0  0
 34 48  1  0  0  0  0
 34 68  1  0  0  0  0
 34 72  2  0  0  0  0
 35 57  1  0  0  0  0
 35 63  1  0  0  0  0
 35 73  2  0  0  0  0
 36 58  1  0  0  0  0
 36 69  1  0  0  0  0
 36 74  2  0  0  0  0
 37 64  1  0  0  0  0
 37 67  1  0  0  0  0
 37 75  2  0  0  0  0
 38 41  1  0  0  0  0
 39 48  1  0  0  0  0
 40 63  1  0  0  0  0
 41 43  1  0  0  0  0
 42 44  1  0  0  0  0
 42 45  1  0  0  0  0
 43 47  1  0  0  0  0
 44 49  1  0  0  0  0
 45 64  1  0  0  0  0
 46 49  1  0  0  0  0
 46 64  1  0  0  0  0
 47 68  1  0  0  0  0
 48 63  1  0  0  0  0
 49 62  1  0  0  0  0
 50 56  1  0  0  0  0
 51 58  1  0  0  0  0
 52 59  1  0  0  0  0
 53 59  1  0  0  0  0
 54 59  1  0  0  0  0
 55 70  1  0  0  0  0
 56 77  1  0  0  0  0
 57 59  1  0  0  0  0
 57 69  1  0  0  0  0
 58 70  1  0  0  0  0
 60 62  1  0  0  0  0
M  CHG  1  70   1
M  ISO  4  37 100  56 101  67 100  77 101
M  END
> <Batch ID>
0114

> <Smiles>
CNC(C)C(=O)NC(C(=O)N1Cc2cc([101O:1][101CH:1](C)c3cccc([100NH:0][100C:0](=O)N4CCCC(n5nc(-c6ccc(Oc7ccc(F)cc7F)cc6)c(C(N)=O)c5N)C4)n3)ccc2CC1C(=O)NC1CCCc2ccccc21)C(C)(C)C

> <Shape>
0.187

> <Color>
0.196

> <Negative vol penalty>
0.000

$$$$

  -OEChem-04052320083D

 84 92  0     1  0  0  0  0  0999 V2000
  -18.5082  -28.8864   22.5008 C   0  0  0  0  0  0  0  0  0  0  0  0
  -17.9741  -27.6136   22.6738 C   0  0  0  0  0  0  0  0  0  0  0  0
  -31.3633  -20.9792   19.3310 C   0  0  0  0  0  0  0  0  0  0  0  0
  -29.0067  -20.9156   19.8598 C   0  0  0  0  0  0  0  0  0  0  0  0
  -19.8866  -29.0511   22.3718 C   0  0  0  0  0  0  0  0  0  0  0  0
  -18.8181  -26.5044   22.7168 C   0  0  0  0  0  0  0  0  0  0  0  0
  -19.4149  -20.0587   25.7849 C   0  0  0  0  0  0  0  0  0  0  0  0
  -31.1637  -22.1379   18.5806 C   0  0  0  0  0  0  0  0  0  0  0  0
  -28.8071  -22.0744   19.1094 C   0  0  0  0  0  0  0  0  0  0  0  0
  -19.6226  -18.7214   25.4497 C   0  0  0  0  0  0  0  0  0  0  0  0
  -29.2615  -25.4005   19.4978 C   0  0  0  0  0  0  0  0  0  0  0  0
  -28.4638  -26.4010   20.0531 C   0  0  0  0  0  0  0  0  0  0  0  0
  -21.9942  -19.1346   25.2955 C   0  0  0  0  0  0  0  0  0  0  0  0
  -25.0540  -13.7382   20.8449 C   0  0  0  0  0  0  0  0  0  0  0  0
  -26.9389  -26.2204   18.1879 C   0  0  0  0  0  0  0  0  0  0  0  0
  -24.7826  -11.0428   20.5177 C   0  0  0  0  0  0  0  0  0  0  0  0
  -30.2848  -20.3680   19.9705 C   0  0  0  0  0  0  0  0  0  0  0  0
  -30.7999  -19.0879   22.1161 C   0  0  0  0  0  0  0  0  0  0  0  0
  -20.7488  -27.9445   22.4230 C   0  0  0  0  0  0  0  0  0  0  0  0
  -20.4961  -20.9480   25.8673 C   0  0  0  0  0  0  0  0  0  0  0  0
  -20.2093  -26.6543   22.5870 C   0  0  0  0  0  0  0  0  0  0  0  0
  -21.7979  -20.4821   25.6343 C   0  0  0  0  0  0  0  0  0  0  0  0
  -23.6796  -11.7668   20.9408 C   0  0  0  0  0  0  0  0  0  0  0  0
  -29.8856  -22.6855   18.4698 C   0  0  0  0  0  0  0  0  0  0  0  0
  -20.9120  -18.2598   25.2022 C   0  0  0  0  0  0  0  0  0  0  0  0
  -28.8979  -24.8100   18.2875 C   0  0  0  0  0  0  0  0  0  0  0  0
  -23.8262  -13.1397   21.1050 C   0  0  0  0  0  0  0  0  0  0  0  0
  -27.3025  -26.8109   19.3982 C   0  0  0  0  0  0  0  0  0  0  0  0
  -27.7366  -25.2200   17.6326 C   0  0  0  0  0  0  0  0  0  0  0  0
  -30.4903  -19.1707   20.7453 C   0  0  0  0  0  0  0  0  0  0  0  0
  -26.0956  -12.9258   20.4263 C   0  0  0  0  0  0  0  0  0  0  0  0
  -30.8916  -17.7405   22.3666 C   0  0  0  0  0  0  0  0  0  0  0  0
  -30.9878  -20.1352   23.0771 C   0  0  0  0  0  0  0  0  0  0  0  0
  -21.3405  -23.6007   24.3331 C   0  0  0  0  0  0  0  0  0  0  0  0
  -23.7032  -23.6682   26.5547 C   0  0  0  0  0  0  0  0  0  0  0  0
  -25.6534  -21.9460   28.7633 C   0  0  0  0  0  0  0  0  0  0  0  0
  -28.5184  -12.9286   19.7364 C   0  0  0  0  0  0  0  0  0  0  0  0
  -22.2281  -28.1672   22.2315 C   0  0  0  0  0  0  0  0  0  0  0  0
  -20.2582  -22.3814   26.2561 C   0  0  0  0  0  0  0  0  0  0  0  0
  -22.9946  -21.3917   25.7296 C   0  0  0  0  0  0  0  0  0  0  0  0
  -23.0839  -26.9792   22.6633 C   0  0  0  0  0  0  0  0  0  0  0  0
  -31.9812  -13.5988   20.2235 C   0  0  0  0  0  0  0  0  0  0  0  0
  -22.5052  -25.6779   22.1170 C   0  0  0  0  0  0  0  0  0  0  0  0
  -32.0194  -15.0949   20.5433 C   0  0  0  0  0  0  0  0  0  0  0  0
  -30.9161  -13.2691   19.1792 C   0  0  0  0  0  0  0  0  0  0  0  0
  -29.6064  -15.2581   19.8100 C   0  0  0  0  0  0  0  0  0  0  0  0
  -21.0943  -25.4291   22.6636 C   0  0  1  0  0  0  0  0  0  0  0  0
  -21.3778  -23.3158   25.8079 C   0  0  1  0  0  0  0  0  0  0  0  0
  -30.6198  -15.6298   20.9047 C   0  0  2  0  0  0  0  0  0  0  0  0
  -22.4868  -10.0483   22.3470 C   0  0  0  0  0  0  0  0  0  0  0  0
  -21.8026  -10.4086   19.9476 C   0  0  0  0  0  0  0  0  0  0  0  0
  -27.5211  -22.2669   30.4082 C   0  0  0  0  0  0  0  0  0  0  0  0
  -25.6922  -23.8829   24.2508 C   0  0  0  0  0  0  0  0  0  0  0  0
  -27.5090  -23.2477   25.8520 C   0  0  0  0  0  0  0  0  0  0  0  0
  -26.2074  -25.3448   26.2134 C   0  0  0  0  0  0  0  0  0  0  0  0
  -23.9842  -21.0043   31.0185 C   0  0  0  0  0  0  0  0  0  0  0  0
  -21.9424  -15.4206   23.2051 C   0  0  0  0  0  0  0  0  0  0  0  0
  -22.2306  -16.6652   24.0298 C   0  0  0  0  0  0  0  0  0  1  0  0
  -23.0924  -15.0783   22.2709 C   0  0  0  0  0  0  0  0  0  0  0  0
  -22.3854  -11.0803   21.2066 C   0  0  0  0  0  0  0  0  0  0  0  0
  -25.1036  -23.1112   26.6433 C   0  0  1  0  0  0  0  0  0  0  0  0
  -26.0138  -22.2170   30.2128 C   0  0  2  0  0  0  0  0  0  0  0  0
  -26.1055  -23.8797   25.7361 C   0  0  0  0  0  0  0  0  0  0  0  0
  -25.9911  -11.5889   20.2553 N   0  0  0  0  0  0  0  0  0  0  0  0
  -30.3920  -17.9714   20.1655 N   0  0  0  0  0  0  0  0  0  0  0  0
  -30.6414  -17.1223   21.1769 N   0  0  0  0  0  0  0  0  0  0  0  0
  -22.7098  -22.7859   26.1069 N   0  0  0  0  0  0  0  0  0  0  0  0
  -29.6160  -13.8032   19.5909 N   0  0  0  0  0  0  0  0  0  0  0  0
  -31.1611  -17.0361   23.4863 N   0  0  0  0  0  0  0  0  0  0  0  0
  -30.8571  -21.4641   22.6512 N   0  0  0  0  0  0  0  0  0  0  0  0
  -27.3428  -13.5449   20.1638 N   0  0  0  0  0  0  0  0  0  0  0  0
  -21.1585  -24.9348   24.0223 N   0  0  0  0  0  0  0  0  0  0  0  0
  -25.4555  -23.1149   28.0591 N   0  0  0  0  0  0  0  0  0  0  0  0
  -25.4609  -21.1485   31.0924 N   0  3  0  0  0  0  0  0  0  0  0  0
  -31.2795  -19.9000   24.2742 O   0  0  0  0  0  0  0  0  0  0  0  0
  -21.4689  -22.6788   23.5362 O   0  0  0  0  0  0  0  0  0  0  0  0
  -23.4972  -24.8407   26.8779 O   0  0  0  0  0  0  0  0  0  0  0  0
  -25.5606  -20.8110   28.3009 O   0  0  0  0  0  0  0  0  0  0  0  0
  -28.6213  -11.7174   19.5254 O   0  0  0  0  0  0  0  0  0  0  0  0
  -29.6905  -23.8164   17.7379 O   0  0  0  0  0  0  0  0  0  0  0  0
  -21.1174  -16.9552   24.8742 O   0  0  0  0  0  0  0  0  0  1  0  0
  -22.7743  -13.9139   21.5208 O   0  0  0  0  0  0  0  0  0  0  0  0
  -26.5358  -27.7706   19.9324 F   0  0  0  0  0  0  0  0  0  0  0  0
  -27.3815  -24.6555   16.4702 F   0  0  0  0  0  0  0  0  0  0  0  0
  1  2  1  0  0  0  0
  1  5  2  0  0  0  0
  2  6  2  0  0  0  0
  3  8  2  0  0  0  0
  3 17  1  0  0  0  0
  4  9  1  0  0  0  0
  4 17  2  0  0  0  0
  5 19  1  0  0  0  0
  6 21  1  0  0  0  0
  7 10  2  0  0  0  0
  7 20  1  0  0  0  0
  8 24  1  0  0  0  0
  9 24  2  0  0  0  0
 10 25  1  0  0  0  0
 11 12  2  0  0  0  0
 11 26  1  0  0  0  0
 12 28  1  0  0  0  0
 13 22  1  0  0  0  0
 13 25  2  0  0  0  0
 14 27  1  0  0  0  0
 14 31  2  0  0  0  0
 15 28  2  0  0  0  0
 15 29  1  0  0  0  0
 16 23  1  0  0  0  0
 16 64  2  0  0  0  0
 17 30  1  0  0  0  0
 18 30  1  0  0  0  0
 18 32  2  0  0  0  0
 18 33  1  0  0  0  0
 19 21  2  0  0  0  0
 19 38  1  0  0  0  0
 20 22  2  0  0  0  0
 20 39  1  0  0  0  0
 21 47  1  0  0  0  0
 22 40  1  0  0  0  0
 23 27  2  0  0  0  0
 23 60  1  0  0  0  0
 24 80  1  0  0  0  0
 25 81  1  0  0  0  0
 26 29  2  0  0  0  0
 26 80  1  0  0  0  0
 27 82  1  0  0  0  0
 28 83  1  0  0  0  0
 29 84  1  0  0  0  0
 30 65  2  0  0  0  0
 31 64  1  0  0  0  0
 31 71  1  0  0  0  0
 32 66  1  0  0  0  0
 32 69  1  0  0  0  0
 33 70  1  0  0  0  0
 33 75  2  0  0  0  0
 34 48  1  0  0  0  0
 34 72  1  0  0  0  0
 34 76  2  0  0  0  0
 35 61  1  0  0  0  0
 35 67  1  0  0  0  0
 35 77  2  0  0  0  0
 36 62  1  0  0  0  0
 36 73  1  0  0  0  0
 36 78  2  0  0  0  0
 37 68  1  0  0  0  0
 37 71  1  0  0  0  0
 37 79  2  0  0  0  0
 38 41  1  0  0  0  0
 39 48  1  0  0  0  0
 40 67  1  0  0  0  0
 41 43  1  0  0  0  0
 42 44  1  0  0  0  0
 42 45  1  0  0  0  0
 43 47  1  0  0  0  0
 44 49  1  0  0  0  0
 45 68  1  0  0  0  0
 46 49  1  0  0  0  0
 46 68  1  0  0  0  0
 47 72  1  0  0  0  0
 48 67  1  0  0  0  0
 49 66  1  0  0  0  0
 50 60  1  0  0  0  0
 51 60  1  0  0  0  0
 52 62  1  0  0  0  0
 53 63  1  0  0  0  0
 54 63  1  0  0  0  0
 55 63  1  0  0  0  0
 56 74  1  0  0  0  0
 57 58  1  0  0  0  0
 57 59  1  0  0  0  0
 58 81  1  0  0  0  0
 59 82  1  0  0  0  0
 61 63  1  0  0  0  0
 61 73  1  0  0  0  0
 62 74  1  0  0  0  0
 65 66  1  0  0  0  0
M  CHG  1  74   1
M  ISO  4  37 100  58 101  71 100  81 101
M  END
> <Batch ID>
0114

> <Smiles>
CNC(C)C(=O)NC(C(=O)N1Cc2cc([101O:1][101CH2:1]CCOc3cc([100NH:0][100C:0](=O)N4CCCC(n5nc(-c6ccc(Oc7ccc(F)cc7F)cc6)c(C(N)=O)c5N)C4)ncc3C(C)C)ccc2CC1C(=O)NC1CCCc2ccccc21)C(C)(C)C

> <Shape>
0.228

> <Color>
0.074

> <Negative vol penalty>
0.000

$$$$

  -OEChem-04052320083D

 87 95  0     1  0  0  0  0  0999 V2000
  -16.5505  -30.0776   23.9211 C   0  0  0  0  0  0  0  0  0  0  0  0
  -17.3546  -29.1336   24.5518 C   0  0  0  0  0  0  0  0  0  0  0  0
  -26.7897  -12.5370   21.7094 C   0  0  0  0  0  0  0  0  0  0  0  0
  -26.1979  -13.9138   19.8144 C   0  0  0  0  0  0  0  0  0  0  0  0
  -16.8956  -30.5522   22.6564 C   0  0  0  0  0  0  0  0  0  0  0  0
  -18.5037  -28.6627   23.9174 C   0  0  0  0  0  0  0  0  0  0  0  0
  -23.7902  -27.0820   26.5745 C   0  0  0  0  0  0  0  0  0  0  0  0
  -25.4845  -12.0479   21.7618 C   0  0  0  0  0  0  0  0  0  0  0  0
  -24.8926  -13.4247   19.8667 C   0  0  0  0  0  0  0  0  0  0  0  0
  -24.3219  -25.8472   26.9439 C   0  0  0  0  0  0  0  0  0  0  0  0
  -23.6124   -9.7636   20.1156 C   0  0  0  0  0  0  0  0  0  0  0  0
  -23.4413   -8.3894   20.2821 C   0  0  0  0  0  0  0  0  0  0  0  0
  -25.5491  -25.7615   24.8689 C   0  0  0  0  0  0  0  0  0  0  0  0
  -26.8825  -22.2153   25.3390 C   0  0  0  0  0  0  0  0  0  0  0  0
  -22.2294   -8.7888   22.3337 C   0  0  0  0  0  0  0  0  0  0  0  0
  -27.1465  -13.4700   20.7358 C   0  0  0  0  0  0  0  0  0  0  0  0
  -29.5748  -13.4406   19.9549 C   0  0  0  0  0  0  0  0  0  0  0  0
  -18.0547  -30.0941   22.0103 C   0  0  0  0  0  0  0  0  0  0  0  0
  -24.1260  -27.6616   25.3425 C   0  0  0  0  0  0  0  0  0  0  0  0
  -18.8638  -29.1306   22.6423 C   0  0  0  0  0  0  0  0  0  0  0  0
  -25.0222  -27.0049   24.4872 C   0  0  0  0  0  0  0  0  0  0  0  0
  -26.8736  -21.2124   24.3758 C   0  0  0  0  0  0  0  0  0  0  0  0
  -25.7337  -21.0045   23.6072 C   0  0  0  0  0  0  0  0  0  0  0  0
  -24.5359  -12.4918   20.8404 C   0  0  0  0  0  0  0  0  0  0  0  0
  -25.1992  -25.1855   26.0898 C   0  0  0  0  0  0  0  0  0  0  0  0
  -23.0922  -10.6505   21.0582 C   0  0  0  0  0  0  0  0  0  0  0  0
  -22.7498   -7.9019   21.3911 C   0  0  0  0  0  0  0  0  0  0  0  0
  -22.4007  -10.1631   22.1672 C   0  0  0  0  0  0  0  0  0  0  0  0
  -28.4945  -13.9759   20.6815 C   0  0  0  0  0  0  0  0  0  0  0  0
  -24.6377  -21.8200   23.8390 C   0  0  0  0  0  0  0  0  0  0  0  0
  -25.7352  -22.9765   25.4933 C   0  0  0  0  0  0  0  0  0  1  0  0
  -30.6260  -14.2791   20.2348 C   0  0  0  0  0  0  0  0  0  0  0  0
  -29.6238  -12.2883   19.1030 C   0  0  0  0  0  0  0  0  0  0  0  0
  -22.5031  -28.4989   22.7408 C   0  0  0  0  0  0  0  0  0  0  0  0
  -25.3604  -29.7358   21.8309 C   0  0  0  0  0  0  0  0  0  0  0  0
  -28.7605  -29.6932   22.1216 C   0  0  0  0  0  0  0  0  0  0  0  0
  -30.9272  -20.0093   21.9452 C   0  0  0  0  0  0  0  0  0  0  0  0
  -18.3613  -30.6012   20.6234 C   0  0  0  0  0  0  0  0  0  0  0  0
  -23.5647  -29.0066   24.9704 C   0  0  0  0  0  0  0  0  0  0  0  0
  -25.4305  -27.5940   23.1626 C   0  0  0  0  0  0  0  0  0  0  0  0
  -19.7962  -30.3298   20.1790 C   0  0  0  0  0  0  0  0  0  0  0  0
  -32.2856  -17.1928   23.6476 C   0  0  0  0  0  0  0  0  0  0  0  0
  -20.1876  -28.8885   20.4894 C   0  0  0  0  0  0  0  0  0  0  0  0
  -31.5655  -16.0006   23.0149 C   0  0  0  0  0  0  0  0  0  0  0  0
  -31.3642  -18.4033   23.7799 C   0  0  0  0  0  0  0  0  0  0  0  0
  -29.9790  -17.6229   21.8968 C   0  0  0  0  0  0  0  0  0  0  0  0
  -20.1315  -28.6140   21.9971 C   0  0  1  0  0  0  0  0  0  0  0  0
  -23.5743  -29.2628   23.4666 C   0  0  1  0  0  0  0  0  0  0  0  0
  -30.8834  -16.3956   21.6913 C   0  0  2  0  0  0  0  0  0  0  0  0
  -28.0956  -20.3753   24.1875 C   0  0  0  0  0  0  0  0  0  0  0  0
  -23.3848  -21.6437   23.0446 C   0  0  0  0  0  0  0  0  0  0  0  0
  -30.8284  -30.7947   21.2228 C   0  0  0  0  0  0  0  0  0  0  0  0
  -29.4363  -23.7912   19.6088 C   0  0  0  0  0  0  0  0  0  0  0  0
  -26.1809  -19.2537   20.1699 C   0  0  0  0  0  0  0  0  0  0  0  0
  -25.0961  -28.1236   19.2538 C   0  0  0  0  0  0  0  0  0  0  0  0
  -27.5390  -28.4965   18.8521 C   0  0  0  0  0  0  0  0  0  0  0  0
  -25.9812  -30.4425   18.9475 C   0  0  0  0  0  0  0  0  0  0  0  0
  -29.5289  -30.6976   24.7974 C   0  0  0  0  0  0  0  0  0  0  0  0
  -25.6955  -19.9368   22.5662 C   0  0  0  0  0  0  0  0  0  0  0  0
  -30.4140  -21.4976   20.0266 C   0  0  0  0  0  0  0  0  0  0  0  0
  -27.8773  -21.9215   20.1925 C   0  0  0  0  0  0  0  0  0  0  0  0
  -26.5610  -29.2133   21.0794 C   0  0  1  0  0  0  0  0  0  0  0  0
  -29.7691  -30.8113   22.3138 C   0  0  2  0  0  0  0  0  0  0  0  0
  -29.2909  -22.4818   20.3919 C   0  0  2  0  0  0  0  0  0  0  0  0
  -26.1563  -20.3998   21.1729 C   0  0  1  0  0  0  0  0  0  0  0  0
  -26.2853  -29.0567   19.5573 C   0  0  0  0  0  0  0  0  0  0  0  0
  -28.8286  -15.0698   21.3713 N   0  0  0  0  0  0  0  0  0  0  0  0
  -24.6089  -22.8041   24.7655 N   0  0  0  0  0  0  0  0  0  0  0  0
  -30.1308  -15.2286   21.0794 N   0  0  0  0  0  0  0  0  0  0  0  0
  -24.8499  -28.9082   22.8409 N   0  0  0  0  0  0  0  0  0  0  0  0
  -30.7505  -18.7266   22.4896 N   0  0  0  0  0  0  0  0  0  0  0  0
  -31.9164  -14.2895   19.8384 N   0  0  0  0  0  0  0  0  0  0  0  0
  -28.4530  -11.5388   18.9251 N   0  0  0  0  0  0  0  0  0  0  0  0
  -21.2962  -29.1664   22.6550 N   0  0  0  0  0  0  0  0  0  0  0  0
  -27.6647  -30.1127   21.3973 N   0  0  0  0  0  0  0  0  0  0  0  0
  -30.3175  -20.2304   20.7163 N   0  0  0  0  0  0  0  0  0  0  0  0
  -30.4502  -30.6736   23.6322 N   0  3  0  0  0  0  0  0  0  0  0  0
  -27.5381  -20.9537   21.2665 N   0  3  0  0  0  0  0  0  0  0  0  0
  -30.6787  -11.9245   18.5301 O   0  0  0  0  0  0  0  0  0  0  0  0
  -22.7534  -27.3870   22.2907 O   0  0  0  0  0  0  0  0  0  0  0  0
  -24.8972  -30.8407   21.5374 O   0  0  0  0  0  0  0  0  0  0  0  0
  -28.9296  -28.5599   22.5661 O   0  0  0  0  0  0  0  0  0  0  0  0
  -31.5843  -20.8904   22.5097 O   0  0  0  0  0  0  0  0  0  0  0  0
  -23.2623  -12.0146   20.8911 O   0  0  0  0  0  0  0  0  0  0  0  0
  -25.7191  -23.9799   26.4478 O   0  0  0  0  0  0  0  0  0  1  0  0
  -22.5841   -6.5823   21.5500 F   0  0  0  0  0  0  0  0  0  0  0  0
  -21.8975  -11.0103   23.0755 F   0  0  0  0  0  0  0  0  0  0  0  0
  1  2  1  0  0  0  0
  1  5  2  0  0  0  0
  2  6  2  0  0  0  0
  3  8  2  0  0  0  0
  3 16  1  0  0  0  0
  4  9  1  0  0  0  0
  4 16  2  0  0  0  0
  5 18  1  0  0  0  0
  6 20  1  0  0  0  0
  7 10  2  0  0  0  0
  7 19  1  0  0  0  0
  8 24  1  0  0  0  0
  9 24  2  0  0  0  0
 10 25  1  0  0  0  0
 11 12  2  0  0  0  0
 11 26  1  0  0  0  0
 12 27  1  0  0  0  0
 13 21  1  0  0  0  0
 13 25  2  0  0  0  0
 14 22  2  0  0  0  0
 14 31  1  0  0  0  0
 15 27  2  0  0  0  0
 15 28  1  0  0  0  0
 16 29  1  0  0  0  0
 17 29  1  0  0  0  0
 17 32  2  0  0  0  0
 17 33  1  0  0  0  0
 18 20  2  0  0  0  0
 18 38  1  0  0  0  0
 19 21  2  0  0  0  0
 19 39  1  0  0  0  0
 20 47  1  0  0  0  0
 21 40  1  0  0  0  0
 22 23  1  0  0  0  0
 22 50  1  0  0  0  0
 23 30  2  0  0  0  0
 23 59  1  0  0  0  0
 24 84  1  0  0  0  0
 25 85  1  0  0  0  0
 26 28  2  0  0  0  0
 26 84  1  0  0  0  0
 27 86  1  0  0  0  0
 28 87  1  0  0  0  0
 29 67  2  0  0  0  0
 30 51  1  0  0  0  0
 30 68  1  0  0  0  0
 31 68  2  0  0  0  0
 31 85  1  0  0  0  0
 32 69  1  0  0  0  0
 32 72  1  0  0  0  0
 33 73  1  0  0  0  0
 33 79  2  0  0  0  0
 34 48  1  0  0  0  0
 34 74  1  0  0  0  0
 34 80  2  0  0  0  0
 35 62  1  0  0  0  0
 35 70  1  0  0  0  0
 35 81  2  0  0  0  0
 36 63  1  0  0  0  0
 36 75  1  0  0  0  0
 36 82  2  0  0  0  0
 37 71  1  0  0  0  0
 37 76  1  0  0  0  0
 37 83  2  0  0  0  0
 38 41  1  0  0  0  0
 39 48  1  0  0  0  0
 40 70  1  0  0  0  0
 41 43  1  0  0  0  0
 42 44  1  0  0  0  0
 42 45  1  0  0  0  0
 43 47  1  0  0  0  0
 44 49  1  0  0  0  0
 45 71  1  0  0  0  0
 46 49  1  0  0  0  0
 46 71  1  0  0  0  0
 47 74  1  0  0  0  0
 48 70  1  0  0  0  0
 49 69  1  0  0  0  0
 52 63  1  0  0  0  0
 53 64  1  0  0  0  0
 54 65  1  0  0  0  0
 55 66  1  0  0  0  0
 56 66  1  0  0  0  0
 57 66  1  0  0  0  0
 58 77  1  0  0  0  0
 59 65  1  0  0  0  0
 60 64  1  0  0  0  0
 60 76  1  0  0  0  0
 61 64  1  0  0  0  0
 61 78  1  0  0  0  0
 62 66  1  0  0  0  0
 62 75  1  0  0  0  0
 63 77  1  0  0  0  0
 65 78  1  0  0  0  0
 67 69  1  0  0  0  0
M  CHG  2  77   1  78   1
M  ISO  4  31 101  37 100  76 100  85 101
M  END
> <Batch ID>
0114

> <Smiles>
CNC(C)C(=O)NC(C(=O)N1Cc2cc([101O:1][101c:1]3cc(C)c(CC(C)NCC(C)C[100NH:0][100C:0](=O)N4CCCC(n5nc(-c6ccc(Oc7ccc(F)cc7F)cc6)c(C(N)=O)c5N)C4)c(C)n3)ccc2CC1C(=O)NC1CCCc2ccccc21)C(C)(C)C

> <Shape>
0.266

> <Color>
0.078

> <Negative vol penalty>
0.000

$$$$

  -OEChem-04052320083D

 84 92  0     1  0  0  0  0  0999 V2000
  -26.9155  -37.8447   24.0307 C   0  0  0  0  0  0  0  0  0  0  0  0
  -27.6040  -36.9687   23.1976 C   0  0  0  0  0  0  0  0  0  0  0  0
  -25.2700  -10.1115   23.0069 C   0  0  0  0  0  0  0  0  0  0  0  0
  -24.2334  -12.0993   23.9074 C   0  0  0  0  0  0  0  0  0  0  0  0
  -26.0496  -37.3451   25.0025 C   0  0  0  0  0  0  0  0  0  0  0  0
  -27.4279  -35.5924   23.3367 C   0  0  0  0  0  0  0  0  0  0  0  0
  -27.3042  -29.5613   19.4732 C   0  0  0  0  0  0  0  0  0  0  0  0
  -25.0204   -9.4393   24.2033 C   0  0  0  0  0  0  0  0  0  0  0  0
  -23.9837  -11.4272   25.1038 C   0  0  0  0  0  0  0  0  0  0  0  0
  -27.8763  -28.2903   19.4419 C   0  0  0  0  0  0  0  0  0  0  0  0
  -22.3972   -7.9320   25.7133 C   0  0  0  0  0  0  0  0  0  0  0  0
  -21.8807   -6.6387   25.6347 C   0  0  0  0  0  0  0  0  0  0  0  0
  -26.2944  -27.5440   21.1031 C   0  0  0  0  0  0  0  0  0  0  0  0
  -23.8141   -5.7950   26.8126 C   0  0  0  0  0  0  0  0  0  0  0  0
  -24.8766  -11.4415   22.8589 C   0  0  0  0  0  0  0  0  0  0  0  0
  -24.2936  -12.2085   20.4968 C   0  0  0  0  0  0  0  0  0  0  0  0
  -25.8554  -35.9623   25.1472 C   0  0  0  0  0  0  0  0  0  0  0  0
  -26.2280  -29.8366   20.3291 C   0  0  0  0  0  0  0  0  0  0  0  0
  -26.5596  -35.0738   24.3123 C   0  0  0  0  0  0  0  0  0  0  0  0
  -25.7087  -28.8186   21.1415 C   0  0  0  0  0  0  0  0  0  0  0  0
  -24.3773  -10.0971   25.2518 C   0  0  0  0  0  0  0  0  0  0  0  0
  -27.3733  -27.2822   20.2591 C   0  0  0  0  0  0  0  0  0  0  0  0
  -23.6222   -8.1568   26.3414 C   0  0  0  0  0  0  0  0  0  0  0  0
  -22.5891   -5.5702   26.1843 C   0  0  0  0  0  0  0  0  0  0  0  0
  -24.3306   -7.0883   26.8911 C   0  0  0  0  0  0  0  0  0  0  0  0
  -25.1347  -12.1366   21.6234 C   0  0  0  0  0  0  0  0  0  0  0  0
  -24.9892  -12.9795   19.5978 C   0  0  0  0  0  0  0  0  0  0  0  0
  -22.9993  -11.6303   20.2822 C   0  0  0  0  0  0  0  0  0  0  0  0
  -25.7549  -31.8121   22.7739 C   0  0  0  0  0  0  0  0  0  0  0  0
  -22.7088  -30.7168   22.5646 C   0  0  0  0  0  0  0  0  0  0  0  0
  -20.5834  -28.2361   21.5768 C   0  0  0  0  0  0  0  0  0  0  0  0
  -29.2342  -17.1541   20.2328 C   0  0  0  0  0  0  0  0  0  0  0  0
  -24.9451  -35.4679   26.2434 C   0  0  0  0  0  0  0  0  0  0  0  0
  -25.6048  -31.2055   20.3314 C   0  0  0  0  0  0  0  0  0  0  0  0
  -24.5417  -29.0572   22.0632 C   0  0  0  0  0  0  0  0  0  0  0  0
  -24.5288  -34.0086   26.0775 C   0  0  0  0  0  0  0  0  0  0  0  0
  -29.4529  -14.1499   18.3345 C   0  0  0  0  0  0  0  0  0  0  0  0
  -25.7392  -33.1430   25.7421 C   0  0  0  0  0  0  0  0  0  0  0  0
  -29.1599  -23.4399   20.0511 C   0  0  0  0  0  0  0  0  0  0  0  0
  -29.0362  -21.9206   19.9887 C   0  0  0  0  0  0  0  0  0  0  0  0
  -28.2951  -13.2998   18.8605 C   0  0  0  0  0  0  0  0  0  0  0  0
  -26.9427  -23.6672   18.8752 C   0  0  0  0  0  0  0  0  0  0  0  0
  -30.1013  -14.9707   19.4471 C   0  0  0  0  0  0  0  0  0  0  0  0
  -28.0098  -14.9566   20.7505 C   0  0  0  0  0  0  0  0  0  0  0  0
  -26.3761  -33.5752   24.4159 C   0  0  1  0  0  0  0  0  0  0  0  0
  -24.8436  -31.5133   21.6172 C   0  0  1  0  0  0  0  0  0  0  0  0
  -28.4103  -24.1109   18.8970 C   0  0  1  0  0  0  0  0  0  0  0  0
  -27.5692  -21.4603   19.9668 C   0  0  1  0  0  0  0  0  0  0  0  0
  -26.8017  -22.1358   18.8045 C   0  0  1  0  0  0  0  0  0  0  0  0
  -27.2883  -14.1534   19.6548 C   0  0  2  0  0  0  0  0  0  0  0  0
  -25.3159  -21.7643   18.7883 C   0  0  0  0  0  0  0  0  0  0  0  0
  -18.1536  -27.6087   21.5746 C   0  0  0  0  0  0  0  0  0  0  0  0
  -28.2713  -19.0367   23.6227 C   0  0  0  0  0  0  0  0  0  0  0  0
  -22.8889  -30.0186   25.5294 C   0  0  0  0  0  0  0  0  0  0  0  0
  -20.8659  -28.5721   25.2402 C   0  0  0  0  0  0  0  0  0  0  0  0
  -20.7113  -31.0271   24.8256 C   0  0  0  0  0  0  0  0  0  0  0  0
  -20.4906  -28.1435   18.6201 C   0  0  0  0  0  0  0  0  0  0  0  0
  -27.5194  -19.9314   19.8933 C   0  0  0  0  0  0  0  0  0  0  0  0
  -28.5121  -25.6178   18.9986 C   0  0  0  0  0  0  0  0  0  1  0  0
  -21.9426  -29.5656   23.1703 C   0  0  1  0  0  0  0  0  0  0  0  0
  -19.2795  -28.2766   20.8005 C   0  0  2  0  0  0  0  0  0  0  0  0
  -28.2338  -19.2629   21.0763 C   0  0  1  0  0  0  0  0  0  0  0  0
  -27.5960  -19.6798   22.4159 C   0  0  1  0  0  0  0  0  0  0  0  0
  -21.6254  -29.7915   24.6755 C   0  0  0  0  0  0  0  0  0  0  0  0
  -26.2773  -12.8081   21.4577 N   0  0  0  0  0  0  0  0  0  0  0  0
  -26.1591  -13.3093   20.2163 N   0  0  0  0  0  0  0  0  0  0  0  0
  -23.9708  -30.4139   22.0342 N   0  0  0  0  0  0  0  0  0  0  0  0
  -29.0929  -15.7585   20.1602 N   0  0  0  0  0  0  0  0  0  0  0  0
  -24.7081  -13.4006   18.3464 N   0  0  0  0  0  0  0  0  0  0  0  0
  -22.4298  -10.8667   21.3103 N   0  0  0  0  0  0  0  0  0  0  0  0
  -25.6008  -33.0813   23.2982 N   0  0  0  0  0  0  0  0  0  0  0  0
  -20.7631  -29.3749   22.3332 N   0  0  0  0  0  0  0  0  0  0  0  0
  -28.2313  -17.8252   20.9216 N   0  0  0  0  0  0  0  0  0  0  0  0
  -19.4322  -27.5756   19.4943 N   0  3  0  0  0  0  0  0  0  0  0  0
  -22.3736  -11.7724   19.2043 O   0  0  0  0  0  0  0  0  0  0  0  0
  -26.5387  -30.9542   23.1629 O   0  0  0  0  0  0  0  0  0  0  0  0
  -22.2030  -31.8418   22.5558 O   0  0  0  0  0  0  0  0  0  0  0  0
  -21.3627  -27.2874   21.5208 O   0  0  0  0  0  0  0  0  0  0  0  0
  -30.1811  -17.7579   19.7172 O   0  0  0  0  0  0  0  0  0  0  0  0
  -26.2109  -19.3416   22.4191 O   0  0  0  0  0  0  0  0  0  0  0  0
  -24.1333   -9.4415   26.4193 O   0  0  0  0  0  0  0  0  0  0  0  0
  -27.9303  -26.0409   20.2310 O   0  0  0  0  0  0  0  0  0  1  0  0
  -22.0923   -4.3285   26.1102 F   0  0  0  0  0  0  0  0  0  0  0  0
  -25.5074   -7.2983   27.4969 F   0  0  0  0  0  0  0  0  0  0  0  0
  1  2  1  0  0  0  0
  1  5  2  0  0  0  0
  2  6  2  0  0  0  0
  3  8  2  0  0  0  0
  3 15  1  0  0  0  0
  4  9  1  0  0  0  0
  4 15  2  0  0  0  0
  5 17  1  0  0  0  0
  6 19  1  0  0  0  0
  7 10  2  0  0  0  0
  7 18  1  0  0  0  0
  8 21  1  0  0  0  0
  9 21  2  0  0  0  0
 10 22  1  0  0  0  0
 11 12  2  0  0  0  0
 11 23  1  0  0  0  0
 12 24  1  0  0  0  0
 13 20  1  0  0  0  0
 13 22  2  0  0  0  0
 14 24  2  0  0  0  0
 14 25  1  0  0  0  0
 15 26  1  0  0  0  0
 16 26  1  0  0  0  0
 16 27  2  0  0  0  0
 16 28  1  0  0  0  0
 17 19  2  0  0  0  0
 17 33  1  0  0  0  0
 18 20  2  0  0  0  0
 18 34  1  0  0  0  0
 19 45  1  0  0  0  0
 20 35  1  0  0  0  0
 21 81  1  0  0  0  0
 22 82  1  0  0  0  0
 23 25  2  0  0  0  0
 23 81  1  0  0  0  0
 24 83  1  0  0  0  0
 25 84  1  0  0  0  0
 26 65  2  0  0  0  0
 27 66  1  0  0  0  0
 27 69  1  0  0  0  0
 28 70  1  0  0  0  0
 28 75  2  0  0  0  0
 29 46  1  0  0  0  0
 29 71  1  0  0  0  0
 29 76  2  0  0  0  0
 30 60  1  0  0  0  0
 30 67  1  0  0  0  0
 30 77  2  0  0  0  0
 31 61  1  0  0  0  0
 31 72  1  0  0  0  0
 31 78  2  0  0  0  0
 32 68  1  0  0  0  0
 32 73  1  0  0  0  0
 32 79  2  0  0  0  0
 33 36  1  0  0  0  0
 34 46  1  0  0  0  0
 35 67  1  0  0  0  0
 36 38  1  0  0  0  0
 37 41  1  0  0  0  0
 37 43  1  0  0  0  0
 38 45  1  0  0  0  0
 39 40  1  0  0  0  0
 39 47  1  0  0  0  0
 40 48  1  0  0  0  0
 41 50  1  0  0  0  0
 42 47  1  0  0  0  0
 42 49  1  0  0  0  0
 43 68  1  0  0  0  0
 44 50  1  0  0  0  0
 44 68  1  0  0  0  0
 45 71  1  0  0  0  0
 46 67  1  0  0  0  0
 47 59  1  0  0  0  0
 48 49  1  0  0  0  0
 48 58  1  0  0  0  0
 49 51  1  0  0  0  0
 50 66  1  0  0  0  0
 52 61  1  0  0  0  0
 53 63  1  0  0  0  0
 54 64  1  0  0  0  0
 55 64  1  0  0  0  0
 56 64  1  0  0  0  0
 57 74  1  0  0  0  0
 58 62  1  0  0  0  0
 59 82  1  0  0  0  0
 60 64  1  0  0  0  0
 60 72  1  0  0  0  0
 61 74  1  0  0  0  0
 62 63  1  0  0  0  0
 62 73  1  0  0  0  0
 63 80  1  0  0  0  0
 65 66  1  0  0  0  0
M  CHG  1  74   1
M  ISO  4  32 100  59 101  73 100  82 101
M  END
> <Batch ID>
0114

> <Smiles>
CNC(C)C(=O)NC(C(=O)N1Cc2cc([101O:1][101CH2:1]C3CCC(CC([100NH:0][100C:0](=O)N4CCCC(n5nc(-c6ccc(Oc7ccc(F)cc7F)cc6)c(C(N)=O)c5N)C4)C(C)O)C(C)C3)ccc2CC1C(=O)NC1CCCc2ccccc21)C(C)(C)C

> <Shape>
0.298

> <Color>
0.092

> <Negative vol penalty>
0.000

$$$$

  -OEChem-04052320083D

 84 93  0     1  0  0  0  0  0999 V2000
  -33.4552  -25.6098   21.1737 C   0  0  0  0  0  0  0  0  0  0  0  0
  -32.1171  -25.5665   21.5518 C   0  0  0  0  0  0  0  0  0  0  0  0
  -25.0402  -30.2024   20.2457 C   0  0  0  0  0  0  0  0  0  0  0  0
  -24.3101  -28.4790   21.7735 C   0  0  0  0  0  0  0  0  0  0  0  0
  -33.9166  -24.7816   20.1514 C   0  0  0  0  0  0  0  0  0  0  0  0
  -31.2393  -24.6958   20.9071 C   0  0  0  0  0  0  0  0  0  0  0  0
  -26.4966  -21.7327   23.4037 C   0  0  0  0  0  0  0  0  0  0  0  0
  -24.6333  -31.1798   21.1537 C   0  0  0  0  0  0  0  0  0  0  0  0
  -23.9032  -29.4565   22.6816 C   0  0  0  0  0  0  0  0  0  0  0  0
  -25.1282  -21.9990   23.4212 C   0  0  0  0  0  0  0  0  0  0  0  0
  -24.1177  -34.1242   23.2225 C   0  0  0  0  0  0  0  0  0  0  0  0
  -24.9842  -35.1916   23.4579 C   0  0  0  0  0  0  0  0  0  0  0  0
  -24.8233  -20.5246   21.5364 C   0  0  0  0  0  0  0  0  0  0  0  0
  -26.6735  -33.6489   24.2346 C   0  0  0  0  0  0  0  0  0  0  0  0
  -21.2464  -19.7326   18.8048 C   0  0  0  0  0  0  0  0  0  0  0  0
  -24.8785  -28.8519   20.5555 C   0  0  0  0  0  0  0  0  0  0  0  0
  -26.5642  -27.2319   19.5350 C   0  0  0  0  0  0  0  0  0  0  0  0
  -33.0461  -23.8933   19.5003 C   0  0  0  0  0  0  0  0  0  0  0  0
  -27.0411  -20.8673   22.4440 C   0  0  0  0  0  0  0  0  0  0  0  0
  -31.6892  -23.8559   19.8742 C   0  0  0  0  0  0  0  0  0  0  0  0
  -26.1986  -20.2469   21.5105 C   0  0  0  0  0  0  0  0  0  0  0  0
  -22.2854  -20.4947   16.9583 C   0  0  0  0  0  0  0  0  0  0  0  0
  -21.9755  -19.3325   17.7068 C   0  0  0  0  0  0  0  0  0  0  0  0
  -24.0648  -30.8069   22.3717 C   0  0  0  0  0  0  0  0  0  0  0  0
  -24.2918  -21.3972   22.4856 C   0  0  0  0  0  0  0  0  0  0  0  0
  -24.5291  -32.8192   23.4932 C   0  0  0  0  0  0  0  0  0  0  0  0
  -26.2621  -34.9540   23.9639 C   0  0  0  0  0  0  0  0  0  0  0  0
  -25.8070  -32.5815   23.9992 C   0  0  0  0  0  0  0  0  0  0  0  0
  -25.2981  -27.8418   19.6176 C   0  0  0  0  0  0  0  0  0  0  0  0
  -26.4527  -26.3498   18.4881 C   0  0  0  0  0  0  0  0  0  0  0  0
  -21.7363  -21.5698   17.6218 C   0  0  0  0  0  0  0  0  0  0  0  0
  -27.7362  -27.4436   20.3332 C   0  0  0  0  0  0  0  0  0  0  0  0
  -29.1590  -21.1720   20.0934 C   0  0  0  0  0  0  0  0  0  0  0  0
  -28.7821  -17.9585   19.8622 C   0  0  0  0  0  0  0  0  0  0  0  0
  -26.8190  -15.2239   20.4235 C   0  0  0  0  0  0  0  0  0  0  0  0
  -21.8105  -23.5114   16.0184 C   0  0  0  0  0  0  0  0  0  0  0  0
  -33.5808  -23.0514   18.3689 C   0  0  0  0  0  0  0  0  0  0  0  0
  -28.5155  -20.5696   22.4553 C   0  0  0  0  0  0  0  0  0  0  0  0
  -26.7306  -19.2944   20.4722 C   0  0  0  0  0  0  0  0  0  0  0  0
  -32.6671  -21.8886   17.9905 C   0  0  0  0  0  0  0  0  0  0  0  0
  -24.0880  -25.6996   14.3747 C   0  0  0  0  0  0  0  0  0  0  0  0
  -24.4725  -19.9474   15.6209 C   0  0  0  0  0  0  0  0  0  0  0  0
  -24.3070  -21.4344   15.5784 C   0  0  0  0  0  0  0  0  0  0  0  0
  -31.2212  -22.3610   17.8762 C   0  0  0  0  0  0  0  0  0  0  0  0
  -24.7764  -26.4374   15.5254 C   0  0  0  0  0  0  0  0  0  0  0  0
  -22.6121  -25.4390   14.6704 C   0  0  0  0  0  0  0  0  0  0  0  0
  -23.0329  -25.5009   17.0970 C   0  0  0  0  0  0  0  0  0  0  0  0
  -23.0784  -20.5465   15.6585 C   0  0  0  0  0  0  0  0  0  0  0  0
  -30.7116  -22.9069   19.2155 C   0  0  1  0  0  0  0  0  0  0  0  0
  -29.0350  -20.0725   21.1099 C   0  0  1  0  0  0  0  0  0  0  0  0
  -24.5367  -25.7285   16.8728 C   0  0  2  0  0  0  0  0  0  0  0  0
  -22.3565  -17.9446   17.3789 C   0  0  0  0  0  0  0  0  0  0  0  0
  -26.7638  -12.7370   20.0919 C   0  0  0  0  0  0  0  0  0  0  0  0
  -22.4974  -23.7553   21.4314 C   0  0  0  0  0  0  0  0  0  0  0  0
  -28.1681  -18.3692   16.9018 C   0  0  0  0  0  0  0  0  0  0  0  0
  -27.2129  -16.0556   16.8504 C   0  0  0  0  0  0  0  0  0  0  0  0
  -29.6217  -16.3965   17.4018 C   0  0  0  0  0  0  0  0  0  0  0  0
  -26.6439  -14.7229   23.3351 C   0  0  0  0  0  0  0  0  0  0  0  0
  -20.9333  -21.7934   21.1883 C   0  0  0  0  0  0  0  0  0  0  0  0
  -20.3704  -21.9221   19.7655 C   0  0  0  0  0  0  0  0  0  0  0  0
  -27.8590  -17.0428   19.0952 C   0  0  1  0  0  0  0  0  0  0  0  0
  -27.1286  -13.8706   21.0378 C   0  0  2  0  0  0  0  0  0  0  0  0
  -22.3945  -22.2391   21.3248 C   0  0  2  0  0  0  0  0  0  1  0  0
  -28.2054  -16.9854   17.5805 C   0  0  0  0  0  0  0  0  0  0  0  0
  -24.4450  -27.3859   18.6965 N   0  0  0  0  0  0  0  0  0  0  0  0
  -21.1075  -21.0947   18.7429 N   0  0  0  0  0  0  0  0  0  0  0  0
  -25.1764  -26.4802   18.0251 N   0  0  0  0  0  0  0  0  0  0  0  0
  -28.1800  -19.0403   20.5202 N   0  0  0  0  0  0  0  0  0  0  0  0
  -22.4627  -24.7613   15.9601 N   0  0  0  0  0  0  0  0  0  0  0  0
  -27.3228  -25.4832   17.9275 N   0  0  0  0  0  0  0  0  0  0  0  0
  -27.6782  -28.3869   21.3682 N   0  0  0  0  0  0  0  0  0  0  0  0
  -21.7570  -22.9479   17.2928 N   0  0  0  0  0  0  0  0  0  0  0  0
  -30.3796  -21.8195   20.1110 N   0  0  0  0  0  0  0  0  0  0  0  0
  -27.9130  -15.7503   19.7698 N   0  0  0  0  0  0  0  0  0  0  0  0
  -26.3647  -13.6899   22.3046 N   0  3  0  0  0  0  0  0  0  0  0  0
  -28.8083  -26.8269   20.1240 O   0  0  0  0  0  0  0  0  0  0  0  0
  -28.2176  -21.4140   19.3472 O   0  0  0  0  0  0  0  0  0  0  0  0
  -29.9919  -17.7186   19.8829 O   0  0  0  0  0  0  0  0  0  0  0  0
  -25.7159  -15.7586   20.5113 O   0  0  0  0  0  0  0  0  0  0  0  0
  -21.3585  -22.9675   15.0075 O   0  0  0  0  0  0  0  0  0  0  0  0
  -23.6679  -31.7604   23.2582 O   0  0  0  0  0  0  0  0  0  0  0  0
  -22.9558  -21.6559   22.5001 O   0  0  0  0  0  0  0  0  0  1  0  0
  -27.0946  -35.9790   24.1885 F   0  0  0  0  0  0  0  0  0  0  0  0
  -26.2083  -31.3298   24.2601 F   0  0  0  0  0  0  0  0  0  0  0  0
  1  2  1  0  0  0  0
  1  5  2  0  0  0  0
  2  6  2  0  0  0  0
  3  8  2  0  0  0  0
  3 16  1  0  0  0  0
  4  9  1  0  0  0  0
  4 16  2  0  0  0  0
  5 18  1  0  0  0  0
  6 20  1  0  0  0  0
  7 10  2  0  0  0  0
  7 19  1  0  0  0  0
  8 24  1  0  0  0  0
  9 24  2  0  0  0  0
 10 25  1  0  0  0  0
 11 12  2  0  0  0  0
 11 26  1  0  0  0  0
 12 27  1  0  0  0  0
 13 21  1  0  0  0  0
 13 25  2  0  0  0  0
 14 27  2  0  0  0  0
 14 28  1  0  0  0  0
 15 23  2  0  0  0  0
 15 66  1  0  0  0  0
 16 29  1  0  0  0  0
 17 29  1  0  0  0  0
 17 30  2  0  0  0  0
 17 32  1  0  0  0  0
 18 20  2  0  0  0  0
 18 37  1  0  0  0  0
 19 21  2  0  0  0  0
 19 38  1  0  0  0  0
 20 49  1  0  0  0  0
 21 39  1  0  0  0  0
 22 23  1  0  0  0  0
 22 31  2  0  0  0  0
 22 48  1  0  0  0  0
 23 52  1  0  0  0  0
 24 81  1  0  0  0  0
 25 82  1  0  0  0  0
 26 28  2  0  0  0  0
 26 81  1  0  0  0  0
 27 83  1  0  0  0  0
 28 84  1  0  0  0  0
 29 65  2  0  0  0  0
 30 67  1  0  0  0  0
 30 70  1  0  0  0  0
 31 66  1  0  0  0  0
 31 72  1  0  0  0  0
 32 71  1  0  0  0  0
 32 76  2  0  0  0  0
 33 50  1  0  0  0  0
 33 73  1  0  0  0  0
 33 77  2  0  0  0  0
 34 61  1  0  0  0  0
 34 68  1  0  0  0  0
 34 78  2  0  0  0  0
 35 62  1  0  0  0  0
 35 74  1  0  0  0  0
 35 79  2  0  0  0  0
 36 69  1  0  0  0  0
 36 72  1  0  0  0  0
 36 80  2  0  0  0  0
 37 40  1  0  0  0  0
 38 50  1  0  0  0  0
 39 68  1  0  0  0  0
 40 44  1  0  0  0  0
 41 45  1  0  0  0  0
 41 46  1  0  0  0  0
 42 43  1  0  0  0  0
 42 48  1  0  0  0  0
 43 48  1  0  0  0  0
 44 49  1  0  0  0  0
 45 51  1  0  0  0  0
 46 69  1  0  0  0  0
 47 51  1  0  0  0  0
 47 69  1  0  0  0  0
 49 73  1  0  0  0  0
 50 68  1  0  0  0  0
 51 67  1  0  0  0  0
 53 62  1  0  0  0  0
 54 63  1  0  0  0  0
 55 64  1  0  0  0  0
 56 64  1  0  0  0  0
 57 64  1  0  0  0  0
 58 75  1  0  0  0  0
 59 60  1  0  0  0  0
 59 63  1  0  0  0  0
 60 66  1  0  0  0  0
 61 64  1  0  0  0  0
 61 74  1  0  0  0  0
 62 75  1  0  0  0  0
 63 82  1  0  0  0  0
 65 67  1  0  0  0  0
M  CHG  1  75   1
M  ISO  4  36 100  63 101  72 100  82 101
M  END
> <Batch ID>
0114

> <Smiles>
CNC(C)C(=O)NC(C(=O)N1Cc2cc([101O:1][101CH:1](C)CCn3cc(C)c(C4CC4)c3[100NH:0][100C:0](=O)N3CCCC(n4nc(-c5ccc(Oc6ccc(F)cc6F)cc5)c(C(N)=O)c4N)C3)ccc2CC1C(=O)NC1CCCc2ccccc21)C(C)(C)C

> <Shape>
0.201

> <Color>
0.077

> <Negative vol penalty>
0.000

$$$$

  -OEChem-04052320083D

 81 89  0     1  0  0  0  0  0999 V2000
  -22.2728  -10.9017   19.7120 C   0  0  0  0  0  0  0  0  0  0  0  0
  -21.7831  -12.1723   19.9970 C   0  0  0  0  0  0  0  0  0  0  0  0
  -27.4593  -29.2766   23.0655 C   0  0  0  0  0  0  0  0  0  0  0  0
  -27.5902  -30.9910   21.3682 C   0  0  0  0  0  0  0  0  0  0  0  0
  -23.6249  -10.6186   19.9002 C   0  0  0  0  0  0  0  0  0  0  0  0
  -22.6452  -13.1603   20.4715 C   0  0  0  0  0  0  0  0  0  0  0  0
  -21.9412  -17.6189   18.1760 C   0  0  0  0  0  0  0  0  0  0  0  0
  -28.2135  -30.0725   23.9276 C   0  0  0  0  0  0  0  0  0  0  0  0
  -28.3444  -31.7870   22.2303 C   0  0  0  0  0  0  0  0  0  0  0  0
  -20.8504  -18.3826   18.5891 C   0  0  0  0  0  0  0  0  0  0  0  0
  -27.7841  -33.8177   24.8727 C   0  0  0  0  0  0  0  0  0  0  0  0
  -27.4469  -35.1679   24.9674 C   0  0  0  0  0  0  0  0  0  0  0  0
  -22.3173  -19.7321   19.9477 C   0  0  0  0  0  0  0  0  0  0  0  0
  -29.6586  -35.7737   24.2070 C   0  0  0  0  0  0  0  0  0  0  0  0
  -27.1477  -29.7358   21.7857 C   0  0  0  0  0  0  0  0  0  0  0  0
  -26.6953  -27.6293   20.4199 C   0  0  0  0  0  0  0  0  0  0  0  0
  -24.5059  -11.6063   20.3680 C   0  0  0  0  0  0  0  0  0  0  0  0
  -23.2289  -17.8998   18.6549 C   0  0  0  0  0  0  0  0  0  0  0  0
  -24.0102  -12.8897   20.6674 C   0  0  0  0  0  0  0  0  0  0  0  0
  -23.4232  -18.9722   19.5371 C   0  0  0  0  0  0  0  0  0  0  0  0
  -28.6560  -31.3277   23.5100 C   0  0  0  0  0  0  0  0  0  0  0  0
  -21.0379  -19.4375   19.4773 C   0  0  0  0  0  0  0  0  0  0  0  0
  -29.0587  -33.4456   24.4453 C   0  0  0  0  0  0  0  0  0  0  0  0
  -28.3841  -36.1459   24.6345 C   0  0  0  0  0  0  0  0  0  0  0  0
  -29.9959  -34.4235   24.1124 C   0  0  0  0  0  0  0  0  0  0  0  0
  -26.3691  -28.9139   20.8944 C   0  0  0  0  0  0  0  0  0  0  0  0
  -25.6399  -27.2835   19.6119 C   0  0  0  0  0  0  0  0  0  0  0  0
  -27.8492  -26.8208   20.6857 C   0  0  0  0  0  0  0  0  0  0  0  0
  -25.3823  -16.3072   20.3667 C   0  0  0  0  0  0  0  0  0  0  0  0
  -27.2435  -18.8780   19.6961 C   0  0  0  0  0  0  0  0  0  0  0  0
  -27.4285  -22.1784   18.8476 C   0  0  0  0  0  0  0  0  0  0  0  0
  -19.9036  -28.9916   19.4431 C   0  0  0  0  0  0  0  0  0  0  0  0
  -25.9502  -11.2397   20.6007 C   0  0  0  0  0  0  0  0  0  0  0  0
  -24.3991  -17.0834   18.1788 C   0  0  0  0  0  0  0  0  0  0  0  0
  -24.7884  -19.3276   20.0648 C   0  0  0  0  0  0  0  0  0  0  0  0
  -26.8692  -12.4493   20.7508 C   0  0  0  0  0  0  0  0  0  0  0  0
  -22.2831  -29.2173   16.8042 C   0  0  0  0  0  0  0  0  0  0  0  0
  -26.2546  -13.4718   21.7014 C   0  0  0  0  0  0  0  0  0  0  0  0
  -23.6295  -29.0492   17.5104 C   0  0  0  0  0  0  0  0  0  0  0  0
  -19.5485  -23.9098   19.6195 C   0  0  0  0  0  0  0  0  0  0  0  0
  -19.9880  -23.2793   22.0341 C   0  0  0  0  0  0  0  0  0  0  0  0
  -19.4174  -22.4316   19.2608 C   0  0  0  0  0  0  0  0  0  0  0  0
  -19.8564  -21.8025   21.6695 C   0  0  0  0  0  0  0  0  0  0  0  0
  -21.2919  -30.0042   17.6588 C   0  0  0  0  0  0  0  0  0  0  0  0
  -22.4369  -29.3057   19.7264 C   0  0  0  0  0  0  0  0  0  0  0  0
  -24.9187  -13.9951   21.1602 C   0  0  1  0  0  0  0  0  0  0  0  0
  -25.5904  -17.1354   19.1303 C   0  0  1  0  0  0  0  0  0  0  0  0
  -23.4514  -28.4703   18.9269 C   0  0  2  0  0  0  0  0  0  0  0  0
  -19.1718  -24.1490   21.0802 C   0  0  0  0  0  0  0  0  0  0  0  0
  -20.2265  -21.5468   20.2082 C   0  0  0  0  0  0  0  0  0  1  0  0
  -29.0874  -24.0095   18.4086 C   0  0  0  0  0  0  0  0  0  0  0  0
  -18.6786  -28.1580   22.8252 C   0  0  0  0  0  0  0  0  0  0  0  0
  -27.7412  -19.1425   22.6948 C   0  0  0  0  0  0  0  0  0  0  0  0
  -28.5779  -21.4656   22.2804 C   0  0  0  0  0  0  0  0  0  0  0  0
  -29.7589  -19.5169   21.2654 C   0  0  0  0  0  0  0  0  0  0  0  0
  -26.4784  -22.5311   16.0669 C   0  0  0  0  0  0  0  0  0  0  0  0
  -18.3600  -26.5047   20.9065 C   0  0  0  0  0  0  0  0  0  0  0  0
  -27.5041  -20.2105   20.3562 C   0  0  1  0  0  0  0  0  0  0  0  0
  -28.2452  -22.9030   17.7929 C   0  0  2  0  0  0  0  0  0  0  0  0
  -18.6503  -27.9487   21.3141 C   0  0  2  0  0  0  0  0  0  0  0  0
  -28.3694  -20.0762   21.6410 C   0  0  0  0  0  0  0  0  0  0  0  0
  -25.1981  -29.3544   20.4268 N   0  0  0  0  0  0  0  0  0  0  0  0
  -24.7793  -28.3409   19.6498 N   0  0  0  0  0  0  0  0  0  0  0  0
  -25.8999  -18.4958   19.5748 N   0  0  0  0  0  0  0  0  0  0  0  0
  -21.1676  -29.4024   18.9886 N   0  0  0  0  0  0  0  0  0  0  0  0
  -25.3732  -26.1811   18.8797 N   0  0  0  0  0  0  0  0  0  0  0  0
  -27.8118  -25.9410   21.7761 N   0  0  0  0  0  0  0  0  0  0  0  0
  -25.1440  -14.9697   20.1144 N   0  0  0  0  0  0  0  0  0  0  0  0
  -28.0876  -21.0673   19.3296 N   0  0  0  0  0  0  0  0  0  0  0  0
  -19.8753  -28.4255   20.7117 N   0  0  0  0  0  0  0  0  0  0  0  0
  -19.4091  -25.5792   21.4105 N   0  3  0  0  0  0  0  0  0  0  0  0
  -27.3479  -23.5097   16.7693 N   0  3  0  0  0  0  0  0  0  0  0  0
  -28.8889  -26.8889   19.9872 O   0  0  0  0  0  0  0  0  0  0  0  0
  -25.4357  -16.8419   21.4680 O   0  0  0  0  0  0  0  0  0  0  0  0
  -28.1964  -18.2045   19.2963 O   0  0  0  0  0  0  0  0  0  0  0  0
  -26.3187  -22.5619   19.2104 O   0  0  0  0  0  0  0  0  0  0  0  0
  -18.8772  -29.1149   18.7661 O   0  0  0  0  0  0  0  0  0  0  0  0
  -29.3918  -32.1047   24.3511 O   0  0  0  0  0  0  0  0  0  0  0  0
  -19.9747  -20.1841   19.8827 O   0  0  0  0  0  0  0  0  0  1  0  0
  -28.0595  -37.4423   24.7240 F   0  0  0  0  0  0  0  0  0  0  0  0
  -31.2216  -34.0721   23.7000 F   0  0  0  0  0  0  0  0  0  0  0  0
  1  2  1  0  0  0  0
  1  5  2  0  0  0  0
  2  6  2  0  0  0  0
  3  8  2  0  0  0  0
  3 15  1  0  0  0  0
  4  9  1  0  0  0  0
  4 15  2  0  0  0  0
  5 17  1  0  0  0  0
  6 19  1  0  0  0  0
  7 10  2  0  0  0  0
  7 18  1  0  0  0  0
  8 21  1  0  0  0  0
  9 21  2  0  0  0  0
 10 22  1  0  0  0  0
 11 12  2  0  0  0  0
 11 23  1  0  0  0  0
 12 24  1  0  0  0  0
 13 20  1  0  0  0  0
 13 22  2  0  0  0  0
 14 24  2  0  0  0  0
 14 25  1  0  0  0  0
 15 26  1  0  0  0  0
 16 26  1  0  0  0  0
 16 27  2  0  0  0  0
 16 28  1  0  0  0  0
 17 19  2  0  0  0  0
 17 33  1  0  0  0  0
 18 20  2  0  0  0  0
 18 34  1  0  0  0  0
 19 46  1  0  0  0  0
 20 35  1  0  0  0  0
 21 78  1  0  0  0  0
 22 79  1  0  0  0  0
 23 25  2  0  0  0  0
 23 78  1  0  0  0  0
 24 80  1  0  0  0  0
 25 81  1  0  0  0  0
 26 62  2  0  0  0  0
 27 63  1  0  0  0  0
 27 66  1  0  0  0  0
 28 67  1  0  0  0  0
 28 73  2  0  0  0  0
 29 47  1  0  0  0  0
 29 68  1  0  0  0  0
 29 74  2  0  0  0  0
 30 58  1  0  0  0  0
 30 64  1  0  0  0  0
 30 75  2  0  0  0  0
 31 59  1  0  0  0  0
 31 69  1  0  0  0  0
 31 76  2  0  0  0  0
 32 65  1  0  0  0  0
 32 70  1  0  0  0  0
 32 77  2  0  0  0  0
 33 36  1  0  0  0  0
 34 47  1  0  0  0  0
 35 64  1  0  0  0  0
 36 38  1  0  0  0  0
 37 39  1  0  0  0  0
 37 44  1  0  0  0  0
 38 46  1  0  0  0  0
 39 48  1  0  0  0  0
 40 42  1  0  0  0  0
 40 49  1  0  0  0  0
 41 43  1  0  0  0  0
 41 49  1  0  0  0  0
 42 50  1  0  0  0  0
 43 50  1  0  0  0  0
 44 65  1  0  0  0  0
 45 48  1  0  0  0  0
 45 65  1  0  0  0  0
 46 68  1  0  0  0  0
 47 64  1  0  0  0  0
 48 63  1  0  0  0  0
 49 71  1  0  0  0  0
 50 79  1  0  0  0  0
 51 59  1  0  0  0  0
 52 60  1  0  0  0  0
 53 61  1  0  0  0  0
 54 61  1  0  0  0  0
 55 61  1  0  0  0  0
 56 72  1  0  0  0  0
 57 60  1  0  0  0  0
 57 71  1  0  0  0  0
 58 61  1  0  0  0  0
 58 69  1  0  0  0  0
 59 72  1  0  0  0  0
 60 70  1  0  0  0  0
 62 63  1  0  0  0  0
M  CHG  2  71   1  72   1
M  ISO  4  32 100  50 101  70 100  79 101
M  END
> <Batch ID>
0114

> <Smiles>
CNC(C)C(=O)NC(C(=O)N1Cc2cc([101O:1][101CH:1]3CCC(NCC(C)[100NH:0][100C:0](=O)N4CCCC(n5nc(-c6ccc(Oc7ccc(F)cc7F)cc6)c(C(N)=O)c5N)C4)CC3)ccc2CC1C(=O)NC1CCCc2ccccc21)C(C)(C)C

> <Shape>
0.216

> <Color>
0.066

> <Negative vol penalty>
0.000

$$$$

  -OEChem-04052320083D

 82 90  0     1  0  0  0  0  0999 V2000
  -32.5962  -32.3282   15.1877 C   0  0  0  0  0  0  0  0  0  0  0  0
  -32.3632  -31.0449   15.6718 C   0  0  0  0  0  0  0  0  0  0  0  0
  -23.2768   -9.7689   19.9109 C   0  0  0  0  0  0  0  0  0  0  0  0
  -23.8336   -9.9322   22.2562 C   0  0  0  0  0  0  0  0  0  0  0  0
  -32.2958  -33.4359   15.9793 C   0  0  0  0  0  0  0  0  0  0  0  0
  -31.8306  -30.8686   16.9484 C   0  0  0  0  0  0  0  0  0  0  0  0
  -27.9712  -26.4688   18.7519 C   0  0  0  0  0  0  0  0  0  0  0  0
  -22.5945   -8.5772   20.1558 C   0  0  0  0  0  0  0  0  0  0  0  0
  -23.1513   -8.7405   22.5011 C   0  0  0  0  0  0  0  0  0  0  0  0
  -28.1714  -25.2611   19.4191 C   0  0  0  0  0  0  0  0  0  0  0  0
  -19.9451   -7.7391   22.8729 C   0  0  0  0  0  0  0  0  0  0  0  0
  -19.0944   -7.6964   23.9775 C   0  0  0  0  0  0  0  0  0  0  0  0
  -27.6371  -26.3354   21.5118 C   0  0  0  0  0  0  0  0  0  0  0  0
  -20.3969   -5.8881   24.9108 C   0  0  0  0  0  0  0  0  0  0  0  0
  -23.8964  -10.4464   20.9611 C   0  0  0  0  0  0  0  0  0  0  0  0
  -24.0742  -12.9818   20.7432 C   0  0  0  0  0  0  0  0  0  0  0  0
  -31.7502  -33.2733   17.2625 C   0  0  0  0  0  0  0  0  0  0  0  0
  -27.6125  -27.6234   19.4623 C   0  0  0  0  0  0  0  0  0  0  0  0
  -31.5238  -31.9752   17.7585 C   0  0  0  0  0  0  0  0  0  0  0  0
  -27.4304  -27.5560   20.8510 C   0  0  0  0  0  0  0  0  0  0  0  0
  -22.5317   -8.0630   21.4509 C   0  0  0  0  0  0  0  0  0  0  0  0
  -28.0072  -25.1949   20.7996 C   0  0  0  0  0  0  0  0  0  0  0  0
  -21.0217   -6.8562   22.7872 C   0  0  0  0  0  0  0  0  0  0  0  0
  -19.3203   -6.7710   24.9964 C   0  0  0  0  0  0  0  0  0  0  0  0
  -21.2476   -5.9308   23.8061 C   0  0  0  0  0  0  0  0  0  0  0  0
  -24.6018  -11.6771   20.7086 C   0  0  0  0  0  0  0  0  0  0  0  0
  -25.1400  -13.7914   20.4347 C   0  0  0  0  0  0  0  0  0  0  0  0
  -22.7401  -13.4225   21.0288 C   0  0  0  0  0  0  0  0  0  0  0  0
  -28.9436  -30.4711   19.9340 C   0  0  0  0  0  0  0  0  0  0  0  0
  -26.1291  -31.1079   21.4156 C   0  0  0  0  0  0  0  0  0  0  0  0
  -23.3704  -29.9138   23.0315 C   0  0  0  0  0  0  0  0  0  0  0  0
  -30.6141  -14.9154   21.4981 C   0  0  0  0  0  0  0  0  0  0  0  0
  -31.4858  -34.4997   18.0996 C   0  0  0  0  0  0  0  0  0  0  0  0
  -27.3742  -28.9123   18.7245 C   0  0  0  0  0  0  0  0  0  0  0  0
  -27.0262  -28.7622   21.6572 C   0  0  0  0  0  0  0  0  0  0  0  0
  -30.5745  -34.2359   19.2955 C   0  0  0  0  0  0  0  0  0  0  0  0
  -29.7380  -12.6841   18.6706 C   0  0  0  0  0  0  0  0  0  0  0  0
  -31.0155  -32.9769   20.0353 C   0  0  0  0  0  0  0  0  0  0  0  0
  -28.3039  -12.2768   19.0038 C   0  0  0  0  0  0  0  0  0  0  0  0
  -31.2169  -18.3304   21.6038 C   0  0  0  0  0  0  0  0  0  0  0  0
  -29.2326  -17.8472   20.1167 C   0  0  0  0  0  0  0  0  0  0  0  0
  -30.5393  -13.0143   19.9259 C   0  0  0  0  0  0  0  0  0  0  0  0
  -30.7844  -17.1738   22.5011 C   0  0  0  0  0  0  0  0  0  0  0  0
  -28.8534  -16.6793   21.0320 C   0  0  0  0  0  0  0  0  0  0  0  0
  -28.4671  -13.6392   21.1249 C   0  0  0  0  0  0  0  0  0  0  0  0
  -30.9241  -31.7437   19.1284 C   0  0  1  0  0  0  0  0  0  0  0  0
  -27.5124  -30.1442   19.6137 C   0  0  1  0  0  0  0  0  0  0  0  0
  -27.6209  -13.3429   19.8775 C   0  0  2  0  0  0  0  0  0  0  0  0
  -30.0056  -18.9185   20.8829 C   0  0  0  0  0  0  0  0  0  0  0  0
  -21.2633  -30.6785   24.1597 C   0  0  0  0  0  0  0  0  0  0  0  0
  -31.6655  -22.0596   19.6441 C   0  0  0  0  0  0  0  0  0  0  0  0
  -30.1149  -23.3408   22.7422 C   0  0  0  0  0  0  0  0  0  0  0  0
  -27.7507  -31.9777   23.8495 C   0  0  0  0  0  0  0  0  0  0  0  0
  -25.6587  -31.8139   25.2150 C   0  0  0  0  0  0  0  0  0  0  0  0
  -25.7893  -33.4384   23.3265 C   0  0  0  0  0  0  0  0  0  0  0  0
  -21.6691  -28.4403   21.1098 C   0  0  0  0  0  0  0  0  0  0  0  0
  -29.3749  -22.0356   20.7158 C   0  0  0  0  0  0  0  0  0  0  0  0
  -25.6070  -30.9671   22.8251 C   0  0  1  0  0  0  0  0  0  0  0  0
  -21.8924  -30.2122   22.8560 C   0  0  2  0  0  0  0  0  0  0  0  0
  -30.7074  -21.2919   20.5464 C   0  0  1  0  0  0  0  0  0  0  0  0
  -29.4988  -23.4266   21.3511 C   0  0  1  0  0  0  0  0  0  1  0  0
  -26.2109  -32.0268   23.7894 C   0  0  0  0  0  0  0  0  0  0  0  0
  -25.9016  -11.6545   20.4021 N   0  0  0  0  0  0  0  0  0  0  0  0
  -26.1998  -12.9550   20.2412 N   0  0  0  0  0  0  0  0  0  0  0  0
  -26.8110  -30.0008   20.8911 N   0  0  0  0  0  0  0  0  0  0  0  0
  -29.8482  -13.9943   20.7640 N   0  0  0  0  0  0  0  0  0  0  0  0
  -30.0349  -16.1696   21.7436 N   0  0  0  0  0  0  0  0  0  0  0  0
  -25.2646  -15.1301   20.3126 N   0  0  0  0  0  0  0  0  0  0  0  0
  -21.7673  -12.4585   21.3261 N   0  0  0  0  0  0  0  0  0  0  0  0
  -29.5507  -31.3025   19.0122 N   0  0  0  0  0  0  0  0  0  0  0  0
  -24.1520  -31.0084   22.7276 N   0  0  0  0  0  0  0  0  0  0  0  0
  -30.4672  -19.9600   19.9291 N   0  3  0  0  0  0  0  0  0  0  0  0
  -21.1692  -28.9935   22.3947 N   0  3  0  0  0  0  0  0  0  0  0  0
  -22.4164  -14.6342   21.0045 O   0  0  0  0  0  0  0  0  0  0  0  0
  -29.4585  -30.0048   20.9436 O   0  0  0  0  0  0  0  0  0  0  0  0
  -25.9326  -32.1587   20.8001 O   0  0  0  0  0  0  0  0  0  0  0  0
  -23.7895  -28.8204   23.4048 O   0  0  0  0  0  0  0  0  0  0  0  0
  -31.7475  -14.6334   21.9068 O   0  0  0  0  0  0  0  0  0  0  0  0
  -21.8658   -6.9003   21.6903 O   0  0  0  0  0  0  0  0  0  0  0  0
  -28.2038  -24.0102   21.4574 O   0  0  0  0  0  0  0  0  0  1  0  0
  -18.5042   -6.7312   26.0578 F   0  0  0  0  0  0  0  0  0  0  0  0
  -22.2809   -5.0809   23.7300 F   0  0  0  0  0  0  0  0  0  0  0  0
  1  2  1  0  0  0  0
  1  5  2  0  0  0  0
  2  6  2  0  0  0  0
  3  8  2  0  0  0  0
  3 15  1  0  0  0  0
  4  9  1  0  0  0  0
  4 15  2  0  0  0  0
  5 17  1  0  0  0  0
  6 19  1  0  0  0  0
  7 10  2  0  0  0  0
  7 18  1  0  0  0  0
  8 21  1  0  0  0  0
  9 21  2  0  0  0  0
 10 22  1  0  0  0  0
 11 12  2  0  0  0  0
 11 23  1  0  0  0  0
 12 24  1  0  0  0  0
 13 20  1  0  0  0  0
 13 22  2  0  0  0  0
 14 24  2  0  0  0  0
 14 25  1  0  0  0  0
 15 26  1  0  0  0  0
 16 26  1  0  0  0  0
 16 27  2  0  0  0  0
 16 28  1  0  0  0  0
 17 19  2  0  0  0  0
 17 33  1  0  0  0  0
 18 20  2  0  0  0  0
 18 34  1  0  0  0  0
 19 46  1  0  0  0  0
 20 35  1  0  0  0  0
 21 79  1  0  0  0  0
 22 80  1  0  0  0  0
 23 25  2  0  0  0  0
 23 79  1  0  0  0  0
 24 81  1  0  0  0  0
 25 82  1  0  0  0  0
 26 63  2  0  0  0  0
 27 64  1  0  0  0  0
 27 68  1  0  0  0  0
 28 69  1  0  0  0  0
 28 74  2  0  0  0  0
 29 47  1  0  0  0  0
 29 70  1  0  0  0  0
 29 75  2  0  0  0  0
 30 58  1  0  0  0  0
 30 65  1  0  0  0  0
 30 76  2  0  0  0  0
 31 59  1  0  0  0  0
 31 71  1  0  0  0  0
 31 77  2  0  0  0  0
 32 66  1  0  0  0  0
 32 67  1  0  0  0  0
 32 78  2  0  0  0  0
 33 36  1  0  0  0  0
 34 47  1  0  0  0  0
 35 65  1  0  0  0  0
 36 38  1  0  0  0  0
 37 39  1  0  0  0  0
 37 42  1  0  0  0  0
 38 46  1  0  0  0  0
 39 48  1  0  0  0  0
 40 43  1  0  0  0  0
 40 49  1  0  0  0  0
 41 44  1  0  0  0  0
 41 49  1  0  0  0  0
 42 66  1  0  0  0  0
 43 67  1  0  0  0  0
 44 67  1  0  0  0  0
 45 48  1  0  0  0  0
 45 66  1  0  0  0  0
 46 70  1  0  0  0  0
 47 65  1  0  0  0  0
 48 64  1  0  0  0  0
 49 72  1  0  0  0  0
 50 59  1  0  0  0  0
 51 60  1  0  0  0  0
 52 61  1  0  0  0  0
 53 62  1  0  0  0  0
 54 62  1  0  0  0  0
 55 62  1  0  0  0  0
 56 73  1  0  0  0  0
 57 60  1  0  0  0  0
 57 61  1  0  0  0  0
 58 62  1  0  0  0  0
 58 71  1  0  0  0  0
 59 73  1  0  0  0  0
 60 72  1  0  0  0  0
 61 80  1  0  0  0  0
 63 64  1  0  0  0  0
M  CHG  2  72   1  73   1
M  ISO  4  32 100  61 101  67 100  80 101
M  END
> <Batch ID>
0114

> <Smiles>
CNC(C)C(=O)NC(C(=O)N1Cc2cc([101O:1][101CH:1](C)CC(C)NC3CC[100N:0]([100C:0](=O)N4CCCC(n5nc(-c6ccc(Oc7ccc(F)cc7F)cc6)c(C(N)=O)c5N)C4)CC3)ccc2CC1C(=O)NC1CCCc2ccccc21)C(C)(C)C

> <Shape>
0.339

> <Color>
0.220

> <Negative vol penalty>
0.000

$$$$

  -OEChem-04052320083D

 87 96  0     1  0  0  0  0  0999 V2000
  -18.0156  -24.9795   23.5361 C   0  0  0  0  0  0  0  0  0  0  0  0
  -19.2678  -24.7168   22.9899 C   0  0  0  0  0  0  0  0  0  0  0  0
  -23.8622   -9.9698   22.4720 C   0  0  0  0  0  0  0  0  0  0  0  0
  -23.0508  -10.3481   20.2280 C   0  0  0  0  0  0  0  0  0  0  0  0
  -17.5071  -26.2776   23.5185 C   0  0  0  0  0  0  0  0  0  0  0  0
  -20.0118  -25.7519   22.4247 C   0  0  0  0  0  0  0  0  0  0  0  0
  -26.1034  -26.3778   22.5070 C   0  0  0  0  0  0  0  0  0  0  0  0
  -22.9086   -8.9672   22.6478 C   0  0  0  0  0  0  0  0  0  0  0  0
  -22.0972   -9.3454   20.4038 C   0  0  0  0  0  0  0  0  0  0  0  0
  -27.0895  -26.0813   21.5671 C   0  0  0  0  0  0  0  0  0  0  0  0
  -22.5079   -5.7281   21.7643 C   0  0  0  0  0  0  0  0  0  0  0  0
  -22.9243   -4.5331   22.3509 C   0  0  0  0  0  0  0  0  0  0  0  0
  -27.0466  -28.3708   20.8086 C   0  0  0  0  0  0  0  0  0  0  0  0
  -21.3419   -4.8630   24.1465 C   0  0  0  0  0  0  0  0  0  0  0  0
  -23.9333  -10.6603   21.2621 C   0  0  0  0  0  0  0  0  0  0  0  0
  -26.2260  -11.5482   20.5819 C   0  0  0  0  0  0  0  0  0  0  0  0
  -18.2493  -27.3309   22.9615 C   0  0  0  0  0  0  0  0  0  0  0  0
  -25.5727  -27.6727   22.5975 C   0  0  0  0  0  0  0  0  0  0  0  0
  -19.5121  -27.0650   22.3984 C   0  0  0  0  0  0  0  0  0  0  0  0
  -26.0556  -28.6818   21.7522 C   0  0  0  0  0  0  0  0  0  0  0  0
  -22.0261   -8.6549   21.6137 C   0  0  0  0  0  0  0  0  0  0  0  0
  -27.5592  -27.0771   20.7158 C   0  0  0  0  0  0  0  0  0  0  0  0
  -21.5085   -6.4906   22.3688 C   0  0  0  0  0  0  0  0  0  0  0  0
  -22.3413   -4.1005   23.5419 C   0  0  0  0  0  0  0  0  0  0  0  0
  -20.9255   -6.0581   23.5599 C   0  0  0  0  0  0  0  0  0  0  0  0
  -24.9178  -11.6966   21.0801 C   0  0  0  0  0  0  0  0  0  0  0  0
  -26.7487  -12.8181   20.6061 C   0  0  0  0  0  0  0  0  0  0  0  0
  -26.9078  -10.3680   20.1369 C   0  0  0  0  0  0  0  0  0  0  0  0
  -22.6866  -28.9464   22.2083 C   0  0  0  0  0  0  0  0  0  0  0  0
  -24.1579  -31.6355   23.2697 C   0  0  0  0  0  0  0  0  0  0  0  0
  -27.0614  -33.3833   23.6711 C   0  0  0  0  0  0  0  0  0  0  0  0
  -23.7379  -18.1592   20.6486 C   0  0  0  0  0  0  0  0  0  0  0  0
  -17.6378  -28.7090   22.9230 C   0  0  0  0  0  0  0  0  0  0  0  0
  -24.5285  -27.9827   23.6347 C   0  0  0  0  0  0  0  0  0  0  0  0
  -25.5333  -30.0927   21.8228 C   0  0  0  0  0  0  0  0  0  0  0  0
  -18.6497  -29.8167   22.6416 C   0  0  0  0  0  0  0  0  0  0  0  0
  -26.4103  -16.9778   22.9297 C   0  0  0  0  0  0  0  0  0  0  0  0
  -19.5542  -29.4299   21.4758 C   0  0  0  0  0  0  0  0  0  0  0  0
  -26.3789  -15.4651   22.7192 C   0  0  0  0  0  0  0  0  0  0  0  0
  -26.0259  -20.6967   20.0461 C   0  0  0  0  0  0  0  0  0  0  0  0
  -23.7198  -21.4172   19.3077 C   0  0  0  0  0  0  0  0  0  0  0  0
  -27.7546  -23.5291   17.3878 C   0  0  0  0  0  0  0  0  0  0  0  0
  -25.4408  -24.2115   16.6242 C   0  0  0  0  0  0  0  0  0  0  0  0
  -25.0492  -17.6147   22.6673 C   0  0  0  0  0  0  0  0  0  0  0  0
  -25.3816  -19.9291   21.1974 C   0  0  0  0  0  0  0  0  0  0  0  0
  -23.1175  -20.6106   20.4620 C   0  0  0  0  0  0  0  0  0  0  0  0
  -24.4540  -15.7827   21.1143 C   0  0  0  0  0  0  0  0  0  0  0  0
  -27.1565  -22.9827   18.6790 C   0  0  0  0  0  0  0  0  0  0  0  0
  -24.8609  -23.6595   17.9213 C   0  0  0  0  0  0  0  0  0  0  0  0
  -20.3599  -28.1657   21.7985 C   0  0  1  0  0  0  0  0  0  0  0  0
  -23.6927  -29.2121   23.2922 C   0  0  1  0  0  0  0  0  0  0  0  0
  -25.8220  -15.1173   21.3281 C   0  0  2  0  0  0  0  0  0  0  0  0
  -25.1403  -21.8716   19.6363 C   0  0  0  0  0  0  0  0  0  0  0  0
  -26.9057  -24.6265   16.7484 C   0  0  0  0  0  0  0  0  0  0  0  0
  -27.9420  -35.5682   24.5363 C   0  0  0  0  0  0  0  0  0  0  0  0
  -28.1476  -27.3892   16.0694 C   0  0  0  0  0  0  0  0  0  0  0  0
  -29.7976  -28.3556   18.4834 C   0  0  0  0  0  0  0  0  0  0  0  0
  -23.1118  -33.0430   20.7728 C   0  0  0  0  0  0  0  0  0  0  0  0
  -24.7661  -34.8739   21.1966 C   0  0  0  0  0  0  0  0  0  0  0  0
  -22.9769  -34.4001   22.8691 C   0  0  0  0  0  0  0  0  0  0  0  0
  -28.7459  -32.0351   25.6969 C   0  0  0  0  0  0  0  0  0  0  0  0
  -24.8991  -32.7772   22.6170 C   0  0  1  0  0  0  0  0  0  0  0  0
  -27.6390  -34.1155   24.8689 C   0  0  2  0  0  0  0  0  0  0  0  0
  -28.2598  -26.6265   17.3850 C   0  0  1  0  0  0  0  0  0  0  0  0
  -28.5070  -27.5504   18.5866 C   0  0  1  0  0  0  0  0  0  1  0  0
  -23.9471  -33.7466   21.8610 C   0  0  0  0  0  0  0  0  0  0  0  0
  -24.6273  -12.9610   21.3978 N   0  0  0  0  0  0  0  0  0  0  0  0
  -25.7604  -13.6187   21.0985 N   0  0  0  0  0  0  0  0  0  0  0  0
  -24.5084  -30.3447   22.8493 N   0  0  0  0  0  0  0  0  0  0  0  0
  -24.5184  -17.2318   21.3589 N   0  0  0  0  0  0  0  0  0  0  0  0
  -24.0175  -19.5179   20.8598 N   0  0  0  0  0  0  0  0  0  0  0  0
  -27.9528  -13.3169   20.2541 N   0  0  0  0  0  0  0  0  0  0  0  0
  -26.2238   -9.1454   20.1789 N   0  0  0  0  0  0  0  0  0  0  0  0
  -21.4700  -28.4829   22.6713 N   0  0  0  0  0  0  0  0  0  0  0  0
  -25.6829  -33.4111   23.6716 N   0  0  0  0  0  0  0  0  0  0  0  0
  -25.7360  -22.5369   18.4259 N   0  3  0  0  0  0  0  0  0  0  0  0
  -26.9986  -25.8651   17.5736 N   0  3  0  0  0  0  0  0  0  0  0  0
  -28.9019  -33.4624   25.3156 N   0  3  0  0  0  0  0  0  0  0  0  0
  -28.0941  -10.3942   19.7300 O   0  0  0  0  0  0  0  0  0  0  0  0
  -22.9911  -29.1484   21.0386 O   0  0  0  0  0  0  0  0  0  0  0  0
  -23.3045  -31.8796   24.1263 O   0  0  0  0  0  0  0  0  0  0  0  0
  -27.7631  -32.8442   22.8182 O   0  0  0  0  0  0  0  0  0  0  0  0
  -22.8442  -17.7938   19.8747 O   0  0  0  0  0  0  0  0  0  0  0  0
  -21.0956   -7.6764   21.7848 O   0  0  0  0  0  0  0  0  0  0  0  0
  -28.5267  -26.7886   19.7919 O   0  0  0  0  0  0  0  0  0  1  0  0
  -22.7402   -2.9522   24.1043 F   0  0  0  0  0  0  0  0  0  0  0  0
  -19.9641   -6.7858   24.1447 F   0  0  0  0  0  0  0  0  0  0  0  0
  1  2  1  0  0  0  0
  1  5  2  0  0  0  0
  2  6  2  0  0  0  0
  3  8  2  0  0  0  0
  3 15  1  0  0  0  0
  4  9  1  0  0  0  0
  4 15  2  0  0  0  0
  5 17  1  0  0  0  0
  6 19  1  0  0  0  0
  7 10  2  0  0  0  0
  7 18  1  0  0  0  0
  8 21  1  0  0  0  0
  9 21  2  0  0  0  0
 10 22  1  0  0  0  0
 11 12  2  0  0  0  0
 11 23  1  0  0  0  0
 12 24  1  0  0  0  0
 13 20  1  0  0  0  0
 13 22  2  0  0  0  0
 14 24  2  0  0  0  0
 14 25  1  0  0  0  0
 15 26  1  0  0  0  0
 16 26  1  0  0  0  0
 16 27  2  0  0  0  0
 16 28  1  0  0  0  0
 17 19  2  0  0  0  0
 17 33  1  0  0  0  0
 18 20  2  0  0  0  0
 18 34  1  0  0  0  0
 19 50  1  0  0  0  0
 20 35  1  0  0  0  0
 21 84  1  0  0  0  0
 22 85  1  0  0  0  0
 23 25  2  0  0  0  0
 23 84  1  0  0  0  0
 24 86  1  0  0  0  0
 25 87  1  0  0  0  0
 26 67  2  0  0  0  0
 27 68  1  0  0  0  0
 27 72  1  0  0  0  0
 28 73  1  0  0  0  0
 28 79  2  0  0  0  0
 29 51  1  0  0  0  0
 29 74  1  0  0  0  0
 29 80  2  0  0  0  0
 30 62  1  0  0  0  0
 30 69  1  0  0  0  0
 30 81  2  0  0  0  0
 31 63  1  0  0  0  0
 31 75  1  0  0  0  0
 31 82  2  0  0  0  0
 32 70  1  0  0  0  0
 32 71  1  0  0  0  0
 32 83  2  0  0  0  0
 33 36  1  0  0  0  0
 34 51  1  0  0  0  0
 35 69  1  0  0  0  0
 36 38  1  0  0  0  0
 37 39  1  0  0  0  0
 37 44  1  0  0  0  0
 38 50  1  0  0  0  0
 39 52  1  0  0  0  0
 40 45  1  0  0  0  0
 40 53  1  0  0  0  0
 41 46  1  0  0  0  0
 41 53  1  0  0  0  0
 42 48  1  0  0  0  0
 42 54  1  0  0  0  0
 43 49  1  0  0  0  0
 43 54  1  0  0  0  0
 44 70  1  0  0  0  0
 45 71  1  0  0  0  0
 46 71  1  0  0  0  0
 47 52  1  0  0  0  0
 47 70  1  0  0  0  0
 48 76  1  0  0  0  0
 49 76  1  0  0  0  0
 50 74  1  0  0  0  0
 51 69  1  0  0  0  0
 52 68  1  0  0  0  0
 53 76  1  0  0  0  0
 54 77  1  0  0  0  0
 55 63  1  0  0  0  0
 56 64  1  0  0  0  0
 57 65  1  0  0  0  0
 58 66  1  0  0  0  0
 59 66  1  0  0  0  0
 60 66  1  0  0  0  0
 61 78  1  0  0  0  0
 62 66  1  0  0  0  0
 62 75  1  0  0  0  0
 63 78  1  0  0  0  0
 64 65  1  0  0  0  0
 64 77  1  0  0  0  0
 65 85  1  0  0  0  0
 67 68  1  0  0  0  0
M  CHG  3  76   1  77   1  78   1
M  ISO  4  32 100  65 101  71 100  85 101
M  END
> <Batch ID>
0114

> <Smiles>
CNC(C)C(=O)NC(C(=O)N1Cc2cc([101O:1][101CH:1](C)C(C)NC3CCN(C4CC[100N:0]([100C:0](=O)N5CCCC(n6nc(-c7ccc(Oc8ccc(F)cc8F)cc7)c(C(N)=O)c6N)C5)CC4)CC3)ccc2CC1C(=O)NC1CCCc2ccccc21)C(C)(C)C

> <Shape>
0.271

> <Color>
0.111

> <Negative vol penalty>
0.000

$$$$

  -OEChem-04052320083D

 80 88  0     1  0  0  0  0  0999 V2000
  -22.5835  -26.4262   23.4737 C   0  0  0  0  0  0  0  0  0  0  0  0
  -22.6284  -25.0531   23.6923 C   0  0  0  0  0  0  0  0  0  0  0  0
  -29.7989  -23.7296   19.4637 C   0  0  0  0  0  0  0  0  0  0  0  0
  -27.6349  -23.3787   20.4792 C   0  0  0  0  0  0  0  0  0  0  0  0
  -22.0328  -26.9255   22.2942 C   0  0  0  0  0  0  0  0  0  0  0  0
  -22.1216  -24.1783   22.7319 C   0  0  0  0  0  0  0  0  0  0  0  0
  -24.2688  -18.6206   21.3155 C   0  0  0  0  0  0  0  0  0  0  0  0
  -29.3216  -24.8855   18.8459 C   0  0  0  0  0  0  0  0  0  0  0  0
  -27.1576  -24.5347   19.8615 C   0  0  0  0  0  0  0  0  0  0  0  0
  -23.8744  -17.3381   21.6942 C   0  0  0  0  0  0  0  0  0  0  0  0
  -25.4725  -27.5902   18.8405 C   0  0  0  0  0  0  0  0  0  0  0  0
  -24.7154  -28.4727   19.6109 C   0  0  0  0  0  0  0  0  0  0  0  0
  -22.5696  -17.1493   19.6740 C   0  0  0  0  0  0  0  0  0  0  0  0
  -26.5822  -28.7589   21.1177 C   0  0  0  0  0  0  0  0  0  0  0  0
  -24.6719  -11.5461   19.9874 C   0  0  0  0  0  0  0  0  0  0  0  0
  -25.1124  -13.2555   21.2984 C   0  0  0  0  0  0  0  0  0  0  0  0
  -28.9555  -22.9761   20.2803 C   0  0  0  0  0  0  0  0  0  0  0  0
  -30.0572  -21.6831   22.1834 C   0  0  0  0  0  0  0  0  0  0  0  0
  -21.5277  -26.0561   21.3146 C   0  0  0  0  0  0  0  0  0  0  0  0
  -23.8071  -19.1822   20.1164 C   0  0  0  0  0  0  0  0  0  0  0  0
  -21.5623  -24.6665   21.5388 C   0  0  0  0  0  0  0  0  0  0  0  0
  -22.9617  -18.4381   19.2811 C   0  0  0  0  0  0  0  0  0  0  0  0
  -24.0701  -12.6223   20.6667 C   0  0  0  0  0  0  0  0  0  0  0  0
  -28.0010  -25.2881   19.0448 C   0  0  0  0  0  0  0  0  0  0  0  0
  -23.0224  -16.6033   20.8748 C   0  0  0  0  0  0  0  0  0  0  0  0
  -26.7844  -27.2919   19.2087 C   0  0  0  0  0  0  0  0  0  0  0  0
  -25.2702  -29.0571   20.7495 C   0  0  0  0  0  0  0  0  0  0  0  0
  -27.3393  -27.8763   20.3473 C   0  0  0  0  0  0  0  0  0  0  0  0
  -29.4478  -21.7816   20.9182 C   0  0  0  0  0  0  0  0  0  0  0  0
  -30.3396  -20.3464   22.3253 C   0  0  0  0  0  0  0  0  0  0  0  0
  -30.3426  -22.7081   23.1444 C   0  0  0  0  0  0  0  0  0  0  0  0
  -22.0570  -21.7250   19.3580 C   0  0  0  0  0  0  0  0  0  0  0  0
  -22.8227  -20.8624   16.3262 C   0  0  0  0  0  0  0  0  0  0  0  0
  -23.7802  -18.3967   14.1697 C   0  0  0  0  0  0  0  0  0  0  0  0
  -28.0659  -15.2726   21.1031 C   0  0  0  0  0  0  0  0  0  0  0  0
  -20.8990  -26.6444   20.0763 C   0  0  0  0  0  0  0  0  0  0  0  0
  -24.2632  -20.5565   19.7092 C   0  0  0  0  0  0  0  0  0  0  0  0
  -22.4542  -18.9877   17.9739 C   0  0  0  0  0  0  0  0  0  0  0  0
  -20.7239  -25.6356   18.9440 C   0  0  0  0  0  0  0  0  0  0  0  0
  -30.8694  -16.5448   19.2060 C   0  0  0  0  0  0  0  0  0  0  0  0
  -20.1225  -24.3377   19.4737 C   0  0  0  0  0  0  0  0  0  0  0  0
  -30.8456  -18.0272   19.5840 C   0  0  0  0  0  0  0  0  0  0  0  0
  -29.4558  -15.9879   19.0680 C   0  0  0  0  0  0  0  0  0  0  0  0
  -28.5734  -17.6567   20.6526 C   0  0  0  0  0  0  0  0  0  0  0  0
  -21.0452  -23.6847   20.5098 C   0  0  1  0  0  0  0  0  0  0  0  0
  -23.3211  -21.2286   18.7151 C   0  0  1  0  0  0  0  0  0  0  0  0
  -29.9723  -18.2749   20.8285 C   0  0  2  0  0  0  0  0  0  0  0  0
  -24.2890  -17.9869   11.7468 C   0  0  0  0  0  0  0  0  0  0  0  0
  -19.8374  -20.8945   15.6964 C   0  0  0  0  0  0  0  0  0  0  0  0
  -20.3328  -19.5902   13.6176 C   0  0  0  0  0  0  0  0  0  0  0  0
  -21.2904  -21.8746   13.9125 C   0  0  0  0  0  0  0  0  0  0  0  0
  -26.5652  -17.5952   14.7703 C   0  0  0  0  0  0  0  0  0  0  0  0
  -22.3556  -14.4243   20.1945 C   0  0  0  0  0  0  0  0  0  1  0  0
  -27.6349  -12.8435   21.4183 C   0  0  0  0  0  0  0  0  0  0  0  0
  -22.6072  -12.9998   20.6941 C   0  0  2  0  0  0  0  0  0  0  0  0
  -22.2083  -19.9594   15.2841 C   0  0  1  0  0  0  0  0  0  0  0  0
  -24.8630  -18.3528   13.1067 C   0  0  2  0  0  0  0  0  0  0  0  0
  -20.9251  -20.5698   14.6531 C   0  0  0  0  0  0  0  0  0  0  0  0
  -25.9940  -11.4955   20.1702 N   0  0  0  0  0  0  0  0  0  0  0  0
  -29.3486  -20.6017   20.3003 N   0  0  0  0  0  0  0  0  0  0  0  0
  -26.2316  -12.5479   20.9715 N   0  0  0  0  0  0  0  0  0  0  0  0
  -29.8995  -19.7490   21.1809 N   0  0  0  0  0  0  0  0  0  0  0  0
  -22.9234  -20.3383   17.6227 N   0  0  0  0  0  0  0  0  0  0  0  0
  -28.6851  -16.2394   20.2937 N   0  0  0  0  0  0  0  0  0  0  0  0
  -30.9190  -19.6356   23.3160 N   0  0  0  0  0  0  0  0  0  0  0  0
  -29.9859  -24.0286   22.8387 N   0  0  0  0  0  0  0  0  0  0  0  0
  -22.1457  -23.0118   19.8537 N   0  0  0  0  0  0  0  0  0  0  0  0
  -23.2659  -19.6669   14.3226 N   0  0  0  0  0  0  0  0  0  0  0  0
  -28.2145  -13.9556   20.6838 N   0  0  0  0  0  0  0  0  0  0  0  0
  -22.0143  -12.8738   22.0644 N   0  3  0  0  0  0  0  0  0  0  0  0
  -25.9005  -17.3449   13.4655 N   0  3  0  0  0  0  0  0  0  0  0  0
  -30.9122  -22.4628   24.2348 O   0  0  0  0  0  0  0  0  0  0  0  0
  -21.0735  -20.9952   19.3998 O   0  0  0  0  0  0  0  0  0  0  0  0
  -23.2060  -21.9887   16.0002 O   0  0  0  0  0  0  0  0  0  0  0  0
  -23.4235  -17.4029   14.7987 O   0  0  0  0  0  0  0  0  0  0  0  0
  -27.4318  -15.5605   22.1236 O   0  0  0  0  0  0  0  0  0  0  0  0
  -27.5350  -26.4161   18.4424 O   0  0  0  0  0  0  0  0  0  0  0  0
  -22.6353  -15.3516   21.2424 O   0  0  0  0  0  0  0  0  0  1  0  0
  -24.5436  -29.9058   21.4883 F   0  0  0  0  0  0  0  0  0  0  0  0
  -28.5995  -27.5945   20.7053 F   0  0  0  0  0  0  0  0  0  0  0  0
  1  2  1  0  0  0  0
  1  5  2  0  0  0  0
  2  6  2  0  0  0  0
  3  8  2  0  0  0  0
  3 17  1  0  0  0  0
  4  9  1  0  0  0  0
  4 17  2  0  0  0  0
  5 19  1  0  0  0  0
  6 21  1  0  0  0  0
  7 10  2  0  0  0  0
  7 20  1  0  0  0  0
  8 24  1  0  0  0  0
  9 24  2  0  0  0  0
 10 25  1  0  0  0  0
 11 12  2  0  0  0  0
 11 26  1  0  0  0  0
 12 27  1  0  0  0  0
 13 22  1  0  0  0  0
 13 25  2  0  0  0  0
 14 27  2  0  0  0  0
 14 28  1  0  0  0  0
 15 23  1  0  0  0  0
 15 59  2  0  0  0  0
 16 23  2  0  0  0  0
 16 61  1  0  0  0  0
 17 29  1  0  0  0  0
 18 29  1  0  0  0  0
 18 30  2  0  0  0  0
 18 31  1  0  0  0  0
 19 21  2  0  0  0  0
 19 36  1  0  0  0  0
 20 22  2  0  0  0  0
 20 37  1  0  0  0  0
 21 45  1  0  0  0  0
 22 38  1  0  0  0  0
 23 55  1  0  0  0  0
 24 77  1  0  0  0  0
 25 78  1  0  0  0  0
 26 28  2  0  0  0  0
 26 77  1  0  0  0  0
 27 79  1  0  0  0  0
 28 80  1  0  0  0  0
 29 60  2  0  0  0  0
 30 62  1  0  0  0  0
 30 65  1  0  0  0  0
 31 66  1  0  0  0  0
 31 72  2  0  0  0  0
 32 46  1  0  0  0  0
 32 67  1  0  0  0  0
 32 73  2  0  0  0  0
 33 56  1  0  0  0  0
 33 63  1  0  0  0  0
 33 74  2  0  0  0  0
 34 57  1  0  0  0  0
 34 68  1  0  0  0  0
 34 75  2  0  0  0  0
 35 64  1  0  0  0  0
 35 69  1  0  0  0  0
 35 76  2  0  0  0  0
 36 39  1  0  0  0  0
 37 46  1  0  0  0  0
 38 63  1  0  0  0  0
 39 41  1  0  0  0  0
 40 42  1  0  0  0  0
 40 43  1  0  0  0  0
 41 45  1  0  0  0  0
 42 47  1  0  0  0  0
 43 64  1  0  0  0  0
 44 47  1  0  0  0  0
 44 64  1  0  0  0  0
 45 67  1  0  0  0  0
 46 63  1  0  0  0  0
 47 62  1  0  0  0  0
 48 57  1  0  0  0  0
 49 58  1  0  0  0  0
 50 58  1  0  0  0  0
 51 58  1  0  0  0  0
 52 71  1  0  0  0  0
 53 55  1  0  0  0  0
 53 78  1  0  0  0  0
 54 61  1  0  0  0  0
 54 69  1  0  0  0  0
 55 70  1  0  0  0  0
 56 58  1  0  0  0  0
 56 68  1  0  0  0  0
 57 71  1  0  0  0  0
 59 61  1  0  0  0  0
 60 62  1  0  0  0  0
M  CHG  2  70   1  71   1
M  ISO  4  35 100  53 101  69 100  78 101
M  END
> <Batch ID>
0114

> <Smiles>
CNC(C)C(=O)NC(C(=O)N1Cc2cc([101O:1][101CH2:1]C(N)c3cnn(C[100NH:0][100C:0](=O)N4CCCC(n5nc(-c6ccc(Oc7ccc(F)cc7F)cc6)c(C(N)=O)c5N)C4)c3)ccc2CC1C(=O)NC1CCCc2ccccc21)C(C)(C)C

> <Shape>
0.177

> <Color>
0.094

> <Negative vol penalty>
0.000

$$$$

  -OEChem-04052320083D

 78 86  0     1  0  0  0  0  0999 V2000
  -28.8269  -33.5254   24.5606 C   0  0  0  0  0  0  0  0  0  0  0  0
  -28.8120  -32.2837   23.9334 C   0  0  0  0  0  0  0  0  0  0  0  0
  -26.5697  -13.3128   19.0468 C   0  0  0  0  0  0  0  0  0  0  0  0
  -26.3502  -13.0482   21.4382 C   0  0  0  0  0  0  0  0  0  0  0  0
  -27.7212  -33.9455   25.2988 C   0  0  0  0  0  0  0  0  0  0  0  0
  -27.6917  -31.4609   24.0450 C   0  0  0  0  0  0  0  0  0  0  0  0
  -26.3469  -29.3994   19.6193 C   0  0  0  0  0  0  0  0  0  0  0  0
  -25.3282  -12.7034   18.8654 C   0  0  0  0  0  0  0  0  0  0  0  0
  -25.1086  -12.4388   21.2568 C   0  0  0  0  0  0  0  0  0  0  0  0
  -27.0932  -28.3103   19.1712 C   0  0  0  0  0  0  0  0  0  0  0  0
  -23.9330   -9.3981   20.3607 C   0  0  0  0  0  0  0  0  0  0  0  0
  -23.6675   -8.2386   21.0892 C   0  0  0  0  0  0  0  0  0  0  0  0
  -25.3770  -26.8141   19.9681 C   0  0  0  0  0  0  0  0  0  0  0  0
  -21.7794   -9.3264   22.1327 C   0  0  0  0  0  0  0  0  0  0  0  0
  -27.0807  -13.4851   20.3332 C   0  0  0  0  0  0  0  0  0  0  0  0
  -29.6051  -13.6787   20.0208 C   0  0  0  0  0  0  0  0  0  0  0  0
  -26.5830  -33.1315   25.4115 C   0  0  0  0  0  0  0  0  0  0  0  0
  -25.1130  -29.2031   20.2559 C   0  0  0  0  0  0  0  0  0  0  0  0
  -26.5703  -31.8699   24.7865 C   0  0  0  0  0  0  0  0  0  0  0  0
  -24.6158  -27.9024   20.4210 C   0  0  0  0  0  0  0  0  0  0  0  0
  -24.5976  -12.2665   19.9704 C   0  0  0  0  0  0  0  0  0  0  0  0
  -26.6096  -27.0173   19.3482 C   0  0  0  0  0  0  0  0  0  0  0  0
  -23.1217  -10.5219   20.5183 C   0  0  0  0  0  0  0  0  0  0  0  0
  -22.5908   -8.2027   21.9751 C   0  0  0  0  0  0  0  0  0  0  0  0
  -22.0449  -10.4860   21.4042 C   0  0  0  0  0  0  0  0  0  0  0  0
  -28.3634  -14.1140   20.5212 C   0  0  0  0  0  0  0  0  0  0  0  0
  -30.5045  -14.6123   20.4744 C   0  0  0  0  0  0  0  0  0  0  0  0
  -29.9176  -12.5328   19.2176 C   0  0  0  0  0  0  0  0  0  0  0  0
  -23.9526  -29.8436   23.1450 C   0  0  0  0  0  0  0  0  0  0  0  0
  -21.1762  -28.7959   21.8350 C   0  0  0  0  0  0  0  0  0  0  0  0
  -19.6291  -26.9111   19.4474 C   0  0  0  0  0  0  0  0  0  0  0  0
  -29.9582  -20.3520   22.0897 C   0  0  0  0  0  0  0  0  0  0  0  0
  -25.4305  -33.6085   26.2593 C   0  0  0  0  0  0  0  0  0  0  0  0
  -24.3077  -30.3897   20.7096 C   0  0  0  0  0  0  0  0  0  0  0  0
  -23.2874  -27.6390   21.0802 C   0  0  0  0  0  0  0  0  0  0  0  0
  -24.1361  -32.8361   26.0178 C   0  0  0  0  0  0  0  0  0  0  0  0
  -31.2218  -17.6802   24.0751 C   0  0  0  0  0  0  0  0  0  0  0  0
  -24.4056  -31.3348   26.0004 C   0  0  0  0  0  0  0  0  0  0  0  0
  -30.7446  -16.4240   23.3442 C   0  0  0  0  0  0  0  0  0  0  0  0
  -29.9619  -21.5651   18.5894 C   0  0  0  0  0  0  0  0  0  0  0  0
  -28.4189  -22.6150   20.2951 C   0  0  0  0  0  0  0  0  0  0  0  0
  -30.1861  -18.8003   24.0072 C   0  0  0  0  0  0  0  0  0  0  0  0
  -29.2563  -17.8876   21.9154 C   0  0  0  0  0  0  0  0  0  0  0  0
  -30.0195  -22.8882   17.8409 C   0  0  0  0  0  0  0  0  0  0  0  0
  -25.3640  -30.9595   24.8636 C   0  0  1  0  0  0  0  0  0  0  0  0
  -23.3032  -30.0466   21.8053 C   0  0  1  0  0  0  0  0  0  0  0  0
  -30.2906  -16.7490   21.9084 C   0  0  2  0  0  0  0  0  0  0  0  0
  -29.6821  -21.7762   20.0796 C   0  0  1  0  0  0  0  0  0  0  0  0
  -28.4906  -23.9405   19.5342 C   0  0  2  0  0  0  0  0  0  0  0  0
  -17.3510  -26.2212   18.6524 C   0  0  0  0  0  0  0  0  0  0  0  0
  -20.9500  -26.8530   24.1768 C   0  0  0  0  0  0  0  0  0  0  0  0
  -19.2352  -25.5831   22.8672 C   0  0  0  0  0  0  0  0  0  0  0  0
  -18.8008  -27.9509   23.5209 C   0  0  0  0  0  0  0  0  0  0  0  0
  -20.0530  -28.1495   16.7930 C   0  0  0  0  0  0  0  0  0  0  0  0
  -27.1930  -24.7295   19.6335 C   0  0  0  0  0  0  0  0  0  1  0  0
  -20.4925  -27.4559   21.7083 C   0  0  1  0  0  0  0  0  0  0  0  0
  -18.4835  -27.2250   18.5021 C   0  0  2  0  0  0  0  0  0  0  0  0
  -19.8956  -26.9652   23.0576 C   0  0  0  0  0  0  0  0  0  0  0  0
  -28.4613  -15.2367   21.2380 N   0  0  0  0  0  0  0  0  0  0  0  0
  -29.7753  -15.5148   21.1914 N   0  0  0  0  0  0  0  0  0  0  0  0
  -22.5401  -28.8316   21.5123 N   0  0  0  0  0  0  0  0  0  0  0  0
  -29.7993  -19.0604   22.6185 N   0  0  0  0  0  0  0  0  0  0  0  0
  -31.8401  -14.7411   20.3261 N   0  0  0  0  0  0  0  0  0  0  0  0
  -30.2407  -11.3319   19.8638 N   0  0  0  0  0  0  0  0  0  0  0  0
  -24.6630  -30.9390   23.5977 N   0  0  0  0  0  0  0  0  0  0  0  0
  -19.5119  -27.5975   20.6375 N   0  0  0  0  0  0  0  0  0  0  0  0
  -29.5731  -20.5109   20.7641 N   0  0  0  0  0  0  0  0  0  0  0  0
  -28.7586  -23.6503   18.0862 N   0  3  0  0  0  0  0  0  0  0  0  0
  -18.9548  -27.1936   17.0886 N   0  3  0  0  0  0  0  0  0  0  0  0
  -29.9265  -12.5771   17.9640 O   0  0  0  0  0  0  0  0  0  0  0  0
  -23.8178  -28.7730   23.7258 O   0  0  0  0  0  0  0  0  0  0  0  0
  -20.5224  -29.7763   22.1998 O   0  0  0  0  0  0  0  0  0  0  0  0
  -20.5351  -26.1318   19.1603 O   0  0  0  0  0  0  0  0  0  0  0  0
  -30.4149  -21.2925   22.7484 O   0  0  0  0  0  0  0  0  0  0  0  0
  -23.3860  -11.6720   19.7938 O   0  0  0  0  0  0  0  0  0  0  0  0
  -27.3364  -25.9525   18.9123 O   0  0  0  0  0  0  0  0  0  1  0  0
  -22.3351   -7.0887   22.6734 F   0  0  0  0  0  0  0  0  0  0  0  0
  -21.2612  -11.5620   21.5589 F   0  0  0  0  0  0  0  0  0  0  0  0
  1  2  1  0  0  0  0
  1  5  2  0  0  0  0
  2  6  2  0  0  0  0
  3  8  2  0  0  0  0
  3 15  1  0  0  0  0
  4  9  1  0  0  0  0
  4 15  2  0  0  0  0
  5 17  1  0  0  0  0
  6 19  1  0  0  0  0
  7 10  2  0  0  0  0
  7 18  1  0  0  0  0
  8 21  1  0  0  0  0
  9 21  2  0  0  0  0
 10 22  1  0  0  0  0
 11 12  2  0  0  0  0
 11 23  1  0  0  0  0
 12 24  1  0  0  0  0
 13 20  1  0  0  0  0
 13 22  2  0  0  0  0
 14 24  2  0  0  0  0
 14 25  1  0  0  0  0
 15 26  1  0  0  0  0
 16 26  1  0  0  0  0
 16 27  2  0  0  0  0
 16 28  1  0  0  0  0
 17 19  2  0  0  0  0
 17 33  1  0  0  0  0
 18 20  2  0  0  0  0
 18 34  1  0  0  0  0
 19 45  1  0  0  0  0
 20 35  1  0  0  0  0
 21 75  1  0  0  0  0
 22 76  1  0  0  0  0
 23 25  2  0  0  0  0
 23 75  1  0  0  0  0
 24 77  1  0  0  0  0
 25 78  1  0  0  0  0
 26 59  2  0  0  0  0
 27 60  1  0  0  0  0
 27 63  1  0  0  0  0
 28 64  1  0  0  0  0
 28 70  2  0  0  0  0
 29 46  1  0  0  0  0
 29 65  1  0  0  0  0
 29 71  2  0  0  0  0
 30 56  1  0  0  0  0
 30 61  1  0  0  0  0
 30 72  2  0  0  0  0
 31 57  1  0  0  0  0
 31 66  1  0  0  0  0
 31 73  2  0  0  0  0
 32 62  1  0  0  0  0
 32 67  1  0  0  0  0
 32 74  2  0  0  0  0
 33 36  1  0  0  0  0
 34 46  1  0  0  0  0
 35 61  1  0  0  0  0
 36 38  1  0  0  0  0
 37 39  1  0  0  0  0
 37 42  1  0  0  0  0
 38 45  1  0  0  0  0
 39 47  1  0  0  0  0
 40 44  1  0  0  0  0
 40 48  1  0  0  0  0
 41 48  1  0  0  0  0
 41 49  1  0  0  0  0
 42 62  1  0  0  0  0
 43 47  1  0  0  0  0
 43 62  1  0  0  0  0
 44 68  1  0  0  0  0
 45 65  1  0  0  0  0
 46 61  1  0  0  0  0
 47 60  1  0  0  0  0
 48 67  1  0  0  0  0
 49 55  1  0  0  0  0
 49 68  1  0  0  0  0
 50 57  1  0  0  0  0
 51 58  1  0  0  0  0
 52 58  1  0  0  0  0
 53 58  1  0  0  0  0
 54 69  1  0  0  0  0
 55 76  1  0  0  0  0
 56 58  1  0  0  0  0
 56 66  1  0  0  0  0
 57 69  1  0  0  0  0
 59 60  1  0  0  0  0
M  CHG  2  68   1  69   1
M  ISO  4  32 100  55 101  67 100  76 101
M  END
> <Batch ID>
0114

> <Smiles>
CNC(C)C(=O)NC(C(=O)N1Cc2cc([101O:1][101CH2:1]C3CC([100NH:0][100C:0](=O)N4CCCC(n5nc(-c6ccc(Oc7ccc(F)cc7F)cc6)c(C(N)=O)c5N)C4)CCN3)ccc2CC1C(=O)NC1CCCc2ccccc21)C(C)(C)C

> <Shape>
0.359

> <Color>
0.079

> <Negative vol penalty>
0.000

$$$$

  -OEChem-04052320083D

 90100  0     1  0  0  0  0  0999 V2000
  -29.9540  -24.9220   14.0764 C   0  0  0  0  0  0  0  0  0  0  0  0
  -30.3511  -23.6691   14.5326 C   0  0  0  0  0  0  0  0  0  0  0  0
  -26.8385  -11.7062   22.2378 C   0  0  0  0  0  0  0  0  0  0  0  0
  -23.6042  -28.7784   24.0713 C   0  0  0  0  0  0  0  0  0  0  0  0
  -24.9839  -27.8493   22.3191 C   0  0  0  0  0  0  0  0  0  0  0  0
  -29.7321  -25.9554   14.9856 C   0  0  0  0  0  0  0  0  0  0  0  0
  -30.5277  -23.4494   15.8982 C   0  0  0  0  0  0  0  0  0  0  0  0
  -28.4737  -19.0868   17.4454 C   0  0  0  0  0  0  0  0  0  0  0  0
  -26.0566  -12.6013   21.5109 C   0  0  0  0  0  0  0  0  0  0  0  0
  -28.1347  -11.4123   21.8172 C   0  0  0  0  0  0  0  0  0  0  0  0
  -24.5386  -29.7952   24.2680 C   0  0  0  0  0  0  0  0  0  0  0  0
  -25.9183  -28.8661   22.5157 C   0  0  0  0  0  0  0  0  0  0  0  0
  -29.1823  -17.9174   17.1730 C   0  0  0  0  0  0  0  0  0  0  0  0
  -25.3993  -32.7085   22.7832 C   0  0  0  0  0  0  0  0  0  0  0  0
  -24.9206  -34.0117   22.9173 C   0  0  0  0  0  0  0  0  0  0  0  0
  -30.0141  -17.9011   19.4373 C   0  0  0  0  0  0  0  0  0  0  0  0
  -25.9079  -34.1479   25.1181 C   0  0  0  0  0  0  0  0  0  0  0  0
  -23.8269  -27.8054   23.0969 C   0  0  0  0  0  0  0  0  0  0  0  0
  -21.5113  -26.9001   22.5259 C   0  0  0  0  0  0  0  0  0  0  0  0
  -29.8966  -25.7456   16.3638 C   0  0  0  0  0  0  0  0  0  0  0  0
  -28.5387  -19.6791   18.7148 C   0  0  0  0  0  0  0  0  0  0  0  0
  -30.3090  -24.4814   16.8265 C   0  0  0  0  0  0  0  0  0  0  0  0
  -29.3033  -19.0766   19.7240 C   0  0  0  0  0  0  0  0  0  0  0  0
  -27.8787  -12.9305   19.9414 C   0  0  0  0  0  0  0  0  0  0  0  0
  -26.5731  -13.2099   20.3666 C   0  0  0  0  0  0  0  0  0  0  0  0
  -28.6495  -12.0111   20.6644 C   0  0  0  0  0  0  0  0  0  0  0  0
  -25.6956  -29.8391   23.4902 C   0  0  0  0  0  0  0  0  0  0  0  0
  -29.9550  -17.3260   18.1681 C   0  0  0  0  0  0  0  0  0  0  0  0
  -26.1322  -32.1249   23.8166 C   0  0  0  0  0  0  0  0  0  0  0  0
  -25.1749  -34.7315   24.0847 C   0  0  0  0  0  0  0  0  0  0  0  0
  -26.3865  -32.8446   24.9840 C   0  0  0  0  0  0  0  0  0  0  0  0
  -22.8624  -26.7545   22.8937 C   0  0  0  0  0  0  0  0  0  0  0  0
  -21.0318  -25.6145   22.4640 C   0  0  0  0  0  0  0  0  0  0  0  0
  -20.7572  -28.0910   22.2636 C   0  0  0  0  0  0  0  0  0  0  0  0
  -29.5514  -22.4757   19.8359 C   0  0  0  0  0  0  0  0  0  0  0  0
  -28.3088  -21.3683   22.6201 C   0  0  0  0  0  0  0  0  0  0  0  0
  -27.9228  -20.4272   26.0817 C   0  0  0  0  0  0  0  0  0  0  0  0
  -23.9974  -20.4415   21.6280 C   0  0  0  0  0  0  0  0  0  0  0  0
  -29.6908  -26.9063   17.3045 C   0  0  0  0  0  0  0  0  0  0  0  0
  -27.7471  -20.9258   19.0004 C   0  0  0  0  0  0  0  0  0  0  0  0
  -28.4218  -13.5947   18.7076 C   0  0  0  0  0  0  0  0  0  0  0  0
  -29.3903  -19.6616   21.1091 C   0  0  0  0  0  0  0  0  0  0  0  0
  -29.5372  -26.4874   18.7644 C   0  0  0  0  0  0  0  0  0  0  0  0
  -22.7383  -21.9429   24.9354 C   0  0  0  0  0  0  0  0  0  0  0  0
  -30.6109  -25.4726   19.1443 C   0  0  0  0  0  0  0  0  0  0  0  0
  -21.6552  -22.7745   24.2547 C   0  0  0  0  0  0  0  0  0  0  0  0
  -25.8842  -17.4587   21.5394 C   0  0  0  0  0  0  0  0  0  0  0  0
  -23.4974  -17.0410   20.8406 C   0  0  0  0  0  0  0  0  0  0  0  0
  -23.2307  -20.8297   24.0159 C   0  0  0  0  0  0  0  0  0  0  0  0
  -23.4494  -22.7307   22.4156 C   0  0  0  0  0  0  0  0  0  0  0  0
  -26.3463  -16.3542   20.5980 C   0  0  0  0  0  0  0  0  0  0  0  0
  -23.9716  -15.9377   19.9037 C   0  0  0  0  0  0  0  0  0  0  0  0
  -30.3228  -12.0244   18.9959 C   0  0  0  0  0  0  0  0  0  0  0  0
  -30.4871  -24.1971   18.3022 C   0  0  1  0  0  0  0  0  0  0  0  0
  -28.2957  -21.7251   20.1784 C   0  0  1  0  0  0  0  0  0  0  0  0
  -29.9457  -13.4649   18.6529 C   0  0  1  0  0  0  0  0  0  0  0  0
  -22.0886  -23.2912   22.8654 C   0  0  2  0  0  0  0  0  0  0  0  0
  -24.5807  -18.0974   21.0587 C   0  0  0  0  0  0  0  0  0  0  0  0
  -28.5116  -21.6642   28.1842 C   0  0  0  0  0  0  0  0  0  0  0  0
  -30.9262  -19.8082   22.4604 C   0  0  0  0  0  0  0  0  0  0  0  0
  -30.8610  -19.5795   24.9527 C   0  0  0  0  0  0  0  0  0  0  0  0
  -31.0110  -21.8421   23.9131 C   0  0  0  0  0  0  0  0  0  0  0  0
  -25.1637  -20.1977   27.1275 C   0  0  0  0  0  0  0  0  0  0  0  0
  -25.6932  -14.1578   19.6161 C   0  0  0  0  0  0  0  0  0  0  0  0
  -30.4833  -13.8734   17.2861 C   0  0  0  0  0  0  0  0  0  0  0  0
  -30.0971  -15.3007   16.9296 C   0  0  0  0  0  0  0  0  0  1  0  0
  -28.8371  -20.5582   23.7793 C   0  0  1  0  0  0  0  0  0  0  0  0
  -27.4029  -21.3014   27.2086 C   0  0  2  0  0  0  0  0  0  0  0  0
  -30.3871  -20.4378   23.7604 C   0  0  0  0  0  0  0  0  0  0  0  0
  -23.2182  -25.4772   23.0543 N   0  0  0  0  0  0  0  0  0  0  0  0
  -22.0838  -24.8084   22.7862 N   0  0  0  0  0  0  0  0  0  0  0  0
  -28.6032  -20.8847   21.3374 N   0  0  0  0  0  0  0  0  0  0  0  0
  -23.5475  -21.2903   22.6580 N   0  0  0  0  0  0  0  0  0  0  0  0
  -19.8172  -25.1063   22.1659 N   0  0  0  0  0  0  0  0  0  0  0  0
  -21.4045  -29.3293   22.3727 N   0  0  0  0  0  0  0  0  0  0  0  0
  -29.4054  -23.3704   18.7930 N   0  0  0  0  0  0  0  0  0  0  0  0
  -28.3004  -21.1758   24.9871 N   0  0  0  0  0  0  0  0  0  0  0  0
  -24.1291  -19.1030   21.9890 N   0  0  0  0  0  0  0  0  0  0  0  0
  -25.2456  -15.3326   20.4419 N   0  3  0  0  0  0  0  0  0  0  0  0
  -26.3286  -20.5930   27.9603 N   0  3  0  0  0  0  0  0  0  0  0  0
  -19.5410  -28.0588   21.9582 O   0  0  0  0  0  0  0  0  0  0  0  0
  -30.5766  -22.2603   20.4718 O   0  0  0  0  0  0  0  0  0  0  0  0
  -27.6528  -22.3885   22.8445 O   0  0  0  0  0  0  0  0  0  0  0  0
  -27.9908  -19.2029   26.1655 O   0  0  0  0  0  0  0  0  0  0  0  0
  -24.2604  -20.8418   20.4900 O   0  0  0  0  0  0  0  0  0  0  0  0
  -29.9341  -11.6700   20.3279 O   0  0  0  0  0  0  0  0  0  0  0  0
  -26.6075  -30.8312   23.6816 O   0  0  0  0  0  0  0  0  0  0  0  0
  -30.6481  -16.1850   17.9047 O   0  0  0  0  0  0  0  0  0  1  0  0
  -24.7164  -35.9835   24.2127 F   0  0  0  0  0  0  0  0  0  0  0  0
  -27.0911  -32.2897   25.9798 F   0  0  0  0  0  0  0  0  0  0  0  0
  1  2  1  0  0  0  0
  1  6  2  0  0  0  0
  2  7  2  0  0  0  0
  3  9  1  0  0  0  0
  3 10  2  0  0  0  0
  4 11  2  0  0  0  0
  4 18  1  0  0  0  0
  5 12  1  0  0  0  0
  5 18  2  0  0  0  0
  6 20  1  0  0  0  0
  7 22  1  0  0  0  0
  8 13  2  0  0  0  0
  8 21  1  0  0  0  0
  9 25  2  0  0  0  0
 10 26  1  0  0  0  0
 11 27  1  0  0  0  0
 12 27  2  0  0  0  0
 13 28  1  0  0  0  0
 14 15  2  0  0  0  0
 14 29  1  0  0  0  0
 15 30  1  0  0  0  0
 16 23  1  0  0  0  0
 16 28  2  0  0  0  0
 17 30  2  0  0  0  0
 17 31  1  0  0  0  0
 18 32  1  0  0  0  0
 19 32  1  0  0  0  0
 19 33  2  0  0  0  0
 19 34  1  0  0  0  0
 20 22  2  0  0  0  0
 20 39  1  0  0  0  0
 21 23  2  0  0  0  0
 21 40  1  0  0  0  0
 22 54  1  0  0  0  0
 23 42  1  0  0  0  0
 24 25  1  0  0  0  0
 24 26  2  0  0  0  0
 24 41  1  0  0  0  0
 25 64  1  0  0  0  0
 26 86  1  0  0  0  0
 27 87  1  0  0  0  0
 28 88  1  0  0  0  0
 29 31  2  0  0  0  0
 29 87  1  0  0  0  0
 30 89  1  0  0  0  0
 31 90  1  0  0  0  0
 32 70  2  0  0  0  0
 33 71  1  0  0  0  0
 33 74  1  0  0  0  0
 34 75  1  0  0  0  0
 34 81  2  0  0  0  0
 35 55  1  0  0  0  0
 35 76  1  0  0  0  0
 35 82  2  0  0  0  0
 36 67  1  0  0  0  0
 36 72  1  0  0  0  0
 36 83  2  0  0  0  0
 37 68  1  0  0  0  0
 37 77  1  0  0  0  0
 37 84  2  0  0  0  0
 38 73  1  0  0  0  0
 38 78  1  0  0  0  0
 38 85  2  0  0  0  0
 39 43  1  0  0  0  0
 40 55  1  0  0  0  0
 41 56  1  0  0  0  0
 42 72  1  0  0  0  0
 43 45  1  0  0  0  0
 44 46  1  0  0  0  0
 44 49  1  0  0  0  0
 45 54  1  0  0  0  0
 46 57  1  0  0  0  0
 47 51  1  0  0  0  0
 47 58  1  0  0  0  0
 48 52  1  0  0  0  0
 48 58  1  0  0  0  0
 49 73  1  0  0  0  0
 50 57  1  0  0  0  0
 50 73  1  0  0  0  0
 51 79  1  0  0  0  0
 52 79  1  0  0  0  0
 53 56  1  0  0  0  0
 53 86  1  0  0  0  0
 54 76  1  0  0  0  0
 55 72  1  0  0  0  0
 56 65  1  0  0  0  0
 57 71  1  0  0  0  0
 58 78  1  0  0  0  0
 59 68  1  0  0  0  0
 60 69  1  0  0  0  0
 61 69  1  0  0  0  0
 62 69  1  0  0  0  0
 63 80  1  0  0  0  0
 64 79  1  0  0  0  0
 65 66  1  0  0  0  0
 66 88  1  0  0  0  0
 67 69  1  0  0  0  0
 67 77  1  0  0  0  0
 68 80  1  0  0  0  0
 70 71  1  0  0  0  0
M  CHG  2  79   1  80   1
M  ISO  4  38 100  66 101  78 100  88 101
M  END
> <Batch ID>
0114

> <Smiles>
CNC(C)C(=O)NC(C(=O)N1Cc2cc([101O:1][101CH2:1]CC3COc4cccc(CN5CCC([100NH:0][100C:0](=O)N6CCCC(n7nc(-c8ccc(Oc9ccc(F)cc9F)cc8)c(C(N)=O)c7N)C6)CC5)c4C3)ccc2CC1C(=O)NC1CCCc2ccccc21)C(C)(C)C

> <Shape>
0.269

> <Color>
0.052

> <Negative vol penalty>
0.000

$$$$

  -OEChem-04052320083D

 85 93  0     1  0  0  0  0  0999 V2000
  -31.7605  -24.3492   18.8356 C   0  0  0  0  0  0  0  0  0  0  0  0
  -30.4054  -24.0984   19.0264 C   0  0  0  0  0  0  0  0  0  0  0  0
  -25.3823  -13.4139   19.8863 C   0  0  0  0  0  0  0  0  0  0  0  0
  -24.8421  -14.4305   22.0104 C   0  0  0  0  0  0  0  0  0  0  0  0
  -32.4294  -25.2363   19.6779 C   0  0  0  0  0  0  0  0  0  0  0  0
  -29.7187  -24.7339   20.0604 C   0  0  0  0  0  0  0  0  0  0  0  0
  -23.8887  -26.6083   20.0013 C   0  0  0  0  0  0  0  0  0  0  0  0
  -25.2224  -12.1486   20.4512 C   0  0  0  0  0  0  0  0  0  0  0  0
  -24.6821  -13.1653   22.5753 C   0  0  0  0  0  0  0  0  0  0  0  0
  -22.7160  -26.0408   20.4977 C   0  0  0  0  0  0  0  0  0  0  0  0
  -22.6664  -10.1006   21.2910 C   0  0  0  0  0  0  0  0  0  0  0  0
  -21.9403   -9.1547   20.5675 C   0  0  0  0  0  0  0  0  0  0  0  0
  -22.9311  -27.3648   22.5027 C   0  0  0  0  0  0  0  0  0  0  0  0
  -23.8744   -7.7076   20.5182 C   0  0  0  0  0  0  0  0  0  0  0  0
  -25.1922  -14.5549   20.6659 C   0  0  0  0  0  0  0  0  0  0  0  0
  -26.5216  -16.3874   19.4902 C   0  0  0  0  0  0  0  0  0  0  0  0
  -31.7483  -25.8904   20.7167 C   0  0  0  0  0  0  0  0  0  0  0  0
  -24.5986  -27.5518   20.7579 C   0  0  0  0  0  0  0  0  0  0  0  0
  -30.3795  -25.6296   20.9182 C   0  0  0  0  0  0  0  0  0  0  0  0
  -24.1112  -27.9447   22.0126 C   0  0  0  0  0  0  0  0  0  0  0  0
  -24.8723  -12.0243   21.7957 C   0  0  0  0  0  0  0  0  0  0  0  0
  -22.2385  -26.4169   21.7497 C   0  0  0  0  0  0  0  0  0  0  0  0
  -23.9966   -9.8501   21.6281 C   0  0  0  0  0  0  0  0  0  0  0  0
  -22.5442   -7.9582   20.1811 C   0  0  0  0  0  0  0  0  0  0  0  0
  -24.6006   -8.6536   21.2417 C   0  0  0  0  0  0  0  0  0  0  0  0
  -25.3578  -15.8622   20.0831 C   0  0  0  0  0  0  0  0  0  0  0  0
  -26.1642  -17.6533   19.0949 C   0  0  0  0  0  0  0  0  0  0  0  0
  -15.5290  -22.6365   20.7041 C   0  0  0  0  0  0  0  0  0  0  0  0
  -27.8104  -15.7848   19.3126 C   0  0  0  0  0  0  0  0  0  0  0  0
  -27.5108  -27.6783   22.0254 C   0  0  0  0  0  0  0  0  0  0  0  0
  -18.3970  -24.2412   21.8466 C   0  0  0  0  0  0  0  0  0  0  0  0
  -20.8614  -19.9540   17.7302 C   0  0  0  0  0  0  0  0  0  0  0  0
  -26.6398  -30.7180   22.7494 C   0  0  0  0  0  0  0  0  0  0  0  0
  -24.1251  -32.9519   23.3259 C   0  0  0  0  0  0  0  0  0  0  0  0
  -32.5246  -26.8048   21.6309 C   0  0  0  0  0  0  0  0  0  0  0  0
  -25.8476  -28.1743   20.1968 C   0  0  0  0  0  0  0  0  0  0  0  0
  -24.8251  -28.9685   22.8555 C   0  0  0  0  0  0  0  0  0  0  0  0
  -15.9764  -23.8982   21.3585 C   0  0  0  0  0  0  0  0  0  0  0  0
  -31.6390  -27.7228   22.4695 C   0  0  0  0  0  0  0  0  0  0  0  0
  -23.2018  -21.2341   20.2023 C   0  0  0  0  0  0  0  0  0  0  0  0
  -30.4920  -26.9341   23.0933 C   0  0  0  0  0  0  0  0  0  0  0  0
  -24.1127  -20.0257   20.4153 C   0  0  0  0  0  0  0  0  0  0  0  0
  -21.7573  -20.8104   19.9497 C   0  0  0  0  0  0  0  0  0  0  0  0
  -22.5104  -18.6415   19.0261 C   0  0  0  0  0  0  0  0  0  0  0  0
  -29.5943  -26.3184   22.0132 C   0  0  1  0  0  0  0  0  0  0  0  0
  -26.7662  -28.7447   21.2730 C   0  0  1  0  0  0  0  0  0  0  0  0
  -17.3749  -24.0132   20.7805 C   0  0  2  0  0  0  0  0  0  0  0  0
  -23.9822  -19.0248   19.2540 C   0  0  2  0  0  0  0  0  0  0  0  0
  -19.2420  -21.1476   16.3242 C   0  0  0  0  0  0  0  0  0  0  0  0
  -23.7244  -35.3540   23.9315 C   0  0  0  0  0  0  0  0  0  0  0  0
  -19.9047  -27.9546   22.4091 C   0  0  0  0  0  0  0  0  0  0  0  0
  -27.3926  -30.1115   25.6434 C   0  0  0  0  0  0  0  0  0  0  0  0
  -26.1095  -32.1485   26.3309 C   0  0  0  0  0  0  0  0  0  0  0  0
  -28.0933  -32.3720   24.8350 C   0  0  0  0  0  0  0  0  0  0  0  0
  -22.6725  -33.4674   20.7994 C   0  0  0  0  0  0  0  0  0  0  0  0
  -19.0300  -21.2531   18.8349 C   0  0  0  0  0  0  0  0  0  0  0  0
  -18.5134  -22.6724   19.0842 C   0  0  0  0  0  0  0  0  0  0  0  0
  -19.1156  -25.8475   23.6032 C   0  0  0  0  0  0  0  0  0  0  0  0
  -19.9988  -21.1881   17.6476 C   0  0  1  0  0  0  0  0  0  0  0  0
  -25.9544  -31.3842   23.9178 C   0  0  1  0  0  0  0  0  0  0  0  0
  -23.8821  -34.3539   22.7968 C   0  0  2  0  0  0  0  0  0  0  0  0
  -20.3081  -26.6673   23.1161 C   0  0  1  0  0  0  0  0  0  1  0  0
  -26.8748  -31.4833   25.1670 C   0  0  0  0  0  0  0  0  0  0  0  0
  -24.3375  -16.7240   20.0682 N   0  0  0  0  0  0  0  0  0  0  0  0
  -16.4282  -21.9915   20.0420 N   0  0  0  0  0  0  0  0  0  0  0  0
  -24.8591  -17.8036   19.4611 N   0  0  0  0  0  0  0  0  0  0  0  0
  -26.0454  -29.5438   22.2661 N   0  0  0  0  0  0  0  0  0  0  0  0
  -21.6788  -19.8362   18.8546 N   0  0  0  0  0  0  0  0  0  0  0  0
  -17.5859  -22.6806   20.2067 N   0  0  2  0  0  0  0  0  0  0  0  0
  -26.8423  -18.6414   18.4734 N   0  0  0  0  0  0  0  0  0  0  0  0
  -28.7683  -15.9461   20.3228 N   0  0  0  0  0  0  0  0  0  0  0  0
  -28.7169  -27.3232   21.4521 N   0  0  0  0  0  0  0  0  0  0  0  0
  -18.2430  -25.4322   22.5372 N   0  0  0  0  0  0  0  0  0  0  0  0
  -25.4711  -32.6707   23.4282 N   0  0  0  0  0  0  0  0  0  0  0  0
  -22.6454  -34.3869   21.9659 N   0  3  0  0  0  0  0  0  0  0  0  0
  -28.1093  -15.1368   18.2809 O   0  0  0  0  0  0  0  0  0  0  0  0
  -27.0275  -27.2133   23.0510 O   0  0  0  0  0  0  0  0  0  0  0  0
  -19.2679  -23.4006   22.0383 O   0  0  0  0  0  0  0  0  0  0  0  0
  -20.8109  -19.1223   16.8204 O   0  0  0  0  0  0  0  0  0  0  0  0
  -27.6609  -31.2249   22.2781 O   0  0  0  0  0  0  0  0  0  0  0  0
  -23.2121  -32.1845   23.6226 O   0  0  0  0  0  0  0  0  0  0  0  0
  -24.7159  -10.7898   22.3472 O   0  0  0  0  0  0  0  0  0  0  0  0
  -21.0944  -25.8641   22.2369 O   0  0  0  0  0  0  0  0  0  1  0  0
  -21.8463   -7.0493   19.4875 F   0  0  0  0  0  0  0  0  0  0  0  0
  -25.8778   -8.4068   21.5637 F   0  0  0  0  0  0  0  0  0  0  0  0
  1  2  1  0  0  0  0
  1  5  2  0  0  0  0
  2  6  2  0  0  0  0
  3  8  2  0  0  0  0
  3 15  1  0  0  0  0
  4  9  1  0  0  0  0
  4 15  2  0  0  0  0
  5 17  1  0  0  0  0
  6 19  1  0  0  0  0
  7 10  2  0  0  0  0
  7 18  1  0  0  0  0
  8 21  1  0  0  0  0
  9 21  2  0  0  0  0
 10 22  1  0  0  0  0
 11 12  2  0  0  0  0
 11 23  1  0  0  0  0
 12 24  1  0  0  0  0
 13 20  1  0  0  0  0
 13 22  2  0  0  0  0
 14 24  2  0  0  0  0
 14 25  1  0  0  0  0
 15 26  1  0  0  0  0
 16 26  1  0  0  0  0
 16 27  2  0  0  0  0
 16 29  1  0  0  0  0
 17 19  2  0  0  0  0
 17 35  1  0  0  0  0
 18 20  2  0  0  0  0
 18 36  1  0  0  0  0
 19 45  1  0  0  0  0
 20 37  1  0  0  0  0
 21 82  1  0  0  0  0
 22 83  1  0  0  0  0
 23 25  2  0  0  0  0
 23 82  1  0  0  0  0
 24 84  1  0  0  0  0
 25 85  1  0  0  0  0
 26 64  2  0  0  0  0
 27 66  1  0  0  0  0
 27 70  1  0  0  0  0
 28 38  1  0  0  0  0
 28 65  2  0  0  0  0
 29 71  1  0  0  0  0
 29 76  2  0  0  0  0
 30 46  1  0  0  0  0
 30 72  1  0  0  0  0
 30 77  2  0  0  0  0
 31 47  1  0  0  0  0
 31 73  1  0  0  0  0
 31 78  2  0  0  0  0
 32 59  1  0  0  0  0
 32 68  1  0  0  0  0
 32 79  2  0  0  0  0
 33 60  1  0  0  0  0
 33 67  1  0  0  0  0
 33 80  2  0  0  0  0
 34 61  1  0  0  0  0
 34 74  1  0  0  0  0
 34 81  2  0  0  0  0
 35 39  1  0  0  0  0
 36 46  1  0  0  0  0
 37 67  1  0  0  0  0
 38 47  1  0  0  0  0
 39 41  1  0  0  0  0
 40 42  1  0  0  0  0
 40 43  1  0  0  0  0
 41 45  1  0  0  0  0
 42 48  1  0  0  0  0
 43 68  1  0  0  0  0
 44 48  1  0  0  0  0
 44 68  1  0  0  0  0
 45 72  1  0  0  0  0
 46 67  1  0  0  0  0
 47 69  1  0  0  0  0
 48 66  1  0  0  0  0
 49 59  1  0  0  0  0
 50 61  1  0  0  0  0
 51 62  1  0  0  0  0
 52 63  1  0  0  0  0
 53 63  1  0  0  0  0
 54 63  1  0  0  0  0
 55 75  1  0  0  0  0
 56 57  1  0  0  0  0
 56 59  1  0  0  0  0
 57 69  1  0  0  0  0
 58 62  1  0  0  0  0
 58 73  1  0  0  0  0
 60 63  1  0  0  0  0
 60 74  1  0  0  0  0
 61 75  1  0  0  0  0
 62 83  1  0  0  0  0
 64 66  1  0  0  0  0
 65 69  1  0  0  0  0
M  CHG  1  75   1
M  ISO  4  32 100  59 100  62 101  83 101
M  END
> <Batch ID>
0114

> <Smiles>
CNC(C)C(=O)NC(C(=O)N1Cc2cc([101O:1][101CH:1](C)CNC(=O)C3CC=NN3CC[100CH:0](C)[100C:0](=O)N3CCCC(n4nc(-c5ccc(Oc6ccc(F)cc6F)cc5)c(C(N)=O)c4N)C3)ccc2CC1C(=O)NC1CCCc2ccccc21)C(C)(C)C

> <Shape>
0.225

> <Color>
0.059

> <Negative vol penalty>
0.000

$$$$

  -OEChem-04052320083D

 81 89  0     1  0  0  0  0  0999 V2000
  -16.6954  -27.0412   25.7285 C   0  0  0  0  0  0  0  0  0  0  0  0
  -17.4494  -25.8756   25.8202 C   0  0  0  0  0  0  0  0  0  0  0  0
  -23.8700  -11.1904   23.6782 C   0  0  0  0  0  0  0  0  0  0  0  0
  -24.4657   -9.5849   21.9740 C   0  0  0  0  0  0  0  0  0  0  0  0
  -16.9067  -27.9254   24.6715 C   0  0  0  0  0  0  0  0  0  0  0  0
  -18.4145  -25.5931   24.8542 C   0  0  0  0  0  0  0  0  0  0  0  0
  -24.8063  -22.4477   24.1011 C   0  0  0  0  0  0  0  0  0  0  0  0
  -23.3629  -10.1609   24.4710 C   0  0  0  0  0  0  0  0  0  0  0  0
  -23.9587   -8.5553   22.7668 C   0  0  0  0  0  0  0  0  0  0  0  0
  -25.4485  -21.4862   23.3220 C   0  0  0  0  0  0  0  0  0  0  0  0
  -20.9291   -7.2742   23.5486 C   0  0  0  0  0  0  0  0  0  0  0  0
  -20.1228   -6.3180   22.9312 C   0  0  0  0  0  0  0  0  0  0  0  0
  -25.7812  -23.1257   21.5840 C   0  0  0  0  0  0  0  0  0  0  0  0
  -21.6858   -4.5892   23.5678 C   0  0  0  0  0  0  0  0  0  0  0  0
  -24.4214  -10.9025   22.4297 C   0  0  0  0  0  0  0  0  0  0  0  0
  -24.2423  -13.0786   21.1106 C   0  0  0  0  0  0  0  0  0  0  0  0
  -17.8815  -27.6583   23.6973 C   0  0  0  0  0  0  0  0  0  0  0  0
  -24.6368  -23.7547   23.6222 C   0  0  0  0  0  0  0  0  0  0  0  0
  -18.6381  -26.4739   23.7823 C   0  0  0  0  0  0  0  0  0  0  0  0
  -25.1388  -24.1025   22.3600 C   0  0  0  0  0  0  0  0  0  0  0  0
  -23.4073   -8.8433   24.0153 C   0  0  0  0  0  0  0  0  0  0  0  0
  -25.9335  -21.8244   22.0620 C   0  0  0  0  0  0  0  0  0  0  0  0
  -22.1138   -6.8879   24.1755 C   0  0  0  0  0  0  0  0  0  0  0  0
  -20.5011   -4.9755   22.9408 C   0  0  0  0  0  0  0  0  0  0  0  0
  -22.4921   -5.5454   24.1851 C   0  0  0  0  0  0  0  0  0  0  0  0
  -24.9449  -11.9656   21.6101 C   0  0  0  0  0  0  0  0  0  0  0  0
  -25.1799  -13.7847   20.3973 C   0  0  0  0  0  0  0  0  0  0  0  0
  -22.8652  -13.4417   21.2766 C   0  0  0  0  0  0  0  0  0  0  0  0
  -22.1301  -25.5924   22.9567 C   0  0  0  0  0  0  0  0  0  0  0  0
  -24.4064  -27.8544   22.4833 C   0  0  0  0  0  0  0  0  0  0  0  0
  -27.6559  -28.5829   21.7370 C   0  0  0  0  0  0  0  0  0  0  0  0
  -31.1493  -14.1186   20.7234 C   0  0  0  0  0  0  0  0  0  0  0  0
  -18.0412  -28.6207   22.5471 C   0  0  0  0  0  0  0  0  0  0  0  0
  -23.9656  -24.7871   24.4859 C   0  0  0  0  0  0  0  0  0  0  0  0
  -25.0004  -25.4971   21.8083 C   0  0  0  0  0  0  0  0  0  0  0  0
  -19.3420  -28.4318   21.7709 C   0  0  0  0  0  0  0  0  0  0  0  0
  -29.2091  -13.1834   17.8883 C   0  0  0  0  0  0  0  0  0  0  0  0
  -19.5758  -26.9543   21.4724 C   0  0  0  0  0  0  0  0  0  0  0  0
  -27.8328  -12.8657   18.4756 C   0  0  0  0  0  0  0  0  0  0  0  0
  -27.8554  -18.9000   20.9536 C   0  0  0  0  0  0  0  0  0  0  0  0
  -28.3532  -20.4784   22.8619 C   0  0  0  0  0  0  0  0  0  0  0  0
  -28.7224  -17.8323   21.6098 C   0  0  0  0  0  0  0  0  0  0  0  0
  -29.2194  -19.4104   23.5187 C   0  0  0  0  0  0  0  0  0  0  0  0
  -30.3356  -12.7516   18.8246 C   0  0  0  0  0  0  0  0  0  0  0  0
  -28.8582  -12.9596   20.7862 C   0  0  0  0  0  0  0  0  0  0  0  0
  -19.7114  -26.1445   22.7676 C   0  0  1  0  0  0  0  0  0  0  0  0
  -23.3927  -25.9536   23.6869 C   0  0  1  0  0  0  0  0  0  0  0  0
  -27.6889  -13.4275   19.9028 C   0  0  2  0  0  0  0  0  0  0  0  0
  -27.2648  -19.8589   21.9856 C   0  0  0  0  0  0  0  0  0  1  0  0
  -29.8103  -18.4516   22.4867 C   0  0  0  0  0  0  0  0  0  0  0  0
  -29.2091  -30.5222   21.3848 C   0  0  0  0  0  0  0  0  0  0  0  0
  -32.8491  -17.7954   22.7232 C   0  0  0  0  0  0  0  0  0  0  0  0
  -23.1808  -28.3329   19.7303 C   0  0  0  0  0  0  0  0  0  0  0  0
  -25.2771  -29.5394   19.0837 C   0  0  0  0  0  0  0  0  0  0  0  0
  -23.8622  -30.4105   20.9443 C   0  0  0  0  0  0  0  0  0  0  0  0
  -29.3891  -27.7532   23.9879 C   0  0  0  0  0  0  0  0  0  0  0  0
  -31.8191  -15.4658   22.6971 C   0  0  0  0  0  0  0  0  0  0  0  0
  -25.2282  -28.3135   21.3031 C   0  0  1  0  0  0  0  0  0  0  0  0
  -28.6523  -29.5247   22.3886 C   0  0  2  0  0  0  0  0  0  0  0  0
  -31.6189  -16.9528   22.4132 C   0  0  1  0  0  0  0  0  0  0  0  0
  -24.3881  -29.1222   20.2747 C   0  0  0  0  0  0  0  0  0  0  0  0
  -26.2296  -11.9606   21.2450 N   0  0  0  0  0  0  0  0  0  0  0  0
  -26.3418  -13.0791   20.5084 N   0  0  0  0  0  0  0  0  0  0  0  0
  -24.3309  -26.4694   22.6880 N   0  0  0  0  0  0  0  0  0  0  0  0
  -30.1405  -13.3193   20.1608 N   0  0  0  0  0  0  0  0  0  0  0  0
  -25.1156  -14.9341   19.6922 N   0  0  0  0  0  0  0  0  0  0  0  0
  -22.0408  -12.6042   22.0403 N   0  0  0  0  0  0  0  0  0  0  0  0
  -21.0264  -26.3284   23.3433 N   0  0  0  0  0  0  0  0  0  0  0  0
  -26.3625  -29.0459   21.8557 N   0  0  0  0  0  0  0  0  0  0  0  0
  -30.8812  -14.6222   21.9904 N   0  0  0  0  0  0  0  0  0  0  0  0
  -29.7900  -28.7555   22.9673 N   0  3  0  0  0  0  0  0  0  0  0  0
  -22.3763  -14.4696   20.7493 O   0  0  0  0  0  0  0  0  0  0  0  0
  -22.1558  -24.7122   22.1045 O   0  0  0  0  0  0  0  0  0  0  0  0
  -23.8577  -28.6940   23.2014 O   0  0  0  0  0  0  0  0  0  0  0  0
  -27.9917  -27.5426   21.1753 O   0  0  0  0  0  0  0  0  0  0  0  0
  -32.2080  -14.3695   20.1377 O   0  0  0  0  0  0  0  0  0  0  0  0
  -22.9128   -7.8384   24.7886 O   0  0  0  0  0  0  0  0  0  0  0  0
  -26.5602  -20.8878   21.2992 O   0  0  0  0  0  0  0  0  0  1  0  0
  -30.5150  -17.4229   23.1733 O   0  0  0  0  0  0  0  0  0  0  0  0
  -19.7260   -4.0571   22.3493 F   0  0  0  0  0  0  0  0  0  0  0  0
  -23.6285   -5.1681   24.7868 F   0  0  0  0  0  0  0  0  0  0  0  0
  1  2  1  0  0  0  0
  1  5  2  0  0  0  0
  2  6  2  0  0  0  0
  3  8  2  0  0  0  0
  3 15  1  0  0  0  0
  4  9  1  0  0  0  0
  4 15  2  0  0  0  0
  5 17  1  0  0  0  0
  6 19  1  0  0  0  0
  7 10  2  0  0  0  0
  7 18  1  0  0  0  0
  8 21  1  0  0  0  0
  9 21  2  0  0  0  0
 10 22  1  0  0  0  0
 11 12  2  0  0  0  0
 11 23  1  0  0  0  0
 12 24  1  0  0  0  0
 13 20  1  0  0  0  0
 13 22  2  0  0  0  0
 14 24  2  0  0  0  0
 14 25  1  0  0  0  0
 15 26  1  0  0  0  0
 16 26  1  0  0  0  0
 16 27  2  0  0  0  0
 16 28  1  0  0  0  0
 17 19  2  0  0  0  0
 17 33  1  0  0  0  0
 18 20  2  0  0  0  0
 18 34  1  0  0  0  0
 19 46  1  0  0  0  0
 20 35  1  0  0  0  0
 21 77  1  0  0  0  0
 22 78  1  0  0  0  0
 23 25  2  0  0  0  0
 23 77  1  0  0  0  0
 24 80  1  0  0  0  0
 25 81  1  0  0  0  0
 26 62  2  0  0  0  0
 27 63  1  0  0  0  0
 27 66  1  0  0  0  0
 28 67  1  0  0  0  0
 28 72  2  0  0  0  0
 29 47  1  0  0  0  0
 29 68  1  0  0  0  0
 29 73  2  0  0  0  0
 30 58  1  0  0  0  0
 30 64  1  0  0  0  0
 30 74  2  0  0  0  0
 31 59  1  0  0  0  0
 31 69  1  0  0  0  0
 31 75  2  0  0  0  0
 32 65  1  0  0  0  0
 32 70  1  0  0  0  0
 32 76  2  0  0  0  0
 33 36  1  0  0  0  0
 34 47  1  0  0  0  0
 35 64  1  0  0  0  0
 36 38  1  0  0  0  0
 37 39  1  0  0  0  0
 37 44  1  0  0  0  0
 38 46  1  0  0  0  0
 39 48  1  0  0  0  0
 40 42  1  0  0  0  0
 40 49  1  0  0  0  0
 41 43  1  0  0  0  0
 41 49  1  0  0  0  0
 42 50  1  0  0  0  0
 43 50  1  0  0  0  0
 44 65  1  0  0  0  0
 45 48  1  0  0  0  0
 45 65  1  0  0  0  0
 46 68  1  0  0  0  0
 47 64  1  0  0  0  0
 48 63  1  0  0  0  0
 49 78  1  0  0  0  0
 50 79  1  0  0  0  0
 51 59  1  0  0  0  0
 52 60  1  0  0  0  0
 53 61  1  0  0  0  0
 54 61  1  0  0  0  0
 55 61  1  0  0  0  0
 56 71  1  0  0  0  0
 57 60  1  0  0  0  0
 57 70  1  0  0  0  0
 58 61  1  0  0  0  0
 58 69  1  0  0  0  0
 59 71  1  0  0  0  0
 60 79  1  0  0  0  0
 62 63  1  0  0  0  0
M  CHG  1  71   1
M  ISO  4  32 100  49 101  70 100  78 101
M  END
> <Batch ID>
0114

> <Smiles>
CNC(C)C(=O)NC(C(=O)N1Cc2cc([101O:1][101CH:1]3CCC(OC(C)C[100NH:0][100C:0](=O)N4CCCC(n5nc(-c6ccc(Oc7ccc(F)cc7F)cc6)c(C(N)=O)c5N)C4)CC3)ccc2CC1C(=O)NC1CCCc2ccccc21)C(C)(C)C

> <Shape>
0.264

> <Color>
0.175

> <Negative vol penalty>
0.000

$$$$

  -OEChem-04052320083D

 87 95  0     1  0  0  0  0  0999 V2000
  -25.0649  -35.5814   21.8837 C   0  0  0  0  0  0  0  0  0  0  0  0
  -25.7804  -34.3888   21.8488 C   0  0  0  0  0  0  0  0  0  0  0  0
  -25.9316  -13.4686   19.5228 C   0  0  0  0  0  0  0  0  0  0  0  0
  -24.3951  -13.5680   21.3846 C   0  0  0  0  0  0  0  0  0  0  0  0
  -23.7785  -35.6058   22.4208 C   0  0  0  0  0  0  0  0  0  0  0  0
  -25.2102  -33.2200   22.3520 C   0  0  0  0  0  0  0  0  0  0  0  0
  -25.9168  -29.2428   19.2979 C   0  0  0  0  0  0  0  0  0  0  0  0
  -25.4060  -12.2300   19.1552 C   0  0  0  0  0  0  0  0  0  0  0  0
  -23.8695  -12.3294   21.0170 C   0  0  0  0  0  0  0  0  0  0  0  0
  -27.1708  -28.6341   19.3250 C   0  0  0  0  0  0  0  0  0  0  0  0
  -24.7247   -9.0721   21.3164 C   0  0  0  0  0  0  0  0  0  0  0  0
  -24.5149   -8.1320   22.3252 C   0  0  0  0  0  0  0  0  0  0  0  0
  -26.2943  -26.9059   20.7618 C   0  0  0  0  0  0  0  0  0  0  0  0
  -22.1589   -8.0854   21.7918 C   0  0  0  0  0  0  0  0  0  0  0  0
  -25.4262  -14.1376   20.6375 C   0  0  0  0  0  0  0  0  0  0  0  0
  -25.9921  -16.5942   20.2465 C   0  0  0  0  0  0  0  0  0  0  0  0
  -23.1885  -34.4347   22.9220 C   0  0  0  0  0  0  0  0  0  0  0  0
  -24.8430  -28.6926   20.0126 C   0  0  0  0  0  0  0  0  0  0  0  0
  -23.9152  -33.2290   22.8975 C   0  0  0  0  0  0  0  0  0  0  0  0
  -25.0270  -27.5081   20.7401 C   0  0  0  0  0  0  0  0  0  0  0  0
  -24.3750  -11.6604   19.9022 C   0  0  0  0  0  0  0  0  0  0  0  0
  -27.3604  -27.4671   20.0593 C   0  0  0  0  0  0  0  0  0  0  0  0
  -23.6516   -9.5190   20.5453 C   0  0  0  0  0  0  0  0  0  0  0  0
  -23.2320   -7.6386   22.5629 C   0  0  0  0  0  0  0  0  0  0  0  0
  -22.3688   -9.0256   20.7830 C   0  0  0  0  0  0  0  0  0  0  0  0
  -25.9691  -15.4169   21.0181 C   0  0  0  0  0  0  0  0  0  0  0  0
  -26.6098  -17.5201   21.0513 C   0  0  0  0  0  0  0  0  0  0  0  0
  -25.4992  -16.8297   18.9209 C   0  0  0  0  0  0  0  0  0  0  0  0
  -22.9942  -29.6853   22.4001 C   0  0  0  0  0  0  0  0  0  0  0  0
  -21.3953  -26.9295   21.7909 C   0  0  0  0  0  0  0  0  0  0  0  0
  -21.4569  -23.7666   20.5107 C   0  0  0  0  0  0  0  0  0  0  0  0
  -26.8494  -19.7771   26.2633 C   0  0  0  0  0  0  0  0  0  0  0  0
  -21.8136  -34.5200   23.5360 C   0  0  0  0  0  0  0  0  0  0  0  0
  -23.4899  -29.3467   19.9516 C   0  0  0  0  0  0  0  0  0  0  0  0
  -23.9016  -26.8662   21.5081 C   0  0  0  0  0  0  0  0  0  0  0  0
  -21.1375  -33.1620   23.7067 C   0  0  0  0  0  0  0  0  0  0  0  0
  -29.1137  -16.9783   25.4024 C   0  0  0  0  0  0  0  0  0  0  0  0
  -22.1066  -32.1565   24.3204 C   0  0  0  0  0  0  0  0  0  0  0  0
  -28.4503  -16.3827   24.1617 C   0  0  0  0  0  0  0  0  0  0  0  0
  -29.8644  -23.2499   22.4494 C   0  0  0  0  0  0  0  0  0  0  0  0
  -27.4891  -23.0202   21.6428 C   0  0  0  0  0  0  0  0  0  0  0  0
  -28.0978  -17.6488   26.3222 C   0  0  0  0  0  0  0  0  0  0  0  0
  -26.5960  -18.0806   24.4058 C   0  0  0  0  0  0  0  0  0  0  0  0
  -30.3214  -23.4856   21.0163 C   0  0  0  0  0  0  0  0  0  0  0  0
  -27.9584  -23.2569   20.2138 C   0  0  0  0  0  0  0  0  0  0  0  0
  -23.3213  -31.9352   23.4110 C   0  0  1  0  0  0  0  0  0  0  0  0
  -22.5963  -28.9824   21.1332 C   0  0  1  0  0  0  0  0  0  0  0  0
  -28.5916  -22.3971   22.5070 C   0  0  0  0  0  0  0  0  0  0  0  0
  -27.5982  -17.4379   23.4352 C   0  0  2  0  0  0  0  0  0  0  0  0
  -20.0086  -21.7423   20.1911 C   0  0  0  0  0  0  0  0  0  0  0  0
  -33.1667  -25.3313   16.0762 C   0  0  0  0  0  0  0  0  0  0  0  0
  -33.3229  -24.8762   18.5316 C   0  0  0  0  0  0  0  0  0  0  0  0
  -21.7123  -26.2390   24.7460 C   0  0  0  0  0  0  0  0  0  0  0  0
  -21.1253  -23.8709   24.1840 C   0  0  0  0  0  0  0  0  0  0  0  0
  -19.4701  -25.6934   23.7819 C   0  0  0  0  0  0  0  0  0  0  0  0
  -26.2390  -22.1624   26.1323 C   0  0  0  0  0  0  0  0  0  0  0  0
  -21.7129  -23.9052   17.5656 C   0  0  0  0  0  0  0  0  0  0  0  0
  -28.1187  -22.2263   23.9490 C   0  0  0  0  0  0  0  0  0  0  0  0
  -31.2685  -26.0398   17.5619 C   0  0  0  0  0  0  0  0  0  0  0  0
  -27.1378  -21.0734   24.1095 C   0  0  0  0  0  0  0  0  0  0  0  0
  -29.6362  -24.4834   18.8370 C   0  0  0  0  0  0  0  0  0  0  0  0
  -29.4096  -27.0282   18.9350 C   0  0  0  0  0  0  0  0  0  1  0  0
  -21.4953  -25.5049   22.2803 C   0  0  1  0  0  0  0  0  0  0  0  0
  -20.5077  -23.0400   19.5750 C   0  0  2  0  0  0  0  0  0  0  0  0
  -32.3718  -24.9859   17.3393 C   0  0  0  0  0  0  0  0  0  0  0  0
  -30.3718  -25.8337   18.8036 C   0  0  2  0  0  0  0  0  0  0  0  0
  -20.9727  -25.3400   23.7353 C   0  0  0  0  0  0  0  0  0  0  0  0
  -26.5278  -15.5775   22.2206 N   0  0  0  0  0  0  0  0  0  0  0  0
  -26.9078  -16.8665   22.2107 N   0  0  0  0  0  0  0  0  0  0  0  0
  -22.5989  -27.5469   21.4224 N   0  0  0  0  0  0  0  0  0  0  0  0
  -27.2727  -18.6154   25.5969 N   0  0  0  0  0  0  0  0  0  0  0  0
  -26.9216  -18.8214   20.8732 N   0  0  0  0  0  0  0  0  0  0  0  0
  -24.1759  -17.2653   18.7677 N   0  0  0  0  0  0  0  0  0  0  0  0
  -22.9751  -31.0640   22.3085 N   0  0  0  0  0  0  0  0  0  0  0  0
  -20.7949  -24.6855   21.2972 N   0  0  0  0  0  0  0  0  0  0  0  0
  -26.6660  -20.9301   25.4851 N   0  0  0  0  0  0  0  0  0  0  0  0
  -29.1991  -24.1165   20.2284 N   0  3  0  0  0  0  0  0  0  0  0  0
  -21.1919  -22.7179   18.2908 N   0  3  0  0  0  0  0  0  0  0  0  0
  -26.2061  -16.6431   17.9016 O   0  0  0  0  0  0  0  0  0  0  0  0
  -23.2948  -29.0258   23.3882 O   0  0  0  0  0  0  0  0  0  0  0  0
  -20.2891  -27.4720   21.7309 O   0  0  0  0  0  0  0  0  0  0  0  0
  -22.6642  -23.5389   20.5436 O   0  0  0  0  0  0  0  0  0  0  0  0
  -26.6562  -19.7858   27.4859 O   0  0  0  0  0  0  0  0  0  0  0  0
  -23.8617  -10.4519   19.5437 O   0  0  0  0  0  0  0  0  0  0  0  0
  -28.5836  -26.8713   20.0880 O   0  0  0  0  0  0  0  0  0  1  0  0
  -23.0310   -6.7346   23.5306 F   0  0  0  0  0  0  0  0  0  0  0  0
  -21.3342   -9.4503   20.0448 F   0  0  0  0  0  0  0  0  0  0  0  0
  1  2  1  0  0  0  0
  1  5  2  0  0  0  0
  2  6  2  0  0  0  0
  3  8  2  0  0  0  0
  3 15  1  0  0  0  0
  4  9  1  0  0  0  0
  4 15  2  0  0  0  0
  5 17  1  0  0  0  0
  6 19  1  0  0  0  0
  7 10  2  0  0  0  0
  7 18  1  0  0  0  0
  8 21  1  0  0  0  0
  9 21  2  0  0  0  0
 10 22  1  0  0  0  0
 11 12  2  0  0  0  0
 11 23  1  0  0  0  0
 12 24  1  0  0  0  0
 13 20  1  0  0  0  0
 13 22  2  0  0  0  0
 14 24  2  0  0  0  0
 14 25  1  0  0  0  0
 15 26  1  0  0  0  0
 16 26  1  0  0  0  0
 16 27  2  0  0  0  0
 16 28  1  0  0  0  0
 17 19  2  0  0  0  0
 17 33  1  0  0  0  0
 18 20  2  0  0  0  0
 18 34  1  0  0  0  0
 19 46  1  0  0  0  0
 20 35  1  0  0  0  0
 21 84  1  0  0  0  0
 22 85  1  0  0  0  0
 23 25  2  0  0  0  0
 23 84  1  0  0  0  0
 24 86  1  0  0  0  0
 25 87  1  0  0  0  0
 26 68  2  0  0  0  0
 27 69  1  0  0  0  0
 27 72  1  0  0  0  0
 28 73  1  0  0  0  0
 28 79  2  0  0  0  0
 29 47  1  0  0  0  0
 29 74  1  0  0  0  0
 29 80  2  0  0  0  0
 30 63  1  0  0  0  0
 30 70  1  0  0  0  0
 30 81  2  0  0  0  0
 31 64  1  0  0  0  0
 31 75  1  0  0  0  0
 31 82  2  0  0  0  0
 32 71  1  0  0  0  0
 32 76  1  0  0  0  0
 32 83  2  0  0  0  0
 33 36  1  0  0  0  0
 34 47  1  0  0  0  0
 35 70  1  0  0  0  0
 36 38  1  0  0  0  0
 37 39  1  0  0  0  0
 37 42  1  0  0  0  0
 38 46  1  0  0  0  0
 39 49  1  0  0  0  0
 40 44  1  0  0  0  0
 40 48  1  0  0  0  0
 41 45  1  0  0  0  0
 41 48  1  0  0  0  0
 42 71  1  0  0  0  0
 43 49  1  0  0  0  0
 43 71  1  0  0  0  0
 44 77  1  0  0  0  0
 45 77  1  0  0  0  0
 46 74  1  0  0  0  0
 47 70  1  0  0  0  0
 48 58  1  0  0  0  0
 49 69  1  0  0  0  0
 50 64  1  0  0  0  0
 51 65  1  0  0  0  0
 52 65  1  0  0  0  0
 53 67  1  0  0  0  0
 54 67  1  0  0  0  0
 55 67  1  0  0  0  0
 56 76  1  0  0  0  0
 57 78  1  0  0  0  0
 58 60  1  0  0  0  0
 59 65  1  0  0  0  0
 59 66  1  0  0  0  0
 60 76  1  0  0  0  0
 61 66  1  0  0  0  0
 61 77  1  0  0  0  0
 62 66  1  0  0  0  0
 62 85  1  0  0  0  0
 63 67  1  0  0  0  0
 63 75  1  0  0  0  0
 64 78  1  0  0  0  0
 68 69  1  0  0  0  0
M  CHG  2  77   1  78   1
M  ISO  4  32 100  62 101  76 100  85 101
M  END
> <Batch ID>
0114

> <Smiles>
CNC(C)C(=O)NC(C(=O)N1Cc2cc([101O:1][101CH2:1]C(CC(C)C)CN3CCC(CC[100N:0](C)[100C:0](=O)N4CCCC(n5nc(-c6ccc(Oc7ccc(F)cc7F)cc6)c(C(N)=O)c5N)C4)CC3)ccc2CC1C(=O)NC1CCCc2ccccc21)C(C)(C)C

> <Shape>
0.225

> <Color>
0.079

> <Negative vol penalty>
0.000

$$$$

  -OEChem-04052320083D

 78 85  0     1  0  0  0  0  0999 V2000
  -20.1077   -9.8180   22.7259 C   0  0  0  0  0  0  0  0  0  0  0  0
  -20.9183  -10.7038   23.4285 C   0  0  0  0  0  0  0  0  0  0  0  0
  -22.6655  -28.5180   19.6386 C   0  0  0  0  0  0  0  0  0  0  0  0
  -23.0916  -28.5443   22.0166 C   0  0  0  0  0  0  0  0  0  0  0  0
  -20.6319   -9.0937   21.6561 C   0  0  0  0  0  0  0  0  0  0  0  0
  -22.2541  -10.8650   23.0624 C   0  0  0  0  0  0  0  0  0  0  0  0
  -23.6594  -15.7285   22.9320 C   0  0  0  0  0  0  0  0  0  0  0  0
  -21.4639  -29.1952   19.8464 C   0  0  0  0  0  0  0  0  0  0  0  0
  -21.8900  -29.2215   22.2244 C   0  0  0  0  0  0  0  0  0  0  0  0
  -23.9268  -16.3469   24.1526 C   0  0  0  0  0  0  0  0  0  0  0  0
  -18.7630  -30.6390   23.4170 C   0  0  0  0  0  0  0  0  0  0  0  0
  -17.9436  -30.2012   24.4574 C   0  0  0  0  0  0  0  0  0  0  0  0
  -26.2907  -16.0376   23.7845 C   0  0  0  0  0  0  0  0  0  0  0  0
  -17.7773  -28.0293   23.4123 C   0  0  0  0  0  0  0  0  0  0  0  0
  -23.4793  -28.1925   20.7237 C   0  0  0  0  0  0  0  0  0  0  0  0
  -25.9873  -28.0601   20.2766 C   0  0  0  0  0  0  0  0  0  0  0  0
  -21.9723   -9.2533   21.2706 C   0  0  0  0  0  0  0  0  0  0  0  0
  -24.7068  -15.2494   22.1322 C   0  0  0  0  0  0  0  0  0  0  0  0
  -22.7972  -10.1412   21.9872 C   0  0  0  0  0  0  0  0  0  0  0  0
  -26.0340  -15.4158   22.5530 C   0  0  0  0  0  0  0  0  0  0  0  0
  -21.0762  -29.5470   21.1393 C   0  0  0  0  0  0  0  0  0  0  0  0
  -25.2425  -16.4990   24.5804 C   0  0  0  0  0  0  0  0  0  0  0  0
  -19.0896  -29.7720   22.3742 C   0  0  0  0  0  0  0  0  0  0  0  0
  -17.4507  -28.8963   24.4550 C   0  0  0  0  0  0  0  0  0  0  0  0
  -18.5967  -28.4672   22.3719 C   0  0  0  0  0  0  0  0  0  0  0  0
  -24.7204  -27.4924   20.5097 C   0  0  0  0  0  0  0  0  0  0  0  0
  -26.8267  -26.9817   20.1390 C   0  0  0  0  0  0  0  0  0  0  0  0
  -26.3712  -29.4389   20.1921 C   0  0  0  0  0  0  0  0  0  0  0  0
  -25.5751  -12.3898   21.0493 C   0  0  0  0  0  0  0  0  0  0  0  0
  -27.7825  -14.1120   19.4111 C   0  0  0  0  0  0  0  0  0  0  0  0
  -29.6303  -16.9711   19.1699 C   0  0  0  0  0  0  0  0  0  0  0  0
  -26.6139  -21.3545   22.1231 C   0  0  0  0  0  0  0  0  0  0  0  0
  -22.5066   -8.4135   20.1375 C   0  0  0  0  0  0  0  0  0  0  0  0
  -24.4029  -14.6086   20.8058 C   0  0  0  0  0  0  0  0  0  0  0  0
  -27.1953  -14.9371   21.7219 C   0  0  0  0  0  0  0  0  0  0  0  0
  -23.8328   -8.9204   19.5764 C   0  0  0  0  0  0  0  0  0  0  0  0
  -26.8417  -22.4024   18.7423 C   0  0  0  0  0  0  0  0  0  0  0  0
  -24.8008   -9.2487   20.7087 C   0  0  0  0  0  0  0  0  0  0  0  0
  -26.4456  -23.8795   18.7893 C   0  0  0  0  0  0  0  0  0  0  0  0
  -26.0250  -21.5674   19.7264 C   0  0  0  0  0  0  0  0  0  0  0  0
  -25.6436  -23.5312   21.1628 C   0  0  0  0  0  0  0  0  0  0  0  0
  -24.2446  -10.3620   21.6046 C   0  0  1  0  0  0  0  0  0  0  0  0
  -25.5227  -13.6978   20.3117 C   0  0  1  0  0  0  0  0  0  0  0  0
  -26.4789  -24.4248   20.2302 C   0  0  2  0  0  0  0  0  0  0  0  0
  -31.2058  -18.6477   18.1677 C   0  0  0  0  0  0  0  0  0  0  0  0
  -29.9128  -12.2836   20.6063 C   0  0  0  0  0  0  0  0  0  0  0  0
  -31.6370  -13.9717   19.9386 C   0  0  0  0  0  0  0  0  0  0  0  0
  -30.2549  -12.8459   18.1936 C   0  0  0  0  0  0  0  0  0  0  0  0
  -24.2297  -20.1679   27.5799 C   0  0  0  0  0  0  0  0  0  0  0  0
  -25.8255  -18.4203   28.3807 C   0  0  0  0  0  0  0  0  0  0  0  0
  -27.4412  -18.3319   17.7157 C   0  0  0  0  0  0  0  0  0  0  0  0
  -26.4725  -19.8233   26.4309 C   0  0  0  0  0  0  0  0  0  0  0  0
  -24.5852  -18.0954   26.2160 C   0  0  0  0  0  0  0  0  0  1  0  0
  -27.1718  -21.3126   24.5482 C   0  0  0  0  0  0  0  0  0  0  0  0
  -29.1892  -14.5852   19.6872 C   0  0  1  0  0  0  0  0  0  0  0  0
  -29.8860  -17.9099   18.0047 C   0  0  2  0  0  0  0  0  0  0  0  0
  -30.2267  -13.4290   19.6232 C   0  0  0  0  0  0  0  0  0  0  0  0
  -25.2769  -19.1338   27.1269 C   0  0  0  0  0  0  0  0  0  0  0  0
  -24.7477  -26.1571   20.5201 N   0  0  0  0  0  0  0  0  0  0  0  0
  -26.0420  -25.8766   20.2917 N   0  0  0  0  0  0  0  0  0  0  0  0
  -26.8465  -14.3113   20.4358 N   0  0  0  0  0  0  0  0  0  0  0  0
  -26.1076  -22.1381   21.0729 N   0  0  0  0  0  0  0  0  0  0  0  0
  -28.1521  -26.8803   19.9033 N   0  0  0  0  0  0  0  0  0  0  0  0
  -25.3830  -30.4189   20.3576 N   0  0  0  0  0  0  0  0  0  0  0  0
  -24.4095  -11.6518   20.9694 N   0  0  0  0  0  0  0  0  0  0  0  0
  -29.4463  -15.6714   18.7477 N   0  0  0  0  0  0  0  0  0  0  0  0
  -26.6676  -21.9758   23.3655 N   0  0  0  0  0  0  0  0  0  0  0  0
  -28.7934  -18.9182   17.9025 N   0  3  0  0  0  0  0  0  0  0  0  0
  -26.0623  -20.5772   25.2174 N   0  3  0  0  0  0  0  0  0  0  0  0
  -27.5525  -29.7913   19.9599 O   0  0  0  0  0  0  0  0  0  0  0  0
  -26.5977  -12.0729   21.6454 O   0  0  0  0  0  0  0  0  0  0  0  0
  -27.5221  -13.5914   18.3236 O   0  0  0  0  0  0  0  0  0  0  0  0
  -29.6008  -17.3519   20.3381 O   0  0  0  0  0  0  0  0  0  0  0  0
  -26.9979  -20.1911   21.9625 O   0  0  0  0  0  0  0  0  0  0  0  0
  -19.9039  -30.2080   21.3425 O   0  0  0  0  0  0  0  0  0  0  0  0
  -25.5081  -17.1059   25.7801 O   0  0  0  0  0  0  0  0  0  1  0  0
  -16.6651  -28.4755   25.4549 F   0  0  0  0  0  0  0  0  0  0  0  0
  -18.9079  -27.6293   21.3734 F   0  0  0  0  0  0  0  0  0  0  0  0
  1  2  1  0  0  0  0
  1  5  2  0  0  0  0
  2  6  2  0  0  0  0
  3  8  2  0  0  0  0
  3 15  1  0  0  0  0
  4  9  1  0  0  0  0
  4 15  2  0  0  0  0
  5 17  1  0  0  0  0
  6 19  1  0  0  0  0
  7 10  2  0  0  0  0
  7 18  1  0  0  0  0
  8 21  1  0  0  0  0
  9 21  2  0  0  0  0
 10 22  1  0  0  0  0
 11 12  2  0  0  0  0
 11 23  1  0  0  0  0
 12 24  1  0  0  0  0
 13 20  1  0  0  0  0
 13 22  2  0  0  0  0
 14 24  2  0  0  0  0
 14 25  1  0  0  0  0
 15 26  1  0  0  0  0
 16 26  1  0  0  0  0
 16 27  2  0  0  0  0
 16 28  1  0  0  0  0
 17 19  2  0  0  0  0
 17 33  1  0  0  0  0
 18 20  2  0  0  0  0
 18 34  1  0  0  0  0
 19 42  1  0  0  0  0
 20 35  1  0  0  0  0
 21 75  1  0  0  0  0
 22 76  1  0  0  0  0
 23 25  2  0  0  0  0
 23 75  1  0  0  0  0
 24 77  1  0  0  0  0
 25 78  1  0  0  0  0
 26 59  2  0  0  0  0
 27 60  1  0  0  0  0
 27 63  1  0  0  0  0
 28 64  1  0  0  0  0
 28 70  2  0  0  0  0
 29 43  1  0  0  0  0
 29 65  1  0  0  0  0
 29 71  2  0  0  0  0
 30 55  1  0  0  0  0
 30 61  1  0  0  0  0
 30 72  2  0  0  0  0
 31 56  1  0  0  0  0
 31 66  1  0  0  0  0
 31 73  2  0  0  0  0
 32 62  1  0  0  0  0
 32 67  1  0  0  0  0
 32 74  2  0  0  0  0
 33 36  1  0  0  0  0
 34 43  1  0  0  0  0
 35 61  1  0  0  0  0
 36 38  1  0  0  0  0
 37 39  1  0  0  0  0
 37 40  1  0  0  0  0
 38 42  1  0  0  0  0
 39 44  1  0  0  0  0
 40 62  1  0  0  0  0
 41 44  1  0  0  0  0
 41 62  1  0  0  0  0
 42 65  1  0  0  0  0
 43 61  1  0  0  0  0
 44 60  1  0  0  0  0
 45 56  1  0  0  0  0
 46 57  1  0  0  0  0
 47 57  1  0  0  0  0
 48 57  1  0  0  0  0
 49 58  1  0  0  0  0
 50 58  1  0  0  0  0
 51 68  1  0  0  0  0
 52 58  1  0  0  0  0
 52 69  1  0  0  0  0
 53 58  1  0  0  0  0
 53 76  1  0  0  0  0
 54 67  1  0  0  0  0
 54 69  1  0  0  0  0
 55 57  1  0  0  0  0
 55 66  1  0  0  0  0
 56 68  1  0  0  0  0
 59 60  1  0  0  0  0
M  CHG  2  68   1  69   1
M  ISO  4  32 100  53 101  67 100  76 101
M  END
> <Batch ID>
0114

> <Smiles>
CNC(C)C(=O)NC(C(=O)N1Cc2cc([101O:1][101CH2:1]C(C)(C)CNC[100NH:0][100C:0](=O)N3CCCC(n4nc(-c5ccc(Oc6ccc(F)cc6F)cc5)c(C(N)=O)c4N)C3)ccc2CC1C(=O)NC1CCCc2ccccc21)C(C)(C)C

> <Shape>
0.232

> <Color>
0.064

> <Negative vol penalty>
0.000

$$$$

  -OEChem-04052320083D

 82 90  0     1  0  0  0  0  0999 V2000
  -23.6484  -32.4980   14.1217 C   0  0  0  0  0  0  0  0  0  0  0  0
  -24.5744  -31.7300   14.8203 C   0  0  0  0  0  0  0  0  0  0  0  0
  -22.4050  -15.1083   23.3235 C   0  0  0  0  0  0  0  0  0  0  0  0
  -23.9819  -14.2845   24.9580 C   0  0  0  0  0  0  0  0  0  0  0  0
  -23.0751  -33.6165   14.7252 C   0  0  0  0  0  0  0  0  0  0  0  0
  -24.9284  -32.0806   16.1227 C   0  0  0  0  0  0  0  0  0  0  0  0
  -25.0510  -28.0938   19.2429 C   0  0  0  0  0  0  0  0  0  0  0  0
  -21.5473  -15.5034   24.3500 C   0  0  0  0  0  0  0  0  0  0  0  0
  -23.1242  -14.6797   25.9846 C   0  0  0  0  0  0  0  0  0  0  0  0
  -26.1682  -27.2629   19.1706 C   0  0  0  0  0  0  0  0  0  0  0  0
  -20.3084  -13.5286   27.4601 C   0  0  0  0  0  0  0  0  0  0  0  0
  -20.0921  -12.6308   28.5055 C   0  0  0  0  0  0  0  0  0  0  0  0
  -27.0927  -28.3468   21.1173 C   0  0  0  0  0  0  0  0  0  0  0  0
  -20.9725  -14.2444   30.0734 C   0  0  0  0  0  0  0  0  0  0  0  0
  -23.6223  -14.4988   23.6275 C   0  0  0  0  0  0  0  0  0  0  0  0
  -24.2351  -13.1688   21.5386 C   0  0  0  0  0  0  0  0  0  0  0  0
  -23.4150  -33.9754   16.0391 C   0  0  0  0  0  0  0  0  0  0  0  0
  -24.9512  -29.0665   20.2481 C   0  0  0  0  0  0  0  0  0  0  0  0
  -24.3601  -33.2057   16.7439 C   0  0  0  0  0  0  0  0  0  0  0  0
  -25.9721  -29.1871   21.2016 C   0  0  0  0  0  0  0  0  0  0  0  0
  -21.9069  -15.2891   25.6806 C   0  0  0  0  0  0  0  0  0  0  0  0
  -27.1906  -27.3912   20.1062 C   0  0  0  0  0  0  0  0  0  0  0  0
  -20.8569  -14.7842   27.7214 C   0  0  0  0  0  0  0  0  0  0  0  0
  -20.4241  -12.9887   29.8121 C   0  0  0  0  0  0  0  0  0  0  0  0
  -21.1889  -15.1421   29.0280 C   0  0  0  0  0  0  0  0  0  0  0  0
  -24.5085  -14.0899   22.5675 C   0  0  0  0  0  0  0  0  0  0  0  0
  -25.3902  -13.1300   20.7965 C   0  0  0  0  0  0  0  0  0  0  0  0
  -23.0434  -12.4156   21.2771 C   0  0  0  0  0  0  0  0  0  0  0  0
  -24.7550  -32.2388   20.2882 C   0  0  0  0  0  0  0  0  0  0  0  0
  -24.3130  -31.7821   23.4692 C   0  0  0  0  0  0  0  0  0  0  0  0
  -24.7667  -29.7865   26.2002 C   0  0  0  0  0  0  0  0  0  0  0  0
  -29.8451  -17.0463   19.9796 C   0  0  0  0  0  0  0  0  0  0  0  0
  -22.8043  -35.2202   16.6326 C   0  0  0  0  0  0  0  0  0  0  0  0
  -23.7272  -29.9370   20.3282 C   0  0  0  0  0  0  0  0  0  0  0  0
  -25.9037  -30.2018   22.3125 C   0  0  0  0  0  0  0  0  0  0  0  0
  -22.9526  -35.3077   18.1494 C   0  0  0  0  0  0  0  0  0  0  0  0
  -30.1217  -13.7132   21.2006 C   0  0  0  0  0  0  0  0  0  0  0  0
  -24.3813  -34.9733   18.5663 C   0  0  0  0  0  0  0  0  0  0  0  0
  -28.6898  -13.3487   21.5965 C   0  0  0  0  0  0  0  0  0  0  0  0
  -28.8860  -23.7328   17.6605 C   0  0  0  0  0  0  0  0  0  0  0  0
  -28.3877  -22.8145   19.9691 C   0  0  0  0  0  0  0  0  0  0  0  0
  -28.9521  -25.1439   18.2397 C   0  0  0  0  0  0  0  0  0  0  0  0
  -28.4545  -24.2279   20.5426 C   0  0  0  0  0  0  0  0  0  0  0  0
  -30.4335  -15.1785   21.4967 C   0  0  0  0  0  0  0  0  0  0  0  0
  -28.0506  -15.7794   21.3105 C   0  0  0  0  0  0  0  0  0  0  0  0
  -24.7511  -33.5396   18.1672 C   0  0  1  0  0  0  0  0  0  0  0  0
  -23.9683  -31.2384   21.0870 C   0  0  1  0  0  0  0  0  0  0  0  0
  -27.6713  -14.3259   20.9792 C   0  0  2  0  0  0  0  0  0  0  0  0
  -29.2555  -22.6946   18.7181 C   0  0  0  0  0  0  0  0  0  0  0  0
  -28.0909  -25.2800   19.4946 C   0  0  0  0  0  0  0  0  0  1  0  0
  -24.3303  -29.6983   28.6698 C   0  0  0  0  0  0  0  0  0  0  0  0
  -30.7632  -20.4127   19.6787 C   0  0  0  0  0  0  0  0  0  0  0  0
  -26.6042  -33.7410   23.9416 C   0  0  0  0  0  0  0  0  0  0  0  0
  -26.7472  -32.8982   26.2948 C   0  0  0  0  0  0  0  0  0  0  0  0
  -24.6631  -34.0118   25.4951 C   0  0  0  0  0  0  0  0  0  0  0  0
  -23.0880  -27.3637   25.9344 C   0  0  0  0  0  0  0  0  0  0  0  0
  -29.8904  -21.1352   16.8834 C   0  0  0  0  0  0  0  0  0  0  0  0
  -29.0983  -18.8853   18.4899 C   0  0  0  0  0  0  0  0  0  0  0  0
  -25.2205  -31.6872   24.6719 C   0  0  1  0  0  0  0  0  0  0  0  0
  -23.8091  -29.3350   27.2881 C   0  0  2  0  0  0  0  0  0  0  0  0
  -29.3478  -20.2426   19.1438 C   0  0  2  0  0  0  0  0  0  0  0  0
  -25.8112  -33.0666   25.0789 C   0  0  0  0  0  0  0  0  0  0  0  0
  -25.7407  -14.5994   22.4893 N   0  0  0  0  0  0  0  0  0  0  0  0
  -26.2518  -13.9963   21.4025 N   0  0  0  0  0  0  0  0  0  0  0  0
  -24.6896  -31.0340   22.3448 N   0  0  0  0  0  0  0  0  0  0  0  0
  -29.4314  -16.0525   20.8820 N   0  0  0  0  0  0  0  0  0  0  0  0
  -25.7427  -12.4397   19.6913 N   0  0  0  0  0  0  0  0  0  0  0  0
  -21.9496  -12.5751   22.1387 N   0  0  0  0  0  0  0  0  0  0  0  0
  -24.1647  -32.5910   19.0895 N   0  0  0  0  0  0  0  0  0  0  0  0
  -24.4417  -31.0378   25.7207 N   0  0  0  0  0  0  0  0  0  0  0  0
  -28.8311  -17.8266   19.4378 N   0  0  0  0  0  0  0  0  0  0  0  0
  -23.6192  -27.8580   27.2308 N   0  3  0  0  0  0  0  0  0  0  0  0
  -29.0814  -21.3357   18.1399 N   0  3  1  0  0  0  0  0  0  0  0  0
  -22.9571  -11.6122   20.3176 O   0  0  0  0  0  0  0  0  0  0  0  0
  -25.8181  -32.6610   20.7277 O   0  0  0  0  0  0  0  0  0  0  0  0
  -23.3033  -32.4882   23.5278 O   0  0  0  0  0  0  0  0  0  0  0  0
  -25.7111  -29.0996   25.8169 O   0  0  0  0  0  0  0  0  0  0  0  0
  -31.0298  -17.2215   19.6751 O   0  0  0  0  0  0  0  0  0  0  0  0
  -21.0703  -15.6747   26.6825 O   0  0  0  0  0  0  0  0  0  0  0  0
  -28.2825  -26.5819   20.0376 O   0  0  0  0  0  0  0  0  0  1  0  0
  -20.2149  -12.1270   30.8161 F   0  0  0  0  0  0  0  0  0  0  0  0
  -21.7149  -16.3475   29.2853 F   0  0  0  0  0  0  0  0  0  0  0  0
  1  2  1  0  0  0  0
  1  5  2  0  0  0  0
  2  6  2  0  0  0  0
  3  8  2  0  0  0  0
  3 15  1  0  0  0  0
  4  9  1  0  0  0  0
  4 15  2  0  0  0  0
  5 17  1  0  0  0  0
  6 19  1  0  0  0  0
  7 10  2  0  0  0  0
  7 18  1  0  0  0  0
  8 21  1  0  0  0  0
  9 21  2  0  0  0  0
 10 22  1  0  0  0  0
 11 12  2  0  0  0  0
 11 23  1  0  0  0  0
 12 24  1  0  0  0  0
 13 20  1  0  0  0  0
 13 22  2  0  0  0  0
 14 24  2  0  0  0  0
 14 25  1  0  0  0  0
 15 26  1  0  0  0  0
 16 26  1  0  0  0  0
 16 27  2  0  0  0  0
 16 28  1  0  0  0  0
 17 19  2  0  0  0  0
 17 33  1  0  0  0  0
 18 20  2  0  0  0  0
 18 34  1  0  0  0  0
 19 46  1  0  0  0  0
 20 35  1  0  0  0  0
 21 79  1  0  0  0  0
 22 80  1  0  0  0  0
 23 25  2  0  0  0  0
 23 79  1  0  0  0  0
 24 81  1  0  0  0  0
 25 82  1  0  0  0  0
 26 63  2  0  0  0  0
 27 64  1  0  0  0  0
 27 67  1  0  0  0  0
 28 68  1  0  0  0  0
 28 74  2  0  0  0  0
 29 47  1  0  0  0  0
 29 69  1  0  0  0  0
 29 75  2  0  0  0  0
 30 59  1  0  0  0  0
 30 65  1  0  0  0  0
 30 76  2  0  0  0  0
 31 60  1  0  0  0  0
 31 70  1  0  0  0  0
 31 77  2  0  0  0  0
 32 66  1  0  0  0  0
 32 71  1  0  0  0  0
 32 78  2  0  0  0  0
 33 36  1  0  0  0  0
 34 47  1  0  0  0  0
 35 65  1  0  0  0  0
 36 38  1  0  0  0  0
 37 39  1  0  0  0  0
 37 44  1  0  0  0  0
 38 46  1  0  0  0  0
 39 48  1  0  0  0  0
 40 42  1  0  0  0  0
 40 49  1  0  0  0  0
 41 43  1  0  0  0  0
 41 49  1  0  0  0  0
 42 50  1  0  0  0  0
 43 50  1  0  0  0  0
 44 66  1  0  0  0  0
 45 48  1  0  0  0  0
 45 66  1  0  0  0  0
 46 69  1  0  0  0  0
 47 65  1  0  0  0  0
 48 64  1  0  0  0  0
 49 73  1  0  0  0  0
 50 80  1  0  0  0  0
 51 60  1  0  0  0  0
 52 61  1  0  0  0  0
 53 62  1  0  0  0  0
 54 62  1  0  0  0  0
 55 62  1  0  0  0  0
 56 72  1  0  0  0  0
 57 73  1  0  0  0  0
 58 61  1  0  0  0  0
 58 71  1  0  0  0  0
 59 62  1  0  0  0  0
 59 70  1  0  0  0  0
 60 72  1  0  0  0  0
 61 73  1  0  0  0  0
 63 64  1  0  0  0  0
M  CHG  2  72   1  73   1
M  ISO  4  32 100  50 101  71 100  80 101
M  END
> <Batch ID>
0114

> <Smiles>
CNC(C)C(=O)NC(C(=O)N1Cc2cc([101O:1][101CH:1]3CCC(N(C)C(C)C[100NH:0][100C:0](=O)N4CCCC(n5nc(-c6ccc(Oc7ccc(F)cc7F)cc6)c(C(N)=O)c5N)C4)CC3)ccc2CC1C(=O)NC1CCCc2ccccc21)C(C)(C)C

> <Shape>
0.239

> <Color>
0.107

> <Negative vol penalty>
0.000

$$$$

  -OEChem-04052320083D

 81 89  0     1  0  0  0  0  0999 V2000
  -22.1821  -34.3327   17.8378 C   0  0  0  0  0  0  0  0  0  0  0  0
  -23.4122  -34.1375   18.4574 C   0  0  0  0  0  0  0  0  0  0  0  0
  -23.7884   -9.9015   20.9428 C   0  0  0  0  0  0  0  0  0  0  0  0
  -25.3372  -10.1279   22.7832 C   0  0  0  0  0  0  0  0  0  0  0  0
  -21.1059  -33.5033   18.1505 C   0  0  0  0  0  0  0  0  0  0  0  0
  -23.5667  -33.1134   19.3910 C   0  0  0  0  0  0  0  0  0  0  0  0
  -28.4721  -27.9267   18.4285 C   0  0  0  0  0  0  0  0  0  0  0  0
  -23.4099   -8.6451   21.4158 C   0  0  0  0  0  0  0  0  0  0  0  0
  -24.9587   -8.8715   23.2563 C   0  0  0  0  0  0  0  0  0  0  0  0
  -29.5298  -27.0171   18.4210 C   0  0  0  0  0  0  0  0  0  0  0  0
  -21.4116   -7.3942   23.8396 C   0  0  0  0  0  0  0  0  0  0  0  0
  -20.0487   -7.0996   23.8783 C   0  0  0  0  0  0  0  0  0  0  0  0
  -28.6889  -26.0061   20.4505 C   0  0  0  0  0  0  0  0  0  0  0  0
  -20.4086   -5.2383   22.3804 C   0  0  0  0  0  0  0  0  0  0  0  0
  -24.7520  -10.6429   21.6265 C   0  0  0  0  0  0  0  0  0  0  0  0
  -24.3178  -13.0663   20.9585 C   0  0  0  0  0  0  0  0  0  0  0  0
  -21.2498  -32.4623   19.0813 C   0  0  0  0  0  0  0  0  0  0  0  0
  -27.5090  -27.8695   19.4398 C   0  0  0  0  0  0  0  0  0  0  0  0
  -22.4910  -32.2701   19.7175 C   0  0  0  0  0  0  0  0  0  0  0  0
  -27.6203  -26.9066   20.4563 C   0  0  0  0  0  0  0  0  0  0  0  0
  -23.9950   -8.1301   22.5726 C   0  0  0  0  0  0  0  0  0  0  0  0
  -29.6380  -26.0594   19.4297 C   0  0  0  0  0  0  0  0  0  0  0  0
  -22.2729   -6.6109   23.0713 C   0  0  0  0  0  0  0  0  0  0  0  0
  -19.5473   -6.0217   23.1487 C   0  0  0  0  0  0  0  0  0  0  0  0
  -21.7715   -5.5330   22.3417 C   0  0  0  0  0  0  0  0  0  0  0  0
  -25.1438  -11.9406   21.1380 C   0  0  0  0  0  0  0  0  0  0  0  0
  -25.1611  -14.0379   20.4778 C   0  0  0  0  0  0  0  0  0  0  0  0
  -22.9136  -13.2200   21.2044 C   0  0  0  0  0  0  0  0  0  0  0  0
  -24.3492  -29.2938   20.8759 C   0  0  0  0  0  0  0  0  0  0  0  0
  -24.1573  -26.2444   21.1501 C   0  0  0  0  0  0  0  0  0  0  0  0
  -23.1181  -23.0035   21.3824 C   0  0  0  0  0  0  0  0  0  0  0  0
  -29.8826  -16.7924   20.7380 C   0  0  0  0  0  0  0  0  0  0  0  0
  -20.0450  -31.6215   19.4220 C   0  0  0  0  0  0  0  0  0  0  0  0
  -26.3868  -28.8683   19.5218 C   0  0  0  0  0  0  0  0  0  0  0  0
  -26.5801  -26.9045   21.5431 C   0  0  0  0  0  0  0  0  0  0  0  0
  -20.3934  -30.3227   20.1446 C   0  0  0  0  0  0  0  0  0  0  0  0
  -29.9261  -13.7322   18.8065 C   0  0  0  0  0  0  0  0  0  0  0  0
  -21.3905  -30.5878   21.2681 C   0  0  0  0  0  0  0  0  0  0  0  0
  -30.6941  -21.7049   17.9648 C   0  0  0  0  0  0  0  0  0  0  0  0
  -30.6504  -21.5607   20.4893 C   0  0  0  0  0  0  0  0  0  0  0  0
  -28.6068  -13.0852   19.2320 C   0  0  0  0  0  0  0  0  0  0  0  0
  -30.9196  -23.2109   18.0584 C   0  0  0  0  0  0  0  0  0  0  0  0
  -30.8754  -23.0673   20.5760 C   0  0  0  0  0  0  0  0  0  0  0  0
  -30.5949  -14.4456   19.9777 C   0  0  0  0  0  0  0  0  0  0  0  0
  -28.4200  -14.8201   21.0746 C   0  0  0  0  0  0  0  0  0  0  0  0
  -22.7047  -31.1542   20.7172 C   0  0  1  0  0  0  0  0  0  0  0  0
  -25.0796  -28.2640   20.0651 C   0  0  1  0  0  0  0  0  0  0  0  0
  -31.2400  -20.9739   19.1993 C   0  0  0  0  0  0  0  0  0  0  0  0
  -27.6835  -14.1017   19.9293 C   0  0  2  0  0  0  0  0  0  0  0  0
  -30.3350  -23.7901   19.3439 C   0  0  0  0  0  0  0  0  0  1  0  0
  -21.5790  -21.5177   22.6943 C   0  0  0  0  0  0  0  0  0  0  0  0
  -31.5365  -18.9126   17.8053 C   0  0  0  0  0  0  0  0  0  0  0  0
  -32.9574  -18.8104   20.5593 C   0  0  0  0  0  0  0  0  0  0  0  0
  -26.1247  -26.2705   23.4808 C   0  0  0  0  0  0  0  0  0  0  0  0
  -25.0859  -24.1407   24.2890 C   0  0  0  0  0  0  0  0  0  0  0  0
  -23.7154  -26.2203   24.1495 C   0  0  0  0  0  0  0  0  0  0  0  0
  -21.5546  -22.2984   18.9706 C   0  0  0  0  0  0  0  0  0  0  0  0
  -24.3903  -25.0355   22.0204 C   0  0  1  0  0  0  0  0  0  0  0  0
  -21.7302  -22.3936   21.4603 C   0  0  2  0  0  0  0  0  0  0  0  0
  -30.9552  -19.4759   19.1088 C   0  0  1  0  0  0  0  0  0  0  0  0
  -31.4531  -18.6707   20.3348 C   0  0  1  0  0  0  0  0  0  0  0  0
  -24.8400  -25.4185   23.4587 C   0  0  0  0  0  0  0  0  0  0  0  0
  -26.4144  -12.1741   20.7988 N   0  0  0  0  0  0  0  0  0  0  0  0
  -26.3931  -13.4577   20.4012 N   0  0  0  0  0  0  0  0  0  0  0  0
  -25.2443  -27.1063   20.9603 N   0  0  0  0  0  0  0  0  0  0  0  0
  -29.6695  -15.4123   20.5853 N   0  0  0  0  0  0  0  0  0  0  0  0
  -24.9617  -15.3235   20.1172 N   0  0  0  0  0  0  0  0  0  0  0  0
  -22.1976  -12.1211   21.6984 N   0  0  0  0  0  0  0  0  0  0  0  0
  -23.5052  -30.0986   20.1347 N   0  0  0  0  0  0  0  0  0  0  0  0
  -23.1612  -24.2514   21.9675 N   0  0  0  0  0  0  0  0  0  0  0  0
  -31.0937  -17.2723   20.2545 N   0  0  0  0  0  0  0  0  0  0  0  0
  -21.4631  -21.5583   20.2554 N   0  3  0  0  0  0  0  0  0  0  0  0
  -22.3084  -14.2949   20.9768 O   0  0  0  0  0  0  0  0  0  0  0  0
  -24.5356  -29.3538   22.0856 O   0  0  0  0  0  0  0  0  0  0  0  0
  -23.0411  -26.4253   20.6553 O   0  0  0  0  0  0  0  0  0  0  0  0
  -24.0698  -22.4288   20.8585 O   0  0  0  0  0  0  0  0  0  0  0  0
  -29.0523  -17.5430   21.2618 O   0  0  0  0  0  0  0  0  0  0  0  0
  -23.6258   -6.9042   23.0346 O   0  0  0  0  0  0  0  0  0  0  0  0
  -30.6707  -25.1716   19.4138 O   0  0  0  0  0  0  0  0  0  1  0  0
  -18.2387   -5.7379   23.1871 F   0  0  0  0  0  0  0  0  0  0  0  0
  -22.5942   -4.7762   21.6028 F   0  0  0  0  0  0  0  0  0  0  0  0
  1  2  1  0  0  0  0
  1  5  2  0  0  0  0
  2  6  2  0  0  0  0
  3  8  2  0  0  0  0
  3 15  1  0  0  0  0
  4  9  1  0  0  0  0
  4 15  2  0  0  0  0
  5 17  1  0  0  0  0
  6 19  1  0  0  0  0
  7 10  2  0  0  0  0
  7 18  1  0  0  0  0
  8 21  1  0  0  0  0
  9 21  2  0  0  0  0
 10 22  1  0  0  0  0
 11 12  2  0  0  0  0
 11 23  1  0  0  0  0
 12 24  1  0  0  0  0
 13 20  1  0  0  0  0
 13 22  2  0  0  0  0
 14 24  2  0  0  0  0
 14 25  1  0  0  0  0
 15 26  1  0  0  0  0
 16 26  1  0  0  0  0
 16 27  2  0  0  0  0
 16 28  1  0  0  0  0
 17 19  2  0  0  0  0
 17 33  1  0  0  0  0
 18 20  2  0  0  0  0
 18 34  1  0  0  0  0
 19 46  1  0  0  0  0
 20 35  1  0  0  0  0
 21 78  1  0  0  0  0
 22 79  1  0  0  0  0
 23 25  2  0  0  0  0
 23 78  1  0  0  0  0
 24 80  1  0  0  0  0
 25 81  1  0  0  0  0
 26 63  2  0  0  0  0
 27 64  1  0  0  0  0
 27 67  1  0  0  0  0
 28 68  1  0  0  0  0
 28 73  2  0  0  0  0
 29 47  1  0  0  0  0
 29 69  1  0  0  0  0
 29 74  2  0  0  0  0
 30 58  1  0  0  0  0
 30 65  1  0  0  0  0
 30 75  2  0  0  0  0
 31 59  1  0  0  0  0
 31 70  1  0  0  0  0
 31 76  2  0  0  0  0
 32 66  1  0  0  0  0
 32 71  1  0  0  0  0
 32 77  2  0  0  0  0
 33 36  1  0  0  0  0
 34 47  1  0  0  0  0
 35 65  1  0  0  0  0
 36 38  1  0  0  0  0
 37 41  1  0  0  0  0
 37 44  1  0  0  0  0
 38 46  1  0  0  0  0
 39 42  1  0  0  0  0
 39 48  1  0  0  0  0
 40 43  1  0  0  0  0
 40 48  1  0  0  0  0
 41 49  1  0  0  0  0
 42 50  1  0  0  0  0
 43 50  1  0  0  0  0
 44 66  1  0  0  0  0
 45 49  1  0  0  0  0
 45 66  1  0  0  0  0
 46 69  1  0  0  0  0
 47 65  1  0  0  0  0
 48 60  1  0  0  0  0
 49 64  1  0  0  0  0
 50 79  1  0  0  0  0
 51 59  1  0  0  0  0
 52 60  1  0  0  0  0
 53 61  1  0  0  0  0
 54 62  1  0  0  0  0
 55 62  1  0  0  0  0
 56 62  1  0  0  0  0
 57 72  1  0  0  0  0
 58 62  1  0  0  0  0
 58 70  1  0  0  0  0
 59 72  1  0  0  0  0
 60 61  1  0  0  0  0
 61 71  1  0  0  0  0
 63 64  1  0  0  0  0
M  CHG  1  72   1
M  ISO  4  32 100  50 101  71 100  79 101
M  END
> <Batch ID>
0114

> <Smiles>
CNC(C)C(=O)NC(C(=O)N1Cc2cc([101O:1][101CH:1]3CCC(C(C)C(C)[100NH:0][100C:0](=O)N4CCCC(n5nc(-c6ccc(Oc7ccc(F)cc7F)cc6)c(C(N)=O)c5N)C4)CC3)ccc2CC1C(=O)NC1CCCc2ccccc21)C(C)(C)C

> <Shape>
0.256

> <Color>
0.129

> <Negative vol penalty>
0.000

$$$$

  -OEChem-04052320083D

 77 84  0     1  0  0  0  0  0999 V2000
  -21.8139  -30.9273   22.5999 C   0  0  0  0  0  0  0  0  0  0  0  0
  -21.4154  -29.7670   21.9438 C   0  0  0  0  0  0  0  0  0  0  0  0
  -25.5700  -14.5211   20.3887 C   0  0  0  0  0  0  0  0  0  0  0  0
  -23.9784  -13.9873   22.1262 C   0  0  0  0  0  0  0  0  0  0  0  0
  -23.1319  -31.3694   22.4932 C   0  0  0  0  0  0  0  0  0  0  0  0
  -22.3345  -29.0488   21.1797 C   0  0  0  0  0  0  0  0  0  0  0  0
  -22.5811  -22.9707   20.4715 C   0  0  0  0  0  0  0  0  0  0  0  0
  -25.8953  -13.1698   20.2715 C   0  0  0  0  0  0  0  0  0  0  0  0
  -24.3036  -12.6360   22.0089 C   0  0  0  0  0  0  0  0  0  0  0  0
  -22.1233  -22.1246   19.4624 C   0  0  0  0  0  0  0  0  0  0  0  0
  -23.5740  -10.0712   19.9328 C   0  0  0  0  0  0  0  0  0  0  0  0
  -22.5239   -9.1537   19.9032 C   0  0  0  0  0  0  0  0  0  0  0  0
  -24.3157  -22.1483   18.4563 C   0  0  0  0  0  0  0  0  0  0  0  0
  -23.4005   -8.0864   21.8856 C   0  0  0  0  0  0  0  0  0  0  0  0
  -24.6116  -14.9299   21.3161 C   0  0  0  0  0  0  0  0  0  0  0  0
  -25.1421  -17.3822   21.7771 C   0  0  0  0  0  0  0  0  0  0  0  0
  -24.0700  -30.6509   21.7353 C   0  0  0  0  0  0  0  0  0  0  0  0
  -23.9090  -23.4214   20.4746 C   0  0  0  0  0  0  0  0  0  0  0  0
  -23.6660  -29.4824   21.0618 C   0  0  0  0  0  0  0  0  0  0  0  0
  -24.7885  -22.9979   19.4680 C   0  0  0  0  0  0  0  0  0  0  0  0
  -25.2621  -12.2272   21.0815 C   0  0  0  0  0  0  0  0  0  0  0  0
  -22.9899  -21.7155   18.4530 C   0  0  0  0  0  0  0  0  0  0  0  0
  -24.5375   -9.9964   20.9387 C   0  0  0  0  0  0  0  0  0  0  0  0
  -22.4371   -8.1613   20.8796 C   0  0  0  0  0  0  0  0  0  0  0  0
  -24.4507   -9.0040   21.9151 C   0  0  0  0  0  0  0  0  0  0  0  0
  -24.2756  -16.3257   21.4381 C   0  0  0  0  0  0  0  0  0  0  0  0
  -24.3443  -18.5001   21.7583 C   0  0  0  0  0  0  0  0  0  0  0  0
  -26.5429  -17.3555   22.0816 C   0  0  0  0  0  0  0  0  0  0  0  0
  -25.3123  -26.2672   20.2842 C   0  0  0  0  0  0  0  0  0  0  0  0
  -28.0024  -24.5447   20.8489 C   0  0  0  0  0  0  0  0  0  0  0  0
  -29.5972  -21.5311   20.7020 C   0  0  0  0  0  0  0  0  0  0  0  0
  -19.2453  -19.8230   18.9120 C   0  0  0  0  0  0  0  0  0  0  0  0
  -25.4716  -31.1938   21.6111 C   0  0  0  0  0  0  0  0  0  0  0  0
  -24.3944  -24.3123   21.5850 C   0  0  0  0  0  0  0  0  0  0  0  0
  -26.2289  -23.4372   19.4370 C   0  0  0  0  0  0  0  0  0  0  0  0
  -26.4766  -30.1712   21.0870 C   0  0  0  0  0  0  0  0  0  0  0  0
  -19.8112  -19.8768   22.4267 C   0  0  0  0  0  0  0  0  0  0  0  0
  -25.9099  -29.4385   19.8750 C   0  0  0  0  0  0  0  0  0  0  0  0
  -21.0977  -19.0681   22.6025 C   0  0  0  0  0  0  0  0  0  0  0  0
  -18.9337  -19.3065   21.3146 C   0  0  0  0  0  0  0  0  0  0  0  0
  -20.8980  -18.3301   20.1912 C   0  0  0  0  0  0  0  0  0  0  0  0
  -24.6398  -28.6624   20.2437 C   0  0  1  0  0  0  0  0  0  0  0  0
  -25.6298  -25.1225   21.2043 C   0  0  1  0  0  0  0  0  0  0  0  0
  -21.8417  -18.9001   21.2640 C   0  0  2  0  0  0  0  0  0  0  0  0
  -31.4129  -19.8374   21.0656 C   0  0  0  0  0  0  0  0  0  0  0  0
  -18.7429  -19.3524   15.7420 C   0  0  0  0  0  0  0  0  0  0  0  0
  -29.1949  -25.8218   18.3474 C   0  0  0  0  0  0  0  0  0  0  0  0
  -30.9531  -24.0395   18.3603 C   0  0  0  0  0  0  0  0  0  0  0  0
  -30.7763  -25.6285   20.2751 C   0  0  0  0  0  0  0  0  0  0  0  0
  -23.1529  -21.7219   15.3120 C   0  0  0  0  0  0  0  0  0  0  0  0
  -21.4002  -22.8563   16.6996 C   0  0  0  0  0  0  0  0  0  0  0  0
  -28.5103  -20.7620   23.3452 C   0  0  0  0  0  0  0  0  0  0  0  0
  -20.9563  -20.5556   15.6694 C   0  0  0  0  0  0  0  0  0  0  0  0
  -29.0180  -23.8348   19.9866 C   0  0  1  0  0  0  0  0  0  0  0  0
  -30.4167  -20.7740   21.7314 C   0  0  2  0  0  0  0  0  0  0  0  0
  -19.7001  -20.2607   16.5118 C   0  0  2  0  0  0  0  0  0  0  0  0
  -29.9580  -24.8242   19.2416 C   0  0  0  0  0  0  0  0  0  0  0  0
  -22.0004  -21.5066   16.3005 C   0  0  0  0  0  0  0  0  0  1  0  0
  -23.0233  -16.7357   21.2201 N   0  0  0  0  0  0  0  0  0  0  0  0
  -23.0970  -18.0622   21.4227 N   0  0  0  0  0  0  0  0  0  0  0  0
  -26.6542  -24.3132   20.5412 N   0  0  0  0  0  0  0  0  0  0  0  0
  -19.6985  -19.1739   20.0723 N   0  0  0  0  0  0  0  0  0  0  0  0
  -24.5950  -19.8050   21.9964 N   0  0  0  0  0  0  0  0  0  0  0  0
  -26.9333  -17.1757   23.4156 N   0  0  0  0  0  0  0  0  0  0  0  0
  -24.9790  -27.4383   20.9374 N   0  0  0  0  0  0  0  0  0  0  0  0
  -29.7115  -22.8959   20.8617 N   0  0  0  0  0  0  0  0  0  0  0  0
  -20.0323  -19.6505   17.7799 N   0  0  0  0  0  0  0  0  0  0  0  0
  -29.5253  -19.9646   22.6097 N   0  3  0  0  0  0  0  0  0  0  0  0
  -27.4221  -17.5035   21.1993 O   0  0  0  0  0  0  0  0  0  0  0  0
  -25.3671  -26.1006   19.0713 O   0  0  0  0  0  0  0  0  0  0  0  0
  -28.3909  -25.2721   21.7663 O   0  0  0  0  0  0  0  0  0  0  0  0
  -28.9260  -20.9682   19.8400 O   0  0  0  0  0  0  0  0  0  0  0  0
  -18.2185  -20.5100   18.8881 O   0  0  0  0  0  0  0  0  0  0  0  0
  -25.5790  -10.9085   20.9672 O   0  0  0  0  0  0  0  0  0  0  0  0
  -22.5454  -20.8903   17.4664 O   0  0  0  0  0  0  0  0  0  1  0  0
  -21.4277   -7.2812   20.8520 F   0  0  0  0  0  0  0  0  0  0  0  0
  -25.3726   -8.9278   22.8847 F   0  0  0  0  0  0  0  0  0  0  0  0
  1  2  1  0  0  0  0
  1  5  2  0  0  0  0
  2  6  2  0  0  0  0
  3  8  2  0  0  0  0
  3 15  1  0  0  0  0
  4  9  1  0  0  0  0
  4 15  2  0  0  0  0
  5 17  1  0  0  0  0
  6 19  1  0  0  0  0
  7 10  2  0  0  0  0
  7 18  1  0  0  0  0
  8 21  1  0  0  0  0
  9 21  2  0  0  0  0
 10 22  1  0  0  0  0
 11 12  2  0  0  0  0
 11 23  1  0  0  0  0
 12 24  1  0  0  0  0
 13 20  1  0  0  0  0
 13 22  2  0  0  0  0
 14 24  2  0  0  0  0
 14 25  1  0  0  0  0
 15 26  1  0  0  0  0
 16 26  1  0  0  0  0
 16 27  2  0  0  0  0
 16 28  1  0  0  0  0
 17 19  2  0  0  0  0
 17 33  1  0  0  0  0
 18 20  2  0  0  0  0
 18 34  1  0  0  0  0
 19 42  1  0  0  0  0
 20 35  1  0  0  0  0
 21 74  1  0  0  0  0
 22 75  1  0  0  0  0
 23 25  2  0  0  0  0
 23 74  1  0  0  0  0
 24 76  1  0  0  0  0
 25 77  1  0  0  0  0
 26 59  2  0  0  0  0
 27 60  1  0  0  0  0
 27 63  1  0  0  0  0
 28 64  1  0  0  0  0
 28 69  2  0  0  0  0
 29 43  1  0  0  0  0
 29 65  1  0  0  0  0
 29 70  2  0  0  0  0
 30 54  1  0  0  0  0
 30 61  1  0  0  0  0
 30 71  2  0  0  0  0
 31 55  1  0  0  0  0
 31 66  1  0  0  0  0
 31 72  2  0  0  0  0
 32 62  1  0  0  0  0
 32 67  1  0  0  0  0
 32 73  2  0  0  0  0
 33 36  1  0  0  0  0
 34 43  1  0  0  0  0
 35 61  1  0  0  0  0
 36 38  1  0  0  0  0
 37 39  1  0  0  0  0
 37 40  1  0  0  0  0
 38 42  1  0  0  0  0
 39 44  1  0  0  0  0
 40 62  1  0  0  0  0
 41 44  1  0  0  0  0
 41 62  1  0  0  0  0
 42 65  1  0  0  0  0
 43 61  1  0  0  0  0
 44 60  1  0  0  0  0
 45 55  1  0  0  0  0
 46 56  1  0  0  0  0
 47 57  1  0  0  0  0
 48 57  1  0  0  0  0
 49 57  1  0  0  0  0
 50 58  1  0  0  0  0
 51 58  1  0  0  0  0
 52 68  1  0  0  0  0
 53 56  1  0  0  0  0
 53 58  1  0  0  0  0
 54 57  1  0  0  0  0
 54 66  1  0  0  0  0
 55 68  1  0  0  0  0
 56 67  1  0  0  0  0
 58 75  1  0  0  0  0
 59 60  1  0  0  0  0
M  CHG  1  68   1
M  ISO  4  32 100  58 101  67 100  75 101
M  END
> <Batch ID>
0114

> <Smiles>
CNC(C)C(=O)NC(C(=O)N1Cc2cc([101O:1][101C:1](C)(C)CC(C)[100NH:0][100C:0](=O)N3CCCC(n4nc(-c5ccc(Oc6ccc(F)cc6F)cc5)c(C(N)=O)c4N)C3)ccc2CC1C(=O)NC1CCCc2ccccc21)C(C)(C)C

> <Shape>
0.192

> <Color>
0.060

> <Negative vol penalty>
0.000

$$$$

  -OEChem-04052320083D

 82 90  0     1  0  0  0  0  0999 V2000
  -26.7309  -18.9216   25.2920 C   0  0  0  0  0  0  0  0  0  0  0  0
  -26.6008  -19.4778   24.0235 C   0  0  0  0  0  0  0  0  0  0  0  0
  -26.6775  -12.8133   21.7170 C   0  0  0  0  0  0  0  0  0  0  0  0
  -26.1784  -14.0976   19.7324 C   0  0  0  0  0  0  0  0  0  0  0  0
  -25.7638  -19.1726   26.2645 C   0  0  0  0  0  0  0  0  0  0  0  0
  -25.5029  -20.2844   23.7263 C   0  0  0  0  0  0  0  0  0  0  0  0
  -26.8015  -24.4844   21.2126 C   0  0  0  0  0  0  0  0  0  0  0  0
  -25.3678  -12.3338   21.7360 C   0  0  0  0  0  0  0  0  0  0  0  0
  -24.8687  -13.6180   19.7514 C   0  0  0  0  0  0  0  0  0  0  0  0
  -27.0659  -24.3547   19.8499 C   0  0  0  0  0  0  0  0  0  0  0  0
  -23.5532   -9.9799   20.1237 C   0  0  0  0  0  0  0  0  0  0  0  0
  -23.3653   -8.6165   20.3499 C   0  0  0  0  0  0  0  0  0  0  0  0
  -24.8562  -25.1822   19.3486 C   0  0  0  0  0  0  0  0  0  0  0  0
  -31.0181  -22.7451   19.8516 C   0  0  0  0  0  0  0  0  0  0  0  0
  -22.0681   -9.1228   22.3243 C   0  0  0  0  0  0  0  0  0  0  0  0
  -29.8448  -21.5648   18.3349 C   0  0  0  0  0  0  0  0  0  0  0  0
  -27.0828  -13.6953   20.7151 C   0  0  0  0  0  0  0  0  0  0  0  0
  -29.5426  -13.6155   20.0439 C   0  0  0  0  0  0  0  0  0  0  0  0
  -24.6585  -19.9906   25.9820 C   0  0  0  0  0  0  0  0  0  0  0  0
  -25.5564  -24.9544   21.6545 C   0  0  0  0  0  0  0  0  0  0  0  0
  -24.5194  -20.5455   24.6955 C   0  0  0  0  0  0  0  0  0  0  0  0
  -24.5794  -25.3193   20.7174 C   0  0  0  0  0  0  0  0  0  0  0  0
  -30.3949  -21.4987   19.5960 C   0  0  0  0  0  0  0  0  0  0  0  0
  -24.4634  -12.7361   20.7533 C   0  0  0  0  0  0  0  0  0  0  0  0
  -26.0922  -24.7009   18.9177 C   0  0  0  0  0  0  0  0  0  0  0  0
  -22.9986  -10.9149   20.9978 C   0  0  0  0  0  0  0  0  0  0  0  0
  -22.6228   -8.1879   21.4502 C   0  0  0  0  0  0  0  0  0  0  0  0
  -22.2561  -10.4863   22.0981 C   0  0  0  0  0  0  0  0  0  0  0  0
  -28.4354  -14.1914   20.6952 C   0  0  0  0  0  0  0  0  0  0  0  0
  -30.8297  -23.5350   18.7389 C   0  0  0  0  0  0  0  0  0  0  0  0
  -30.5865  -14.4618   20.3280 C   0  0  0  0  0  0  0  0  0  0  0  0
  -29.6205  -12.4223   19.2527 C   0  0  0  0  0  0  0  0  0  0  0  0
  -23.1969  -23.7468   23.4089 C   0  0  0  0  0  0  0  0  0  0  0  0
  -21.9868  -26.7445   23.1414 C   0  0  0  0  0  0  0  0  0  0  0  0
  -21.8632  -29.6738   21.3947 C   0  0  0  0  0  0  0  0  0  0  0  0
  -30.8723  -20.2614   21.7378 C   0  0  0  0  0  0  0  0  0  0  0  0
  -23.6145  -20.1947   27.0512 C   0  0  0  0  0  0  0  0  0  0  0  0
  -25.2964  -25.1137   23.1274 C   0  0  0  0  0  0  0  0  0  0  0  0
  -23.2338  -25.8481   21.1397 C   0  0  0  0  0  0  0  0  0  0  0  0
  -22.6753  -21.3648   26.7698 C   0  0  0  0  0  0  0  0  0  0  0  0
  -32.1115  -17.5374   23.6670 C   0  0  0  0  0  0  0  0  0  0  0  0
  -22.1855  -21.3210   25.3259 C   0  0  0  0  0  0  0  0  0  0  0  0
  -31.4148  -16.3172   23.0606 C   0  0  0  0  0  0  0  0  0  0  0  0
  -31.1954  -18.7597   23.6912 C   0  0  0  0  0  0  0  0  0  0  0  0
  -29.8902  -17.8848   21.7937 C   0  0  0  0  0  0  0  0  0  0  0  0
  -23.3555  -21.4459   24.3425 C   0  0  1  0  0  0  0  0  0  0  0  0
  -23.8110  -25.1165   23.4751 C   0  0  1  0  0  0  0  0  0  0  0  0
  -30.7949  -16.6462   21.6884 C   0  0  2  0  0  0  0  0  0  0  0  0
  -31.2714  -24.9195   18.4739 C   0  0  0  0  0  0  0  0  0  0  0  0
  -20.7553  -31.9255   21.4004 C   0  0  0  0  0  0  0  0  0  0  0  0
  -26.5085  -22.5629   16.2973 C   0  0  0  0  0  0  0  0  0  0  0  0
  -19.4123  -25.4778   22.1035 C   0  0  0  0  0  0  0  0  0  0  0  0
  -18.7300  -27.7306   21.2504 C   0  0  0  0  0  0  0  0  0  0  0  0
  -19.0727  -27.3762   23.6957 C   0  0  0  0  0  0  0  0  0  0  0  0
  -24.4561  -31.0777   21.6490 C   0  0  0  0  0  0  0  0  0  0  0  0
  -29.6824  -23.2829   16.4559 C   0  0  0  0  0  0  0  0  0  0  0  0
  -21.0801  -27.4478   22.1604 C   0  0  1  0  0  0  0  0  0  0  0  0
  -21.9664  -31.1199   21.8446 C   0  0  2  0  0  0  0  0  0  0  0  0
  -27.2539  -23.5450   17.1943 C   0  0  1  0  0  0  0  0  0  1  0  0
  -28.4661  -24.2156   16.5276 C   0  0  2  0  0  0  0  0  0  0  0  0
  -19.5983  -26.9963   22.2943 C   0  0  0  0  0  0  0  0  0  0  0  0
  -28.7468  -15.3164   21.3443 N   0  0  0  0  0  0  0  0  0  0  0  0
  -30.1150  -22.8073   17.8236 N   0  0  0  0  0  0  0  0  0  0  0  0
  -30.0616  -15.4542   21.1024 N   0  0  0  0  0  0  0  0  0  0  0  0
  -23.0252  -25.9799   22.5911 N   0  0  0  0  0  0  0  0  0  0  0  0
  -30.6485  -19.0132   22.3565 N   0  0  0  0  0  0  0  0  0  0  0  0
  -31.8930  -14.4463   19.9886 N   0  0  0  0  0  0  0  0  0  0  0  0
  -28.4534  -11.6706   19.0607 N   0  0  0  0  0  0  0  0  0  0  0  0
  -30.3325  -20.3752   20.4571 N   0  0  0  0  0  0  0  0  0  0  0  0
  -23.7909  -22.8228   24.2472 N   0  0  0  0  0  0  0  0  0  0  0  0
  -21.2898  -28.8773   22.3632 N   0  0  0  0  0  0  0  0  0  0  0  0
  -23.1880  -31.7542   21.2733 N   0  3  0  0  0  0  0  0  0  0  0  0
  -30.6968  -12.0255   18.7451 O   0  0  0  0  0  0  0  0  0  0  0  0
  -22.2530  -23.5437   22.6542 O   0  0  0  0  0  0  0  0  0  0  0  0
  -21.7855  -26.8747   24.3514 O   0  0  0  0  0  0  0  0  0  0  0  0
  -22.2489  -29.2899   20.2927 O   0  0  0  0  0  0  0  0  0  0  0  0
  -31.5203  -21.1532   22.2916 O   0  0  0  0  0  0  0  0  0  0  0  0
  -28.1235  -24.6152   15.1987 O   0  0  0  0  0  0  0  0  0  0  0  0
  -23.1854  -12.2682   20.7714 O   0  0  0  0  0  0  0  0  0  0  0  0
  -26.3474  -24.5747   17.5870 O   0  0  0  0  0  0  0  0  0  1  0  0
  -22.4411   -6.8785   21.6664 F   0  0  0  0  0  0  0  0  0  0  0  0
  -21.7198  -11.3798   22.9406 F   0  0  0  0  0  0  0  0  0  0  0  0
  1  2  1  0  0  0  0
  1  5  2  0  0  0  0
  2  6  2  0  0  0  0
  3  8  2  0  0  0  0
  3 17  1  0  0  0  0
  4  9  1  0  0  0  0
  4 17  2  0  0  0  0
  5 19  1  0  0  0  0
  6 21  1  0  0  0  0
  7 10  2  0  0  0  0
  7 20  1  0  0  0  0
  8 24  1  0  0  0  0
  9 24  2  0  0  0  0
 10 25  1  0  0  0  0
 11 12  2  0  0  0  0
 11 26  1  0  0  0  0
 12 27  1  0  0  0  0
 13 22  1  0  0  0  0
 13 25  2  0  0  0  0
 14 23  1  0  0  0  0
 14 30  2  0  0  0  0
 15 27  2  0  0  0  0
 15 28  1  0  0  0  0
 16 23  2  0  0  0  0
 16 63  1  0  0  0  0
 17 29  1  0  0  0  0
 18 29  1  0  0  0  0
 18 31  2  0  0  0  0
 18 32  1  0  0  0  0
 19 21  2  0  0  0  0
 19 37  1  0  0  0  0
 20 22  2  0  0  0  0
 20 38  1  0  0  0  0
 21 46  1  0  0  0  0
 22 39  1  0  0  0  0
 23 69  1  0  0  0  0
 24 79  1  0  0  0  0
 25 80  1  0  0  0  0
 26 28  2  0  0  0  0
 26 79  1  0  0  0  0
 27 81  1  0  0  0  0
 28 82  1  0  0  0  0
 29 62  2  0  0  0  0
 30 49  1  0  0  0  0
 30 63  1  0  0  0  0
 31 64  1  0  0  0  0
 31 67  1  0  0  0  0
 32 68  1  0  0  0  0
 32 73  2  0  0  0  0
 33 47  1  0  0  0  0
 33 70  1  0  0  0  0
 33 74  2  0  0  0  0
 34 57  1  0  0  0  0
 34 65  1  0  0  0  0
 34 75  2  0  0  0  0
 35 58  1  0  0  0  0
 35 71  1  0  0  0  0
 35 76  2  0  0  0  0
 36 66  1  0  0  0  0
 36 69  1  0  0  0  0
 36 77  2  0  0  0  0
 37 40  1  0  0  0  0
 38 47  1  0  0  0  0
 39 65  1  0  0  0  0
 40 42  1  0  0  0  0
 41 43  1  0  0  0  0
 41 44  1  0  0  0  0
 42 46  1  0  0  0  0
 43 48  1  0  0  0  0
 44 66  1  0  0  0  0
 45 48  1  0  0  0  0
 45 66  1  0  0  0  0
 46 70  1  0  0  0  0
 47 65  1  0  0  0  0
 48 64  1  0  0  0  0
 50 58  1  0  0  0  0
 51 59  1  0  0  0  0
 52 61  1  0  0  0  0
 53 61  1  0  0  0  0
 54 61  1  0  0  0  0
 55 72  1  0  0  0  0
 56 60  1  0  0  0  0
 56 63  1  0  0  0  0
 57 61  1  0  0  0  0
 57 71  1  0  0  0  0
 58 72  1  0  0  0  0
 59 60  1  0  0  0  0
 59 80  1  0  0  0  0
 60 78  1  0  0  0  0
 62 64  1  0  0  0  0
M  CHG  1  72   1
M  ISO  4  36 100  59 101  69 100  80 101
M  END
> <Batch ID>
0114

> <Smiles>
CNC(C)C(=O)NC(C(=O)N1Cc2cc([101O:1][101CH:1](C)C(O)Cn3cc([100NH:0][100C:0](=O)N4CCCC(n5nc(-c6ccc(Oc7ccc(F)cc7F)cc6)c(C(N)=O)c5N)C4)cc3C)ccc2CC1C(=O)NC1CCCc2ccccc21)C(C)(C)C

> <Shape>
0.246

> <Color>
0.058

> <Negative vol penalty>
0.000

$$$$

  -OEChem-04052320083D

 87 95  0     1  0  0  0  0  0999 V2000
  -32.2482  -24.1289   14.8637 C   0  0  0  0  0  0  0  0  0  0  0  0
  -32.7574  -23.4375   15.9582 C   0  0  0  0  0  0  0  0  0  0  0  0
  -23.1912   -9.8213   19.9196 C   0  0  0  0  0  0  0  0  0  0  0  0
  -23.5683   -9.9907   22.2999 C   0  0  0  0  0  0  0  0  0  0  0  0
  -31.1626  -24.9884   15.0271 C   0  0  0  0  0  0  0  0  0  0  0  0
  -32.1819  -23.6061   17.2171 C   0  0  0  0  0  0  0  0  0  0  0  0
  -31.5852  -19.3608   21.5906 C   0  0  0  0  0  0  0  0  0  0  0  0
  -22.4250   -8.6736   20.1225 C   0  0  0  0  0  0  0  0  0  0  0  0
  -22.8019   -8.8430   22.5030 C   0  0  0  0  0  0  0  0  0  0  0  0
  -32.3344  -19.0781   22.7319 C   0  0  0  0  0  0  0  0  0  0  0  0
  -23.2035   -5.4976   22.2235 C   0  0  0  0  0  0  0  0  0  0  0  0
  -23.7015   -4.5322   23.0985 C   0  0  0  0  0  0  0  0  0  0  0  0
  -30.8053  -20.3942   24.0544 C   0  0  0  0  0  0  0  0  0  0  0  0
  -29.7106  -18.4181   27.0108 C   0  0  0  0  0  0  0  0  0  0  0  0
  -31.0709  -17.0582   25.5490 C   0  0  0  0  0  0  0  0  0  0  0  0
  -21.7442   -4.7856   24.4920 C   0  0  0  0  0  0  0  0  0  0  0  0
  -23.7629  -10.4798   21.0083 C   0  0  0  0  0  0  0  0  0  0  0  0
  -24.1015  -12.9976   20.7764 C   0  0  0  0  0  0  0  0  0  0  0  0
  -30.5675  -25.1603   16.2868 C   0  0  0  0  0  0  0  0  0  0  0  0
  -30.4446  -20.1726   21.6710 C   0  0  0  0  0  0  0  0  0  0  0  0
  -31.0882  -24.4697   17.3978 C   0  0  0  0  0  0  0  0  0  0  0  0
  -30.0419  -20.6835   22.9131 C   0  0  0  0  0  0  0  0  0  0  0  0
  -30.8902  -18.2247   26.2921 C   0  0  0  0  0  0  0  0  0  0  0  0
  -28.7116  -17.4448   26.9866 C   0  0  0  0  0  0  0  0  0  0  0  0
  -28.8923  -16.2782   26.2435 C   0  0  0  0  0  0  0  0  0  0  0  0
  -30.0720  -16.0849   25.5247 C   0  0  0  0  0  0  0  0  0  0  0  0
  -22.2303   -8.1845   21.4142 C   0  0  0  0  0  0  0  0  0  0  0  0
  -31.9462  -19.5972   23.9635 C   0  0  0  0  0  0  0  0  0  0  0  0
  -21.9759   -6.1070   22.4828 C   0  0  0  0  0  0  0  0  0  0  0  0
  -22.9719   -4.1762   24.2328 C   0  0  0  0  0  0  0  0  0  0  0  0
  -21.2462   -5.7510   23.6170 C   0  0  0  0  0  0  0  0  0  0  0  0
  -24.5551  -11.6651   20.7992 C   0  0  0  0  0  0  0  0  0  0  0  0
  -25.2327  -13.7415   20.5451 C   0  0  0  0  0  0  0  0  0  0  0  0
  -22.7761  -13.5166   20.9489 C   0  0  0  0  0  0  0  0  0  0  0  0
  -29.5876  -22.9669   20.4215 C   0  0  0  0  0  0  0  0  0  0  0  0
  -26.7420  -22.2766   21.8171 C   0  0  0  0  0  0  0  0  0  0  0  0
  -25.0390  -20.5790   24.2389 C   0  0  0  0  0  0  0  0  0  0  0  0
  -31.0471  -12.7473   21.5728 C   0  0  0  0  0  0  0  0  0  0  0  0
  -29.4258  -26.1363   16.4232 C   0  0  0  0  0  0  0  0  0  0  0  0
  -29.6321  -20.4462   20.4351 C   0  0  0  0  0  0  0  0  0  0  0  0
  -28.8139  -21.5437   23.0563 C   0  0  0  0  0  0  0  0  0  0  0  0
  -28.6363  -25.9728   17.7194 C   0  0  0  0  0  0  0  0  0  0  0  0
  -29.5213  -13.4791   18.4403 C   0  0  0  0  0  0  0  0  0  0  0  0
  -29.5829  -25.8468   18.9089 C   0  0  0  0  0  0  0  0  0  0  0  0
  -28.0346  -13.2174   18.6875 C   0  0  0  0  0  0  0  0  0  0  0  0
  -30.4023  -12.4863   19.1953 C   0  0  0  0  0  0  0  0  0  0  0  0
  -28.6479  -12.1355   20.8902 C   0  0  0  0  0  0  0  0  0  0  0  0
  -30.4755  -24.6072   18.7747 C   0  0  1  0  0  0  0  0  0  0  0  0
  -28.7796  -21.7064   20.5474 C   0  0  1  0  0  0  0  0  0  0  0  0
  -27.7207  -13.1464   20.1941 C   0  0  2  0  0  0  0  0  0  0  0  0
  -27.4581  -17.6764   27.7652 C   0  0  0  0  0  0  0  0  0  0  0  0
  -32.9802  -19.0383   27.4379 C   0  0  0  0  0  0  0  0  0  0  0  0
  -23.0665  -19.7111   25.5247 C   0  0  0  0  0  0  0  0  0  0  0  0
  -26.4883  -15.8144   25.6506 C   0  0  0  0  0  0  0  0  0  0  0  0
  -27.5265  -14.7005   27.6550 C   0  0  0  0  0  0  0  0  0  0  0  0
  -28.1333  -13.9734   25.3562 C   0  0  0  0  0  0  0  0  0  0  0  0
  -26.8916  -25.0021   23.1807 C   0  0  0  0  0  0  0  0  0  0  0  0
  -25.1113  -24.2305   24.7629 C   0  0  0  0  0  0  0  0  0  0  0  0
  -24.6245  -24.3885   22.3215 C   0  0  0  0  0  0  0  0  0  0  0  0
  -24.7907  -18.2089   22.4840 C   0  0  0  0  0  0  0  0  0  0  0  0
  -31.5684  -14.4634   24.3598 C   0  0  0  0  0  0  0  0  0  0  0  0
  -31.5359  -12.9873   23.9941 C   0  0  0  0  0  0  0  0  0  0  0  0
  -31.9734  -19.2786   26.3202 C   0  0  1  0  0  0  0  0  0  1  0  0
  -26.1232  -22.5372   23.1692 C   0  0  1  0  0  0  0  0  0  0  0  0
  -23.7776  -19.7364   24.1807 C   0  0  2  0  0  0  0  0  0  0  0  0
  -27.8184  -15.2363   26.2210 C   0  0  0  0  0  0  0  0  0  0  0  0
  -25.7119  -24.0250   23.3559 C   0  0  0  0  0  0  0  0  0  0  0  0
  -25.8718  -11.5651   20.5982 N   0  0  0  0  0  0  0  0  0  0  0  0
  -26.2552  -12.8442   20.4469 N   0  0  0  0  0  0  0  0  0  0  0  0
  -28.0562  -21.7880   21.8179 N   0  0  0  0  0  0  0  0  0  0  0  0
  -30.0550  -12.4685   20.6183 N   0  0  0  0  0  0  0  0  0  0  0  0
  -25.4426  -15.0690   20.4182 N   0  0  0  0  0  0  0  0  0  0  0  0
  -21.7295  -12.6132   21.1782 N   0  0  0  0  0  0  0  0  0  0  0  0
  -30.2733  -14.9111   24.7655 N   0  0  0  0  0  0  0  0  0  0  0  0
  -29.7365  -23.4123   19.1219 N   0  0  0  0  0  0  0  0  0  0  0  0
  -25.0206  -21.5912   23.3028 N   0  0  0  0  0  0  0  0  0  0  0  0
  -30.6322  -12.7158   22.8986 N   0  0  0  0  0  0  0  0  0  0  0  0
  -24.1082  -18.3347   23.7975 N   0  3  0  0  0  0  0  0  0  0  0  0
  -22.5248  -14.7439   20.8848 O   0  0  0  0  0  0  0  0  0  0  0  0
  -30.0411  -23.4970   21.4290 O   0  0  0  0  0  0  0  0  0  0  0  0
  -26.0810  -22.4915   20.7980 O   0  0  0  0  0  0  0  0  0  0  0  0
  -25.9479  -20.3632   25.0375 O   0  0  0  0  0  0  0  0  0  0  0  0
  -32.2148  -13.0105   21.2660 O   0  0  0  0  0  0  0  0  0  0  0  0
  -21.4824   -7.0647   21.6127 O   0  0  0  0  0  0  0  0  0  0  0  0
  -32.6761  -19.3233   25.0790 O   0  0  0  0  0  0  0  0  0  1  0  0
  -23.4495   -3.2480   25.0721 F   0  0  0  0  0  0  0  0  0  0  0  0
  -20.0656   -6.3321   23.8707 F   0  0  0  0  0  0  0  0  0  0  0  0
  1  2  1  0  0  0  0
  1  5  2  0  0  0  0
  2  6  2  0  0  0  0
  3  8  2  0  0  0  0
  3 17  1  0  0  0  0
  4  9  1  0  0  0  0
  4 17  2  0  0  0  0
  5 19  1  0  0  0  0
  6 21  1  0  0  0  0
  7 10  2  0  0  0  0
  7 20  1  0  0  0  0
  8 27  1  0  0  0  0
  9 27  2  0  0  0  0
 10 28  1  0  0  0  0
 11 12  2  0  0  0  0
 11 29  1  0  0  0  0
 12 30  1  0  0  0  0
 13 22  1  0  0  0  0
 13 28  2  0  0  0  0
 14 23  1  0  0  0  0
 14 24  2  0  0  0  0
 15 23  2  0  0  0  0
 15 26  1  0  0  0  0
 16 30  2  0  0  0  0
 16 31  1  0  0  0  0
 17 32  1  0  0  0  0
 18 32  1  0  0  0  0
 18 33  2  0  0  0  0
 18 34  1  0  0  0  0
 19 21  2  0  0  0  0
 19 39  1  0  0  0  0
 20 22  2  0  0  0  0
 20 40  1  0  0  0  0
 21 48  1  0  0  0  0
 22 41  1  0  0  0  0
 23 63  1  0  0  0  0
 24 25  1  0  0  0  0
 24 51  1  0  0  0  0
 25 26  2  0  0  0  0
 25 66  1  0  0  0  0
 26 74  1  0  0  0  0
 27 84  1  0  0  0  0
 28 85  1  0  0  0  0
 29 31  2  0  0  0  0
 29 84  1  0  0  0  0
 30 86  1  0  0  0  0
 31 87  1  0  0  0  0
 32 68  2  0  0  0  0
 33 69  1  0  0  0  0
 33 72  1  0  0  0  0
 34 73  1  0  0  0  0
 34 79  2  0  0  0  0
 35 49  1  0  0  0  0
 35 75  1  0  0  0  0
 35 80  2  0  0  0  0
 36 64  1  0  0  0  0
 36 70  1  0  0  0  0
 36 81  2  0  0  0  0
 37 65  1  0  0  0  0
 37 76  1  0  0  0  0
 37 82  2  0  0  0  0
 38 71  1  0  0  0  0
 38 77  1  0  0  0  0
 38 83  2  0  0  0  0
 39 42  1  0  0  0  0
 40 49  1  0  0  0  0
 41 70  1  0  0  0  0
 42 44  1  0  0  0  0
 43 45  1  0  0  0  0
 43 46  1  0  0  0  0
 44 48  1  0  0  0  0
 45 50  1  0  0  0  0
 46 71  1  0  0  0  0
 47 50  1  0  0  0  0
 47 71  1  0  0  0  0
 48 75  1  0  0  0  0
 49 70  1  0  0  0  0
 50 69  1  0  0  0  0
 52 63  1  0  0  0  0
 53 65  1  0  0  0  0
 54 66  1  0  0  0  0
 55 66  1  0  0  0  0
 56 66  1  0  0  0  0
 57 67  1  0  0  0  0
 58 67  1  0  0  0  0
 59 67  1  0  0  0  0
 60 78  1  0  0  0  0
 61 62  1  0  0  0  0
 61 74  1  0  0  0  0
 62 77  1  0  0  0  0
 63 85  1  0  0  0  0
 64 67  1  0  0  0  0
 64 76  1  0  0  0  0
 65 78  1  0  0  0  0
 68 69  1  0  0  0  0
M  CHG  1  78   1
M  ISO  4  38 100  63 101  77 100  85 101
M  END
> <Batch ID>
0114

> <Smiles>
CNC(C)C(=O)NC(C(=O)N1Cc2cc([101O:1][101CH:1](C)c3cc(C)c(C(C)(C)C)c(NCC[100NH:0][100C:0](=O)N4CCCC(n5nc(-c6ccc(Oc7ccc(F)cc7F)cc6)c(C(N)=O)c5N)C4)c3)ccc2CC1C(=O)NC1CCCc2ccccc21)C(C)(C)C

> <Shape>
0.209

> <Color>
0.182

> <Negative vol penalty>
0.000

$$$$

  -OEChem-04052320083D

 82 90  0     1  0  0  0  0  0999 V2000
  -18.4837  -33.1525   20.5466 C   0  0  0  0  0  0  0  0  0  0  0  0
  -19.7926  -32.8970   20.1504 C   0  0  0  0  0  0  0  0  0  0  0  0
  -26.7588  -12.3227   21.7491 C   0  0  0  0  0  0  0  0  0  0  0  0
  -26.1314  -13.8493   19.9848 C   0  0  0  0  0  0  0  0  0  0  0  0
  -29.5693  -22.5307   18.7015 C   0  0  0  0  0  0  0  0  0  0  0  0
  -18.0139  -32.6528   21.7605 C   0  0  0  0  0  0  0  0  0  0  0  0
  -20.6328  -32.1425   20.9684 C   0  0  0  0  0  0  0  0  0  0  0  0
  -24.9925  -28.2380   19.1647 C   0  0  0  0  0  0  0  0  0  0  0  0
  -25.4601  -11.8141   21.7709 C   0  0  0  0  0  0  0  0  0  0  0  0
  -24.8328  -13.3407   20.0065 C   0  0  0  0  0  0  0  0  0  0  0  0
  -26.3747  -28.3691   19.0370 C   0  0  0  0  0  0  0  0  0  0  0  0
  -23.5995   -9.6555   19.9511 C   0  0  0  0  0  0  0  0  0  0  0  0
  -23.4467   -8.2699   20.0004 C   0  0  0  0  0  0  0  0  0  0  0  0
  -29.5555  -21.3359   19.4124 C   0  0  0  0  0  0  0  0  0  0  0  0
  -26.6630  -27.3960   21.2254 C   0  0  0  0  0  0  0  0  0  0  0  0
  -22.2507   -8.4761   22.0895 C   0  0  0  0  0  0  0  0  0  0  0  0
  -30.9036  -23.4810   20.4257 C   0  0  0  0  0  0  0  0  0  0  0  0
  -27.0944  -13.3403   20.8561 C   0  0  0  0  0  0  0  0  0  0  0  0
  -30.2539  -23.6285   19.2108 C   0  0  0  0  0  0  0  0  0  0  0  0
  -29.5151  -13.4095   20.0540 C   0  0  0  0  0  0  0  0  0  0  0  0
  -18.8458  -31.8836   22.5893 C   0  0  0  0  0  0  0  0  0  0  0  0
  -24.4338  -27.6941   20.3302 C   0  0  0  0  0  0  0  0  0  0  0  0
  -20.1741  -31.6331   22.1952 C   0  0  0  0  0  0  0  0  0  0  0  0
  -25.2737  -27.2568   21.3644 C   0  0  0  0  0  0  0  0  0  0  0  0
  -24.4971  -12.3231   20.8996 C   0  0  0  0  0  0  0  0  0  0  0  0
  -27.2100  -27.9507   20.0687 C   0  0  0  0  0  0  0  0  0  0  0  0
  -23.0780  -10.4514   20.9711 C   0  0  0  0  0  0  0  0  0  0  0  0
  -22.7723   -7.6802   21.0695 C   0  0  0  0  0  0  0  0  0  0  0  0
  -22.4035   -9.8617   22.0402 C   0  0  0  0  0  0  0  0  0  0  0  0
  -28.4356  -13.8665   20.8336 C   0  0  0  0  0  0  0  0  0  0  0  0
  -30.2367  -21.2909   20.6181 C   0  0  0  0  0  0  0  0  0  0  0  0
  -30.5587  -14.2344   20.3956 C   0  0  0  0  0  0  0  0  0  0  0  0
  -30.2887  -24.9194   18.4764 C   0  0  0  0  0  0  0  0  0  0  0  0
  -29.5695  -12.3353   19.1059 C   0  0  0  0  0  0  0  0  0  0  0  0
  -22.4729  -28.7675   22.5900 C   0  0  0  0  0  0  0  0  0  0  0  0
  -22.6107  -25.6954   23.6225 C   0  0  0  0  0  0  0  0  0  0  0  0
  -24.3230  -22.7449   23.7175 C   0  0  0  0  0  0  0  0  0  0  0  0
  -30.8253  -19.7977   22.5598 C   0  0  0  0  0  0  0  0  0  0  0  0
  -18.3078  -31.4047   23.9144 C   0  0  0  0  0  0  0  0  0  0  0  0
  -22.9423  -27.5349   20.4414 C   0  0  0  0  0  0  0  0  0  0  0  0
  -24.7247  -26.6475   22.6277 C   0  0  0  0  0  0  0  0  0  0  0  0
  -19.1470  -30.2984   24.5486 C   0  0  0  0  0  0  0  0  0  0  0  0
  -32.2124  -16.8697   24.0363 C   0  0  0  0  0  0  0  0  0  0  0  0
  -20.6292  -30.6544   24.4932 C   0  0  0  0  0  0  0  0  0  0  0  0
  -31.5040  -15.7256   23.3074 C   0  0  0  0  0  0  0  0  0  0  0  0
  -31.2789  -18.0557   24.2729 C   0  0  0  0  0  0  0  0  0  0  0  0
  -29.8870  -17.4125   22.3446 C   0  0  0  0  0  0  0  0  0  0  0  0
  -21.1083  -30.7980   23.0435 C   0  0  1  0  0  0  0  0  0  0  0  0
  -22.4573  -27.4408   21.8848 C   0  0  1  0  0  0  0  0  0  0  0  0
  -30.8049  -16.2210   22.0261 C   0  0  2  0  0  0  0  0  0  0  0  0
  -24.2021  -20.4270   24.6715 C   0  0  0  0  0  0  0  0  0  0  0  0
  -23.4100  -26.7827   26.3591 C   0  0  0  0  0  0  0  0  0  0  0  0
  -24.1839  -24.4814   26.9700 C   0  0  0  0  0  0  0  0  0  0  0  0
  -21.7831  -24.8844   26.4253 C   0  0  0  0  0  0  0  0  0  0  0  0
  -24.3048  -21.5131   21.0265 C   0  0  0  0  0  0  0  0  0  0  0  0
  -30.4879  -27.3832   18.6905 C   0  0  0  0  0  0  0  0  0  0  0  0
  -29.1027  -28.0017   18.6296 C   0  0  0  0  0  0  0  0  0  1  0  0
  -23.4989  -24.9245   24.5688 C   0  0  1  0  0  0  0  0  0  0  0  0
  -23.8772  -21.3135   23.4792 C   0  0  2  0  0  0  0  0  0  0  0  0
  -23.2295  -25.2815   26.0579 C   0  0  0  0  0  0  0  0  0  0  0  0
  -30.9127  -22.3364   21.1450 N   0  0  0  0  0  0  0  0  0  0  0  0
  -28.7633  -14.9013   21.6118 N   0  0  0  0  0  0  0  0  0  0  0  0
  -30.0605  -15.1014   21.3231 N   0  0  0  0  0  0  0  0  0  0  0  0
  -23.2595  -26.5189   22.6915 N   0  0  0  0  0  0  0  0  0  0  0  0
  -30.6560  -18.4729   23.0148 N   0  0  0  0  0  0  0  0  0  0  0  0
  -31.8449  -14.2954   19.9901 N   0  0  0  0  0  0  0  0  0  0  0  0
  -28.4061  -11.5887   18.8746 N   0  0  0  0  0  0  0  0  0  0  0  0
  -30.2147  -20.0694   21.3359 N   0  0  0  0  0  0  0  0  0  0  0  0
  -30.4582  -26.0590   19.2526 N   0  0  0  0  0  0  0  0  0  0  0  0
  -21.3071  -29.4951   22.4456 N   0  0  0  0  0  0  0  0  0  0  0  0
  -23.3092  -23.5138   24.2488 N   0  0  0  0  0  0  0  0  0  0  0  0
  -24.5568  -20.7525   22.2774 N   0  3  0  0  0  0  0  0  0  0  0  0
  -30.1493  -24.9194   17.2561 O   0  0  0  0  0  0  0  0  0  0  0  0
  -30.6230  -12.0357   18.4944 O   0  0  0  0  0  0  0  0  0  0  0  0
  -23.4684  -29.1053   23.2198 O   0  0  0  0  0  0  0  0  0  0  0  0
  -21.3865  -25.5662   23.7016 O   0  0  0  0  0  0  0  0  0  0  0  0
  -25.4581  -23.1404   23.4615 O   0  0  0  0  0  0  0  0  0  0  0  0
  -31.4876  -20.6223   23.1949 O   0  0  0  0  0  0  0  0  0  0  0  0
  -23.2299  -11.8269   20.9203 O   0  0  0  0  0  0  0  0  0  0  0  0
  -28.5594  -28.0781   19.9469 O   0  0  0  0  0  0  0  0  0  1  0  0
  -22.6242   -6.3498   21.1159 F   0  0  0  0  0  0  0  0  0  0  0  0
  -21.8993  -10.6213   23.0224 F   0  0  0  0  0  0  0  0  0  0  0  0
  1  2  1  0  0  0  0
  1  6  2  0  0  0  0
  2  7  2  0  0  0  0
  3  9  2  0  0  0  0
  3 18  1  0  0  0  0
  4 10  1  0  0  0  0
  4 18  2  0  0  0  0
  5 14  2  0  0  0  0
  5 19  1  0  0  0  0
  6 21  1  0  0  0  0
  7 23  1  0  0  0  0
  8 11  2  0  0  0  0
  8 22  1  0  0  0  0
  9 25  1  0  0  0  0
 10 25  2  0  0  0  0
 11 26  1  0  0  0  0
 12 13  2  0  0  0  0
 12 27  1  0  0  0  0
 13 28  1  0  0  0  0
 14 31  1  0  0  0  0
 15 24  1  0  0  0  0
 15 26  2  0  0  0  0
 16 28  2  0  0  0  0
 16 29  1  0  0  0  0
 17 19  2  0  0  0  0
 17 61  1  0  0  0  0
 18 30  1  0  0  0  0
 19 33  1  0  0  0  0
 20 30  1  0  0  0  0
 20 32  2  0  0  0  0
 20 34  1  0  0  0  0
 21 23  2  0  0  0  0
 21 39  1  0  0  0  0
 22 24  2  0  0  0  0
 22 40  1  0  0  0  0
 23 48  1  0  0  0  0
 24 41  1  0  0  0  0
 25 79  1  0  0  0  0
 26 80  1  0  0  0  0
 27 29  2  0  0  0  0
 27 79  1  0  0  0  0
 28 81  1  0  0  0  0
 29 82  1  0  0  0  0
 30 62  2  0  0  0  0
 31 61  2  0  0  0  0
 31 68  1  0  0  0  0
 32 63  1  0  0  0  0
 32 66  1  0  0  0  0
 33 69  1  0  0  0  0
 33 73  2  0  0  0  0
 34 67  1  0  0  0  0
 34 74  2  0  0  0  0
 35 49  1  0  0  0  0
 35 70  1  0  0  0  0
 35 75  2  0  0  0  0
 36 58  1  0  0  0  0
 36 64  1  0  0  0  0
 36 76  2  0  0  0  0
 37 59  1  0  0  0  0
 37 71  1  0  0  0  0
 37 77  2  0  0  0  0
 38 65  1  0  0  0  0
 38 68  1  0  0  0  0
 38 78  2  0  0  0  0
 39 42  1  0  0  0  0
 40 49  1  0  0  0  0
 41 64  1  0  0  0  0
 42 44  1  0  0  0  0
 43 45  1  0  0  0  0
 43 46  1  0  0  0  0
 44 48  1  0  0  0  0
 45 50  1  0  0  0  0
 46 65  1  0  0  0  0
 47 50  1  0  0  0  0
 47 65  1  0  0  0  0
 48 70  1  0  0  0  0
 49 64  1  0  0  0  0
 50 63  1  0  0  0  0
 51 59  1  0  0  0  0
 52 60  1  0  0  0  0
 53 60  1  0  0  0  0
 54 60  1  0  0  0  0
 55 72  1  0  0  0  0
 56 57  1  0  0  0  0
 56 69  1  0  0  0  0
 57 80  1  0  0  0  0
 58 60  1  0  0  0  0
 58 71  1  0  0  0  0
 59 72  1  0  0  0  0
 62 63  1  0  0  0  0
M  CHG  1  72   1
M  ISO  4  38 100  57 101  68 100  80 101
M  END
> <Batch ID>
0114

> <Smiles>
CNC(C)C(=O)NC(C(=O)N1Cc2cc([101O:1][101CH2:1]CNC(=O)c3ccc([100NH:0][100C:0](=O)N4CCCC(n5nc(-c6ccc(Oc7ccc(F)cc7F)cc6)c(C(N)=O)c5N)C4)nc3)ccc2CC1C(=O)NC1CCCc2ccccc21)C(C)(C)C

> <Shape>
0.265

> <Color>
0.102

> <Negative vol penalty>
0.000

$$$$

  -OEChem-04052320083D

 81 90  0     1  0  0  0  0  0999 V2000
  -41.3272  -19.1319   29.8337 C   0  0  0  0  0  0  0  0  0  0  0  0
  -40.1722  -19.1949   29.0607 C   0  0  0  0  0  0  0  0  0  0  0  0
  -23.0753   -9.8687   19.9405 C   0  0  0  0  0  0  0  0  0  0  0  0
  -23.8350   -9.8747   22.2339 C   0  0  0  0  0  0  0  0  0  0  0  0
  -42.3826  -20.0070   29.5806 C   0  0  0  0  0  0  0  0  0  0  0  0
  -40.0717  -20.1339   28.0347 C   0  0  0  0  0  0  0  0  0  0  0  0
  -38.1797  -18.1592   23.7726 C   0  0  0  0  0  0  0  0  0  0  0  0
  -22.3310   -8.7157   20.1900 C   0  0  0  0  0  0  0  0  0  0  0  0
  -23.0906   -8.7218   22.4835 C   0  0  0  0  0  0  0  0  0  0  0  0
  -36.8003  -17.9637   23.7190 C   0  0  0  0  0  0  0  0  0  0  0  0
  -19.8622   -7.9250   23.0856 C   0  0  0  0  0  0  0  0  0  0  0  0
  -19.1051   -7.8850   24.2564 C   0  0  0  0  0  0  0  0  0  0  0  0
  -36.5676  -19.9972   22.4424 C   0  0  0  0  0  0  0  0  0  0  0  0
  -32.0602  -16.6062   22.5511 C   0  0  0  0  0  0  0  0  0  0  0  0
  -20.3457   -5.9469   24.9924 C   0  0  0  0  0  0  0  0  0  0  0  0
  -31.8019  -18.3293   24.1699 C   0  0  0  0  0  0  0  0  0  0  0  0
  -23.8274  -10.4481   20.9624 C   0  0  0  0  0  0  0  0  0  0  0  0
  -24.1701  -12.9732   20.8431 C   0  0  0  0  0  0  0  0  0  0  0  0
  -42.2988  -20.9508   28.5448 C   0  0  0  0  0  0  0  0  0  0  0  0
  -38.7632  -19.2829   23.1698 C   0  0  0  0  0  0  0  0  0  0  0  0
  -41.1265  -21.0233   27.7684 C   0  0  0  0  0  0  0  0  0  0  0  0
  -37.9549  -20.2034   22.4875 C   0  0  0  0  0  0  0  0  0  0  0  0
  -32.6404  -17.4900   23.4541 C   0  0  0  0  0  0  0  0  0  0  0  0
  -30.6789  -16.5888   22.3936 C   0  0  0  0  0  0  0  0  0  0  0  0
  -22.3386   -8.1423   21.4616 C   0  0  0  0  0  0  0  0  0  0  0  0
  -35.9937  -18.8842   23.0563 C   0  0  0  0  0  0  0  0  0  0  0  0
  -20.8610   -6.9759   22.8681 C   0  0  0  0  0  0  0  0  0  0  0  0
  -19.3469   -6.8960   25.2098 C   0  0  0  0  0  0  0  0  0  0  0  0
  -21.1028   -5.9869   23.8215 C   0  0  0  0  0  0  0  0  0  0  0  0
  -24.5969  -11.6388   20.7050 C   0  0  0  0  0  0  0  0  0  0  0  0
  -29.9282  -17.4683   23.1569 C   0  0  0  0  0  0  0  0  0  0  0  0
  -25.2625  -13.7224   20.4801 C   0  0  0  0  0  0  0  0  0  0  0  0
  -22.8998  -13.4894   21.2620 C   0  0  0  0  0  0  0  0  0  0  0  0
  -40.4417  -21.7715   24.2153 C   0  0  0  0  0  0  0  0  0  0  0  0
  -40.7227  -22.4164   21.0487 C   0  0  0  0  0  0  0  0  0  0  0  0
  -39.4705  -22.0503   17.8952 C   0  0  0  0  0  0  0  0  0  0  0  0
  -30.7291  -14.7660   20.6555 C   0  0  0  0  0  0  0  0  0  0  0  0
  -43.4467  -21.9072   28.3395 C   0  0  0  0  0  0  0  0  0  0  0  0
  -40.2555  -19.4654   23.2136 C   0  0  0  0  0  0  0  0  0  0  0  0
  -38.5343  -21.4155   21.8067 C   0  0  0  0  0  0  0  0  0  0  0  0
  -43.4097  -22.6229   26.9916 C   0  0  0  0  0  0  0  0  0  0  0  0
  -29.6140  -12.3532   18.2865 C   0  0  0  0  0  0  0  0  0  0  0  0
  -42.0085  -23.1549   26.7080 C   0  0  0  0  0  0  0  0  0  0  0  0
  -27.6111  -17.9707   24.1830 C   0  0  0  0  0  0  0  0  0  0  0  0
  -27.6227  -16.5157   23.8322 C   0  0  0  0  0  0  0  0  0  0  0  0
  -28.1742  -12.0620   18.7159 C   0  0  0  0  0  0  0  0  0  0  0  0
  -30.5291  -12.5814   19.4882 C   0  0  0  0  0  0  0  0  0  0  0  0
  -28.6223  -13.3061   20.8696 C   0  0  0  0  0  0  0  0  0  0  0  0
  -40.9895  -22.0116   26.6305 C   0  0  1  0  0  0  0  0  0  0  0  0
  -28.4386  -17.4870   23.0238 C   0  0  0  0  0  0  0  0  0  0  0  0
  -40.6867  -20.9140   23.0060 C   0  0  1  0  0  0  0  0  0  0  0  0
  -27.6495  -13.1335   19.6916 C   0  0  2  0  0  0  0  0  0  0  0  0
  -39.8970  -22.7241   15.5158 C   0  0  0  0  0  0  0  0  0  0  0  0
  -39.6524  -25.2097   21.6503 C   0  0  0  0  0  0  0  0  0  0  0  0
  -39.2074  -25.4906   19.2026 C   0  0  0  0  0  0  0  0  0  0  0  0
  -41.5415  -25.1467   20.0127 C   0  0  0  0  0  0  0  0  0  0  0  0
  -39.7891  -19.2369   17.0337 C   0  0  0  0  0  0  0  0  0  0  0  0
  -34.1276  -17.5338   23.6478 C   0  0  0  0  0  0  0  0  0  1  0  0
  -39.9205  -23.2068   20.0433 C   0  0  1  0  0  0  0  0  0  0  0  0
  -40.1360  -21.6694   16.5851 C   0  0  2  0  0  0  0  0  0  0  0  0
  -40.0690  -24.7417   20.2416 C   0  0  0  0  0  0  0  0  0  0  0  0
  -30.4559  -18.3413   24.0441 N   0  0  0  0  0  0  0  0  0  0  0  0
  -25.8617  -11.5426   20.2868 N   0  0  0  0  0  0  0  0  0  0  0  0
  -26.2391  -12.8261   20.1589 N   0  0  0  0  0  0  0  0  0  0  0  0
  -39.9981  -21.5532   21.8828 N   0  0  0  0  0  0  0  0  0  0  0  0
  -29.9704  -13.6121   20.3659 N   0  0  0  0  0  0  0  0  0  0  0  0
  -25.4734  -15.0538   20.4075 N   0  0  0  0  0  0  0  0  0  0  0  0
  -21.8875  -12.5805   21.5990 N   0  0  0  0  0  0  0  0  0  0  0  0
  -30.0820  -15.6910   21.4741 N   0  0  0  0  0  0  0  0  0  0  0  0
  -41.0871  -21.3332   25.3559 N   0  0  0  0  0  0  0  0  0  0  0  0
  -40.3335  -22.7316   18.7273 N   0  0  0  0  0  0  0  0  0  0  0  0
  -39.6006  -20.3694   16.0909 N   0  3  0  0  0  0  0  0  0  0  0  0
  -22.6640  -14.7201   21.3197 O   0  0  0  0  0  0  0  0  0  0  0  0
  -39.7217  -22.7586   24.1203 O   0  0  0  0  0  0  0  0  0  0  0  0
  -41.9479  -22.5544   21.0876 O   0  0  0  0  0  0  0  0  0  0  0  0
  -38.3009  -21.7747   18.1530 O   0  0  0  0  0  0  0  0  0  0  0  0
  -31.8583  -14.9344   20.1880 O   0  0  0  0  0  0  0  0  0  0  0  0
  -21.6122   -7.0174   21.7055 O   0  0  0  0  0  0  0  0  0  0  0  0
  -34.6470  -18.6960   23.0031 O   0  0  0  0  0  0  0  0  0  1  0  0
  -18.6209   -6.8587   26.3348 F   0  0  0  0  0  0  0  0  0  0  0  0
  -22.0618   -5.0731   23.6187 F   0  0  0  0  0  0  0  0  0  0  0  0
  1  2  1  0  0  0  0
  1  5  2  0  0  0  0
  2  6  2  0  0  0  0
  3  8  2  0  0  0  0
  3 17  1  0  0  0  0
  4  9  1  0  0  0  0
  4 17  2  0  0  0  0
  5 19  1  0  0  0  0
  6 21  1  0  0  0  0
  7 10  2  0  0  0  0
  7 20  1  0  0  0  0
  8 25  1  0  0  0  0
  9 25  2  0  0  0  0
 10 26  1  0  0  0  0
 11 12  2  0  0  0  0
 11 27  1  0  0  0  0
 12 28  1  0  0  0  0
 13 22  1  0  0  0  0
 13 26  2  0  0  0  0
 14 23  2  0  0  0  0
 14 24  1  0  0  0  0
 15 28  2  0  0  0  0
 15 29  1  0  0  0  0
 16 23  1  0  0  0  0
 16 62  2  0  0  0  0
 17 30  1  0  0  0  0
 18 30  1  0  0  0  0
 18 32  2  0  0  0  0
 18 33  1  0  0  0  0
 19 21  2  0  0  0  0
 19 38  1  0  0  0  0
 20 22  2  0  0  0  0
 20 39  1  0  0  0  0
 21 49  1  0  0  0  0
 22 40  1  0  0  0  0
 23 58  1  0  0  0  0
 24 31  2  0  0  0  0
 24 69  1  0  0  0  0
 25 78  1  0  0  0  0
 26 79  1  0  0  0  0
 27 29  2  0  0  0  0
 27 78  1  0  0  0  0
 28 80  1  0  0  0  0
 29 81  1  0  0  0  0
 30 63  2  0  0  0  0
 31 50  1  0  0  0  0
 31 62  1  0  0  0  0
 32 64  1  0  0  0  0
 32 67  1  0  0  0  0
 33 68  1  0  0  0  0
 33 73  2  0  0  0  0
 34 51  1  0  0  0  0
 34 70  1  0  0  0  0
 34 74  2  0  0  0  0
 35 59  1  0  0  0  0
 35 65  1  0  0  0  0
 35 75  2  0  0  0  0
 36 60  1  0  0  0  0
 36 71  1  0  0  0  0
 36 76  2  0  0  0  0
 37 66  1  0  0  0  0
 37 69  1  0  0  0  0
 37 77  2  0  0  0  0
 38 41  1  0  0  0  0
 39 51  1  0  0  0  0
 40 65  1  0  0  0  0
 41 43  1  0  0  0  0
 42 46  1  0  0  0  0
 42 47  1  0  0  0  0
 43 49  1  0  0  0  0
 44 45  1  0  0  0  0
 44 50  1  0  0  0  0
 45 50  1  0  0  0  0
 46 52  1  0  0  0  0
 47 66  1  0  0  0  0
 48 52  1  0  0  0  0
 48 66  1  0  0  0  0
 49 70  1  0  0  0  0
 51 65  1  0  0  0  0
 52 64  1  0  0  0  0
 53 60  1  0  0  0  0
 54 61  1  0  0  0  0
 55 61  1  0  0  0  0
 56 61  1  0  0  0  0
 57 72  1  0  0  0  0
 58 79  1  0  0  0  0
 59 61  1  0  0  0  0
 59 71  1  0  0  0  0
 60 72  1  0  0  0  0
 63 64  1  0  0  0  0
M  CHG  1  72   1
M  ISO  4  37 100  58 101  69 100  79 101
M  END
> <Batch ID>
0114

> <Smiles>
CNC(C)C(=O)NC(C(=O)N1Cc2cc([101O:1][101CH2:1]c3cnc(C4CC4)c([100NH:0][100C:0](=O)N4CCCC(n5nc(-c6ccc(Oc7ccc(F)cc7F)cc6)c(C(N)=O)c5N)C4)c3)ccc2CC1C(=O)NC1CCCc2ccccc21)C(C)(C)C

> <Shape>
0.169

> <Color>
0.196

> <Negative vol penalty>
0.000

$$$$

  -OEChem-04052320083D

 89 98  0     1  0  0  0  0  0999 V2000
  -40.1227  -23.4502   16.1886 C   0  0  0  0  0  0  0  0  0  0  0  0
  -39.2049  -22.7234   16.9400 C   0  0  0  0  0  0  0  0  0  0  0  0
  -23.2060   -9.8333   19.9664 C   0  0  0  0  0  0  0  0  0  0  0  0
  -23.9167   -9.9376   22.2732 C   0  0  0  0  0  0  0  0  0  0  0  0
  -39.9482  -24.8225   16.0143 C   0  0  0  0  0  0  0  0  0  0  0  0
  -38.1125  -23.3686   17.5186 C   0  0  0  0  0  0  0  0  0  0  0  0
  -32.4845  -21.0870   18.3099 C   0  0  0  0  0  0  0  0  0  0  0  0
  -22.5201   -8.6479   20.2313 C   0  0  0  0  0  0  0  0  0  0  0  0
  -23.2308   -8.7522   22.5381 C   0  0  0  0  0  0  0  0  0  0  0  0
  -31.8516  -20.5125   19.4114 C   0  0  0  0  0  0  0  0  0  0  0  0
  -21.3685   -5.9450   23.9054 C   0  0  0  0  0  0  0  0  0  0  0  0
  -20.5916   -5.8891   25.0625 C   0  0  0  0  0  0  0  0  0  0  0  0
  -32.5284  -15.4150   23.1002 C   0  0  0  0  0  0  0  0  0  0  0  0
  -30.8650  -22.6469   19.9500 C   0  0  0  0  0  0  0  0  0  0  0  0
  -31.0836  -17.2516   24.7156 C   0  0  0  0  0  0  0  0  0  0  0  0
  -19.2601   -7.7376   24.2576 C   0  0  0  0  0  0  0  0  0  0  0  0
  -33.2061  -16.2705   23.9847 C   0  0  0  0  0  0  0  0  0  0  0  0
  -23.9043  -10.4781   20.9873 C   0  0  0  0  0  0  0  0  0  0  0  0
  -24.1123  -13.0144   20.8095 C   0  0  0  0  0  0  0  0  0  0  0  0
  -38.8479  -25.4832   16.5829 C   0  0  0  0  0  0  0  0  0  0  0  0
  -32.3209  -22.4505   18.0261 C   0  0  0  0  0  0  0  0  0  0  0  0
  -37.9238  -24.7512   17.3529 C   0  0  0  0  0  0  0  0  0  0  0  0
  -31.4948  -23.2357   18.8429 C   0  0  0  0  0  0  0  0  0  0  0  0
  -30.4232  -16.3934   23.8304 C   0  0  0  0  0  0  0  0  0  0  0  0
  -32.4764  -17.1606   24.7648 C   0  0  0  0  0  0  0  0  0  0  0  0
  -31.1314  -15.4900   23.0356 C   0  0  0  0  0  0  0  0  0  0  0  0
  -22.5325   -8.1074   21.5171 C   0  0  0  0  0  0  0  0  0  0  0  0
  -31.0440  -21.2931   20.2333 C   0  0  0  0  0  0  0  0  0  0  0  0
  -21.0914   -6.8972   22.9245 C   0  0  0  0  0  0  0  0  0  0  0  0
  -19.5373   -6.7854   25.2386 C   0  0  0  0  0  0  0  0  0  0  0  0
  -20.0371   -7.7935   23.1006 C   0  0  0  0  0  0  0  0  0  0  0  0
  -24.6134  -11.7023   20.7142 C   0  0  0  0  0  0  0  0  0  0  0  0
  -34.5497  -16.5100   24.3448 C   0  0  0  0  0  0  0  0  0  0  0  0
  -25.1699  -13.8129   20.4484 C   0  0  0  0  0  0  0  0  0  0  0  0
  -22.8076  -13.4706   21.1904 C   0  0  0  0  0  0  0  0  0  0  0  0
  -34.2692  -24.9563   17.8578 C   0  0  0  0  0  0  0  0  0  0  0  0
  -31.6009  -26.4676   16.8003 C   0  0  0  0  0  0  0  0  0  0  0  0
  -28.1921  -26.5927   16.6934 C   0  0  0  0  0  0  0  0  0  0  0  0
  -30.9173  -14.1182   20.9335 C   0  0  0  0  0  0  0  0  0  0  0  0
  -38.7270  -26.9761   16.4065 C   0  0  0  0  0  0  0  0  0  0  0  0
  -32.9891  -23.0491   16.8188 C   0  0  0  0  0  0  0  0  0  0  0  0
  -31.2703  -24.6998   18.5698 C   0  0  0  0  0  0  0  0  0  0  0  0
  -37.3397  -27.5186   16.7401 C   0  0  0  0  0  0  0  0  0  0  0  0
  -29.3517  -13.1150   17.8971 C   0  0  0  0  0  0  0  0  0  0  0  0
  -36.8421  -26.9367   18.0595 C   0  0  0  0  0  0  0  0  0  0  0  0
  -27.9209  -12.7763   18.3216 C   0  0  0  0  0  0  0  0  0  0  0  0
  -30.3700  -12.7092   18.9611 C   0  0  0  0  0  0  0  0  0  0  0  0
  -28.6680  -12.8868   20.7334 C   0  0  0  0  0  0  0  0  0  0  0  0
  -36.7126  -25.4110   17.9757 C   0  0  1  0  0  0  0  0  0  0  0  0
  -33.1633  -24.5613   16.9206 C   0  0  1  0  0  0  0  0  0  0  0  0
  -27.6010  -13.3359   19.7217 C   0  0  2  0  0  0  0  0  0  0  0  0
  -35.9655  -14.4419   24.4139 C   0  0  0  0  0  0  0  0  0  0  0  0
  -26.2988  -27.9657   15.7835 C   0  0  0  0  0  0  0  0  0  0  0  0
  -28.5454  -21.5968   22.5479 C   0  0  0  0  0  0  0  0  0  0  0  0
  -32.0726  -28.5549   18.9753 C   0  0  0  0  0  0  0  0  0  0  0  0
  -29.7135  -29.3269   18.6488 C   0  0  0  0  0  0  0  0  0  0  0  0
  -31.3483  -29.4898   16.7717 C   0  0  0  0  0  0  0  0  0  0  0  0
  -33.1494  -18.8767   26.4756 C   0  0  0  0  0  0  0  0  0  0  0  0
  -27.1779  -24.3325   15.0743 C   0  0  0  0  0  0  0  0  0  0  0  0
  -28.9256  -16.4699   23.7566 C   0  0  0  0  0  0  0  0  0  0  0  0
  -35.7549  -15.8410   23.8231 C   0  0  0  0  0  0  0  0  0  0  0  0
  -28.4051  -17.1850   22.5139 C   0  0  0  0  0  0  0  0  0  0  0  0
  -28.4506  -19.3666   21.2984 C   0  0  0  0  0  0  0  0  0  0  0  0
  -30.4681  -27.2204   17.4552 C   0  0  1  0  0  0  0  0  0  0  0  0
  -27.2270  -26.7863   15.5378 C   0  0  2  0  0  0  0  0  0  0  0  0
  -28.9999  -20.7889   21.3393 C   0  0  2  0  0  0  0  0  0  1  0  0
  -30.9062  -28.6209   17.9693 C   0  0  0  0  0  0  0  0  0  0  0  0
  -25.8900  -11.6650   20.3231 N   0  0  0  0  0  0  0  0  0  0  0  0
  -34.6762  -17.4641   25.2699 N   0  0  0  0  0  0  0  0  0  0  0  0
  -33.4075  -17.8386   25.5044 N   0  0  0  0  0  0  0  0  0  0  0  0
  -26.2000  -12.9636   20.1694 N   0  0  0  0  0  0  0  0  0  0  0  0
  -31.9504  -25.2402   17.3811 N   0  0  0  0  0  0  0  0  0  0  0  0
  -30.0047  -13.2791   20.2599 N   0  0  0  0  0  0  0  0  0  0  0  0
  -25.3099  -15.1516   20.3455 N   0  0  0  0  0  0  0  0  0  0  0  0
  -21.8392  -12.5164   21.5311 N   0  0  0  0  0  0  0  0  0  0  0  0
  -30.4473  -14.6272   22.1437 N   0  0  0  0  0  0  0  0  0  0  0  0
  -35.5108  -25.0445   17.2576 N   0  0  0  0  0  0  0  0  0  0  0  0
  -29.3830  -27.2542   16.4806 N   0  0  0  0  0  0  0  0  0  0  0  0
  -26.3946  -25.5648   15.3478 N   0  3  0  0  0  0  0  0  0  0  0  0
  -28.8583  -18.6024   22.5035 N   0  3  0  0  0  0  0  0  0  0  0  0
  -22.5044  -14.6876   21.2117 O   0  0  0  0  0  0  0  0  0  0  0  0
  -34.0148  -25.1671   19.0379 O   0  0  0  0  0  0  0  0  0  0  0  0
  -32.1505  -26.9473   15.8057 O   0  0  0  0  0  0  0  0  0  0  0  0
  -27.9156  -25.9247   17.6873 O   0  0  0  0  0  0  0  0  0  0  0  0
  -32.0229  -14.3889   20.4578 O   0  0  0  0  0  0  0  0  0  0  0  0
  -21.8632   -6.9509   21.7760 O   0  0  0  0  0  0  0  0  0  0  0  0
  -30.4256  -20.7351   21.3094 O   0  0  0  0  0  0  0  0  0  1  0  0
  -18.7903   -6.7306   26.3491 F   0  0  0  0  0  0  0  0  0  0  0  0
  -19.7653   -8.7097   22.1612 F   0  0  0  0  0  0  0  0  0  0  0  0
  1  2  1  0  0  0  0
  1  5  2  0  0  0  0
  2  6  2  0  0  0  0
  3  8  2  0  0  0  0
  3 18  1  0  0  0  0
  4  9  1  0  0  0  0
  4 18  2  0  0  0  0
  5 20  1  0  0  0  0
  6 22  1  0  0  0  0
  7 10  2  0  0  0  0
  7 21  1  0  0  0  0
  8 27  1  0  0  0  0
  9 27  2  0  0  0  0
 10 28  1  0  0  0  0
 11 12  2  0  0  0  0
 11 29  1  0  0  0  0
 12 30  1  0  0  0  0
 13 17  1  0  0  0  0
 13 26  2  0  0  0  0
 14 23  1  0  0  0  0
 14 28  2  0  0  0  0
 15 24  2  0  0  0  0
 15 25  1  0  0  0  0
 16 30  2  0  0  0  0
 16 31  1  0  0  0  0
 17 25  2  0  0  0  0
 17 33  1  0  0  0  0
 18 32  1  0  0  0  0
 19 32  1  0  0  0  0
 19 34  2  0  0  0  0
 19 35  1  0  0  0  0
 20 22  2  0  0  0  0
 20 40  1  0  0  0  0
 21 23  2  0  0  0  0
 21 41  1  0  0  0  0
 22 49  1  0  0  0  0
 23 42  1  0  0  0  0
 24 26  1  0  0  0  0
 24 60  1  0  0  0  0
 25 70  1  0  0  0  0
 26 76  1  0  0  0  0
 27 86  1  0  0  0  0
 28 87  1  0  0  0  0
 29 31  2  0  0  0  0
 29 86  1  0  0  0  0
 30 88  1  0  0  0  0
 31 89  1  0  0  0  0
 32 68  2  0  0  0  0
 33 61  1  0  0  0  0
 33 69  2  0  0  0  0
 34 71  1  0  0  0  0
 34 74  1  0  0  0  0
 35 75  1  0  0  0  0
 35 81  2  0  0  0  0
 36 50  1  0  0  0  0
 36 77  1  0  0  0  0
 36 82  2  0  0  0  0
 37 64  1  0  0  0  0
 37 72  1  0  0  0  0
 37 83  2  0  0  0  0
 38 65  1  0  0  0  0
 38 78  1  0  0  0  0
 38 84  2  0  0  0  0
 39 73  1  0  0  0  0
 39 76  1  0  0  0  0
 39 85  2  0  0  0  0
 40 43  1  0  0  0  0
 41 50  1  0  0  0  0
 42 72  1  0  0  0  0
 43 45  1  0  0  0  0
 44 46  1  0  0  0  0
 44 47  1  0  0  0  0
 45 49  1  0  0  0  0
 46 51  1  0  0  0  0
 47 73  1  0  0  0  0
 48 51  1  0  0  0  0
 48 73  1  0  0  0  0
 49 77  1  0  0  0  0
 50 72  1  0  0  0  0
 51 71  1  0  0  0  0
 52 61  1  0  0  0  0
 53 65  1  0  0  0  0
 54 66  1  0  0  0  0
 55 67  1  0  0  0  0
 56 67  1  0  0  0  0
 57 67  1  0  0  0  0
 58 70  1  0  0  0  0
 59 79  1  0  0  0  0
 60 62  1  0  0  0  0
 62 80  1  0  0  0  0
 63 66  1  0  0  0  0
 63 80  1  0  0  0  0
 64 67  1  0  0  0  0
 64 78  1  0  0  0  0
 65 79  1  0  0  0  0
 66 87  1  0  0  0  0
 68 71  1  0  0  0  0
 69 70  1  0  0  0  0
M  CHG  2  79   1  80   1
M  ISO  4  39 100  66 101  76 100  87 101
M  END
> <Batch ID>
0114

> <Smiles>
CCc1nn(C)c2cc(CCNC[101CH:1](C)[101O:1]c3ccc4c(c3)CN(C(=O)C(NC(=O)C(C)NC)C(C)(C)C)C(C(=O)NC3CCCc5ccccc53)C4)c([100NH:0][100C:0](=O)N3CCCC(n4nc(-c5ccc(Oc6ccc(F)cc6F)cc5)c(C(N)=O)c4N)C3)cc12

> <Shape>
0.200

> <Color>
0.175

> <Negative vol penalty>
0.000

$$$$

  -OEChem-04052320083D

 90 98  0     1  0  0  0  0  0999 V2000
  -16.6084  -25.8806   23.6792 C   0  0  0  0  0  0  0  0  0  0  0  0
  -17.6718  -25.6263   22.8192 C   0  0  0  0  0  0  0  0  0  0  0  0
  -26.7853  -13.2062   20.9184 C   0  0  0  0  0  0  0  0  0  0  0  0
  -25.7114  -14.3992   19.1127 C   0  0  0  0  0  0  0  0  0  0  0  0
  -16.3613  -27.1819   24.1146 C   0  0  0  0  0  0  0  0  0  0  0  0
  -18.4883  -26.6733   22.3931 C   0  0  0  0  0  0  0  0  0  0  0  0
  -23.4116  -25.5056   22.5992 C   0  0  0  0  0  0  0  0  0  0  0  0
  -29.2984  -25.2715   17.6143 C   0  0  0  0  0  0  0  0  0  0  0  0
  -26.0633  -12.0589   20.5897 C   0  0  0  0  0  0  0  0  0  0  0  0
  -24.9895  -13.2519   18.7840 C   0  0  0  0  0  0  0  0  0  0  0  0
  -23.9191  -24.7038   21.5778 C   0  0  0  0  0  0  0  0  0  0  0  0
  -24.2363   -8.9178   20.4507 C   0  0  0  0  0  0  0  0  0  0  0  0
  -23.6506   -8.1978   21.4919 C   0  0  0  0  0  0  0  0  0  0  0  0
  -29.1902  -24.1541   16.7939 C   0  0  0  0  0  0  0  0  0  0  0  0
  -24.8086  -26.6641   20.4892 C   0  0  0  0  0  0  0  0  0  0  0  0
  -22.3505  -10.1402   22.1037 C   0  0  0  0  0  0  0  0  0  0  0  0
  -26.6093  -14.3764   20.1799 C   0  0  0  0  0  0  0  0  0  0  0  0
  -28.6147  -15.9453   20.0227 C   0  0  0  0  0  0  0  0  0  0  0  0
  -17.1809  -28.2440   23.7013 C   0  0  0  0  0  0  0  0  0  0  0  0
  -23.5896  -26.8961   22.5676 C   0  0  0  0  0  0  0  0  0  0  0  0
  -18.2511  -27.9902   22.8223 C   0  0  0  0  0  0  0  0  0  0  0  0
  -24.3046  -27.4810   21.5127 C   0  0  0  0  0  0  0  0  0  0  0  0
  -29.1218  -25.1388   18.9871 C   0  0  0  0  0  0  0  0  0  0  0  0
  -25.1654  -12.0817   19.5225 C   0  0  0  0  0  0  0  0  0  0  0  0
  -24.6152  -25.2833   20.5211 C   0  0  0  0  0  0  0  0  0  0  0  0
  -23.8791  -10.2491   20.2360 C   0  0  0  0  0  0  0  0  0  0  0  0
  -22.7077   -8.8090   22.3184 C   0  0  0  0  0  0  0  0  0  0  0  0
  -22.9362  -10.8602   21.0625 C   0  0  0  0  0  0  0  0  0  0  0  0
  -27.3544  -15.5621   20.5193 C   0  0  0  0  0  0  0  0  0  0  0  0
  -28.9064  -22.9363   17.3908 C   0  0  0  0  0  0  0  0  0  0  0  0
  -28.8408  -23.8770   19.4858 C   0  0  0  0  0  0  0  0  0  0  0  0
  -28.8828  -17.1375   20.6498 C   0  0  0  0  0  0  0  0  0  0  0  0
  -29.4668  -15.2829   19.0789 C   0  0  0  0  0  0  0  0  0  0  0  0
  -21.6420  -29.4044   22.4291 C   0  0  0  0  0  0  0  0  0  0  0  0
  -24.3958  -31.0725   22.8248 C   0  0  0  0  0  0  0  0  0  0  0  0
  -27.7919  -31.1760   22.5044 C   0  0  0  0  0  0  0  0  0  0  0  0
  -27.2741  -22.1890   22.3932 C   0  0  0  0  0  0  0  0  0  0  0  0
  -16.8460  -29.6408   24.1609 C   0  0  0  0  0  0  0  0  0  0  0  0
  -23.0591  -27.7443   23.6908 C   0  0  0  0  0  0  0  0  0  0  0  0
  -24.5406  -28.9669   21.4424 C   0  0  0  0  0  0  0  0  0  0  0  0
  -17.9848  -30.6374   23.9608 C   0  0  0  0  0  0  0  0  0  0  0  0
  -26.5514  -19.4220   24.5140 C   0  0  0  0  0  0  0  0  0  0  0  0
  -18.5800  -30.4944   22.5636 C   0  0  0  0  0  0  0  0  0  0  0  0
  -26.7938  -18.2038   23.6212 C   0  0  0  0  0  0  0  0  0  0  0  0
  -25.9438  -20.5837   23.7309 C   0  0  0  0  0  0  0  0  0  0  0  0
  -26.9376  -19.7593   21.6317 C   0  0  0  0  0  0  0  0  0  0  0  0
  -19.1742  -29.0958   22.3576 C   0  0  1  0  0  0  0  0  0  0  0  0
  -22.8548  -29.2029   23.2930 C   0  0  1  0  0  0  0  0  0  0  0  0
  -27.6014  -18.5811   22.3648 C   0  0  2  0  0  0  0  0  0  0  0  0
  -28.1726  -27.4034   19.5564 C   0  0  0  0  0  0  0  0  0  0  0  0
  -30.6399  -26.9654   19.8318 C   0  0  0  0  0  0  0  0  0  0  0  0
  -29.7605  -32.6872   22.8764 C   0  0  0  0  0  0  0  0  0  0  0  0
  -29.0006  -21.9556   15.0039 C   0  0  0  0  0  0  0  0  0  0  0  0
  -29.8807  -20.6612   16.9186 C   0  0  0  0  0  0  0  0  0  0  0  0
  -23.6468  -32.6589   20.3284 C   0  0  0  0  0  0  0  0  0  0  0  0
  -26.0178  -33.4537   20.2069 C   0  0  0  0  0  0  0  0  0  0  0  0
  -24.6111  -34.0292   22.1849 C   0  0  0  0  0  0  0  0  0  0  0  0
  -29.0171  -29.2967   24.4346 C   0  0  0  0  0  0  0  0  0  0  0  0
  -28.6445  -23.6741   20.9525 C   0  0  0  0  0  0  0  0  0  0  0  0
  -25.1061  -24.0092   17.1690 C   0  0  0  0  0  0  0  0  0  0  0  0
  -26.1880  -21.8918   16.4041 C   0  0  0  0  0  0  0  0  0  0  0  0
  -25.2079  -25.0912   18.2259 C   0  0  0  0  0  0  0  0  0  1  0  0
  -29.2352  -26.3324   19.8710 C   0  0  0  0  0  0  0  0  0  0  0  0
  -25.4347  -31.6562   21.8980 C   0  0  1  0  0  0  0  0  0  0  0  0
  -28.8826  -31.5977   23.4723 C   0  0  2  0  0  0  0  0  0  0  0  0
  -27.3880  -20.9944   16.6904 C   0  0  1  0  0  0  0  0  0  0  0  0
  -28.7810  -21.6758   16.5124 C   0  0  0  0  0  0  0  0  0  0  0  0
  -24.9217  -32.9217   21.1546 C   0  0  0  0  0  0  0  0  0  0  0  0
  -26.8564  -16.4396   21.3945 N   0  0  0  0  0  0  0  0  0  0  0  0
  -28.7282  -22.7683   18.7203 N   0  0  0  0  0  0  0  0  0  0  0  0
  -27.8088  -17.3860   21.4529 N   0  0  0  0  0  0  0  0  0  0  0  0
  -23.9968  -29.7545   22.5612 N   0  0  0  0  0  0  0  0  0  0  0  0
  -26.7582  -20.8924   22.5530 N   0  0  0  0  0  0  0  0  0  0  0  0
  -29.9302  -17.9869   20.5872 N   0  0  0  0  0  0  0  0  0  0  0  0
  -29.0382  -14.0662   18.5309 N   0  0  0  0  0  0  0  0  0  0  0  0
  -20.4600  -28.9913   23.0135 N   0  0  0  0  0  0  0  0  0  0  0  0
  -26.6255  -31.8820   22.7102 N   0  0  0  0  0  0  0  0  0  0  0  0
  -28.0405  -22.3951   21.2526 N   0  0  0  0  0  0  0  0  0  0  0  0
  -29.7471  -30.4339   23.8176 N   0  3  0  0  0  0  0  0  0  0  0  0
  -26.1994  -23.0247   17.3687 N   0  3  0  0  0  0  0  0  0  0  0  0
  -30.5828  -15.7477   18.7442 O   0  0  0  0  0  0  0  0  0  0  0  0
  -21.7692  -29.8995   21.3154 O   0  0  0  0  0  0  0  0  0  0  0  0
  -23.9598  -31.7581   23.7529 O   0  0  0  0  0  0  0  0  0  0  0  0
  -27.9592  -30.3098   21.6486 O   0  0  0  0  0  0  0  0  0  0  0  0
  -27.0715  -23.0945   23.2093 O   0  0  0  0  0  0  0  0  0  0  0  0
  -24.4609  -10.9623   19.2014 O   0  0  0  0  0  0  0  0  0  0  0  0
  -25.1110  -24.5030   19.5225 O   0  0  0  0  0  0  0  0  0  1  0  0
  -22.1442   -8.1170   23.3173 F   0  0  0  0  0  0  0  0  0  0  0  0
  -22.5882  -12.1384   20.8604 F   0  0  0  0  0  0  0  0  0  0  0  0
  -27.2697  -20.5448   17.9749 F   0  0  0  0  0  0  0  0  0  0  0  0
  1  2  1  0  0  0  0
  1  5  2  0  0  0  0
  2  6  2  0  0  0  0
  3  9  2  0  0  0  0
  3 17  1  0  0  0  0
  4 10  1  0  0  0  0
  4 17  2  0  0  0  0
  5 19  1  0  0  0  0
  6 21  1  0  0  0  0
  7 11  2  0  0  0  0
  7 20  1  0  0  0  0
  8 14  2  0  0  0  0
  8 23  1  0  0  0  0
  9 24  1  0  0  0  0
 10 24  2  0  0  0  0
 11 25  1  0  0  0  0
 12 13  2  0  0  0  0
 12 26  1  0  0  0  0
 13 27  1  0  0  0  0
 14 30  1  0  0  0  0
 15 22  1  0  0  0  0
 15 25  2  0  0  0  0
 16 27  2  0  0  0  0
 16 28  1  0  0  0  0
 17 29  1  0  0  0  0
 18 29  1  0  0  0  0
 18 32  2  0  0  0  0
 18 33  1  0  0  0  0
 19 21  2  0  0  0  0
 19 38  1  0  0  0  0
 20 22  2  0  0  0  0
 20 39  1  0  0  0  0
 21 47  1  0  0  0  0
 22 40  1  0  0  0  0
 23 31  2  0  0  0  0
 23 63  1  0  0  0  0
 24 86  1  0  0  0  0
 25 87  1  0  0  0  0
 26 28  2  0  0  0  0
 26 86  1  0  0  0  0
 27 88  1  0  0  0  0
 28 89  1  0  0  0  0
 29 69  2  0  0  0  0
 30 67  1  0  0  0  0
 30 70  2  0  0  0  0
 31 59  1  0  0  0  0
 31 70  1  0  0  0  0
 32 71  1  0  0  0  0
 32 74  1  0  0  0  0
 33 75  1  0  0  0  0
 33 81  2  0  0  0  0
 34 48  1  0  0  0  0
 34 76  1  0  0  0  0
 34 82  2  0  0  0  0
 35 64  1  0  0  0  0
 35 72  1  0  0  0  0
 35 83  2  0  0  0  0
 36 65  1  0  0  0  0
 36 77  1  0  0  0  0
 36 84  2  0  0  0  0
 37 73  1  0  0  0  0
 37 78  1  0  0  0  0
 37 85  2  0  0  0  0
 38 41  1  0  0  0  0
 39 48  1  0  0  0  0
 40 72  1  0  0  0  0
 41 43  1  0  0  0  0
 42 44  1  0  0  0  0
 42 45  1  0  0  0  0
 43 47  1  0  0  0  0
 44 49  1  0  0  0  0
 45 73  1  0  0  0  0
 46 49  1  0  0  0  0
 46 73  1  0  0  0  0
 47 76  1  0  0  0  0
 48 72  1  0  0  0  0
 49 71  1  0  0  0  0
 50 63  1  0  0  0  0
 51 63  1  0  0  0  0
 52 65  1  0  0  0  0
 53 67  1  0  0  0  0
 54 67  1  0  0  0  0
 55 68  1  0  0  0  0
 56 68  1  0  0  0  0
 57 68  1  0  0  0  0
 58 79  1  0  0  0  0
 59 78  1  0  0  0  0
 60 62  1  0  0  0  0
 60 80  1  0  0  0  0
 61 66  1  0  0  0  0
 61 80  1  0  0  0  0
 62 87  1  0  0  0  0
 64 68  1  0  0  0  0
 64 77  1  0  0  0  0
 65 79  1  0  0  0  0
 66 67  1  0  0  0  0
 66 90  1  0  0  0  0
 69 71  1  0  0  0  0
M  CHG  2  79   1  80   1
M  ISO  4  37 100  62 101  78 100  87 101
M  END
> <Batch ID>
0114

> <Smiles>
CNC(C)C(=O)NC(C(=O)N1Cc2cc([101O:1][101CH2:1]CNCC(F)C(C)(C)c3ccc(C(C)C)c(C[100NH:0][100C:0](=O)N4CCCC(n5nc(-c6ccc(Oc7ccc(F)cc7F)cc6)c(C(N)=O)c5N)C4)n3)ccc2CC1C(=O)NC1CCCc2ccccc21)C(C)(C)C

> <Shape>
0.275

> <Color>
0.082

> <Negative vol penalty>
0.000

$$$$

  -OEChem-04052320083D

 89 98  0     1  0  0  0  0  0999 V2000
  -29.3661  -36.6665   21.1763 C   0  0  0  0  0  0  0  0  0  0  0  0
  -29.6030  -35.2987   21.0841 C   0  0  0  0  0  0  0  0  0  0  0  0
  -23.2942   -9.4561   20.6780 C   0  0  0  0  0  0  0  0  0  0  0  0
  -23.2749  -11.0660   22.4794 C   0  0  0  0  0  0  0  0  0  0  0  0
  -28.2550  -37.1347   21.8764 C   0  0  0  0  0  0  0  0  0  0  0  0
  -28.7294  -34.3984   21.6930 C   0  0  0  0  0  0  0  0  0  0  0  0
  -27.1609  -28.8402   19.6553 C   0  0  0  0  0  0  0  0  0  0  0  0
  -22.4720   -8.6116   21.4238 C   0  0  0  0  0  0  0  0  0  0  0  0
  -22.4527  -10.2215   23.2253 C   0  0  0  0  0  0  0  0  0  0  0  0
  -27.6095  -27.5609   19.9805 C   0  0  0  0  0  0  0  0  0  0  0  0
  -22.8107   -6.4259   23.9797 C   0  0  0  0  0  0  0  0  0  0  0  0
  -23.1424   -5.0717   24.0226 C   0  0  0  0  0  0  0  0  0  0  0  0
  -29.3732  -23.4693   22.2956 C   0  0  0  0  0  0  0  0  0  0  0  0
  -25.7710  -27.3147   21.5227 C   0  0  0  0  0  0  0  0  0  0  0  0
  -28.5616  -22.6050   20.2097 C   0  0  0  0  0  0  0  0  0  0  0  0
  -21.0049   -4.5172   23.0424 C   0  0  0  0  0  0  0  0  0  0  0  0
  -23.6957  -10.6833   21.2057 C   0  0  0  0  0  0  0  0  0  0  0  0
  -24.1408  -12.5592   19.5352 C   0  0  0  0  0  0  0  0  0  0  0  0
  -27.3621  -36.2393   22.4860 C   0  0  0  0  0  0  0  0  0  0  0  0
  -26.0182  -29.3715   20.2704 C   0  0  0  0  0  0  0  0  0  0  0  0
  -27.6061  -34.8551   22.4031 C   0  0  0  0  0  0  0  0  0  0  0  0
  -29.6636  -22.1653   22.7352 C   0  0  0  0  0  0  0  0  0  0  0  0
  -25.3085  -28.6001   21.2016 C   0  0  0  0  0  0  0  0  0  0  0  0
  -28.8272  -23.6876   21.0362 C   0  0  0  0  0  0  0  0  0  0  0  0
  -29.3825  -21.0438   21.9181 C   0  0  0  0  0  0  0  0  0  0  0  0
  -22.0512   -8.9943   22.6975 C   0  0  0  0  0  0  0  0  0  0  0  0
  -26.9162  -26.7990   20.9165 C   0  0  0  0  0  0  0  0  0  0  0  0
  -21.5761   -6.8257   23.4682 C   0  0  0  0  0  0  0  0  0  0  0  0
  -28.8358  -21.3047   20.6454 C   0  0  0  0  0  0  0  0  0  0  0  0
  -22.2395   -4.1174   23.5540 C   0  0  0  0  0  0  0  0  0  0  0  0
  -20.6732   -5.8714   22.9995 C   0  0  0  0  0  0  0  0  0  0  0  0
  -24.5456  -11.5558   20.4360 C   0  0  0  0  0  0  0  0  0  0  0  0
  -25.3158  -13.0963   19.0689 C   0  0  0  0  0  0  0  0  0  0  0  0
  -22.8208  -12.9691   19.1542 C   0  0  0  0  0  0  0  0  0  0  0  0
  -25.4359  -31.8763   22.1388 C   0  0  0  0  0  0  0  0  0  0  0  0
  -22.3491  -30.9619   21.7421 C   0  0  0  0  0  0  0  0  0  0  0  0
  -20.1367  -28.4650   21.0226 C   0  0  0  0  0  0  0  0  0  0  0  0
  -30.4772  -15.0232   19.9590 C   0  0  0  0  0  0  0  0  0  0  0  0
  -26.2008  -36.7945   23.2721 C   0  0  0  0  0  0  0  0  0  0  0  0
  -25.5320  -30.7428   19.8889 C   0  0  0  0  0  0  0  0  0  0  0  0
  -30.2452  -21.9963   24.1169 C   0  0  0  0  0  0  0  0  0  0  0  0
  -24.0644  -29.1166   21.8754 C   0  0  0  0  0  0  0  0  0  0  0  0
  -25.1181  -35.7608   23.5711 C   0  0  0  0  0  0  0  0  0  0  0  0
  -30.9300  -20.6451   24.2639 C   0  0  0  0  0  0  0  0  0  0  0  0
  -30.0910  -11.5051   19.5712 C   0  0  0  0  0  0  0  0  0  0  0  0
  -25.7424  -34.4665   24.0828 C   0  0  0  0  0  0  0  0  0  0  0  0
  -28.5819  -11.2871   19.6935 C   0  0  0  0  0  0  0  0  0  0  0  0
  -30.5793  -12.6094   20.5061 C   0  0  0  0  0  0  0  0  0  0  0  0
  -28.3575  -13.6757   20.4953 C   0  0  0  0  0  0  0  0  0  0  0  0
  -26.6679  -33.8462   23.0291 C   0  0  1  0  0  0  0  0  0  0  0  0
  -24.6503  -31.3827   20.9569 C   0  0  1  0  0  0  0  0  0  0  0  0
  -27.8092  -12.6100   19.5311 C   0  0  2  0  0  0  0  0  0  0  0  0
  -30.0434  -19.5075   23.7548 C   0  0  1  0  0  0  0  0  0  0  0  0
  -28.8012  -19.2855   24.6205 C   0  0  0  0  0  0  0  0  0  0  0  0
  -17.6774  -28.0123   20.8121 C   0  0  0  0  0  0  0  0  0  0  0  0
  -22.0946  -30.9438   24.7826 C   0  0  0  0  0  0  0  0  0  0  0  0
  -19.9950  -29.6038   24.5293 C   0  0  0  0  0  0  0  0  0  0  0  0
  -20.1260  -31.9055   23.5767 C   0  0  0  0  0  0  0  0  0  0  0  0
  -20.4014  -27.7108   18.1730 C   0  0  0  0  0  0  0  0  0  0  0  0
  -27.1963  -19.7952   19.8154 C   0  0  0  0  0  0  0  0  0  0  0  0
  -28.5272  -25.0833   20.5744 C   0  0  0  0  0  0  0  0  0  1  0  0
  -29.3665  -18.5906   21.5205 C   0  0  0  0  0  0  0  0  0  0  0  0
  -30.2119  -17.4303   19.4159 C   0  0  0  0  0  0  0  0  0  0  0  0
  -21.4084  -30.0302   22.4674 C   0  0  1  0  0  0  0  0  0  0  0  0
  -18.9483  -28.4130   20.0794 C   0  0  2  0  0  0  0  0  0  0  0  0
  -30.5723  -18.2847   20.6321 C   0  0  2  0  0  0  0  0  0  0  0  0
  -20.9305  -30.6116   23.8279 C   0  0  0  0  0  0  0  0  0  0  0  0
  -25.8739  -11.4591   20.5373 N   0  0  0  0  0  0  0  0  0  0  0  0
  -26.3140  -12.4085   19.6941 N   0  0  0  0  0  0  0  0  0  0  0  0
  -29.6526  -19.7478   22.3594 N   0  0  3  0  0  0  0  0  0  0  0  0
  -23.6326  -30.4655   21.4736 N   0  0  0  0  0  0  0  0  0  0  0  0
  -29.8069  -13.8370   20.3005 N   0  0  0  0  0  0  0  0  0  0  0  0
  -25.5822  -14.0850   18.1892 N   0  0  0  0  0  0  0  0  0  0  0  0
  -21.7249  -12.3114   19.7293 N   0  0  0  0  0  0  0  0  0  0  0  0
  -25.8927  -33.1739   22.0085 N   0  0  0  0  0  0  0  0  0  0  0  0
  -20.3286  -29.7315   21.5329 N   0  0  0  0  0  0  0  0  0  0  0  0
  -29.6697  -16.1391   19.7760 N   0  0  0  0  0  0  0  0  0  0  0  0
  -19.1942  -27.4256   18.9905 N   0  3  0  0  0  0  0  0  0  0  0  0
  -22.6192  -13.8802   18.3159 O   0  0  0  0  0  0  0  0  0  0  0  0
  -25.6132  -31.1352   23.0985 O   0  0  0  0  0  0  0  0  0  0  0  0
  -21.9571  -32.0860   21.4191 O   0  0  0  0  0  0  0  0  0  0  0  0
  -20.8235  -27.4798   21.2837 O   0  0  0  0  0  0  0  0  0  0  0  0
  -31.7038  -15.0822   19.8218 O   0  0  0  0  0  0  0  0  0  0  0  0
  -31.5580  -17.6065   21.4108 O   0  0  0  0  0  0  0  0  0  0  0  0
  -21.2486   -8.1706   23.4255 O   0  0  0  0  0  0  0  0  0  0  0  0
  -28.5170  -20.3239   19.7485 O   0  0  0  0  0  0  0  0  0  0  0  0
  -27.3523  -25.5502   21.2362 O   0  0  0  0  0  0  0  0  0  1  0  0
  -22.5587   -2.8171   23.5938 F   0  0  0  0  0  0  0  0  0  0  0  0
  -19.4861   -6.2495   22.5059 F   0  0  0  0  0  0  0  0  0  0  0  0
  1  2  1  0  0  0  0
  1  5  2  0  0  0  0
  2  6  2  0  0  0  0
  3  8  2  0  0  0  0
  3 17  1  0  0  0  0
  4  9  1  0  0  0  0
  4 17  2  0  0  0  0
  5 19  1  0  0  0  0
  6 21  1  0  0  0  0
  7 10  2  0  0  0  0
  7 20  1  0  0  0  0
  8 26  1  0  0  0  0
  9 26  2  0  0  0  0
 10 27  1  0  0  0  0
 11 12  2  0  0  0  0
 11 28  1  0  0  0  0
 12 30  1  0  0  0  0
 13 22  2  0  0  0  0
 13 24  1  0  0  0  0
 14 23  1  0  0  0  0
 14 27  2  0  0  0  0
 15 24  2  0  0  0  0
 15 29  1  0  0  0  0
 16 30  2  0  0  0  0
 16 31  1  0  0  0  0
 17 32  1  0  0  0  0
 18 32  1  0  0  0  0
 18 33  2  0  0  0  0
 18 34  1  0  0  0  0
 19 21  2  0  0  0  0
 19 39  1  0  0  0  0
 20 23  2  0  0  0  0
 20 40  1  0  0  0  0
 21 50  1  0  0  0  0
 22 25  1  0  0  0  0
 22 41  1  0  0  0  0
 23 42  1  0  0  0  0
 24 61  1  0  0  0  0
 25 29  2  0  0  0  0
 25 70  1  0  0  0  0
 26 85  1  0  0  0  0
 27 87  1  0  0  0  0
 28 31  2  0  0  0  0
 28 85  1  0  0  0  0
 29 86  1  0  0  0  0
 30 88  1  0  0  0  0
 31 89  1  0  0  0  0
 32 68  2  0  0  0  0
 33 69  1  0  0  0  0
 33 73  1  0  0  0  0
 34 74  1  0  0  0  0
 34 79  2  0  0  0  0
 35 51  1  0  0  0  0
 35 75  1  0  0  0  0
 35 80  2  0  0  0  0
 36 64  1  0  0  0  0
 36 71  1  0  0  0  0
 36 81  2  0  0  0  0
 37 65  1  0  0  0  0
 37 76  1  0  0  0  0
 37 82  2  0  0  0  0
 38 72  1  0  0  0  0
 38 77  1  0  0  0  0
 38 83  2  0  0  0  0
 39 43  1  0  0  0  0
 40 51  1  0  0  0  0
 41 44  1  0  0  0  0
 42 71  1  0  0  0  0
 43 46  1  0  0  0  0
 44 53  1  0  0  0  0
 45 47  1  0  0  0  0
 45 48  1  0  0  0  0
 46 50  1  0  0  0  0
 47 52  1  0  0  0  0
 48 72  1  0  0  0  0
 49 52  1  0  0  0  0
 49 72  1  0  0  0  0
 50 75  1  0  0  0  0
 51 71  1  0  0  0  0
 52 69  1  0  0  0  0
 53 54  1  0  0  0  0
 53 70  1  0  0  0  0
 55 65  1  0  0  0  0
 56 67  1  0  0  0  0
 57 67  1  0  0  0  0
 58 67  1  0  0  0  0
 59 78  1  0  0  0  0
 60 86  1  0  0  0  0
 61 87  1  0  0  0  0
 62 66  1  0  0  0  0
 62 70  1  0  0  0  0
 63 66  1  0  0  0  0
 63 77  1  0  0  0  0
 64 67  1  0  0  0  0
 64 76  1  0  0  0  0
 65 78  1  0  0  0  0
 66 84  1  0  0  0  0
 68 69  1  0  0  0  0
M  CHG  1  78   1
M  ISO  4  38 100  61 101  77 100  87 101
M  END
> <Batch ID>
0114

> <Smiles>
CNC(C)C(=O)NC(C(=O)N1Cc2cc([101O:1][101CH2:1]c3cc4c(c(OC)c3)N(CC(O)C[100NH:0][100C:0](=O)N3CCCC(n5nc(-c6ccc(Oc7ccc(F)cc7F)cc6)c(C(N)=O)c5N)C3)C(C)CC4)ccc2CC1C(=O)NC1CCCc2ccccc21)C(C)(C)C

> <Shape>
0.333

> <Color>
0.125

> <Negative vol penalty>
0.000

$$$$

  -OEChem-04052320083D

 84 92  0     1  0  0  0  0  0999 V2000
  -17.5982  -25.7384   21.7037 C   0  0  0  0  0  0  0  0  0  0  0  0
  -18.9593  -25.4530   21.7405 C   0  0  0  0  0  0  0  0  0  0  0  0
  -22.4541  -13.7719   20.0407 C   0  0  0  0  0  0  0  0  0  0  0  0
  -23.6293  -13.1360   22.0536 C   0  0  0  0  0  0  0  0  0  0  0  0
  -17.1666  -27.0400   21.4521 C   0  0  0  0  0  0  0  0  0  0  0  0
  -19.8897  -26.4690   21.5245 C   0  0  0  0  0  0  0  0  0  0  0  0
  -23.7085  -26.3448   24.8481 C   0  0  0  0  0  0  0  0  0  0  0  0
  -29.1976  -21.4612   22.3813 C   0  0  0  0  0  0  0  0  0  0  0  0
  -29.7633  -21.4609   24.7301 C   0  0  0  0  0  0  0  0  0  0  0  0
  -28.0830  -22.2556   22.6498 C   0  0  0  0  0  0  0  0  0  0  0  0
  -28.6487  -22.2554   24.9986 C   0  0  0  0  0  0  0  0  0  0  0  0
  -21.8284  -12.5257   20.0123 C   0  0  0  0  0  0  0  0  0  0  0  0
  -23.0035  -11.8897   22.0252 C   0  0  0  0  0  0  0  0  0  0  0  0
  -24.7070  -25.3953   24.6355 C   0  0  0  0  0  0  0  0  0  0  0  0
  -23.3488   -8.9658   20.3632 C   0  0  0  0  0  0  0  0  0  0  0  0
  -24.1380   -7.8390   20.5932 C   0  0  0  0  0  0  0  0  0  0  0  0
  -26.1067  -27.0961   23.6520 C   0  0  0  0  0  0  0  0  0  0  0  0
  -22.7803   -7.2798   22.5118 C   0  0  0  0  0  0  0  0  0  0  0  0
  -23.3547  -14.0771   21.0613 C   0  0  0  0  0  0  0  0  0  0  0  0
  -23.5425  -16.5322   21.7283 C   0  0  0  0  0  0  0  0  0  0  0  0
  -18.0923  -28.0744   21.2425 C   0  0  0  0  0  0  0  0  0  0  0  0
  -23.8978  -27.6771   24.4536 C   0  0  0  0  0  0  0  0  0  0  0  0
  -19.4700  -27.7854   21.2685 C   0  0  0  0  0  0  0  0  0  0  0  0
  -25.1101  -28.0611   23.8630 C   0  0  0  0  0  0  0  0  0  0  0  0
  -30.0377  -21.0638   23.4214 C   0  0  0  0  0  0  0  0  0  0  0  0
  -27.8085  -22.6527   23.9585 C   0  0  0  0  0  0  0  0  0  0  0  0
  -22.1030  -11.5846   21.0045 C   0  0  0  0  0  0  0  0  0  0  0  0
  -25.9052  -25.7702   24.0348 C   0  0  0  0  0  0  0  0  0  0  0  0
  -22.2754   -9.2498   21.2075 C   0  0  0  0  0  0  0  0  0  0  0  0
  -23.8537   -6.9959   21.6675 C   0  0  0  0  0  0  0  0  0  0  0  0
  -21.9911   -8.4067   22.2818 C   0  0  0  0  0  0  0  0  0  0  0  0
  -24.0019  -15.3641   21.0909 C   0  0  0  0  0  0  0  0  0  0  0  0
  -24.5087  -17.4713   21.4619 C   0  0  0  0  0  0  0  0  0  0  0  0
  -22.3491  -16.7489   22.4929 C   0  0  0  0  0  0  0  0  0  0  0  0
  -22.4608  -29.6351   22.4029 C   0  0  0  0  0  0  0  0  0  0  0  0
  -24.4759  -31.8288   23.6872 C   0  0  0  0  0  0  0  0  0  0  0  0
  -27.4021  -32.4671   25.3232 C   0  0  0  0  0  0  0  0  0  0  0  0
  -30.3372  -17.0666   20.1520 C   0  0  0  0  0  0  0  0  0  0  0  0
  -17.5774  -29.4565   20.9272 C   0  0  0  0  0  0  0  0  0  0  0  0
  -22.8214  -28.6949   24.7142 C   0  0  0  0  0  0  0  0  0  0  0  0
  -25.3708  -29.4829   23.4398 C   0  0  0  0  0  0  0  0  0  0  0  0
  -18.6324  -30.5491   21.0802 C   0  0  0  0  0  0  0  0  0  0  0  0
  -27.8063  -18.6280   18.1941 C   0  0  0  0  0  0  0  0  0  0  0  0
  -19.9370  -30.1289   20.4107 C   0  0  0  0  0  0  0  0  0  0  0  0
  -26.5028  -18.0740   18.7720 C   0  0  0  0  0  0  0  0  0  0  0  0
  -28.9137  -17.5765   18.1898 C   0  0  0  0  0  0  0  0  0  0  0  0
  -27.8626  -16.3835   20.0728 C   0  0  0  0  0  0  0  0  0  0  0  0
  -20.5102  -28.8653   21.0637 C   0  0  1  0  0  0  0  0  0  0  0  0
  -22.9211  -29.9162   23.8054 C   0  0  1  0  0  0  0  0  0  0  0  0
  -26.7320  -17.4237   20.1497 C   0  0  2  0  0  0  0  0  0  0  0  0
  -28.7960  -34.3604   26.2006 C   0  0  0  0  0  0  0  0  0  0  0  0
  -25.3837  -32.4737   20.8464 C   0  0  0  0  0  0  0  0  0  0  0  0
  -27.3802  -33.6280   21.8210 C   0  0  0  0  0  0  0  0  0  0  0  0
  -25.0863  -34.4688   22.3248 C   0  0  0  0  0  0  0  0  0  0  0  0
  -32.7178  -15.7407   21.4171 C   0  0  0  0  0  0  0  0  0  0  0  0
  -31.3629  -15.7670   23.5170 C   0  0  0  0  0  0  0  0  0  0  0  0
  -27.2076  -31.4746   28.1046 C   0  0  0  0  0  0  0  0  0  0  0  0
  -31.2296  -20.2144   23.1352 C   0  0  0  0  0  0  0  0  0  0  0  0
  -26.6103  -23.5088   24.2462 C   0  0  0  0  0  0  0  0  0  1  0  0
  -32.0578  -17.9424   22.5099 C   0  0  0  0  0  0  0  0  0  0  0  0
  -25.8731  -32.3083   23.3761 C   0  0  1  0  0  0  0  0  0  0  0  0
  -27.7147  -33.3412   26.5243 C   0  0  2  0  0  0  0  0  0  0  0  0
  -25.9255  -33.1924   22.0982 C   0  0  0  0  0  0  0  0  0  0  0  0
  -31.6300  -16.4981   22.1927 C   0  0  0  0  0  0  0  0  0  0  0  0
  -25.1690  -15.5424   20.4664 N   0  0  0  0  0  0  0  0  0  0  0  0
  -25.4512  -16.8336   20.7101 N   0  0  0  0  0  0  0  0  0  0  0  0
  -24.2852  -30.4399   23.7101 N   0  0  0  0  0  0  0  0  0  0  0  0
  -29.0815  -17.0001   19.5261 N   0  0  0  0  0  0  0  0  0  0  0  0
  -24.6355  -18.7722   21.7997 N   0  0  0  0  0  0  0  0  0  0  0  0
  -21.4647  -15.6761   22.6694 N   0  0  0  0  0  0  0  0  0  0  0  0
  -21.1546  -29.1923   22.3176 N   0  0  0  0  0  0  0  0  0  0  0  0
  -26.3548  -32.9726   24.5824 N   0  0  0  0  0  0  0  0  0  0  0  0
  -30.4081  -16.5019   21.4196 N   0  0  0  0  0  0  0  0  0  0  0  0
  -28.1834  -32.5052   27.6655 N   0  3  0  0  0  0  0  0  0  0  0  0
  -30.8883  -18.7926   22.8534 N   0  3  0  0  0  0  0  0  0  0  0  0
  -22.0672  -17.8653   22.9906 O   0  0  0  0  0  0  0  0  0  0  0  0
  -23.2330  -29.8086   21.4674 O   0  0  0  0  0  0  0  0  0  0  0  0
  -23.5880  -32.6559   23.9090 O   0  0  0  0  0  0  0  0  0  0  0  0
  -28.0272  -31.4407   25.0657 O   0  0  0  0  0  0  0  0  0  0  0  0
  -31.3208  -17.5950   19.6227 O   0  0  0  0  0  0  0  0  0  0  0  0
  -21.4923  -10.3685   20.9773 O   0  0  0  0  0  0  0  0  0  0  0  0
  -26.8811  -24.8452   23.8256 O   0  0  0  0  0  0  0  0  0  1  0  0
  -24.6107   -5.9130   21.8874 F   0  0  0  0  0  0  0  0  0  0  0  0
  -20.9605   -8.6737   23.0956 F   0  0  0  0  0  0  0  0  0  0  0  0
  1  2  1  0  0  0  0
  1  5  2  0  0  0  0
  2  6  2  0  0  0  0
  3 12  2  0  0  0  0
  3 19  1  0  0  0  0
  4 13  1  0  0  0  0
  4 19  2  0  0  0  0
  5 21  1  0  0  0  0
  6 23  1  0  0  0  0
  7 14  2  0  0  0  0
  7 22  1  0  0  0  0
  8 10  2  0  0  0  0
  8 25  1  0  0  0  0
  9 11  1  0  0  0  0
  9 25  2  0  0  0  0
 10 26  1  0  0  0  0
 11 26  2  0  0  0  0
 12 27  1  0  0  0  0
 13 27  2  0  0  0  0
 14 28  1  0  0  0  0
 15 16  2  0  0  0  0
 15 29  1  0  0  0  0
 16 30  1  0  0  0  0
 17 24  1  0  0  0  0
 17 28  2  0  0  0  0
 18 30  2  0  0  0  0
 18 31  1  0  0  0  0
 19 32  1  0  0  0  0
 20 32  1  0  0  0  0
 20 33  2  0  0  0  0
 20 34  1  0  0  0  0
 21 23  2  0  0  0  0
 21 39  1  0  0  0  0
 22 24  2  0  0  0  0
 22 40  1  0  0  0  0
 23 48  1  0  0  0  0
 24 41  1  0  0  0  0
 25 58  1  0  0  0  0
 26 59  1  0  0  0  0
 27 81  1  0  0  0  0
 28 82  1  0  0  0  0
 29 31  2  0  0  0  0
 29 81  1  0  0  0  0
 30 83  1  0  0  0  0
 31 84  1  0  0  0  0
 32 65  2  0  0  0  0
 33 66  1  0  0  0  0
 33 69  1  0  0  0  0
 34 70  1  0  0  0  0
 34 76  2  0  0  0  0
 35 49  1  0  0  0  0
 35 71  1  0  0  0  0
 35 77  2  0  0  0  0
 36 61  1  0  0  0  0
 36 67  1  0  0  0  0
 36 78  2  0  0  0  0
 37 62  1  0  0  0  0
 37 72  1  0  0  0  0
 37 79  2  0  0  0  0
 38 68  1  0  0  0  0
 38 73  1  0  0  0  0
 38 80  2  0  0  0  0
 39 42  1  0  0  0  0
 40 49  1  0  0  0  0
 41 67  1  0  0  0  0
 42 44  1  0  0  0  0
 43 45  1  0  0  0  0
 43 46  1  0  0  0  0
 44 48  1  0  0  0  0
 45 50  1  0  0  0  0
 46 68  1  0  0  0  0
 47 50  1  0  0  0  0
 47 68  1  0  0  0  0
 48 71  1  0  0  0  0
 49 67  1  0  0  0  0
 50 66  1  0  0  0  0
 51 62  1  0  0  0  0
 52 63  1  0  0  0  0
 53 63  1  0  0  0  0
 54 63  1  0  0  0  0
 55 64  1  0  0  0  0
 56 64  1  0  0  0  0
 57 74  1  0  0  0  0
 58 75  1  0  0  0  0
 59 82  1  0  0  0  0
 60 64  1  0  0  0  0
 60 75  1  0  0  0  0
 61 63  1  0  0  0  0
 61 72  1  0  0  0  0
 62 74  1  0  0  0  0
 64 73  1  0  0  0  0
 65 66  1  0  0  0  0
M  CHG  2  74   1  75   1
M  ISO  4  38 100  59 101  73 100  82 101
M  END
> <Batch ID>
0114

> <Smiles>
CNC(C)C(=O)NC(C(=O)N1Cc2cc([101O:1][101CH2:1]c3ccc(CNCC(C)(C)[100NH:0][100C:0](=O)N4CCCC(n5nc(-c6ccc(Oc7ccc(F)cc7F)cc6)c(C(N)=O)c5N)C4)cc3)ccc2CC1C(=O)NC1CCCc2ccccc21)C(C)(C)C

> <Shape>
0.238

> <Color>
0.064

> <Negative vol penalty>
0.000

$$$$

  -OEChem-04052320083D

 85 93  0     1  0  0  0  0  0999 V2000
  -27.2783  -34.4909   12.9365 C   0  0  0  0  0  0  0  0  0  0  0  0
  -27.2677  -33.4210   13.8257 C   0  0  0  0  0  0  0  0  0  0  0  0
  -23.1323   -9.7849   19.8859 C   0  0  0  0  0  0  0  0  0  0  0  0
  -23.8837   -9.7706   22.1820 C   0  0  0  0  0  0  0  0  0  0  0  0
  -27.7780  -35.7278   13.3418 C   0  0  0  0  0  0  0  0  0  0  0  0
  -27.7578  -33.5871   15.1205 C   0  0  0  0  0  0  0  0  0  0  0  0
  -24.7377  -31.5206   18.6210 C   0  0  0  0  0  0  0  0  0  0  0  0
  -29.4619  -19.3271   22.5243 C   0  0  0  0  0  0  0  0  0  0  0  0
  -31.1040  -19.2188   20.7555 C   0  0  0  0  0  0  0  0  0  0  0  0
  -29.3336  -17.9386   22.4903 C   0  0  0  0  0  0  0  0  0  0  0  0
  -30.9758  -17.8302   20.7215 C   0  0  0  0  0  0  0  0  0  0  0  0
  -22.4212   -8.6063   20.1112 C   0  0  0  0  0  0  0  0  0  0  0  0
  -23.1725   -8.5920   22.4074 C   0  0  0  0  0  0  0  0  0  0  0  0
  -24.8027  -30.1373   18.7816 C   0  0  0  0  0  0  0  0  0  0  0  0
  -19.9667   -7.6904   22.9819 C   0  0  0  0  0  0  0  0  0  0  0  0
  -19.2071   -7.6066   24.1488 C   0  0  0  0  0  0  0  0  0  0  0  0
  -26.2190  -30.4340   20.7117 C   0  0  0  0  0  0  0  0  0  0  0  0
  -20.5014   -5.6921   24.8538 C   0  0  0  0  0  0  0  0  0  0  0  0
  -23.8637  -10.3670   20.9213 C   0  0  0  0  0  0  0  0  0  0  0  0
  -24.1329  -12.9028   20.8499 C   0  0  0  0  0  0  0  0  0  0  0  0
  -28.2656  -35.9117   14.6453 C   0  0  0  0  0  0  0  0  0  0  0  0
  -25.4228  -32.3722   19.4995 C   0  0  0  0  0  0  0  0  0  0  0  0
  -28.2658  -34.8273   15.5433 C   0  0  0  0  0  0  0  0  0  0  0  0
  -26.1589  -31.8279   20.5616 C   0  0  0  0  0  0  0  0  0  0  0  0
  -30.3471  -19.9672   21.6569 C   0  0  0  0  0  0  0  0  0  0  0  0
  -30.0906  -17.1902   21.5889 C   0  0  0  0  0  0  0  0  0  0  0  0
  -22.4412   -8.0099   21.3719 C   0  0  0  0  0  0  0  0  0  0  0  0
  -25.5458  -29.5936   19.8253 C   0  0  0  0  0  0  0  0  0  0  0  0
  -20.9935   -6.7750   22.7508 C   0  0  0  0  0  0  0  0  0  0  0  0
  -19.4745   -6.6075   25.0847 C   0  0  0  0  0  0  0  0  0  0  0  0
  -21.2609   -5.7759   23.6868 C   0  0  0  0  0  0  0  0  0  0  0  0
  -24.5989  -11.5842   20.6890 C   0  0  0  0  0  0  0  0  0  0  0  0
  -25.2042  -13.6901   20.5051 C   0  0  0  0  0  0  0  0  0  0  0  0
  -22.8466  -13.3738   21.2733 C   0  0  0  0  0  0  0  0  0  0  0  0
  -27.7530  -34.5117   19.1889 C   0  0  0  0  0  0  0  0  0  0  0  0
  -27.1065  -35.0928   22.3140 C   0  0  0  0  0  0  0  0  0  0  0  0
  -25.8384  -33.9539   25.2706 C   0  0  0  0  0  0  0  0  0  0  0  0
  -30.6373  -14.8891   20.7213 C   0  0  0  0  0  0  0  0  0  0  0  0
  -28.8395  -37.2544   15.0230 C   0  0  0  0  0  0  0  0  0  0  0  0
  -25.3208  -33.8631   19.3286 C   0  0  0  0  0  0  0  0  0  0  0  0
  -26.8962  -32.6994   21.5442 C   0  0  0  0  0  0  0  0  0  0  0  0
  -28.9948  -37.4486   16.5291 C   0  0  0  0  0  0  0  0  0  0  0  0
  -29.6013  -12.4893   18.3038 C   0  0  0  0  0  0  0  0  0  0  0  0
  -29.6393  -36.2195   17.1622 C   0  0  0  0  0  0  0  0  0  0  0  0
  -28.1691  -12.1483   18.7221 C   0  0  0  0  0  0  0  0  0  0  0  0
  -30.5052  -12.7217   19.5132 C   0  0  0  0  0  0  0  0  0  0  0  0
  -28.5734  -13.3648   20.9001 C   0  0  0  0  0  0  0  0  0  0  0  0
  -28.7659  -34.9748   16.9639 C   0  0  1  0  0  0  0  0  0  0  0  0
  -26.4773  -34.6192   19.9754 C   0  0  1  0  0  0  0  0  0  0  0  0
  -27.6100  -13.1858   19.7154 C   0  0  2  0  0  0  0  0  0  0  0  0
  -25.4833  -34.6427   27.6575 C   0  0  0  0  0  0  0  0  0  0  0  0
  -30.0716  -34.6490   22.8806 C   0  0  0  0  0  0  0  0  0  0  0  0
  -29.5002  -34.4049   25.3059 C   0  0  0  0  0  0  0  0  0  0  0  0
  -29.0450  -36.5570   24.1296 C   0  0  0  0  0  0  0  0  0  0  0  0
  -29.4232  -26.2483   19.8891 C   0  0  0  0  0  0  0  0  0  0  0  0
  -22.9013  -33.6750   25.0358 C   0  0  0  0  0  0  0  0  0  0  0  0
  -30.4849  -21.4608   21.6936 C   0  0  0  0  0  0  0  0  0  0  0  0
  -28.2027  -24.2591   20.4600 C   0  0  0  0  0  0  0  0  0  0  0  0
  -27.0255  -26.3087   20.0289 C   0  0  0  0  0  0  0  0  0  0  0  0
  -29.4124  -23.6480   21.1417 C   0  0  0  0  0  0  0  0  0  0  0  0
  -26.8034  -27.7151   20.5639 C   0  0  0  0  0  0  0  0  0  1  0  0
  -27.6029  -34.5417   23.6289 C   0  0  1  0  0  0  0  0  0  0  0  0
  -24.8779  -34.5830   26.2637 C   0  0  2  0  0  0  0  0  0  0  0  0
  -29.0427  -35.0214   23.9668 C   0  0  0  0  0  0  0  0  0  0  0  0
  -25.8675  -11.5327   20.2740 N   0  0  0  0  0  0  0  0  0  0  0  0
  -26.2076  -12.8288   20.1713 N   0  0  0  0  0  0  0  0  0  0  0  0
  -26.7709  -34.1507   21.3313 N   0  0  0  0  0  0  0  0  0  0  0  0
  -29.9137  -13.7193   20.4075 N   0  0  0  0  0  0  0  0  0  0  0  0
  -25.3764  -15.0282   20.4579 N   0  0  0  0  0  0  0  0  0  0  0  0
  -21.8602  -12.4297   21.5894 N   0  0  0  0  0  0  0  0  0  0  0  0
  -29.9607  -15.7796   21.5543 N   0  0  0  0  0  0  0  0  0  0  0  0
  -27.6566  -34.9824   17.8933 N   0  0  0  0  0  0  0  0  0  0  0  0
  -26.6026  -34.9042   24.6271 N   0  0  0  0  0  0  0  0  0  0  0  0
  -28.2408  -25.7189   20.5724 N   0  0  2  0  0  0  0  0  0  0  0  0
  -23.6149  -33.7949   26.3333 N   0  3  0  0  0  0  0  0  0  0  0  0
  -29.3350  -22.1681   21.0672 N   0  3  0  0  0  0  0  0  0  0  0  0
  -22.5747  -14.5958   21.3527 O   0  0  0  0  0  0  0  0  0  0  0  0
  -28.7514  -34.0382   19.7187 O   0  0  0  0  0  0  0  0  0  0  0  0
  -27.0129  -36.3140   22.1669 O   0  0  0  0  0  0  0  0  0  0  0  0
  -25.9066  -32.7406   25.0871 O   0  0  0  0  0  0  0  0  0  0  0  0
  -31.7627  -15.0991   20.2615 O   0  0  0  0  0  0  0  0  0  0  0  0
  -21.7472   -6.8599   21.5922 O   0  0  0  0  0  0  0  0  0  0  0  0
  -25.6115  -28.2437   19.9839 O   0  0  0  0  0  0  0  0  0  1  0  0
  -18.7460   -6.5282   26.2060 F   0  0  0  0  0  0  0  0  0  0  0  0
  -22.2469   -4.8944   23.4710 F   0  0  0  0  0  0  0  0  0  0  0  0
  1  2  1  0  0  0  0
  1  5  2  0  0  0  0
  2  6  2  0  0  0  0
  3 12  2  0  0  0  0
  3 19  1  0  0  0  0
  4 13  1  0  0  0  0
  4 19  2  0  0  0  0
  5 21  1  0  0  0  0
  6 23  1  0  0  0  0
  7 14  2  0  0  0  0
  7 22  1  0  0  0  0
  8 10  2  0  0  0  0
  8 25  1  0  0  0  0
  9 11  1  0  0  0  0
  9 25  2  0  0  0  0
 10 26  1  0  0  0  0
 11 26  2  0  0  0  0
 12 27  1  0  0  0  0
 13 27  2  0  0  0  0
 14 28  1  0  0  0  0
 15 16  2  0  0  0  0
 15 29  1  0  0  0  0
 16 30  1  0  0  0  0
 17 24  1  0  0  0  0
 17 28  2  0  0  0  0
 18 30  2  0  0  0  0
 18 31  1  0  0  0  0
 19 32  1  0  0  0  0
 20 32  1  0  0  0  0
 20 33  2  0  0  0  0
 20 34  1  0  0  0  0
 21 23  2  0  0  0  0
 21 39  1  0  0  0  0
 22 24  2  0  0  0  0
 22 40  1  0  0  0  0
 23 48  1  0  0  0  0
 24 41  1  0  0  0  0
 25 57  1  0  0  0  0
 26 71  1  0  0  0  0
 27 82  1  0  0  0  0
 28 83  1  0  0  0  0
 29 31  2  0  0  0  0
 29 82  1  0  0  0  0
 30 84  1  0  0  0  0
 31 85  1  0  0  0  0
 32 65  2  0  0  0  0
 33 66  1  0  0  0  0
 33 69  1  0  0  0  0
 34 70  1  0  0  0  0
 34 77  2  0  0  0  0
 35 49  1  0  0  0  0
 35 72  1  0  0  0  0
 35 78  2  0  0  0  0
 36 62  1  0  0  0  0
 36 67  1  0  0  0  0
 36 79  2  0  0  0  0
 37 63  1  0  0  0  0
 37 73  1  0  0  0  0
 37 80  2  0  0  0  0
 38 68  1  0  0  0  0
 38 71  1  0  0  0  0
 38 81  2  0  0  0  0
 39 42  1  0  0  0  0
 40 49  1  0  0  0  0
 41 67  1  0  0  0  0
 42 44  1  0  0  0  0
 43 45  1  0  0  0  0
 43 46  1  0  0  0  0
 44 48  1  0  0  0  0
 45 50  1  0  0  0  0
 46 68  1  0  0  0  0
 47 50  1  0  0  0  0
 47 68  1  0  0  0  0
 48 72  1  0  0  0  0
 49 67  1  0  0  0  0
 50 66  1  0  0  0  0
 51 63  1  0  0  0  0
 52 64  1  0  0  0  0
 53 64  1  0  0  0  0
 54 64  1  0  0  0  0
 55 74  1  0  0  0  0
 56 75  1  0  0  0  0
 57 76  1  0  0  0  0
 58 60  1  0  0  0  0
 58 74  1  0  0  0  0
 59 61  1  0  0  0  0
 59 74  1  0  0  0  0
 60 76  1  0  0  0  0
 61 83  1  0  0  0  0
 62 64  1  0  0  0  0
 62 73  1  0  0  0  0
 63 75  1  0  0  0  0
 65 66  1  0  0  0  0
M  CHG  2  75   1  76   1
M  ISO  4  38 100  61 101  71 100  83 101
M  END
> <Batch ID>
0114

> <Smiles>
CNC(C)C(=O)NC(C(=O)N1Cc2cc([101O:1][101CH2:1]CN(C)CCNCc3ccc([100NH:0][100C:0](=O)N4CCCC(n5nc(-c6ccc(Oc7ccc(F)cc7F)cc6)c(C(N)=O)c5N)C4)cc3)ccc2CC1C(=O)NC1CCCc2ccccc21)C(C)(C)C

> <Shape>
0.293

> <Color>
0.190

> <Negative vol penalty>
0.000

$$$$

  -OEChem-04052320083D

 86 94  0     1  0  0  0  0  0999 V2000
  -24.7700  -22.3906   16.3530 C   0  0  0  0  0  0  0  0  0  0  0  0
  -25.6357  -21.4266   16.8596 C   0  0  0  0  0  0  0  0  0  0  0  0
  -23.4787  -29.1172   19.2252 C   0  0  0  0  0  0  0  0  0  0  0  0
  -23.8605  -28.7199   21.5775 C   0  0  0  0  0  0  0  0  0  0  0  0
  -23.5216  -22.5838   16.9429 C   0  0  0  0  0  0  0  0  0  0  0  0
  -25.2539  -20.6561   17.9573 C   0  0  0  0  0  0  0  0  0  0  0  0
  -26.3264  -15.7443   17.3503 C   0  0  0  0  0  0  0  0  0  0  0  0
  -22.1219  -29.3173   19.4792 C   0  0  0  0  0  0  0  0  0  0  0  0
  -22.5037  -28.9201   21.8315 C   0  0  0  0  0  0  0  0  0  0  0  0
  -27.6502  -15.3528   17.5451 C   0  0  0  0  0  0  0  0  0  0  0  0
  -19.6293  -27.1637   21.5422 C   0  0  0  0  0  0  0  0  0  0  0  0
  -18.9883  -26.2598   22.3894 C   0  0  0  0  0  0  0  0  0  0  0  0
  -28.0421  -19.1007   20.7575 C   0  0  0  0  0  0  0  0  0  0  0  0
  -27.0886  -14.5767   19.7591 C   0  0  0  0  0  0  0  0  0  0  0  0
  -18.4374  -28.0645   23.8983 C   0  0  0  0  0  0  0  0  0  0  0  0
  -27.7790  -20.0267   21.7426 C   0  0  0  0  0  0  0  0  0  0  0  0
  -30.0046  -19.8585   21.5600 C   0  0  0  0  0  0  0  0  0  0  0  0
  -24.3480  -28.8184   20.2743 C   0  0  0  0  0  0  0  0  0  0  0  0
  -26.7674  -29.5835   20.0117 C   0  0  0  0  0  0  0  0  0  0  0  0
  -23.1204  -21.8086   18.0423 C   0  0  0  0  0  0  0  0  0  0  0  0
  -25.3745  -15.5646   18.3642 C   0  0  0  0  0  0  0  0  0  0  0  0
  -23.9995  -20.8401   18.5634 C   0  0  0  0  0  0  0  0  0  0  0  0
  -25.7528  -14.9644   19.5737 C   0  0  0  0  0  0  0  0  0  0  0  0
  -29.4500  -18.9943   20.6418 C   0  0  0  0  0  0  0  0  0  0  0  0
  -21.6344  -29.2188   20.7824 C   0  0  0  0  0  0  0  0  0  0  0  0
  -28.0322  -14.7716   18.7507 C   0  0  0  0  0  0  0  0  0  0  0  0
  -19.6744  -28.5181   21.8731 C   0  0  0  0  0  0  0  0  0  0  0  0
  -18.3923  -26.7102   23.5674 C   0  0  0  0  0  0  0  0  0  0  0  0
  -19.0785  -28.9685   23.0511 C   0  0  0  0  0  0  0  0  0  0  0  0
  -25.7496  -28.6109   20.0124 C   0  0  0  0  0  0  0  0  0  0  0  0
  -27.9102  -28.8844   19.7090 C   0  0  0  0  0  0  0  0  0  0  0  0
  -26.6869  -30.9929   20.2623 C   0  0  0  0  0  0  0  0  0  0  0  0
  -23.5362  -17.5048   20.0846 C   0  0  0  0  0  0  0  0  0  0  0  0
  -22.2907  -14.7173   21.1803 C   0  0  0  0  0  0  0  0  0  0  0  0
  -22.7082  -11.3747   21.7283 C   0  0  0  0  0  0  0  0  0  0  0  0
  -29.4792  -23.1458   20.3853 C   0  0  0  0  0  0  0  0  0  0  0  0
  -21.7802  -22.0863   18.6760 C   0  0  0  0  0  0  0  0  0  0  0  0
  -23.9447  -15.9678   18.1285 C   0  0  0  0  0  0  0  0  0  0  0  0
  -24.7648  -14.7309   20.6862 C   0  0  0  0  0  0  0  0  0  0  0  0
  -21.3016  -20.9712   19.6021 C   0  0  0  0  0  0  0  0  0  0  0  0
  -29.4105  -25.0028   17.3483 C   0  0  0  0  0  0  0  0  0  0  0  0
  -22.4271  -20.5300   20.5324 C   0  0  0  0  0  0  0  0  0  0  0  0
  -28.5563  -26.2258   17.6866 C   0  0  0  0  0  0  0  0  0  0  0  0
  -28.9018  -23.7468   18.0525 C   0  0  0  0  0  0  0  0  0  0  0  0
  -27.8970  -25.0975   19.8525 C   0  0  0  0  0  0  0  0  0  0  0  0
  -23.6115  -19.9675   19.7373 C   0  0  1  0  0  0  0  0  0  0  0  0
  -23.1705  -16.2073   19.4210 C   0  0  1  0  0  0  0  0  0  0  0  0
  -28.4044  -26.3997   19.2097 C   0  0  2  0  0  0  0  0  0  0  0  0
  -21.5290   -9.3710   22.6728 C   0  0  0  0  0  0  0  0  0  0  0  0
  -31.0699  -14.1951   17.3121 C   0  0  0  0  0  0  0  0  0  0  0  0
  -22.8505  -15.7229   24.0061 C   0  0  0  0  0  0  0  0  0  0  0  0
  -22.5571  -13.3752   24.8249 C   0  0  0  0  0  0  0  0  0  0  0  0
  -20.6544  -14.5591   23.7290 C   0  0  0  0  0  0  0  0  0  0  0  0
  -27.8013  -21.9948   23.8403 C   0  0  0  0  0  0  0  0  0  0  0  0
  -29.8934  -20.8107   24.4545 C   0  0  0  0  0  0  0  0  0  0  0  0
  -22.7898   -9.9577   19.1313 C   0  0  0  0  0  0  0  0  0  0  0  0
  -30.2039  -18.1013   19.6891 C   0  0  0  0  0  0  0  0  0  0  0  0
  -30.5170  -16.7098   20.2593 C   0  0  0  0  0  0  0  0  0  0  0  0
  -29.9732  -22.6747   22.7713 C   0  0  0  0  0  0  0  0  0  0  0  0
  -22.6057  -13.7812   22.3221 C   0  0  1  0  0  0  0  0  0  0  0  0
  -21.8174  -10.1846   21.4207 C   0  0  2  0  0  0  0  0  0  0  0  0
  -30.3308  -15.1335   18.2593 C   0  0  2  0  0  0  0  0  0  1  0  0
  -31.2710  -15.7911   19.2828 C   0  0  2  0  0  0  0  0  0  0  0  0
  -22.1862  -14.3656   23.7005 C   0  0  0  0  0  0  0  0  0  0  0  0
  -29.1395  -21.4633   23.2708 C   0  0  0  0  0  0  0  0  0  0  0  0
  -26.2057  -27.3872   19.7322 N   0  0  0  0  0  0  0  0  0  0  0  0
  -28.9795  -20.4805   22.2236 N   0  0  0  0  0  0  0  0  0  0  0  0
  -27.5226  -27.5862   19.5525 N   0  0  0  0  0  0  0  0  0  0  0  0
  -23.3802  -15.1480   20.4100 N   0  0  0  0  0  0  0  0  0  0  0  0
  -28.7818  -23.9779   19.4941 N   0  0  0  0  0  0  0  0  0  0  0  0
  -29.1988  -29.2597   19.5639 N   0  0  0  0  0  0  0  0  0  0  0  0
  -25.4348  -31.5484   20.5586 N   0  0  0  0  0  0  0  0  0  0  0  0
  -23.3282  -18.6191   19.2944 N   0  0  0  0  0  0  0  0  0  0  0  0
  -21.9710  -12.5093   21.9942 N   0  0  0  0  0  0  0  0  0  0  0  0
  -29.3153  -23.4374   21.7339 N   0  0  0  0  0  0  0  0  0  0  0  0
  -22.4708   -9.2932   20.4211 N   0  3  0  0  0  0  0  0  0  0  0  0
  -27.6929  -31.7403   20.2085 O   0  0  0  0  0  0  0  0  0  0  0  0
  -23.9732  -17.4958   21.2294 O   0  0  0  0  0  0  0  0  0  0  0  0
  -21.1203  -15.0482   20.9750 O   0  0  0  0  0  0  0  0  0  0  0  0
  -23.9351  -11.3041   21.7358 O   0  0  0  0  0  0  0  0  0  0  0  0
  -30.1991  -22.2154   20.0069 O   0  0  0  0  0  0  0  0  0  0  0  0
  -31.9649  -14.7861   20.0204 O   0  0  0  0  0  0  0  0  0  0  0  0
  -20.3105  -29.4144   21.0307 O   0  0  0  0  0  0  0  0  0  0  0  0
  -29.3238  -14.3891   18.9437 O   0  0  0  0  0  0  0  0  0  1  0  0
  -17.7755  -25.8423   24.3800 F   0  0  0  0  0  0  0  0  0  0  0  0
  -19.1176  -30.2685   23.3737 F   0  0  0  0  0  0  0  0  0  0  0  0
  1  2  1  0  0  0  0
  1  5  2  0  0  0  0
  2  6  2  0  0  0  0
  3  8  2  0  0  0  0
  3 18  1  0  0  0  0
  4  9  1  0  0  0  0
  4 18  2  0  0  0  0
  5 20  1  0  0  0  0
  6 22  1  0  0  0  0
  7 10  2  0  0  0  0
  7 21  1  0  0  0  0
  8 25  1  0  0  0  0
  9 25  2  0  0  0  0
 10 26  1  0  0  0  0
 11 12  2  0  0  0  0
 11 27  1  0  0  0  0
 12 28  1  0  0  0  0
 13 16  2  0  0  0  0
 13 24  1  0  0  0  0
 14 23  1  0  0  0  0
 14 26  2  0  0  0  0
 15 28  2  0  0  0  0
 15 29  1  0  0  0  0
 16 67  1  0  0  0  0
 17 24  2  0  0  0  0
 17 67  1  0  0  0  0
 18 30  1  0  0  0  0
 19 30  1  0  0  0  0
 19 31  2  0  0  0  0
 19 32  1  0  0  0  0
 20 22  2  0  0  0  0
 20 37  1  0  0  0  0
 21 23  2  0  0  0  0
 21 38  1  0  0  0  0
 22 46  1  0  0  0  0
 23 39  1  0  0  0  0
 24 57  1  0  0  0  0
 25 83  1  0  0  0  0
 26 84  1  0  0  0  0
 27 29  2  0  0  0  0
 27 83  1  0  0  0  0
 28 85  1  0  0  0  0
 29 86  1  0  0  0  0
 30 66  2  0  0  0  0
 31 68  1  0  0  0  0
 31 71  1  0  0  0  0
 32 72  1  0  0  0  0
 32 77  2  0  0  0  0
 33 47  1  0  0  0  0
 33 73  1  0  0  0  0
 33 78  2  0  0  0  0
 34 60  1  0  0  0  0
 34 69  1  0  0  0  0
 34 79  2  0  0  0  0
 35 61  1  0  0  0  0
 35 74  1  0  0  0  0
 35 80  2  0  0  0  0
 36 70  1  0  0  0  0
 36 75  1  0  0  0  0
 36 81  2  0  0  0  0
 37 40  1  0  0  0  0
 38 47  1  0  0  0  0
 39 69  1  0  0  0  0
 40 42  1  0  0  0  0
 41 43  1  0  0  0  0
 41 44  1  0  0  0  0
 42 46  1  0  0  0  0
 43 48  1  0  0  0  0
 44 70  1  0  0  0  0
 45 48  1  0  0  0  0
 45 70  1  0  0  0  0
 46 73  1  0  0  0  0
 47 69  1  0  0  0  0
 48 68  1  0  0  0  0
 49 61  1  0  0  0  0
 50 62  1  0  0  0  0
 51 64  1  0  0  0  0
 52 64  1  0  0  0  0
 53 64  1  0  0  0  0
 54 65  1  0  0  0  0
 55 65  1  0  0  0  0
 56 76  1  0  0  0  0
 57 58  1  0  0  0  0
 58 63  1  0  0  0  0
 59 65  1  0  0  0  0
 59 75  1  0  0  0  0
 60 64  1  0  0  0  0
 60 74  1  0  0  0  0
 61 76  1  0  0  0  0
 62 63  1  0  0  0  0
 62 84  1  0  0  0  0
 63 82  1  0  0  0  0
 65 67  1  0  0  0  0
 66 68  1  0  0  0  0
M  CHG  1  76   1
M  ISO  4  36 100  62 101  75 100  84 101
M  END
> <Batch ID>
0114

> <Smiles>
CNC(C)C(=O)NC(C(=O)N1Cc2cc([101O:1][101CH:1](C)C(O)CCc3ccn(C(C)(C)C[100NH:0][100C:0](=O)N4CCCC(n5nc(-c6ccc(Oc7ccc(F)cc7F)cc6)c(C(N)=O)c5N)C4)c3)ccc2CC1C(=O)NC1CCCc2ccccc21)C(C)(C)C

> <Shape>
0.247

> <Color>
0.064

> <Negative vol penalty>
0.000

$$$$

  -OEChem-04052320083D

 83 91  0     1  0  0  0  0  0999 V2000
  -36.2178  -21.7171   16.4734 C   0  0  0  0  0  0  0  0  0  0  0  0
  -35.8358  -22.9759   16.0233 C   0  0  0  0  0  0  0  0  0  0  0  0
  -23.3083   -9.8814   19.7764 C   0  0  0  0  0  0  0  0  0  0  0  0
  -23.7777   -9.8220   22.1456 C   0  0  0  0  0  0  0  0  0  0  0  0
  -35.6217  -20.5784   15.9357 C   0  0  0  0  0  0  0  0  0  0  0  0
  -34.8491  -23.0968   15.0442 C   0  0  0  0  0  0  0  0  0  0  0  0
  -27.2013  -22.7191   14.2548 C   0  0  0  0  0  0  0  0  0  0  0  0
  -22.6044   -8.6822   19.8858 C   0  0  0  0  0  0  0  0  0  0  0  0
  -23.0737   -8.6228   22.2550 C   0  0  0  0  0  0  0  0  0  0  0  0
  -26.2900  -21.9183   14.9418 C   0  0  0  0  0  0  0  0  0  0  0  0
  -19.5483   -7.6734   20.9228 C   0  0  0  0  0  0  0  0  0  0  0  0
  -18.3159   -7.5839   20.2757 C   0  0  0  0  0  0  0  0  0  0  0  0
  -27.4436  -22.3882   17.0076 C   0  0  0  0  0  0  0  0  0  0  0  0
  -19.1414   -5.7336   18.9597 C   0  0  0  0  0  0  0  0  0  0  0  0
  -23.8951  -10.4513   20.9063 C   0  0  0  0  0  0  0  0  0  0  0  0
  -24.1085  -12.9932   20.9286 C   0  0  0  0  0  0  0  0  0  0  0  0
  -34.6361  -20.6858   14.9407 C   0  0  0  0  0  0  0  0  0  0  0  0
  -28.2488  -23.3528   14.9385 C   0  0  0  0  0  0  0  0  0  0  0  0
  -34.2185  -21.9603   14.5063 C   0  0  0  0  0  0  0  0  0  0  0  0
  -28.3654  -23.1986   16.3273 C   0  0  0  0  0  0  0  0  0  0  0  0
  -22.4870   -8.0529   21.1251 C   0  0  0  0  0  0  0  0  0  0  0  0
  -26.4128  -21.7504   16.3180 C   0  0  0  0  0  0  0  0  0  0  0  0
  -20.5773   -6.7931   20.5883 C   0  0  0  0  0  0  0  0  0  0  0  0
  -18.1124   -6.6139   19.2941 C   0  0  0  0  0  0  0  0  0  0  0  0
  -20.3738   -5.8232   19.6068 C   0  0  0  0  0  0  0  0  0  0  0  0
  -24.6229  -11.6897   20.7938 C   0  0  0  0  0  0  0  0  0  0  0  0
  -25.1939  -13.8123   20.7350 C   0  0  0  0  0  0  0  0  0  0  0  0
  -22.7694  -13.4251   21.2043 C   0  0  0  0  0  0  0  0  0  0  0  0
  -31.4216  -23.2051   14.8148 C   0  0  0  0  0  0  0  0  0  0  0  0
  -31.2292  -25.6626   16.9234 C   0  0  0  0  0  0  0  0  0  0  0  0
  -29.4095  -27.3101   19.2943 C   0  0  0  0  0  0  0  0  0  0  0  0
  -29.7672  -15.2725   18.1202 C   0  0  0  0  0  0  0  0  0  0  0  0
  -34.0184  -19.4208   14.3991 C   0  0  0  0  0  0  0  0  0  0  0  0
  -29.2077  -24.2348   14.1869 C   0  0  0  0  0  0  0  0  0  0  0  0
  -29.4602  -23.8736   17.1110 C   0  0  0  0  0  0  0  0  0  0  0  0
  -33.3114  -19.6288   13.0637 C   0  0  0  0  0  0  0  0  0  0  0  0
  -30.1280  -12.7622   20.4711 C   0  0  0  0  0  0  0  0  0  0  0  0
  -32.3794  -20.8282   13.1503 C   0  0  0  0  0  0  0  0  0  0  0  0
  -28.6896  -12.3529   20.7875 C   0  0  0  0  0  0  0  0  0  0  0  0
  -30.3086  -13.0137   18.9782 C   0  0  0  0  0  0  0  0  0  0  0  0
  -29.4874  -17.2640   16.7065 C   0  0  0  0  0  0  0  0  0  0  0  0
  -27.9309  -13.6380   18.7299 C   0  0  0  0  0  0  0  0  0  0  0  0
  -28.3057  -15.1846   16.0687 C   0  0  0  0  0  0  0  0  0  0  0  0
  -28.3632  -18.1015   16.1264 C   0  0  0  0  0  0  0  0  0  0  0  0
  -33.1692  -22.1152   13.4203 C   0  0  1  0  0  0  0  0  0  0  0  0
  -30.5402  -24.4185   14.9067 C   0  0  1  0  0  0  0  0  0  0  0  0
  -27.6893  -13.3812   20.2305 C   0  0  1  0  0  0  0  0  0  0  0  0
  -27.1656  -15.9840   15.4382 C   0  0  1  0  0  0  0  0  0  0  0  0
  -29.5316  -29.2611   20.8679 C   0  0  0  0  0  0  0  0  0  0  0  0
  -23.6068  -16.4890   17.6595 C   0  0  0  0  0  0  0  0  0  0  0  0
  -33.0493  -24.0554   18.7710 C   0  0  0  0  0  0  0  0  0  0  0  0
  -32.3712  -25.5721   20.6439 C   0  0  0  0  0  0  0  0  0  0  0  0
  -33.5692  -26.4992   18.6620 C   0  0  0  0  0  0  0  0  0  0  0  0
  -24.1850  -16.0772   14.6882 C   0  0  0  0  0  0  0  0  0  0  0  0
  -27.0992  -28.6402   18.0089 C   0  0  0  0  0  0  0  0  0  0  0  0
  -25.9392  -16.1351   16.3288 C   0  0  0  0  0  0  0  0  0  0  0  0
  -24.6026  -18.7655   17.2608 C   0  0  0  0  0  0  0  0  0  0  0  0
  -24.9468  -19.8782   16.2759 C   0  0  0  0  0  0  0  0  0  1  0  0
  -31.1574  -25.7782   18.4269 C   0  0  1  0  0  0  0  0  0  0  0  0
  -29.1072  -28.7852   19.4873 C   0  0  2  0  0  0  0  0  0  0  0  0
  -23.9945  -17.5198   16.6000 C   0  0  1  0  0  0  0  0  0  0  0  0
  -32.5172  -25.4618   19.1112 C   0  0  0  0  0  0  0  0  0  0  0  0
  -25.9330  -11.6766   20.5345 N   0  0  0  0  0  0  0  0  0  0  0  0
  -26.2511  -12.9820   20.5046 N   0  0  0  0  0  0  0  0  0  0  0  0
  -30.3767  -24.7207   16.3301 N   0  0  0  0  0  0  0  0  0  0  0  0
  -29.3358  -13.9891   18.4854 N   0  0  0  0  0  0  0  0  0  0  0  0
  -29.0446  -15.9264   17.1019 N   0  0  0  0  0  0  0  0  0  0  0  0
  -25.3376  -15.1546   20.7409 N   0  0  0  0  0  0  0  0  0  0  0  0
  -21.7756  -12.4519   21.3760 N   0  0  0  0  0  0  0  0  0  0  0  0
  -32.2413  -23.1881   13.7025 N   0  0  0  0  0  0  0  0  0  0  0  0
  -30.6426  -27.1137   18.7095 N   0  0  0  0  0  0  0  0  0  0  0  0
  -24.9416  -16.8970   15.6545 N   0  0  2  0  0  0  0  0  0  0  0  0
  -27.6782  -17.3376   15.0431 N   0  3  0  0  0  0  0  0  0  0  0  0
  -27.6472  -29.0396   19.3307 N   0  3  0  0  0  0  0  0  0  0  0  0
  -22.4600  -14.6384   21.2793 O   0  0  0  0  0  0  0  0  0  0  0  0
  -31.3634  -22.3485   15.6892 O   0  0  0  0  0  0  0  0  0  0  0  0
  -32.0077  -26.3866   16.2977 O   0  0  0  0  0  0  0  0  0  0  0  0
  -28.6312  -26.4209   19.6322 O   0  0  0  0  0  0  0  0  0  0  0  0
  -30.7427  -15.8053   18.6648 O   0  0  0  0  0  0  0  0  0  0  0  0
  -21.8000   -6.8828   21.2322 O   0  0  0  0  0  0  0  0  0  0  0  0
  -25.5189  -20.9633   16.9955 O   0  0  0  0  0  0  0  0  0  1  0  0
  -16.9284   -6.5270   18.6739 F   0  0  0  0  0  0  0  0  0  0  0  0
  -21.3583   -4.9739   19.2820 F   0  0  0  0  0  0  0  0  0  0  0  0
  1  2  1  0  0  0  0
  1  5  2  0  0  0  0
  2  6  2  0  0  0  0
  3  8  2  0  0  0  0
  3 15  1  0  0  0  0
  4  9  1  0  0  0  0
  4 15  2  0  0  0  0
  5 17  1  0  0  0  0
  6 19  1  0  0  0  0
  7 10  2  0  0  0  0
  7 18  1  0  0  0  0
  8 21  1  0  0  0  0
  9 21  2  0  0  0  0
 10 22  1  0  0  0  0
 11 12  2  0  0  0  0
 11 23  1  0  0  0  0
 12 24  1  0  0  0  0
 13 20  1  0  0  0  0
 13 22  2  0  0  0  0
 14 24  2  0  0  0  0
 14 25  1  0  0  0  0
 15 26  1  0  0  0  0
 16 26  1  0  0  0  0
 16 27  2  0  0  0  0
 16 28  1  0  0  0  0
 17 19  2  0  0  0  0
 17 33  1  0  0  0  0
 18 20  2  0  0  0  0
 18 34  1  0  0  0  0
 19 45  1  0  0  0  0
 20 35  1  0  0  0  0
 21 80  1  0  0  0  0
 22 81  1  0  0  0  0
 23 25  2  0  0  0  0
 23 80  1  0  0  0  0
 24 82  1  0  0  0  0
 25 83  1  0  0  0  0
 26 63  2  0  0  0  0
 27 64  1  0  0  0  0
 27 68  1  0  0  0  0
 28 69  1  0  0  0  0
 28 75  2  0  0  0  0
 29 46  1  0  0  0  0
 29 70  1  0  0  0  0
 29 76  2  0  0  0  0
 30 59  1  0  0  0  0
 30 65  1  0  0  0  0
 30 77  2  0  0  0  0
 31 60  1  0  0  0  0
 31 71  1  0  0  0  0
 31 78  2  0  0  0  0
 32 66  1  0  0  0  0
 32 67  1  0  0  0  0
 32 79  2  0  0  0  0
 33 36  1  0  0  0  0
 34 46  1  0  0  0  0
 35 65  1  0  0  0  0
 36 38  1  0  0  0  0
 37 39  1  0  0  0  0
 37 40  1  0  0  0  0
 38 45  1  0  0  0  0
 39 47  1  0  0  0  0
 40 66  1  0  0  0  0
 41 44  1  0  0  0  0
 41 67  1  0  0  0  0
 42 47  1  0  0  0  0
 42 66  1  0  0  0  0
 43 48  1  0  0  0  0
 43 67  1  0  0  0  0
 44 73  1  0  0  0  0
 45 70  1  0  0  0  0
 46 65  1  0  0  0  0
 47 64  1  0  0  0  0
 48 56  1  0  0  0  0
 48 73  1  0  0  0  0
 49 60  1  0  0  0  0
 50 61  1  0  0  0  0
 51 62  1  0  0  0  0
 52 62  1  0  0  0  0
 53 62  1  0  0  0  0
 54 72  1  0  0  0  0
 55 74  1  0  0  0  0
 56 72  1  0  0  0  0
 57 58  1  0  0  0  0
 57 61  1  0  0  0  0
 58 81  1  0  0  0  0
 59 62  1  0  0  0  0
 59 71  1  0  0  0  0
 60 74  1  0  0  0  0
 61 72  1  0  0  0  0
 63 64  1  0  0  0  0
M  CHG  2  73   1  74   1
M  ISO  4  32 100  58 101  67 100  81 101
M  END
> <Batch ID>
0114

> <Smiles>
CNC(C)C(=O)NC(C(=O)N1Cc2cc([101O:1][101CH2:1]CC(C)N(C)CC3C[100N:0]([100C:0](=O)N4CCCC(n5nc(-c6ccc(Oc7ccc(F)cc7F)cc6)c(C(N)=O)c5N)C4)CCN3)ccc2CC1C(=O)NC1CCCc2ccccc21)C(C)(C)C

> <Shape>
0.162

> <Color>
0.179

> <Negative vol penalty>
0.000

$$$$

  -OEChem-04052320083D

 82 91  0     1  0  0  0  0  0999 V2000
  -17.5748  -30.5240   19.5821 C   0  0  0  0  0  0  0  0  0  0  0  0
  -18.8737  -30.3986   19.1000 C   0  0  0  0  0  0  0  0  0  0  0  0
  -23.6974  -13.8584   20.9933 C   0  0  0  0  0  0  0  0  0  0  0  0
  -26.0840  -14.0168   20.6530 C   0  0  0  0  0  0  0  0  0  0  0  0
  -17.3500  -30.6477   20.9526 C   0  0  0  0  0  0  0  0  0  0  0  0
  -19.9488  -30.3978   19.9880 C   0  0  0  0  0  0  0  0  0  0  0  0
  -25.1574  -27.2201   19.4603 C   0  0  0  0  0  0  0  0  0  0  0  0
  -23.7230  -12.5340   20.5565 C   0  0  0  0  0  0  0  0  0  0  0  0
  -26.1097  -12.6923   20.2163 C   0  0  0  0  0  0  0  0  0  0  0  0
  -26.4270  -27.5694   19.0023 C   0  0  0  0  0  0  0  0  0  0  0  0
  -24.5572   -9.5104   21.8193 C   0  0  0  0  0  0  0  0  0  0  0  0
  -23.8429   -8.5694   22.5608 C   0  0  0  0  0  0  0  0  0  0  0  0
  -27.1248  -27.9871   21.2733 C   0  0  0  0  0  0  0  0  0  0  0  0
  -22.5018   -8.0563   20.6177 C   0  0  0  0  0  0  0  0  0  0  0  0
  -24.8779  -14.5999   21.0415 C   0  0  0  0  0  0  0  0  0  0  0  0
  -24.4322  -16.4414   22.7497 C   0  0  0  0  0  0  0  0  0  0  0  0
  -18.4223  -30.6388   21.8586 C   0  0  0  0  0  0  0  0  0  0  0  0
  -24.8582  -27.2622   20.8297 C   0  0  0  0  0  0  0  0  0  0  0  0
  -19.7383  -30.5229   21.3717 C   0  0  0  0  0  0  0  0  0  0  0  0
  -25.8514  -27.6353   21.7464 C   0  0  0  0  0  0  0  0  0  0  0  0
  -24.9291  -11.9509   20.1681 C   0  0  0  0  0  0  0  0  0  0  0  0
  -27.4101  -27.9558   19.9085 C   0  0  0  0  0  0  0  0  0  0  0  0
  -24.2438   -9.7244   20.4771 C   0  0  0  0  0  0  0  0  0  0  0  0
  -22.8152   -7.8423   21.9600 C   0  0  0  0  0  0  0  0  0  0  0  0
  -23.2162   -8.9974   19.8763 C   0  0  0  0  0  0  0  0  0  0  0  0
  -24.8520  -15.9683   21.4920 C   0  0  0  0  0  0  0  0  0  0  0  0
  -24.6004  -17.8026   22.6781 C   0  0  0  0  0  0  0  0  0  0  0  0
  -23.9348  -15.7153   23.8815 C   0  0  0  0  0  0  0  0  0  0  0  0
  -22.8072  -28.8935   22.6286 C   0  0  0  0  0  0  0  0  0  0  0  0
  -23.9179  -26.9472   24.9739 C   0  0  0  0  0  0  0  0  0  0  0  0
  -26.4353  -24.9592   26.1391 C   0  0  0  0  0  0  0  0  0  0  0  0
  -28.2316  -21.1526   19.4457 C   0  0  0  0  0  0  0  0  0  0  0  0
  -18.1332  -30.8228   23.3273 C   0  0  0  0  0  0  0  0  0  0  0  0
  -23.4918  -26.8566   21.3101 C   0  0  0  0  0  0  0  0  0  0  0  0
  -25.5871  -27.6774   23.2286 C   0  0  0  0  0  0  0  0  0  0  0  0
  -19.3012  -30.4365   24.2311 C   0  0  0  0  0  0  0  0  0  0  0  0
  -24.6230  -21.4130   19.5361 C   0  0  0  0  0  0  0  0  0  0  0  0
  -20.6033  -31.0309   23.7040 C   0  0  0  0  0  0  0  0  0  0  0  0
  -24.2376  -20.0771   20.1740 C   0  0  0  0  0  0  0  0  0  0  0  0
  -29.9513  -23.9368   17.7134 C   0  0  0  0  0  0  0  0  0  0  0  0
  -29.7978  -23.9170   20.2305 C   0  0  0  0  0  0  0  0  0  0  0  0
  -30.4793  -29.2651   20.8414 C   0  0  0  0  0  0  0  0  0  0  0  0
  -25.8118  -21.2527   18.5930 C   0  0  0  0  0  0  0  0  0  0  0  0
  -26.6336  -19.3034   19.8572 C   0  0  0  0  0  0  0  0  0  0  0  0
  -31.2648  -24.7022   17.8059 C   0  0  0  0  0  0  0  0  0  0  0  0
  -31.1114  -24.6837   20.3101 C   0  0  0  0  0  0  0  0  0  0  0  0
  -20.9289  -30.4930   22.3053 C   0  0  1  0  0  0  0  0  0  0  0  0
  -23.1456  -27.4304   22.6806 C   0  0  1  0  0  0  0  0  0  0  0  0
  -31.1127  -28.3797   19.8041 C   0  0  2  0  0  0  0  0  0  0  0  0
  -25.4520  -19.4026   20.8391 C   0  0  2  0  0  0  0  0  0  0  0  0
  -29.7133  -23.0776   18.9556 C   0  0  0  0  0  0  0  0  0  0  0  0
  -29.7464  -28.0493   20.3428 C   0  0  2  0  0  0  0  0  0  1  0  0
  -27.0698  -23.5325   28.1035 C   0  0  0  0  0  0  0  0  0  0  0  0
  -24.5208  -29.4579   26.5996 C   0  0  0  0  0  0  0  0  0  0  0  0
  -25.9818  -28.0643   28.0799 C   0  0  0  0  0  0  0  0  0  0  0  0
  -23.5418  -27.5716   27.9179 C   0  0  0  0  0  0  0  0  0  0  0  0
  -26.6223  -22.5286   24.4610 C   0  0  0  0  0  0  0  0  0  0  0  0
  -32.2827  -27.5289   20.1586 C   0  0  0  0  0  0  0  0  0  0  0  0
  -32.5036  -26.3965   19.1511 C   0  0  0  0  0  0  0  0  0  0  0  0
  -25.0515  -27.0112   25.9688 C   0  0  1  0  0  0  0  0  0  0  0  0
  -26.4235  -23.5598   26.7272 C   0  0  2  0  0  0  0  0  0  0  0  0
  -24.7787  -28.0274   27.1135 C   0  0  0  0  0  0  0  0  0  0  0  0
  -25.2563  -16.9493   20.6808 N   0  0  0  0  0  0  0  0  0  0  0  0
  -25.0913  -18.0525   21.4304 N   0  0  0  0  0  0  0  0  0  0  0  0
  -24.2337  -27.2780   23.6485 N   0  0  0  0  0  0  0  0  0  0  0  0
  -26.9399  -20.6219   19.2927 N   0  0  0  0  0  0  0  0  0  0  0  0
  -24.3748  -18.7983   23.5613 N   0  0  0  0  0  0  0  0  0  0  0  0
  -24.8519  -15.2575   24.8373 N   0  0  0  0  0  0  0  0  0  0  0  0
  -21.4709  -29.1539   22.3924 N   0  0  0  0  0  0  0  0  0  0  0  0
  -25.2724  -25.6430   26.4245 N   0  0  0  0  0  0  0  0  0  0  0  0
  -28.4412  -22.4024   18.8759 N   0  0  0  0  0  0  0  0  0  0  0  0
  -31.2782  -25.5280   19.0698 N   0  3  0  0  0  0  0  0  0  0  0  0
  -27.1653  -22.6191   25.8409 N   0  3  0  0  0  0  0  0  0  0  0  0
  -22.7148  -15.4651   24.0321 O   0  0  0  0  0  0  0  0  0  0  0  0
  -23.6928  -29.7246   22.7921 O   0  0  0  0  0  0  0  0  0  0  0  0
  -22.7953  -26.6090   25.3572 O   0  0  0  0  0  0  0  0  0  0  0  0
  -27.3830  -25.4028   25.4944 O   0  0  0  0  0  0  0  0  0  0  0  0
  -29.1307  -20.5586   20.0506 O   0  0  0  0  0  0  0  0  0  0  0  0
  -24.9545  -10.6585   19.7421 O   0  0  0  0  0  0  0  0  0  0  0  0
  -28.6499  -28.2979   19.4640 O   0  0  0  0  0  0  0  0  0  1  0  0
  -22.1303   -6.9376   22.6718 F   0  0  0  0  0  0  0  0  0  0  0  0
  -22.9113   -9.1978   18.5868 F   0  0  0  0  0  0  0  0  0  0  0  0
  1  2  1  0  0  0  0
  1  5  2  0  0  0  0
  2  6  2  0  0  0  0
  3  8  2  0  0  0  0
  3 15  1  0  0  0  0
  4  9  1  0  0  0  0
  4 15  2  0  0  0  0
  5 17  1  0  0  0  0
  6 19  1  0  0  0  0
  7 10  2  0  0  0  0
  7 18  1  0  0  0  0
  8 21  1  0  0  0  0
  9 21  2  0  0  0  0
 10 22  1  0  0  0  0
 11 12  2  0  0  0  0
 11 23  1  0  0  0  0
 12 24  1  0  0  0  0
 13 20  1  0  0  0  0
 13 22  2  0  0  0  0
 14 24  2  0  0  0  0
 14 25  1  0  0  0  0
 15 26  1  0  0  0  0
 16 26  1  0  0  0  0
 16 27  2  0  0  0  0
 16 28  1  0  0  0  0
 17 19  2  0  0  0  0
 17 33  1  0  0  0  0
 18 20  2  0  0  0  0
 18 34  1  0  0  0  0
 19 47  1  0  0  0  0
 20 35  1  0  0  0  0
 21 79  1  0  0  0  0
 22 80  1  0  0  0  0
 23 25  2  0  0  0  0
 23 79  1  0  0  0  0
 24 81  1  0  0  0  0
 25 82  1  0  0  0  0
 26 63  2  0  0  0  0
 27 64  1  0  0  0  0
 27 67  1  0  0  0  0
 28 68  1  0  0  0  0
 28 74  2  0  0  0  0
 29 48  1  0  0  0  0
 29 69  1  0  0  0  0
 29 75  2  0  0  0  0
 30 60  1  0  0  0  0
 30 65  1  0  0  0  0
 30 76  2  0  0  0  0
 31 61  1  0  0  0  0
 31 70  1  0  0  0  0
 31 77  2  0  0  0  0
 32 66  1  0  0  0  0
 32 71  1  0  0  0  0
 32 78  2  0  0  0  0
 33 36  1  0  0  0  0
 34 48  1  0  0  0  0
 35 65  1  0  0  0  0
 36 38  1  0  0  0  0
 37 39  1  0  0  0  0
 37 43  1  0  0  0  0
 38 47  1  0  0  0  0
 39 50  1  0  0  0  0
 40 45  1  0  0  0  0
 40 51  1  0  0  0  0
 41 46  1  0  0  0  0
 41 51  1  0  0  0  0
 42 49  1  0  0  0  0
 42 52  1  0  0  0  0
 43 66  1  0  0  0  0
 44 50  1  0  0  0  0
 44 66  1  0  0  0  0
 45 72  1  0  0  0  0
 46 72  1  0  0  0  0
 47 69  1  0  0  0  0
 48 65  1  0  0  0  0
 49 52  1  0  0  0  0
 49 58  1  0  0  0  0
 50 64  1  0  0  0  0
 51 71  1  0  0  0  0
 52 80  1  0  0  0  0
 53 61  1  0  0  0  0
 54 62  1  0  0  0  0
 55 62  1  0  0  0  0
 56 62  1  0  0  0  0
 57 73  1  0  0  0  0
 58 59  1  0  0  0  0
 59 72  1  0  0  0  0
 60 62  1  0  0  0  0
 60 70  1  0  0  0  0
 61 73  1  0  0  0  0
 63 64  1  0  0  0  0
M  CHG  2  72   1  73   1
M  ISO  4  32 100  52 101  71 100  80 101
M  END
> <Batch ID>
0114

> <Smiles>
CNC(C)C(=O)NC(C(=O)N1Cc2cc([101O:1][101CH:1]3CC3CCN3CCC([100NH:0][100C:0](=O)N4CCCC(n5nc(-c6ccc(Oc7ccc(F)cc7F)cc6)c(C(N)=O)c5N)C4)CC3)ccc2CC1C(=O)NC1CCCc2ccccc21)C(C)(C)C

> <Shape>
0.211

> <Color>
0.084

> <Negative vol penalty>
0.000

$$$$

  -OEChem-04052320083D

 78 86  0     1  0  0  0  0  0999 V2000
  -16.4975  -30.7047   20.2000 C   0  0  0  0  0  0  0  0  0  0  0  0
  -17.7391  -31.3256   20.1089 C   0  0  0  0  0  0  0  0  0  0  0  0
  -26.3352  -12.8313   19.4465 C   0  0  0  0  0  0  0  0  0  0  0  0
  -25.5049  -13.0837   21.7012 C   0  0  0  0  0  0  0  0  0  0  0  0
  -16.2270  -29.8418   21.2613 C   0  0  0  0  0  0  0  0  0  0  0  0
  -18.7106  -31.0849   21.0798 C   0  0  0  0  0  0  0  0  0  0  0  0
  -25.1374  -28.3615   19.2991 C   0  0  0  0  0  0  0  0  0  0  0  0
  -25.2587  -11.9978   19.1433 C   0  0  0  0  0  0  0  0  0  0  0  0
  -24.4283  -12.2503   21.3981 C   0  0  0  0  0  0  0  0  0  0  0  0
  -26.4643  -28.0402   19.0122 C   0  0  0  0  0  0  0  0  0  0  0  0
  -23.8582   -8.9329   21.0804 C   0  0  0  0  0  0  0  0  0  0  0  0
  -23.5261   -7.9415   22.0036 C   0  0  0  0  0  0  0  0  0  0  0  0
  -26.9830  -28.0265   21.3741 C   0  0  0  0  0  0  0  0  0  0  0  0
  -21.3246   -8.9062   22.2477 C   0  0  0  0  0  0  0  0  0  0  0  0
  -26.4584  -13.3743   20.7255 C   0  0  0  0  0  0  0  0  0  0  0  0
  -28.9393  -13.9113   20.9791 C   0  0  0  0  0  0  0  0  0  0  0  0
  -17.1991  -29.5829   22.2404 C   0  0  0  0  0  0  0  0  0  0  0  0
  -24.7243  -28.5015   20.6270 C   0  0  0  0  0  0  0  0  0  0  0  0
  -18.4525  -30.2188   22.1559 C   0  0  0  0  0  0  0  0  0  0  0  0
  -25.6524  -28.3359   21.6682 C   0  0  0  0  0  0  0  0  0  0  0  0
  -24.3052  -11.7073   20.1191 C   0  0  0  0  0  0  0  0  0  0  0  0
  -27.3848  -27.8734   20.0471 C   0  0  0  0  0  0  0  0  0  0  0  0
  -22.9235   -9.9111   20.7409 C   0  0  0  0  0  0  0  0  0  0  0  0
  -22.2593   -7.9281   22.5873 C   0  0  0  0  0  0  0  0  0  0  0  0
  -21.6567   -9.8977   21.3245 C   0  0  0  0  0  0  0  0  0  0  0  0
  -27.5705  -14.2349   21.0394 C   0  0  0  0  0  0  0  0  0  0  0  0
  -29.5814  -15.0605   21.3709 C   0  0  0  0  0  0  0  0  0  0  0  0
  -29.5736  -12.6819   20.6025 C   0  0  0  0  0  0  0  0  0  0  0  0
  -21.9057  -29.2106   22.9994 C   0  0  0  0  0  0  0  0  0  0  0  0
  -23.5582  -26.9392   24.2325 C   0  0  0  0  0  0  0  0  0  0  0  0
  -25.3943  -24.1802   25.0412 C   0  0  0  0  0  0  0  0  0  0  0  0
  -29.1137  -20.7060   20.8037 C   0  0  0  0  0  0  0  0  0  0  0  0
  -16.8441  -28.6795   23.3948 C   0  0  0  0  0  0  0  0  0  0  0  0
  -23.3192  -28.9073   20.9804 C   0  0  0  0  0  0  0  0  0  0  0  0
  -25.1709  -28.5303   23.0800 C   0  0  0  0  0  0  0  0  0  0  0  0
  -18.0581  -28.1866   24.1781 C   0  0  0  0  0  0  0  0  0  0  0  0
  -28.2726  -19.0854   23.9284 C   0  0  0  0  0  0  0  0  0  0  0  0
  -19.0086  -29.3426   24.4730 C   0  0  0  0  0  0  0  0  0  0  0  0
  -29.7562  -24.9457   19.0161 C   0  0  0  0  0  0  0  0  0  0  0  0
  -31.3035  -25.1437   21.0047 C   0  0  0  0  0  0  0  0  0  0  0  0
  -28.1394  -17.6264   23.4881 C   0  0  0  0  0  0  0  0  0  0  0  0
  -29.0235  -23.7901   19.6985 C   0  0  0  0  0  0  0  0  0  0  0  0
  -30.5740  -23.9879   21.6903 C   0  0  0  0  0  0  0  0  0  0  0  0
  -27.7342  -20.0357   22.8629 C   0  0  0  0  0  0  0  0  0  0  0  0
  -28.2211  -18.4100   21.0758 C   0  0  0  0  0  0  0  0  0  0  0  0
  -19.5409  -29.9638   23.1759 C   0  0  1  0  0  0  0  0  0  0  0  0
  -22.8114  -28.2555   22.2790 C   0  0  1  0  0  0  0  0  0  0  0  0
  -30.4193  -25.9098   20.0103 C   0  0  0  0  0  0  0  0  0  0  0  0
  -28.7687  -17.4002   22.1007 C   0  0  2  0  0  0  0  0  0  0  0  0
  -29.9399  -23.0419   20.6690 C   0  0  0  0  0  0  0  0  0  0  0  0
  -26.0654  -22.1178   26.3035 C   0  0  0  0  0  0  0  0  0  0  0  0
  -24.9032  -28.9532   26.0868 C   0  0  0  0  0  0  0  0  0  0  0  0
  -25.9130  -27.0282   27.3289 C   0  0  0  0  0  0  0  0  0  0  0  0
  -23.4339  -27.2910   27.2413 C   0  0  0  0  0  0  0  0  0  0  0  0
  -23.6442  -22.4586   23.3883 C   0  0  0  0  0  0  0  0  0  0  0  0
  -29.3854  -26.7818   20.7280 C   0  0  0  0  0  0  0  0  0  1  0  0
  -24.6760  -26.5514   25.1671 C   0  0  1  0  0  0  0  0  0  0  0  0
  -24.9799  -22.7853   25.4735 C   0  0  2  0  0  0  0  0  0  0  0  0
  -24.7359  -27.4590   26.4281 C   0  0  0  0  0  0  0  0  0  0  0  0
  -27.3548  -15.4912   21.4383 N   0  0  0  0  0  0  0  0  0  0  0  0
  -28.5965  -15.9671   21.6323 N   0  0  0  0  0  0  0  0  0  0  0  0
  -23.8550  -27.8956   23.2539 N   0  0  0  0  0  0  0  0  0  0  0  0
  -28.3871  -19.7805   21.5711 N   0  0  0  0  0  0  0  0  0  0  0  0
  -30.8866  -15.3738   21.5141 N   0  0  0  0  0  0  0  0  0  0  0  0
  -29.8313  -11.7304   21.5988 N   0  0  0  0  0  0  0  0  0  0  0  0
  -20.5825  -29.1344   22.6087 N   0  0  0  0  0  0  0  0  0  0  0  0
  -24.4907  -25.1341   25.4592 N   0  0  0  0  0  0  0  0  0  0  0  0
  -29.2183  -21.9835   21.3400 N   0  0  0  0  0  0  0  0  0  0  0  0
  -24.7085  -21.9329   24.2816 N   0  3  0  0  0  0  0  0  0  0  0  0
  -29.9170  -12.4412   19.4202 O   0  0  0  0  0  0  0  0  0  0  0  0
  -22.3717  -29.9610   23.8488 O   0  0  0  0  0  0  0  0  0  0  0  0
  -22.4494  -26.4141   24.3678 O   0  0  0  0  0  0  0  0  0  0  0  0
  -26.4193  -24.4019   24.4001 O   0  0  0  0  0  0  0  0  0  0  0  0
  -29.6357  -20.4139   19.7223 O   0  0  0  0  0  0  0  0  0  0  0  0
  -23.2544  -10.8942   19.8235 O   0  0  0  0  0  0  0  0  0  0  0  0
  -28.6776  -27.5554   19.7601 O   0  0  0  0  0  0  0  0  0  1  0  0
  -21.9401   -6.9750   23.4727 F   0  0  0  0  0  0  0  0  0  0  0  0
  -20.7541  -10.8341   21.0014 F   0  0  0  0  0  0  0  0  0  0  0  0
  1  2  1  0  0  0  0
  1  5  2  0  0  0  0
  2  6  2  0  0  0  0
  3  8  2  0  0  0  0
  3 15  1  0  0  0  0
  4  9  1  0  0  0  0
  4 15  2  0  0  0  0
  5 17  1  0  0  0  0
  6 19  1  0  0  0  0
  7 10  2  0  0  0  0
  7 18  1  0  0  0  0
  8 21  1  0  0  0  0
  9 21  2  0  0  0  0
 10 22  1  0  0  0  0
 11 12  2  0  0  0  0
 11 23  1  0  0  0  0
 12 24  1  0  0  0  0
 13 20  1  0  0  0  0
 13 22  2  0  0  0  0
 14 24  2  0  0  0  0
 14 25  1  0  0  0  0
 15 26  1  0  0  0  0
 16 26  1  0  0  0  0
 16 27  2  0  0  0  0
 16 28  1  0  0  0  0
 17 19  2  0  0  0  0
 17 33  1  0  0  0  0
 18 20  2  0  0  0  0
 18 34  1  0  0  0  0
 19 46  1  0  0  0  0
 20 35  1  0  0  0  0
 21 75  1  0  0  0  0
 22 76  1  0  0  0  0
 23 25  2  0  0  0  0
 23 75  1  0  0  0  0
 24 77  1  0  0  0  0
 25 78  1  0  0  0  0
 26 60  2  0  0  0  0
 27 61  1  0  0  0  0
 27 64  1  0  0  0  0
 28 65  1  0  0  0  0
 28 70  2  0  0  0  0
 29 47  1  0  0  0  0
 29 66  1  0  0  0  0
 29 71  2  0  0  0  0
 30 57  1  0  0  0  0
 30 62  1  0  0  0  0
 30 72  2  0  0  0  0
 31 58  1  0  0  0  0
 31 67  1  0  0  0  0
 31 73  2  0  0  0  0
 32 63  1  0  0  0  0
 32 68  1  0  0  0  0
 32 74  2  0  0  0  0
 33 36  1  0  0  0  0
 34 47  1  0  0  0  0
 35 62  1  0  0  0  0
 36 38  1  0  0  0  0
 37 41  1  0  0  0  0
 37 44  1  0  0  0  0
 38 46  1  0  0  0  0
 39 42  1  0  0  0  0
 39 48  1  0  0  0  0
 40 43  1  0  0  0  0
 40 48  1  0  0  0  0
 41 49  1  0  0  0  0
 42 50  1  0  0  0  0
 43 50  1  0  0  0  0
 44 63  1  0  0  0  0
 45 49  1  0  0  0  0
 45 63  1  0  0  0  0
 46 66  1  0  0  0  0
 47 62  1  0  0  0  0
 48 56  1  0  0  0  0
 49 61  1  0  0  0  0
 50 68  1  0  0  0  0
 51 58  1  0  0  0  0
 52 59  1  0  0  0  0
 53 59  1  0  0  0  0
 54 59  1  0  0  0  0
 55 69  1  0  0  0  0
 56 76  1  0  0  0  0
 57 59  1  0  0  0  0
 57 67  1  0  0  0  0
 58 69  1  0  0  0  0
 60 61  1  0  0  0  0
M  CHG  1  69   1
M  ISO  4  32 100  56 101  68 100  76 101
M  END
> <Batch ID>
0114

> <Smiles>
CNC(C)C(=O)NC(C(=O)N1Cc2cc([101O:1][101CH2:1]C3CCC([100NH:0][100C:0](=O)N4CCCC(n5nc(-c6ccc(Oc7ccc(F)cc7F)cc6)c(C(N)=O)c5N)C4)CC3)ccc2CC1C(=O)NC1CCCc2ccccc21)C(C)(C)C

> <Shape>
0.270

> <Color>
0.106

> <Negative vol penalty>
0.000

$$$$

  -OEChem-04052320083D

 88 97  0     1  0  0  0  0  0999 V2000
  -28.3006  -21.7650   18.0515 C   0  0  0  0  0  0  0  0  0  0  0  0
  -27.0807  -22.3964   18.2718 C   0  0  0  0  0  0  0  0  0  0  0  0
  -17.3234  -24.3950   23.8955 C   0  0  0  0  0  0  0  0  0  0  0  0
  -25.4612  -13.8862   21.3375 C   0  0  0  0  0  0  0  0  0  0  0  0
  -24.7177  -14.4727   19.1148 C   0  0  0  0  0  0  0  0  0  0  0  0
  -29.2550  -21.7215   19.0670 C   0  0  0  0  0  0  0  0  0  0  0  0
  -26.8140  -22.9838   19.5080 C   0  0  0  0  0  0  0  0  0  0  0  0
  -17.5281  -25.7712   23.7964 C   0  0  0  0  0  0  0  0  0  0  0  0
  -24.7199  -27.5734   19.0670 C   0  0  0  0  0  0  0  0  0  0  0  0
  -18.0019  -23.5256   23.0414 C   0  0  0  0  0  0  0  0  0  0  0  0
  -25.2564  -12.5368   21.0500 C   0  0  0  0  0  0  0  0  0  0  0  0
  -24.5129  -13.1233   18.8273 C   0  0  0  0  0  0  0  0  0  0  0  0
  -23.3616  -27.6264   18.7570 C   0  0  0  0  0  0  0  0  0  0  0  0
  -22.6464  -10.3966   20.8730 C   0  0  0  0  0  0  0  0  0  0  0  0
  -21.9980   -9.6211   21.8341 C   0  0  0  0  0  0  0  0  0  0  0  0
  -22.8528  -28.0241   21.0812 C   0  0  0  0  0  0  0  0  0  0  0  0
  -23.9365   -8.1871   21.9848 C   0  0  0  0  0  0  0  0  0  0  0  0
  -25.1918  -14.8542   20.3699 C   0  0  0  0  0  0  0  0  0  0  0  0
  -26.5820  -16.9909   20.4677 C   0  0  0  0  0  0  0  0  0  0  0  0
  -29.0037  -22.3171   20.3131 C   0  0  0  0  0  0  0  0  0  0  0  0
  -25.1547  -27.7348   20.3903 C   0  0  0  0  0  0  0  0  0  0  0  0
  -27.7655  -22.9471   20.5415 C   0  0  0  0  0  0  0  0  0  0  0  0
  -18.4112  -26.2780   22.8430 C   0  0  0  0  0  0  0  0  0  0  0  0
  -24.2173  -27.9753   21.4050 C   0  0  0  0  0  0  0  0  0  0  0  0
  -18.8850  -24.0324   22.0881 C   0  0  0  0  0  0  0  0  0  0  0  0
  -24.7822  -12.1553   19.7949 C   0  0  0  0  0  0  0  0  0  0  0  0
  -22.4276  -27.8489   19.7646 C   0  0  0  0  0  0  0  0  0  0  0  0
  -23.9398  -10.0673   20.4677 C   0  0  0  0  0  0  0  0  0  0  0  0
  -19.0897  -25.4086   21.9889 C   0  0  0  0  0  0  0  0  0  0  0  0
  -22.6431   -8.5163   22.3901 C   0  0  0  0  0  0  0  0  0  0  0  0
  -24.5849   -8.9625   21.0236 C   0  0  0  0  0  0  0  0  0  0  0  0
  -25.4026  -16.2484   20.6665 C   0  0  0  0  0  0  0  0  0  0  0  0
  -26.2697  -18.2550   20.9048 C   0  0  0  0  0  0  0  0  0  0  0  0
  -27.8468  -16.5752   19.9354 C   0  0  0  0  0  0  0  0  0  0  0  0
  -26.7113  -25.9121   22.4780 C   0  0  0  0  0  0  0  0  0  0  0  0
  -26.6584  -28.6085   24.2805 C   0  0  0  0  0  0  0  0  0  0  0  0
  -25.1666  -31.5972   24.9797 C   0  0  0  0  0  0  0  0  0  0  0  0
  -21.1265  -21.1300   21.2753 C   0  0  0  0  0  0  0  0  0  0  0  0
  -30.0476  -22.2033   21.3958 C   0  0  0  0  0  0  0  0  0  0  0  0
  -26.6253  -27.7016   20.7042 C   0  0  0  0  0  0  0  0  0  0  0  0
  -24.6340  -28.1751   22.8385 C   0  0  0  0  0  0  0  0  0  0  0  0
  -29.8337  -23.1760   22.5527 C   0  0  0  0  0  0  0  0  0  0  0  0
  -23.4350  -20.5526   24.0020 C   0  0  0  0  0  0  0  0  0  0  0  0
  -28.3744  -23.1649   22.9966 C   0  0  0  0  0  0  0  0  0  0  0  0
  -24.3170  -19.4442   23.4243 C   0  0  0  0  0  0  0  0  0  0  0  0
  -17.3308  -28.5244   22.3655 C   0  0  0  0  0  0  0  0  0  0  0  0
  -19.2295  -28.3624   24.0381 C   0  0  0  0  0  0  0  0  0  0  0  0
  -21.9797  -20.3788   23.5776 C   0  0  0  0  0  0  0  0  0  0  0  0
  -22.6534  -19.1937   21.5244 C   0  0  0  0  0  0  0  0  0  0  0  0
  -17.5637  -30.0255   22.2711 C   0  0  0  0  0  0  0  0  0  0  0  0
  -19.4383  -29.8656   23.9221 C   0  0  0  0  0  0  0  0  0  0  0  0
  -18.6197  -27.7741   22.7516 C   0  0  0  0  0  0  0  0  0  0  0  0
  -27.4488  -23.6173   21.8608 C   0  0  1  0  0  0  0  0  0  0  0  0
  -26.9174  -27.3669   22.1637 C   0  0  1  0  0  0  0  0  0  0  0  0
  -24.1408  -19.3258   21.8988 C   0  0  2  0  0  0  0  0  0  0  0  0
  -25.3253  -33.5627   26.5318 C   0  0  0  0  0  0  0  0  0  0  0  0
  -19.9981  -27.1206   17.5015 C   0  0  0  0  0  0  0  0  0  0  0  0
  -25.4220  -26.9400   26.5160 C   0  0  0  0  0  0  0  0  0  0  0  0
  -24.7414  -29.0728   27.6367 C   0  0  0  0  0  0  0  0  0  0  0  0
  -27.1581  -28.5738   27.2717 C   0  0  0  0  0  0  0  0  0  0  0  0
  -25.6353  -33.4751   22.7407 C   0  0  0  0  0  0  0  0  0  0  0  0
  -19.6017  -23.0854   21.1829 C   0  0  0  0  0  0  0  0  0  0  0  0
  -19.4081  -26.2192   19.7759 C   0  0  0  0  0  0  0  0  0  0  0  0
  -25.7090  -29.1972   25.2960 C   0  0  1  0  0  0  0  0  0  0  0  0
  -25.7426  -32.9863   25.1878 C   0  0  2  0  0  0  0  0  0  0  0  0
  -20.5229  -26.7367   18.8752 C   0  0  2  0  0  0  0  0  0  1  0  0
  -25.7493  -28.4403   26.6535 C   0  0  0  0  0  0  0  0  0  0  0  0
  -24.4149  -16.9798   21.1894 N   0  0  0  0  0  0  0  0  0  0  0  0
  -24.9729  -18.1950   21.3229 N   0  0  0  0  0  0  0  0  0  0  0  0
  -26.0828  -28.1275   23.0960 N   0  0  0  0  0  0  0  0  0  0  0  0
  -21.8795  -20.2914   22.1139 N   0  0  0  0  0  0  0  0  0  0  0  0
  -26.9807  -19.4008   20.9685 N   0  0  0  0  0  0  0  0  0  0  0  0
  -27.9966  -15.2407   19.5340 N   0  0  0  0  0  0  0  0  0  0  0  0
  -27.4882  -25.0571   21.7199 N   0  0  0  0  0  0  0  0  0  0  0  0
  -26.0415  -30.6145   25.3920 N   0  0  0  0  0  0  0  0  0  0  0  0
  -20.4170  -22.1403   21.9130 N   0  0  0  0  0  0  0  0  0  0  0  0
  -18.1449  -30.5153   23.5560 N   0  3  0  0  0  0  0  0  0  0  0  0
  -25.2730  -33.9079   24.1149 N   0  3  0  0  0  0  0  0  0  0  0  0
  -28.8204  -17.3597   19.8345 O   0  0  0  0  0  0  0  0  0  0  0  0
  -25.9080  -25.5893   23.3453 O   0  0  0  0  0  0  0  0  0  0  0  0
  -27.8670  -28.5830   24.5261 O   0  0  0  0  0  0  0  0  0  0  0  0
  -24.0506  -31.4035   24.5028 O   0  0  0  0  0  0  0  0  0  0  0  0
  -21.0931  -20.9920   20.0477 O   0  0  0  0  0  0  0  0  0  0  0  0
  -24.5825  -10.8386   19.5139 O   0  0  0  0  0  0  0  0  0  0  0  0
  -19.9558  -25.9065   21.0520 O   0  0  0  0  0  0  0  0  0  0  0  0
  -21.1012  -27.9005   19.4648 O   0  0  0  0  0  0  0  0  0  1  0  0
  -22.0209   -7.7727   23.3142 F   0  0  0  0  0  0  0  0  0  0  0  0
  -25.8280   -8.6420   20.6391 F   0  0  0  0  0  0  0  0  0  0  0  0
  1  2  1  0  0  0  0
  1  6  2  0  0  0  0
  2  7  2  0  0  0  0
  3  8  2  0  0  0  0
  3 10  1  0  0  0  0
  4 11  2  0  0  0  0
  4 18  1  0  0  0  0
  5 12  1  0  0  0  0
  5 18  2  0  0  0  0
  6 20  1  0  0  0  0
  7 22  1  0  0  0  0
  8 23  1  0  0  0  0
  9 13  2  0  0  0  0
  9 21  1  0  0  0  0
 10 25  2  0  0  0  0
 11 26  1  0  0  0  0
 12 26  2  0  0  0  0
 13 27  1  0  0  0  0
 14 15  2  0  0  0  0
 14 28  1  0  0  0  0
 15 30  1  0  0  0  0
 16 24  1  0  0  0  0
 16 27  2  0  0  0  0
 17 30  2  0  0  0  0
 17 31  1  0  0  0  0
 18 32  1  0  0  0  0
 19 32  1  0  0  0  0
 19 33  2  0  0  0  0
 19 34  1  0  0  0  0
 20 22  2  0  0  0  0
 20 39  1  0  0  0  0
 21 24  2  0  0  0  0
 21 40  1  0  0  0  0
 22 53  1  0  0  0  0
 23 29  2  0  0  0  0
 23 52  1  0  0  0  0
 24 41  1  0  0  0  0
 25 29  1  0  0  0  0
 25 62  1  0  0  0  0
 26 84  1  0  0  0  0
 27 86  1  0  0  0  0
 28 31  2  0  0  0  0
 28 84  1  0  0  0  0
 29 85  1  0  0  0  0
 30 87  1  0  0  0  0
 31 88  1  0  0  0  0
 32 68  2  0  0  0  0
 33 69  1  0  0  0  0
 33 72  1  0  0  0  0
 34 73  1  0  0  0  0
 34 79  2  0  0  0  0
 35 54  1  0  0  0  0
 35 74  1  0  0  0  0
 35 80  2  0  0  0  0
 36 64  1  0  0  0  0
 36 70  1  0  0  0  0
 36 81  2  0  0  0  0
 37 65  1  0  0  0  0
 37 75  1  0  0  0  0
 37 82  2  0  0  0  0
 38 71  1  0  0  0  0
 38 76  1  0  0  0  0
 38 83  2  0  0  0  0
 39 42  1  0  0  0  0
 40 54  1  0  0  0  0
 41 70  1  0  0  0  0
 42 44  1  0  0  0  0
 43 45  1  0  0  0  0
 43 48  1  0  0  0  0
 44 53  1  0  0  0  0
 45 55  1  0  0  0  0
 46 50  1  0  0  0  0
 46 52  1  0  0  0  0
 47 51  1  0  0  0  0
 47 52  1  0  0  0  0
 48 71  1  0  0  0  0
 49 55  1  0  0  0  0
 49 71  1  0  0  0  0
 50 77  1  0  0  0  0
 51 77  1  0  0  0  0
 53 74  1  0  0  0  0
 54 70  1  0  0  0  0
 55 69  1  0  0  0  0
 56 65  1  0  0  0  0
 57 66  1  0  0  0  0
 58 67  1  0  0  0  0
 59 67  1  0  0  0  0
 60 67  1  0  0  0  0
 61 78  1  0  0  0  0
 62 76  1  0  0  0  0
 63 66  1  0  0  0  0
 63 85  1  0  0  0  0
 64 67  1  0  0  0  0
 64 75  1  0  0  0  0
 65 78  1  0  0  0  0
 66 86  1  0  0  0  0
 68 69  1  0  0  0  0
M  CHG  2  77   1  78   1
M  ISO  4  38 100  66 101  76 100  86 101
M  END
> <Batch ID>
0114

> <Smiles>
CNC(C)C(=O)NC(C(=O)N1Cc2cc([101O:1][101CH:1](C)COc3c(C[100NH:0][100C:0](=O)N4CCCC(n5nc(-c6ccc(Oc7ccc(F)cc7F)cc6)c(C(N)=O)c5N)C4)cccc3C3CCNCC3)ccc2CC1C(=O)NC1CCCc2ccccc21)C(C)(C)C

> <Shape>
0.230

> <Color>
0.059

> <Negative vol penalty>
0.000

$$$$

  -OEChem-04052320083D

 84 92  0     1  0  0  0  0  0999 V2000
  -27.5879  -34.6926   26.5432 C   0  0  0  0  0  0  0  0  0  0  0  0
  -28.0889  -33.8156   25.5866 C   0  0  0  0  0  0  0  0  0  0  0  0
  -26.8578  -14.9404   21.8159 C   0  0  0  0  0  0  0  0  0  0  0  0
  -26.2624  -15.1751   19.4862 C   0  0  0  0  0  0  0  0  0  0  0  0
  -26.3991  -34.3931   27.2073 C   0  0  0  0  0  0  0  0  0  0  0  0
  -27.4019  -32.6378   25.2943 C   0  0  0  0  0  0  0  0  0  0  0  0
  -26.9740  -29.8819   19.8420 C   0  0  0  0  0  0  0  0  0  0  0  0
  -26.5759  -13.5760   21.7505 C   0  0  0  0  0  0  0  0  0  0  0  0
  -25.9806  -13.8105   19.4208 C   0  0  0  0  0  0  0  0  0  0  0  0
  -27.6608  -28.8080   19.2773 C   0  0  0  0  0  0  0  0  0  0  0  0
  -23.8383  -11.5939   21.7874 C   0  0  0  0  0  0  0  0  0  0  0  0
  -23.0938  -11.0362   22.8267 C   0  0  0  0  0  0  0  0  0  0  0  0
  -26.7972  -25.4096   15.0336 C   0  0  0  0  0  0  0  0  0  0  0  0
  -25.8893  -27.3217   19.9642 C   0  0  0  0  0  0  0  0  0  0  0  0
  -24.9214   -9.5390   23.3324 C   0  0  0  0  0  0  0  0  0  0  0  0
  -25.5785  -24.7735   14.9477 C   0  0  0  0  0  0  0  0  0  0  0  0
  -26.7010  -15.7400   20.6837 C   0  0  0  0  0  0  0  0  0  0  0  0
  -28.2265  -17.7762   20.4980 C   0  0  0  0  0  0  0  0  0  0  0  0
  -25.6921  -33.2158   26.9160 C   0  0  0  0  0  0  0  0  0  0  0  0
  -25.7428  -29.6817   20.4826 C   0  0  0  0  0  0  0  0  0  0  0  0
  -26.2033  -32.3216   25.9560 C   0  0  0  0  0  0  0  0  0  0  0  0
  -25.1877  -28.3951   20.5339 C   0  0  0  0  0  0  0  0  0  0  0  0
  -27.3842  -25.0346   16.2673 C   0  0  0  0  0  0  0  0  0  0  0  0
  -26.1373  -13.0110   20.5530 C   0  0  0  0  0  0  0  0  0  0  0  0
  -27.1199  -27.5272   19.3408 C   0  0  0  0  0  0  0  0  0  0  0  0
  -25.1243  -11.1242   21.5204 C   0  0  0  0  0  0  0  0  0  0  0  0
  -23.6354  -10.0088   23.5992 C   0  0  0  0  0  0  0  0  0  0  0  0
  -25.6659  -10.0968   22.2930 C   0  0  0  0  0  0  0  0  0  0  0  0
  -26.9914  -17.1497   20.7508 C   0  0  0  0  0  0  0  0  0  0  0  0
  -26.5063  -24.1805   16.8977 C   0  0  0  0  0  0  0  0  0  0  0  0
  -27.9801  -19.1130   20.6947 C   0  0  0  0  0  0  0  0  0  0  0  0
  -29.4841  -17.2011   20.1192 C   0  0  0  0  0  0  0  0  0  0  0  0
  -24.6612  -30.0947   23.4429 C   0  0  0  0  0  0  0  0  0  0  0  0
  -21.8175  -29.3040   22.0974 C   0  0  0  0  0  0  0  0  0  0  0  0
  -20.1446  -27.7282   19.5744 C   0  0  0  0  0  0  0  0  0  0  0  0
  -23.0061  -22.4315   20.3814 C   0  0  0  0  0  0  0  0  0  0  0  0
  -24.4362  -32.9120   27.6938 C   0  0  0  0  0  0  0  0  0  0  0  0
  -25.0017  -30.8547   21.0633 C   0  0  0  0  0  0  0  0  0  0  0  0
  -23.8593  -28.1302   21.1926 C   0  0  0  0  0  0  0  0  0  0  0  0
  -23.5735  -31.8252   27.0573 C   0  0  0  0  0  0  0  0  0  0  0  0
  -25.1687  -22.0751   23.1873 C   0  0  0  0  0  0  0  0  0  0  0  0
  -24.4335  -30.6357   26.6425 C   0  0  0  0  0  0  0  0  0  0  0  0
  -25.9925  -20.8289   22.8582 C   0  0  0  0  0  0  0  0  0  0  0  0
  -23.7273  -21.9435   22.7005 C   0  0  0  0  0  0  0  0  0  0  0  0
  -24.4083  -20.3545   20.9441 C   0  0  0  0  0  0  0  0  0  0  0  0
  -25.4739  -31.0462   25.5935 C   0  0  1  0  0  0  0  0  0  0  0  0
  -24.0003  -30.4541   22.1422 C   0  0  1  0  0  0  0  0  0  0  0  0
  -25.8836  -20.4628   21.3658 C   0  0  2  0  0  0  0  0  0  0  0  0
  -26.6143  -23.4951   18.2031 C   0  0  0  0  0  0  0  0  0  0  0  0
  -29.7229  -25.7223   15.6437 C   0  0  0  0  0  0  0  0  0  0  0  0
  -17.8239  -27.2214   18.7651 C   0  0  0  0  0  0  0  0  0  0  0  0
  -21.5384  -27.1582   24.2486 C   0  0  0  0  0  0  0  0  0  0  0  0
  -19.7447  -26.0984   22.8603 C   0  0  0  0  0  0  0  0  0  0  0  0
  -19.4329  -28.4100   23.7445 C   0  0  0  0  0  0  0  0  0  0  0  0
  -20.5828  -29.1944   17.0412 C   0  0  0  0  0  0  0  0  0  0  0  0
  -24.2520  -23.2136   16.3706 C   0  0  0  0  0  0  0  0  0  0  0  0
  -22.3725  -22.7922   18.0092 C   0  0  0  0  0  0  0  0  0  0  0  0
  -28.6156  -26.7535   17.6615 C   0  0  0  0  0  0  0  0  0  1  0  0
  -28.7353  -25.4948   16.7915 C   0  0  1  0  0  0  0  0  0  0  0  0
  -21.0696  -28.0146   21.8585 C   0  0  1  0  0  0  0  0  0  0  0  0
  -18.9998  -28.1827   18.6871 C   0  0  2  0  0  0  0  0  0  0  0  0
  -23.2910  -23.8441   17.3877 C   0  0  2  0  0  0  0  0  0  0  0  0
  -20.4724  -27.4247   23.1672 C   0  0  0  0  0  0  0  0  0  0  0  0
  -26.0316  -18.0173   21.0829 N   0  0  0  0  0  0  0  0  0  0  0  0
  -25.4124  -24.0289   16.0862 N   0  0  0  0  0  0  0  0  0  0  0  0
  -26.6637  -19.2025   21.0403 N   0  0  0  0  0  0  0  0  0  0  0  0
  -23.1762  -29.3086   21.7512 N   0  0  0  0  0  0  0  0  0  0  0  0
  -23.6940  -21.5969   21.2776 N   0  0  0  0  0  0  0  0  0  0  0  0
  -28.7632  -20.2089   20.6043 N   0  0  0  0  0  0  0  0  0  0  0  0
  -29.5621  -15.8109   19.9600 N   0  0  0  0  0  0  0  0  0  0  0  0
  -24.8565  -31.1686   24.2903 N   0  0  0  0  0  0  0  0  0  0  0  0
  -20.0794  -28.3023   20.8264 N   0  0  0  0  0  0  0  0  0  0  0  0
  -23.0294  -22.0337   19.0503 N   0  0  0  0  0  0  0  0  0  0  0  0
  -22.4401  -24.8581   16.6942 N   0  3  0  0  0  0  0  0  0  0  0  0
  -19.4459  -28.2653   17.2676 N   0  3  0  0  0  0  0  0  0  0  0  0
  -30.5123  -17.8979   19.9435 O   0  0  0  0  0  0  0  0  0  0  0  0
  -24.9696  -28.9292   23.6621 O   0  0  0  0  0  0  0  0  0  0  0  0
  -21.2166  -30.2736   22.5669 O   0  0  0  0  0  0  0  0  0  0  0  0
  -21.0081  -26.9397   19.1960 O   0  0  0  0  0  0  0  0  0  0  0  0
  -22.4196  -23.4583   20.7401 O   0  0  0  0  0  0  0  0  0  0  0  0
  -25.8625  -11.6795   20.4887 O   0  0  0  0  0  0  0  0  0  0  0  0
  -27.7885  -26.4772   18.7911 O   0  0  0  0  0  0  0  0  0  1  0  0
  -22.9209   -9.4743   24.5983 F   0  0  0  0  0  0  0  0  0  0  0  0
  -26.9012   -9.6422   22.0421 F   0  0  0  0  0  0  0  0  0  0  0  0
  1  2  1  0  0  0  0
  1  5  2  0  0  0  0
  2  6  2  0  0  0  0
  3  8  2  0  0  0  0
  3 17  1  0  0  0  0
  4  9  1  0  0  0  0
  4 17  2  0  0  0  0
  5 19  1  0  0  0  0
  6 21  1  0  0  0  0
  7 10  2  0  0  0  0
  7 20  1  0  0  0  0
  8 24  1  0  0  0  0
  9 24  2  0  0  0  0
 10 25  1  0  0  0  0
 11 12  2  0  0  0  0
 11 26  1  0  0  0  0
 12 27  1  0  0  0  0
 13 16  2  0  0  0  0
 13 23  1  0  0  0  0
 14 22  1  0  0  0  0
 14 25  2  0  0  0  0
 15 27  2  0  0  0  0
 15 28  1  0  0  0  0
 16 65  1  0  0  0  0
 17 29  1  0  0  0  0
 18 29  1  0  0  0  0
 18 31  2  0  0  0  0
 18 32  1  0  0  0  0
 19 21  2  0  0  0  0
 19 37  1  0  0  0  0
 20 22  2  0  0  0  0
 20 38  1  0  0  0  0
 21 46  1  0  0  0  0
 22 39  1  0  0  0  0
 23 30  2  0  0  0  0
 23 59  1  0  0  0  0
 24 81  1  0  0  0  0
 25 82  1  0  0  0  0
 26 28  2  0  0  0  0
 26 81  1  0  0  0  0
 27 83  1  0  0  0  0
 28 84  1  0  0  0  0
 29 64  2  0  0  0  0
 30 49  1  0  0  0  0
 30 65  1  0  0  0  0
 31 66  1  0  0  0  0
 31 69  1  0  0  0  0
 32 70  1  0  0  0  0
 32 76  2  0  0  0  0
 33 47  1  0  0  0  0
 33 71  1  0  0  0  0
 33 77  2  0  0  0  0
 34 60  1  0  0  0  0
 34 67  1  0  0  0  0
 34 78  2  0  0  0  0
 35 61  1  0  0  0  0
 35 72  1  0  0  0  0
 35 79  2  0  0  0  0
 36 68  1  0  0  0  0
 36 73  1  0  0  0  0
 36 80  2  0  0  0  0
 37 40  1  0  0  0  0
 38 47  1  0  0  0  0
 39 67  1  0  0  0  0
 40 42  1  0  0  0  0
 41 43  1  0  0  0  0
 41 44  1  0  0  0  0
 42 46  1  0  0  0  0
 43 48  1  0  0  0  0
 44 68  1  0  0  0  0
 45 48  1  0  0  0  0
 45 68  1  0  0  0  0
 46 71  1  0  0  0  0
 47 67  1  0  0  0  0
 48 66  1  0  0  0  0
 50 59  1  0  0  0  0
 51 61  1  0  0  0  0
 52 63  1  0  0  0  0
 53 63  1  0  0  0  0
 54 63  1  0  0  0  0
 55 75  1  0  0  0  0
 56 62  1  0  0  0  0
 56 65  1  0  0  0  0
 57 62  1  0  0  0  0
 57 73  1  0  0  0  0
 58 59  1  0  0  0  0
 58 82  1  0  0  0  0
 60 63  1  0  0  0  0
 60 72  1  0  0  0  0
 61 75  1  0  0  0  0
 62 74  1  0  0  0  0
 64 66  1  0  0  0  0
M  CHG  2  74   1  75   1
M  ISO  4  36 100  58 101  73 100  82 101
M  END
> <Batch ID>
0114

> <Smiles>
CNC(C)C(=O)NC(C(=O)N1Cc2cc([101O:1][101CH2:1]C(C)c3ccn(CC(N)C[100NH:0][100C:0](=O)N4CCCC(n5nc(-c6ccc(Oc7ccc(F)cc7F)cc6)c(C(N)=O)c5N)C4)c3C)ccc2CC1C(=O)NC1CCCc2ccccc21)C(C)(C)C

> <Shape>
0.228

> <Color>
0.074

> <Negative vol penalty>
0.000

$$$$

  -OEChem-04052320083D

 91100  0     1  0  0  0  0  0999 V2000
  -27.4655  -35.8581   23.0941 C   0  0  0  0  0  0  0  0  0  0  0  0
  -27.7892  -34.5207   22.8892 C   0  0  0  0  0  0  0  0  0  0  0  0
  -20.5244  -18.8314   20.8409 C   0  0  0  0  0  0  0  0  0  0  0  0
  -22.4936  -18.0363   21.9930 C   0  0  0  0  0  0  0  0  0  0  0  0
  -26.2168  -36.2006   23.6112 C   0  0  0  0  0  0  0  0  0  0  0  0
  -26.8647  -33.5249   23.2024 C   0  0  0  0  0  0  0  0  0  0  0  0
  -26.5195  -29.9898   19.5928 C   0  0  0  0  0  0  0  0  0  0  0  0
  -19.8219  -17.7025   21.2624 C   0  0  0  0  0  0  0  0  0  0  0  0
  -21.7911  -16.9074   22.4145 C   0  0  0  0  0  0  0  0  0  0  0  0
  -27.5280  -29.0284   19.5446 C   0  0  0  0  0  0  0  0  0  0  0  0
  -19.5319  -16.1301   24.8047 C   0  0  0  0  0  0  0  0  0  0  0  0
  -19.6675  -15.7449   26.1384 C   0  0  0  0  0  0  0  0  0  0  0  0
  -26.0884  -27.4695   20.6920 C   0  0  0  0  0  0  0  0  0  0  0  0
  -20.5483  -13.6089   25.4319 C   0  0  0  0  0  0  0  0  0  0  0  0
  -28.1754  -18.9723   17.8654 C   0  0  0  0  0  0  0  0  0  0  0  0
  -21.8603  -18.9983   21.2061 C   0  0  0  0  0  0  0  0  0  0  0  0
  -29.0086  -18.6435   18.9033 C   0  0  0  0  0  0  0  0  0  0  0  0
  -22.6937  -21.3980   21.4395 C   0  0  0  0  0  0  0  0  0  0  0  0
  -25.2729  -35.2089   23.9219 C   0  0  0  0  0  0  0  0  0  0  0  0
  -25.2897  -29.7014   20.2016 C   0  0  0  0  0  0  0  0  0  0  0  0
  -25.6027  -33.8543   23.7254 C   0  0  0  0  0  0  0  0  0  0  0  0
  -25.0650  -28.4282   20.7443 C   0  0  0  0  0  0  0  0  0  0  0  0
  -29.6694  -19.8258   19.3118 C   0  0  0  0  0  0  0  0  0  0  0  0
  -20.4552  -16.7405   22.0492 C   0  0  0  0  0  0  0  0  0  0  0  0
  -27.3136  -27.7690   20.0968 C   0  0  0  0  0  0  0  0  0  0  0  0
  -19.9045  -15.2547   23.7845 C   0  0  0  0  0  0  0  0  0  0  0  0
  -20.1757  -14.4843   26.4520 C   0  0  0  0  0  0  0  0  0  0  0  0
  -20.4127  -13.9941   24.0982 C   0  0  0  0  0  0  0  0  0  0  0  0
  -22.5866  -20.1639   20.7706 C   0  0  0  0  0  0  0  0  0  0  0  0
  -29.2277  -20.8573   18.4873 C   0  0  0  0  0  0  0  0  0  0  0  0
  -23.4844  -22.1655   20.6196 C   0  0  0  0  0  0  0  0  0  0  0  0
  -29.1460  -17.3137   19.4264 C   0  0  0  0  0  0  0  0  0  0  0  0
  -22.1291  -21.8133   22.6903 C   0  0  0  0  0  0  0  0  0  0  0  0
  -23.6882  -30.8697   22.6864 C   0  0  0  0  0  0  0  0  0  0  0  0
  -21.3723  -28.8504   21.6465 C   0  0  0  0  0  0  0  0  0  0  0  0
  -20.5537  -26.0323   19.9044 C   0  0  0  0  0  0  0  0  0  0  0  0
  -27.6034  -21.0080   16.5776 C   0  0  0  0  0  0  0  0  0  0  0  0
  -23.9538  -35.6252   24.5230 C   0  0  0  0  0  0  0  0  0  0  0  0
  -24.2025  -30.7407   20.2216 C   0  0  0  0  0  0  0  0  0  0  0  0
  -23.7552  -28.0618   21.3913 C   0  0  0  0  0  0  0  0  0  0  0  0
  -30.6474  -19.9226   20.4285 C   0  0  0  0  0  0  0  0  0  0  0  0
  -22.8912  -34.5301   24.4775 C   0  0  0  0  0  0  0  0  0  0  0  0
  -24.6795  -22.7503   16.0311 C   0  0  0  0  0  0  0  0  0  0  0  0
  -23.4744  -33.2006   24.9455 C   0  0  0  0  0  0  0  0  0  0  0  0
  -23.8106  -22.4140   17.2427 C   0  0  0  0  0  0  0  0  0  0  0  0
  -31.0122  -22.5468   19.1355 C   0  0  0  0  0  0  0  0  0  0  0  0
  -25.4357  -21.5201   15.5423 C   0  0  0  0  0  0  0  0  0  0  0  0
  -25.4224  -20.5298   17.8077 C   0  0  0  0  0  0  0  0  0  0  0  0
  -31.1672  -22.4068   20.6484 C   0  0  0  0  0  0  0  0  0  0  0  0
  -24.6175  -32.7467   24.0296 C   0  0  1  0  0  0  0  0  0  0  0  0
  -29.6135  -22.3221   18.5276 C   0  0  2  0  0  0  0  0  0  0  0  0
  -23.1725  -30.5068   21.3225 C   0  0  1  0  0  0  0  0  0  0  0  0
  -24.6428  -21.7445   18.3506 C   0  0  2  0  0  0  0  0  0  0  0  0
  -18.5844  -24.6151   19.2632 C   0  0  0  0  0  0  0  0  0  0  0  0
  -21.2915  -27.6906   24.4675 C   0  0  0  0  0  0  0  0  0  0  0  0
  -20.0526  -25.7195   23.5465 C   0  0  0  0  0  0  0  0  0  0  0  0
  -19.0501  -27.9991   23.4018 C   0  0  0  0  0  0  0  0  0  0  0  0
  -27.1466  -15.7550   22.1652 C   0  0  0  0  0  0  0  0  0  0  0  0
  -26.9085  -13.3925   21.3360 C   0  0  0  0  0  0  0  0  0  0  0  0
  -21.0130  -26.4954   17.0176 C   0  0  0  0  0  0  0  0  0  0  0  0
  -28.5341  -23.1646   19.2102 C   0  0  0  0  0  0  0  0  0  0  0  0
  -28.9435  -24.6293   19.2823 C   0  0  0  0  0  0  0  0  0  0  0  0
  -28.0013  -15.1064   19.8510 C   0  0  0  0  0  0  0  0  0  0  0  0
  -27.8893  -25.4636   19.9980 C   0  0  0  0  0  0  0  0  0  1  0  0
  -21.0094  -27.4101   21.9164 C   0  0  1  0  0  0  0  0  0  0  0  0
  -19.4868  -25.7699   18.8569 C   0  0  2  0  0  0  0  0  0  0  0  0
  -20.3764  -27.2120   23.3226 C   0  0  0  0  0  0  0  0  0  0  0  0
  -26.9381  -14.8696   20.9341 C   0  0  0  0  0  0  0  0  0  0  0  0
  -23.2556  -20.1443   19.6147 N   0  0  0  0  0  0  0  0  0  0  0  0
  -28.2660  -20.3319   17.6185 N   0  0  0  0  0  0  0  0  0  0  0  0
  -23.7906  -21.3754   19.5509 N   0  0  0  0  0  0  0  0  0  0  0  0
  -22.7256  -29.1141   21.3917 N   0  0  0  0  0  0  0  0  0  0  0  0
  -26.2117  -20.9151   16.6238 N   0  0  0  0  0  0  0  0  0  0  0  0
  -23.9406  -23.4324   20.7158 N   0  0  0  0  0  0  0  0  0  0  0  0
  -21.3416  -20.8996   23.4041 N   0  0  0  0  0  0  0  0  0  0  0  0
  -28.0273  -16.4616   19.3494 N   0  0  0  0  0  0  0  0  0  0  0  0
  -24.0907  -32.1864   22.8036 N   0  0  0  0  0  0  0  0  0  0  0  0
  -20.1540  -26.9907   20.8116 N   0  0  0  0  0  0  0  0  0  0  0  0
  -30.5261  -21.1872   21.2180 N   0  3  0  0  0  0  0  0  0  0  0  0
  -25.5942  -15.2004   20.3597 N   0  3  0  0  0  0  0  0  0  0  0  0
  -20.1167  -25.4361   17.5482 N   0  3  0  0  0  0  0  0  0  0  0  0
  -30.2169  -16.9295   19.9523 O   0  0  0  0  0  0  0  0  0  0  0  0
  -22.3038  -22.9660   23.1531 O   0  0  0  0  0  0  0  0  0  0  0  0
  -23.7172  -30.0186   23.5675 O   0  0  0  0  0  0  0  0  0  0  0  0
  -20.4864  -29.7089   21.6540 O   0  0  0  0  0  0  0  0  0  0  0  0
  -21.6322  -25.4431   19.9188 O   0  0  0  0  0  0  0  0  0  0  0  0
  -28.2805  -21.5514   15.7153 O   0  0  0  0  0  0  0  0  0  0  0  0
  -19.7700  -15.6389   22.4609 O   0  0  0  0  0  0  0  0  0  0  0  0
  -28.3036  -26.8221   20.0515 O   0  0  0  0  0  0  0  0  0  1  0  0
  -20.3073  -14.1151   27.7329 F   0  0  0  0  0  0  0  0  0  0  0  0
  -20.7734  -13.1493   23.1225 F   0  0  0  0  0  0  0  0  0  0  0  0
  1  2  1  0  0  0  0
  1  5  2  0  0  0  0
  2  6  2  0  0  0  0
  3  8  2  0  0  0  0
  3 16  1  0  0  0  0
  4  9  1  0  0  0  0
  4 16  2  0  0  0  0
  5 19  1  0  0  0  0
  6 21  1  0  0  0  0
  7 10  2  0  0  0  0
  7 20  1  0  0  0  0
  8 24  1  0  0  0  0
  9 24  2  0  0  0  0
 10 25  1  0  0  0  0
 11 12  2  0  0  0  0
 11 26  1  0  0  0  0
 12 27  1  0  0  0  0
 13 22  1  0  0  0  0
 13 25  2  0  0  0  0
 14 27  2  0  0  0  0
 14 28  1  0  0  0  0
 15 17  2  0  0  0  0
 15 70  1  0  0  0  0
 16 29  1  0  0  0  0
 17 23  1  0  0  0  0
 17 32  1  0  0  0  0
 18 29  1  0  0  0  0
 18 31  2  0  0  0  0
 18 33  1  0  0  0  0
 19 21  2  0  0  0  0
 19 38  1  0  0  0  0
 20 22  2  0  0  0  0
 20 39  1  0  0  0  0
 21 50  1  0  0  0  0
 22 40  1  0  0  0  0
 23 30  2  0  0  0  0
 23 41  1  0  0  0  0
 24 88  1  0  0  0  0
 25 89  1  0  0  0  0
 26 28  2  0  0  0  0
 26 88  1  0  0  0  0
 27 90  1  0  0  0  0
 28 91  1  0  0  0  0
 29 69  2  0  0  0  0
 30 51  1  0  0  0  0
 30 70  1  0  0  0  0
 31 71  1  0  0  0  0
 31 74  1  0  0  0  0
 32 76  1  0  0  0  0
 32 82  2  0  0  0  0
 33 75  1  0  0  0  0
 33 83  2  0  0  0  0
 34 52  1  0  0  0  0
 34 77  1  0  0  0  0
 34 84  2  0  0  0  0
 35 65  1  0  0  0  0
 35 72  1  0  0  0  0
 35 85  2  0  0  0  0
 36 66  1  0  0  0  0
 36 78  1  0  0  0  0
 36 86  2  0  0  0  0
 37 70  1  0  0  0  0
 37 73  1  0  0  0  0
 37 87  2  0  0  0  0
 38 42  1  0  0  0  0
 39 52  1  0  0  0  0
 40 72  1  0  0  0  0
 41 79  1  0  0  0  0
 42 44  1  0  0  0  0
 43 45  1  0  0  0  0
 43 47  1  0  0  0  0
 44 50  1  0  0  0  0
 45 53  1  0  0  0  0
 46 49  1  0  0  0  0
 46 51  1  0  0  0  0
 47 73  1  0  0  0  0
 48 53  1  0  0  0  0
 48 73  1  0  0  0  0
 49 79  1  0  0  0  0
 50 77  1  0  0  0  0
 51 61  1  0  0  0  0
 52 72  1  0  0  0  0
 53 71  1  0  0  0  0
 54 66  1  0  0  0  0
 55 67  1  0  0  0  0
 56 67  1  0  0  0  0
 57 67  1  0  0  0  0
 58 68  1  0  0  0  0
 59 68  1  0  0  0  0
 60 81  1  0  0  0  0
 61 62  1  0  0  0  0
 62 64  1  0  0  0  0
 63 68  1  0  0  0  0
 63 76  1  0  0  0  0
 64 89  1  0  0  0  0
 65 67  1  0  0  0  0
 65 78  1  0  0  0  0
 66 81  1  0  0  0  0
 68 80  1  0  0  0  0
 69 71  1  0  0  0  0
M  CHG  3  79   1  80   1  81   1
M  ISO  4  37 100  64 101  70 100  89 101
M  END
> <Batch ID>
0114

> <Smiles>
CNC(C)C(=O)NC(C(=O)N1Cc2cc([101O:1][101CH2:1]CCC3CCNCc4c(C(=O)NCC(C)(C)N)c[100n:0]([100C:0](=O)N5CCCC(n6nc(-c7ccc(Oc8ccc(F)cc8F)cc7)c(C(N)=O)c6N)C5)c43)ccc2CC1C(=O)NC1CCCc2ccccc21)C(C)(C)C

> <Shape>
0.224

> <Color>
0.067

> <Negative vol penalty>
0.000

$$$$

  -OEChem-04052320083D

 87 95  0     1  0  0  0  0  0999 V2000
  -20.6550  -35.0108   22.3666 C   0  0  0  0  0  0  0  0  0  0  0  0
  -21.8728  -34.4565   21.9856 C   0  0  0  0  0  0  0  0  0  0  0  0
  -26.0609  -17.3649   20.2501 C   0  0  0  0  0  0  0  0  0  0  0  0
  -28.3539  -17.2657   21.0048 C   0  0  0  0  0  0  0  0  0  0  0  0
  -19.7821  -34.2840   23.1750 C   0  0  0  0  0  0  0  0  0  0  0  0
  -22.2188  -33.1754   22.4138 C   0  0  0  0  0  0  0  0  0  0  0  0
  -25.4338  -28.9958   19.2992 C   0  0  0  0  0  0  0  0  0  0  0  0
  -25.9954  -15.9717   20.2659 C   0  0  0  0  0  0  0  0  0  0  0  0
  -28.2884  -15.8725   21.0207 C   0  0  0  0  0  0  0  0  0  0  0  0
  -26.7770  -28.6244   19.3398 C   0  0  0  0  0  0  0  0  0  0  0  0
  -28.8397  -12.2816   20.9151 C   0  0  0  0  0  0  0  0  0  0  0  0
  -29.9110  -11.5759   20.3675 C   0  0  0  0  0  0  0  0  0  0  0  0
  -31.6135  -27.2149   19.2879 C   0  0  0  0  0  0  0  0  0  0  0  0
  -26.2258  -26.8173   20.8397 C   0  0  0  0  0  0  0  0  0  0  0  0
  -29.5198  -12.6382   18.2332 C   0  0  0  0  0  0  0  0  0  0  0  0
  -32.4768  -26.4468   18.5382 C   0  0  0  0  0  0  0  0  0  0  0  0
  -27.2402  -18.0120   20.6195 C   0  0  0  0  0  0  0  0  0  0  0  0
  -26.9993  -20.3292   21.6587 C   0  0  0  0  0  0  0  0  0  0  0  0
  -20.1133  -32.9895   23.6054 C   0  0  0  0  0  0  0  0  0  0  0  0
  -24.4765  -28.2862   20.0385 C   0  0  0  0  0  0  0  0  0  0  0  0
  -21.3501  -32.4311   23.2299 C   0  0  0  0  0  0  0  0  0  0  0  0
  -24.8708  -27.1801   20.8048 C   0  0  0  0  0  0  0  0  0  0  0  0
  -31.3207  -26.4908   20.4699 C   0  0  0  0  0  0  0  0  0  0  0  0
  -27.1091  -15.2255   20.6512 C   0  0  0  0  0  0  0  0  0  0  0  0
  -27.1736  -27.5368   20.1124 C   0  0  0  0  0  0  0  0  0  0  0  0
  -28.1083  -13.1655   20.1217 C   0  0  0  0  0  0  0  0  0  0  0  0
  -30.2511  -11.7542   19.0266 C   0  0  0  0  0  0  0  0  0  0  0  0
  -28.4484  -13.3439   18.7808 C   0  0  0  0  0  0  0  0  0  0  0  0
  -27.3087  -19.4511   20.6028 C   0  0  0  0  0  0  0  0  0  0  0  0
  -32.0142  -25.3023   20.4066 C   0  0  0  0  0  0  0  0  0  0  0  0
  -27.2247  -21.5814   21.1413 C   0  0  0  0  0  0  0  0  0  0  0  0
  -26.5486  -20.0389   22.9885 C   0  0  0  0  0  0  0  0  0  0  0  0
  -22.4779  -29.0113   22.4014 C   0  0  0  0  0  0  0  0  0  0  0  0
  -21.4024  -25.9931   21.8957 C   0  0  0  0  0  0  0  0  0  0  0  0
  -22.0340  -22.8507   20.7238 C   0  0  0  0  0  0  0  0  0  0  0  0
  -30.7181  -23.5960   16.7154 C   0  0  0  0  0  0  0  0  0  0  0  0
  -19.1581  -32.2609   24.5172 C   0  0  0  0  0  0  0  0  0  0  0  0
  -23.0277  -28.6831   19.9630 C   0  0  0  0  0  0  0  0  0  0  0  0
  -23.8792  -26.3728   21.6007 C   0  0  0  0  0  0  0  0  0  0  0  0
  -19.4363  -30.7635   24.6196 C   0  0  0  0  0  0  0  0  0  0  0  0
  -27.1908  -23.9852   17.0047 C   0  0  0  0  0  0  0  0  0  0  0  0
  -20.9250  -30.5106   24.8351 C   0  0  0  0  0  0  0  0  0  0  0  0
  -26.7932  -22.9466   18.0549 C   0  0  0  0  0  0  0  0  0  0  0  0
  -28.3192  -23.4787   16.1090 C   0  0  0  0  0  0  0  0  0  0  0  0
  -29.1160  -21.9604   17.8792 C   0  0  0  0  0  0  0  0  0  0  0  0
  -21.7503  -31.0345   23.6537 C   0  0  1  0  0  0  0  0  0  0  0  0
  -22.2139  -28.2048   21.1614 C   0  0  1  0  0  0  0  0  0  0  0  0
  -28.0196  -22.4472   18.8422 C   0  0  2  0  0  0  0  0  0  0  0  0
  -32.0717  -24.1796   21.3667 C   0  0  0  0  0  0  0  0  0  0  0  0
  -20.9746  -20.5887   20.4817 C   0  0  0  0  0  0  0  0  0  0  0  0
  -31.6563  -31.1875   21.4845 C   0  0  0  0  0  0  0  0  0  0  0  0
  -30.5570  -30.8322   23.7147 C   0  0  0  0  0  0  0  0  0  0  0  0
  -35.0226  -24.7015   18.6360 C   0  0  0  0  0  0  0  0  0  0  0  0
  -21.8374  -25.4736   24.8708 C   0  0  0  0  0  0  0  0  0  0  0  0
  -21.6873  -23.0205   24.3932 C   0  0  0  0  0  0  0  0  0  0  0  0
  -19.7308  -24.4998   23.9388 C   0  0  0  0  0  0  0  0  0  0  0  0
  -22.2622  -22.9313   17.7741 C   0  0  0  0  0  0  0  0  0  0  0  0
  -33.0909  -23.6065   17.4425 C   0  0  0  0  0  0  0  0  0  0  0  0
  -31.6843  -28.8724   22.5440 C   0  0  0  0  0  0  0  0  0  0  0  0
  -28.9504  -26.5615   21.3566 C   0  0  0  0  0  0  0  0  0  1  0  0
  -30.4133  -26.9458   21.5892 C   0  0  2  0  0  0  0  0  0  0  0  0
  -21.7575  -24.6276   22.4327 C   0  0  1  0  0  0  0  0  0  0  0  0
  -21.2318  -21.9330   19.8188 C   0  0  2  0  0  0  0  0  0  0  0  0
  -31.6880  -30.3859   22.7867 C   0  0  0  0  0  0  0  0  0  0  0  0
  -33.5739  -24.2194   18.7667 C   0  0  2  0  0  0  0  0  0  0  0  0
  -21.2725  -24.4216   23.8955 C   0  0  0  0  0  0  0  0  0  0  0  0
  -27.7006  -20.0912   19.4979 N   0  0  0  0  0  0  0  0  0  0  0  0
  -32.7137  -25.2867   19.2282 N   0  0  0  0  0  0  0  0  0  0  0  0
  -27.6389  -21.3848   19.8567 N   0  0  0  0  0  0  0  0  0  0  0  0
  -22.4752  -26.8042   21.4994 N   0  0  0  0  0  0  0  0  0  0  0  0
  -29.4523  -23.0216   16.9171 N   0  0  0  0  0  0  0  0  0  0  0  0
  -27.1069  -22.8203   21.6642 N   0  0  0  0  0  0  0  0  0  0  0  0
  -26.3690  -18.6982   23.3554 N   0  0  0  0  0  0  0  0  0  0  0  0
  -21.6660  -30.1216   22.5339 N   0  0  0  0  0  0  0  0  0  0  0  0
  -21.2167  -23.6619   21.4823 N   0  0  0  0  0  0  0  0  0  0  0  0
  -31.7355  -23.1100   17.5274 N   0  0  0  0  0  0  0  0  0  0  0  0
  -21.9635  -21.6953   18.5424 N   0  3  0  0  0  0  0  0  0  0  0  0
  -30.4785  -28.4269   21.8059 N   0  3  0  0  0  0  0  0  0  0  0  0
  -26.2963  -20.9424   23.8213 O   0  0  0  0  0  0  0  0  0  0  0  0
  -23.3524  -28.6520   23.1810 O   0  0  0  0  0  0  0  0  0  0  0  0
  -20.2166  -26.3249   21.8236 O   0  0  0  0  0  0  0  0  0  0  0  0
  -23.2625  -22.8456   20.7574 O   0  0  0  0  0  0  0  0  0  0  0  0
  -30.9250  -24.4805   15.8777 O   0  0  0  0  0  0  0  0  0  0  0  0
  -27.0455  -13.8660   20.6670 O   0  0  0  0  0  0  0  0  0  0  0  0
  -28.4842  -27.1725   20.1542 O   0  0  0  0  0  0  0  0  0  1  0  0
  -31.2809  -11.0776   18.5013 F   0  0  0  0  0  0  0  0  0  0  0  0
  -27.7503  -14.1926   18.0139 F   0  0  0  0  0  0  0  0  0  0  0  0
  1  2  1  0  0  0  0
  1  5  2  0  0  0  0
  2  6  2  0  0  0  0
  3  8  2  0  0  0  0
  3 17  1  0  0  0  0
  4  9  1  0  0  0  0
  4 17  2  0  0  0  0
  5 19  1  0  0  0  0
  6 21  1  0  0  0  0
  7 10  2  0  0  0  0
  7 20  1  0  0  0  0
  8 24  1  0  0  0  0
  9 24  2  0  0  0  0
 10 25  1  0  0  0  0
 11 12  2  0  0  0  0
 11 26  1  0  0  0  0
 12 27  1  0  0  0  0
 13 16  2  0  0  0  0
 13 23  1  0  0  0  0
 14 22  1  0  0  0  0
 14 25  2  0  0  0  0
 15 27  2  0  0  0  0
 15 28  1  0  0  0  0
 16 68  1  0  0  0  0
 17 29  1  0  0  0  0
 18 29  1  0  0  0  0
 18 31  2  0  0  0  0
 18 32  1  0  0  0  0
 19 21  2  0  0  0  0
 19 37  1  0  0  0  0
 20 22  2  0  0  0  0
 20 38  1  0  0  0  0
 21 46  1  0  0  0  0
 22 39  1  0  0  0  0
 23 30  2  0  0  0  0
 23 61  1  0  0  0  0
 24 84  1  0  0  0  0
 25 85  1  0  0  0  0
 26 28  2  0  0  0  0
 26 84  1  0  0  0  0
 27 86  1  0  0  0  0
 28 87  1  0  0  0  0
 29 67  2  0  0  0  0
 30 49  1  0  0  0  0
 30 68  1  0  0  0  0
 31 69  1  0  0  0  0
 31 72  1  0  0  0  0
 32 73  1  0  0  0  0
 32 79  2  0  0  0  0
 33 47  1  0  0  0  0
 33 74  1  0  0  0  0
 33 80  2  0  0  0  0
 34 62  1  0  0  0  0
 34 70  1  0  0  0  0
 34 81  2  0  0  0  0
 35 63  1  0  0  0  0
 35 75  1  0  0  0  0
 35 82  2  0  0  0  0
 36 71  1  0  0  0  0
 36 76  1  0  0  0  0
 36 83  2  0  0  0  0
 37 40  1  0  0  0  0
 38 47  1  0  0  0  0
 39 70  1  0  0  0  0
 40 42  1  0  0  0  0
 41 43  1  0  0  0  0
 41 44  1  0  0  0  0
 42 46  1  0  0  0  0
 43 48  1  0  0  0  0
 44 71  1  0  0  0  0
 45 48  1  0  0  0  0
 45 71  1  0  0  0  0
 46 74  1  0  0  0  0
 47 70  1  0  0  0  0
 48 69  1  0  0  0  0
 50 63  1  0  0  0  0
 51 64  1  0  0  0  0
 52 64  1  0  0  0  0
 53 65  1  0  0  0  0
 54 66  1  0  0  0  0
 55 66  1  0  0  0  0
 56 66  1  0  0  0  0
 57 77  1  0  0  0  0
 58 65  1  0  0  0  0
 58 76  1  0  0  0  0
 59 64  1  0  0  0  0
 59 78  1  0  0  0  0
 60 61  1  0  0  0  0
 60 85  1  0  0  0  0
 61 78  1  0  0  0  0
 62 66  1  0  0  0  0
 62 75  1  0  0  0  0
 63 77  1  0  0  0  0
 65 68  1  0  0  0  0
 67 69  1  0  0  0  0
M  CHG  2  77   1  78   1
M  ISO  4  36 100  60 101  76 100  85 101
M  END
> <Batch ID>
0114

> <Smiles>
CNC(C)C(=O)NC(C(=O)N1Cc2cc([101O:1][101CH2:1]C(NCC(C)C)c3ccn(C(C)C[100NH:0][100C:0](=O)N4CCCC(n5nc(-c6ccc(Oc7ccc(F)cc7F)cc6)c(C(N)=O)c5N)C4)c3C)ccc2CC1C(=O)NC1CCCc2ccccc21)C(C)(C)C

> <Shape>
0.207

> <Color>
0.077

> <Negative vol penalty>
0.000

$$$$

  -OEChem-04052320083D

 86 94  0     1  0  0  0  0  0999 V2000
  -17.5482  -25.9760   21.7876 C   0  0  0  0  0  0  0  0  0  0  0  0
  -18.8381  -25.4550   21.7847 C   0  0  0  0  0  0  0  0  0  0  0  0
  -23.4882   -9.5890   20.2656 C   0  0  0  0  0  0  0  0  0  0  0  0
  -23.8842  -10.1391   22.5846 C   0  0  0  0  0  0  0  0  0  0  0  0
  -17.3442  -27.3278   22.0616 C   0  0  0  0  0  0  0  0  0  0  0  0
  -19.9250  -26.2858   22.0546 C   0  0  0  0  0  0  0  0  0  0  0  0
  -23.2329  -24.1781   25.2578 C   0  0  0  0  0  0  0  0  0  0  0  0
  -22.8566   -8.4074   20.6538 C   0  0  0  0  0  0  0  0  0  0  0  0
  -23.2525   -8.9576   22.9728 C   0  0  0  0  0  0  0  0  0  0  0  0
  -24.1028  -23.2214   24.7366 C   0  0  0  0  0  0  0  0  0  0  0  0
  -20.0876   -7.8243   23.3177 C   0  0  0  0  0  0  0  0  0  0  0  0
  -19.1714   -7.8955   24.3671 C   0  0  0  0  0  0  0  0  0  0  0  0
  -25.8466  -24.8836   24.6121 C   0  0  0  0  0  0  0  0  0  0  0  0
  -27.4574  -19.5310   24.0403 C   0  0  0  0  0  0  0  0  0  0  0  0
  -28.2455  -19.6995   21.3695 C   0  0  0  0  0  0  0  0  0  0  0  0
  -20.5066   -6.3343   25.6387 C   0  0  0  0  0  0  0  0  0  0  0  0
  -24.0020  -10.4548   21.2311 C   0  0  0  0  0  0  0  0  0  0  0  0
  -24.0571  -12.9344   20.6343 C   0  0  0  0  0  0  0  0  0  0  0  0
  -18.4284  -28.1735   22.3445 C   0  0  0  0  0  0  0  0  0  0  0  0
  -23.6607  -25.4996   25.4503 C   0  0  0  0  0  0  0  0  0  0  0  0
  -19.7355  -27.6504   22.3313 C   0  0  0  0  0  0  0  0  0  0  0  0
  -24.9809  -25.8546   25.1383 C   0  0  0  0  0  0  0  0  0  0  0  0
  -28.4715  -18.7032   23.5588 C   0  0  0  0  0  0  0  0  0  0  0  0
  -27.2313  -20.5273   21.8509 C   0  0  0  0  0  0  0  0  0  0  0  0
  -28.8656  -18.7874   22.2235 C   0  0  0  0  0  0  0  0  0  0  0  0
  -26.8372  -20.4430   23.1863 C   0  0  0  0  0  0  0  0  0  0  0  0
  -22.7387   -8.0917   22.0073 C   0  0  0  0  0  0  0  0  0  0  0  0
  -25.4090  -23.5747   24.4109 C   0  0  0  0  0  0  0  0  0  0  0  0
  -21.2132   -7.0080   23.4288 C   0  0  0  0  0  0  0  0  0  0  0  0
  -19.3809   -7.1505   25.5276 C   0  0  0  0  0  0  0  0  0  0  0  0
  -21.4228   -6.2631   24.5893 C   0  0  0  0  0  0  0  0  0  0  0  0
  -24.6551  -11.6752   20.8307 C   0  0  0  0  0  0  0  0  0  0  0  0
  -25.0954  -13.7535   20.2636 C   0  0  0  0  0  0  0  0  0  0  0  0
  -22.6857  -13.3285   20.7745 C   0  0  0  0  0  0  0  0  0  0  0  0
  -22.7932  -28.3294   24.2915 C   0  0  0  0  0  0  0  0  0  0  0  0
  -24.9240  -29.4391   26.4711 C   0  0  0  0  0  0  0  0  0  0  0  0
  -27.6800  -28.8412   28.3930 C   0  0  0  0  0  0  0  0  0  0  0  0
  -30.3273  -15.5806   20.9230 C   0  0  0  0  0  0  0  0  0  0  0  0
  -18.1624  -29.6379   22.5883 C   0  0  0  0  0  0  0  0  0  0  0  0
  -22.7181  -26.5133   26.0385 C   0  0  0  0  0  0  0  0  0  0  0  0
  -25.4954  -27.2549   25.3449 C   0  0  0  0  0  0  0  0  0  0  0  0
  -19.3358  -30.3710   23.2331 C   0  0  0  0  0  0  0  0  0  0  0  0
  -29.8560  -12.6487   18.9586 C   0  0  0  0  0  0  0  0  0  0  0  0
  -20.6406  -30.0143   22.5280 C   0  0  0  0  0  0  0  0  0  0  0  0
  -28.4144  -12.2349   19.2592 C   0  0  0  0  0  0  0  0  0  0  0  0
  -30.5472  -13.2236   20.1931 C   0  0  0  0  0  0  0  0  0  0  0  0
  -28.3837  -13.9168   21.1484 C   0  0  0  0  0  0  0  0  0  0  0  0
  -20.9380  -28.5144   22.6438 C   0  0  1  0  0  0  0  0  0  0  0  0
  -23.1074  -27.9517   25.7114 C   0  0  1  0  0  0  0  0  0  0  0  0
  -27.6276  -13.3828   19.9198 C   0  0  2  0  0  0  0  0  0  0  0  0
  -29.1214  -17.7349   24.4919 C   0  0  0  0  0  0  0  0  0  0  0  0
  -29.2095  -29.9522   30.0433 C   0  0  0  0  0  0  0  0  0  0  0  0
  -26.6162  -23.2384   18.3649 C   0  0  0  0  0  0  0  0  0  0  0  0
  -27.8114  -25.0339   19.6254 C   0  0  0  0  0  0  0  0  0  0  0  0
  -25.5069  -24.3299   20.3191 C   0  0  0  0  0  0  0  0  0  0  0  0
  -26.2685  -30.9632   24.1953 C   0  0  0  0  0  0  0  0  0  0  0  0
  -28.2705  -31.2592   25.6693 C   0  0  0  0  0  0  0  0  0  0  0  0
  -26.0765  -32.2412   26.3364 C   0  0  0  0  0  0  0  0  0  0  0  0
  -26.9929  -26.8961   30.5151 C   0  0  0  0  0  0  0  0  0  0  0  0
  -26.5813  -21.4955   20.9178 C   0  0  0  0  0  0  0  0  0  0  0  0
  -29.9495  -17.9118   21.6858 C   0  0  0  0  0  0  0  0  0  0  0  0
  -25.7482  -21.3225   23.7265 C   0  0  0  0  0  0  0  0  0  1  0  0
  -27.4637  -22.7332   20.6674 C   0  0  0  0  0  0  0  0  0  0  0  0
  -26.4038  -29.7374   26.4636 C   0  0  1  0  0  0  0  0  0  0  0  0
  -27.9603  -29.1042   29.8616 C   0  0  2  0  0  0  0  0  0  0  0  0
  -26.8541  -23.8388   19.7646 C   0  0  0  0  0  0  0  0  0  0  0  0
  -26.7449  -31.0242   25.6603 C   0  0  0  0  0  0  0  0  0  0  0  0
  -25.9712  -11.6883   20.6034 N   0  0  0  0  0  0  0  0  0  0  0  0
  -26.2088  -12.9657   20.2602 N   0  0  0  0  0  0  0  0  0  0  0  0
  -24.5337  -28.2118   25.9168 N   0  0  0  0  0  0  0  0  0  0  0  0
  -29.7506  -14.3089   20.7705 N   0  0  0  0  0  0  0  0  0  0  0  0
  -25.1556  -15.0635   19.9432 N   0  0  0  0  0  0  0  0  0  0  0  0
  -21.7490  -12.3611   21.1632 N   0  0  0  0  0  0  0  0  0  0  0  0
  -21.4583  -28.2022   23.9576 N   0  0  0  0  0  0  0  0  0  0  0  0
  -26.8191  -29.7780   27.8616 N   0  0  0  0  0  0  0  0  0  0  0  0
  -29.5014  -16.5537   21.4724 N   0  0  0  0  0  0  0  0  0  0  0  0
  -28.1548  -27.8187   30.5901 N   0  3  0  0  0  0  0  0  0  0  0  0
  -22.2997  -14.4998   20.5456 O   0  0  0  0  0  0  0  0  0  0  0  0
  -23.6948  -28.7097   23.5538 O   0  0  0  0  0  0  0  0  0  0  0  0
  -24.1437  -30.2614   26.9575 O   0  0  0  0  0  0  0  0  0  0  0  0
  -28.1781  -27.9010   27.7778 O   0  0  0  0  0  0  0  0  0  0  0  0
  -31.4902  -15.8316   20.5890 O   0  0  0  0  0  0  0  0  0  0  0  0
  -22.1223   -6.9390   22.3864 O   0  0  0  0  0  0  0  0  0  0  0  0
  -26.2600  -22.6430   23.9014 O   0  0  0  0  0  0  0  0  0  1  0  0
  -18.5019   -7.2202   26.5358 F   0  0  0  0  0  0  0  0  0  0  0  0
  -22.5030   -5.4781   24.7023 F   0  0  0  0  0  0  0  0  0  0  0  0
  1  2  1  0  0  0  0
  1  5  2  0  0  0  0
  2  6  2  0  0  0  0
  3  8  2  0  0  0  0
  3 17  1  0  0  0  0
  4  9  1  0  0  0  0
  4 17  2  0  0  0  0
  5 19  1  0  0  0  0
  6 21  1  0  0  0  0
  7 10  2  0  0  0  0
  7 20  1  0  0  0  0
  8 27  1  0  0  0  0
  9 27  2  0  0  0  0
 10 28  1  0  0  0  0
 11 12  2  0  0  0  0
 11 29  1  0  0  0  0
 12 30  1  0  0  0  0
 13 22  1  0  0  0  0
 13 28  2  0  0  0  0
 14 23  2  0  0  0  0
 14 26  1  0  0  0  0
 15 24  1  0  0  0  0
 15 25  2  0  0  0  0
 16 30  2  0  0  0  0
 16 31  1  0  0  0  0
 17 32  1  0  0  0  0
 18 32  1  0  0  0  0
 18 33  2  0  0  0  0
 18 34  1  0  0  0  0
 19 21  2  0  0  0  0
 19 39  1  0  0  0  0
 20 22  2  0  0  0  0
 20 40  1  0  0  0  0
 21 48  1  0  0  0  0
 22 41  1  0  0  0  0
 23 25  1  0  0  0  0
 23 51  1  0  0  0  0
 24 26  2  0  0  0  0
 24 60  1  0  0  0  0
 25 61  1  0  0  0  0
 26 62  1  0  0  0  0
 27 83  1  0  0  0  0
 28 84  1  0  0  0  0
 29 31  2  0  0  0  0
 29 83  1  0  0  0  0
 30 85  1  0  0  0  0
 31 86  1  0  0  0  0
 32 68  2  0  0  0  0
 33 69  1  0  0  0  0
 33 72  1  0  0  0  0
 34 73  1  0  0  0  0
 34 78  2  0  0  0  0
 35 49  1  0  0  0  0
 35 74  1  0  0  0  0
 35 79  2  0  0  0  0
 36 64  1  0  0  0  0
 36 70  1  0  0  0  0
 36 80  2  0  0  0  0
 37 65  1  0  0  0  0
 37 75  1  0  0  0  0
 37 81  2  0  0  0  0
 38 71  1  0  0  0  0
 38 76  1  0  0  0  0
 38 82  2  0  0  0  0
 39 42  1  0  0  0  0
 40 49  1  0  0  0  0
 41 70  1  0  0  0  0
 42 44  1  0  0  0  0
 43 45  1  0  0  0  0
 43 46  1  0  0  0  0
 44 48  1  0  0  0  0
 45 50  1  0  0  0  0
 46 71  1  0  0  0  0
 47 50  1  0  0  0  0
 47 71  1  0  0  0  0
 48 74  1  0  0  0  0
 49 70  1  0  0  0  0
 50 69  1  0  0  0  0
 52 65  1  0  0  0  0
 53 66  1  0  0  0  0
 54 66  1  0  0  0  0
 55 66  1  0  0  0  0
 56 67  1  0  0  0  0
 57 67  1  0  0  0  0
 58 67  1  0  0  0  0
 59 77  1  0  0  0  0
 60 63  1  0  0  0  0
 61 76  1  0  0  0  0
 62 84  1  0  0  0  0
 63 66  1  0  0  0  0
 64 67  1  0  0  0  0
 64 75  1  0  0  0  0
 65 77  1  0  0  0  0
 68 69  1  0  0  0  0
M  CHG  1  77   1
M  ISO  4  38 100  62 101  76 100  84 101
M  END
> <Batch ID>
0114

> <Smiles>
CNC(C)C(=O)NC(C(=O)N1Cc2cc([101O:1][101CH2:1]c3cc(C)c(C[100NH:0][100C:0](=O)N4CCCC(n5nc(-c6ccc(Oc7ccc(F)cc7F)cc6)c(C(N)=O)c5N)C4)cc3CCC(C)(C)C)ccc2CC1C(=O)NC1CCCc2ccccc21)C(C)(C)C

> <Shape>
0.286

> <Color>
0.194

> <Negative vol penalty>
0.000

$$$$

  -OEChem-04052320083D

 83 91  0     1  0  0  0  0  0999 V2000
  -29.1389  -24.4640   17.7699 C   0  0  0  0  0  0  0  0  0  0  0  0
  -27.8517  -24.9138   18.0459 C   0  0  0  0  0  0  0  0  0  0  0  0
  -26.9034  -17.1049   21.1199 C   0  0  0  0  0  0  0  0  0  0  0  0
  -24.7006  -18.0779   20.9256 C   0  0  0  0  0  0  0  0  0  0  0  0
  -30.1659  -24.6885   18.6857 C   0  0  0  0  0  0  0  0  0  0  0  0
  -27.5905  -25.5873   19.2386 C   0  0  0  0  0  0  0  0  0  0  0  0
  -24.7223  -29.7047   18.5567 C   0  0  0  0  0  0  0  0  0  0  0  0
  -26.4281  -15.9176   20.5633 C   0  0  0  0  0  0  0  0  0  0  0  0
  -24.2252  -16.8905   20.3689 C   0  0  0  0  0  0  0  0  0  0  0  0
  -23.3540  -29.5051   18.3782 C   0  0  0  0  0  0  0  0  0  0  0  0
  -24.6586  -13.2234   21.5806 C   0  0  0  0  0  0  0  0  0  0  0  0
  -25.0335  -12.0267   22.1912 C   0  0  0  0  0  0  0  0  0  0  0  0
  -22.9750  -30.0773   20.6908 C   0  0  0  0  0  0  0  0  0  0  0  0
  -26.0858  -11.3090   20.1382 C   0  0  0  0  0  0  0  0  0  0  0  0
  -26.0397  -18.1851   21.3011 C   0  0  0  0  0  0  0  0  0  0  0  0
  -27.5538  -20.2368   21.3739 C   0  0  0  0  0  0  0  0  0  0  0  0
  -29.9192  -25.3736   19.8859 C   0  0  0  0  0  0  0  0  0  0  0  0
  -25.2292  -30.0821   19.8085 C   0  0  0  0  0  0  0  0  0  0  0  0
  -28.6149  -25.8200   20.1720 C   0  0  0  0  0  0  0  0  0  0  0  0
  -24.3498  -30.2835   20.8819 C   0  0  0  0  0  0  0  0  0  0  0  0
  -25.0890  -15.8104   20.1877 C   0  0  0  0  0  0  0  0  0  0  0  0
  -22.4805  -29.6886   19.4460 C   0  0  0  0  0  0  0  0  0  0  0  0
  -24.9972  -13.4630   20.2488 C   0  0  0  0  0  0  0  0  0  0  0  0
  -25.7472  -11.0695   21.4700 C   0  0  0  0  0  0  0  0  0  0  0  0
  -25.7108  -12.5058   19.5276 C   0  0  0  0  0  0  0  0  0  0  0  0
  -26.5299  -19.4117   21.8765 C   0  0  0  0  0  0  0  0  0  0  0  0
  -27.6384  -21.2680   22.2773 C   0  0  0  0  0  0  0  0  0  0  0  0
  -28.3566  -20.0848   20.1957 C   0  0  0  0  0  0  0  0  0  0  0  0
  -27.2350  -28.7791   21.9019 C   0  0  0  0  0  0  0  0  0  0  0  0
  -26.8732  -31.6192   23.4268 C   0  0  0  0  0  0  0  0  0  0  0  0
  -24.1639  -33.8834   24.1687 C   0  0  0  0  0  0  0  0  0  0  0  0
  -23.7187  -23.6474   26.1276 C   0  0  0  0  0  0  0  0  0  0  0  0
  -31.0514  -25.5510   20.8664 C   0  0  0  0  0  0  0  0  0  0  0  0
  -26.7048  -30.3195   19.9778 C   0  0  0  0  0  0  0  0  0  0  0  0
  -24.8413  -30.7082   22.2408 C   0  0  0  0  0  0  0  0  0  0  0  0
  -30.7705  -26.6018   21.9375 C   0  0  0  0  0  0  0  0  0  0  0  0
  -26.9083  -22.2663   26.8991 C   0  0  0  0  0  0  0  0  0  0  0  0
  -29.3748  -26.4087   22.5219 C   0  0  0  0  0  0  0  0  0  0  0  0
  -21.4535  -27.2047   23.7796 C   0  0  0  0  0  0  0  0  0  0  0  0
  -19.6301  -25.5948   24.4663 C   0  0  0  0  0  0  0  0  0  0  0  0
  -27.2654  -21.4525   25.6540 C   0  0  0  0  0  0  0  0  0  0  0  0
  -22.4883  -26.0849   23.8941 C   0  0  0  0  0  0  0  0  0  0  0  0
  -20.6619  -24.4724   24.5828 C   0  0  0  0  0  0  0  0  0  0  0  0
  -25.4142  -22.1998   27.2074 C   0  0  0  0  0  0  0  0  0  0  0  0
  -24.8901  -21.7590   24.8400 C   0  0  0  0  0  0  0  0  0  0  0  0
  -28.2973  -26.5762   21.4438 C   0  0  1  0  0  0  0  0  0  0  0  0
  -27.1662  -30.2030   21.4273 C   0  0  1  0  0  0  0  0  0  0  0  0
  -20.0401  -26.6900   23.4713 C   0  0  0  0  0  0  0  0  0  0  0  0
  -26.3776  -21.8411   24.4565 C   0  0  2  0  0  0  0  0  0  0  0  0
  -22.0528  -25.0218   24.9048 C   0  0  0  0  0  0  0  0  0  0  0  0
  -24.1706  -36.3615   24.5641 C   0  0  0  0  0  0  0  0  0  0  0  0
  -18.7059  -27.3043   17.4575 C   0  0  0  0  0  0  0  0  0  0  0  0
  -27.0776  -30.8561   26.3740 C   0  0  0  0  0  0  0  0  0  0  0  0
  -25.5409  -32.7609   26.9019 C   0  0  0  0  0  0  0  0  0  0  0  0
  -27.7610  -33.2051   25.8548 C   0  0  0  0  0  0  0  0  0  0  0  0
  -22.1584  -34.3452   22.0418 C   0  0  0  0  0  0  0  0  0  0  0  0
  -19.9156  -26.2126   22.0218 C   0  0  0  0  0  0  0  0  0  0  0  0
  -19.7646  -27.3863   21.0672 C   0  0  0  0  0  0  0  0  0  0  0  0
  -20.7485  -28.5314   18.2984 C   0  0  0  0  0  0  0  0  0  1  0  0
  -25.9234  -32.1602   24.4680 C   0  0  1  0  0  0  0  0  0  0  0  0
  -23.9283  -35.2511   23.5536 C   0  0  2  0  0  0  0  0  0  0  0  0
  -19.3933  -27.9333   18.6586 C   0  0  2  0  0  0  0  0  0  0  0  0
  -26.5678  -32.2252   25.8814 C   0  0  0  0  0  0  0  0  0  0  0  0
  -26.0020  -19.8783   23.0113 N   0  0  0  0  0  0  0  0  0  0  0  0
  -26.6970  -21.0077   23.2292 N   0  0  0  0  0  0  0  0  0  0  0  0
  -26.2933  -30.9216   22.3578 N   0  0  0  0  0  0  0  0  0  0  0  0
  -24.6284  -22.5815   26.0315 N   0  0  0  0  0  0  0  0  0  0  0  0
  -28.4256  -22.3627   22.3424 N   0  0  0  0  0  0  0  0  0  0  0  0
  -28.1387  -18.9674   19.3783 N   0  0  0  0  0  0  0  0  0  0  0  0
  -28.0813  -27.9786   21.1587 N   0  0  0  0  0  0  0  0  0  0  0  0
  -25.4560  -33.4473   23.9646 N   0  0  0  0  0  0  0  0  0  0  0  0
  -23.0191  -23.9479   24.9652 N   0  0  0  0  0  0  0  0  0  0  0  0
  -22.5266  -35.3625   23.0599 N   0  3  0  0  0  0  0  0  0  0  0  0
  -19.6024  -26.8705   19.6841 N   0  3  0  0  0  0  0  0  0  0  0  0
  -29.2522  -20.9068   19.8860 O   0  0  0  0  0  0  0  0  0  0  0  0
  -26.5706  -28.4327   22.8716 O   0  0  0  0  0  0  0  0  0  0  0  0
  -28.0846  -31.8146   23.5536 O   0  0  0  0  0  0  0  0  0  0  0  0
  -23.2903  -33.2654   24.7732 O   0  0  0  0  0  0  0  0  0  0  0  0
  -23.5467  -24.2876   27.1704 O   0  0  0  0  0  0  0  0  0  0  0  0
  -24.6249  -14.6520   19.6443 O   0  0  0  0  0  0  0  0  0  0  0  0
  -21.1446  -29.4938   19.2747 O   0  0  0  0  0  0  0  0  0  1  0  0
  -26.1085   -9.9209   22.0569 F   0  0  0  0  0  0  0  0  0  0  0  0
  -26.0400  -12.7308   18.2482 F   0  0  0  0  0  0  0  0  0  0  0  0
  1  2  1  0  0  0  0
  1  5  2  0  0  0  0
  2  6  2  0  0  0  0
  3  8  2  0  0  0  0
  3 15  1  0  0  0  0
  4  9  1  0  0  0  0
  4 15  2  0  0  0  0
  5 17  1  0  0  0  0
  6 19  1  0  0  0  0
  7 10  2  0  0  0  0
  7 18  1  0  0  0  0
  8 21  1  0  0  0  0
  9 21  2  0  0  0  0
 10 22  1  0  0  0  0
 11 12  2  0  0  0  0
 11 23  1  0  0  0  0
 12 24  1  0  0  0  0
 13 20  1  0  0  0  0
 13 22  2  0  0  0  0
 14 24  2  0  0  0  0
 14 25  1  0  0  0  0
 15 26  1  0  0  0  0
 16 26  1  0  0  0  0
 16 27  2  0  0  0  0
 16 28  1  0  0  0  0
 17 19  2  0  0  0  0
 17 33  1  0  0  0  0
 18 20  2  0  0  0  0
 18 34  1  0  0  0  0
 19 46  1  0  0  0  0
 20 35  1  0  0  0  0
 21 80  1  0  0  0  0
 22 81  1  0  0  0  0
 23 25  2  0  0  0  0
 23 80  1  0  0  0  0
 24 82  1  0  0  0  0
 25 83  1  0  0  0  0
 26 64  2  0  0  0  0
 27 65  1  0  0  0  0
 27 68  1  0  0  0  0
 28 69  1  0  0  0  0
 28 75  2  0  0  0  0
 29 47  1  0  0  0  0
 29 70  1  0  0  0  0
 29 76  2  0  0  0  0
 30 60  1  0  0  0  0
 30 66  1  0  0  0  0
 30 77  2  0  0  0  0
 31 61  1  0  0  0  0
 31 71  1  0  0  0  0
 31 78  2  0  0  0  0
 32 67  1  0  0  0  0
 32 72  1  0  0  0  0
 32 79  2  0  0  0  0
 33 36  1  0  0  0  0
 34 47  1  0  0  0  0
 35 66  1  0  0  0  0
 36 38  1  0  0  0  0
 37 41  1  0  0  0  0
 37 44  1  0  0  0  0
 38 46  1  0  0  0  0
 39 42  1  0  0  0  0
 39 48  1  0  0  0  0
 40 43  1  0  0  0  0
 40 48  1  0  0  0  0
 41 49  1  0  0  0  0
 42 50  1  0  0  0  0
 43 50  1  0  0  0  0
 44 67  1  0  0  0  0
 45 49  1  0  0  0  0
 45 67  1  0  0  0  0
 46 70  1  0  0  0  0
 47 66  1  0  0  0  0
 48 57  1  0  0  0  0
 49 65  1  0  0  0  0
 50 72  1  0  0  0  0
 51 61  1  0  0  0  0
 52 62  1  0  0  0  0
 53 63  1  0  0  0  0
 54 63  1  0  0  0  0
 55 63  1  0  0  0  0
 56 73  1  0  0  0  0
 57 58  1  0  0  0  0
 58 74  1  0  0  0  0
 59 62  1  0  0  0  0
 59 81  1  0  0  0  0
 60 63  1  0  0  0  0
 60 71  1  0  0  0  0
 61 73  1  0  0  0  0
 62 74  1  0  0  0  0
 64 65  1  0  0  0  0
M  CHG  2  73   1  74   1
M  ISO  4  32 100  59 101  72 100  81 101
M  END
> <Batch ID>
0114

> <Smiles>
CNC(C)C(=O)NC(C(=O)N1Cc2cc([101O:1][101CH2:1]C(C)NCCC3CCC([100NH:0][100C:0](=O)N4CCCC(n5nc(-c6ccc(Oc7ccc(F)cc7F)cc6)c(C(N)=O)c5N)C4)CC3)ccc2CC1C(=O)NC1CCCc2ccccc21)C(C)(C)C

> <Shape>
0.265

> <Color>
0.063

> <Negative vol penalty>
0.000

$$$$

  -OEChem-04052320083D

 87 96  0     1  0  0  0  0  0999 V2000
  -28.4079  -37.0177   24.2145 C   0  0  0  0  0  0  0  0  0  0  0  0
  -28.8541  -35.8318   23.6400 C   0  0  0  0  0  0  0  0  0  0  0  0
  -23.1654  -13.3951   23.2928 C   0  0  0  0  0  0  0  0  0  0  0  0
  -21.9306  -13.7880   21.2537 C   0  0  0  0  0  0  0  0  0  0  0  0
  -27.2347  -37.0279   24.9677 C   0  0  0  0  0  0  0  0  0  0  0  0
  -28.1277  -34.6551   23.8193 C   0  0  0  0  0  0  0  0  0  0  0  0
  -27.4474  -30.0977   19.7854 C   0  0  0  0  0  0  0  0  0  0  0  0
  -21.9888  -13.5256   24.0304 C   0  0  0  0  0  0  0  0  0  0  0  0
  -20.7540  -13.9184   21.9913 C   0  0  0  0  0  0  0  0  0  0  0  0
  -28.0871  -28.8671   19.6438 C   0  0  0  0  0  0  0  0  0  0  0  0
  -19.2888  -11.6291   24.7693 C   0  0  0  0  0  0  0  0  0  0  0  0
  -19.0432  -10.6887   25.7698 C   0  0  0  0  0  0  0  0  0  0  0  0
  -29.1891  -22.4394   19.0258 C   0  0  0  0  0  0  0  0  0  0  0  0
  -26.3020  -27.8047   20.8701 C   0  0  0  0  0  0  0  0  0  0  0  0
  -19.0034  -12.4537   27.4191 C   0  0  0  0  0  0  0  0  0  0  0  0
  -23.1363  -13.5263   21.9044 C   0  0  0  0  0  0  0  0  0  0  0  0
  -24.8839  -12.2108   20.5917 C   0  0  0  0  0  0  0  0  0  0  0  0
  -26.4884  -35.8527   25.1483 C   0  0  0  0  0  0  0  0  0  0  0  0
  -26.2335  -30.1929   20.4810 C   0  0  0  0  0  0  0  0  0  0  0  0
  -26.9440  -34.6493   24.5768 C   0  0  0  0  0  0  0  0  0  0  0  0
  -29.9019  -21.9527   20.1159 C   0  0  0  0  0  0  0  0  0  0  0  0
  -25.6475  -29.0373   21.0169 C   0  0  0  0  0  0  0  0  0  0  0  0
  -28.3905  -23.5683   19.1723 C   0  0  0  0  0  0  0  0  0  0  0  0
  -20.7831  -13.7872   23.3797 C   0  0  0  0  0  0  0  0  0  0  0  0
  -27.5159  -27.7208   20.1887 C   0  0  0  0  0  0  0  0  0  0  0  0
  -19.3917  -12.9819   25.0937 C   0  0  0  0  0  0  0  0  0  0  0  0
  -18.9006  -11.1010   27.0947 C   0  0  0  0  0  0  0  0  0  0  0  0
  -19.2490  -13.3942   26.4186 C   0  0  0  0  0  0  0  0  0  0  0  0
  -24.3515  -13.3922   21.1418 C   0  0  0  0  0  0  0  0  0  0  0  0
  -29.7831  -22.6256   21.3212 C   0  0  0  0  0  0  0  0  0  0  0  0
  -28.3393  -24.1687   20.4200 C   0  0  0  0  0  0  0  0  0  0  0  0
  -26.0397  -12.6129   19.9682 C   0  0  0  0  0  0  0  0  0  0  0  0
  -24.3786  -10.8699   20.6398 C   0  0  0  0  0  0  0  0  0  0  0  0
  -25.2623  -31.7091   23.1005 C   0  0  0  0  0  0  0  0  0  0  0  0
  -22.3559  -30.5808   22.2048 C   0  0  0  0  0  0  0  0  0  0  0  0
  -20.5598  -28.2463   20.4812 C   0  0  0  0  0  0  0  0  0  0  0  0
  -29.7784  -17.0664   20.7222 C   0  0  0  0  0  0  0  0  0  0  0  0
  -25.2517  -35.9034   26.0100 C   0  0  0  0  0  0  0  0  0  0  0  0
  -25.5426  -31.5235   20.6019 C   0  0  0  0  0  0  0  0  0  0  0  0
  -24.3355  -29.0827   21.7552 C   0  0  0  0  0  0  0  0  0  0  0  0
  -24.3407  -34.6904   25.8399 C   0  0  0  0  0  0  0  0  0  0  0  0
  -28.0343  -16.3848   17.8247 C   0  0  0  0  0  0  0  0  0  0  0  0
  -25.1555  -33.4014   25.8766 C   0  0  0  0  0  0  0  0  0  0  0  0
  -26.9352  -15.4248   18.2770 C   0  0  0  0  0  0  0  0  0  0  0  0
  -32.5948  -18.3943   18.7992 C   0  0  0  0  0  0  0  0  0  0  0  0
  -31.3736  -20.6376   18.5436 C   0  0  0  0  0  0  0  0  0  0  0  0
  -28.2336  -17.5004   18.8435 C   0  0  0  0  0  0  0  0  0  0  0  0
  -32.0575  -18.0630   20.1916 C   0  0  0  0  0  0  0  0  0  0  0  0
  -29.9638  -19.4724   20.3635 C   0  0  0  0  0  0  0  0  0  0  0  0
  -27.4665  -16.0452   20.6872 C   0  0  0  0  0  0  0  0  0  0  0  0
  -30.7812  -20.7130   19.9616 C   0  0  2  0  0  0  0  0  0  0  0  0
  -26.1705  -33.3575   24.7280 C   0  0  1  0  0  0  0  0  0  0  0  0
  -24.5678  -31.5863   21.7737 C   0  0  1  0  0  0  0  0  0  0  0  0
  -27.2200  -14.8930   19.6919 C   0  0  1  0  0  0  0  0  0  0  0  0
  -32.7034  -19.8863   18.5092 C   0  0  2  0  0  0  0  0  0  0  0  0
  -27.6240  -24.0946   18.0084 C   0  0  0  0  0  0  0  0  0  0  0  0
  -30.5244  -22.1481   22.5268 C   0  0  0  0  0  0  0  0  0  0  0  0
  -18.2011  -27.5608   19.9671 C   0  0  0  0  0  0  0  0  0  0  0  0
  -22.0938  -29.3929   25.0031 C   0  0  0  0  0  0  0  0  0  0  0  0
  -20.2280  -27.9610   24.1448 C   0  0  0  0  0  0  0  0  0  0  0  0
  -20.0054  -30.4454   24.1167 C   0  0  0  0  0  0  0  0  0  0  0  0
  -20.9508  -28.6562   17.5763 C   0  0  0  0  0  0  0  0  0  0  0  0
  -27.4989  -25.3848   20.6347 C   0  0  0  0  0  0  0  0  0  1  0  0
  -21.5675  -29.3223   22.4764 C   0  0  1  0  0  0  0  0  0  0  0  0
  -19.3980  -28.3820   19.5135 C   0  0  2  0  0  0  0  0  0  0  0  0
  -20.9994  -29.2795   23.9231 C   0  0  0  0  0  0  0  0  0  0  0  0
  -25.1072  -14.4644   20.8902 N   0  0  0  0  0  0  0  0  0  0  0  0
  -29.0174  -23.7250   21.5020 N   0  0  0  0  0  0  0  0  0  0  0  0
  -26.1263  -13.9582   20.1750 N   0  0  0  0  0  0  0  0  0  0  0  0
  -23.7019  -30.4081   21.8524 N   0  0  0  0  0  0  0  0  0  0  0  0
  -28.4916  -16.9636   20.1799 N   0  0  0  0  0  0  0  0  0  0  0  0
  -30.5925  -18.1474   20.2966 N   0  0  0  0  0  0  0  0  0  0  0  0
  -26.9804  -11.9434   19.2687 N   0  0  0  0  0  0  0  0  0  0  0  0
  -23.1777  -10.6325   21.3222 N   0  0  0  0  0  0  0  0  0  0  0  0
  -25.5133  -33.0122   23.4857 N   0  0  0  0  0  0  0  0  0  0  0  0
  -20.5511  -29.2441   21.4327 N   0  0  0  0  0  0  0  0  0  0  0  0
  -33.2767  -20.0376   17.1354 N   0  3  0  0  0  0  0  0  0  0  0  0
  -19.7985  -27.9183   18.1550 N   0  3  0  0  0  0  0  0  0  0  0  0
  -24.9830   -9.9080   20.1079 O   0  0  0  0  0  0  0  0  0  0  0  0
  -25.5478  -30.6965   23.7289 O   0  0  0  0  0  0  0  0  0  0  0  0
  -21.7961  -31.6763   22.2948 O   0  0  0  0  0  0  0  0  0  0  0  0
  -21.3896  -27.3431   20.4031 O   0  0  0  0  0  0  0  0  0  0  0  0
  -30.1987  -16.2159   21.5191 O   0  0  0  0  0  0  0  0  0  0  0  0
  -19.6347  -13.9144   24.0992 O   0  0  0  0  0  0  0  0  0  0  0  0
  -28.1430  -26.5099   20.0515 O   0  0  0  0  0  0  0  0  0  1  0  0
  -18.6632  -10.1980   28.0551 F   0  0  0  0  0  0  0  0  0  0  0  0
  -19.3457  -14.6925   26.7362 F   0  0  0  0  0  0  0  0  0  0  0  0
  1  2  1  0  0  0  0
  1  5  2  0  0  0  0
  2  6  2  0  0  0  0
  3  8  2  0  0  0  0
  3 16  1  0  0  0  0
  4  9  1  0  0  0  0
  4 16  2  0  0  0  0
  5 18  1  0  0  0  0
  6 20  1  0  0  0  0
  7 10  2  0  0  0  0
  7 19  1  0  0  0  0
  8 24  1  0  0  0  0
  9 24  2  0  0  0  0
 10 25  1  0  0  0  0
 11 12  2  0  0  0  0
 11 26  1  0  0  0  0
 12 27  1  0  0  0  0
 13 21  2  0  0  0  0
 13 23  1  0  0  0  0
 14 22  1  0  0  0  0
 14 25  2  0  0  0  0
 15 27  2  0  0  0  0
 15 28  1  0  0  0  0
 16 29  1  0  0  0  0
 17 29  1  0  0  0  0
 17 32  2  0  0  0  0
 17 33  1  0  0  0  0
 18 20  2  0  0  0  0
 18 38  1  0  0  0  0
 19 22  2  0  0  0  0
 19 39  1  0  0  0  0
 20 52  1  0  0  0  0
 21 30  1  0  0  0  0
 21 51  1  0  0  0  0
 22 40  1  0  0  0  0
 23 31  2  0  0  0  0
 23 56  1  0  0  0  0
 24 84  1  0  0  0  0
 25 85  1  0  0  0  0
 26 28  2  0  0  0  0
 26 84  1  0  0  0  0
 27 86  1  0  0  0  0
 28 87  1  0  0  0  0
 29 67  2  0  0  0  0
 30 57  1  0  0  0  0
 30 68  2  0  0  0  0
 31 63  1  0  0  0  0
 31 68  1  0  0  0  0
 32 69  1  0  0  0  0
 32 73  1  0  0  0  0
 33 74  1  0  0  0  0
 33 79  2  0  0  0  0
 34 53  1  0  0  0  0
 34 75  1  0  0  0  0
 34 80  2  0  0  0  0
 35 64  1  0  0  0  0
 35 70  1  0  0  0  0
 35 81  2  0  0  0  0
 36 65  1  0  0  0  0
 36 76  1  0  0  0  0
 36 82  2  0  0  0  0
 37 71  1  0  0  0  0
 37 72  1  0  0  0  0
 37 83  2  0  0  0  0
 38 41  1  0  0  0  0
 39 53  1  0  0  0  0
 40 70  1  0  0  0  0
 41 43  1  0  0  0  0
 42 44  1  0  0  0  0
 42 47  1  0  0  0  0
 43 52  1  0  0  0  0
 44 54  1  0  0  0  0
 45 48  1  0  0  0  0
 45 55  1  0  0  0  0
 46 51  1  0  0  0  0
 46 55  1  0  0  0  0
 47 71  1  0  0  0  0
 48 72  1  0  0  0  0
 49 51  1  0  0  0  0
 49 72  1  0  0  0  0
 50 54  1  0  0  0  0
 50 71  1  0  0  0  0
 52 75  1  0  0  0  0
 53 70  1  0  0  0  0
 54 69  1  0  0  0  0
 55 77  1  0  0  0  0
 58 65  1  0  0  0  0
 59 66  1  0  0  0  0
 60 66  1  0  0  0  0
 61 66  1  0  0  0  0
 62 78  1  0  0  0  0
 63 85  1  0  0  0  0
 64 66  1  0  0  0  0
 64 76  1  0  0  0  0
 65 78  1  0  0  0  0
 67 69  1  0  0  0  0
M  CHG  2  77   1  78   1
M  ISO  4  37 100  63 101  72 100  85 101
M  END
> <Batch ID>
0114

> <Smiles>
CNC(C)C(=O)NC(C(=O)N1Cc2cc([101O:1][101CH2:1]c3nc(C)c(C4CC(N)CC[100N:0]([100C:0](=O)N5CCCC(n6nc(-c7ccc(Oc8ccc(F)cc8F)cc7)c(C(N)=O)c6N)C5)C4)cc3C)ccc2CC1C(=O)NC1CCCc2ccccc21)C(C)(C)C

> <Shape>
0.295

> <Color>
0.068

> <Negative vol penalty>
0.000

$$$$

  -OEChem-04052320083D

 90 98  0     1  0  0  0  0  0999 V2000
  -29.4805  -35.4087   18.1428 C   0  0  0  0  0  0  0  0  0  0  0  0
  -29.5491  -34.1011   18.6127 C   0  0  0  0  0  0  0  0  0  0  0  0
  -23.2331  -10.7378   21.8099 C   0  0  0  0  0  0  0  0  0  0  0  0
  -24.4621   -8.8831   20.8683 C   0  0  0  0  0  0  0  0  0  0  0  0
  -28.5619  -36.2998   18.6961 C   0  0  0  0  0  0  0  0  0  0  0  0
  -28.6997  -33.6840   19.6370 C   0  0  0  0  0  0  0  0  0  0  0  0
  -26.6338  -29.1517   18.7232 C   0  0  0  0  0  0  0  0  0  0  0  0
  -22.0476  -10.0124   21.6915 C   0  0  0  0  0  0  0  0  0  0  0  0
  -23.2766   -8.1577   20.7499 C   0  0  0  0  0  0  0  0  0  0  0  0
  -27.4346  -28.0314   18.9408 C   0  0  0  0  0  0  0  0  0  0  0  0
  -18.7480   -8.5127   21.9715 C   0  0  0  0  0  0  0  0  0  0  0  0
  -17.8720   -8.5201   23.0569 C   0  0  0  0  0  0  0  0  0  0  0  0
  -26.3564  -27.6819   21.0703 C   0  0  0  0  0  0  0  0  0  0  0  0
  -19.5881   -7.5425   24.4485 C   0  0  0  0  0  0  0  0  0  0  0  0
  -24.4403  -10.1732   21.3982 C   0  0  0  0  0  0  0  0  0  0  0  0
  -26.5424  -10.9444   22.6205 C   0  0  0  0  0  0  0  0  0  0  0  0
  -27.6942  -35.8907   19.7210 C   0  0  0  0  0  0  0  0  0  0  0  0
  -25.6943  -29.5526   19.6839 C   0  0  0  0  0  0  0  0  0  0  0  0
  -27.7696  -34.5708   20.2054 C   0  0  0  0  0  0  0  0  0  0  0  0
  -25.5431  -28.8062   20.8613 C   0  0  0  0  0  0  0  0  0  0  0  0
  -22.0693   -8.7224   21.1615 C   0  0  0  0  0  0  0  0  0  0  0  0
  -27.2980  -27.2980   20.1158 C   0  0  0  0  0  0  0  0  0  0  0  0
  -20.0440   -8.0201   22.1245 C   0  0  0  0  0  0  0  0  0  0  0  0
  -18.2921   -8.0350   24.2954 C   0  0  0  0  0  0  0  0  0  0  0  0
  -20.4641   -7.5350   23.3630 C   0  0  0  0  0  0  0  0  0  0  0  0
  -25.6652  -10.9222   21.5198 C   0  0  0  0  0  0  0  0  0  0  0  0
  -27.5469  -11.8012   22.2419 C   0  0  0  0  0  0  0  0  0  0  0  0
  -26.4570  -10.2523   23.8733 C   0  0  0  0  0  0  0  0  0  0  0  0
  -25.2771  -32.1516   21.4656 C   0  0  0  0  0  0  0  0  0  0  0  0
  -22.5254  -30.6560   22.3104 C   0  0  0  0  0  0  0  0  0  0  0  0
  -20.8003  -27.7293   22.6343 C   0  0  0  0  0  0  0  0  0  0  0  0
  -29.3761  -16.3645   20.0853 C   0  0  0  0  0  0  0  0  0  0  0  0
  -26.7504  -36.9030   20.3203 C   0  0  0  0  0  0  0  0  0  0  0  0
  -24.8195  -30.7478   19.4222 C   0  0  0  0  0  0  0  0  0  0  0  0
  -24.5351  -29.1828   21.9151 C   0  0  0  0  0  0  0  0  0  0  0  0
  -25.6290  -36.2766   21.1452 C   0  0  0  0  0  0  0  0  0  0  0  0
  -28.6263  -13.8476   17.7515 C   0  0  0  0  0  0  0  0  0  0  0  0
  -26.1878  -35.2126   22.0847 C   0  0  0  0  0  0  0  0  0  0  0  0
  -27.8517  -12.8534   18.6161 C   0  0  0  0  0  0  0  0  0  0  0  0
  -28.2595  -15.2969   18.0757 C   0  0  0  0  0  0  0  0  0  0  0  0
  -29.0645  -18.1274   18.2910 C   0  0  0  0  0  0  0  0  0  0  0  0
  -31.1002  -18.0955   19.6849 C   0  0  0  0  0  0  0  0  0  0  0  0
  -27.6139  -14.6480   20.3737 C   0  0  0  0  0  0  0  0  0  0  0  0
  -28.7767  -19.5603   18.7274 C   0  0  0  0  0  0  0  0  0  0  0  0
  -30.8312  -19.5138   20.1607 C   0  0  0  0  0  0  0  0  0  0  0  0
  -26.8480  -34.0739   21.2981 C   0  0  1  0  0  0  0  0  0  0  0  0
  -24.2533  -31.3647   20.6974 C   0  0  1  0  0  0  0  0  0  0  0  0
  -28.0047  -13.1854   20.1111 C   0  0  1  0  0  0  0  0  0  0  0  0
  -18.5852  -26.8212   23.3869 C   0  0  0  0  0  0  0  0  0  0  0  0
  -30.3273  -26.9108   20.7076 C   0  0  0  0  0  0  0  0  0  0  0  0
  -23.3671  -31.0216   25.2204 C   0  0  0  0  0  0  0  0  0  0  0  0
  -21.6573  -29.3073   25.8575 C   0  0  0  0  0  0  0  0  0  0  0  0
  -20.9415  -31.4380   24.7758 C   0  0  0  0  0  0  0  0  0  0  0  0
  -28.9406  -24.6844   17.0581 C   0  0  0  0  0  0  0  0  0  0  0  0
  -20.2030  -26.6403   19.9480 C   0  0  0  0  0  0  0  0  0  0  0  0
  -24.9110  -20.4281   18.3937 C   0  0  0  0  0  0  0  0  0  0  0  0
  -23.0102  -21.9817   18.7859 C   0  0  0  0  0  0  0  0  0  0  0  0
  -29.8597  -24.7776   19.4388 C   0  0  0  0  0  0  0  0  0  0  0  0
  -27.5489  -23.8371   18.9432 C   0  0  0  0  0  0  0  0  0  0  0  0
  -29.8464  -21.6945   19.4524 C   0  0  0  0  0  0  0  0  0  0  0  0
  -25.3524  -22.8641   18.8625 C   0  0  0  0  0  0  0  0  0  0  0  0
  -22.1264  -29.6835   23.3939 C   0  0  1  0  0  0  0  0  0  0  0  0
  -19.3978  -27.3343   22.2083 C   0  0  2  0  0  0  0  0  0  0  0  0
  -29.3784  -26.2083   19.7408 C   0  0  1  0  0  0  0  0  0  1  0  0
  -29.6682  -22.5264   18.1776 C   0  0  1  0  0  0  0  0  0  0  0  0
  -22.0435  -30.3564   24.7931 C   0  0  0  0  0  0  0  0  0  0  0  0
  -29.0194  -23.9365   18.4109 C   0  0  1  0  0  0  0  0  0  0  0  0
  -26.0762  -11.7030   20.5171 N   0  0  0  0  0  0  0  0  0  0  0  0
  -27.2227  -12.2239   20.9863 N   0  0  0  0  0  0  0  0  0  0  0  0
  -23.7075  -30.3631   21.6157 N   0  0  0  0  0  0  0  0  0  0  0  0
  -28.3811  -15.5548   19.5173 N   0  0  0  0  0  0  0  0  0  0  0  0
  -29.8619  -17.4212   19.3011 N   0  0  0  0  0  0  0  0  0  0  0  0
  -28.6670  -12.2267   22.8638 N   0  0  0  0  0  0  0  0  0  0  0  0
  -25.3587   -9.4112   24.0984 N   0  0  0  0  0  0  0  0  0  0  0  0
  -25.8426  -33.1893   20.7494 N   0  0  0  0  0  0  0  0  0  0  0  0
  -20.8794  -29.0688   22.9517 N   0  0  0  0  0  0  0  0  0  0  0  0
  -26.7114  -22.8100   18.3312 N   0  0  0  0  0  0  0  0  0  0  0  0
  -30.0690  -20.2538   19.0862 N   0  3  0  0  0  0  0  0  0  0  0  0
  -19.4531  -26.2630   21.1737 N   0  3  0  0  0  0  0  0  0  0  0  0
  -24.4098  -21.8402   18.2530 N   0  3  0  0  0  0  0  0  0  0  0  0
  -27.3203  -10.3888   24.7731 O   0  0  0  0  0  0  0  0  0  0  0  0
  -25.5339  -31.8414   22.6230 O   0  0  0  0  0  0  0  0  0  0  0  0
  -21.8108  -31.6356   22.0839 O   0  0  0  0  0  0  0  0  0  0  0  0
  -21.7315  -26.9288   22.6844 O   0  0  0  0  0  0  0  0  0  0  0  0
  -29.8050  -16.1556   21.2272 O   0  0  0  0  0  0  0  0  0  0  0  0
  -30.9471  -22.6936   17.5602 O   0  0  0  0  0  0  0  0  0  0  0  0
  -20.9128   -8.0141   21.0461 O   0  0  0  0  0  0  0  0  0  0  0  0
  -28.0839  -26.1972   20.3325 O   0  0  0  0  0  0  0  0  0  1  0  0
  -17.4513   -8.0436   25.3381 F   0  0  0  0  0  0  0  0  0  0  0  0
  -21.7084   -7.0617   23.5164 F   0  0  0  0  0  0  0  0  0  0  0  0
  1  2  1  0  0  0  0
  1  5  2  0  0  0  0
  2  6  2  0  0  0  0
  3  8  2  0  0  0  0
  3 15  1  0  0  0  0
  4  9  1  0  0  0  0
  4 15  2  0  0  0  0
  5 17  1  0  0  0  0
  6 19  1  0  0  0  0
  7 10  2  0  0  0  0
  7 18  1  0  0  0  0
  8 21  1  0  0  0  0
  9 21  2  0  0  0  0
 10 22  1  0  0  0  0
 11 12  2  0  0  0  0
 11 23  1  0  0  0  0
 12 24  1  0  0  0  0
 13 20  1  0  0  0  0
 13 22  2  0  0  0  0
 14 24  2  0  0  0  0
 14 25  1  0  0  0  0
 15 26  1  0  0  0  0
 16 26  1  0  0  0  0
 16 27  2  0  0  0  0
 16 28  1  0  0  0  0
 17 19  2  0  0  0  0
 17 33  1  0  0  0  0
 18 20  2  0  0  0  0
 18 34  1  0  0  0  0
 19 46  1  0  0  0  0
 20 35  1  0  0  0  0
 21 87  1  0  0  0  0
 22 88  1  0  0  0  0
 23 25  2  0  0  0  0
 23 87  1  0  0  0  0
 24 89  1  0  0  0  0
 25 90  1  0  0  0  0
 26 68  2  0  0  0  0
 27 69  1  0  0  0  0
 27 73  1  0  0  0  0
 28 74  1  0  0  0  0
 28 81  2  0  0  0  0
 29 47  1  0  0  0  0
 29 75  1  0  0  0  0
 29 82  2  0  0  0  0
 30 62  1  0  0  0  0
 30 70  1  0  0  0  0
 30 83  2  0  0  0  0
 31 63  1  0  0  0  0
 31 76  1  0  0  0  0
 31 84  2  0  0  0  0
 32 71  1  0  0  0  0
 32 72  1  0  0  0  0
 32 85  2  0  0  0  0
 33 36  1  0  0  0  0
 34 47  1  0  0  0  0
 35 70  1  0  0  0  0
 36 38  1  0  0  0  0
 37 39  1  0  0  0  0
 37 40  1  0  0  0  0
 38 46  1  0  0  0  0
 39 48  1  0  0  0  0
 40 71  1  0  0  0  0
 41 44  1  0  0  0  0
 41 72  1  0  0  0  0
 42 45  1  0  0  0  0
 42 72  1  0  0  0  0
 43 48  1  0  0  0  0
 43 71  1  0  0  0  0
 44 78  1  0  0  0  0
 45 78  1  0  0  0  0
 46 75  1  0  0  0  0
 47 70  1  0  0  0  0
 48 69  1  0  0  0  0
 49 63  1  0  0  0  0
 50 64  1  0  0  0  0
 51 66  1  0  0  0  0
 52 66  1  0  0  0  0
 53 66  1  0  0  0  0
 54 67  1  0  0  0  0
 55 79  1  0  0  0  0
 56 80  1  0  0  0  0
 57 80  1  0  0  0  0
 58 64  1  0  0  0  0
 58 67  1  0  0  0  0
 59 67  1  0  0  0  0
 59 77  1  0  0  0  0
 60 65  1  0  0  0  0
 60 78  1  0  0  0  0
 61 77  1  0  0  0  0
 61 80  1  0  0  0  0
 62 66  1  0  0  0  0
 62 76  1  0  0  0  0
 63 79  1  0  0  0  0
 64 88  1  0  0  0  0
 65 67  1  0  0  0  0
 65 86  1  0  0  0  0
 68 69  1  0  0  0  0
M  CHG  3  78   1  79   1  80   1
M  ISO  4  32 100  64 101  72 100  88 101
M  END
> <Batch ID>
0114

> <Smiles>
CNC(C)C(=O)NC(C(=O)N1Cc2cc([101O:1][101CH:1](C)CC(C)(CNCN(C)C)C(O)CN3CC[100N:0]([100C:0](=O)N4CCCC(n5nc(-c6ccc(Oc7ccc(F)cc7F)cc6)c(C(N)=O)c5N)C4)CC3)ccc2CC1C(=O)NC1CCCc2ccccc21)C(C)(C)C

> <Shape>
0.291

> <Color>
0.086

> <Negative vol penalty>
0.000

$$$$

  -OEChem-04052320083D

 86 94  0     1  0  0  0  0  0999 V2000
  -19.9377  -21.7446   15.2172 C   0  0  0  0  0  0  0  0  0  0  0  0
  -20.8633  -20.8357   15.7198 C   0  0  0  0  0  0  0  0  0  0  0  0
  -26.4724  -25.7684   17.6570 C   0  0  0  0  0  0  0  0  0  0  0  0
  -26.4191  -25.4543   20.0519 C   0  0  0  0  0  0  0  0  0  0  0  0
  -19.8451  -23.0212   15.7699 C   0  0  0  0  0  0  0  0  0  0  0  0
  -21.6976  -21.2034   16.7749 C   0  0  0  0  0  0  0  0  0  0  0  0
  -22.0276  -17.6144   20.3323 C   0  0  0  0  0  0  0  0  0  0  0  0
  -25.5543  -26.8120   17.7734 C   0  0  0  0  0  0  0  0  0  0  0  0
  -25.5009  -26.4979   20.1683 C   0  0  0  0  0  0  0  0  0  0  0  0
  -22.8576  -16.5268   20.0644 C   0  0  0  0  0  0  0  0  0  0  0  0
  -25.5593  -29.8769   20.1631 C   0  0  0  0  0  0  0  0  0  0  0  0
  -25.7725  -30.8161   21.1720 C   0  0  0  0  0  0  0  0  0  0  0  0
  -24.5844  -17.5166   21.4274 C   0  0  0  0  0  0  0  0  0  0  0  0
  -30.5713  -12.9772   18.9191 C   0  0  0  0  0  0  0  0  0  0  0  0
  -28.9300  -11.2323   19.1337 C   0  0  0  0  0  0  0  0  0  0  0  0
  -23.6326  -30.2573   22.1445 C   0  0  0  0  0  0  0  0  0  0  0  0
  -26.9048  -25.0895   18.7962 C   0  0  0  0  0  0  0  0  0  0  0  0
  -29.2568  -24.1046   18.7203 C   0  0  0  0  0  0  0  0  0  0  0  0
  -20.6721  -23.4015   16.8386 C   0  0  0  0  0  0  0  0  0  0  0  0
  -22.4744  -18.6683   21.1423 C   0  0  0  0  0  0  0  0  0  0  0  0
  -21.6169  -22.4868   17.3415 C   0  0  0  0  0  0  0  0  0  0  0  0
  -23.7571  -18.6153   21.7061 C   0  0  0  0  0  0  0  0  0  0  0  0
  -30.1420  -11.6875   18.6265 C   0  0  0  0  0  0  0  0  0  0  0  0
  -25.0685  -27.1768   19.0290 C   0  0  0  0  0  0  0  0  0  0  0  0
  -24.1373  -16.4791   20.6096 C   0  0  0  0  0  0  0  0  0  0  0  0
  -24.3827  -29.1279   20.1448 C   0  0  0  0  0  0  0  0  0  0  0  0
  -24.8092  -31.0064   22.1627 C   0  0  0  0  0  0  0  0  0  0  0  0
  -23.4194  -29.3181   21.1356 C   0  0  0  0  0  0  0  0  0  0  0  0
  -27.8528  -24.0111   18.6766 C   0  0  0  0  0  0  0  0  0  0  0  0
  -29.7584  -13.7659   19.7172 C   0  0  0  0  0  0  0  0  0  0  0  0
  -28.1907  -12.0991   19.9223 C   0  0  0  0  0  0  0  0  0  0  0  0
  -29.6921  -22.8117   18.5613 C   0  0  0  0  0  0  0  0  0  0  0  0
  -30.0927  -25.2571   18.8897 C   0  0  0  0  0  0  0  0  0  0  0  0
  -22.9662  -21.7785   20.7076 C   0  0  0  0  0  0  0  0  0  0  0  0
  -23.5306  -21.7388   23.9017 C   0  0  0  0  0  0  0  0  0  0  0  0
  -24.4479  -19.9503   26.6597 C   0  0  0  0  0  0  0  0  0  0  0  0
  -29.4028  -17.5021   19.8544 C   0  0  0  0  0  0  0  0  0  0  0  0
  -20.5680  -24.8084   17.3721 C   0  0  0  0  0  0  0  0  0  0  0  0
  -21.5571  -19.8217   21.4434 C   0  0  0  0  0  0  0  0  0  0  0  0
  -24.2770  -19.7115   22.5986 C   0  0  0  0  0  0  0  0  0  0  0  0
  -21.2305  -24.9936   18.7348 C   0  0  0  0  0  0  0  0  0  0  0  0
  -27.1772  -18.6284   17.2322 C   0  0  0  0  0  0  0  0  0  0  0  0
  -22.6138  -24.3508   18.7478 C   0  0  0  0  0  0  0  0  0  0  0  0
  -27.2744  -20.1477   17.3825 C   0  0  0  0  0  0  0  0  0  0  0  0
  -27.2098  -17.9353   18.5911 C   0  0  0  0  0  0  0  0  0  0  0  0
  -28.4950  -19.7918   19.5787 C   0  0  0  0  0  0  0  0  0  0  0  0
  -22.5224  -22.8400   18.5015 C   0  0  1  0  0  0  0  0  0  0  0  0
  -22.3029  -21.0844   21.8635 C   0  0  1  0  0  0  0  0  0  0  0  0
  -28.4901  -20.5494   18.2385 C   0  0  2  0  0  0  0  0  0  0  0  0
  -30.2642  -10.3943   16.4663 C   0  0  0  0  0  0  0  0  0  0  0  0
  -31.4486   -9.5345   18.5189 C   0  0  0  0  0  0  0  0  0  0  0  0
  -27.0134  -11.0042   21.8737 C   0  0  0  0  0  0  0  0  0  0  0  0
  -24.8556  -20.1995   29.1233 C   0  0  0  0  0  0  0  0  0  0  0  0
  -26.2013  -23.0949   23.3201 C   0  0  0  0  0  0  0  0  0  0  0  0
  -26.9458  -22.4609   25.6249 C   0  0  0  0  0  0  0  0  0  0  0  0
  -24.9938  -23.9841   25.3215 C   0  0  0  0  0  0  0  0  0  0  0  0
  -22.3130  -18.0123   27.3269 C   0  0  0  0  0  0  0  0  0  0  0  0
  -30.1864  -15.1560   20.0506 C   0  0  0  0  0  0  0  0  0  0  0  0
  -25.4873  -13.3312   19.2839 C   0  0  0  0  0  0  0  0  0  0  0  0
  -24.4268  -14.3907   19.5093 C   0  0  0  0  0  0  0  0  0  1  0  0
  -30.9775  -10.7963   17.7712 C   0  0  0  0  0  0  0  0  0  0  0  0
  -26.8693  -11.6373   20.4921 C   0  0  1  0  0  0  0  0  0  0  0  0
  -24.7477  -21.5291   24.7698 C   0  0  1  0  0  0  0  0  0  0  0  0
  -23.8384  -19.8545   28.0467 C   0  0  2  0  0  0  0  0  0  0  0  0
  -25.7134  -22.7474   24.7407 C   0  0  0  0  0  0  0  0  0  0  0  0
  -27.4247  -22.7578   18.5032 N   0  0  0  0  0  0  0  0  0  0  0  0
  -28.5749  -13.3587   20.2281 N   0  0  0  0  0  0  0  0  0  0  0  0
  -28.5663  -22.0520   18.4365 N   0  0  0  0  0  0  0  0  0  0  0  0
  -23.3448  -20.8210   22.8582 N   0  0  0  0  0  0  0  0  0  0  0  0
  -28.4007  -18.3464   19.3479 N   0  0  0  0  0  0  0  0  0  0  0  0
  -30.9243  -22.2619   18.5174 N   0  0  0  0  0  0  0  0  0  0  0  0
  -29.4815  -26.5095   19.0395 N   0  0  0  0  0  0  0  0  0  0  0  0
  -22.0953  -22.1569   19.7038 N   0  0  0  0  0  0  0  0  0  0  0  0
  -24.2483  -21.1941   26.0990 N   0  0  0  0  0  0  0  0  0  0  0  0
  -29.2351  -16.1467   19.5984 N   0  0  0  0  0  0  0  0  0  0  0  0
  -23.3379  -18.4735   28.2983 N   0  3  0  0  0  0  0  0  0  0  0  0
  -25.8704  -12.7358   20.5889 N   0  3  0  0  0  0  0  0  0  0  0  0
  -31.3447  -25.1809   18.8911 O   0  0  0  0  0  0  0  0  0  0  0  0
  -24.1782  -21.9587   20.7259 O   0  0  0  0  0  0  0  0  0  0  0  0
  -22.7687  -22.6779   24.1451 O   0  0  0  0  0  0  0  0  0  0  0  0
  -25.0448  -19.0165   26.1285 O   0  0  0  0  0  0  0  0  0  0  0  0
  -30.3783  -17.9255   20.4838 O   0  0  0  0  0  0  0  0  0  0  0  0
  -24.1728  -28.1952   19.1430 O   0  0  0  0  0  0  0  0  0  0  0  0
  -24.9498  -15.4190   20.3492 O   0  0  0  0  0  0  0  0  0  1  0  0
  -25.0148  -31.9073   23.1324 F   0  0  0  0  0  0  0  0  0  0  0  0
  -22.2876  -28.6006   21.1240 F   0  0  0  0  0  0  0  0  0  0  0  0
  1  2  1  0  0  0  0
  1  5  2  0  0  0  0
  2  6  2  0  0  0  0
  3  8  2  0  0  0  0
  3 17  1  0  0  0  0
  4  9  1  0  0  0  0
  4 17  2  0  0  0  0
  5 19  1  0  0  0  0
  6 21  1  0  0  0  0
  7 10  2  0  0  0  0
  7 20  1  0  0  0  0
  8 24  1  0  0  0  0
  9 24  2  0  0  0  0
 10 25  1  0  0  0  0
 11 12  2  0  0  0  0
 11 26  1  0  0  0  0
 12 27  1  0  0  0  0
 13 22  1  0  0  0  0
 13 25  2  0  0  0  0
 14 23  1  0  0  0  0
 14 30  2  0  0  0  0
 15 23  2  0  0  0  0
 15 31  1  0  0  0  0
 16 27  2  0  0  0  0
 16 28  1  0  0  0  0
 17 29  1  0  0  0  0
 18 29  1  0  0  0  0
 18 32  2  0  0  0  0
 18 33  1  0  0  0  0
 19 21  2  0  0  0  0
 19 38  1  0  0  0  0
 20 22  2  0  0  0  0
 20 39  1  0  0  0  0
 21 47  1  0  0  0  0
 22 40  1  0  0  0  0
 23 61  1  0  0  0  0
 24 83  1  0  0  0  0
 25 84  1  0  0  0  0
 26 28  2  0  0  0  0
 26 83  1  0  0  0  0
 27 85  1  0  0  0  0
 28 86  1  0  0  0  0
 29 66  2  0  0  0  0
 30 58  1  0  0  0  0
 30 67  1  0  0  0  0
 31 62  1  0  0  0  0
 31 67  2  0  0  0  0
 32 68  1  0  0  0  0
 32 71  1  0  0  0  0
 33 72  1  0  0  0  0
 33 78  2  0  0  0  0
 34 48  1  0  0  0  0
 34 73  1  0  0  0  0
 34 79  2  0  0  0  0
 35 63  1  0  0  0  0
 35 69  1  0  0  0  0
 35 80  2  0  0  0  0
 36 64  1  0  0  0  0
 36 74  1  0  0  0  0
 36 81  2  0  0  0  0
 37 70  1  0  0  0  0
 37 75  1  0  0  0  0
 37 82  2  0  0  0  0
 38 41  1  0  0  0  0
 39 48  1  0  0  0  0
 40 69  1  0  0  0  0
 41 43  1  0  0  0  0
 42 44  1  0  0  0  0
 42 45  1  0  0  0  0
 43 47  1  0  0  0  0
 44 49  1  0  0  0  0
 45 70  1  0  0  0  0
 46 49  1  0  0  0  0
 46 70  1  0  0  0  0
 47 73  1  0  0  0  0
 48 69  1  0  0  0  0
 49 68  1  0  0  0  0
 50 61  1  0  0  0  0
 51 61  1  0  0  0  0
 52 62  1  0  0  0  0
 53 64  1  0  0  0  0
 54 65  1  0  0  0  0
 55 65  1  0  0  0  0
 56 65  1  0  0  0  0
 57 76  1  0  0  0  0
 58 75  1  0  0  0  0
 59 60  1  0  0  0  0
 59 77  1  0  0  0  0
 60 84  1  0  0  0  0
 62 77  1  0  0  0  0
 63 65  1  0  0  0  0
 63 74  1  0  0  0  0
 64 76  1  0  0  0  0
 66 68  1  0  0  0  0
M  CHG  2  76   1  77   1
M  ISO  4  37 100  60 101  75 100  84 101
M  END
> <Batch ID>
0114

> <Smiles>
CNC(C)C(=O)NC(C(=O)N1Cc2cc([101O:1][101CH2:1]CNC(C)c3cc(C(C)C)cc(C[100NH:0][100C:0](=O)N4CCCC(n5nc(-c6ccc(Oc7ccc(F)cc7F)cc6)c(C(N)=O)c5N)C4)n3)ccc2CC1C(=O)NC1CCCc2ccccc21)C(C)(C)C

> <Shape>
0.204

> <Color>
0.072

> <Negative vol penalty>
0.000

$$$$

  -OEChem-04052320083D

 82 90  0     1  0  0  0  0  0999 V2000
  -23.9117  -11.4464   20.2843 C   0  0  0  0  0  0  0  0  0  0  0  0
  -23.5635  -12.7236   20.7118 C   0  0  0  0  0  0  0  0  0  0  0  0
  -19.8452  -28.1801   21.8642 C   0  0  0  0  0  0  0  0  0  0  0  0
  -20.8074  -27.1163   23.8084 C   0  0  0  0  0  0  0  0  0  0  0  0
  -25.2501  -11.0557   20.2770 C   0  0  0  0  0  0  0  0  0  0  0  0
  -24.5535  -13.6106   21.1333 C   0  0  0  0  0  0  0  0  0  0  0  0
  -23.9248  -18.2656   19.2409 C   0  0  0  0  0  0  0  0  0  0  0  0
  -18.9190  -27.1430   21.7551 C   0  0  0  0  0  0  0  0  0  0  0  0
  -19.8810  -26.0792   23.6993 C   0  0  0  0  0  0  0  0  0  0  0  0
  -22.9578  -19.0714   19.8403 C   0  0  0  0  0  0  0  0  0  0  0  0
  -18.8613  -23.9668   20.6006 C   0  0  0  0  0  0  0  0  0  0  0  0
  -18.6371  -23.4298   19.3330 C   0  0  0  0  0  0  0  0  0  0  0  0
  -24.6847  -20.2100   21.0815 C   0  0  0  0  0  0  0  0  0  0  0  0
  -16.3077  -24.0535   19.4807 C   0  0  0  0  0  0  0  0  0  0  0  0
  -20.7895  -28.1668   22.8909 C   0  0  0  0  0  0  0  0  0  0  0  0
  -21.6020  -30.4344   23.7307 C   0  0  0  0  0  0  0  0  0  0  0  0
  -26.2579  -11.9416   20.6894 C   0  0  0  0  0  0  0  0  0  0  0  0
  -25.2803  -18.4189   19.5659 C   0  0  0  0  0  0  0  0  0  0  0  0
  -25.9065  -13.2309   21.1327 C   0  0  0  0  0  0  0  0  0  0  0  0
  -25.6672  -19.4066   20.4829 C   0  0  0  0  0  0  0  0  0  0  0  0
  -18.9368  -26.0925   22.6726 C   0  0  0  0  0  0  0  0  0  0  0  0
  -23.3374  -20.0418   20.7630 C   0  0  0  0  0  0  0  0  0  0  0  0
  -17.8086  -24.5470   21.3084 C   0  0  0  0  0  0  0  0  0  0  0  0
  -17.3603  -23.4732   18.7730 C   0  0  0  0  0  0  0  0  0  0  0  0
  -16.5319  -24.5904   20.7484 C   0  0  0  0  0  0  0  0  0  0  0  0
  -21.7470  -29.2376   23.0038 C   0  0  0  0  0  0  0  0  0  0  0  0
  -22.7791  -31.1096   23.5187 C   0  0  0  0  0  0  0  0  0  0  0  0
  -20.5017  -30.8946   24.5264 C   0  0  0  0  0  0  0  0  0  0  0  0
  -27.4970  -16.5563   20.8777 C   0  0  0  0  0  0  0  0  0  0  0  0
  -29.4580  -19.0324   20.1388 C   0  0  0  0  0  0  0  0  0  0  0  0
  -29.7969  -22.3653   19.4881 C   0  0  0  0  0  0  0  0  0  0  0  0
  -25.4286  -27.2700   20.5696 C   0  0  0  0  0  0  0  0  0  0  0  0
  -27.6863  -11.4580   20.7086 C   0  0  0  0  0  0  0  0  0  0  0  0
  -26.3137  -17.5597   18.8905 C   0  0  0  0  0  0  0  0  0  0  0  0
  -27.1113  -19.6250   20.8509 C   0  0  0  0  0  0  0  0  0  0  0  0
  -28.7097  -12.5855   20.8161 C   0  0  0  0  0  0  0  0  0  0  0  0
  -24.6158  -30.6241   19.6443 C   0  0  0  0  0  0  0  0  0  0  0  0
  -28.0012  -25.3070   22.2061 C   0  0  0  0  0  0  0  0  0  0  0  0
  -28.3012  -13.5755   21.9024 C   0  0  0  0  0  0  0  0  0  0  0  0
  -24.8762  -31.4497   20.8994 C   0  0  0  0  0  0  0  0  0  0  0  0
  -26.8268  -24.3548   22.3828 C   0  0  0  0  0  0  0  0  0  0  0  0
  -25.6300  -29.4972   19.5241 C   0  0  0  0  0  0  0  0  0  0  0  0
  -27.3223  -26.6671   22.1601 C   0  0  0  0  0  0  0  0  0  0  0  0
  -25.8253  -29.3421   21.9987 C   0  0  0  0  0  0  0  0  0  0  0  0
  -26.9540  -14.2301   21.5738 C   0  0  1  0  0  0  0  0  0  0  0  0
  -27.6146  -17.4571   19.6808 C   0  0  1  0  0  0  0  0  0  0  0  0
  -24.9267  -30.5883   22.1714 C   0  0  2  0  0  0  0  0  0  0  0  0
  -25.7332  -24.9804   21.5126 C   0  0  1  0  0  0  0  0  0  0  0  0
  -31.5281  -24.1027   18.9569 C   0  0  0  0  0  0  0  0  0  0  0  0
  -21.5483  -19.1962   23.5848 C   0  0  0  0  0  0  0  0  0  0  0  0
  -20.2422  -21.3155   23.3523 C   0  0  0  0  0  0  0  0  0  0  0  0
  -30.3444  -19.0383   23.0584 C   0  0  0  0  0  0  0  0  0  0  0  0
  -31.3044  -21.3210   22.6898 C   0  0  0  0  0  0  0  0  0  0  0  0
  -32.1918  -19.3746   21.4066 C   0  0  0  0  0  0  0  0  0  0  0  0
  -28.5391  -22.9890   16.8828 C   0  0  0  0  0  0  0  0  0  0  0  0
  -24.3400  -24.7021   22.0622 C   0  0  0  0  0  0  0  0  0  0  0  0
  -22.7996  -22.8219   22.6375 C   0  0  0  0  0  0  0  0  0  0  0  0
  -29.9035  -20.2906   20.8441 C   0  0  1  0  0  0  0  0  0  0  0  0
  -30.5308  -23.1068   18.3854 C   0  0  2  0  0  0  0  0  0  0  0  0
  -21.6273  -20.7226   23.6458 C   0  0  0  0  0  0  0  0  0  0  0  0
  -22.6826  -21.2970   22.6739 C   0  0  1  0  0  0  0  0  0  1  0  0
  -30.9085  -20.0010   21.9944 C   0  0  0  0  0  0  0  0  0  0  0  0
  -22.9233  -29.1544   22.3767 N   0  0  0  0  0  0  0  0  0  0  0  0
  -23.5283  -30.3076   22.7089 N   0  0  0  0  0  0  0  0  0  0  0  0
  -28.0838  -18.7557   20.1682 N   0  0  0  0  0  0  0  0  0  0  0  0
  -25.6480  -28.6478   20.7152 N   0  0  0  0  0  0  0  0  0  0  0  0
  -26.0512  -26.4131   21.4801 N   0  0  0  0  0  0  0  0  0  0  0  0
  -23.2360  -32.3053   23.9476 N   0  0  0  0  0  0  0  0  0  0  0  0
  -19.3694  -30.0762   24.6380 N   0  0  0  0  0  0  0  0  0  0  0  0
  -27.1239  -15.2613   20.5727 N   0  0  0  0  0  0  0  0  0  0  0  0
  -30.4207  -21.1780   19.8080 N   0  0  0  0  0  0  0  0  0  0  0  0
  -29.5640  -23.8493   17.5281 N   0  3  0  0  0  0  0  0  0  0  0  0
  -24.1114  -23.2417   22.0674 N   0  3  0  0  0  0  0  0  0  0  0  0
  -20.5154  -32.0062   25.1076 O   0  0  0  0  0  0  0  0  0  0  0  0
  -27.7291  -17.0028   21.9950 O   0  0  0  0  0  0  0  0  0  0  0  0
  -30.2974  -18.3250   19.5762 O   0  0  0  0  0  0  0  0  0  0  0  0
  -28.7747  -22.7981   20.0158 O   0  0  0  0  0  0  0  0  0  0  0  0
  -24.7163  -26.8239   19.6604 O   0  0  0  0  0  0  0  0  0  0  0  0
  -18.0330  -25.0804   22.5665 O   0  0  0  0  0  0  0  0  0  0  0  0
  -22.3916  -20.8325   21.3525 O   0  0  0  0  0  0  0  0  0  1  0  0
  -17.1455  -22.9589   17.5550 F   0  0  0  0  0  0  0  0  0  0  0  0
  -15.5169  -25.1477   21.4231 F   0  0  0  0  0  0  0  0  0  0  0  0
  1  2  1  0  0  0  0
  1  5  2  0  0  0  0
  2  6  2  0  0  0  0
  3  8  2  0  0  0  0
  3 15  1  0  0  0  0
  4  9  1  0  0  0  0
  4 15  2  0  0  0  0
  5 17  1  0  0  0  0
  6 19  1  0  0  0  0
  7 10  2  0  0  0  0
  7 18  1  0  0  0  0
  8 21  1  0  0  0  0
  9 21  2  0  0  0  0
 10 22  1  0  0  0  0
 11 12  2  0  0  0  0
 11 23  1  0  0  0  0
 12 24  1  0  0  0  0
 13 20  1  0  0  0  0
 13 22  2  0  0  0  0
 14 24  2  0  0  0  0
 14 25  1  0  0  0  0
 15 26  1  0  0  0  0
 16 26  1  0  0  0  0
 16 27  2  0  0  0  0
 16 28  1  0  0  0  0
 17 19  2  0  0  0  0
 17 33  1  0  0  0  0
 18 20  2  0  0  0  0
 18 34  1  0  0  0  0
 19 45  1  0  0  0  0
 20 35  1  0  0  0  0
 21 79  1  0  0  0  0
 22 80  1  0  0  0  0
 23 25  2  0  0  0  0
 23 79  1  0  0  0  0
 24 81  1  0  0  0  0
 25 82  1  0  0  0  0
 26 63  2  0  0  0  0
 27 64  1  0  0  0  0
 27 68  1  0  0  0  0
 28 69  1  0  0  0  0
 28 74  2  0  0  0  0
 29 46  1  0  0  0  0
 29 70  1  0  0  0  0
 29 75  2  0  0  0  0
 30 58  1  0  0  0  0
 30 65  1  0  0  0  0
 30 76  2  0  0  0  0
 31 59  1  0  0  0  0
 31 71  1  0  0  0  0
 31 77  2  0  0  0  0
 32 66  1  0  0  0  0
 32 67  1  0  0  0  0
 32 78  2  0  0  0  0
 33 36  1  0  0  0  0
 34 46  1  0  0  0  0
 35 65  1  0  0  0  0
 36 39  1  0  0  0  0
 37 40  1  0  0  0  0
 37 42  1  0  0  0  0
 38 41  1  0  0  0  0
 38 43  1  0  0  0  0
 39 45  1  0  0  0  0
 40 47  1  0  0  0  0
 41 48  1  0  0  0  0
 42 66  1  0  0  0  0
 43 67  1  0  0  0  0
 44 47  1  0  0  0  0
 44 66  1  0  0  0  0
 45 70  1  0  0  0  0
 46 65  1  0  0  0  0
 47 64  1  0  0  0  0
 48 56  1  0  0  0  0
 48 67  1  0  0  0  0
 49 59  1  0  0  0  0
 50 60  1  0  0  0  0
 51 60  1  0  0  0  0
 52 62  1  0  0  0  0
 53 62  1  0  0  0  0
 54 62  1  0  0  0  0
 55 72  1  0  0  0  0
 56 73  1  0  0  0  0
 57 61  1  0  0  0  0
 57 73  1  0  0  0  0
 58 62  1  0  0  0  0
 58 71  1  0  0  0  0
 59 72  1  0  0  0  0
 60 61  1  0  0  0  0
 61 80  1  0  0  0  0
 63 64  1  0  0  0  0
M  CHG  2  72   1  73   1
M  ISO  4  32 100  61 101  67 100  80 101
M  END
> <Batch ID>
0114

> <Smiles>
CNC(C)C(=O)NC(C(=O)N1Cc2cc([101O:1][101CH:1](CNCC3CCC[100N:0]3[100C:0](=O)N3CCCC(n4nc(-c5ccc(Oc6ccc(F)cc6F)cc5)c(C(N)=O)c4N)C3)C(C)C)ccc2CC1C(=O)NC1CCCc2ccccc21)C(C)(C)C

> <Shape>
0.234

> <Color>
0.081

> <Negative vol penalty>
0.000

$$$$

  -OEChem-04052320083D

 84 92  0     1  0  0  0  0  0999 V2000
  -17.8428  -27.9798   22.6731 C   0  0  0  0  0  0  0  0  0  0  0  0
  -18.7731  -26.9686   22.4552 C   0  0  0  0  0  0  0  0  0  0  0  0
  -22.8738  -10.0562   20.5850 C   0  0  0  0  0  0  0  0  0  0  0  0
  -24.4818   -9.0558   22.0852 C   0  0  0  0  0  0  0  0  0  0  0  0
  -18.2580  -29.3101   22.7158 C   0  0  0  0  0  0  0  0  0  0  0  0
  -20.1191  -27.2874   22.2786 C   0  0  0  0  0  0  0  0  0  0  0  0
  -24.9515  -24.0017   24.1112 C   0  0  0  0  0  0  0  0  0  0  0  0
  -22.1824   -8.8465   20.5193 C   0  0  0  0  0  0  0  0  0  0  0  0
  -23.7904   -7.8461   22.0196 C   0  0  0  0  0  0  0  0  0  0  0  0
  -25.7869  -23.1087   23.4416 C   0  0  0  0  0  0  0  0  0  0  0  0
  -21.0091   -6.4916   23.3797 C   0  0  0  0  0  0  0  0  0  0  0  0
  -20.7818   -5.8110   24.5758 C   0  0  0  0  0  0  0  0  0  0  0  0
  -27.3710  -24.8871   23.0584 C   0  0  0  0  0  0  0  0  0  0  0  0
  -22.0181   -3.9147   23.7318 C   0  0  0  0  0  0  0  0  0  0  0  0
  -24.0235  -10.1608   21.3680 C   0  0  0  0  0  0  0  0  0  0  0  0
  -24.5340  -12.4576   22.3537 C   0  0  0  0  0  0  0  0  0  0  0  0
  -19.6111  -29.6445   22.5493 C   0  0  0  0  0  0  0  0  0  0  0  0
  -25.3152  -25.3489   24.2501 C   0  0  0  0  0  0  0  0  0  0  0  0
  -20.5526  -28.6235   22.3177 C   0  0  0  0  0  0  0  0  0  0  0  0
  -26.5397  -25.7947   23.7323 C   0  0  0  0  0  0  0  0  0  0  0  0
  -22.6407   -7.7415   21.2366 C   0  0  0  0  0  0  0  0  0  0  0  0
  -26.9955  -23.5519   22.9126 C   0  0  0  0  0  0  0  0  0  0  0  0
  -21.7408   -5.8837   22.3595 C   0  0  0  0  0  0  0  0  0  0  0  0
  -21.2863   -4.5226   24.7519 C   0  0  0  0  0  0  0  0  0  0  0  0
  -22.2453   -4.5952   22.5356 C   0  0  0  0  0  0  0  0  0  0  0  0
  -24.7384  -11.4100   21.4358 C   0  0  0  0  0  0  0  0  0  0  0  0
  -25.4583  -13.4098   21.9993 C   0  0  0  0  0  0  0  0  0  0  0  0
  -23.5930  -12.5608   23.4305 C   0  0  0  0  0  0  0  0  0  0  0  0
  -24.0815  -28.1160   23.2884 C   0  0  0  0  0  0  0  0  0  0  0  0
  -30.5339  -18.6724   22.6824 C   0  0  0  0  0  0  0  0  0  0  0  0
  -26.4604  -29.3628   25.1074 C   0  0  0  0  0  0  0  0  0  0  0  0
  -29.5274  -28.9498   26.5460 C   0  0  0  0  0  0  0  0  0  0  0  0
  -30.8474  -14.4580   20.6175 C   0  0  0  0  0  0  0  0  0  0  0  0
  -20.0053  -31.1003   22.5563 C   0  0  0  0  0  0  0  0  0  0  0  0
  -24.4153  -26.2937   24.9983 C   0  0  0  0  0  0  0  0  0  0  0  0
  -26.9857  -27.2265   23.8723 C   0  0  0  0  0  0  0  0  0  0  0  0
  -21.5048  -31.3245   22.7333 C   0  0  0  0  0  0  0  0  0  0  0  0
  -28.4222  -13.7892   17.9235 C   0  0  0  0  0  0  0  0  0  0  0  0
  -22.2952  -30.3996   21.8131 C   0  0  0  0  0  0  0  0  0  0  0  0
  -27.2573  -13.1428   18.6733 C   0  0  0  0  0  0  0  0  0  0  0  0
  -29.7597  -13.5201   18.6081 C   0  0  0  0  0  0  0  0  0  0  0  0
  -29.6708  -16.4391   23.5341 C   0  0  0  0  0  0  0  0  0  0  0  0
  -29.4893  -15.2184   22.6244 C   0  0  0  0  0  0  0  0  0  0  0  0
  -28.6316  -13.2498   20.7872 C   0  0  0  0  0  0  0  0  0  0  0  0
  -31.9557  -15.1888   22.7062 C   0  0  0  0  0  0  0  0  0  0  0  0
  -22.0251  -28.9274   22.1465 C   0  0  1  0  0  0  0  0  0  0  0  0
  -24.6483  -27.7564   24.6327 C   0  0  1  0  0  0  0  0  0  0  0  0
  -27.2631  -13.5484   20.1583 C   0  0  2  0  0  0  0  0  0  0  0  0
  -32.0506  -16.7172   22.8449 C   0  0  2  0  0  0  0  0  0  0  0  0
  -31.2278  -30.1584   27.9408 C   0  0  0  0  0  0  0  0  0  0  0  0
  -32.4459  -16.5495   25.3158 C   0  0  0  0  0  0  0  0  0  0  0  0
  -34.3925  -16.5724   23.7302 C   0  0  0  0  0  0  0  0  0  0  0  0
  -27.3091  -30.9826   22.6649 C   0  0  0  0  0  0  0  0  0  0  0  0
  -29.5006  -31.4109   23.7972 C   0  0  0  0  0  0  0  0  0  0  0  0
  -27.3842  -32.2379   24.8266 C   0  0  0  0  0  0  0  0  0  0  0  0
  -29.3289  -26.9557   28.7238 C   0  0  0  0  0  0  0  0  0  0  0  0
  -29.1472  -19.2336   22.8675 C   0  0  0  0  0  0  0  0  0  0  0  0
  -29.1434  -20.6921   22.4543 C   0  0  0  0  0  0  0  0  0  0  0  0
  -27.7732  -21.3178   22.6680 C   0  0  0  0  0  0  0  0  0  1  0  0
  -27.8956  -29.7621   24.8632 C   0  0  1  0  0  0  0  0  0  0  0  0
  -30.0256  -29.2270   27.9529 C   0  0  2  0  0  0  0  0  0  0  0  0
  -32.9838  -17.0930   23.9960 C   0  0  0  0  0  0  0  0  0  0  0  0
  -28.0134  -31.0718   24.0335 C   0  0  0  0  0  0  0  0  0  0  0  0
  -25.7156  -11.6718   20.5637 N   0  0  0  0  0  0  0  0  0  0  0  0
  -26.1335  -12.8948   20.9320 N   0  0  0  0  0  0  0  0  0  0  0  0
  -26.0682  -28.1133   24.6067 N   0  0  0  0  0  0  0  0  0  0  0  0
  -30.7174  -17.3299   23.0180 N   0  0  0  0  0  0  0  0  0  0  0  0
  -29.7128  -13.8858   20.0237 N   0  0  0  0  0  0  0  0  0  0  0  0
  -30.7468  -14.8239   21.9698 N   0  0  0  0  0  0  0  0  0  0  0  0
  -25.7512  -14.6290   22.4995 N   0  0  0  0  0  0  0  0  0  0  0  0
  -22.7159  -11.4912   23.6561 N   0  0  0  0  0  0  0  0  0  0  0  0
  -22.7644  -28.5325   23.3263 N   0  0  0  0  0  0  0  0  0  0  0  0
  -28.5301  -29.8270   26.1753 N   0  0  0  0  0  0  0  0  0  0  0  0
  -30.4227  -27.9558   28.6216 N   0  3  0  0  0  0  0  0  0  0  0  0
  -23.5206  -13.5785   24.1603 O   0  0  0  0  0  0  0  0  0  0  0  0
  -24.7873  -28.0239   22.2909 O   0  0  0  0  0  0  0  0  0  0  0  0
  -31.4297  -19.4024   22.2499 O   0  0  0  0  0  0  0  0  0  0  0  0
  -25.7166  -30.1281   25.7260 O   0  0  0  0  0  0  0  0  0  0  0  0
  -29.9803  -28.0480   25.8445 O   0  0  0  0  0  0  0  0  0  0  0  0
  -31.8819  -14.6579   19.9682 O   0  0  0  0  0  0  0  0  0  0  0  0
  -21.9663   -6.5610   21.1729 O   0  0  0  0  0  0  0  0  0  0  0  0
  -27.8185  -22.6760   22.2532 O   0  0  0  0  0  0  0  0  0  1  0  0
  -21.0693   -3.8697   25.9012 F   0  0  0  0  0  0  0  0  0  0  0  0
  -22.9500   -4.0065   21.5596 F   0  0  0  0  0  0  0  0  0  0  0  0
  1  2  1  0  0  0  0
  1  5  2  0  0  0  0
  2  6  2  0  0  0  0
  3  8  2  0  0  0  0
  3 15  1  0  0  0  0
  4  9  1  0  0  0  0
  4 15  2  0  0  0  0
  5 17  1  0  0  0  0
  6 19  1  0  0  0  0
  7 10  2  0  0  0  0
  7 18  1  0  0  0  0
  8 21  1  0  0  0  0
  9 21  2  0  0  0  0
 10 22  1  0  0  0  0
 11 12  2  0  0  0  0
 11 23  1  0  0  0  0
 12 24  1  0  0  0  0
 13 20  1  0  0  0  0
 13 22  2  0  0  0  0
 14 24  2  0  0  0  0
 14 25  1  0  0  0  0
 15 26  1  0  0  0  0
 16 26  1  0  0  0  0
 16 27  2  0  0  0  0
 16 28  1  0  0  0  0
 17 19  2  0  0  0  0
 17 34  1  0  0  0  0
 18 20  2  0  0  0  0
 18 35  1  0  0  0  0
 19 46  1  0  0  0  0
 20 36  1  0  0  0  0
 21 81  1  0  0  0  0
 22 82  1  0  0  0  0
 23 25  2  0  0  0  0
 23 81  1  0  0  0  0
 24 83  1  0  0  0  0
 25 84  1  0  0  0  0
 26 64  2  0  0  0  0
 27 65  1  0  0  0  0
 27 70  1  0  0  0  0
 28 71  1  0  0  0  0
 28 75  2  0  0  0  0
 29 47  1  0  0  0  0
 29 72  1  0  0  0  0
 29 76  2  0  0  0  0
 30 57  1  0  0  0  0
 30 67  1  0  0  0  0
 30 77  2  0  0  0  0
 31 60  1  0  0  0  0
 31 66  1  0  0  0  0
 31 78  2  0  0  0  0
 32 61  1  0  0  0  0
 32 73  1  0  0  0  0
 32 79  2  0  0  0  0
 33 68  1  0  0  0  0
 33 69  1  0  0  0  0
 33 80  2  0  0  0  0
 34 37  1  0  0  0  0
 35 47  1  0  0  0  0
 36 66  1  0  0  0  0
 37 39  1  0  0  0  0
 38 40  1  0  0  0  0
 38 41  1  0  0  0  0
 39 46  1  0  0  0  0
 40 48  1  0  0  0  0
 41 68  1  0  0  0  0
 42 43  1  0  0  0  0
 42 67  1  0  0  0  0
 43 69  1  0  0  0  0
 44 48  1  0  0  0  0
 44 68  1  0  0  0  0
 45 49  1  0  0  0  0
 45 69  1  0  0  0  0
 46 72  1  0  0  0  0
 47 66  1  0  0  0  0
 48 65  1  0  0  0  0
 49 62  1  0  0  0  0
 49 67  1  0  0  0  0
 50 61  1  0  0  0  0
 51 62  1  0  0  0  0
 52 62  1  0  0  0  0
 53 63  1  0  0  0  0
 54 63  1  0  0  0  0
 55 63  1  0  0  0  0
 56 74  1  0  0  0  0
 57 58  1  0  0  0  0
 58 59  1  0  0  0  0
 59 82  1  0  0  0  0
 60 63  1  0  0  0  0
 60 73  1  0  0  0  0
 61 74  1  0  0  0  0
 64 65  1  0  0  0  0
M  CHG  1  74   1
M  ISO  4  33 100  59 101  69 100  82 101
M  END
> <Batch ID>
0114

> <Smiles>
CNC(C)C(=O)NC(C(=O)N1Cc2cc([101O:1][101CH2:1]CCC(=O)N3CC[100N:0]([100C:0](=O)N4CCCC(n5nc(-c6ccc(Oc7ccc(F)cc7F)cc6)c(C(N)=O)c5N)C4)CC3C(C)C)ccc2CC1C(=O)NC1CCCc2ccccc21)C(C)(C)C

> <Shape>
0.278

> <Color>
0.127

> <Negative vol penalty>
0.000

$$$$

  -OEChem-04052320083D

 82 90  0     1  0  0  0  0  0999 V2000
  -16.8142  -28.5425   24.1623 C   0  0  0  0  0  0  0  0  0  0  0  0
  -17.4897  -27.7377   23.2505 C   0  0  0  0  0  0  0  0  0  0  0  0
  -26.0520  -11.2282   18.3669 C   0  0  0  0  0  0  0  0  0  0  0  0
  -25.8799  -11.5096   20.7603 C   0  0  0  0  0  0  0  0  0  0  0  0
  -17.2077  -29.8674   24.3463 C   0  0  0  0  0  0  0  0  0  0  0  0
  -18.5585  -28.2577   22.5213 C   0  0  0  0  0  0  0  0  0  0  0  0
  -22.5190  -25.1057   22.3639 C   0  0  0  0  0  0  0  0  0  0  0  0
  -24.7952  -10.6236   18.3475 C   0  0  0  0  0  0  0  0  0  0  0  0
  -24.6230  -10.9049   20.7409 C   0  0  0  0  0  0  0  0  0  0  0  0
  -22.4444  -24.0333   21.4761 C   0  0  0  0  0  0  0  0  0  0  0  0
  -23.3690   -7.7699   20.5678 C   0  0  0  0  0  0  0  0  0  0  0  0
  -23.0971   -6.8090   21.5416 C   0  0  0  0  0  0  0  0  0  0  0  0
  -23.8176  -25.2453   19.9062 C   0  0  0  0  0  0  0  0  0  0  0  0
  -21.2539   -8.1470   22.3473 C   0  0  0  0  0  0  0  0  0  0  0  0
  -26.5944  -11.6712   19.5733 C   0  0  0  0  0  0  0  0  0  0  0  0
  -29.1147  -11.7298   19.1826 C   0  0  0  0  0  0  0  0  0  0  0  0
  -18.2881  -30.4010   23.6261 C   0  0  0  0  0  0  0  0  0  0  0  0
  -23.2356  -26.2622   22.0244 C   0  0  0  0  0  0  0  0  0  0  0  0
  -18.9660  -29.5913   22.6949 C   0  0  0  0  0  0  0  0  0  0  0  0
  -23.9019  -26.3299   20.7925 C   0  0  0  0  0  0  0  0  0  0  0  0
  -24.0807  -10.4619   19.5345 C   0  0  0  0  0  0  0  0  0  0  0  0
  -23.0913  -24.1041   20.2459 C   0  0  0  0  0  0  0  0  0  0  0  0
  -22.5834   -8.9195   20.4838 C   0  0  0  0  0  0  0  0  0  0  0  0
  -22.0395   -6.9975   22.4313 C   0  0  0  0  0  0  0  0  0  0  0  0
  -21.5258   -9.1080   21.3735 C   0  0  0  0  0  0  0  0  0  0  0  0
  -27.8929  -12.2954   19.5940 C   0  0  0  0  0  0  0  0  0  0  0  0
  -30.0418  -12.7194   19.4005 C   0  0  0  0  0  0  0  0  0  0  0  0
  -29.3871  -10.4264   18.6508 C   0  0  0  0  0  0  0  0  0  0  0  0
  -22.4876  -29.3235   21.6088 C   0  0  0  0  0  0  0  0  0  0  0  0
  -25.6998  -29.6652   21.3136 C   0  0  0  0  0  0  0  0  0  0  0  0
  -28.7088  -28.2380   20.5682 C   0  0  0  0  0  0  0  0  0  0  0  0
  -29.6429  -18.6862   19.6999 C   0  0  0  0  0  0  0  0  0  0  0  0
  -18.6467  -31.8524   23.8245 C   0  0  0  0  0  0  0  0  0  0  0  0
  -23.3287  -27.3997   23.0042 C   0  0  0  0  0  0  0  0  0  0  0  0
  -24.7012  -27.5409   20.3887 C   0  0  0  0  0  0  0  0  0  0  0  0
  -20.0275  -32.2178   23.2859 C   0  0  0  0  0  0  0  0  0  0  0  0
  -30.8974  -16.4957   22.2109 C   0  0  0  0  0  0  0  0  0  0  0  0
  -20.2239  -31.6431   21.8866 C   0  0  0  0  0  0  0  0  0  0  0  0
  -30.3799  -15.1198   21.7878 C   0  0  0  0  0  0  0  0  0  0  0  0
  -25.4601  -20.2272   18.9816 C   0  0  0  0  0  0  0  0  0  0  0  0
  -25.6769  -21.8090   17.0139 C   0  0  0  0  0  0  0  0  0  0  0  0
  -24.2201  -20.9849   19.4499 C   0  0  0  0  0  0  0  0  0  0  0  0
  -24.4366  -22.5632   17.4872 C   0  0  0  0  0  0  0  0  0  0  0  0
  -29.8825  -17.5969   21.9118 C   0  0  0  0  0  0  0  0  0  0  0  0
  -28.8895  -16.2625   20.0933 C   0  0  0  0  0  0  0  0  0  0  0  0
  -20.1461  -30.1117   21.9032 C   0  0  1  0  0  0  0  0  0  0  0  0
  -23.6591  -28.7335   22.3417 C   0  0  1  0  0  0  0  0  0  0  0  0
  -29.9010  -15.1268   20.3236 C   0  0  2  0  0  0  0  0  0  0  0  0
  -25.6329  -20.3518   17.4692 C   0  0  0  0  0  0  0  0  0  0  0  0
  -24.2470  -22.4449   18.9997 C   0  0  0  0  0  0  0  0  0  1  0  0
  -25.7313  -18.3310   15.3819 C   0  0  0  0  0  0  0  0  0  0  0  0
  -31.1521  -28.7781   20.3779 C   0  0  0  0  0  0  0  0  0  0  0  0
  -25.1805  -31.0664   18.6534 C   0  0  0  0  0  0  0  0  0  0  0  0
  -27.5946  -30.7272   18.0830 C   0  0  0  0  0  0  0  0  0  0  0  0
  -26.9644  -32.1181   20.0556 C   0  0  0  0  0  0  0  0  0  0  0  0
  -29.4222  -26.2926   22.6813 C   0  0  0  0  0  0  0  0  0  0  0  0
  -29.3508  -19.6342   17.4251 C   0  0  0  0  0  0  0  0  0  0  0  0
  -26.9021  -19.2574   15.6274 C   0  0  0  0  0  0  0  0  0  0  0  0
  -28.1169  -20.5167   17.3992 C   0  0  0  0  0  0  0  0  0  0  0  0
  -26.6801  -29.6083   20.1670 C   0  0  1  0  0  0  0  0  0  0  0  0
  -30.0449  -28.2700   21.2882 C   0  0  2  0  0  0  0  0  0  0  0  0
  -26.5883  -30.8578   19.2462 C   0  0  0  0  0  0  0  0  0  0  0  0
  -28.0284  -13.5472   20.0397 N   0  0  0  0  0  0  0  0  0  0  0  0
  -29.3462  -13.7763   19.9097 N   0  0  0  0  0  0  0  0  0  0  0  0
  -24.7570  -28.6295   21.3783 N   0  0  0  0  0  0  0  0  0  0  0  0
  -29.4705  -17.5494   20.5069 N   0  0  0  0  0  0  0  0  0  0  0  0
  -31.3761  -12.7799   19.2044 N   0  0  0  0  0  0  0  0  0  0  0  0
  -28.3189   -9.5330   18.4918 N   0  0  0  0  0  0  0  0  0  0  0  0
  -21.3810  -29.5483   22.4052 N   0  0  0  0  0  0  0  0  0  0  0  0
  -27.9951  -29.4014   20.7640 N   0  0  0  0  0  0  0  0  0  0  0  0
  -29.2320  -18.5543   18.3792 N   0  0  0  0  0  0  0  0  0  0  0  0
  -30.4126  -26.9046   21.7586 N   0  3  0  0  0  0  0  0  0  0  0  0
  -26.9019  -19.6854   17.0733 N   0  3  1  0  0  0  0  0  0  0  0  0
  -30.5459  -10.0590   18.3417 O   0  0  0  0  0  0  0  0  0  0  0  0
  -22.5813  -29.5588   20.4098 O   0  0  0  0  0  0  0  0  0  0  0  0
  -25.7726  -30.5905   22.1261 O   0  0  0  0  0  0  0  0  0  0  0  0
  -28.3373  -27.2786   19.8959 O   0  0  0  0  0  0  0  0  0  0  0  0
  -30.1322  -19.7388   20.1237 O   0  0  0  0  0  0  0  0  0  0  0  0
  -22.8542   -9.8722   19.5160 O   0  0  0  0  0  0  0  0  0  0  0  0
  -23.0196  -23.0591   19.3772 O   0  0  0  0  0  0  0  0  0  1  0  0
  -21.7776   -6.0739   23.3654 F   0  0  0  0  0  0  0  0  0  0  0  0
  -20.7669  -10.2098   21.2969 F   0  0  0  0  0  0  0  0  0  0  0  0
  1  2  1  0  0  0  0
  1  5  2  0  0  0  0
  2  6  2  0  0  0  0
  3  8  2  0  0  0  0
  3 15  1  0  0  0  0
  4  9  1  0  0  0  0
  4 15  2  0  0  0  0
  5 17  1  0  0  0  0
  6 19  1  0  0  0  0
  7 10  2  0  0  0  0
  7 18  1  0  0  0  0
  8 21  1  0  0  0  0
  9 21  2  0  0  0  0
 10 22  1  0  0  0  0
 11 12  2  0  0  0  0
 11 23  1  0  0  0  0
 12 24  1  0  0  0  0
 13 20  1  0  0  0  0
 13 22  2  0  0  0  0
 14 24  2  0  0  0  0
 14 25  1  0  0  0  0
 15 26  1  0  0  0  0
 16 26  1  0  0  0  0
 16 27  2  0  0  0  0
 16 28  1  0  0  0  0
 17 19  2  0  0  0  0
 17 33  1  0  0  0  0
 18 20  2  0  0  0  0
 18 34  1  0  0  0  0
 19 46  1  0  0  0  0
 20 35  1  0  0  0  0
 21 79  1  0  0  0  0
 22 80  1  0  0  0  0
 23 25  2  0  0  0  0
 23 79  1  0  0  0  0
 24 81  1  0  0  0  0
 25 82  1  0  0  0  0
 26 63  2  0  0  0  0
 27 64  1  0  0  0  0
 27 67  1  0  0  0  0
 28 68  1  0  0  0  0
 28 74  2  0  0  0  0
 29 47  1  0  0  0  0
 29 69  1  0  0  0  0
 29 75  2  0  0  0  0
 30 60  1  0  0  0  0
 30 65  1  0  0  0  0
 30 76  2  0  0  0  0
 31 61  1  0  0  0  0
 31 70  1  0  0  0  0
 31 77  2  0  0  0  0
 32 66  1  0  0  0  0
 32 71  1  0  0  0  0
 32 78  2  0  0  0  0
 33 36  1  0  0  0  0
 34 47  1  0  0  0  0
 35 65  1  0  0  0  0
 36 38  1  0  0  0  0
 37 39  1  0  0  0  0
 37 44  1  0  0  0  0
 38 46  1  0  0  0  0
 39 48  1  0  0  0  0
 40 42  1  0  0  0  0
 40 49  1  0  0  0  0
 41 43  1  0  0  0  0
 41 49  1  0  0  0  0
 42 50  1  0  0  0  0
 43 50  1  0  0  0  0
 44 66  1  0  0  0  0
 45 48  1  0  0  0  0
 45 66  1  0  0  0  0
 46 69  1  0  0  0  0
 47 65  1  0  0  0  0
 48 64  1  0  0  0  0
 49 73  1  0  0  0  0
 50 80  1  0  0  0  0
 51 58  1  0  0  0  0
 52 61  1  0  0  0  0
 53 62  1  0  0  0  0
 54 62  1  0  0  0  0
 55 62  1  0  0  0  0
 56 72  1  0  0  0  0
 57 59  1  0  0  0  0
 57 71  1  0  0  0  0
 58 73  1  0  0  0  0
 59 73  1  0  0  0  0
 60 62  1  0  0  0  0
 60 70  1  0  0  0  0
 61 72  1  0  0  0  0
 63 64  1  0  0  0  0
M  CHG  2  72   1  73   1
M  ISO  4  32 100  50 101  71 100  80 101
M  END
> <Batch ID>
0114

> <Smiles>
CCN(CC[100NH:0][100C:0](=O)N1CCCC(n2nc(-c3ccc(Oc4ccc(F)cc4F)cc3)c(C(N)=O)c2N)C1)C1CC[101CH:1]([101O:1]c2ccc3c(c2)CN(C(=O)C(NC(=O)C(C)NC)C(C)(C)C)C(C(=O)NC2CCCc4ccccc42)C3)CC1

> <Shape>
0.282

> <Color>
0.078

> <Negative vol penalty>
0.000

$$$$

  -OEChem-04052320083D

 85 93  0     1  0  0  0  0  0999 V2000
  -16.1429  -15.7128   19.3857 C   0  0  0  0  0  0  0  0  0  0  0  0
  -17.5247  -15.6642   19.2322 C   0  0  0  0  0  0  0  0  0  0  0  0
  -26.1329  -27.5153   18.8317 C   0  0  0  0  0  0  0  0  0  0  0  0
  -26.4815  -27.6929   21.2158 C   0  0  0  0  0  0  0  0  0  0  0  0
  -15.5349  -16.8778   19.8516 C   0  0  0  0  0  0  0  0  0  0  0  0
  -18.2994  -16.7810   19.5436 C   0  0  0  0  0  0  0  0  0  0  0  0
  -22.4306  -15.5946   22.2213 C   0  0  0  0  0  0  0  0  0  0  0  0
  -25.1123  -28.4627   18.9104 C   0  0  0  0  0  0  0  0  0  0  0  0
  -25.4609  -28.6404   21.2945 C   0  0  0  0  0  0  0  0  0  0  0  0
  -23.5078  -15.0511   21.5228 C   0  0  0  0  0  0  0  0  0  0  0  0
  -22.0802  -28.6630   21.3340 C   0  0  0  0  0  0  0  0  0  0  0  0
  -21.1492  -28.5286   22.3639 C   0  0  0  0  0  0  0  0  0  0  0  0
  -24.5843  -17.2099   21.5153 C   0  0  0  0  0  0  0  0  0  0  0  0
  -30.0694  -13.6838   19.8985 C   0  0  0  0  0  0  0  0  0  0  0  0
  -21.7720  -30.7040   23.2106 C   0  0  0  0  0  0  0  0  0  0  0  0
  -27.5603  -13.0221   19.0546 C   0  0  0  0  0  0  0  0  0  0  0  0
  -26.8176  -27.1304   19.9845 C   0  0  0  0  0  0  0  0  0  0  0  0
  -29.2413  -26.3927   19.6859 C   0  0  0  0  0  0  0  0  0  0  0  0
  -16.3034  -18.0063   20.1780 C   0  0  0  0  0  0  0  0  0  0  0  0
  -22.4171  -16.9545   22.5632 C   0  0  0  0  0  0  0  0  0  0  0  0
  -17.7010  -17.9627   20.0130 C   0  0  0  0  0  0  0  0  0  0  0  0
  -23.5069  -17.7676   22.2205 C   0  0  0  0  0  0  0  0  0  0  0  0
  -29.2220  -14.6817   19.4301 C   0  0  0  0  0  0  0  0  0  0  0  0
  -27.9419  -14.3529   18.9983 C   0  0  0  0  0  0  0  0  0  0  0  0
  -24.7762  -29.0253   20.1417 C   0  0  0  0  0  0  0  0  0  0  0  0
  -24.5836  -15.8594   21.1671 C   0  0  0  0  0  0  0  0  0  0  0  0
  -22.8572  -29.8178   21.2424 C   0  0  0  0  0  0  0  0  0  0  0  0
  -20.9951  -29.5491   23.3022 C   0  0  0  0  0  0  0  0  0  0  0  0
  -22.7030  -30.8383   22.1807 C   0  0  0  0  0  0  0  0  0  0  0  0
  -27.8716  -26.1513   19.9040 C   0  0  0  0  0  0  0  0  0  0  0  0
  -29.5925  -12.3830   19.9146 C   0  0  0  0  0  0  0  0  0  0  0  0
  -29.8157  -25.1452   19.6957 C   0  0  0  0  0  0  0  0  0  0  0  0
  -29.9326  -27.6338   19.4920 C   0  0  0  0  0  0  0  0  0  0  0  0
  -20.5509  -19.4276   21.8529 C   0  0  0  0  0  0  0  0  0  0  0  0
  -22.4120  -20.9569   24.0254 C   0  0  0  0  0  0  0  0  0  0  0  0
  -30.3782  -20.2141   22.0720 C   0  0  0  0  0  0  0  0  0  0  0  0
  -25.3951  -21.1301   25.6739 C   0  0  0  0  0  0  0  0  0  0  0  0
  -15.5970  -19.2587   20.6330 C   0  0  0  0  0  0  0  0  0  0  0  0
  -21.2598  -17.5194   23.3403 C   0  0  0  0  0  0  0  0  0  0  0  0
  -23.5502  -19.2292   22.5817 C   0  0  0  0  0  0  0  0  0  0  0  0
  -16.5240  -20.2740   21.2966 C   0  0  0  0  0  0  0  0  0  0  0  0
  -27.7279  -20.5475   19.6038 C   0  0  0  0  0  0  0  0  0  0  0  0
  -17.7928  -20.4584   20.4701 C   0  0  0  0  0  0  0  0  0  0  0  0
  -27.6248  -22.0661   19.4692 C   0  0  0  0  0  0  0  0  0  0  0  0
  -28.0588  -20.1320   21.0348 C   0  0  0  0  0  0  0  0  0  0  0  0
  -29.1925  -22.2932   21.4450 C   0  0  0  0  0  0  0  0  0  0  0  0
  -18.5777  -19.1453   20.3638 C   0  0  1  0  0  0  0  0  0  0  0  0
  -21.1177  -19.0306   23.1866 C   0  0  1  0  0  0  0  0  0  0  0  0
  -28.8900  -22.7552   20.0098 C   0  0  2  0  0  0  0  0  0  0  0  0
  -30.4746  -11.2862   20.4105 C   0  0  0  0  0  0  0  0  0  0  0  0
  -26.6363  -22.5127   27.3607 C   0  0  0  0  0  0  0  0  0  0  0  0
  -29.1643  -18.2834   23.0388 C   0  0  0  0  0  0  0  0  0  0  0  0
  -31.6574  -18.2585   22.8258 C   0  0  0  0  0  0  0  0  0  0  0  0
  -22.9356  -23.0793   21.8968 C   0  0  0  0  0  0  0  0  0  0  0  0
  -24.8703  -23.8793   23.2698 C   0  0  0  0  0  0  0  0  0  0  0  0
  -22.5572  -23.9814   24.1984 C   0  0  0  0  0  0  0  0  0  0  0  0
  -25.6111  -18.8537   27.5529 C   0  0  0  0  0  0  0  0  0  0  0  0
  -26.9813  -15.3956   18.4801 C   0  0  0  0  0  0  0  0  0  0  0  0
  -29.7056  -16.0937   19.4002 C   0  0  0  0  0  0  0  0  0  0  0  0
  -30.2804  -18.1187   20.7446 C   0  0  0  0  0  0  0  0  0  0  0  0
  -26.3421  -16.2044   19.6036 C   0  0  0  0  0  0  0  0  0  1  0  0
  -23.7018  -21.7390   23.9662 C   0  0  1  0  0  0  0  0  0  0  0  0
  -25.7242  -21.3152   27.1443 C   0  0  2  0  0  0  0  0  0  0  0  0
  -30.3477  -18.7092   22.1621 C   0  0  0  0  0  0  0  0  0  0  0  0
  -23.5148  -23.1427   23.3242 C   0  0  0  0  0  0  0  0  0  0  0  0
  -28.3554  -12.0251   19.5032 N   0  0  0  0  0  0  0  0  0  0  0  0
  -27.5926  -24.8524   20.0420 N   0  0  0  0  0  0  0  0  0  0  0  0
  -28.7949  -24.2665   19.9103 N   0  0  0  0  0  0  0  0  0  0  0  0
  -22.3921  -19.7362   23.3361 N   0  0  0  0  0  0  0  0  0  0  0  0
  -29.2540  -20.8308   21.5223 N   0  0  0  0  0  0  0  0  0  0  0  0
  -31.0893  -24.7250   19.5415 N   0  0  0  0  0  0  0  0  0  0  0  0
  -29.1900  -28.8223   19.5112 N   0  0  0  0  0  0  0  0  0  0  0  0
  -19.3053  -18.8909   21.5886 N   0  0  0  0  0  0  0  0  0  0  0  0
  -24.2235  -21.7697   25.3283 N   0  0  0  0  0  0  0  0  0  0  0  0
  -26.4056  -20.1026   27.6793 N   0  3  0  0  0  0  0  0  0  0  0  0
  -29.7478  -16.7310   20.7446 N   0  3  0  0  0  0  0  0  0  0  0  0
  -31.1696  -27.6860   19.2906 O   0  0  0  0  0  0  0  0  0  0  0  0
  -21.1953  -20.1674   21.1185 O   0  0  0  0  0  0  0  0  0  0  0  0
  -21.4595  -21.4090   24.6659 O   0  0  0  0  0  0  0  0  0  0  0  0
  -31.3732  -20.8214   22.4761 O   0  0  0  0  0  0  0  0  0  0  0  0
  -26.1082  -20.4858   24.9078 O   0  0  0  0  0  0  0  0  0  0  0  0
  -23.7805  -29.9500   20.2188 O   0  0  0  0  0  0  0  0  0  0  0  0
  -25.6360  -15.3317   20.4846 O   0  0  0  0  0  0  0  0  0  1  0  0
  -20.0999  -29.4207   24.2903 F   0  0  0  0  0  0  0  0  0  0  0  0
  -23.4458  -31.9506   22.0971 F   0  0  0  0  0  0  0  0  0  0  0  0
  1  2  1  0  0  0  0
  1  5  2  0  0  0  0
  2  6  2  0  0  0  0
  3  8  2  0  0  0  0
  3 17  1  0  0  0  0
  4  9  1  0  0  0  0
  4 17  2  0  0  0  0
  5 19  1  0  0  0  0
  6 21  1  0  0  0  0
  7 10  2  0  0  0  0
  7 20  1  0  0  0  0
  8 25  1  0  0  0  0
  9 25  2  0  0  0  0
 10 26  1  0  0  0  0
 11 12  2  0  0  0  0
 11 27  1  0  0  0  0
 12 28  1  0  0  0  0
 13 22  1  0  0  0  0
 13 26  2  0  0  0  0
 14 23  1  0  0  0  0
 14 31  2  0  0  0  0
 15 28  2  0  0  0  0
 15 29  1  0  0  0  0
 16 24  1  0  0  0  0
 16 66  2  0  0  0  0
 17 30  1  0  0  0  0
 18 30  1  0  0  0  0
 18 32  2  0  0  0  0
 18 33  1  0  0  0  0
 19 21  2  0  0  0  0
 19 38  1  0  0  0  0
 20 22  2  0  0  0  0
 20 39  1  0  0  0  0
 21 47  1  0  0  0  0
 22 40  1  0  0  0  0
 23 24  2  0  0  0  0
 23 59  1  0  0  0  0
 24 58  1  0  0  0  0
 25 82  1  0  0  0  0
 26 83  1  0  0  0  0
 27 29  2  0  0  0  0
 27 82  1  0  0  0  0
 28 84  1  0  0  0  0
 29 85  1  0  0  0  0
 30 67  2  0  0  0  0
 31 50  1  0  0  0  0
 31 66  1  0  0  0  0
 32 68  1  0  0  0  0
 32 71  1  0  0  0  0
 33 72  1  0  0  0  0
 33 77  2  0  0  0  0
 34 48  1  0  0  0  0
 34 73  1  0  0  0  0
 34 78  2  0  0  0  0
 35 62  1  0  0  0  0
 35 69  1  0  0  0  0
 35 79  2  0  0  0  0
 36 64  1  0  0  0  0
 36 70  1  0  0  0  0
 36 80  2  0  0  0  0
 37 63  1  0  0  0  0
 37 74  1  0  0  0  0
 37 81  2  0  0  0  0
 38 41  1  0  0  0  0
 39 48  1  0  0  0  0
 40 69  1  0  0  0  0
 41 43  1  0  0  0  0
 42 44  1  0  0  0  0
 42 45  1  0  0  0  0
 43 47  1  0  0  0  0
 44 49  1  0  0  0  0
 45 70  1  0  0  0  0
 46 49  1  0  0  0  0
 46 70  1  0  0  0  0
 47 73  1  0  0  0  0
 48 69  1  0  0  0  0
 49 68  1  0  0  0  0
 51 63  1  0  0  0  0
 52 64  1  0  0  0  0
 53 64  1  0  0  0  0
 54 65  1  0  0  0  0
 55 65  1  0  0  0  0
 56 65  1  0  0  0  0
 57 75  1  0  0  0  0
 58 61  1  0  0  0  0
 59 76  1  0  0  0  0
 60 64  1  0  0  0  0
 60 76  1  0  0  0  0
 61 83  1  0  0  0  0
 62 65  1  0  0  0  0
 62 74  1  0  0  0  0
 63 75  1  0  0  0  0
 67 68  1  0  0  0  0
M  CHG  2  75   1  76   1
M  ISO  4  36 100  61 101  64 100  83 101
M  END
> <Batch ID>
0114

> <Smiles>
CNC(C)C(=O)NC(C(=O)N1Cc2cc([101O:1][101CH2:1]Cc3cnc(C)cc3CNC[100C:0](C)(C)[100C:0](=O)N3CCCC(n4nc(-c5ccc(Oc6ccc(F)cc6F)cc5)c(C(N)=O)c4N)C3)ccc2CC1C(=O)NC1CCCc2ccccc21)C(C)(C)C

> <Shape>
0.212

> <Color>
0.058

> <Negative vol penalty>
0.000

$$$$

  -OEChem-04052320083D

 87 95  0     1  0  0  0  0  0999 V2000
  -18.0599  -27.5120   23.3510 C   0  0  0  0  0  0  0  0  0  0  0  0
  -19.3009  -27.8334   23.8915 C   0  0  0  0  0  0  0  0  0  0  0  0
  -25.6405  -15.3007   22.0367 C   0  0  0  0  0  0  0  0  0  0  0  0
  -25.6526  -14.2930   19.8410 C   0  0  0  0  0  0  0  0  0  0  0  0
  -17.9792  -26.9610   22.0728 C   0  0  0  0  0  0  0  0  0  0  0  0
  -20.4620  -27.6030   23.1545 C   0  0  0  0  0  0  0  0  0  0  0  0
  -23.6867  -31.5033   23.3399 C   0  0  0  0  0  0  0  0  0  0  0  0
  -24.5943  -14.4601   22.4168 C   0  0  0  0  0  0  0  0  0  0  0  0
  -24.6064  -13.4523   20.2210 C   0  0  0  0  0  0  0  0  0  0  0  0
  -24.4555  -31.6394   24.4949 C   0  0  0  0  0  0  0  0  0  0  0  0
  -24.2201  -10.6129   22.0124 C   0  0  0  0  0  0  0  0  0  0  0  0
  -24.3180   -9.2640   21.6712 C   0  0  0  0  0  0  0  0  0  0  0  0
  -26.3273  -30.6241   23.3614 C   0  0  0  0  0  0  0  0  0  0  0  0
  -25.2208  -24.7174   22.8948 C   0  0  0  0  0  0  0  0  0  0  0  0
  -22.2798   -9.4412   20.3859 C   0  0  0  0  0  0  0  0  0  0  0  0
  -27.8144  -24.7896   22.0499 C   0  0  0  0  0  0  0  0  0  0  0  0
  -26.1696  -15.2172   20.7488 C   0  0  0  0  0  0  0  0  0  0  0  0
  -28.6298  -15.8351   20.4778 C   0  0  0  0  0  0  0  0  0  0  0  0
  -19.1392  -26.7327   21.3159 C   0  0  0  0  0  0  0  0  0  0  0  0
  -24.2299  -30.9156   22.1884 C   0  0  0  0  0  0  0  0  0  0  0  0
  -20.3968  -27.0472   21.8655 C   0  0  0  0  0  0  0  0  0  0  0  0
  -25.5640  -30.4840   22.1923 C   0  0  0  0  0  0  0  0  0  0  0  0
  -25.6789  -23.7432   22.0147 C   0  0  0  0  0  0  0  0  0  0  0  0
  -26.9991  -23.7729   21.5794 C   0  0  0  0  0  0  0  0  0  0  0  0
  -24.0773  -13.5359   21.5090 C   0  0  0  0  0  0  0  0  0  0  0  0
  -25.7751  -31.1971   24.5067 C   0  0  0  0  0  0  0  0  0  0  0  0
  -23.1520  -11.3760   21.5405 C   0  0  0  0  0  0  0  0  0  0  0  0
  -23.3479   -8.6782   20.8579 C   0  0  0  0  0  0  0  0  0  0  0  0
  -22.1819  -10.7902   20.7272 C   0  0  0  0  0  0  0  0  0  0  0  0
  -27.2499  -16.0857   20.3554 C   0  0  0  0  0  0  0  0  0  0  0  0
  -26.1158  -25.6917   23.3065 C   0  0  0  0  0  0  0  0  0  0  0  0
  -29.2297  -16.9589   19.9644 C   0  0  0  0  0  0  0  0  0  0  0  0
  -29.3085  -14.6889   21.0081 C   0  0  0  0  0  0  0  0  0  0  0  0
  -23.5643  -28.3312   20.4616 C   0  0  0  0  0  0  0  0  0  0  0  0
  -25.8521  -29.5305   18.4995 C   0  0  0  0  0  0  0  0  0  0  0  0
  -28.6110  -31.5059   18.1340 C   0  0  0  0  0  0  0  0  0  0  0  0
  -26.9711  -22.6093   19.3794 C   0  0  0  0  0  0  0  0  0  0  0  0
  -19.0051  -26.0913   19.9575 C   0  0  0  0  0  0  0  0  0  0  0  0
  -23.3957  -30.8004   20.9422 C   0  0  0  0  0  0  0  0  0  0  0  0
  -26.2007  -29.8647   20.9758 C   0  0  0  0  0  0  0  0  0  0  0  0
  -20.2568  -26.2262   19.0940 C   0  0  0  0  0  0  0  0  0  0  0  0
  -28.5355  -20.4775   16.8068 C   0  0  0  0  0  0  0  0  0  0  0  0
  -21.5028  -25.8779   19.9020 C   0  0  0  0  0  0  0  0  0  0  0  0
  -28.4379  -19.0803   17.4170 C   0  0  0  0  0  0  0  0  0  0  0  0
  -27.3961  -21.3797   17.2712 C   0  0  0  0  0  0  0  0  0  0  0  0
  -27.1742  -20.0770   19.3650 C   0  0  0  0  0  0  0  0  0  0  0  0
  -21.6772  -26.8352   21.0872 C   0  0  1  0  0  0  0  0  0  0  0  0
  -23.8930  -29.7188   19.9881 C   0  0  1  0  0  0  0  0  0  0  0  0
  -28.3324  -19.1572   18.9499 C   0  0  1  0  0  0  0  0  0  0  0  0
  -24.7360  -22.6801   21.5548 C   0  0  0  0  0  0  0  0  0  0  0  0
  -30.2824  -32.2576   16.4197 C   0  0  0  0  0  0  0  0  0  0  0  0
  -24.6893  -25.5476   26.2553 C   0  0  0  0  0  0  0  0  0  0  0  0
  -25.7788  -31.7127   27.8809 C   0  0  0  0  0  0  0  0  0  0  0  0
  -27.2429  -26.8201   18.6705 C   0  0  0  0  0  0  0  0  0  0  0  0
  -29.3107  -27.9021   17.7640 C   0  0  0  0  0  0  0  0  0  0  0  0
  -27.2303  -27.8440   16.3889 C   0  0  0  0  0  0  0  0  0  0  0  0
  -28.7923  -22.1286   20.9986 C   0  0  0  0  0  0  0  0  0  0  0  0
  -27.8346  -34.3439   18.4523 C   0  0  0  0  0  0  0  0  0  0  0  0
  -25.6554  -26.7606   24.2570 C   0  0  0  0  0  0  0  0  0  0  0  0
  -27.1184  -29.6647   27.2782 C   0  0  0  0  0  0  0  0  0  0  0  0
  -27.1781  -28.3791   26.4579 C   0  0  0  0  0  0  0  0  0  0  0  0
  -27.3507  -29.3844   18.3901 C   0  0  1  0  0  0  0  0  0  0  0  0
  -28.9612  -32.5669   17.1063 C   0  0  2  0  0  0  0  0  0  0  0  0
  -25.8428  -26.3957   25.7356 C   0  0  1  0  0  0  0  0  0  0  0  0
  -26.0587  -30.6678   26.8079 C   0  0  2  0  0  0  0  0  0  1  0  0
  -27.7714  -27.9975   17.8271 C   0  0  0  0  0  0  0  0  0  0  0  0
  -27.4053  -25.7532   22.9053 N   0  0  0  0  0  0  0  0  0  0  0  0
  -26.9886  -17.2754   19.8074 N   0  0  0  0  0  0  0  0  0  0  0  0
  -28.2124  -17.7824   19.5810 N   0  0  0  0  0  0  0  0  0  0  0  0
  -25.3422  -29.7682   19.7837 N   0  0  0  0  0  0  0  0  0  0  0  0
  -27.2890  -21.3992   18.7306 N   0  0  0  0  0  0  0  0  0  0  0  0
  -30.5230  -17.3132   19.8082 N   0  0  0  0  0  0  0  0  0  0  0  0
  -28.5396  -13.6226   21.4941 N   0  0  0  0  0  0  0  0  0  0  0  0
  -22.2131  -28.1025   20.6386 N   0  0  0  0  0  0  0  0  0  0  0  0
  -27.8144  -30.5172   17.5962 N   0  0  0  0  0  0  0  0  0  0  0  0
  -27.5230  -22.7842   20.6669 N   0  0  0  0  0  0  0  0  0  0  0  0
  -29.0715  -33.9026   17.7579 N   0  3  0  0  0  0  0  0  0  0  0  0
  -25.8976  -27.6395   26.5526 N   0  3  0  0  0  0  0  0  0  0  0  0
  -30.5597  -14.6194   21.0649 O   0  0  0  0  0  0  0  0  0  0  0  0
  -24.4695  -27.5272   20.6509 O   0  0  0  0  0  0  0  0  0  0  0  0
  -25.1602  -29.4443   17.4819 O   0  0  0  0  0  0  0  0  0  0  0  0
  -29.0078  -31.5478   19.2965 O   0  0  0  0  0  0  0  0  0  0  0  0
  -26.2743  -23.4761   18.8383 O   0  0  0  0  0  0  0  0  0  0  0  0
  -23.0566  -12.7153   21.8796 O   0  0  0  0  0  0  0  0  0  0  0  0
  -26.5276  -31.3282   25.6330 O   0  0  0  0  0  0  0  0  0  1  0  0
  -23.4429   -7.3832   20.5290 F   0  0  0  0  0  0  0  0  0  0  0  0
  -21.1542  -11.5185   20.2699 F   0  0  0  0  0  0  0  0  0  0  0  0
  1  2  1  0  0  0  0
  1  5  2  0  0  0  0
  2  6  2  0  0  0  0
  3  8  2  0  0  0  0
  3 17  1  0  0  0  0
  4  9  1  0  0  0  0
  4 17  2  0  0  0  0
  5 19  1  0  0  0  0
  6 21  1  0  0  0  0
  7 10  2  0  0  0  0
  7 20  1  0  0  0  0
  8 25  1  0  0  0  0
  9 25  2  0  0  0  0
 10 26  1  0  0  0  0
 11 12  2  0  0  0  0
 11 27  1  0  0  0  0
 12 28  1  0  0  0  0
 13 22  1  0  0  0  0
 13 26  2  0  0  0  0
 14 23  2  0  0  0  0
 14 31  1  0  0  0  0
 15 28  2  0  0  0  0
 15 29  1  0  0  0  0
 16 24  2  0  0  0  0
 16 67  1  0  0  0  0
 17 30  1  0  0  0  0
 18 30  1  0  0  0  0
 18 32  2  0  0  0  0
 18 33  1  0  0  0  0
 19 21  2  0  0  0  0
 19 38  1  0  0  0  0
 20 22  2  0  0  0  0
 20 39  1  0  0  0  0
 21 47  1  0  0  0  0
 22 40  1  0  0  0  0
 23 24  1  0  0  0  0
 23 50  1  0  0  0  0
 24 76  1  0  0  0  0
 25 84  1  0  0  0  0
 26 85  1  0  0  0  0
 27 29  2  0  0  0  0
 27 84  1  0  0  0  0
 28 86  1  0  0  0  0
 29 87  1  0  0  0  0
 30 68  2  0  0  0  0
 31 59  1  0  0  0  0
 31 67  2  0  0  0  0
 32 69  1  0  0  0  0
 32 72  1  0  0  0  0
 33 73  1  0  0  0  0
 33 79  2  0  0  0  0
 34 48  1  0  0  0  0
 34 74  1  0  0  0  0
 34 80  2  0  0  0  0
 35 62  1  0  0  0  0
 35 70  1  0  0  0  0
 35 81  2  0  0  0  0
 36 63  1  0  0  0  0
 36 75  1  0  0  0  0
 36 82  2  0  0  0  0
 37 71  1  0  0  0  0
 37 76  1  0  0  0  0
 37 83  2  0  0  0  0
 38 41  1  0  0  0  0
 39 48  1  0  0  0  0
 40 70  1  0  0  0  0
 41 43  1  0  0  0  0
 42 44  1  0  0  0  0
 42 45  1  0  0  0  0
 43 47  1  0  0  0  0
 44 49  1  0  0  0  0
 45 71  1  0  0  0  0
 46 49  1  0  0  0  0
 46 71  1  0  0  0  0
 47 74  1  0  0  0  0
 48 70  1  0  0  0  0
 49 69  1  0  0  0  0
 51 63  1  0  0  0  0
 52 64  1  0  0  0  0
 53 65  1  0  0  0  0
 54 66  1  0  0  0  0
 55 66  1  0  0  0  0
 56 66  1  0  0  0  0
 57 76  1  0  0  0  0
 58 77  1  0  0  0  0
 59 64  1  0  0  0  0
 60 61  1  0  0  0  0
 60 65  1  0  0  0  0
 61 78  1  0  0  0  0
 62 66  1  0  0  0  0
 62 75  1  0  0  0  0
 63 77  1  0  0  0  0
 64 78  1  0  0  0  0
 65 85  1  0  0  0  0
 68 69  1  0  0  0  0
M  CHG  2  77   1  78   1
M  ISO  4  37 100  65 101  76 100  85 101
M  END
> <Batch ID>
0114

> <Smiles>
CNC(C)C(=O)NC(C(=O)N1Cc2cc([101O:1][101CH:1](C)CCNC(C)Cc3cc(C)c([100N:0](C)[100C:0](=O)N4CCCC(n5nc(-c6ccc(Oc7ccc(F)cc7F)cc6)c(C(N)=O)c5N)C4)cn3)ccc2CC1C(=O)NC1CCCc2ccccc21)C(C)(C)C

> <Shape>
0.271

> <Color>
0.063

> <Negative vol penalty>
0.000

$$$$

  -OEChem-04052320083D

 87 96  0     1  0  0  0  0  0999 V2000
  -28.2970  -25.0026   23.3697 C   0  0  0  0  0  0  0  0  0  0  0  0
  -27.1670  -24.2612   23.0396 C   0  0  0  0  0  0  0  0  0  0  0  0
  -24.3081  -30.0294   20.6932 C   0  0  0  0  0  0  0  0  0  0  0  0
  -24.4801  -28.7277   22.7212 C   0  0  0  0  0  0  0  0  0  0  0  0
  -29.4739  -24.8395   22.6402 C   0  0  0  0  0  0  0  0  0  0  0  0
  -27.2130  -23.3571   21.9791 C   0  0  0  0  0  0  0  0  0  0  0  0
  -24.2817  -17.9945   21.5832 C   0  0  0  0  0  0  0  0  0  0  0  0
  -20.1336  -18.0061   15.0187 C   0  0  0  0  0  0  0  0  0  0  0  0
  -18.3238  -18.1007   16.6163 C   0  0  0  0  0  0  0  0  0  0  0  0
  -20.6872  -16.9282   15.7096 C   0  0  0  0  0  0  0  0  0  0  0  0
  -18.8773  -17.0228   17.3073 C   0  0  0  0  0  0  0  0  0  0  0  0
  -23.9781  -31.1571   21.4449 C   0  0  0  0  0  0  0  0  0  0  0  0
  -24.1502  -29.8554   23.4730 C   0  0  0  0  0  0  0  0  0  0  0  0
  -23.0981  -17.6170   20.9505 C   0  0  0  0  0  0  0  0  0  0  0  0
  -23.4437  -34.4647   22.8552 C   0  0  0  0  0  0  0  0  0  0  0  0
  -24.0731  -35.6667   22.5318 C   0  0  0  0  0  0  0  0  0  0  0  0
  -24.3665  -16.8575   19.0442 C   0  0  0  0  0  0  0  0  0  0  0  0
  -26.2227  -34.6657   22.9949 C   0  0  0  0  0  0  0  0  0  0  0  0
  -24.5591  -28.8147   21.3313 C   0  0  0  0  0  0  0  0  0  0  0  0
  -26.1877  -27.2275   20.1755 C   0  0  0  0  0  0  0  0  0  0  0  0
  -29.5371  -23.9259   21.5762 C   0  0  0  0  0  0  0  0  0  0  0  0
  -25.5179  -17.8161   20.9456 C   0  0  0  0  0  0  0  0  0  0  0  0
  -28.3914  -23.1826   21.2337 C   0  0  0  0  0  0  0  0  0  0  0  0
  -25.5645  -17.2313   19.6721 C   0  0  0  0  0  0  0  0  0  0  0  0
  -18.9519  -18.5924   15.4721 C   0  0  0  0  0  0  0  0  0  0  0  0
  -20.0590  -16.4366   16.8539 C   0  0  0  0  0  0  0  0  0  0  0  0
  -23.8992  -31.0701   22.8348 C   0  0  0  0  0  0  0  0  0  0  0  0
  -23.1401  -17.0511   19.6796 C   0  0  0  0  0  0  0  0  0  0  0  0
  -24.2037  -33.3632   23.2486 C   0  0  0  0  0  0  0  0  0  0  0  0
  -25.4626  -35.7672   22.6016 C   0  0  0  0  0  0  0  0  0  0  0  0
  -25.5932  -33.4637   23.3184 C   0  0  0  0  0  0  0  0  0  0  0  0
  -24.8994  -27.6494   20.5553 C   0  0  0  0  0  0  0  0  0  0  0  0
  -25.9740  -26.0770   19.4562 C   0  0  0  0  0  0  0  0  0  0  0  0
  -20.1219  -21.3658   14.1214 C   0  0  0  0  0  0  0  0  0  0  0  0
  -27.4633  -27.8222   20.4485 C   0  0  0  0  0  0  0  0  0  0  0  0
  -27.8373  -19.7564   19.9661 C   0  0  0  0  0  0  0  0  0  0  0  0
  -29.3637  -16.9685   19.3181 C   0  0  0  0  0  0  0  0  0  0  0  0
  -29.1369  -13.6354   18.6209 C   0  0  0  0  0  0  0  0  0  0  0  0
  -21.5691  -24.1011   16.2735 C   0  0  0  0  0  0  0  0  0  0  0  0
  -30.8176  -23.8186   20.7867 C   0  0  0  0  0  0  0  0  0  0  0  0
  -26.7875  -18.2040   21.6526 C   0  0  0  0  0  0  0  0  0  0  0  0
  -26.8675  -16.9997   18.9530 C   0  0  0  0  0  0  0  0  0  0  0  0
  -20.8233  -22.6813   14.4159 C   0  0  0  0  0  0  0  0  0  0  0  0
  -30.8933  -22.5671   19.9159 C   0  0  0  0  0  0  0  0  0  0  0  0
  -22.9269  -22.4196   19.0444 C   0  0  0  0  0  0  0  0  0  0  0  0
  -29.5900  -22.3718   19.1477 C   0  0  0  0  0  0  0  0  0  0  0  0
  -23.7202  -23.5380   19.7192 C   0  0  0  0  0  0  0  0  0  0  0  0
  -21.5808  -22.9127   18.5109 C   0  0  0  0  0  0  0  0  0  0  0  0
  -18.7876  -21.6767   16.2239 C   0  0  0  0  0  0  0  0  0  0  0  0
  -19.2498  -23.1172   16.2363 C   0  0  0  0  0  0  0  0  0  0  0  0
  -22.4760  -25.2078   18.2947 C   0  0  0  0  0  0  0  0  0  0  0  0
  -28.4092  -22.1739   20.1058 C   0  0  1  0  0  0  0  0  0  0  0  0
  -27.9520  -18.4491   20.6980 C   0  0  1  0  0  0  0  0  0  0  0  0
  -23.8590  -24.7555   18.7882 C   0  0  1  0  0  0  0  0  0  0  0  0
  -20.7011  -14.0069   16.7268 C   0  0  0  0  0  0  0  0  0  0  0  0
  -30.5542  -11.6304   18.1025 C   0  0  0  0  0  0  0  0  0  0  0  0
  -29.7906  -18.0068   16.4809 C   0  0  0  0  0  0  0  0  0  0  0  0
  -30.3296  -15.6646   15.7795 C   0  0  0  0  0  0  0  0  0  0  0  0
  -31.7600  -16.8204   17.4650 C   0  0  0  0  0  0  0  0  0  0  0  0
  -28.1805  -12.1938   21.0221 C   0  0  0  0  0  0  0  0  0  0  0  0
  -18.3554  -19.7526   14.7290 C   0  0  0  0  0  0  0  0  0  0  0  0
  -22.0597  -15.5833   18.1518 C   0  0  0  0  0  0  0  0  0  1  0  0
  -20.6506  -15.2829   17.5911 C   0  0  1  0  0  0  0  0  0  0  0  0
  -29.4455  -16.0466   18.1254 C   0  0  1  0  0  0  0  0  0  0  0  0
  -29.8665  -12.4343   19.1950 C   0  0  2  0  0  0  0  0  0  0  0  0
  -30.3066  -16.6406   16.9752 C   0  0  0  0  0  0  0  0  0  0  0  0
  -23.9385  -26.8335   20.1137 N   0  0  0  0  0  0  0  0  0  0  0  0
  -24.6234  -25.8874   19.4489 N   0  0  0  0  0  0  0  0  0  0  0  0
  -19.0865  -20.9890   14.9712 N   0  0  0  0  0  0  0  0  0  0  0  0
  -28.0811  -17.4015   19.6832 N   0  0  0  0  0  0  0  0  0  0  0  0
  -20.6229  -23.2007   15.7553 N   0  0  0  0  0  0  0  0  0  0  0  0
  -21.7585  -24.0984   17.6629 N   0  0  0  0  0  0  0  0  0  0  0  0
  -26.8116  -25.2193   18.8355 N   0  0  0  0  0  0  0  0  0  0  0  0
  -27.5023  -29.0032   21.2023 N   0  0  0  0  0  0  0  0  0  0  0  0
  -28.4056  -20.8256   20.6318 N   0  0  0  0  0  0  0  0  0  0  0  0
  -29.9265  -14.7657   18.6318 N   0  0  0  0  0  0  0  0  0  0  0  0
  -28.9106  -11.5391   19.9062 N   0  3  0  0  0  0  0  0  0  0  0  0
  -20.4317  -20.7471   13.0987 O   0  0  0  0  0  0  0  0  0  0  0  0
  -28.5357  -27.3302   20.0224 O   0  0  0  0  0  0  0  0  0  0  0  0
  -27.2761  -19.7920   18.8774 O   0  0  0  0  0  0  0  0  0  0  0  0
  -30.3989  -17.2868   19.9085 O   0  0  0  0  0  0  0  0  0  0  0  0
  -27.9834  -13.5759   18.2010 O   0  0  0  0  0  0  0  0  0  0  0  0
  -22.2053  -24.8640   15.5352 O   0  0  0  0  0  0  0  0  0  0  0  0
  -23.5774  -32.1703   23.5687 O   0  0  0  0  0  0  0  0  0  0  0  0
  -21.9787  -16.6799   19.0554 O   0  0  0  0  0  0  0  0  0  1  0  0
  -26.0670  -36.9211   22.2894 F   0  0  0  0  0  0  0  0  0  0  0  0
  -26.3288  -32.4085   23.6944 F   0  0  0  0  0  0  0  0  0  0  0  0
  1  2  1  0  0  0  0
  1  5  2  0  0  0  0
  2  6  2  0  0  0  0
  3 12  2  0  0  0  0
  3 19  1  0  0  0  0
  4 13  1  0  0  0  0
  4 19  2  0  0  0  0
  5 21  1  0  0  0  0
  6 23  1  0  0  0  0
  7 14  2  0  0  0  0
  7 22  1  0  0  0  0
  8 10  2  0  0  0  0
  8 25  1  0  0  0  0
  9 11  1  0  0  0  0
  9 25  2  0  0  0  0
 10 26  1  0  0  0  0
 11 26  2  0  0  0  0
 12 27  1  0  0  0  0
 13 27  2  0  0  0  0
 14 28  1  0  0  0  0
 15 16  2  0  0  0  0
 15 29  1  0  0  0  0
 16 30  1  0  0  0  0
 17 24  1  0  0  0  0
 17 28  2  0  0  0  0
 18 30  2  0  0  0  0
 18 31  1  0  0  0  0
 19 32  1  0  0  0  0
 20 32  1  0  0  0  0
 20 33  2  0  0  0  0
 20 35  1  0  0  0  0
 21 23  2  0  0  0  0
 21 40  1  0  0  0  0
 22 24  2  0  0  0  0
 22 41  1  0  0  0  0
 23 52  1  0  0  0  0
 24 42  1  0  0  0  0
 25 61  1  0  0  0  0
 26 63  1  0  0  0  0
 27 84  1  0  0  0  0
 28 85  1  0  0  0  0
 29 31  2  0  0  0  0
 29 84  1  0  0  0  0
 30 86  1  0  0  0  0
 31 87  1  0  0  0  0
 32 67  2  0  0  0  0
 33 68  1  0  0  0  0
 33 73  1  0  0  0  0
 34 43  1  0  0  0  0
 34 69  1  0  0  0  0
 34 78  2  0  0  0  0
 35 74  1  0  0  0  0
 35 79  2  0  0  0  0
 36 53  1  0  0  0  0
 36 75  1  0  0  0  0
 36 80  2  0  0  0  0
 37 64  1  0  0  0  0
 37 70  1  0  0  0  0
 37 81  2  0  0  0  0
 38 65  1  0  0  0  0
 38 76  1  0  0  0  0
 38 82  2  0  0  0  0
 39 71  1  0  0  0  0
 39 72  1  0  0  0  0
 39 83  2  0  0  0  0
 40 44  1  0  0  0  0
 41 53  1  0  0  0  0
 42 70  1  0  0  0  0
 43 71  1  0  0  0  0
 44 46  1  0  0  0  0
 45 47  1  0  0  0  0
 45 48  1  0  0  0  0
 46 52  1  0  0  0  0
 47 54  1  0  0  0  0
 48 72  1  0  0  0  0
 49 50  1  0  0  0  0
 49 69  1  0  0  0  0
 50 71  1  0  0  0  0
 51 54  1  0  0  0  0
 51 72  1  0  0  0  0
 52 75  1  0  0  0  0
 53 70  1  0  0  0  0
 54 68  1  0  0  0  0
 55 63  1  0  0  0  0
 56 65  1  0  0  0  0
 57 66  1  0  0  0  0
 58 66  1  0  0  0  0
 59 66  1  0  0  0  0
 60 77  1  0  0  0  0
 61 69  1  0  0  0  0
 62 63  1  0  0  0  0
 62 85  1  0  0  0  0
 64 66  1  0  0  0  0
 64 76  1  0  0  0  0
 65 77  1  0  0  0  0
 67 68  1  0  0  0  0
M  CHG  1  77   1
M  ISO  4  39 100  62 101  71 100  85 101
M  END
> <Batch ID>
0114

> <Smiles>
CNC(C)C(=O)NC(C(=O)N1Cc2cc([101O:1][101CH2:1]C(C)c3ccc(CN4CC[100N:0]([100C:0](=O)N5CCCC(n6nc(-c7ccc(Oc8ccc(F)cc8F)cc7)c(C(N)=O)c6N)C5)CC4=O)cc3)ccc2CC1C(=O)NC1CCCc2ccccc21)C(C)(C)C

> <Shape>
0.202

> <Color>
0.052

> <Negative vol penalty>
0.000

$$$$

  -OEChem-04052320083D

 85 94  0     1  0  0  0  0  0999 V2000
  -26.4075  -37.1243   24.7938 C   0  0  0  0  0  0  0  0  0  0  0  0
  -27.2108  -36.1678   24.1813 C   0  0  0  0  0  0  0  0  0  0  0  0
  -23.9710   -8.9835   19.5861 C   0  0  0  0  0  0  0  0  0  0  0  0
  -24.2085   -9.5409   21.9249 C   0  0  0  0  0  0  0  0  0  0  0  0
  -25.1811  -36.7542   25.3441 C   0  0  0  0  0  0  0  0  0  0  0  0
  -26.7886  -34.8403   24.1197 C   0  0  0  0  0  0  0  0  0  0  0  0
  -27.1684  -29.0503   19.9187 C   0  0  0  0  0  0  0  0  0  0  0  0
  -22.9149   -8.1271   19.8975 C   0  0  0  0  0  0  0  0  0  0  0  0
  -23.1524   -8.6845   22.2363 C   0  0  0  0  0  0  0  0  0  0  0  0
  -27.5116  -27.7002   19.9740 C   0  0  0  0  0  0  0  0  0  0  0  0
  -22.6698   -5.3598   22.6158 C   0  0  0  0  0  0  0  0  0  0  0  0
  -22.8298   -4.5029   23.7047 C   0  0  0  0  0  0  0  0  0  0  0  0
  -25.3382  -27.1912   20.8885 C   0  0  0  0  0  0  0  0  0  0  0  0
  -26.6203  -22.4766   19.8362 C   0  0  0  0  0  0  0  0  0  0  0  0
  -20.9157   -5.5119   24.7797 C   0  0  0  0  0  0  0  0  0  0  0  0
  -24.6178   -9.6903   20.5998 C   0  0  0  0  0  0  0  0  0  0  0  0
  -26.9255  -10.2333   19.6578 C   0  0  0  0  0  0  0  0  0  0  0  0
  -24.7393  -35.4232   25.2807 C   0  0  0  0  0  0  0  0  0  0  0  0
  -25.9093  -29.4832   20.3589 C   0  0  0  0  0  0  0  0  0  0  0  0
  -25.5558  -34.4517   24.6709 C   0  0  0  0  0  0  0  0  0  0  0  0
  -24.9805  -28.5471   20.8354 C   0  0  0  0  0  0  0  0  0  0  0  0
  -27.1396  -21.2002   19.9117 C   0  0  0  0  0  0  0  0  0  0  0  0
  -27.5324  -20.6611   21.1365 C   0  0  0  0  0  0  0  0  0  0  0  0
  -22.5056   -7.9776   21.2225 C   0  0  0  0  0  0  0  0  0  0  0  0
  -26.5976  -26.7708   20.4616 C   0  0  0  0  0  0  0  0  0  0  0  0
  -21.6329   -6.2928   22.6088 C   0  0  0  0  0  0  0  0  0  0  0  0
  -21.9527   -4.5789   24.7867 C   0  0  0  0  0  0  0  0  0  0  0  0
  -20.7559   -6.3688   23.6908 C   0  0  0  0  0  0  0  0  0  0  0  0
  -25.7092  -10.5747   20.2789 C   0  0  0  0  0  0  0  0  0  0  0  0
  -26.5078  -23.1640   21.0361 C   0  0  0  0  0  0  0  0  0  0  0  0
  -27.3953  -21.4217   22.2737 C   0  0  0  0  0  0  0  0  0  0  0  0
  -27.6153  -11.4184   19.5791 C   0  0  0  0  0  0  0  0  0  0  0  0
  -27.3902   -8.9590   19.1934 C   0  0  0  0  0  0  0  0  0  0  0  0
  -24.8823  -31.4327   22.6498 C   0  0  0  0  0  0  0  0  0  0  0  0
  -21.9947  -30.8971   21.2724 C   0  0  0  0  0  0  0  0  0  0  0  0
  -20.0262  -28.8612   19.3679 C   0  0  0  0  0  0  0  0  0  0  0  0
  -27.9633  -16.6758   18.4838 C   0  0  0  0  0  0  0  0  0  0  0  0
  -23.4276  -35.0620   25.9315 C   0  0  0  0  0  0  0  0  0  0  0  0
  -25.5447  -30.9396   20.2678 C   0  0  0  0  0  0  0  0  0  0  0  0
  -27.4149  -20.2411   18.7955 C   0  0  0  0  0  0  0  0  0  0  0  0
  -28.1086  -19.2940   20.9721 C   0  0  0  0  0  0  0  0  0  0  0  0
  -23.6084  -28.9578   21.3012 C   0  0  0  0  0  0  0  0  0  0  0  0
  -22.8836  -33.7047   25.4933 C   0  0  0  0  0  0  0  0  0  0  0  0
  -26.7166  -15.9120   21.6985 C   0  0  0  0  0  0  0  0  0  0  0  0
  -23.9858  -32.6508   25.5299 C   0  0  0  0  0  0  0  0  0  0  0  0
  -26.4307  -14.4169   21.5648 C   0  0  0  0  0  0  0  0  0  0  0  0
  -26.3384  -16.6847   20.4335 C   0  0  0  0  0  0  0  0  0  0  0  0
  -26.6634  -14.6495   19.0641 C   0  0  0  0  0  0  0  0  0  0  0  0
  -25.1212  -33.0062   24.5624 C   0  0  1  0  0  0  0  0  0  0  0  0
  -24.4226  -31.3355   21.2226 C   0  0  1  0  0  0  0  0  0  0  0  0
  -27.0902  -13.8417   20.2994 C   0  0  2  0  0  0  0  0  0  0  0  0
  -27.5664  -18.9226   19.5790 C   0  0  2  0  0  0  0  0  0  0  0  0
  -27.8213  -20.8959   23.6013 C   0  0  0  0  0  0  0  0  0  0  0  0
  -17.7002  -28.6711   18.4454 C   0  0  0  0  0  0  0  0  0  0  0  0
  -30.8214  -17.5541   18.7907 C   0  0  0  0  0  0  0  0  0  0  0  0
  -29.5975  -18.5955   16.8565 C   0  0  0  0  0  0  0  0  0  0  0  0
  -20.9703  -30.0845   24.0292 C   0  0  0  0  0  0  0  0  0  0  0  0
  -18.9980  -29.0261   22.9076 C   0  0  0  0  0  0  0  0  0  0  0  0
  -19.3814  -31.4819   22.6961 C   0  0  0  0  0  0  0  0  0  0  0  0
  -21.0073  -28.8801   16.5758 C   0  0  0  0  0  0  0  0  0  0  0  0
  -25.9454  -24.5550   21.0280 C   0  0  0  0  0  0  0  0  0  1  0  0
  -20.8945  -29.8799   21.4566 C   0  0  1  0  0  0  0  0  0  0  0  0
  -19.1186  -29.1549   18.1870 C   0  0  2  0  0  0  0  0  0  0  0  0
  -29.6663  -18.4550   18.3716 C   0  0  0  0  0  0  0  0  0  0  0  0
  -20.0875  -30.1103   22.7655 C   0  0  0  0  0  0  0  0  0  0  0  0
  -25.6280  -11.8748   20.5740 N   0  0  0  0  0  0  0  0  0  0  0  0
  -26.8796  -22.6723   22.2492 N   0  0  0  0  0  0  0  0  0  0  0  0
  -26.8020  -12.3608   20.1365 N   0  0  0  0  0  0  0  0  0  0  0  0
  -23.3013  -30.3940   21.1983 N   0  0  0  0  0  0  0  0  0  0  0  0
  -26.9499  -16.0748   19.2448 N   0  0  0  0  0  0  0  0  0  0  0  0
  -28.8321  -11.7359   19.0882 N   0  0  0  0  0  0  0  0  0  0  0  0
  -28.1088   -8.1460   20.0805 N   0  0  0  0  0  0  0  0  0  0  0  0
  -24.7425  -32.6919   23.2014 N   0  0  0  0  0  0  0  0  0  0  0  0
  -20.0882  -29.9261   20.2416 N   0  0  0  0  0  0  0  0  0  0  0  0
  -28.4054  -17.9438   18.8903 N   0  0  0  0  0  0  0  0  0  0  0  0
  -19.6294  -28.4797   16.9606 N   0  3  0  0  0  0  0  0  0  0  0  0
  -27.1887   -8.5601   18.0212 O   0  0  0  0  0  0  0  0  0  0  0  0
  -25.3292  -30.4384   23.2097 O   0  0  0  0  0  0  0  0  0  0  0  0
  -21.7048  -32.0932   21.1898 O   0  0  0  0  0  0  0  0  0  0  0  0
  -20.6177  -27.7925   19.5037 O   0  0  0  0  0  0  0  0  0  0  0  0
  -28.4425  -16.1147   17.4900 O   0  0  0  0  0  0  0  0  0  0  0  0
  -21.4750   -7.1422   21.5267 O   0  0  0  0  0  0  0  0  0  0  0  0
  -26.9303  -25.4524   20.5172 O   0  0  0  0  0  0  0  0  0  1  0  0
  -22.1055   -3.7549   25.8316 F   0  0  0  0  0  0  0  0  0  0  0  0
  -19.7571   -7.2622   23.6893 F   0  0  0  0  0  0  0  0  0  0  0  0
  1  2  1  0  0  0  0
  1  5  2  0  0  0  0
  2  6  2  0  0  0  0
  3  8  2  0  0  0  0
  3 16  1  0  0  0  0
  4  9  1  0  0  0  0
  4 16  2  0  0  0  0
  5 18  1  0  0  0  0
  6 20  1  0  0  0  0
  7 10  2  0  0  0  0
  7 19  1  0  0  0  0
  8 24  1  0  0  0  0
  9 24  2  0  0  0  0
 10 25  1  0  0  0  0
 11 12  2  0  0  0  0
 11 26  1  0  0  0  0
 12 27  1  0  0  0  0
 13 21  1  0  0  0  0
 13 25  2  0  0  0  0
 14 22  2  0  0  0  0
 14 30  1  0  0  0  0
 15 27  2  0  0  0  0
 15 28  1  0  0  0  0
 16 29  1  0  0  0  0
 17 29  1  0  0  0  0
 17 32  2  0  0  0  0
 17 33  1  0  0  0  0
 18 20  2  0  0  0  0
 18 38  1  0  0  0  0
 19 21  2  0  0  0  0
 19 39  1  0  0  0  0
 20 49  1  0  0  0  0
 21 42  1  0  0  0  0
 22 23  1  0  0  0  0
 22 40  1  0  0  0  0
 23 31  2  0  0  0  0
 23 41  1  0  0  0  0
 24 82  1  0  0  0  0
 25 83  1  0  0  0  0
 26 28  2  0  0  0  0
 26 82  1  0  0  0  0
 27 84  1  0  0  0  0
 28 85  1  0  0  0  0
 29 66  2  0  0  0  0
 30 61  1  0  0  0  0
 30 67  2  0  0  0  0
 31 53  1  0  0  0  0
 31 67  1  0  0  0  0
 32 68  1  0  0  0  0
 32 71  1  0  0  0  0
 33 72  1  0  0  0  0
 33 77  2  0  0  0  0
 34 50  1  0  0  0  0
 34 73  1  0  0  0  0
 34 78  2  0  0  0  0
 35 62  1  0  0  0  0
 35 69  1  0  0  0  0
 35 79  2  0  0  0  0
 36 63  1  0  0  0  0
 36 74  1  0  0  0  0
 36 80  2  0  0  0  0
 37 70  1  0  0  0  0
 37 75  1  0  0  0  0
 37 81  2  0  0  0  0
 38 43  1  0  0  0  0
 39 50  1  0  0  0  0
 40 52  1  0  0  0  0
 41 52  1  0  0  0  0
 42 69  1  0  0  0  0
 43 45  1  0  0  0  0
 44 46  1  0  0  0  0
 44 47  1  0  0  0  0
 45 49  1  0  0  0  0
 46 51  1  0  0  0  0
 47 70  1  0  0  0  0
 48 51  1  0  0  0  0
 48 70  1  0  0  0  0
 49 73  1  0  0  0  0
 50 69  1  0  0  0  0
 51 68  1  0  0  0  0
 52 75  1  0  0  0  0
 54 63  1  0  0  0  0
 55 64  1  0  0  0  0
 56 64  1  0  0  0  0
 57 65  1  0  0  0  0
 58 65  1  0  0  0  0
 59 65  1  0  0  0  0
 60 76  1  0  0  0  0
 61 83  1  0  0  0  0
 62 65  1  0  0  0  0
 62 74  1  0  0  0  0
 63 76  1  0  0  0  0
 64 75  1  0  0  0  0
 66 68  1  0  0  0  0
M  CHG  1  76   1
M  ISO  4  37 100  61 101  75 100  83 101
M  END
> <Batch ID>
0114

> <Smiles>
CNC(C)C(=O)NC(C(=O)N1Cc2cc([101O:1][101CH2:1]c3cc4c(c(C)n3)CC([100N:0](C(C)C)[100C:0](=O)N3CCCC(n5nc(-c6ccc(Oc7ccc(F)cc7F)cc6)c(C(N)=O)c5N)C3)C4)ccc2CC1C(=O)NC1CCCc2ccccc21)C(C)(C)C

> <Shape>
0.302

> <Color>
0.104

> <Negative vol penalty>
0.000

$$$$

  -OEChem-04052320083D

 82 90  0     1  0  0  0  0  0999 V2000
  -16.2707  -29.4059   23.1227 C   0  0  0  0  0  0  0  0  0  0  0  0
  -17.1229  -29.0755   22.0739 C   0  0  0  0  0  0  0  0  0  0  0  0
  -25.2472  -13.6792   22.1771 C   0  0  0  0  0  0  0  0  0  0  0  0
  -24.9646  -14.5182   19.9291 C   0  0  0  0  0  0  0  0  0  0  0  0
  -16.7549  -30.1305   24.2110 C   0  0  0  0  0  0  0  0  0  0  0  0
  -18.4597  -29.4704   22.1124 C   0  0  0  0  0  0  0  0  0  0  0  0
  -23.2749  -26.3829   19.9244 C   0  0  0  0  0  0  0  0  0  0  0  0
  -28.4172  -24.0319   18.5467 C   0  0  0  0  0  0  0  0  0  0  0  0
  -24.3476  -12.6484   21.9055 C   0  0  0  0  0  0  0  0  0  0  0  0
  -24.0651  -13.4873   19.6574 C   0  0  0  0  0  0  0  0  0  0  0  0
  -23.9947  -26.4878   18.7350 C   0  0  0  0  0  0  0  0  0  0  0  0
  -24.3823   -9.6687   20.3076 C   0  0  0  0  0  0  0  0  0  0  0  0
  -24.7269   -8.3819   20.7210 C   0  0  0  0  0  0  0  0  0  0  0  0
  -27.8289  -25.0774   17.8437 C   0  0  0  0  0  0  0  0  0  0  0  0
  -25.6220  -27.8767   19.8495 C   0  0  0  0  0  0  0  0  0  0  0  0
  -22.7474   -8.2958   22.1034 C   0  0  0  0  0  0  0  0  0  0  0  0
  -29.0900  -25.5960   20.2073 C   0  0  0  0  0  0  0  0  0  0  0  0
  -25.5556  -14.6142   21.1889 C   0  0  0  0  0  0  0  0  0  0  0  0
  -27.8801  -15.6607   21.2865 C   0  0  0  0  0  0  0  0  0  0  0  0
  -18.1006  -30.5261   24.2673 C   0  0  0  0  0  0  0  0  0  0  0  0
  -23.7182  -27.0341   21.0845 C   0  0  0  0  0  0  0  0  0  0  0  0
  -18.9621  -30.2021   23.2018 C   0  0  0  0  0  0  0  0  0  0  0  0
  -24.9074  -27.7764   21.0530 C   0  0  0  0  0  0  0  0  0  0  0  0
  -29.0617  -24.2878   19.7519 C   0  0  0  0  0  0  0  0  0  0  0  0
  -23.7566  -12.5524   20.6456 C   0  0  0  0  0  0  0  0  0  0  0  0
  -25.1669  -27.2372   18.6967 C   0  0  0  0  0  0  0  0  0  0  0  0
  -23.2202  -10.2692   20.7921 C   0  0  0  0  0  0  0  0  0  0  0  0
  -23.9095   -7.6954   21.6189 C   0  0  0  0  0  0  0  0  0  0  0  0
  -22.4028   -9.5827   21.6900 C   0  0  0  0  0  0  0  0  0  0  0  0
  -26.4843  -15.6796   21.4691 C   0  0  0  0  0  0  0  0  0  0  0  0
  -27.9122  -26.3503   18.3846 C   0  0  0  0  0  0  0  0  0  0  0  0
  -28.2969  -16.9033   21.6969 C   0  0  0  0  0  0  0  0  0  0  0  0
  -28.7242  -14.6135   20.7900 C   0  0  0  0  0  0  0  0  0  0  0  0
  -22.5385  -29.3020   22.9736 C   0  0  0  0  0  0  0  0  0  0  0  0
  -25.1434  -28.6096   24.7783 C   0  0  0  0  0  0  0  0  0  0  0  0
  -28.3112  -27.3489   24.9298 C   0  0  0  0  0  0  0  0  0  0  0  0
  -27.6989  -22.4512   21.7936 C   0  0  0  0  0  0  0  0  0  0  0  0
  -18.5669  -31.3488   25.4423 C   0  0  0  0  0  0  0  0  0  0  0  0
  -22.9446  -26.8891   22.3662 C   0  0  0  0  0  0  0  0  0  0  0  0
  -25.4369  -28.4781   22.2759 C   0  0  0  0  0  0  0  0  0  0  0  0
  -20.0860  -31.4058   25.5815 C   0  0  0  0  0  0  0  0  0  0  0  0
  -25.8153  -20.5635   24.1527 C   0  0  0  0  0  0  0  0  0  0  0  0
  -20.7350  -31.6988   24.2325 C   0  0  0  0  0  0  0  0  0  0  0  0
  -25.9315  -19.1248   23.6463 C   0  0  0  0  0  0  0  0  0  0  0  0
  -25.7269  -21.5619   23.0006 C   0  0  0  0  0  0  0  0  0  0  0  0
  -26.9274  -20.0191   21.4999 C   0  0  0  0  0  0  0  0  0  0  0  0
  -20.4244  -30.5911   23.2186 C   0  0  1  0  0  0  0  0  0  0  0  0
  -23.2146  -28.0164   23.3580 C   0  0  1  0  0  0  0  0  0  0  0  0
  -27.0757  -18.9805   22.6249 C   0  0  2  0  0  0  0  0  0  0  0  0
  -27.8616  -27.6843   16.2489 C   0  0  0  0  0  0  0  0  0  0  0  0
  -30.4613  -26.5727   25.9650 C   0  0  0  0  0  0  0  0  0  0  0  0
  -30.3897  -23.6135   21.8615 C   0  0  0  0  0  0  0  0  0  0  0  0
  -30.7981  -22.4850   19.6783 C   0  0  0  0  0  0  0  0  0  0  0  0
  -25.8311  -31.5813   24.7019 C   0  0  0  0  0  0  0  0  0  0  0  0
  -28.1414  -30.9951   25.4682 C   0  0  0  0  0  0  0  0  0  0  0  0
  -26.1801  -30.4866   26.9232 C   0  0  0  0  0  0  0  0  0  0  0  0
  -27.2640  -24.6101   25.3314 C   0  0  0  0  0  0  0  0  0  0  0  0
  -27.2837  -27.5109   17.6478 C   0  0  1  0  0  0  0  0  0  1  0  0
  -26.5664  -29.1101   24.8380 C   0  0  1  0  0  0  0  0  0  0  0  0
  -28.9576  -26.3609   25.8839 C   0  0  2  0  0  0  0  0  0  0  0  0
  -29.7009  -23.1912   20.5273 C   0  0  0  0  0  0  0  0  0  0  0  0
  -26.6690  -30.5318   25.4591 C   0  0  0  0  0  0  0  0  0  0  0  0
  -28.5299  -26.6376   19.5523 N   0  0  0  0  0  0  0  0  0  0  0  0
  -26.0440  -16.8420   21.9578 N   0  0  0  0  0  0  0  0  0  0  0  0
  -27.1695  -17.5651   22.0857 N   0  0  0  0  0  0  0  0  0  0  0  0
  -24.6415  -28.3114   23.5036 N   0  0  0  0  0  0  0  0  0  0  0  0
  -26.8416  -21.3731   22.0691 N   0  0  0  0  0  0  0  0  0  0  0  0
  -29.5142  -17.4835   21.7597 N   0  0  0  0  0  0  0  0  0  0  0  0
  -28.1323  -13.4005   20.4125 N   0  0  0  0  0  0  0  0  0  0  0  0
  -21.2542  -29.4316   23.4669 N   0  0  0  0  0  0  0  0  0  0  0  0
  -27.3283  -28.0903   25.5507 N   0  0  0  0  0  0  0  0  0  0  0  0
  -28.7334  -22.1851   20.9049 N   0  0  0  0  0  0  0  0  0  0  0  0
  -28.7034  -24.9633   25.4331 N   0  3  0  0  0  0  0  0  0  0  0  0
  -29.9686  -14.7437   20.6998 O   0  0  0  0  0  0  0  0  0  0  0  0
  -23.1381  -30.1168   22.2820 O   0  0  0  0  0  0  0  0  0  0  0  0
  -24.5032  -28.4809   25.8249 O   0  0  0  0  0  0  0  0  0  0  0  0
  -28.6473  -27.4551   23.7524 O   0  0  0  0  0  0  0  0  0  0  0  0
  -27.5563  -23.5665   22.3060 O   0  0  0  0  0  0  0  0  0  0  0  0
  -22.8790  -11.5465   20.3801 O   0  0  0  0  0  0  0  0  0  0  0  0
  -25.8711  -27.3418   17.5369 O   0  0  0  0  0  0  0  0  0  1  0  0
  -24.2398   -6.4591   22.0146 F   0  0  0  0  0  0  0  0  0  0  0  0
  -21.2845  -10.1539   22.1581 F   0  0  0  0  0  0  0  0  0  0  0  0
  1  2  1  0  0  0  0
  1  5  2  0  0  0  0
  2  6  2  0  0  0  0
  3  9  2  0  0  0  0
  3 18  1  0  0  0  0
  4 10  1  0  0  0  0
  4 18  2  0  0  0  0
  5 20  1  0  0  0  0
  6 22  1  0  0  0  0
  7 11  2  0  0  0  0
  7 21  1  0  0  0  0
  8 14  2  0  0  0  0
  8 24  1  0  0  0  0
  9 25  1  0  0  0  0
 10 25  2  0  0  0  0
 11 26  1  0  0  0  0
 12 13  2  0  0  0  0
 12 27  1  0  0  0  0
 13 28  1  0  0  0  0
 14 31  1  0  0  0  0
 15 23  1  0  0  0  0
 15 26  2  0  0  0  0
 16 28  2  0  0  0  0
 16 29  1  0  0  0  0
 17 24  2  0  0  0  0
 17 63  1  0  0  0  0
 18 30  1  0  0  0  0
 19 30  1  0  0  0  0
 19 32  2  0  0  0  0
 19 33  1  0  0  0  0
 20 22  2  0  0  0  0
 20 38  1  0  0  0  0
 21 23  2  0  0  0  0
 21 39  1  0  0  0  0
 22 47  1  0  0  0  0
 23 40  1  0  0  0  0
 24 61  1  0  0  0  0
 25 79  1  0  0  0  0
 26 80  1  0  0  0  0
 27 29  2  0  0  0  0
 27 79  1  0  0  0  0
 28 81  1  0  0  0  0
 29 82  1  0  0  0  0
 30 64  2  0  0  0  0
 31 58  1  0  0  0  0
 31 63  2  0  0  0  0
 32 65  1  0  0  0  0
 32 68  1  0  0  0  0
 33 69  1  0  0  0  0
 33 74  2  0  0  0  0
 34 48  1  0  0  0  0
 34 70  1  0  0  0  0
 34 75  2  0  0  0  0
 35 59  1  0  0  0  0
 35 66  1  0  0  0  0
 35 76  2  0  0  0  0
 36 60  1  0  0  0  0
 36 71  1  0  0  0  0
 36 77  2  0  0  0  0
 37 67  1  0  0  0  0
 37 72  1  0  0  0  0
 37 78  2  0  0  0  0
 38 41  1  0  0  0  0
 39 48  1  0  0  0  0
 40 66  1  0  0  0  0
 41 43  1  0  0  0  0
 42 44  1  0  0  0  0
 42 45  1  0  0  0  0
 43 47  1  0  0  0  0
 44 49  1  0  0  0  0
 45 67  1  0  0  0  0
 46 49  1  0  0  0  0
 46 67  1  0  0  0  0
 47 70  1  0  0  0  0
 48 66  1  0  0  0  0
 49 65  1  0  0  0  0
 50 58  1  0  0  0  0
 51 60  1  0  0  0  0
 52 61  1  0  0  0  0
 53 61  1  0  0  0  0
 54 62  1  0  0  0  0
 55 62  1  0  0  0  0
 56 62  1  0  0  0  0
 57 73  1  0  0  0  0
 58 80  1  0  0  0  0
 59 62  1  0  0  0  0
 59 71  1  0  0  0  0
 60 73  1  0  0  0  0
 61 72  1  0  0  0  0
 64 65  1  0  0  0  0
M  CHG  1  73   1
M  ISO  4  37 100  58 101  72 100  80 101
M  END
> <Batch ID>
0114

> <Smiles>
CNC(C)C(=O)NC(C(=O)N1Cc2cc([101O:1][101CH:1](C)c3ccc(C(C)(C)[100NH:0][100C:0](=O)N4CCCC(n5nc(-c6ccc(Oc7ccc(F)cc7F)cc6)c(C(N)=O)c5N)C4)cn3)ccc2CC1C(=O)NC1CCCc2ccccc21)C(C)(C)C

> <Shape>
0.254

> <Color>
0.072

> <Negative vol penalty>
0.000

$$$$

  -OEChem-04052320083D

 76 84  0     1  0  0  0  0  0999 V2000
  -19.6710  -24.7185   27.1388 C   0  0  0  0  0  0  0  0  0  0  0  0
  -20.7568  -24.1291   26.4993 C   0  0  0  0  0  0  0  0  0  0  0  0
  -23.2868   -9.7984   19.9109 C   0  0  0  0  0  0  0  0  0  0  0  0
  -23.7322   -9.9383   22.2814 C   0  0  0  0  0  0  0  0  0  0  0  0
  -19.3061  -24.3010   28.4180 C   0  0  0  0  0  0  0  0  0  0  0  0
  -21.4791  -23.1225   27.1392 C   0  0  0  0  0  0  0  0  0  0  0  0
  -24.1317  -18.2625   24.5220 C   0  0  0  0  0  0  0  0  0  0  0  0
  -22.5580   -8.6272   20.1170 C   0  0  0  0  0  0  0  0  0  0  0  0
  -23.0033   -8.7670   22.4875 C   0  0  0  0  0  0  0  0  0  0  0  0
  -25.4461  -18.0071   24.1336 C   0  0  0  0  0  0  0  0  0  0  0  0
  -20.9566   -6.0104   23.6834 C   0  0  0  0  0  0  0  0  0  0  0  0
  -20.0524   -5.9867   24.7453 C   0  0  0  0  0  0  0  0  0  0  0  0
  -25.8354  -16.8661   26.2231 C   0  0  0  0  0  0  0  0  0  0  0  0
  -18.8484   -7.8359   23.7613 C   0  0  0  0  0  0  0  0  0  0  0  0
  -23.8740  -10.4540   20.9932 C   0  0  0  0  0  0  0  0  0  0  0  0
  -24.1383  -12.9835   20.7951 C   0  0  0  0  0  0  0  0  0  0  0  0
  -20.0183  -23.2820   29.0700 C   0  0  0  0  0  0  0  0  0  0  0  0
  -23.6617  -17.8304   25.7705 C   0  0  0  0  0  0  0  0  0  0  0  0
  -21.1242  -22.6919   28.4289 C   0  0  0  0  0  0  0  0  0  0  0  0
  -24.5139  -17.1151   26.6239 C   0  0  0  0  0  0  0  0  0  0  0  0
  -22.4162   -8.1115   21.4052 C   0  0  0  0  0  0  0  0  0  0  0  0
  -26.2991  -17.3113   24.9854 C   0  0  0  0  0  0  0  0  0  0  0  0
  -20.8067   -6.9469   22.6606 C   0  0  0  0  0  0  0  0  0  0  0  0
  -18.9983   -6.8994   24.7842 C   0  0  0  0  0  0  0  0  0  0  0  0
  -19.7526   -7.8596   22.6995 C   0  0  0  0  0  0  0  0  0  0  0  0
  -24.6276  -11.6636   20.7809 C   0  0  0  0  0  0  0  0  0  0  0  0
  -25.2417  -13.7615   20.5428 C   0  0  0  0  0  0  0  0  0  0  0  0
  -22.8055  -13.4634   21.0168 C   0  0  0  0  0  0  0  0  0  0  0  0
  -22.5357  -19.2777   28.3669 C   0  0  0  0  0  0  0  0  0  0  0  0
  -21.9711  -16.2359   29.3423 C   0  0  0  0  0  0  0  0  0  0  0  0
  -22.7521  -12.9228   29.0975 C   0  0  0  0  0  0  0  0  0  0  0  0
  -31.1046  -12.8132   21.4004 C   0  0  0  0  0  0  0  0  0  0  0  0
  -19.6154  -22.8971   30.4715 C   0  0  0  0  0  0  0  0  0  0  0  0
  -22.2333  -18.0906   26.1635 C   0  0  0  0  0  0  0  0  0  0  0  0
  -24.0522  -16.6119   27.9663 C   0  0  0  0  0  0  0  0  0  0  0  0
  -20.2025  -21.5645   30.9297 C   0  0  0  0  0  0  0  0  0  0  0  0
  -29.4714  -13.6711   18.3198 C   0  0  0  0  0  0  0  0  0  0  0  0
  -21.6887  -21.4923   30.5941 C   0  0  0  0  0  0  0  0  0  0  0  0
  -28.0029  -13.3472   18.5946 C   0  0  0  0  0  0  0  0  0  0  0  0
  -30.4024  -12.6839   19.0173 C   0  0  0  0  0  0  0  0  0  0  0  0
  -28.7025  -12.2445   20.7657 C   0  0  0  0  0  0  0  0  0  0  0  0
  -31.5180  -12.2633   23.7858 C   0  0  0  0  0  0  0  0  0  0  0  0
  -21.9173  -21.5797   29.0803 C   0  0  1  0  0  0  0  0  0  0  0  0
  -22.0123  -18.0524   27.6725 C   0  0  1  0  0  0  0  0  0  0  0  0
  -27.7325  -13.2400   20.1062 C   0  0  2  0  0  0  0  0  0  0  0  0
  -31.0017  -13.6499   23.7288 C   0  0  2  0  0  0  0  0  0  0  0  0
  -22.1465  -10.6807   30.0480 C   0  0  0  0  0  0  0  0  0  0  0  0
  -23.5319  -16.8931   31.8804 C   0  0  0  0  0  0  0  0  0  0  0  0
  -23.7103  -14.4354   32.3236 C   0  0  0  0  0  0  0  0  0  0  0  0
  -21.4690  -15.5279   32.2483 C   0  0  0  0  0  0  0  0  0  0  0  0
  -21.8929  -11.9051   26.4546 C   0  0  0  0  0  0  0  0  0  0  0  0
  -29.9322  -14.1098   24.6544 C   0  0  0  0  0  0  0  0  0  0  0  0
  -29.2500  -15.3774   24.1469 C   0  0  0  0  0  0  0  0  0  0  0  0
  -28.1900  -15.8753   25.1199 C   0  0  0  0  0  0  0  0  0  1  0  0
  -22.7572  -15.1925   30.0989 C   0  0  1  0  0  0  0  0  0  0  0  0
  -21.8788  -11.6908   28.9431 C   0  0  2  0  0  0  0  0  0  0  0  0
  -22.8767  -15.5233   31.6134 C   0  0  0  0  0  0  0  0  0  0  0  0
  -25.9397  -11.6027   20.5385 N   0  0  0  0  0  0  0  0  0  0  0  0
  -26.2842  -12.8941   20.3980 N   0  0  0  0  0  0  0  0  0  0  0  0
  -22.6487  -16.8968   28.3079 N   0  0  0  0  0  0  0  0  0  0  0  0
  -30.0944  -12.5920   20.4444 N   0  0  0  0  0  0  0  0  0  0  0  0
  -30.6622  -12.6958   22.7171 N   0  0  0  0  0  0  0  0  0  0  0  0
  -25.4122  -15.0961   20.4327 N   0  0  0  0  0  0  0  0  0  0  0  0
  -21.7907  -12.5283   21.2618 N   0  0  0  0  0  0  0  0  0  0  0  0
  -21.6218  -20.3108   28.4504 N   0  0  0  0  0  0  0  0  0  0  0  0
  -22.1158  -13.9132   29.8154 N   0  0  0  0  0  0  0  0  0  0  0  0
  -22.1388  -11.0326   27.6316 N   0  3  0  0  0  0  0  0  0  0  0  0
  -22.5198  -14.6844   20.9818 O   0  0  0  0  0  0  0  0  0  0  0  0
  -23.6833  -19.2848   28.7966 O   0  0  0  0  0  0  0  0  0  0  0  0
  -20.7970  -16.4515   29.6529 O   0  0  0  0  0  0  0  0  0  0  0  0
  -23.8869  -12.9976   28.6313 O   0  0  0  0  0  0  0  0  0  0  0  0
  -32.2703  -13.0884   21.1033 O   0  0  0  0  0  0  0  0  0  0  0  0
  -21.7048   -6.9687   21.6066 O   0  0  0  0  0  0  0  0  0  0  0  0
  -27.5827  -17.0613   24.6090 O   0  0  0  0  0  0  0  0  0  1  0  0
  -18.1292   -6.8755   25.8032 F   0  0  0  0  0  0  0  0  0  0  0  0
  -19.6028   -8.7609   21.7191 F   0  0  0  0  0  0  0  0  0  0  0  0
  1  2  1  0  0  0  0
  1  5  2  0  0  0  0
  2  6  2  0  0  0  0
  3  8  2  0  0  0  0
  3 15  1  0  0  0  0
  4  9  1  0  0  0  0
  4 15  2  0  0  0  0
  5 17  1  0  0  0  0
  6 19  1  0  0  0  0
  7 10  2  0  0  0  0
  7 18  1  0  0  0  0
  8 21  1  0  0  0  0
  9 21  2  0  0  0  0
 10 22  1  0  0  0  0
 11 12  2  0  0  0  0
 11 23  1  0  0  0  0
 12 24  1  0  0  0  0
 13 20  1  0  0  0  0
 13 22  2  0  0  0  0
 14 24  2  0  0  0  0
 14 25  1  0  0  0  0
 15 26  1  0  0  0  0
 16 26  1  0  0  0  0
 16 27  2  0  0  0  0
 16 28  1  0  0  0  0
 17 19  2  0  0  0  0
 17 33  1  0  0  0  0
 18 20  2  0  0  0  0
 18 34  1  0  0  0  0
 19 43  1  0  0  0  0
 20 35  1  0  0  0  0
 21 73  1  0  0  0  0
 22 74  1  0  0  0  0
 23 25  2  0  0  0  0
 23 73  1  0  0  0  0
 24 75  1  0  0  0  0
 25 76  1  0  0  0  0
 26 58  2  0  0  0  0
 27 59  1  0  0  0  0
 27 63  1  0  0  0  0
 28 64  1  0  0  0  0
 28 68  2  0  0  0  0
 29 44  1  0  0  0  0
 29 65  1  0  0  0  0
 29 69  2  0  0  0  0
 30 55  1  0  0  0  0
 30 60  1  0  0  0  0
 30 70  2  0  0  0  0
 31 56  1  0  0  0  0
 31 66  1  0  0  0  0
 31 71  2  0  0  0  0
 32 61  1  0  0  0  0
 32 62  1  0  0  0  0
 32 72  2  0  0  0  0
 33 36  1  0  0  0  0
 34 44  1  0  0  0  0
 35 60  1  0  0  0  0
 36 38  1  0  0  0  0
 37 39  1  0  0  0  0
 37 40  1  0  0  0  0
 38 43  1  0  0  0  0
 39 45  1  0  0  0  0
 40 61  1  0  0  0  0
 41 45  1  0  0  0  0
 41 61  1  0  0  0  0
 42 46  1  0  0  0  0
 42 62  1  0  0  0  0
 43 65  1  0  0  0  0
 44 60  1  0  0  0  0
 45 59  1  0  0  0  0
 46 52  1  0  0  0  0
 46 62  1  0  0  0  0
 47 56  1  0  0  0  0
 48 57  1  0  0  0  0
 49 57  1  0  0  0  0
 50 57  1  0  0  0  0
 51 67  1  0  0  0  0
 52 53  1  0  0  0  0
 53 54  1  0  0  0  0
 54 74  1  0  0  0  0
 55 57  1  0  0  0  0
 55 66  1  0  0  0  0
 56 67  1  0  0  0  0
 58 59  1  0  0  0  0
M  CHG  1  67   1
M  ISO  4  32 100  54 101  62 100  74 101
M  END
> <Batch ID>
0114

> <Smiles>
CNC(C)C(=O)NC(C(=O)N1Cc2cc([101O:1][101CH2:1]CCC3C[100N:0]3[100C:0](=O)N3CCCC(n4nc(-c5ccc(Oc6ccc(F)cc6F)cc5)c(C(N)=O)c4N)C3)ccc2CC1C(=O)NC1CCCc2ccccc21)C(C)(C)C

> <Shape>
0.132

> <Color>
0.190

> <Negative vol penalty>
0.000

$$$$

  -OEChem-04052320083D

 88 97  0     1  0  0  0  0  0999 V2000
  -16.1414  -27.2628   23.5123 C   0  0  0  0  0  0  0  0  0  0  0  0
  -17.3977  -27.0138   22.9692 C   0  0  0  0  0  0  0  0  0  0  0  0
  -23.7210   -8.3274   19.0059 C   0  0  0  0  0  0  0  0  0  0  0  0
  -24.9187   -8.3445   21.1040 C   0  0  0  0  0  0  0  0  0  0  0  0
  -15.7208  -28.5757   23.7204 C   0  0  0  0  0  0  0  0  0  0  0  0
  -18.2339  -28.0778   22.6328 C   0  0  0  0  0  0  0  0  0  0  0  0
  -23.0096  -27.3511   24.1525 C   0  0  0  0  0  0  0  0  0  0  0  0
  -26.8813  -23.2617   18.8279 C   0  0  0  0  0  0  0  0  0  0  0  0
  -28.2888  -22.7745   20.7302 C   0  0  0  0  0  0  0  0  0  0  0  0
  -25.9965  -23.9492   19.6586 C   0  0  0  0  0  0  0  0  0  0  0  0
  -27.4040  -23.4621   21.5609 C   0  0  0  0  0  0  0  0  0  0  0  0
  -22.5810   -7.8610   19.6604 C   0  0  0  0  0  0  0  0  0  0  0  0
  -23.7787   -7.8782   21.7586 C   0  0  0  0  0  0  0  0  0  0  0  0
  -23.7994  -26.4969   23.3841 C   0  0  0  0  0  0  0  0  0  0  0  0
  -22.1791   -4.9297   22.1810 C   0  0  0  0  0  0  0  0  0  0  0  0
  -22.3386   -3.8950   23.1027 C   0  0  0  0  0  0  0  0  0  0  0  0
  -24.8192  -28.4067   22.3202 C   0  0  0  0  0  0  0  0  0  0  0  0
  -21.4518   -5.3120   24.8470 C   0  0  0  0  0  0  0  0  0  0  0  0
  -24.8899   -8.5691   19.7277 C   0  0  0  0  0  0  0  0  0  0  0  0
  -26.7704   -8.4142   18.0108 C   0  0  0  0  0  0  0  0  0  0  0  0
  -16.5561  -29.6561   23.3953 C   0  0  0  0  0  0  0  0  0  0  0  0
  -23.1112  -28.7417   24.0025 C   0  0  0  0  0  0  0  0  0  0  0  0
  -17.8237  -29.4065   22.8355 C   0  0  0  0  0  0  0  0  0  0  0  0
  -24.0315  -29.2764   23.0897 C   0  0  0  0  0  0  0  0  0  0  0  0
  -28.0274  -22.6743   19.3637 C   0  0  0  0  0  0  0  0  0  0  0  0
  -26.2579  -24.0494   21.0251 C   0  0  0  0  0  0  0  0  0  0  0  0
  -22.6098   -7.6365   21.0368 C   0  0  0  0  0  0  0  0  0  0  0  0
  -24.7022  -27.0246   22.4657 C   0  0  0  0  0  0  0  0  0  0  0  0
  -21.6560   -6.1557   22.5923 C   0  0  0  0  0  0  0  0  0  0  0  0
  -21.9750   -4.0861   24.4357 C   0  0  0  0  0  0  0  0  0  0  0  0
  -21.2923   -6.3468   23.9253 C   0  0  0  0  0  0  0  0  0  0  0  0
  -26.0681   -9.0503   19.0520 C   0  0  0  0  0  0  0  0  0  0  0  0
  -27.8032   -9.2715   17.7195 C   0  0  0  0  0  0  0  0  0  0  0  0
  -26.5123   -7.1605   17.3648 C   0  0  0  0  0  0  0  0  0  0  0  0
  -21.1205  -31.0525   23.1074 C   0  0  0  0  0  0  0  0  0  0  0  0
  -23.5911  -32.9755   23.9565 C   0  0  0  0  0  0  0  0  0  0  0  0
  -26.9489  -33.3296   24.4528 C   0  0  0  0  0  0  0  0  0  0  0  0
  -28.2749  -15.1942   18.6959 C   0  0  0  0  0  0  0  0  0  0  0  0
  -16.0392  -31.0589   23.5944 C   0  0  0  0  0  0  0  0  0  0  0  0
  -22.2713  -29.6500   24.8580 C   0  0  0  0  0  0  0  0  0  0  0  0
  -24.1932  -30.7624   22.9052 C   0  0  0  0  0  0  0  0  0  0  0  0
  -17.1339  -32.1222   23.5592 C   0  0  0  0  0  0  0  0  0  0  0  0
  -29.7617  -12.3239   20.7769 C   0  0  0  0  0  0  0  0  0  0  0  0
  -18.0645  -31.8912   22.3728 C   0  0  0  0  0  0  0  0  0  0  0  0
  -29.7526  -11.3451   19.6065 C   0  0  0  0  0  0  0  0  0  0  0  0
  -27.9464  -18.3808   19.4096 C   0  0  0  0  0  0  0  0  0  0  0  0
  -30.2841  -18.3015   18.4993 C   0  0  0  0  0  0  0  0  0  0  0  0
  -29.6406  -13.7632   20.2858 C   0  0  0  0  0  0  0  0  0  0  0  0
  -27.7143  -12.7990   19.0280 C   0  0  0  0  0  0  0  0  0  0  0  0
  -27.7968  -19.8016   18.8896 C   0  0  0  0  0  0  0  0  0  0  0  0
  -18.7692  -30.5335   22.4807 C   0  0  1  0  0  0  0  0  0  0  0  0
  -22.0901  -31.0397   24.2552 C   0  0  1  0  0  0  0  0  0  0  0  0
  -28.5485  -11.5582   18.6633 C   0  0  2  0  0  0  0  0  0  0  0  0
  -28.9374  -17.5835   18.5670 C   0  0  1  0  0  0  0  0  0  0  0  0
  -30.1495  -19.7405   17.9809 C   0  0  2  0  0  0  0  0  0  0  0  0
  -33.8816  -20.3747   17.1748 C   0  0  0  0  0  0  0  0  0  0  0  0
  -28.6748  -35.0292   25.1085 C   0  0  0  0  0  0  0  0  0  0  0  0
  -23.3971  -34.2379   21.1854 C   0  0  0  0  0  0  0  0  0  0  0  0
  -25.6752  -35.2118   21.5461 C   0  0  0  0  0  0  0  0  0  0  0  0
  -23.7912  -35.8616   23.0463 C   0  0  0  0  0  0  0  0  0  0  0  0
  -27.7604  -31.7602   26.8271 C   0  0  0  0  0  0  0  0  0  0  0  0
  -28.9739  -21.9390   18.4763 C   0  0  0  0  0  0  0  0  0  0  0  0
  -25.3065  -24.7907   21.9177 C   0  0  0  0  0  0  0  0  0  1  0  0
  -31.5121  -20.4303   18.0105 C   0  0  0  0  0  0  0  0  0  0  0  0
  -32.5323  -19.6742   17.1665 C   0  0  0  0  0  0  0  0  0  0  0  0
  -24.7929  -33.5489   23.2453 C   0  0  1  0  0  0  0  0  0  0  0  0
  -27.7394  -33.9349   25.5987 C   0  0  2  0  0  0  0  0  0  0  0  0
  -24.4099  -34.6870   22.2576 C   0  0  0  0  0  0  0  0  0  0  0  0
  -26.6090  -10.2212   19.3987 N   0  0  0  0  0  0  0  0  0  0  0  0
  -27.6623  -10.3277   18.5709 N   0  0  0  0  0  0  0  0  0  0  0  0
  -23.3451  -31.6092   23.7604 N   0  0  0  0  0  0  0  0  0  0  0  0
  -28.5636  -13.9584   19.3069 N   0  0  0  0  0  0  0  0  0  0  0  0
  -28.8090   -9.2174   16.8207 N   0  0  0  0  0  0  0  0  0  0  0  0
  -27.1013   -6.0033   17.8923 N   0  0  0  0  0  0  0  0  0  0  0  0
  -19.8557  -30.6023   23.4343 N   0  0  0  0  0  0  0  0  0  0  0  0
  -25.7300  -33.9528   24.2880 N   0  0  0  0  0  0  0  0  0  0  0  0
  -29.0953  -16.2477   19.0913 N   0  0  0  0  0  0  0  0  0  0  0  0
  -29.1476  -20.4881   18.8564 N   0  3  1  0  0  0  0  0  0  0  0  0
  -28.5554  -32.8874   26.2753 N   0  3  0  0  0  0  0  0  0  0  0  0
  -25.7942   -7.0715   16.3401 O   0  0  0  0  0  0  0  0  0  0  0  0
  -21.4921  -31.4434   22.0070 O   0  0  0  0  0  0  0  0  0  0  0  0
  -22.9002  -33.7112   24.6657 O   0  0  0  0  0  0  0  0  0  0  0  0
  -27.3721  -32.3997   23.7697 O   0  0  0  0  0  0  0  0  0  0  0  0
  -27.3659  -15.3447   17.8740 O   0  0  0  0  0  0  0  0  0  0  0  0
  -21.4975   -7.1817   21.6759 O   0  0  0  0  0  0  0  0  0  0  0  0
  -25.4738  -26.1931   21.7139 O   0  0  0  0  0  0  0  0  0  1  0  0
  -22.1268   -3.0919   25.3203 F   0  0  0  0  0  0  0  0  0  0  0  0
  -20.7881   -7.5219   24.3262 F   0  0  0  0  0  0  0  0  0  0  0  0
  1  2  1  0  0  0  0
  1  5  2  0  0  0  0
  2  6  2  0  0  0  0
  3 12  2  0  0  0  0
  3 19  1  0  0  0  0
  4 13  1  0  0  0  0
  4 19  2  0  0  0  0
  5 21  1  0  0  0  0
  6 23  1  0  0  0  0
  7 14  2  0  0  0  0
  7 22  1  0  0  0  0
  8 10  2  0  0  0  0
  8 25  1  0  0  0  0
  9 11  1  0  0  0  0
  9 25  2  0  0  0  0
 10 26  1  0  0  0  0
 11 26  2  0  0  0  0
 12 27  1  0  0  0  0
 13 27  2  0  0  0  0
 14 28  1  0  0  0  0
 15 16  2  0  0  0  0
 15 29  1  0  0  0  0
 16 30  1  0  0  0  0
 17 24  1  0  0  0  0
 17 28  2  0  0  0  0
 18 30  2  0  0  0  0
 18 31  1  0  0  0  0
 19 32  1  0  0  0  0
 20 32  1  0  0  0  0
 20 33  2  0  0  0  0
 20 34  1  0  0  0  0
 21 23  2  0  0  0  0
 21 39  1  0  0  0  0
 22 24  2  0  0  0  0
 22 40  1  0  0  0  0
 23 51  1  0  0  0  0
 24 41  1  0  0  0  0
 25 62  1  0  0  0  0
 26 63  1  0  0  0  0
 27 85  1  0  0  0  0
 28 86  1  0  0  0  0
 29 31  2  0  0  0  0
 29 85  1  0  0  0  0
 30 87  1  0  0  0  0
 31 88  1  0  0  0  0
 32 69  2  0  0  0  0
 33 70  1  0  0  0  0
 33 73  1  0  0  0  0
 34 74  1  0  0  0  0
 34 80  2  0  0  0  0
 35 52  1  0  0  0  0
 35 75  1  0  0  0  0
 35 81  2  0  0  0  0
 36 66  1  0  0  0  0
 36 71  1  0  0  0  0
 36 82  2  0  0  0  0
 37 67  1  0  0  0  0
 37 76  1  0  0  0  0
 37 83  2  0  0  0  0
 38 72  1  0  0  0  0
 38 77  1  0  0  0  0
 38 84  2  0  0  0  0
 39 42  1  0  0  0  0
 40 52  1  0  0  0  0
 41 71  1  0  0  0  0
 42 44  1  0  0  0  0
 43 45  1  0  0  0  0
 43 48  1  0  0  0  0
 44 51  1  0  0  0  0
 45 53  1  0  0  0  0
 46 50  1  0  0  0  0
 46 54  1  0  0  0  0
 47 54  1  0  0  0  0
 47 55  1  0  0  0  0
 48 72  1  0  0  0  0
 49 53  1  0  0  0  0
 49 72  1  0  0  0  0
 50 78  1  0  0  0  0
 51 75  1  0  0  0  0
 52 71  1  0  0  0  0
 53 70  1  0  0  0  0
 54 77  1  0  0  0  0
 55 64  1  0  0  0  0
 55 78  1  0  0  0  0
 56 65  1  0  0  0  0
 57 67  1  0  0  0  0
 58 68  1  0  0  0  0
 59 68  1  0  0  0  0
 60 68  1  0  0  0  0
 61 79  1  0  0  0  0
 62 78  1  0  0  0  0
 63 86  1  0  0  0  0
 64 65  1  0  0  0  0
 66 68  1  0  0  0  0
 66 76  1  0  0  0  0
 67 79  1  0  0  0  0
 69 70  1  0  0  0  0
M  CHG  2  78   1  79   1
M  ISO  4  38 100  63 101  77 100  86 101
M  END
> <Batch ID>
0114

> <Smiles>
CCCC1CC([100NH:0][100C:0](=O)N2CCCC(n3nc(-c4ccc(Oc5ccc(F)cc5F)cc4)c(C(N)=O)c3N)C2)CCN1Cc1ccc([101CH2:1][101O:1]c2ccc3c(c2)CN(C(=O)C(NC(=O)C(C)NC)C(C)(C)C)C(C(=O)NC2CCCc4ccccc42)C3)cc1

> <Shape>
0.268

> <Color>
0.077

> <Negative vol penalty>
0.000

$$$$

  -OEChem-04052320083D

 81 89  0     1  0  0  0  0  0999 V2000
  -27.0584  -21.1841   28.3878 C   0  0  0  0  0  0  0  0  0  0  0  0
  -27.6670  -21.6580   27.2300 C   0  0  0  0  0  0  0  0  0  0  0  0
  -26.3873  -12.6084   21.7268 C   0  0  0  0  0  0  0  0  0  0  0  0
  -25.8625  -13.7665   19.6724 C   0  0  0  0  0  0  0  0  0  0  0  0
  -25.6685  -21.1923   28.4969 C   0  0  0  0  0  0  0  0  0  0  0  0
  -26.8858  -22.1394   26.1801 C   0  0  0  0  0  0  0  0  0  0  0  0
  -28.2597  -26.7394   22.3777 C   0  0  0  0  0  0  0  0  0  0  0  0
  -25.1583  -11.9513   21.6703 C   0  0  0  0  0  0  0  0  0  0  0  0
  -24.6335  -13.1093   19.6159 C   0  0  0  0  0  0  0  0  0  0  0  0
  -28.7843  -26.7639   21.0862 C   0  0  0  0  0  0  0  0  0  0  0  0
  -23.8080   -9.3322   20.0120 C   0  0  0  0  0  0  0  0  0  0  0  0
  -23.7936   -7.9612   20.2680 C   0  0  0  0  0  0  0  0  0  0  0  0
  -26.5514  -26.9302   20.1887 C   0  0  0  0  0  0  0  0  0  0  0  0
  -22.2983   -8.3246   22.1305 C   0  0  0  0  0  0  0  0  0  0  0  0
  -26.7394  -13.5161   20.7279 C   0  0  0  0  0  0  0  0  0  0  0  0
  -29.2292  -13.7660   20.2317 C   0  0  0  0  0  0  0  0  0  0  0  0
  -24.8702  -21.6830   27.4516 C   0  0  0  0  0  0  0  0  0  0  0  0
  -26.8740  -26.7992   22.5843 C   0  0  0  0  0  0  0  0  0  0  0  0
  -25.4838  -22.1530   26.2747 C   0  0  0  0  0  0  0  0  0  0  0  0
  -26.0118  -26.9088   21.4839 C   0  0  0  0  0  0  0  0  0  0  0  0
  -24.2814  -12.2017   20.6149 C   0  0  0  0  0  0  0  0  0  0  0  0
  -27.9300  -26.8564   19.9913 C   0  0  0  0  0  0  0  0  0  0  0  0
  -23.0675  -10.1995   20.8152 C   0  0  0  0  0  0  0  0  0  0  0  0
  -23.0388   -7.4573   21.3272 C   0  0  0  0  0  0  0  0  0  0  0  0
  -22.3126   -9.6957   21.8745 C   0  0  0  0  0  0  0  0  0  0  0  0
  -28.0086  -14.1957   20.7860 C   0  0  0  0  0  0  0  0  0  0  0  0
  -30.1230  -14.7557   20.5603 C   0  0  0  0  0  0  0  0  0  0  0  0
  -29.5284  -12.5783   19.4863 C   0  0  0  0  0  0  0  0  0  0  0  0
  -24.7141  -24.8623   23.8831 C   0  0  0  0  0  0  0  0  0  0  0  0
  -22.7308  -27.3817   23.3917 C   0  0  0  0  0  0  0  0  0  0  0  0
  -22.0455  -30.2316   21.6437 C   0  0  0  0  0  0  0  0  0  0  0  0
  -29.4815  -20.5724   21.8274 C   0  0  0  0  0  0  0  0  0  0  0  0
  -23.3700  -21.6279   27.5965 C   0  0  0  0  0  0  0  0  0  0  0  0
  -26.3254  -26.7986   23.9848 C   0  0  0  0  0  0  0  0  0  0  0  0
  -24.5177  -26.9963   21.6528 C   0  0  0  0  0  0  0  0  0  0  0  0
  -22.6282  -22.5021   26.5886 C   0  0  0  0  0  0  0  0  0  0  0  0
  -30.9674  -18.0825   23.8936 C   0  0  0  0  0  0  0  0  0  0  0  0
  -23.1944  -22.2986   25.1869 C   0  0  0  0  0  0  0  0  0  0  0  0
  -29.3446  -22.8469   17.4405 C   0  0  0  0  0  0  0  0  0  0  0  0
  -27.4256  -23.6557   18.8713 C   0  0  0  0  0  0  0  0  0  0  0  0
  -30.4877  -16.7653   23.2814 C   0  0  0  0  0  0  0  0  0  0  0  0
  -29.2107  -21.5599   18.2624 C   0  0  0  0  0  0  0  0  0  0  0  0
  -27.7501  -22.6702   19.9997 C   0  0  0  0  0  0  0  0  0  0  0  0
  -29.8904  -19.1629   23.8230 C   0  0  0  0  0  0  0  0  0  0  0  0
  -28.8573  -18.0814   21.8642 C   0  0  0  0  0  0  0  0  0  0  0  0
  -24.6714  -22.7062   25.1240 C   0  0  1  0  0  0  0  0  0  0  0  0
  -24.8701  -26.3467   24.0562 C   0  0  1  0  0  0  0  0  0  0  0  0
  -28.6745  -24.0695   18.0905 C   0  0  0  0  0  0  0  0  0  0  0  0
  -29.9287  -16.9775   21.8617 C   0  0  2  0  0  0  0  0  0  0  0  0
  -29.0229  -21.8499   19.7496 C   0  0  0  0  0  0  0  0  0  0  0  0
  -20.3331  -32.0548   21.4416 C   0  0  0  0  0  0  0  0  0  0  0  0
  -29.6299  -25.5213   16.3030 C   0  0  0  0  0  0  0  0  0  0  0  0
  -27.2860  -27.4347   16.6975 C   0  0  0  0  0  0  0  0  0  0  0  0
  -20.8741  -25.4698   21.9060 C   0  0  0  0  0  0  0  0  0  0  0  0
  -19.7105  -27.4636   20.9369 C   0  0  0  0  0  0  0  0  0  0  0  0
  -19.7111  -27.0995   23.4047 C   0  0  0  0  0  0  0  0  0  0  0  0
  -24.0153  -32.3204   22.3620 C   0  0  0  0  0  0  0  0  0  0  0  0
  -21.8413  -27.8373   22.2602 C   0  0  1  0  0  0  0  0  0  0  0  0
  -21.6323  -31.6189   22.1010 C   0  0  2  0  0  0  0  0  0  0  0  0
  -28.3462  -25.1293   17.0409 C   0  0  2  0  0  0  0  0  0  0  0  0
  -27.6287  -26.3308   17.6916 C   0  0  1  0  0  0  0  0  0  1  0  0
  -20.5622  -26.9640   22.1233 C   0  0  0  0  0  0  0  0  0  0  0  0
  -28.1138  -15.3672   21.4189 N   0  0  0  0  0  0  0  0  0  0  0  0
  -29.4112  -15.6819   21.2644 N   0  0  0  0  0  0  0  0  0  0  0  0
  -24.0294  -26.9856   23.0417 N   0  0  0  0  0  0  0  0  0  0  0  0
  -29.4037  -19.3156   22.4498 N   0  0  0  0  0  0  0  0  0  0  0  0
  -31.4404  -14.9154   20.3130 N   0  0  0  0  0  0  0  0  0  0  0  0
  -28.4930  -11.6669   19.2379 N   0  0  0  0  0  0  0  0  0  0  0  0
  -24.7960  -24.1467   25.0623 N   0  0  0  0  0  0  0  0  0  0  0  0
  -21.5762  -29.2528   22.4939 N   0  0  0  0  0  0  0  0  0  0  0  0
  -29.0042  -20.6287   20.5236 N   0  0  0  0  0  0  0  0  0  0  0  0
  -22.6890  -32.6129   21.7599 N   0  3  0  0  0  0  0  0  0  0  0  0
  -30.6833  -12.3246   19.0675 O   0  0  0  0  0  0  0  0  0  0  0  0
  -24.5314  -24.4006   22.7628 O   0  0  0  0  0  0  0  0  0  0  0  0
  -22.2919  -27.3842   24.5445 O   0  0  0  0  0  0  0  0  0  0  0  0
  -22.7144  -30.0356   20.6314 O   0  0  0  0  0  0  0  0  0  0  0  0
  -29.9470  -21.5693   22.3899 O   0  0  0  0  0  0  0  0  0  0  0  0
  -23.0821  -11.5604   20.5593 O   0  0  0  0  0  0  0  0  0  0  0  0
  -28.4394  -26.8799   18.7297 O   0  0  0  0  0  0  0  0  0  1  0  0
  -23.0239   -6.1405   21.5720 F   0  0  0  0  0  0  0  0  0  0  0  0
  -21.5983  -10.5238   22.6489 F   0  0  0  0  0  0  0  0  0  0  0  0
  1  2  1  0  0  0  0
  1  5  2  0  0  0  0
  2  6  2  0  0  0  0
  3  8  2  0  0  0  0
  3 15  1  0  0  0  0
  4  9  1  0  0  0  0
  4 15  2  0  0  0  0
  5 17  1  0  0  0  0
  6 19  1  0  0  0  0
  7 10  2  0  0  0  0
  7 18  1  0  0  0  0
  8 21  1  0  0  0  0
  9 21  2  0  0  0  0
 10 22  1  0  0  0  0
 11 12  2  0  0  0  0
 11 23  1  0  0  0  0
 12 24  1  0  0  0  0
 13 20  1  0  0  0  0
 13 22  2  0  0  0  0
 14 24  2  0  0  0  0
 14 25  1  0  0  0  0
 15 26  1  0  0  0  0
 16 26  1  0  0  0  0
 16 27  2  0  0  0  0
 16 28  1  0  0  0  0
 17 19  2  0  0  0  0
 17 33  1  0  0  0  0
 18 20  2  0  0  0  0
 18 34  1  0  0  0  0
 19 46  1  0  0  0  0
 20 35  1  0  0  0  0
 21 78  1  0  0  0  0
 22 79  1  0  0  0  0
 23 25  2  0  0  0  0
 23 78  1  0  0  0  0
 24 80  1  0  0  0  0
 25 81  1  0  0  0  0
 26 63  2  0  0  0  0
 27 64  1  0  0  0  0
 27 67  1  0  0  0  0
 28 68  1  0  0  0  0
 28 73  2  0  0  0  0
 29 47  1  0  0  0  0
 29 69  1  0  0  0  0
 29 74  2  0  0  0  0
 30 58  1  0  0  0  0
 30 65  1  0  0  0  0
 30 75  2  0  0  0  0
 31 59  1  0  0  0  0
 31 70  1  0  0  0  0
 31 76  2  0  0  0  0
 32 66  1  0  0  0  0
 32 71  1  0  0  0  0
 32 77  2  0  0  0  0
 33 36  1  0  0  0  0
 34 47  1  0  0  0  0
 35 65  1  0  0  0  0
 36 38  1  0  0  0  0
 37 41  1  0  0  0  0
 37 44  1  0  0  0  0
 38 46  1  0  0  0  0
 39 42  1  0  0  0  0
 39 48  1  0  0  0  0
 40 43  1  0  0  0  0
 40 48  1  0  0  0  0
 41 49  1  0  0  0  0
 42 50  1  0  0  0  0
 43 50  1  0  0  0  0
 44 66  1  0  0  0  0
 45 49  1  0  0  0  0
 45 66  1  0  0  0  0
 46 69  1  0  0  0  0
 47 65  1  0  0  0  0
 48 60  1  0  0  0  0
 49 64  1  0  0  0  0
 50 71  1  0  0  0  0
 51 59  1  0  0  0  0
 52 60  1  0  0  0  0
 53 61  1  0  0  0  0
 54 62  1  0  0  0  0
 55 62  1  0  0  0  0
 56 62  1  0  0  0  0
 57 72  1  0  0  0  0
 58 62  1  0  0  0  0
 58 70  1  0  0  0  0
 59 72  1  0  0  0  0
 60 61  1  0  0  0  0
 61 79  1  0  0  0  0
 63 64  1  0  0  0  0
M  CHG  1  72   1
M  ISO  4  32 100  61 101  71 100  79 101
M  END
> <Batch ID>
0114

> <Smiles>
CNC(C)C(=O)NC(C(=O)N1Cc2cc([101O:1][101CH:1](C)C(C)C3CCC([100NH:0][100C:0](=O)N4CCCC(n5nc(-c6ccc(Oc7ccc(F)cc7F)cc6)c(C(N)=O)c5N)C4)CC3)ccc2CC1C(=O)NC1CCCc2ccccc21)C(C)(C)C

> <Shape>
0.253

> <Color>
0.071

> <Negative vol penalty>
0.000

$$$$

  -OEChem-04052320083D

 82 90  0     1  0  0  0  0  0999 V2000
  -32.9207  -21.6279   13.6635 C   0  0  0  0  0  0  0  0  0  0  0  0
  -32.2312  -21.0448   14.7218 C   0  0  0  0  0  0  0  0  0  0  0  0
  -22.9787  -10.0778   19.8311 C   0  0  0  0  0  0  0  0  0  0  0  0
  -23.8975   -9.7485   22.0412 C   0  0  0  0  0  0  0  0  0  0  0  0
  -33.2724  -22.9759   13.7206 C   0  0  0  0  0  0  0  0  0  0  0  0
  -31.8940  -21.8091   15.8383 C   0  0  0  0  0  0  0  0  0  0  0  0
  -26.8509  -21.2835   19.2730 C   0  0  0  0  0  0  0  0  0  0  0  0
  -22.2152   -8.9195   19.9758 C   0  0  0  0  0  0  0  0  0  0  0  0
  -23.1339   -8.5902   22.1860 C   0  0  0  0  0  0  0  0  0  0  0  0
  -26.6073  -20.6502   20.4909 C   0  0  0  0  0  0  0  0  0  0  0  0
  -22.6926   -5.5799   19.7679 C   0  0  0  0  0  0  0  0  0  0  0  0
  -22.6582   -4.6890   18.6952 C   0  0  0  0  0  0  0  0  0  0  0  0
  -26.9526  -22.7424   21.6409 C   0  0  0  0  0  0  0  0  0  0  0  0
  -31.3429  -17.5439   20.9492 C   0  0  0  0  0  0  0  0  0  0  0  0
  -30.9176  -19.5824   22.1740 C   0  0  0  0  0  0  0  0  0  0  0  0
  -29.8474  -17.5234   22.8466 C   0  0  0  0  0  0  0  0  0  0  0  0
  -20.2619   -4.9596   18.5474 C   0  0  0  0  0  0  0  0  0  0  0  0
  -23.8199  -10.4923   20.8637 C   0  0  0  0  0  0  0  0  0  0  0  0
  -24.2387  -13.0007   21.0644 C   0  0  0  0  0  0  0  0  0  0  0  0
  -32.9309  -23.7595   14.8341 C   0  0  0  0  0  0  0  0  0  0  0  0
  -27.1584  -22.6510   19.2307 C   0  0  0  0  0  0  0  0  0  0  0  0
  -32.2427  -23.1685   15.9109 C   0  0  0  0  0  0  0  0  0  0  0  0
  -27.1971  -23.3912   20.4210 C   0  0  0  0  0  0  0  0  0  0  0  0
  -31.5578  -18.9097   21.1333 C   0  0  0  0  0  0  0  0  0  0  0  0
  -30.4876  -16.8507   21.8058 C   0  0  0  0  0  0  0  0  0  0  0  0
  -22.2928   -8.1757   21.1533 C   0  0  0  0  0  0  0  0  0  0  0  0
  -26.6610  -21.3790   21.6754 C   0  0  0  0  0  0  0  0  0  0  0  0
  -21.5117   -6.1606   20.2304 C   0  0  0  0  0  0  0  0  0  0  0  0
  -30.0623  -18.8893   23.0307 C   0  0  0  0  0  0  0  0  0  0  0  0
  -21.4429   -4.3789   18.0849 C   0  0  0  0  0  0  0  0  0  0  0  0
  -20.2964   -5.8505   19.6202 C   0  0  0  0  0  0  0  0  0  0  0  0
  -24.6093  -11.6884   20.7145 C   0  0  0  0  0  0  0  0  0  0  0  0
  -25.3277  -13.7666   20.7267 C   0  0  0  0  0  0  0  0  0  0  0  0
  -23.0191  -13.4841   21.6429 C   0  0  0  0  0  0  0  0  0  0  0  0
  -29.6624  -24.3586   18.2728 C   0  0  0  0  0  0  0  0  0  0  0  0
  -27.7009  -26.8646   18.9010 C   0  0  0  0  0  0  0  0  0  0  0  0
  -25.0069  -28.0780   20.6089 C   0  0  0  0  0  0  0  0  0  0  0  0
  -30.8252  -14.6451   20.6363 C   0  0  0  0  0  0  0  0  0  0  0  0
  -33.3742  -25.2006   14.8711 C   0  0  0  0  0  0  0  0  0  0  0  0
  -27.3922  -23.3250   17.9066 C   0  0  0  0  0  0  0  0  0  0  0  0
  -27.5028  -24.8660   20.4280 C   0  0  0  0  0  0  0  0  0  0  0  0
  -32.6509  -26.0334   15.9263 C   0  0  0  0  0  0  0  0  0  0  0  0
  -29.4654  -12.6105   18.0501 C   0  0  0  0  0  0  0  0  0  0  0  0
  -32.6093  -25.2894   17.2573 C   0  0  0  0  0  0  0  0  0  0  0  0
  -28.0503  -12.2972   18.5415 C   0  0  0  0  0  0  0  0  0  0  0  0
  -30.4699  -12.6484   19.2004 C   0  0  0  0  0  0  0  0  0  0  0  0
  -28.6905  -13.2204   20.8053 C   0  0  0  0  0  0  0  0  0  0  0  0
  -31.8374  -23.9707   17.1284 C   0  0  1  0  0  0  0  0  0  0  0  0
  -28.2021  -24.6123   18.0261 C   0  0  1  0  0  0  0  0  0  0  0  0
  -27.6320  -13.2357   19.6904 C   0  0  2  0  0  0  0  0  0  0  0  0
  -32.4719  -19.6510   20.2174 C   0  0  0  0  0  0  0  0  0  0  0  0
  -23.6680  -30.1737   20.9443 C   0  0  0  0  0  0  0  0  0  0  0  0
  -29.9166  -27.9943   20.6687 C   0  0  0  0  0  0  0  0  0  0  0  0
  -28.2223  -29.5267   21.6932 C   0  0  0  0  0  0  0  0  0  0  0  0
  -28.7396  -29.6916   19.2585 C   0  0  0  0  0  0  0  0  0  0  0  0
  -22.5402  -26.8048   19.5825 C   0  0  0  0  0  0  0  0  0  0  0  0
  -27.3233  -20.1816   25.0279 C   0  0  0  0  0  0  0  0  0  0  0  0
  -27.0898  -21.2896   24.0129 C   0  0  0  0  0  0  0  0  0  1  0  0
  -28.1637  -19.0519   24.4536 C   0  0  0  0  0  0  0  0  0  0  0  0
  -27.4106  -27.7176   20.1123 C   0  0  1  0  0  0  0  0  0  0  0  0
  -23.8036  -28.8828   20.1519 C   0  0  2  0  0  0  0  0  0  0  0  0
  -28.5684  -28.7043   20.4336 C   0  0  0  0  0  0  0  0  0  0  0  0
  -25.8377  -11.6208   20.1944 N   0  0  0  0  0  0  0  0  0  0  0  0
  -26.2483  -12.9003   20.2148 N   0  0  0  0  0  0  0  0  0  0  0  0
  -27.7304  -25.4783   19.1086 N   0  0  0  0  0  0  0  0  0  0  0  0
  -30.0095  -13.5609   20.2493 N   0  0  0  0  0  0  0  0  0  0  0  0
  -25.5779  -15.0898   20.8207 N   0  0  0  0  0  0  0  0  0  0  0  0
  -22.0029  -12.5617   21.9271 N   0  0  0  0  0  0  0  0  0  0  0  0
  -30.2689  -15.4633   21.6190 N   0  0  0  0  0  0  0  0  0  0  0  0
  -30.4116  -24.2184   17.1201 N   0  0  0  0  0  0  0  0  0  0  0  0
  -26.1277  -28.3640   19.8584 N   0  0  0  0  0  0  0  0  0  0  0  0
  -22.5537  -28.0905   20.3268 N   0  3  0  0  0  0  0  0  0  0  0  0
  -22.8297  -14.7002   21.8850 O   0  0  0  0  0  0  0  0  0  0  0  0
  -30.0789  -24.2961   19.4236 O   0  0  0  0  0  0  0  0  0  0  0  0
  -27.8873  -27.4080   17.8094 O   0  0  0  0  0  0  0  0  0  0  0  0
  -24.9584  -27.2784   21.5410 O   0  0  0  0  0  0  0  0  0  0  0  0
  -31.9238  -14.8496   20.1135 O   0  0  0  0  0  0  0  0  0  0  0  0
  -21.5477   -7.0455   21.2950 O   0  0  0  0  0  0  0  0  0  0  0  0
  -26.4243  -20.7632   22.8656 O   0  0  0  0  0  0  0  0  0  1  0  0
  -29.4329  -19.5504   24.0531 O   0  0  0  0  0  0  0  0  0  0  0  0
  -21.4101   -3.5245   17.0538 F   0  0  0  0  0  0  0  0  0  0  0  0
  -19.1588   -6.4062   20.0593 F   0  0  0  0  0  0  0  0  0  0  0  0
  1  2  1  0  0  0  0
  1  5  2  0  0  0  0
  2  6  2  0  0  0  0
  3  8  2  0  0  0  0
  3 18  1  0  0  0  0
  4  9  1  0  0  0  0
  4 18  2  0  0  0  0
  5 20  1  0  0  0  0
  6 22  1  0  0  0  0
  7 10  2  0  0  0  0
  7 21  1  0  0  0  0
  8 26  1  0  0  0  0
  9 26  2  0  0  0  0
 10 27  1  0  0  0  0
 11 12  2  0  0  0  0
 11 28  1  0  0  0  0
 12 30  1  0  0  0  0
 13 23  1  0  0  0  0
 13 27  2  0  0  0  0
 14 24  1  0  0  0  0
 14 25  2  0  0  0  0
 15 24  2  0  0  0  0
 15 29  1  0  0  0  0
 16 25  1  0  0  0  0
 16 29  2  0  0  0  0
 17 30  2  0  0  0  0
 17 31  1  0  0  0  0
 18 32  1  0  0  0  0
 19 32  1  0  0  0  0
 19 33  2  0  0  0  0
 19 34  1  0  0  0  0
 20 22  2  0  0  0  0
 20 39  1  0  0  0  0
 21 23  2  0  0  0  0
 21 40  1  0  0  0  0
 22 48  1  0  0  0  0
 23 41  1  0  0  0  0
 24 51  1  0  0  0  0
 25 69  1  0  0  0  0
 26 78  1  0  0  0  0
 27 79  1  0  0  0  0
 28 31  2  0  0  0  0
 28 78  1  0  0  0  0
 29 80  1  0  0  0  0
 30 81  1  0  0  0  0
 31 82  1  0  0  0  0
 32 63  2  0  0  0  0
 33 64  1  0  0  0  0
 33 67  1  0  0  0  0
 34 68  1  0  0  0  0
 34 73  2  0  0  0  0
 35 49  1  0  0  0  0
 35 70  1  0  0  0  0
 35 74  2  0  0  0  0
 36 60  1  0  0  0  0
 36 65  1  0  0  0  0
 36 75  2  0  0  0  0
 37 61  1  0  0  0  0
 37 71  1  0  0  0  0
 37 76  2  0  0  0  0
 38 66  1  0  0  0  0
 38 69  1  0  0  0  0
 38 77  2  0  0  0  0
 39 42  1  0  0  0  0
 40 49  1  0  0  0  0
 41 65  1  0  0  0  0
 42 44  1  0  0  0  0
 43 45  1  0  0  0  0
 43 46  1  0  0  0  0
 44 48  1  0  0  0  0
 45 50  1  0  0  0  0
 46 66  1  0  0  0  0
 47 50  1  0  0  0  0
 47 66  1  0  0  0  0
 48 70  1  0  0  0  0
 49 65  1  0  0  0  0
 50 64  1  0  0  0  0
 52 61  1  0  0  0  0
 53 62  1  0  0  0  0
 54 62  1  0  0  0  0
 55 62  1  0  0  0  0
 56 72  1  0  0  0  0
 57 58  1  0  0  0  0
 57 59  1  0  0  0  0
 58 79  1  0  0  0  0
 59 80  1  0  0  0  0
 60 62  1  0  0  0  0
 60 71  1  0  0  0  0
 61 72  1  0  0  0  0
 63 64  1  0  0  0  0
M  CHG  1  72   1
M  ISO  4  38 100  58 101  69 100  79 101
M  END
> <Batch ID>
0114

> <Smiles>
CNC(C)C(=O)NC(C(=O)N1Cc2cc([101O:1][101CH2:1]CCOc3cc(C)cc([100NH:0][100C:0](=O)N4CCCC(n5nc(-c6ccc(Oc7ccc(F)cc7F)cc6)c(C(N)=O)c5N)C4)c3)ccc2CC1C(=O)NC1CCCc2ccccc21)C(C)(C)C

> <Shape>
0.261

> <Color>
0.186

> <Negative vol penalty>
0.000

$$$$

  -OEChem-04052320083D

 86 94  0     1  0  0  0  0  0999 V2000
  -23.8174  -35.4837   23.1898 C   0  0  0  0  0  0  0  0  0  0  0  0
  -23.7152  -34.6632   22.0722 C   0  0  0  0  0  0  0  0  0  0  0  0
  -23.3753  -10.3944   22.4523 C   0  0  0  0  0  0  0  0  0  0  0  0
  -23.8766   -9.4109   20.3032 C   0  0  0  0  0  0  0  0  0  0  0  0
  -24.8035  -35.2374   24.1428 C   0  0  0  0  0  0  0  0  0  0  0  0
  -24.5913  -33.5889   21.9130 C   0  0  0  0  0  0  0  0  0  0  0  0
  -27.8879  -27.2364   18.4488 C   0  0  0  0  0  0  0  0  0  0  0  0
  -22.7130   -9.2270   22.8321 C   0  0  0  0  0  0  0  0  0  0  0  0
  -23.2143   -8.2435   20.6830 C   0  0  0  0  0  0  0  0  0  0  0  0
  -29.0403  -26.4520   18.4302 C   0  0  0  0  0  0  0  0  0  0  0  0
  -19.7063   -7.7810   22.2905 C   0  0  0  0  0  0  0  0  0  0  0  0
  -18.4700   -7.9146   22.9224 C   0  0  0  0  0  0  0  0  0  0  0  0
  -28.8163  -26.0772   20.8027 C   0  0  0  0  0  0  0  0  0  0  0  0
  -19.3400   -6.7727   24.8657 C   0  0  0  0  0  0  0  0  0  0  0  0
  -23.9571  -10.4863   21.1878 C   0  0  0  0  0  0  0  0  0  0  0  0
  -24.0967  -12.9874   20.7052 C   0  0  0  0  0  0  0  0  0  0  0  0
  -25.6997  -34.1669   23.9882 C   0  0  0  0  0  0  0  0  0  0  0  0
  -27.1959  -27.4564   19.6485 C   0  0  0  0  0  0  0  0  0  0  0  0
  -25.5780  -33.3095   22.8758 C   0  0  0  0  0  0  0  0  0  0  0  0
  -27.6539  -26.8627   20.8334 C   0  0  0  0  0  0  0  0  0  0  0  0
  -22.6325   -8.1516   21.9474 C   0  0  0  0  0  0  0  0  0  0  0  0
  -29.5063  -25.8746   19.6077 C   0  0  0  0  0  0  0  0  0  0  0  0
  -20.7595   -7.1433   22.9461 C   0  0  0  0  0  0  0  0  0  0  0  0
  -18.2869   -7.4104   24.2100 C   0  0  0  0  0  0  0  0  0  0  0  0
  -20.5763   -6.6392   24.2338 C   0  0  0  0  0  0  0  0  0  0  0  0
  -24.6409  -11.6922   20.7948 C   0  0  0  0  0  0  0  0  0  0  0  0
  -25.1452  -13.7726   20.2924 C   0  0  0  0  0  0  0  0  0  0  0  0
  -22.7626  -13.4403   20.9714 C   0  0  0  0  0  0  0  0  0  0  0  0
  -26.4876  -30.0180   21.3922 C   0  0  0  0  0  0  0  0  0  0  0  0
  -24.7635  -27.8825   23.1212 C   0  0  0  0  0  0  0  0  0  0  0  0
  -29.4268  -18.5046   20.6810 C   0  0  0  0  0  0  0  0  0  0  0  0
  -25.1982  -24.5116   24.3317 C   0  0  0  0  0  0  0  0  0  0  0  0
  -30.5010  -15.3066   20.6219 C   0  0  0  0  0  0  0  0  0  0  0  0
  -26.7429  -33.9412   25.0541 C   0  0  0  0  0  0  0  0  0  0  0  0
  -25.9394  -28.2831   19.6470 C   0  0  0  0  0  0  0  0  0  0  0  0
  -26.9359  -27.0514   22.1439 C   0  0  0  0  0  0  0  0  0  0  0  0
  -27.8954  -33.0613   24.5811 C   0  0  0  0  0  0  0  0  0  0  0  0
  -29.7276  -12.5045   18.5659 C   0  0  0  0  0  0  0  0  0  0  0  0
  -27.3518  -31.8038   23.9196 C   0  0  0  0  0  0  0  0  0  0  0  0
  -28.2934  -12.1468   18.9596 C   0  0  0  0  0  0  0  0  0  0  0  0
  -30.5403  -12.9817   19.7675 C   0  0  0  0  0  0  0  0  0  0  0  0
  -30.9192  -20.4636   21.3154 C   0  0  0  0  0  0  0  0  0  0  0  0
  -28.9422  -20.7954   19.8817 C   0  0  0  0  0  0  0  0  0  0  0  0
  -28.4955  -13.7303   20.9218 C   0  0  0  0  0  0  0  0  0  0  0  0
  -31.7789  -21.2594   20.3426 C   0  0  0  0  0  0  0  0  0  0  0  0
  -29.7720  -21.5942   18.8873 C   0  0  0  0  0  0  0  0  0  0  0  0
  -26.5394  -32.1536   22.6663 C   0  0  1  0  0  0  0  0  0  0  0  0
  -25.6034  -28.8622   21.0178 C   0  0  1  0  0  0  0  0  0  0  0  0
  -27.6207  -13.2968   19.7331 C   0  0  2  0  0  0  0  0  0  0  0  0
  -23.5040  -22.7416   24.8741 C   0  0  0  0  0  0  0  0  0  0  0  0
  -30.9971  -17.7106   25.3580 C   0  0  0  0  0  0  0  0  0  0  0  0
  -32.6134  -17.2544   23.5036 C   0  0  0  0  0  0  0  0  0  0  0  0
  -24.9762  -28.9603   25.9677 C   0  0  0  0  0  0  0  0  0  0  0  0
  -24.7994  -26.6051   26.7984 C   0  0  0  0  0  0  0  0  0  0  0  0
  -22.9166  -27.6168   25.5122 C   0  0  0  0  0  0  0  0  0  0  0  0
  -26.4747  -22.5656   22.5034 C   0  0  0  0  0  0  0  0  0  0  0  0
  -30.2385  -18.0321   22.9837 C   0  0  0  0  0  0  0  0  0  0  0  0
  -31.7165  -23.1512   18.7140 C   0  0  0  0  0  0  0  0  0  0  0  0
  -30.9160  -24.3969   18.3891 C   0  0  0  0  0  0  0  0  0  1  0  0
  -25.0463  -26.9876   24.3036 C   0  0  1  0  0  0  0  0  0  0  0  0
  -30.3056  -17.6118   21.5203 C   0  0  1  0  0  0  0  0  0  0  0  0
  -24.4822  -23.2684   23.8356 C   0  0  2  0  0  0  0  0  0  0  0  0
  -31.1427  -17.2053   23.9200 C   0  0  0  0  0  0  0  0  0  0  0  0
  -24.4551  -27.5499   25.6272 C   0  0  0  0  0  0  0  0  0  0  0  0
  -25.9346  -11.6525   20.4652 N   0  0  0  0  0  0  0  0  0  0  0  0
  -26.2121  -12.9326   20.1645 N   0  0  0  0  0  0  0  0  0  0  0  0
  -25.7156  -27.8734   22.0920 N   0  0  0  0  0  0  0  0  0  0  0  0
  -29.7774  -19.8528   20.6263 N   0  0  0  0  0  0  0  0  0  0  0  0
  -29.8482  -14.0739   20.4561 N   0  0  0  0  0  0  0  0  0  0  0  0
  -25.2495  -15.0927   20.0300 N   0  0  0  0  0  0  0  0  0  0  0  0
  -21.8087  -12.5013   21.3871 N   0  0  0  0  0  0  0  0  0  0  0  0
  -25.8708  -30.9630   22.1896 N   0  0  0  0  0  0  0  0  0  0  0  0
  -24.5497  -25.6643   23.9421 N   0  0  0  0  0  0  0  0  0  0  0  0
  -29.7718  -16.2897   21.2796 N   0  0  0  0  0  0  0  0  0  0  0  0
  -30.9100  -22.2663   19.6225 N   0  3  0  0  0  0  0  0  0  0  0  0
  -25.4659  -22.1920   23.5280 N   0  3  0  0  0  0  0  0  0  0  0  0
  -22.4223  -14.6391   20.8286 O   0  0  0  0  0  0  0  0  0  0  0  0
  -27.6443  -30.0493   20.9887 O   0  0  0  0  0  0  0  0  0  0  0  0
  -23.7321  -28.5591   23.1078 O   0  0  0  0  0  0  0  0  0  0  0  0
  -28.4599  -18.0162   20.0908 O   0  0  0  0  0  0  0  0  0  0  0  0
  -26.2278  -24.4647   25.0014 O   0  0  0  0  0  0  0  0  0  0  0  0
  -31.6466  -15.5172   20.2094 O   0  0  0  0  0  0  0  0  0  0  0  0
  -21.9865   -7.0122   22.3177 O   0  0  0  0  0  0  0  0  0  0  0  0
  -30.6313  -25.1091   19.5925 O   0  0  0  0  0  0  0  0  0  1  0  0
  -17.1000   -7.5401   24.8173 F   0  0  0  0  0  0  0  0  0  0  0  0
  -21.5847   -6.0266   24.8692 F   0  0  0  0  0  0  0  0  0  0  0  0
  1  2  1  0  0  0  0
  1  5  2  0  0  0  0
  2  6  2  0  0  0  0
  3  8  2  0  0  0  0
  3 15  1  0  0  0  0
  4  9  1  0  0  0  0
  4 15  2  0  0  0  0
  5 17  1  0  0  0  0
  6 19  1  0  0  0  0
  7 10  2  0  0  0  0
  7 18  1  0  0  0  0
  8 21  1  0  0  0  0
  9 21  2  0  0  0  0
 10 22  1  0  0  0  0
 11 12  2  0  0  0  0
 11 23  1  0  0  0  0
 12 24  1  0  0  0  0
 13 20  1  0  0  0  0
 13 22  2  0  0  0  0
 14 24  2  0  0  0  0
 14 25  1  0  0  0  0
 15 26  1  0  0  0  0
 16 26  1  0  0  0  0
 16 27  2  0  0  0  0
 16 28  1  0  0  0  0
 17 19  2  0  0  0  0
 17 34  1  0  0  0  0
 18 20  2  0  0  0  0
 18 35  1  0  0  0  0
 19 47  1  0  0  0  0
 20 36  1  0  0  0  0
 21 83  1  0  0  0  0
 22 84  1  0  0  0  0
 23 25  2  0  0  0  0
 23 83  1  0  0  0  0
 24 85  1  0  0  0  0
 25 86  1  0  0  0  0
 26 65  2  0  0  0  0
 27 66  1  0  0  0  0
 27 70  1  0  0  0  0
 28 71  1  0  0  0  0
 28 77  2  0  0  0  0
 29 48  1  0  0  0  0
 29 72  1  0  0  0  0
 29 78  2  0  0  0  0
 30 60  1  0  0  0  0
 30 67  1  0  0  0  0
 30 79  2  0  0  0  0
 31 61  1  0  0  0  0
 31 68  1  0  0  0  0
 31 80  2  0  0  0  0
 32 62  1  0  0  0  0
 32 73  1  0  0  0  0
 32 81  2  0  0  0  0
 33 69  1  0  0  0  0
 33 74  1  0  0  0  0
 33 82  2  0  0  0  0
 34 37  1  0  0  0  0
 35 48  1  0  0  0  0
 36 67  1  0  0  0  0
 37 39  1  0  0  0  0
 38 40  1  0  0  0  0
 38 41  1  0  0  0  0
 39 47  1  0  0  0  0
 40 49  1  0  0  0  0
 41 69  1  0  0  0  0
 42 45  1  0  0  0  0
 42 68  1  0  0  0  0
 43 46  1  0  0  0  0
 43 68  1  0  0  0  0
 44 49  1  0  0  0  0
 44 69  1  0  0  0  0
 45 75  1  0  0  0  0
 46 75  1  0  0  0  0
 47 72  1  0  0  0  0
 48 67  1  0  0  0  0
 49 66  1  0  0  0  0
 50 62  1  0  0  0  0
 51 63  1  0  0  0  0
 52 63  1  0  0  0  0
 53 64  1  0  0  0  0
 54 64  1  0  0  0  0
 55 64  1  0  0  0  0
 56 76  1  0  0  0  0
 57 61  1  0  0  0  0
 57 63  1  0  0  0  0
 58 59  1  0  0  0  0
 58 75  1  0  0  0  0
 59 84  1  0  0  0  0
 60 64  1  0  0  0  0
 60 73  1  0  0  0  0
 61 74  1  0  0  0  0
 62 76  1  0  0  0  0
 65 66  1  0  0  0  0
M  CHG  2  75   1  76   1
M  ISO  4  33 100  59 101  74 100  84 101
M  END
> <Batch ID>
0114

> <Smiles>
CNC(C)C(=O)NC(C(=O)N1Cc2cc([101O:1][101CH2:1]CN3CCN(C(=O)C(CC(C)C)[100NH:0][100C:0](=O)N4CCCC(n5nc(-c6ccc(Oc7ccc(F)cc7F)cc6)c(C(N)=O)c5N)C4)CC3)ccc2CC1C(=O)NC1CCCc2ccccc21)C(C)(C)C

> <Shape>
0.335

> <Color>
0.205

> <Negative vol penalty>
0.000

$$$$

  -OEChem-04052320083D

 84 92  0     1  0  0  0  0  0999 V2000
  -30.0992  -39.4411   22.6304 C   0  0  0  0  0  0  0  0  0  0  0  0
  -30.4563  -38.2146   22.0793 C   0  0  0  0  0  0  0  0  0  0  0  0
  -22.3908  -12.6576   18.8595 C   0  0  0  0  0  0  0  0  0  0  0  0
  -22.8425  -10.4054   19.6084 C   0  0  0  0  0  0  0  0  0  0  0  0
  -29.3318  -39.4845   23.7936 C   0  0  0  0  0  0  0  0  0  0  0  0
  -30.0469  -37.0307   22.6918 C   0  0  0  0  0  0  0  0  0  0  0  0
  -28.5278  -31.7856   19.9193 C   0  0  0  0  0  0  0  0  0  0  0  0
  -21.2574  -12.2056   18.1837 C   0  0  0  0  0  0  0  0  0  0  0  0
  -21.7091   -9.9534   18.9326 C   0  0  0  0  0  0  0  0  0  0  0  0
  -29.2380  -30.6091   19.6840 C   0  0  0  0  0  0  0  0  0  0  0  0
  -18.7336   -8.2647   17.7026 C   0  0  0  0  0  0  0  0  0  0  0  0
  -17.8879   -7.3804   18.3723 C   0  0  0  0  0  0  0  0  0  0  0  0
  -28.2651  -29.6329   21.6638 C   0  0  0  0  0  0  0  0  0  0  0  0
  -17.5176   -9.0367   20.0918 C   0  0  0  0  0  0  0  0  0  0  0  0
  -23.1834  -11.7575   19.5718 C   0  0  0  0  0  0  0  0  0  0  0  0
  -24.4264  -12.6801   21.5995 C   0  0  0  0  0  0  0  0  0  0  0  0
  -28.9047  -38.3006   24.4153 C   0  0  0  0  0  0  0  0  0  0  0  0
  -27.6879  -31.8985   21.0366 C   0  0  0  0  0  0  0  0  0  0  0  0
  -29.2742  -37.0583   23.8652 C   0  0  0  0  0  0  0  0  0  0  0  0
  -27.5434  -30.8109   21.9097 C   0  0  0  0  0  0  0  0  0  0  0  0
  -20.9166  -10.8535   18.2203 C   0  0  0  0  0  0  0  0  0  0  0  0
  -29.1089  -29.5336   20.5578 C   0  0  0  0  0  0  0  0  0  0  0  0
  -18.9713   -9.5350   18.2276 C   0  0  0  0  0  0  0  0  0  0  0  0
  -17.2799   -7.7664   19.5669 C   0  0  0  0  0  0  0  0  0  0  0  0
  -18.3633   -9.9210   19.4221 C   0  0  0  0  0  0  0  0  0  0  0  0
  -24.3546  -12.2237   20.2697 C   0  0  0  0  0  0  0  0  0  0  0  0
  -25.7488  -13.0045   21.7802 C   0  0  0  0  0  0  0  0  0  0  0  0
  -23.3905  -12.7999   22.5834 C   0  0  0  0  0  0  0  0  0  0  0  0
  -27.6124  -33.7682   23.6061 C   0  0  0  0  0  0  0  0  0  0  0  0
  -24.7958  -32.2525   24.1459 C   0  0  0  0  0  0  0  0  0  0  0  0
  -22.8410  -29.5022   23.6339 C   0  0  0  0  0  0  0  0  0  0  0  0
  -30.4696  -15.2719   20.0982 C   0  0  0  0  0  0  0  0  0  0  0  0
  -28.1165  -38.3975   25.6975 C   0  0  0  0  0  0  0  0  0  0  0  0
  -26.9082  -33.1649   21.2617 C   0  0  0  0  0  0  0  0  0  0  0  0
  -26.6391  -30.8742   23.1124 C   0  0  0  0  0  0  0  0  0  0  0  0
  -27.4073  -37.0998   26.0761 C   0  0  0  0  0  0  0  0  0  0  0  0
  -29.8007  -12.0744   18.9156 C   0  0  0  0  0  0  0  0  0  0  0  0
  -29.8626  -18.2480   22.3698 C   0  0  0  0  0  0  0  0  0  0  0  0
  -28.3554  -35.9130   25.9364 C   0  0  0  0  0  0  0  0  0  0  0  0
  -28.3283  -11.8557   19.2604 C   0  0  0  0  0  0  0  0  0  0  0  0
  -30.1920  -19.6143   21.7733 C   0  0  0  0  0  0  0  0  0  0  0  0
  -29.9813  -18.8104   19.3343 C   0  0  0  0  0  0  0  0  0  0  0  0
  -30.0395  -13.4978   18.4262 C   0  0  0  0  0  0  0  0  0  0  0  0
  -30.6329  -17.1091   21.7094 C   0  0  0  0  0  0  0  0  0  0  0  0
  -29.3119  -17.4549   19.5739 C   0  0  0  0  0  0  0  0  0  0  0  0
  -28.1319  -14.3438   19.7571 C   0  0  0  0  0  0  0  0  0  0  0  0
  -28.8284  -35.7524   24.4866 C   0  0  1  0  0  0  0  0  0  0  0  0
  -26.4779  -33.3516   22.7134 C   0  0  1  0  0  0  0  0  0  0  0  0
  -27.8336  -12.9162   20.2590 C   0  0  1  0  0  0  0  0  0  0  0  0
  -29.5999  -19.8494   20.3872 C   0  0  2  0  0  0  0  0  0  0  0  0
  -20.6044  -28.5357   24.2344 C   0  0  0  0  0  0  0  0  0  0  0  0
  -29.1633  -26.2390   18.4248 C   0  0  0  0  0  0  0  0  0  0  0  0
  -25.8427  -31.5646   26.9282 C   0  0  0  0  0  0  0  0  0  0  0  0
  -24.0299  -29.8474   27.1097 C   0  0  0  0  0  0  0  0  0  0  0  0
  -23.4410  -32.2585   26.8594 C   0  0  0  0  0  0  0  0  0  0  0  0
  -21.9866  -29.4197   20.8016 C   0  0  0  0  0  0  0  0  0  0  0  0
  -29.8782  -23.6282   19.9083 C   0  0  0  0  0  0  0  0  0  0  0  0
  -29.2973  -22.3285   20.4324 C   0  0  0  0  0  0  0  0  0  0  0  0
  -29.2073  -27.1678   20.7802 C   0  0  0  0  0  0  0  0  0  1  0  0
  -24.3791  -30.9995   24.8777 C   0  0  1  0  0  0  0  0  0  0  0  0
  -21.3857  -29.3628   23.2253 C   0  0  2  0  0  0  0  0  0  0  0  0
  -29.6222  -26.0143   19.8658 C   0  0  1  0  0  0  0  0  0  0  0  0
  -24.4418  -31.1667   26.4222 C   0  0  0  0  0  0  0  0  0  0  0  0
  -25.5372  -12.2542   19.6495 N   0  0  0  0  0  0  0  0  0  0  0  0
  -26.3645  -12.7337   20.5938 N   0  0  0  0  0  0  0  0  0  0  0  0
  -25.9026  -32.1361   23.2932 N   0  0  0  0  0  0  0  0  0  0  0  0
  -30.0459  -16.5620   20.4850 N   0  0  0  0  0  0  0  0  0  0  0  0
  -29.5504  -14.4805   19.3934 N   0  0  0  0  0  0  0  0  0  0  0  0
  -26.4332  -13.4923   22.8366 N   0  0  0  0  0  0  0  0  0  0  0  0
  -22.0876  -12.4223   22.2312 N   0  0  0  0  0  0  0  0  0  0  0  0
  -27.7947  -35.1358   23.6830 N   0  0  0  0  0  0  0  0  0  0  0  0
  -23.0578  -30.6493   24.3677 N   0  0  0  0  0  0  0  0  0  0  0  0
  -29.0702  -24.7764   20.3766 N   0  0  0  0  0  0  0  0  0  0  0  0
  -30.0840  -21.1829   19.9132 N   0  3  0  0  0  0  0  0  0  0  0  0
  -21.2825  -28.7004   21.8943 N   0  3  0  0  0  0  0  0  0  0  0  0
  -23.6105  -13.2446   23.7355 O   0  0  0  0  0  0  0  0  0  0  0  0
  -28.2725  -32.9124   24.1836 O   0  0  0  0  0  0  0  0  0  0  0  0
  -24.1582  -33.2942   24.3189 O   0  0  0  0  0  0  0  0  0  0  0  0
  -23.6990  -28.6744   23.3353 O   0  0  0  0  0  0  0  0  0  0  0  0
  -31.6044  -14.8584   20.3696 O   0  0  0  0  0  0  0  0  0  0  0  0
  -19.8105  -10.4121   17.5611 O   0  0  0  0  0  0  0  0  0  0  0  0
  -29.8063  -28.3764   20.3292 O   0  0  0  0  0  0  0  0  0  1  0  0
  -16.4667   -6.9177   20.2090 F   0  0  0  0  0  0  0  0  0  0  0  0
  -18.5870  -11.1405   19.9307 F   0  0  0  0  0  0  0  0  0  0  0  0
  1  2  1  0  0  0  0
  1  5  2  0  0  0  0
  2  6  2  0  0  0  0
  3  8  2  0  0  0  0
  3 15  1  0  0  0  0
  4  9  1  0  0  0  0
  4 15  2  0  0  0  0
  5 17  1  0  0  0  0
  6 19  1  0  0  0  0
  7 10  2  0  0  0  0
  7 18  1  0  0  0  0
  8 21  1  0  0  0  0
  9 21  2  0  0  0  0
 10 22  1  0  0  0  0
 11 12  2  0  0  0  0
 11 23  1  0  0  0  0
 12 24  1  0  0  0  0
 13 20  1  0  0  0  0
 13 22  2  0  0  0  0
 14 24  2  0  0  0  0
 14 25  1  0  0  0  0
 15 26  1  0  0  0  0
 16 26  1  0  0  0  0
 16 27  2  0  0  0  0
 16 28  1  0  0  0  0
 17 19  2  0  0  0  0
 17 33  1  0  0  0  0
 18 20  2  0  0  0  0
 18 34  1  0  0  0  0
 19 47  1  0  0  0  0
 20 35  1  0  0  0  0
 21 81  1  0  0  0  0
 22 82  1  0  0  0  0
 23 25  2  0  0  0  0
 23 81  1  0  0  0  0
 24 83  1  0  0  0  0
 25 84  1  0  0  0  0
 26 64  2  0  0  0  0
 27 65  1  0  0  0  0
 27 69  1  0  0  0  0
 28 70  1  0  0  0  0
 28 76  2  0  0  0  0
 29 48  1  0  0  0  0
 29 71  1  0  0  0  0
 29 77  2  0  0  0  0
 30 60  1  0  0  0  0
 30 66  1  0  0  0  0
 30 78  2  0  0  0  0
 31 61  1  0  0  0  0
 31 72  1  0  0  0  0
 31 79  2  0  0  0  0
 32 67  1  0  0  0  0
 32 68  1  0  0  0  0
 32 80  2  0  0  0  0
 33 36  1  0  0  0  0
 34 48  1  0  0  0  0
 35 66  1  0  0  0  0
 36 39  1  0  0  0  0
 37 40  1  0  0  0  0
 37 43  1  0  0  0  0
 38 41  1  0  0  0  0
 38 44  1  0  0  0  0
 39 47  1  0  0  0  0
 40 49  1  0  0  0  0
 41 50  1  0  0  0  0
 42 45  1  0  0  0  0
 42 50  1  0  0  0  0
 43 68  1  0  0  0  0
 44 67  1  0  0  0  0
 45 67  1  0  0  0  0
 46 49  1  0  0  0  0
 46 68  1  0  0  0  0
 47 71  1  0  0  0  0
 48 66  1  0  0  0  0
 49 65  1  0  0  0  0
 50 74  1  0  0  0  0
 51 61  1  0  0  0  0
 52 62  1  0  0  0  0
 53 63  1  0  0  0  0
 54 63  1  0  0  0  0
 55 63  1  0  0  0  0
 56 75  1  0  0  0  0
 57 58  1  0  0  0  0
 57 73  1  0  0  0  0
 58 74  1  0  0  0  0
 59 62  1  0  0  0  0
 59 82  1  0  0  0  0
 60 63  1  0  0  0  0
 60 72  1  0  0  0  0
 61 75  1  0  0  0  0
 62 73  1  0  0  0  0
 64 65  1  0  0  0  0
M  CHG  2  74   1  75   1
M  ISO  4  32 100  59 101  67 100  82 101
M  END
> <Batch ID>
0114

> <Smiles>
CNC(C)C(=O)NC(C(=O)N1Cc2cc([101O:1][101CH2:1]C(C)NCCNC3CCC[100N:0]([100C:0](=O)N4CCCC(n5nc(-c6ccc(Oc7ccc(F)cc7F)cc6)c(C(N)=O)c5N)C4)CC3)ccc2CC1C(=O)NC1CCCc2ccccc21)C(C)(C)C

> <Shape>
0.291

> <Color>
0.101

> <Negative vol penalty>
0.000

$$$$

  -OEChem-04052320083D

 82 90  0     1  0  0  0  0  0999 V2000
  -19.3741  -29.5624   22.3710 C   0  0  0  0  0  0  0  0  0  0  0  0
  -20.7227  -29.2227   22.3358 C   0  0  0  0  0  0  0  0  0  0  0  0
  -26.3235  -12.6313   21.6279 C   0  0  0  0  0  0  0  0  0  0  0  0
  -25.7923  -13.5372   19.4521 C   0  0  0  0  0  0  0  0  0  0  0  0
  -18.4084  -28.5652   22.5013 C   0  0  0  0  0  0  0  0  0  0  0  0
  -21.1065  -27.8856   22.4321 C   0  0  0  0  0  0  0  0  0  0  0  0
  -24.6765  -26.6418   19.0627 C   0  0  0  0  0  0  0  0  0  0  0  0
  -25.1395  -11.8941   21.6101 C   0  0  0  0  0  0  0  0  0  0  0  0
  -24.6083  -12.7999   19.4342 C   0  0  0  0  0  0  0  0  0  0  0  0
  -25.9846  -27.0303   19.3483 C   0  0  0  0  0  0  0  0  0  0  0  0
  -24.0045   -9.0379   20.2005 C   0  0  0  0  0  0  0  0  0  0  0  0
  -24.0666   -7.7021   20.5973 C   0  0  0  0  0  0  0  0  0  0  0  0
  -26.4696  -24.8008   20.1314 C   0  0  0  0  0  0  0  0  0  0  0  0
  -22.4948   -8.1571   22.3749 C   0  0  0  0  0  0  0  0  0  0  0  0
  -31.3182  -24.9924   19.8019 C   0  0  0  0  0  0  0  0  0  0  0  0
  -26.6499  -13.4529   20.5489 C   0  0  0  0  0  0  0  0  0  0  0  0
  -29.1338  -13.8103   20.0904 C   0  0  0  0  0  0  0  0  0  0  0  0
  -18.7801  -27.2143   22.5896 C   0  0  0  0  0  0  0  0  0  0  0  0
  -24.2513  -25.3305   19.3199 C   0  0  0  0  0  0  0  0  0  0  0  0
  -20.1450  -26.8695   22.5651 C   0  0  0  0  0  0  0  0  0  0  0  0
  -25.1562  -24.3974   19.8458 C   0  0  0  0  0  0  0  0  0  0  0  0
  -30.5472  -25.7890   18.9912 C   0  0  0  0  0  0  0  0  0  0  0  0
  -24.2819  -11.9784   20.5132 C   0  0  0  0  0  0  0  0  0  0  0  0
  -26.8806  -26.1106   19.8854 C   0  0  0  0  0  0  0  0  0  0  0  0
  -23.1877   -9.9333   20.8910 C   0  0  0  0  0  0  0  0  0  0  0  0
  -23.3117   -7.2617   21.6844 C   0  0  0  0  0  0  0  0  0  0  0  0
  -22.4328   -9.4929   21.9781 C   0  0  0  0  0  0  0  0  0  0  0  0
  -27.8725  -14.2151   20.5670 C   0  0  0  0  0  0  0  0  0  0  0  0
  -30.1000  -24.9263   17.9726 C   0  0  0  0  0  0  0  0  0  0  0  0
  -29.9544  -14.8838   20.3360 C   0  0  0  0  0  0  0  0  0  0  0  0
  -29.5282  -12.5743   19.4800 C   0  0  0  0  0  0  0  0  0  0  0  0
  -22.0481  -24.0140   21.1952 C   0  0  0  0  0  0  0  0  0  0  0  0
  -22.9278  -21.2944   19.6613 C   0  0  0  0  0  0  0  0  0  0  0  0
  -25.3178  -19.5978   17.9132 C   0  0  0  0  0  0  0  0  0  0  0  0
  -30.8080  -20.3237   19.9831 C   0  0  0  0  0  0  0  0  0  0  0  0
  -17.7027  -26.1757   22.7770 C   0  0  0  0  0  0  0  0  0  0  0  0
  -22.8445  -24.9199   18.9813 C   0  0  0  0  0  0  0  0  0  0  0  0
  -24.7552  -22.9721   20.1215 C   0  0  0  0  0  0  0  0  0  0  0  0
  -18.1744  -24.7513   22.4962 C   0  0  0  0  0  0  0  0  0  0  0  0
  -29.2194  -19.0505   23.0718 C   0  0  0  0  0  0  0  0  0  0  0  0
  -19.5133  -24.4881   23.1781 C   0  0  0  0  0  0  0  0  0  0  0  0
  -28.7790  -17.6610   22.6222 C   0  0  0  0  0  0  0  0  0  0  0  0
  -29.1612  -20.0683   21.9336 C   0  0  0  0  0  0  0  0  0  0  0  0
  -29.4825  -18.2541   20.2722 C   0  0  0  0  0  0  0  0  0  0  0  0
  -20.5997  -25.4282   22.6419 C   0  0  1  0  0  0  0  0  0  0  0  0
  -22.3743  -23.6971   19.7631 C   0  0  1  0  0  0  0  0  0  0  0  0
  -29.5839  -17.2100   21.3943 C   0  0  2  0  0  0  0  0  0  0  0  0
  -29.2337  -25.2545   16.8268 C   0  0  0  0  0  0  0  0  0  0  0  0
  -25.7609  -17.3799   16.8260 C   0  0  0  0  0  0  0  0  0  0  0  0
  -30.7224  -28.1614   17.9810 C   0  0  0  0  0  0  0  0  0  0  0  0
  -30.9809  -27.8061   20.4274 C   0  0  0  0  0  0  0  0  0  0  0  0
  -23.3865  -20.0434   22.4062 C   0  0  0  0  0  0  0  0  0  0  0  0
  -24.6978  -18.2301   21.2834 C   0  0  0  0  0  0  0  0  0  0  0  0
  -22.2816  -18.5362   20.7443 C   0  0  0  0  0  0  0  0  0  0  0  0
  -25.6507  -20.8401   15.2477 C   0  0  0  0  0  0  0  0  0  0  0  0
  -28.7248  -27.5151   19.3540 C   0  0  0  0  0  0  0  0  0  1  0  0
  -31.9820  -22.5193   19.7588 C   0  0  0  0  0  0  0  0  0  0  0  0
  -23.9640  -20.2220   19.8961 C   0  0  1  0  0  0  0  0  0  0  0  0
  -25.2457  -18.7966   16.6257 C   0  0  2  0  0  0  0  0  0  0  0  0
  -30.2475  -27.2894   19.1682 C   0  0  0  0  0  0  0  0  0  0  0  0
  -23.5898  -19.2852   21.0792 C   0  0  0  0  0  0  0  0  0  0  0  0
  -27.8859  -15.4494   21.0771 N   0  0  0  0  0  0  0  0  0  0  0  0
  -30.5496  -23.6773   18.1204 N   0  0  0  0  0  0  0  0  0  0  0  0
  -31.2875  -23.7494   19.2413 N   0  0  0  0  0  0  0  0  0  0  0  0
  -29.1657  -15.8295   20.9224 N   0  0  0  0  0  0  0  0  0  0  0  0
  -23.3670  -22.6207   19.7794 N   0  0  0  0  0  0  0  0  0  0  0  0
  -29.8738  -19.5901   20.7382 N   0  0  0  0  0  0  0  0  0  0  0  0
  -31.2666  -15.1018   20.1056 N   0  0  0  0  0  0  0  0  0  0  0  0
  -28.5590  -11.5776   19.3025 N   0  0  0  0  0  0  0  0  0  0  0  0
  -21.0673  -24.9750   21.3494 N   0  0  0  0  0  0  0  0  0  0  0  0
  -24.1361  -19.5345   18.6209 N   0  0  0  0  0  0  0  0  0  0  0  0
  -31.0541  -21.6189   20.4250 N   0  0  0  0  0  0  0  0  0  0  0  0
  -26.0632  -19.4483   15.5637 N   0  3  0  0  0  0  0  0  0  0  0  0
  -30.7089  -12.3539   19.1181 O   0  0  0  0  0  0  0  0  0  0  0  0
  -22.6413  -23.4287   22.0937 O   0  0  0  0  0  0  0  0  0  0  0  0
  -21.7730  -20.9675   19.3765 O   0  0  0  0  0  0  0  0  0  0  0  0
  -26.3231  -20.2147   18.2584 O   0  0  0  0  0  0  0  0  0  0  0  0
  -31.3718  -19.8598   18.9863 O   0  0  0  0  0  0  0  0  0  0  0  0
  -23.1266  -11.2590   20.4954 O   0  0  0  0  0  0  0  0  0  0  0  0
  -28.1578  -26.4875   20.1657 O   0  0  0  0  0  0  0  0  0  1  0  0
  -23.3702   -5.9786   22.0644 F   0  0  0  0  0  0  0  0  0  0  0  0
  -21.6454  -10.3482   22.6446 F   0  0  0  0  0  0  0  0  0  0  0  0
  1  2  1  0  0  0  0
  1  5  2  0  0  0  0
  2  6  2  0  0  0  0
  3  8  2  0  0  0  0
  3 16  1  0  0  0  0
  4  9  1  0  0  0  0
  4 16  2  0  0  0  0
  5 18  1  0  0  0  0
  6 20  1  0  0  0  0
  7 10  2  0  0  0  0
  7 19  1  0  0  0  0
  8 23  1  0  0  0  0
  9 23  2  0  0  0  0
 10 24  1  0  0  0  0
 11 12  2  0  0  0  0
 11 25  1  0  0  0  0
 12 26  1  0  0  0  0
 13 21  1  0  0  0  0
 13 24  2  0  0  0  0
 14 26  2  0  0  0  0
 14 27  1  0  0  0  0
 15 22  2  0  0  0  0
 15 64  1  0  0  0  0
 16 28  1  0  0  0  0
 17 28  1  0  0  0  0
 17 30  2  0  0  0  0
 17 31  1  0  0  0  0
 18 20  2  0  0  0  0
 18 36  1  0  0  0  0
 19 21  2  0  0  0  0
 19 37  1  0  0  0  0
 20 45  1  0  0  0  0
 21 38  1  0  0  0  0
 22 29  1  0  0  0  0
 22 60  1  0  0  0  0
 23 79  1  0  0  0  0
 24 80  1  0  0  0  0
 25 27  2  0  0  0  0
 25 79  1  0  0  0  0
 26 81  1  0  0  0  0
 27 82  1  0  0  0  0
 28 62  2  0  0  0  0
 29 48  1  0  0  0  0
 29 63  2  0  0  0  0
 30 65  1  0  0  0  0
 30 68  1  0  0  0  0
 31 69  1  0  0  0  0
 31 74  2  0  0  0  0
 32 46  1  0  0  0  0
 32 70  1  0  0  0  0
 32 75  2  0  0  0  0
 33 58  1  0  0  0  0
 33 66  1  0  0  0  0
 33 76  2  0  0  0  0
 34 59  1  0  0  0  0
 34 71  1  0  0  0  0
 34 77  2  0  0  0  0
 35 67  1  0  0  0  0
 35 72  1  0  0  0  0
 35 78  2  0  0  0  0
 36 39  1  0  0  0  0
 37 46  1  0  0  0  0
 38 66  1  0  0  0  0
 39 41  1  0  0  0  0
 40 42  1  0  0  0  0
 40 43  1  0  0  0  0
 41 45  1  0  0  0  0
 42 47  1  0  0  0  0
 43 67  1  0  0  0  0
 44 47  1  0  0  0  0
 44 67  1  0  0  0  0
 45 70  1  0  0  0  0
 46 66  1  0  0  0  0
 47 65  1  0  0  0  0
 49 59  1  0  0  0  0
 50 60  1  0  0  0  0
 51 60  1  0  0  0  0
 52 61  1  0  0  0  0
 53 61  1  0  0  0  0
 54 61  1  0  0  0  0
 55 73  1  0  0  0  0
 56 60  1  0  0  0  0
 56 80  1  0  0  0  0
 57 64  1  0  0  0  0
 57 72  1  0  0  0  0
 58 61  1  0  0  0  0
 58 71  1  0  0  0  0
 59 73  1  0  0  0  0
 62 65  1  0  0  0  0
 63 64  1  0  0  0  0
M  CHG  1  73   1
M  ISO  4  35 100  56 101  72 100  80 101
M  END
> <Batch ID>
0114

> <Smiles>
CNC(C)C(=O)NC(C(=O)N1Cc2cc([101O:1][101CH2:1]C(C)(C)c3cn(C[100NH:0][100C:0](=O)N4CCCC(n5nc(-c6ccc(Oc7ccc(F)cc7F)cc6)c(C(N)=O)c5N)C4)nc3C)ccc2CC1C(=O)NC1CCCc2ccccc21)C(C)(C)C

> <Shape>
0.259

> <Color>
0.073

> <Negative vol penalty>
0.000

$$$$

  -OEChem-04052320083D

 85 93  0     1  0  0  0  0  0999 V2000
  -30.9818  -30.3480   27.0296 C   0  0  0  0  0  0  0  0  0  0  0  0
  -30.6800  -29.5654   25.9197 C   0  0  0  0  0  0  0  0  0  0  0  0
  -22.3814  -10.4417   22.2472 C   0  0  0  0  0  0  0  0  0  0  0  0
  -22.3547  -10.1325   19.8512 C   0  0  0  0  0  0  0  0  0  0  0  0
  -29.9536  -30.8739   27.8107 C   0  0  0  0  0  0  0  0  0  0  0  0
  -29.3497  -29.3074   25.5909 C   0  0  0  0  0  0  0  0  0  0  0  0
  -26.9967  -28.7093   19.9685 C   0  0  0  0  0  0  0  0  0  0  0  0
  -21.8320   -9.1709   22.4174 C   0  0  0  0  0  0  0  0  0  0  0  0
  -21.8053   -8.8617   20.0213 C   0  0  0  0  0  0  0  0  0  0  0  0
  -26.6842  -27.5912   19.1965 C   0  0  0  0  0  0  0  0  0  0  0  0
  -22.9067   -5.9654   22.3672 C   0  0  0  0  0  0  0  0  0  0  0  0
  -23.4651   -5.1435   23.3461 C   0  0  0  0  0  0  0  0  0  0  0  0
  -24.3943  -27.7227   19.9436 C   0  0  0  0  0  0  0  0  0  0  0  0
  -26.6894  -19.4840   18.0922 C   0  0  0  0  0  0  0  0  0  0  0  0
  -27.1155  -21.5520   19.2437 C   0  0  0  0  0  0  0  0  0  0  0  0
  -21.3325   -5.0414   24.4768 C   0  0  0  0  0  0  0  0  0  0  0  0
  -22.6427  -10.9225   20.9642 C   0  0  0  0  0  0  0  0  0  0  0  0
  -24.5757  -12.5706   20.7291 C   0  0  0  0  0  0  0  0  0  0  0  0
  -28.6099  -30.6302   27.4857 C   0  0  0  0  0  0  0  0  0  0  0  0
  -26.0110  -29.3370   20.7437 C   0  0  0  0  0  0  0  0  0  0  0  0
  -28.3026  -29.8295   26.3691 C   0  0  0  0  0  0  0  0  0  0  0  0
  -24.6962  -28.8501   20.7225 C   0  0  0  0  0  0  0  0  0  0  0  0
  -27.4988  -20.2557   18.9183 C   0  0  0  0  0  0  0  0  0  0  0  0
  -21.5440   -8.3809   21.3044 C   0  0  0  0  0  0  0  0  0  0  0  0
  -25.3836  -27.0960   19.1862 C   0  0  0  0  0  0  0  0  0  0  0  0
  -21.5612   -6.3254   22.4431 C   0  0  0  0  0  0  0  0  0  0  0  0
  -22.6780   -4.6815   24.4009 C   0  0  0  0  0  0  0  0  0  0  0  0
  -20.7741   -5.8633   23.4979 C   0  0  0  0  0  0  0  0  0  0  0  0
  -23.2096  -12.2354   20.7878 C   0  0  0  0  0  0  0  0  0  0  0  0
  -25.5158  -20.0504   17.6213 C   0  0  0  0  0  0  0  0  0  0  0  0
  -25.9229  -22.0260   18.7211 C   0  0  0  0  0  0  0  0  0  0  0  0
  -24.5877  -13.9326   20.5524 C   0  0  0  0  0  0  0  0  0  0  0  0
  -25.7304  -11.7262   20.8256 C   0  0  0  0  0  0  0  0  0  0  0  0
  -25.5985  -29.8627   23.8512 C   0  0  0  0  0  0  0  0  0  0  0  0
  -23.0530  -31.5911   22.8238 C   0  0  0  0  0  0  0  0  0  0  0  0
  -20.7311  -32.1613   20.3886 C   0  0  0  0  0  0  0  0  0  0  0  0
  -22.6508  -18.5338   18.0579 C   0  0  0  0  0  0  0  0  0  0  0  0
  -27.5335  -31.1809   28.3873 C   0  0  0  0  0  0  0  0  0  0  0  0
  -26.3582  -30.5583   21.5501 C   0  0  0  0  0  0  0  0  0  0  0  0
  -23.5970  -29.5000   21.5212 C   0  0  0  0  0  0  0  0  0  0  0  0
  -26.1446  -31.1709   27.7541 C   0  0  0  0  0  0  0  0  0  0  0  0
  -20.8540  -17.3288   20.8857 C   0  0  0  0  0  0  0  0  0  0  0  0
  -25.8691  -29.8242   27.0928 C   0  0  0  0  0  0  0  0  0  0  0  0
  -21.4148  -15.9224   21.1032 C   0  0  0  0  0  0  0  0  0  0  0  0
  -20.7555  -17.6737   19.4013 C   0  0  0  0  0  0  0  0  0  0  0  0
  -22.5683  -16.0948   18.8586 C   0  0  0  0  0  0  0  0  0  0  0  0
  -26.8715  -29.5477   25.9657 C   0  0  1  0  0  0  0  0  0  0  0  0
  -25.3901  -30.8084   22.7024 C   0  0  1  0  0  0  0  0  0  0  0  0
  -22.7388  -15.7226   20.3414 C   0  0  2  0  0  0  0  0  0  0  0  0
  -18.7574  -33.6146   19.8501 C   0  0  0  0  0  0  0  0  0  0  0  0
  -29.7427  -19.2928   18.2989 C   0  0  0  0  0  0  0  0  0  0  0  0
  -28.5134  -18.4209   20.3150 C   0  0  0  0  0  0  0  0  0  0  0  0
  -29.5968  -20.6580   20.3718 C   0  0  0  0  0  0  0  0  0  0  0  0
  -21.3279  -29.9516   24.7334 C   0  0  0  0  0  0  0  0  0  0  0  0
  -19.3094  -30.7568   23.4902 C   0  0  0  0  0  0  0  0  0  0  0  0
  -20.7813  -32.3912   24.6671 C   0  0  0  0  0  0  0  0  0  0  0  0
  -22.0686  -33.2938   18.0038 C   0  0  0  0  0  0  0  0  0  0  0  0
  -24.6226  -19.2506   16.7323 C   0  0  0  0  0  0  0  0  0  0  0  0
  -24.0252  -25.1637   18.9086 C   0  0  0  0  0  0  0  0  0  1  0  0
  -24.2926  -23.7384   18.4653 C   0  0  0  0  0  0  0  0  0  0  0  0
  -21.6003  -31.2912   22.5431 C   0  0  1  0  0  0  0  0  0  0  0  0
  -20.2631  -33.4430   19.7233 C   0  0  2  0  0  0  0  0  0  0  0  0
  -28.7726  -19.6956   19.4529 C   0  0  0  0  0  0  0  0  0  0  0  0
  -20.7756  -31.0841   23.8448 C   0  0  0  0  0  0  0  0  0  0  0  0
  -22.4118  -13.2988   20.6590 N   0  0  0  0  0  0  0  0  0  0  0  0
  -25.1103  -21.3060   17.9155 N   0  0  0  0  0  0  0  0  0  0  0  0
  -23.2792  -14.3155   20.5177 N   0  0  0  0  0  0  0  0  0  0  0  0
  -23.9877  -30.6876   22.2988 N   0  0  0  0  0  0  0  0  0  0  0  0
  -22.0445  -17.4644   18.7375 N   0  0  0  0  0  0  0  0  0  0  0  0
  -25.5899  -14.8280   20.4250 N   0  0  0  0  0  0  0  0  0  0  0  0
  -25.5384  -10.3497   21.0061 N   0  0  0  0  0  0  0  0  0  0  0  0
  -26.5211  -30.3021   24.7814 N   0  0  0  0  0  0  0  0  0  0  0  0
  -21.1162  -32.3753   21.6952 N   0  0  0  0  0  0  0  0  0  0  0  0
  -23.8739  -18.2517   17.4620 N   0  0  0  0  0  0  0  0  0  0  0  0
  -20.6146  -33.4331   18.2751 N   0  3  0  0  0  0  0  0  0  0  0  0
  -26.8981  -12.1811   20.7704 O   0  0  0  0  0  0  0  0  0  0  0  0
  -24.9677  -28.8129   23.8916 O   0  0  0  0  0  0  0  0  0  0  0  0
  -23.3479  -32.5941   23.4786 O   0  0  0  0  0  0  0  0  0  0  0  0
  -20.7493  -31.0779   19.8085 O   0  0  0  0  0  0  0  0  0  0  0  0
  -22.1424  -19.6581   17.9919 O   0  0  0  0  0  0  0  0  0  0  0  0
  -21.0081   -7.1408   21.4700 O   0  0  0  0  0  0  0  0  0  0  0  0
  -25.0761  -26.0044   18.4340 O   0  0  0  0  0  0  0  0  0  1  0  0
  -25.5239  -23.3005   19.0269 O   0  0  0  0  0  0  0  0  0  0  0  0
  -23.2140   -3.8909   25.3400 F   0  0  0  0  0  0  0  0  0  0  0  0
  -19.4806   -6.2048   23.5755 F   0  0  0  0  0  0  0  0  0  0  0  0
  1  2  1  0  0  0  0
  1  5  2  0  0  0  0
  2  6  2  0  0  0  0
  3  8  2  0  0  0  0
  3 17  1  0  0  0  0
  4  9  1  0  0  0  0
  4 17  2  0  0  0  0
  5 19  1  0  0  0  0
  6 21  1  0  0  0  0
  7 10  2  0  0  0  0
  7 20  1  0  0  0  0
  8 24  1  0  0  0  0
  9 24  2  0  0  0  0
 10 25  1  0  0  0  0
 11 12  2  0  0  0  0
 11 26  1  0  0  0  0
 12 27  1  0  0  0  0
 13 22  1  0  0  0  0
 13 25  2  0  0  0  0
 14 23  1  0  0  0  0
 14 30  2  0  0  0  0
 15 23  2  0  0  0  0
 15 31  1  0  0  0  0
 16 27  2  0  0  0  0
 16 28  1  0  0  0  0
 17 29  1  0  0  0  0
 18 29  1  0  0  0  0
 18 32  2  0  0  0  0
 18 33  1  0  0  0  0
 19 21  2  0  0  0  0
 19 38  1  0  0  0  0
 20 22  2  0  0  0  0
 20 39  1  0  0  0  0
 21 47  1  0  0  0  0
 22 40  1  0  0  0  0
 23 63  1  0  0  0  0
 24 81  1  0  0  0  0
 25 82  1  0  0  0  0
 26 28  2  0  0  0  0
 26 81  1  0  0  0  0
 27 84  1  0  0  0  0
 28 85  1  0  0  0  0
 29 65  2  0  0  0  0
 30 58  1  0  0  0  0
 30 66  1  0  0  0  0
 31 66  2  0  0  0  0
 31 83  1  0  0  0  0
 32 67  1  0  0  0  0
 32 70  1  0  0  0  0
 33 71  1  0  0  0  0
 33 76  2  0  0  0  0
 34 48  1  0  0  0  0
 34 72  1  0  0  0  0
 34 77  2  0  0  0  0
 35 61  1  0  0  0  0
 35 68  1  0  0  0  0
 35 78  2  0  0  0  0
 36 62  1  0  0  0  0
 36 73  1  0  0  0  0
 36 79  2  0  0  0  0
 37 69  1  0  0  0  0
 37 74  1  0  0  0  0
 37 80  2  0  0  0  0
 38 41  1  0  0  0  0
 39 48  1  0  0  0  0
 40 68  1  0  0  0  0
 41 43  1  0  0  0  0
 42 44  1  0  0  0  0
 42 45  1  0  0  0  0
 43 47  1  0  0  0  0
 44 49  1  0  0  0  0
 45 69  1  0  0  0  0
 46 49  1  0  0  0  0
 46 69  1  0  0  0  0
 47 72  1  0  0  0  0
 48 68  1  0  0  0  0
 49 67  1  0  0  0  0
 50 62  1  0  0  0  0
 51 63  1  0  0  0  0
 52 63  1  0  0  0  0
 53 63  1  0  0  0  0
 54 64  1  0  0  0  0
 55 64  1  0  0  0  0
 56 64  1  0  0  0  0
 57 75  1  0  0  0  0
 58 74  1  0  0  0  0
 59 60  1  0  0  0  0
 59 82  1  0  0  0  0
 60 83  1  0  0  0  0
 61 64  1  0  0  0  0
 61 73  1  0  0  0  0
 62 75  1  0  0  0  0
 65 67  1  0  0  0  0
M  CHG  1  75   1
M  ISO  4  37 100  59 101  74 100  82 101
M  END
> <Batch ID>
0114

> <Smiles>
CNC(C)C(=O)NC(C(=O)N1Cc2cc([101O:1][101CH2:1]COc3cc(C(C)(C)C)cc(C[100NH:0][100C:0](=O)N4CCCC(n5nc(-c6ccc(Oc7ccc(F)cc7F)cc6)c(C(N)=O)c5N)C4)n3)ccc2CC1C(=O)NC1CCCc2ccccc21)C(C)(C)C

> <Shape>
0.240

> <Color>
0.119

> <Negative vol penalty>
0.000

$$$$

  -OEChem-04052320083D

 89 98  0     1  0  0  0  0  0999 V2000
  -32.5773  -38.5830   18.3964 C   0  0  0  0  0  0  0  0  0  0  0  0
  -32.2138  -37.4246   17.7172 C   0  0  0  0  0  0  0  0  0  0  0  0
  -24.8010   -8.6780   21.5684 C   0  0  0  0  0  0  0  0  0  0  0  0
  -23.1740  -10.2952   20.8103 C   0  0  0  0  0  0  0  0  0  0  0  0
  -32.5856  -38.5988   19.7906 C   0  0  0  0  0  0  0  0  0  0  0  0
  -31.8593  -36.2809   18.4319 C   0  0  0  0  0  0  0  0  0  0  0  0
  -28.6830  -22.8657   18.4131 C   0  0  0  0  0  0  0  0  0  0  0  0
  -27.5238  -30.5900   18.0670 C   0  0  0  0  0  0  0  0  0  0  0  0
  -28.6888  -24.2338   18.1437 C   0  0  0  0  0  0  0  0  0  0  0  0
  -23.8519   -8.1266   22.4291 C   0  0  0  0  0  0  0  0  0  0  0  0
  -22.2249   -9.7438   21.6710 C   0  0  0  0  0  0  0  0  0  0  0  0
  -27.5615  -29.1995   18.1609 C   0  0  0  0  0  0  0  0  0  0  0  0
  -21.2073   -6.0315   22.2074 C   0  0  0  0  0  0  0  0  0  0  0  0
  -21.1004   -4.6414   22.2496 C   0  0  0  0  0  0  0  0  0  0  0  0
  -26.5748  -24.4650   19.2846 C   0  0  0  0  0  0  0  0  0  0  0  0
  -27.5357  -29.3672   20.5672 C   0  0  0  0  0  0  0  0  0  0  0  0
  -21.6440   -4.6710   24.6035 C   0  0  0  0  0  0  0  0  0  0  0  0
  -24.4621   -9.7624   20.7590 C   0  0  0  0  0  0  0  0  0  0  0  0
  -25.6966   -9.9635   18.5357 C   0  0  0  0  0  0  0  0  0  0  0  0
  -32.2218  -37.4576   20.5227 C   0  0  0  0  0  0  0  0  0  0  0  0
  -27.5027  -31.3812   19.2246 C   0  0  0  0  0  0  0  0  0  0  0  0
  -27.6194  -22.2836   19.1169 C   0  0  0  0  0  0  0  0  0  0  0  0
  -31.8641  -36.2810   19.8371 C   0  0  0  0  0  0  0  0  0  0  0  0
  -26.5642  -23.0925   19.5721 C   0  0  0  0  0  0  0  0  0  0  0  0
  -27.4952  -30.7675   20.4853 C   0  0  0  0  0  0  0  0  0  0  0  0
  -27.6341  -25.0326   18.5773 C   0  0  0  0  0  0  0  0  0  0  0  0
  -22.5639   -8.6595   22.4804 C   0  0  0  0  0  0  0  0  0  0  0  0
  -27.5704  -28.5880   19.4111 C   0  0  0  0  0  0  0  0  0  0  0  0
  -21.5325   -6.7414   23.3633 C   0  0  0  0  0  0  0  0  0  0  0  0
  -21.3187   -3.9611   23.4476 C   0  0  0  0  0  0  0  0  0  0  0  0
  -21.7508   -6.0611   24.5613 C   0  0  0  0  0  0  0  0  0  0  0  0
  -25.4422  -10.3328   19.8702 C   0  0  0  0  0  0  0  0  0  0  0  0
  -26.7114  -10.7983   18.1360 C   0  0  0  0  0  0  0  0  0  0  0  0
  -25.0714   -8.9561   17.7296 C   0  0  0  0  0  0  0  0  0  0  0  0
  -29.4328  -33.5736   20.4785 C   0  0  0  0  0  0  0  0  0  0  0  0
  -27.0253  -33.9008   22.6277 C   0  0  0  0  0  0  0  0  0  0  0  0
  -24.3193  -32.5170   24.1800 C   0  0  0  0  0  0  0  0  0  0  0  0
  -28.4953  -16.2137   19.9640 C   0  0  0  0  0  0  0  0  0  0  0  0
  -32.2915  -37.5084   22.0284 C   0  0  0  0  0  0  0  0  0  0  0  0
  -27.4352  -32.8791   19.1061 C   0  0  0  0  0  0  0  0  0  0  0  0
  -25.3892  -22.4966   20.3070 C   0  0  0  0  0  0  0  0  0  0  0  0
  -27.4530  -31.5713   21.7583 C   0  0  0  0  0  0  0  0  0  0  0  0
  -27.6529  -20.8102   19.4161 C   0  0  0  0  0  0  0  0  0  0  0  0
  -31.5414  -36.3679   22.7117 C   0  0  0  0  0  0  0  0  0  0  0  0
  -30.4492  -13.2393   19.8568 C   0  0  0  0  0  0  0  0  0  0  0  0
  -31.8776  -35.0355   22.0494 C   0  0  0  0  0  0  0  0  0  0  0  0
  -29.4105  -12.1238   19.7276 C   0  0  0  0  0  0  0  0  0  0  0  0
  -29.9525  -14.3721   20.7523 C   0  0  0  0  0  0  0  0  0  0  0  0
  -27.6057  -13.8203   20.2406 C   0  0  0  0  0  0  0  0  0  0  0  0
  -31.4493  -35.0277   20.5770 C   0  0  1  0  0  0  0  0  0  0  0  0
  -27.9356  -33.6003   20.3539 C   0  0  1  0  0  0  0  0  0  0  0  0
  -28.0390  -12.6813   19.3018 C   0  0  2  0  0  0  0  0  0  0  0  0
  -25.6810  -21.1428   20.9699 C   0  0  2  0  0  0  0  0  0  0  0  0
  -22.5777  -33.0132   25.9172 C   0  0  0  0  0  0  0  0  0  0  0  0
  -26.0957  -22.5004   23.0407 C   0  0  0  0  0  0  0  0  0  0  0  0
  -26.3964  -20.0083   23.0921 C   0  0  0  0  0  0  0  0  0  0  0  0
  -25.8964  -17.9477   18.0129 C   0  0  0  0  0  0  0  0  0  0  0  0
  -25.1208  -18.3750   20.9296 C   0  0  0  0  0  0  0  0  0  0  0  0
  -29.0953  -33.4596   24.8255 C   0  0  0  0  0  0  0  0  0  0  0  0
  -27.2116  -33.0195   26.4150 C   0  0  0  0  0  0  0  0  0  0  0  0
  -27.4186  -35.2492   25.3157 C   0  0  0  0  0  0  0  0  0  0  0  0
  -22.1171  -32.2125   22.2263 C   0  0  0  0  0  0  0  0  0  0  0  0
  -27.6365  -26.4949   18.2839 C   0  0  0  0  0  0  0  0  0  1  0  0
  -26.6757  -33.2571   23.9477 C   0  0  1  0  0  0  0  0  0  0  0  0
  -22.9222  -33.0526   24.4365 C   0  0  2  0  0  0  0  0  0  0  0  0
  -26.5187  -21.2702   22.2420 C   0  0  0  0  0  0  0  0  0  0  0  0
  -26.9174  -17.9482   19.1511 C   0  0  1  0  0  0  0  0  0  0  0  0
  -26.4601  -18.8098   20.3437 C   0  0  1  0  0  0  0  0  0  0  0  0
  -27.6031  -33.7310   25.1022 C   0  0  0  0  0  0  0  0  0  0  0  0
  -26.2319  -11.3248   20.2902 N   0  0  0  0  0  0  0  0  0  0  0  0
  -26.9924  -11.5859   19.2134 N   0  0  0  0  0  0  0  0  0  0  0  0
  -27.3940  -33.0327   21.5903 N   0  0  0  0  0  0  0  0  0  0  0  0
  -28.6485  -14.8569   20.2936 N   0  0  0  0  0  0  0  0  0  0  0  0
  -27.3819  -10.9280   16.9715 N   0  0  0  0  0  0  0  0  0  0  0  0
  -24.0451   -8.1883   18.2966 N   0  0  0  0  0  0  0  0  0  0  0  0
  -30.0207  -34.8240   20.4672 N   0  0  0  0  0  0  0  0  0  0  0  0
  -25.2592  -33.5258   24.1705 N   0  0  0  0  0  0  0  0  0  0  0  0
  -27.2290  -16.5886   19.5320 N   0  0  0  0  0  0  0  0  0  0  0  0
  -26.3432  -20.2521   19.9344 N   0  3  2  0  0  0  0  0  0  0  0  0
  -21.9131  -32.2423   23.6975 N   0  3  0  0  0  0  0  0  0  0  0  0
  -25.4240   -8.7319   16.5468 O   0  0  0  0  0  0  0  0  0  0  0  0
  -30.0115  -32.4981   20.5790 O   0  0  0  0  0  0  0  0  0  0  0  0
  -26.9662  -35.1281   22.5190 O   0  0  0  0  0  0  0  0  0  0  0  0
  -24.5539  -31.3227   24.0091 O   0  0  0  0  0  0  0  0  0  0  0  0
  -29.4201  -17.0295   20.0434 O   0  0  0  0  0  0  0  0  0  0  0  0
  -21.6374   -8.1215   23.3199 O   0  0  0  0  0  0  0  0  0  0  0  0
  -27.6081  -27.2216   19.5062 O   0  0  0  0  0  0  0  0  0  1  0  0
  -21.2146   -2.6263   23.4883 F   0  0  0  0  0  0  0  0  0  0  0  0
  -22.0624   -6.7378   25.6752 F   0  0  0  0  0  0  0  0  0  0  0  0
  1  2  1  0  0  0  0
  1  5  2  0  0  0  0
  2  6  2  0  0  0  0
  3 10  2  0  0  0  0
  3 18  1  0  0  0  0
  4 11  1  0  0  0  0
  4 18  2  0  0  0  0
  5 20  1  0  0  0  0
  6 23  1  0  0  0  0
  7  9  2  0  0  0  0
  7 22  1  0  0  0  0
  8 12  2  0  0  0  0
  8 21  1  0  0  0  0
  9 26  1  0  0  0  0
 10 27  1  0  0  0  0
 11 27  2  0  0  0  0
 12 28  1  0  0  0  0
 13 14  2  0  0  0  0
 13 29  1  0  0  0  0
 14 30  1  0  0  0  0
 15 24  1  0  0  0  0
 15 26  2  0  0  0  0
 16 25  1  0  0  0  0
 16 28  2  0  0  0  0
 17 30  2  0  0  0  0
 17 31  1  0  0  0  0
 18 32  1  0  0  0  0
 19 32  1  0  0  0  0
 19 33  2  0  0  0  0
 19 34  1  0  0  0  0
 20 23  2  0  0  0  0
 20 39  1  0  0  0  0
 21 25  2  0  0  0  0
 21 40  1  0  0  0  0
 22 24  2  0  0  0  0
 22 43  1  0  0  0  0
 23 50  1  0  0  0  0
 24 41  1  0  0  0  0
 25 42  1  0  0  0  0
 26 63  1  0  0  0  0
 27 86  1  0  0  0  0
 28 87  1  0  0  0  0
 29 31  2  0  0  0  0
 29 86  1  0  0  0  0
 30 88  1  0  0  0  0
 31 89  1  0  0  0  0
 32 70  2  0  0  0  0
 33 71  1  0  0  0  0
 33 74  1  0  0  0  0
 34 75  1  0  0  0  0
 34 81  2  0  0  0  0
 35 51  1  0  0  0  0
 35 76  1  0  0  0  0
 35 82  2  0  0  0  0
 36 64  1  0  0  0  0
 36 72  1  0  0  0  0
 36 83  2  0  0  0  0
 37 65  1  0  0  0  0
 37 77  1  0  0  0  0
 37 84  2  0  0  0  0
 38 73  1  0  0  0  0
 38 78  1  0  0  0  0
 38 85  2  0  0  0  0
 39 44  1  0  0  0  0
 40 51  1  0  0  0  0
 41 53  1  0  0  0  0
 42 72  1  0  0  0  0
 43 79  1  0  0  0  0
 44 46  1  0  0  0  0
 45 47  1  0  0  0  0
 45 48  1  0  0  0  0
 46 50  1  0  0  0  0
 47 52  1  0  0  0  0
 48 73  1  0  0  0  0
 49 52  1  0  0  0  0
 49 73  1  0  0  0  0
 50 76  1  0  0  0  0
 51 72  1  0  0  0  0
 52 71  1  0  0  0  0
 53 66  1  0  0  0  0
 53 79  1  0  0  0  0
 54 65  1  0  0  0  0
 55 66  1  0  0  0  0
 56 66  1  0  0  0  0
 57 67  1  0  0  0  0
 58 68  1  0  0  0  0
 59 69  1  0  0  0  0
 60 69  1  0  0  0  0
 61 69  1  0  0  0  0
 62 80  1  0  0  0  0
 63 87  1  0  0  0  0
 64 69  1  0  0  0  0
 64 77  1  0  0  0  0
 65 80  1  0  0  0  0
 67 68  1  0  0  0  0
 67 78  1  0  0  0  0
 68 79  1  0  0  0  0
 70 71  1  0  0  0  0
M  CHG  2  79   1  80   1
M  ISO  4  38 100  63 101  78 100  87 101
M  END
> <Batch ID>
0114

> <Smiles>
CNC(C)C(=O)NC(C(=O)N1Cc2cc([101O:1][101CH2:1]c3ccc4c(c3)CC(C(C)C)N(C(C)C(C)[100NH:0][100C:0](=O)N3CCCC(n5nc(-c6ccc(Oc7ccc(F)cc7F)cc6)c(C(N)=O)c5N)C3)C4)ccc2CC1C(=O)NC1CCCc2ccccc21)C(C)(C)C

> <Shape>
0.219

> <Color>
0.100

> <Negative vol penalty>
0.000

$$$$

  -OEChem-04052320083D

 87 96  0     1  0  0  0  0  0999 V2000
  -31.5680  -32.0598   26.0284 C   0  0  0  0  0  0  0  0  0  0  0  0
  -31.2714  -31.1456   25.0226 C   0  0  0  0  0  0  0  0  0  0  0  0
  -23.7885   -9.6662   21.7265 C   0  0  0  0  0  0  0  0  0  0  0  0
  -21.6713  -10.4947   20.9090 C   0  0  0  0  0  0  0  0  0  0  0  0
  -30.5738  -32.4602   26.9202 C   0  0  0  0  0  0  0  0  0  0  0  0
  -29.9807  -30.6303   24.9086 C   0  0  0  0  0  0  0  0  0  0  0  0
  -27.0489  -29.1553   19.7380 C   0  0  0  0  0  0  0  0  0  0  0  0
  -25.8224  -19.2979   18.4937 C   0  0  0  0  0  0  0  0  0  0  0  0
  -23.2749   -8.3694   21.7423 C   0  0  0  0  0  0  0  0  0  0  0  0
  -21.1578   -9.1979   20.9248 C   0  0  0  0  0  0  0  0  0  0  0  0
  -26.8498  -27.9387   19.0870 C   0  0  0  0  0  0  0  0  0  0  0  0
  -22.4071   -4.8889   22.3393 C   0  0  0  0  0  0  0  0  0  0  0  0
  -26.8060  -18.3909   18.0995 C   0  0  0  0  0  0  0  0  0  0  0  0
  -22.6622   -4.1023   23.4626 C   0  0  0  0  0  0  0  0  0  0  0  0
  -24.6966  -27.7270   20.1538 C   0  0  0  0  0  0  0  0  0  0  0  0
  -27.5828  -18.2414   20.3824 C   0  0  0  0  0  0  0  0  0  0  0  0
  -21.5260   -5.7189   24.8528 C   0  0  0  0  0  0  0  0  0  0  0  0
  -22.9867  -10.7288   21.3099 C   0  0  0  0  0  0  0  0  0  0  0  0
  -24.6229  -12.5366   20.5601 C   0  0  0  0  0  0  0  0  0  0  0  0
  -29.2678  -31.9569   26.8111 C   0  0  0  0  0  0  0  0  0  0  0  0
  -26.0763  -29.6625   20.6118 C   0  0  0  0  0  0  0  0  0  0  0  0
  -28.9685  -31.0233   25.8006 C   0  0  0  0  0  0  0  0  0  0  0  0
  -24.8846  -28.9515   20.8127 C   0  0  0  0  0  0  0  0  0  0  0  0
  -25.7190  -19.6768   19.8321 C   0  0  0  0  0  0  0  0  0  0  0  0
  -26.5992  -19.1485   20.7765 C   0  0  0  0  0  0  0  0  0  0  0  0
  -21.9596   -8.1353   21.3414 C   0  0  0  0  0  0  0  0  0  0  0  0
  -25.6748  -27.2229   19.2970 C   0  0  0  0  0  0  0  0  0  0  0  0
  -21.7114   -6.0906   22.4728 C   0  0  0  0  0  0  0  0  0  0  0  0
  -27.6862  -17.8626   19.0439 C   0  0  0  0  0  0  0  0  0  0  0  0
  -22.2217   -4.5173   24.7193 C   0  0  0  0  0  0  0  0  0  0  0  0
  -21.2709   -6.5056   23.7295 C   0  0  0  0  0  0  0  0  0  0  0  0
  -23.5164  -12.0687   21.2939 C   0  0  0  0  0  0  0  0  0  0  0  0
  -24.7142  -13.8674   20.8876 C   0  0  0  0  0  0  0  0  0  0  0  0
  -25.4905  -11.8315   19.6625 C   0  0  0  0  0  0  0  0  0  0  0  0
  -25.9931  -30.3672   23.7102 C   0  0  0  0  0  0  0  0  0  0  0  0
  -23.0558  -31.5271   22.9691 C   0  0  0  0  0  0  0  0  0  0  0  0
  -20.3633  -31.4719   20.8728 C   0  0  0  0  0  0  0  0  0  0  0  0
  -22.3326  -18.8367   21.7699 C   0  0  0  0  0  0  0  0  0  0  0  0
  -28.2383  -32.3833   27.8275 C   0  0  0  0  0  0  0  0  0  0  0  0
  -26.2946  -30.9894   21.2857 C   0  0  0  0  0  0  0  0  0  0  0  0
  -23.8006  -29.4624   21.7251 C   0  0  0  0  0  0  0  0  0  0  0  0
  -26.8035  -32.0753   27.4071 C   0  0  0  0  0  0  0  0  0  0  0  0
  -22.3748  -16.5393   24.4896 C   0  0  0  0  0  0  0  0  0  0  0  0
  -26.6978  -30.6503   26.8733 C   0  0  0  0  0  0  0  0  0  0  0  0
  -22.7605  -15.2096   23.8392 C   0  0  0  0  0  0  0  0  0  0  0  0
  -23.9216  -24.2722   19.2042 C   0  0  0  0  0  0  0  0  0  0  0  0
  -26.4090  -23.8905   19.1949 C   0  0  0  0  0  0  0  0  0  0  0  0
  -21.4785  -17.3745   23.5779 C   0  0  0  0  0  0  0  0  0  0  0  0
  -22.4021  -16.2768   21.5739 C   0  0  0  0  0  0  0  0  0  0  0  0
  -23.7264  -22.9637   19.9539 C   0  0  0  0  0  0  0  0  0  0  0  0
  -26.2088  -22.5831   19.9451 C   0  0  0  0  0  0  0  0  0  0  0  0
  -27.5741  -30.4608   25.6292 C   0  0  1  0  0  0  0  0  0  0  0  0
  -25.4601  -31.1612   22.5512 C   0  0  1  0  0  0  0  0  0  0  0  0
  -23.3515  -15.4239   22.4327 C   0  0  2  0  0  0  0  0  0  0  0  0
  -25.2905  -24.8868   19.4830 C   0  0  0  0  0  0  0  0  0  1  0  0
  -26.5092  -19.5405   22.2148 C   0  0  0  0  0  0  0  0  0  0  0  0
  -18.0993  -32.5039   20.5466 C   0  0  0  0  0  0  0  0  0  0  0  0
  -21.9382  -29.7761   25.2041 C   0  0  0  0  0  0  0  0  0  0  0  0
  -19.6569  -30.1052   24.2264 C   0  0  0  0  0  0  0  0  0  0  0  0
  -20.9425  -32.0666   25.0766 C   0  0  0  0  0  0  0  0  0  0  0  0
  -21.1346  -32.6174   18.2552 C   0  0  0  0  0  0  0  0  0  0  0  0
  -23.2391  -20.1671   19.8811 C   0  0  0  0  0  0  0  0  0  0  0  0
  -24.6449  -20.6627   20.2349 C   0  0  2  0  0  0  0  0  0  0  0  0
  -21.6602  -30.9533   22.9231 C   0  0  1  0  0  0  0  0  0  0  0  0
  -19.5798  -32.5904   20.2099 C   0  0  2  0  0  0  0  0  0  0  0  0
  -21.0705  -30.7145   24.3418 C   0  0  0  0  0  0  0  0  0  0  0  0
  -22.9458  -13.0244   22.0321 N   0  0  0  0  0  0  0  0  0  0  0  0
  -23.6967  -14.1062   21.7639 N   0  0  0  0  0  0  0  0  0  0  0  0
  -24.0637  -30.7615   22.3660 N   0  0  0  0  0  0  0  0  0  0  0  0
  -22.0972  -17.5418   22.2606 N   0  0  0  0  0  0  0  0  0  0  0  0
  -25.5649  -14.8447   20.5088 N   0  0  0  0  0  0  0  0  0  0  0  0
  -25.1513  -11.7856   18.3034 N   0  0  0  0  0  0  0  0  0  0  0  0
  -26.9338  -31.0391   24.4672 N   0  0  0  0  0  0  0  0  0  0  0  0
  -20.8733  -31.8597   22.0938 N   0  0  0  0  0  0  0  0  0  0  0  0
  -22.9282  -18.9059   20.5164 N   0  0  0  0  0  0  0  0  0  0  0  0
  -24.8500  -22.0148   19.6092 N   0  3  0  0  0  0  0  0  0  0  0  0
  -19.7298  -32.5206   18.7288 N   0  3  0  0  0  0  0  0  0  0  0  0
  -26.5270  -11.2451   20.0567 O   0  0  0  0  0  0  0  0  0  0  0  0
  -25.5803  -29.2298   23.9041 O   0  0  0  0  0  0  0  0  0  0  0  0
  -23.2435  -32.6179   23.5137 O   0  0  0  0  0  0  0  0  0  0  0  0
  -20.5054  -30.3637   20.3606 O   0  0  0  0  0  0  0  0  0  0  0  0
  -22.0389  -19.8557   22.4043 O   0  0  0  0  0  0  0  0  0  0  0  0
  -21.4582   -6.8700   21.3565 O   0  0  0  0  0  0  0  0  0  0  0  0
  -25.4783  -26.0347   18.6633 O   0  0  0  0  0  0  0  0  0  1  0  0
  -28.6303  -16.9910   18.6657 F   0  0  0  0  0  0  0  0  0  0  0  0
  -22.4655   -3.7611   25.7977 F   0  0  0  0  0  0  0  0  0  0  0  0
  -20.6011   -7.6584   23.8637 F   0  0  0  0  0  0  0  0  0  0  0  0
  1  2  1  0  0  0  0
  1  5  2  0  0  0  0
  2  6  2  0  0  0  0
  3  9  2  0  0  0  0
  3 18  1  0  0  0  0
  4 10  1  0  0  0  0
  4 18  2  0  0  0  0
  5 20  1  0  0  0  0
  6 22  1  0  0  0  0
  7 11  2  0  0  0  0
  7 21  1  0  0  0  0
  8 13  2  0  0  0  0
  8 24  1  0  0  0  0
  9 26  1  0  0  0  0
 10 26  2  0  0  0  0
 11 27  1  0  0  0  0
 12 14  2  0  0  0  0
 12 28  1  0  0  0  0
 13 29  1  0  0  0  0
 14 30  1  0  0  0  0
 15 23  1  0  0  0  0
 15 27  2  0  0  0  0
 16 25  1  0  0  0  0
 16 29  2  0  0  0  0
 17 30  2  0  0  0  0
 17 31  1  0  0  0  0
 18 32  1  0  0  0  0
 19 32  1  0  0  0  0
 19 33  2  0  0  0  0
 19 34  1  0  0  0  0
 20 22  2  0  0  0  0
 20 39  1  0  0  0  0
 21 23  2  0  0  0  0
 21 40  1  0  0  0  0
 22 52  1  0  0  0  0
 23 41  1  0  0  0  0
 24 25  2  0  0  0  0
 24 63  1  0  0  0  0
 25 56  1  0  0  0  0
 26 83  1  0  0  0  0
 27 84  1  0  0  0  0
 28 31  2  0  0  0  0
 28 83  1  0  0  0  0
 29 85  1  0  0  0  0
 30 86  1  0  0  0  0
 31 87  1  0  0  0  0
 32 67  2  0  0  0  0
 33 68  1  0  0  0  0
 33 71  1  0  0  0  0
 34 72  1  0  0  0  0
 34 78  2  0  0  0  0
 35 53  1  0  0  0  0
 35 73  1  0  0  0  0
 35 79  2  0  0  0  0
 36 64  1  0  0  0  0
 36 69  1  0  0  0  0
 36 80  2  0  0  0  0
 37 65  1  0  0  0  0
 37 74  1  0  0  0  0
 37 81  2  0  0  0  0
 38 70  1  0  0  0  0
 38 75  1  0  0  0  0
 38 82  2  0  0  0  0
 39 42  1  0  0  0  0
 40 53  1  0  0  0  0
 41 69  1  0  0  0  0
 42 44  1  0  0  0  0
 43 45  1  0  0  0  0
 43 48  1  0  0  0  0
 44 52  1  0  0  0  0
 45 54  1  0  0  0  0
 46 50  1  0  0  0  0
 46 55  1  0  0  0  0
 47 51  1  0  0  0  0
 47 55  1  0  0  0  0
 48 70  1  0  0  0  0
 49 54  1  0  0  0  0
 49 70  1  0  0  0  0
 50 76  1  0  0  0  0
 51 76  1  0  0  0  0
 52 73  1  0  0  0  0
 53 69  1  0  0  0  0
 54 68  1  0  0  0  0
 55 84  1  0  0  0  0
 57 65  1  0  0  0  0
 58 66  1  0  0  0  0
 59 66  1  0  0  0  0
 60 66  1  0  0  0  0
 61 77  1  0  0  0  0
 62 63  1  0  0  0  0
 62 75  1  0  0  0  0
 63 76  1  0  0  0  0
 64 66  1  0  0  0  0
 64 74  1  0  0  0  0
 65 77  1  0  0  0  0
 67 68  1  0  0  0  0
M  CHG  2  76   1  77   1
M  ISO  4  38 100  55 101  75 100  84 101
M  END
> <Batch ID>
0114

> <Smiles>
CNC(C)C(=O)NC(C(=O)N1Cc2cc([101O:1][101CH:1]3CCN(C(C[100NH:0][100C:0](=O)N4CCCC(n5nc(-c6ccc(Oc7ccc(F)cc7F)cc6)c(C(N)=O)c5N)C4)c4ccc(F)cc4C)CC3)ccc2CC1C(=O)NC1CCCc2ccccc21)C(C)(C)C

> <Shape>
0.243

> <Color>
0.138

> <Negative vol penalty>
0.000

$$$$

  -OEChem-04052320083D

 90 99  0     1  0  0  0  0  0999 V2000
  -24.1778  -23.6086   16.9362 C   0  0  0  0  0  0  0  0  0  0  0  0
  -24.9474  -22.9479   17.8884 C   0  0  0  0  0  0  0  0  0  0  0  0
  -22.8118  -10.1746   20.2000 C   0  0  0  0  0  0  0  0  0  0  0  0
  -24.2244   -9.6654   22.0926 C   0  0  0  0  0  0  0  0  0  0  0  0
  -24.7064  -24.7012   16.2502 C   0  0  0  0  0  0  0  0  0  0  0  0
  -26.2467  -23.3788   18.1543 C   0  0  0  0  0  0  0  0  0  0  0  0
  -27.2478  -23.5866   23.1140 C   0  0  0  0  0  0  0  0  0  0  0  0
  -22.0689   -9.0194   20.4436 C   0  0  0  0  0  0  0  0  0  0  0  0
  -23.4815   -8.5102   22.3364 C   0  0  0  0  0  0  0  0  0  0  0  0
  -27.5231  -22.3817   23.7590 C   0  0  0  0  0  0  0  0  0  0  0  0
  -20.5233   -7.7072   23.7593 C   0  0  0  0  0  0  0  0  0  0  0  0
  -20.1543   -7.4420   25.0780 C   0  0  0  0  0  0  0  0  0  0  0  0
  -29.8837  -22.8636   23.6386 C   0  0  0  0  0  0  0  0  0  0  0  0
  -28.2366  -17.4862   25.3476 C   0  0  0  0  0  0  0  0  0  0  0  0
  -21.3644   -5.3525   24.9964 C   0  0  0  0  0  0  0  0  0  0  0  0
  -29.1523  -18.8048   26.9144 C   0  0  0  0  0  0  0  0  0  0  0  0
  -23.8896  -10.4975   21.0244 C   0  0  0  0  0  0  0  0  0  0  0  0
  -24.1885  -13.0175   20.7642 C   0  0  0  0  0  0  0  0  0  0  0  0
  -26.0094  -25.1518   16.5147 C   0  0  0  0  0  0  0  0  0  0  0  0
  -28.2906  -24.4354   22.7161 C   0  0  0  0  0  0  0  0  0  0  0  0
  -26.7937  -24.4777   17.4702 C   0  0  0  0  0  0  0  0  0  0  0  0
  -29.6188  -24.0800   22.9910 C   0  0  0  0  0  0  0  0  0  0  0  0
  -28.4453  -18.8288   25.7351 C   0  0  0  0  0  0  0  0  0  0  0  0
  -22.4037   -8.1873   21.5118 C   0  0  0  0  0  0  0  0  0  0  0  0
  -28.8414  -22.0186   24.0188 C   0  0  0  0  0  0  0  0  0  0  0  0
  -21.3127   -6.7951   23.0590 C   0  0  0  0  0  0  0  0  0  0  0  0
  -20.5749   -6.2647   25.6966 C   0  0  0  0  0  0  0  0  0  0  0  0
  -21.7333   -5.6177   23.6776 C   0  0  0  0  0  0  0  0  0  0  0  0
  -24.6577  -11.6903   20.7729 C   0  0  0  0  0  0  0  0  0  0  0  0
  -28.8194  -16.6669   26.3009 C   0  0  0  0  0  0  0  0  0  0  0  0
  -25.2994  -13.7726   20.4772 C   0  0  0  0  0  0  0  0  0  0  0  0
  -22.8668  -13.5228   20.9952 C   0  0  0  0  0  0  0  0  0  0  0  0
  -29.3330  -25.5538   19.9292 C   0  0  0  0  0  0  0  0  0  0  0  0
  -31.3129  -27.3006   21.8137 C   0  0  0  0  0  0  0  0  0  0  0  0
  -33.2875  -26.7497   24.7826 C   0  0  0  0  0  0  0  0  0  0  0  0
  -31.1659  -12.8488   21.2402 C   0  0  0  0  0  0  0  0  0  0  0  0
  -26.5543  -26.3079   15.7140 C   0  0  0  0  0  0  0  0  0  0  0  0
  -27.9756  -25.7443   22.0452 C   0  0  0  0  0  0  0  0  0  0  0  0
  -30.7734  -24.9656   22.6023 C   0  0  0  0  0  0  0  0  0  0  0  0
  -27.8066  -26.9336   16.3225 C   0  0  0  0  0  0  0  0  0  0  0  0
  -29.4889  -13.5459   18.1778 C   0  0  0  0  0  0  0  0  0  0  0  0
  -28.7986  -25.8504   16.7341 C   0  0  0  0  0  0  0  0  0  0  0  0
  -28.0183  -13.2692   18.4948 C   0  0  0  0  0  0  0  0  0  0  0  0
  -30.1076  -17.0757   28.4290 C   0  0  0  0  0  0  0  0  0  0  0  0
  -30.4151  -12.5672   18.8964 C   0  0  0  0  0  0  0  0  0  0  0  0
  -28.7448  -12.2065   20.6723 C   0  0  0  0  0  0  0  0  0  0  0  0
  -29.3167  -16.1780   29.3664 C   0  0  0  0  0  0  0  0  0  0  0  0
  -28.3085  -14.5909   27.6569 C   0  0  0  0  0  0  0  0  0  0  0  0
  -28.1985  -24.9306   17.8043 C   0  0  1  0  0  0  0  0  0  0  0  0
  -28.8567  -15.1676   26.3466 C   0  0  2  0  0  0  0  0  0  0  0  0
  -29.1399  -26.2905   21.2245 C   0  0  1  0  0  0  0  0  0  0  0  0
  -27.7751  -13.2032   20.0146 C   0  0  2  0  0  0  0  0  0  0  0  0
  -34.0383  -28.3509   26.5630 C   0  0  0  0  0  0  0  0  0  0  0  0
  -29.3089  -12.4055   29.5377 C   0  0  0  0  0  0  0  0  0  0  0  0
  -27.3732  -13.8941   30.1793 C   0  0  0  0  0  0  0  0  0  0  0  0
  -32.2047  -15.5014   22.8642 C   0  0  0  0  0  0  0  0  0  0  0  0
  -33.8511  -27.5244   20.1351 C   0  0  0  0  0  0  0  0  0  0  0  0
  -35.1671  -27.6131   22.2631 C   0  0  0  0  0  0  0  0  0  0  0  0
  -33.5018  -29.3990   21.7533 C   0  0  0  0  0  0  0  0  0  0  0  0
  -32.0825  -25.1080   26.9302 C   0  0  0  0  0  0  0  0  0  0  0  0
  -27.9918  -20.0317   25.0118 C   0  0  0  0  0  0  0  0  0  1  0  0
  -30.2207  -14.6114   25.9350 C   0  0  0  0  0  0  0  0  0  0  0  0
  -31.7632  -13.1079   23.6350 C   0  0  0  0  0  0  0  0  0  0  0  0
  -32.6886  -27.0941   22.4000 C   0  0  1  0  0  0  0  0  0  0  0  0
  -33.0131  -27.2982   26.1713 C   0  0  2  0  0  0  0  0  0  0  0  0
  -28.8725  -13.8040   29.9439 C   0  0  0  0  0  0  0  0  0  0  0  0
  -31.8220  -14.5849   24.0183 C   0  0  2  0  0  0  0  0  0  0  0  0
  -33.7848  -27.8857   21.6325 C   0  0  0  0  0  0  0  0  0  0  0  0
  -25.9648  -11.6038   20.5119 N   0  0  0  0  0  0  0  0  0  0  0  0
  -29.3756  -17.4922   27.2505 N   0  0  0  0  0  0  0  0  0  0  0  0
  -26.3264  -12.8862   20.3364 N   0  0  0  0  0  0  0  0  0  0  0  0
  -30.4144  -26.2321   21.9431 N   0  0  0  0  0  0  0  0  0  0  0  0
  -30.1340  -12.5536   20.3340 N   0  0  0  0  0  0  0  0  0  0  0  0
  -25.4881  -15.1016   20.3338 N   0  0  0  0  0  0  0  0  0  0  0  0
  -21.8421  -12.6091   21.2772 N   0  0  0  0  0  0  0  0  0  0  0  0
  -28.2282  -25.5756   19.0995 N   0  0  0  0  0  0  0  0  0  0  0  0
  -32.5849  -27.4356   23.8146 N   0  0  0  0  0  0  0  0  0  0  0  0
  -30.8129  -12.8201   22.5838 N   0  0  0  0  0  0  0  0  0  0  0  0
  -29.2421  -14.7626   28.8347 N   0  3  2  0  0  0  0  0  0  0  0  0
  -33.0568  -26.2015   27.1794 N   0  3  0  0  0  0  0  0  0  0  0  0
  -30.4917  -15.0119   24.5402 N   0  3  0  0  0  0  0  0  0  0  0  0
  -22.5989  -14.7468   20.9365 O   0  0  0  0  0  0  0  0  0  0  0  0
  -30.4054  -25.0075   19.6990 O   0  0  0  0  0  0  0  0  0  0  0  0
  -31.0431  -28.3732   21.2675 O   0  0  0  0  0  0  0  0  0  0  0  0
  -34.0517  -25.8094   24.5769 O   0  0  0  0  0  0  0  0  0  0  0  0
  -32.3151  -13.1232   20.8784 O   0  0  0  0  0  0  0  0  0  0  0  0
  -21.6788   -7.0602   21.7501 O   0  0  0  0  0  0  0  0  0  0  0  0
  -29.1144  -20.8368   24.6508 O   0  0  0  0  0  0  0  0  0  1  0  0
  -20.2218   -6.0109   26.9635 F   0  0  0  0  0  0  0  0  0  0  0  0
  -22.4929   -4.7381   23.0103 F   0  0  0  0  0  0  0  0  0  0  0  0
  1  2  1  0  0  0  0
  1  5  2  0  0  0  0
  2  6  2  0  0  0  0
  3  8  2  0  0  0  0
  3 17  1  0  0  0  0
  4  9  1  0  0  0  0
  4 17  2  0  0  0  0
  5 19  1  0  0  0  0
  6 21  1  0  0  0  0
  7 10  2  0  0  0  0
  7 20  1  0  0  0  0
  8 24  1  0  0  0  0
  9 24  2  0  0  0  0
 10 25  1  0  0  0  0
 11 12  2  0  0  0  0
 11 26  1  0  0  0  0
 12 27  1  0  0  0  0
 13 22  1  0  0  0  0
 13 25  2  0  0  0  0
 14 23  1  0  0  0  0
 14 30  2  0  0  0  0
 15 27  2  0  0  0  0
 15 28  1  0  0  0  0
 16 23  2  0  0  0  0
 16 70  1  0  0  0  0
 17 29  1  0  0  0  0
 18 29  1  0  0  0  0
 18 31  2  0  0  0  0
 18 32  1  0  0  0  0
 19 21  2  0  0  0  0
 19 37  1  0  0  0  0
 20 22  2  0  0  0  0
 20 38  1  0  0  0  0
 21 49  1  0  0  0  0
 22 39  1  0  0  0  0
 23 61  1  0  0  0  0
 24 87  1  0  0  0  0
 25 88  1  0  0  0  0
 26 28  2  0  0  0  0
 26 87  1  0  0  0  0
 27 89  1  0  0  0  0
 28 90  1  0  0  0  0
 29 69  2  0  0  0  0
 30 50  1  0  0  0  0
 30 70  1  0  0  0  0
 31 71  1  0  0  0  0
 31 74  1  0  0  0  0
 32 75  1  0  0  0  0
 32 82  2  0  0  0  0
 33 51  1  0  0  0  0
 33 76  1  0  0  0  0
 33 83  2  0  0  0  0
 34 64  1  0  0  0  0
 34 72  1  0  0  0  0
 34 84  2  0  0  0  0
 35 65  1  0  0  0  0
 35 77  1  0  0  0  0
 35 85  2  0  0  0  0
 36 73  1  0  0  0  0
 36 78  1  0  0  0  0
 36 86  2  0  0  0  0
 37 40  1  0  0  0  0
 38 51  1  0  0  0  0
 39 72  1  0  0  0  0
 40 42  1  0  0  0  0
 41 43  1  0  0  0  0
 41 45  1  0  0  0  0
 42 49  1  0  0  0  0
 43 52  1  0  0  0  0
 44 47  1  0  0  0  0
 44 70  1  0  0  0  0
 45 73  1  0  0  0  0
 46 52  1  0  0  0  0
 46 73  1  0  0  0  0
 47 79  1  0  0  0  0
 48 50  1  0  0  0  0
 48 79  1  0  0  0  0
 49 76  1  0  0  0  0
 50 62  1  0  0  0  0
 51 72  1  0  0  0  0
 52 71  1  0  0  0  0
 53 65  1  0  0  0  0
 54 66  1  0  0  0  0
 55 66  1  0  0  0  0
 56 67  1  0  0  0  0
 57 68  1  0  0  0  0
 58 68  1  0  0  0  0
 59 68  1  0  0  0  0
 60 80  1  0  0  0  0
 61 88  1  0  0  0  0
 62 81  1  0  0  0  0
 63 67  1  0  0  0  0
 63 78  1  0  0  0  0
 64 68  1  0  0  0  0
 64 77  1  0  0  0  0
 65 80  1  0  0  0  0
 66 79  1  0  0  0  0
 67 81  1  0  0  0  0
 69 71  1  0  0  0  0
M  CHG  3  79   1  80   1  81   1
M  ISO  4  36 100  61 101  78 100  88 101
M  END
> <Batch ID>
0114

> <Smiles>
CNC(C)C(=O)NC(C(=O)N1Cc2cc([101O:1][101CH2:1]c3cc4n(c3)CCN(C(C)C)CC4CNC(C)C[100NH:0][100C:0](=O)N3CCCC(n4nc(-c5ccc(Oc6ccc(F)cc6F)cc5)c(C(N)=O)c4N)C3)ccc2CC1C(=O)NC1CCCc2ccccc21)C(C)(C)C

> <Shape>
0.185

> <Color>
0.176

> <Negative vol penalty>
0.000

$$$$

  -OEChem-04052320083D

 81 89  0     1  0  0  0  0  0999 V2000
  -21.9991  -21.6902   35.9564 C   0  0  0  0  0  0  0  0  0  0  0  0
  -23.3387  -21.4353   35.6808 C   0  0  0  0  0  0  0  0  0  0  0  0
  -23.1963   -9.8538   19.9555 C   0  0  0  0  0  0  0  0  0  0  0  0
  -23.9051   -9.9354   22.2638 C   0  0  0  0  0  0  0  0  0  0  0  0
  -21.0404  -20.7061   35.7192 C   0  0  0  0  0  0  0  0  0  0  0  0
  -23.7205  -20.1957   35.1690 C   0  0  0  0  0  0  0  0  0  0  0  0
  -27.1393  -19.6867   28.8489 C   0  0  0  0  0  0  0  0  0  0  0  0
  -22.5023   -8.6711   20.2104 C   0  0  0  0  0  0  0  0  0  0  0  0
  -23.2111   -8.7526   22.5187 C   0  0  0  0  0  0  0  0  0  0  0  0
  -27.9824  -19.5226   27.7496 C   0  0  0  0  0  0  0  0  0  0  0  0
  -19.5640   -7.7600   21.6138 C   0  0  0  0  0  0  0  0  0  0  0  0
  -18.2716   -7.6437   21.1022 C   0  0  0  0  0  0  0  0  0  0  0  0
  -27.8968  -17.1221   28.0287 C   0  0  0  0  0  0  0  0  0  0  0  0
  -18.9507   -5.7074   19.8268 C   0  0  0  0  0  0  0  0  0  0  0  0
  -23.8978  -10.4860   20.9822 C   0  0  0  0  0  0  0  0  0  0  0  0
  -24.1229  -13.0221   20.8243 C   0  0  0  0  0  0  0  0  0  0  0  0
  -21.4094  -19.4571   35.1952 C   0  0  0  0  0  0  0  0  0  0  0  0
  -26.6588  -18.5671   29.5336 C   0  0  0  0  0  0  0  0  0  0  0  0
  -22.7660  -19.1935   34.9259 C   0  0  0  0  0  0  0  0  0  0  0  0
  -27.0420  -17.2797   29.1229 C   0  0  0  0  0  0  0  0  0  0  0  0
  -22.5096   -8.1205   21.4920 C   0  0  0  0  0  0  0  0  0  0  0  0
  -28.3604  -18.2435   27.3407 C   0  0  0  0  0  0  0  0  0  0  0  0
  -20.5499   -6.8501   21.2318 C   0  0  0  0  0  0  0  0  0  0  0  0
  -17.9649   -6.6174   20.2088 C   0  0  0  0  0  0  0  0  0  0  0  0
  -20.2432   -5.8238   20.3383 C   0  0  0  0  0  0  0  0  0  0  0  0
  -24.6154  -11.7075   20.7194 C   0  0  0  0  0  0  0  0  0  0  0  0
  -32.6207  -16.7717   24.0129 C   0  0  0  0  0  0  0  0  0  0  0  0
  -31.6271  -16.8529   24.9659 C   0  0  0  0  0  0  0  0  0  0  0  0
  -25.1862  -13.8164   20.4707 C   0  0  0  0  0  0  0  0  0  0  0  0
  -31.1443  -15.4572   23.0629 C   0  0  0  0  0  0  0  0  0  0  0  0
  -22.8208  -13.4841   21.2074 C   0  0  0  0  0  0  0  0  0  0  0  0
  -24.5383  -17.2469   32.3331 C   0  0  0  0  0  0  0  0  0  0  0  0
  -24.0868  -15.3998   29.9259 C   0  0  0  0  0  0  0  0  0  0  0  0
  -23.5460  -13.8625   26.9290 C   0  0  0  0  0  0  0  0  0  0  0  0
  -30.9349  -14.0795   20.9642 C   0  0  0  0  0  0  0  0  0  0  0  0
  -20.3435  -18.4082   35.0000 C   0  0  0  0  0  0  0  0  0  0  0  0
  -25.7980  -18.6986   30.7606 C   0  0  0  0  0  0  0  0  0  0  0  0
  -26.5285  -16.1057   29.9108 C   0  0  0  0  0  0  0  0  0  0  0  0
  -20.7828  -17.2526   34.1045 C   0  0  0  0  0  0  0  0  0  0  0  0
  -29.3661  -13.1106   17.9184 C   0  0  0  0  0  0  0  0  0  0  0  0
  -22.1692  -16.7613   34.5088 C   0  0  0  0  0  0  0  0  0  0  0  0
  -27.9325  -12.7782   18.3387 C   0  0  0  0  0  0  0  0  0  0  0  0
  -30.3805  -12.6897   18.9803 C   0  0  0  0  0  0  0  0  0  0  0  0
  -28.6777  -12.8647   20.7521 C   0  0  0  0  0  0  0  0  0  0  0  0
  -23.2163  -17.8698   34.3468 C   0  0  1  0  0  0  0  0  0  0  0  0
  -24.7494  -17.5787   30.8851 C   0  0  1  0  0  0  0  0  0  0  0  0
  -27.6149  -13.3289   19.7428 C   0  0  2  0  0  0  0  0  0  0  0  0
  -33.9294  -17.4549   24.0606 C   0  0  0  0  0  0  0  0  0  0  0  0
  -31.5129  -16.6735   27.4792 C   0  0  0  0  0  0  0  0  0  0  0  0
  -22.2366  -11.9960   25.8806 C   0  0  0  0  0  0  0  0  0  0  0  0
  -30.5876  -19.7658   25.2580 C   0  0  0  0  0  0  0  0  0  0  0  0
  -26.0065  -13.3703   31.1503 C   0  0  0  0  0  0  0  0  0  0  0  0
  -25.2934  -11.7396   29.3894 C   0  0  0  0  0  0  0  0  0  0  0  0
  -23.6263  -12.6128   31.0269 C   0  0  0  0  0  0  0  0  0  0  0  0
  -22.1287  -15.7211   25.1136 C   0  0  0  0  0  0  0  0  0  0  0  0
  -31.5862  -17.6256   26.2765 C   0  0  2  0  0  0  0  0  0  0  0  0
  -24.4915  -14.1384   29.2059 C   0  0  1  0  0  0  0  0  0  0  0  0
  -22.2652  -13.4806   26.2092 C   0  0  2  0  0  0  0  0  0  0  0  0
  -30.4699  -18.6964   26.3394 C   0  0  2  0  0  0  0  0  0  1  0  0
  -24.8651  -12.9906   30.1859 C   0  0  0  0  0  0  0  0  0  0  0  0
  -25.8921  -11.6648   20.3294 N   0  0  0  0  0  0  0  0  0  0  0  0
  -32.3458  -15.9715   22.9211 N   0  0  0  0  0  0  0  0  0  0  0  0
  -26.2109  -12.9624   20.1861 N   0  0  0  0  0  0  0  0  0  0  0  0
  -25.1084  -16.3042   30.2403 N   0  0  0  0  0  0  0  0  0  0  0  0
  -30.0175  -13.2517   20.2831 N   0  0  0  0  0  0  0  0  0  0  0  0
  -25.3353  -15.1549   20.3783 N   0  0  0  0  0  0  0  0  0  0  0  0
  -21.8457  -12.5337   21.5396 N   0  0  0  0  0  0  0  0  0  0  0  0
  -30.4671  -14.5820   22.1780 N   0  0  0  0  0  0  0  0  0  0  0  0
  -23.5786  -18.0233   32.9541 N   0  0  0  0  0  0  0  0  0  0  0  0
  -23.3952  -13.8165   28.2988 N   0  0  0  0  0  0  0  0  0  0  0  0
  -22.1381  -14.2461   24.9368 N   0  3  0  0  0  0  0  0  0  0  0  0
  -22.5257  -14.7029   21.2378 O   0  0  0  0  0  0  0  0  0  0  0  0
  -25.1962  -16.3515   32.8499 O   0  0  0  0  0  0  0  0  0  0  0  0
  -22.8986  -15.5785   30.2081 O   0  0  0  0  0  0  0  0  0  0  0  0
  -24.5782  -14.1672   26.3355 O   0  0  0  0  0  0  0  0  0  0  0  0
  -32.0429  -14.3464   20.4919 O   0  0  0  0  0  0  0  0  0  0  0  0
  -21.8323   -6.9665   21.7411 O   0  0  0  0  0  0  0  0  0  0  0  0
  -29.1801  -18.0903   26.2640 O   0  0  0  0  0  0  0  0  0  1  0  0
  -16.7234   -6.5049   19.7188 F   0  0  0  0  0  0  0  0  0  0  0  0
  -21.1857   -4.9459   19.9686 F   0  0  0  0  0  0  0  0  0  0  0  0
  -30.2890  -15.8940   24.4851 S   0  0  0  0  0  0  0  0  0  0  0  0
  1  2  1  0  0  0  0
  1  5  2  0  0  0  0
  2  6  2  0  0  0  0
  3  8  2  0  0  0  0
  3 15  1  0  0  0  0
  4  9  1  0  0  0  0
  4 15  2  0  0  0  0
  5 17  1  0  0  0  0
  6 19  1  0  0  0  0
  7 10  2  0  0  0  0
  7 18  1  0  0  0  0
  8 21  1  0  0  0  0
  9 21  2  0  0  0  0
 10 22  1  0  0  0  0
 11 12  2  0  0  0  0
 11 23  1  0  0  0  0
 12 24  1  0  0  0  0
 13 20  1  0  0  0  0
 13 22  2  0  0  0  0
 14 24  2  0  0  0  0
 14 25  1  0  0  0  0
 15 26  1  0  0  0  0
 16 26  1  0  0  0  0
 16 29  2  0  0  0  0
 16 31  1  0  0  0  0
 17 19  2  0  0  0  0
 17 36  1  0  0  0  0
 18 20  2  0  0  0  0
 18 37  1  0  0  0  0
 19 45  1  0  0  0  0
 20 38  1  0  0  0  0
 21 77  1  0  0  0  0
 22 78  1  0  0  0  0
 23 25  2  0  0  0  0
 23 77  1  0  0  0  0
 24 79  1  0  0  0  0
 25 80  1  0  0  0  0
 26 61  2  0  0  0  0
 27 28  2  0  0  0  0
 27 48  1  0  0  0  0
 27 62  1  0  0  0  0
 28 56  1  0  0  0  0
 28 81  1  0  0  0  0
 29 63  1  0  0  0  0
 29 66  1  0  0  0  0
 30 62  2  0  0  0  0
 30 68  1  0  0  0  0
 30 81  1  0  0  0  0
 31 67  1  0  0  0  0
 31 72  2  0  0  0  0
 32 46  1  0  0  0  0
 32 69  1  0  0  0  0
 32 73  2  0  0  0  0
 33 57  1  0  0  0  0
 33 64  1  0  0  0  0
 33 74  2  0  0  0  0
 34 58  1  0  0  0  0
 34 70  1  0  0  0  0
 34 75  2  0  0  0  0
 35 65  1  0  0  0  0
 35 68  1  0  0  0  0
 35 76  2  0  0  0  0
 36 39  1  0  0  0  0
 37 46  1  0  0  0  0
 38 64  1  0  0  0  0
 39 41  1  0  0  0  0
 40 42  1  0  0  0  0
 40 43  1  0  0  0  0
 41 45  1  0  0  0  0
 42 47  1  0  0  0  0
 43 65  1  0  0  0  0
 44 47  1  0  0  0  0
 44 65  1  0  0  0  0
 45 69  1  0  0  0  0
 46 64  1  0  0  0  0
 47 63  1  0  0  0  0
 49 56  1  0  0  0  0
 50 58  1  0  0  0  0
 51 59  1  0  0  0  0
 52 60  1  0  0  0  0
 53 60  1  0  0  0  0
 54 60  1  0  0  0  0
 55 71  1  0  0  0  0
 56 59  1  0  0  0  0
 57 60  1  0  0  0  0
 57 70  1  0  0  0  0
 58 71  1  0  0  0  0
 59 78  1  0  0  0  0
 61 63  1  0  0  0  0
M  CHG  1  71   1
M  ISO  4  35 100  59 101  68 100  78 101
M  END
> <Batch ID>
0114

> <Smiles>
CNC(C)C(=O)NC(C(=O)N1Cc2cc([101O:1][101CH:1](C)C(C)c3sc([100NH:0][100C:0](=O)N4CCCC(n5nc(-c6ccc(Oc7ccc(F)cc7F)cc6)c(C(N)=O)c5N)C4)nc3C)ccc2CC1C(=O)NC1CCCc2ccccc21)C(C)(C)C

> <Shape>
0.138

> <Color>
0.185

> <Negative vol penalty>
0.000

$$$$
