
  -OEChem-04052320103D

 84 92  0     1  0  0  0  0  0999 V2000
  -18.7036  -25.0429   21.1863 C   0  0  0  0  0  0  0  0  0  0  0  0
  -19.9464  -25.3392   20.6358 C   0  0  0  0  0  0  0  0  0  0  0  0
  -30.2846  -15.1957   17.6409 C   0  0  0  0  0  0  0  0  0  0  0  0
  -32.1197  -16.6971   17.1768 C   0  0  0  0  0  0  0  0  0  0  0  0
  -17.9278  -26.0600   21.7409 C   0  0  0  0  0  0  0  0  0  0  0  0
  -20.4136  -26.6531   20.6386 C   0  0  0  0  0  0  0  0  0  0  0  0
  -25.2668  -26.9863   22.0458 C   0  0  0  0  0  0  0  0  0  0  0  0
  -30.1794  -14.9038   16.2810 C   0  0  0  0  0  0  0  0  0  0  0  0
  -32.0145  -16.4051   15.8169 C   0  0  0  0  0  0  0  0  0  0  0  0
  -26.2300  -26.6535   21.0943 C   0  0  0  0  0  0  0  0  0  0  0  0
  -32.9368  -13.9146   13.7271 C   0  0  0  0  0  0  0  0  0  0  0  0
  -34.1164  -13.6617   13.0270 C   0  0  0  0  0  0  0  0  0  0  0  0
  -26.5845  -28.9964   20.6425 C   0  0  0  0  0  0  0  0  0  0  0  0
  -30.9633  -26.9273   21.0500 C   0  0  0  0  0  0  0  0  0  0  0  0
  -33.6479  -15.5262   11.5638 C   0  0  0  0  0  0  0  0  0  0  0  0
  -31.1506  -24.3259   20.2479 C   0  0  0  0  0  0  0  0  0  0  0  0
  -31.2547  -16.0924   18.0888 C   0  0  0  0  0  0  0  0  0  0  0  0
  -32.1524  -15.7259   20.4484 C   0  0  0  0  0  0  0  0  0  0  0  0
  -18.3899  -27.3854   21.7591 C   0  0  0  0  0  0  0  0  0  0  0  0
  -24.9470  -28.3286   22.2954 C   0  0  0  0  0  0  0  0  0  0  0  0
  -19.6426  -27.6890   21.1927 C   0  0  0  0  0  0  0  0  0  0  0  0
  -25.6188  -29.3437   21.5994 C   0  0  0  0  0  0  0  0  0  0  0  0
  -31.3969  -25.9642   21.9543 C   0  0  0  0  0  0  0  0  0  0  0  0
  -31.4952  -24.6365   21.5535 C   0  0  0  0  0  0  0  0  0  0  0  0
  -31.0444  -15.5085   15.3690 C   0  0  0  0  0  0  0  0  0  0  0  0
  -26.8869  -27.6585   20.3904 C   0  0  0  0  0  0  0  0  0  0  0  0
  -32.1127  -14.9734   13.3455 C   0  0  0  0  0  0  0  0  0  0  0  0
  -34.4720  -14.4675   11.9454 C   0  0  0  0  0  0  0  0  0  0  0  0
  -32.4682  -15.7792   12.2639 C   0  0  0  0  0  0  0  0  0  0  0  0
  -31.3634  -16.3948   19.4934 C   0  0  0  0  0  0  0  0  0  0  0  0
  -30.6428  -26.5142   19.7668 C   0  0  0  0  0  0  0  0  0  0  0  0
  -31.9062  -16.3917   21.6242 C   0  0  0  0  0  0  0  0  0  0  0  0
  -33.0295  -14.6033   20.2869 C   0  0  0  0  0  0  0  0  0  0  0  0
  -22.3199  -30.0970   22.0213 C   0  0  0  0  0  0  0  0  0  0  0  0
  -24.1584  -32.3525   23.4549 C   0  0  0  0  0  0  0  0  0  0  0  0
  -27.2856  -33.5359   24.1382 C   0  0  0  0  0  0  0  0  0  0  0  0
  -30.0932  -21.9645   22.8520 C   0  0  0  0  0  0  0  0  0  0  0  0
  -17.4951  -28.4584   22.3272 C   0  0  0  0  0  0  0  0  0  0  0  0
  -23.9248  -28.6719   23.3441 C   0  0  0  0  0  0  0  0  0  0  0  0
  -25.3265  -30.8007   21.8447 C   0  0  0  0  0  0  0  0  0  0  0  0
  -18.2254  -29.7649   22.6269 C   0  0  0  0  0  0  0  0  0  0  0  0
  -28.5175  -18.9318   23.8503 C   0  0  0  0  0  0  0  0  0  0  0  0
  -19.1174  -30.1592   21.4540 C   0  0  0  0  0  0  0  0  0  0  0  0
  -29.1394  -17.8774   22.9330 C   0  0  0  0  0  0  0  0  0  0  0  0
  -28.3156  -20.2612   23.1264 C   0  0  0  0  0  0  0  0  0  0  0  0
  -30.1454  -19.7468   21.5576 C   0  0  0  0  0  0  0  0  0  0  0  0
  -20.1946  -29.0980   21.1990 C   0  0  1  0  0  0  0  0  0  0  0  0
  -23.3109  -30.0550   23.1500 C   0  0  1  0  0  0  0  0  0  0  0  0
  -30.4200  -18.4055   22.2590 C   0  0  2  0  0  0  0  0  0  0  0  0
  -31.7505  -26.3769   23.3447 C   0  0  0  0  0  0  0  0  0  0  0  0
  -33.4761  -23.3629   22.4567 C   0  0  0  0  0  0  0  0  0  0  0  0
  -28.4687  -35.4197   25.2997 C   0  0  0  0  0  0  0  0  0  0  0  0
  -29.8378  -26.9482   17.3496 C   0  0  0  0  0  0  0  0  0  0  0  0
  -31.2683  -28.6076   18.5234 C   0  0  0  0  0  0  0  0  0  0  0  0
  -23.4526  -34.2167   21.1448 C   0  0  0  0  0  0  0  0  0  0  0  0
  -25.3600  -35.6833   21.8372 C   0  0  0  0  0  0  0  0  0  0  0  0
  -23.4520  -35.3014   23.3982 C   0  0  0  0  0  0  0  0  0  0  0  0
  -28.6495  -31.6846   26.0014 C   0  0  0  0  0  0  0  0  0  0  0  0
  -28.8860  -28.2709   19.2569 C   0  0  0  0  0  0  0  0  0  1  0  0
  -31.9532  -23.5651   22.4811 C   0  0  2  0  0  0  0  0  0  0  0  0
  -25.0984  -33.4306   22.9722 C   0  0  1  0  0  0  0  0  0  0  0  0
  -27.9240  -34.0061   25.4328 C   0  0  2  0  0  0  0  0  0  0  0  0
  -30.1584  -27.5528   18.7378 C   0  0  0  0  0  0  0  0  0  0  0  0
  -24.3451  -34.6306   22.3319 C   0  0  0  0  0  0  0  0  0  0  0  0
  -30.7254  -25.2338   19.3410 N   0  0  0  0  0  0  0  0  0  0  0  0
  -30.6679  -17.4076   20.0173 N   0  0  0  0  0  0  0  0  0  0  0  0
  -31.0190  -17.3801   21.3142 N   0  0  0  0  0  0  0  0  0  0  0  0
  -24.3146  -31.0854   22.8754 N   0  0  0  0  0  0  0  0  0  0  0  0
  -29.5677  -20.7074   22.5106 N   0  0  0  0  0  0  0  0  0  0  0  0
  -32.3642  -16.2222   22.8827 N   0  0  0  0  0  0  0  0  0  0  0  0
  -33.1663  -14.0404   19.0107 N   0  0  0  0  0  0  0  0  0  0  0  0
  -21.2628  -29.2193   22.1680 N   0  0  0  0  0  0  0  0  0  0  0  0
  -25.9303  -33.7889   24.1159 N   0  0  0  0  0  0  0  0  0  0  0  0
  -31.2863  -22.3074   22.2278 N   0  0  0  0  0  0  0  0  0  0  0  0
  -29.0471  -33.1037   25.8140 N   0  3  0  0  0  0  0  0  0  0  0  0
  -33.6602  -14.1035   21.2492 O   0  0  0  0  0  0  0  0  0  0  0  0
  -22.5002  -30.8696   21.0874 O   0  0  0  0  0  0  0  0  0  0  0  0
  -23.3212  -32.6228   24.3196 O   0  0  0  0  0  0  0  0  0  0  0  0
  -27.9258  -33.0013   23.2355 O   0  0  0  0  0  0  0  0  0  0  0  0
  -29.5428  -22.7228   23.6577 O   0  0  0  0  0  0  0  0  0  0  0  0
  -30.9423  -15.2237   14.0420 O   0  0  0  0  0  0  0  0  0  0  0  0
  -27.8270  -27.3363   19.4607 O   0  0  0  0  0  0  0  0  0  1  0  0
  -35.6056  -14.2254   11.2742 F   0  0  0  0  0  0  0  0  0  0  0  0
  -31.6811  -16.7985   11.8933 F   0  0  0  0  0  0  0  0  0  0  0  0
  1  2  1  0  0  0  0
  1  5  2  0  0  0  0
  2  6  2  0  0  0  0
  3  8  2  0  0  0  0
  3 17  1  0  0  0  0
  4  9  1  0  0  0  0
  4 17  2  0  0  0  0
  5 19  1  0  0  0  0
  6 21  1  0  0  0  0
  7 10  2  0  0  0  0
  7 20  1  0  0  0  0
  8 25  1  0  0  0  0
  9 25  2  0  0  0  0
 10 26  1  0  0  0  0
 11 12  2  0  0  0  0
 11 27  1  0  0  0  0
 12 28  1  0  0  0  0
 13 22  1  0  0  0  0
 13 26  2  0  0  0  0
 14 23  2  0  0  0  0
 14 31  1  0  0  0  0
 15 28  2  0  0  0  0
 15 29  1  0  0  0  0
 16 24  2  0  0  0  0
 16 65  1  0  0  0  0
 17 30  1  0  0  0  0
 18 30  1  0  0  0  0
 18 32  2  0  0  0  0
 18 33  1  0  0  0  0
 19 21  2  0  0  0  0
 19 38  1  0  0  0  0
 20 22  2  0  0  0  0
 20 39  1  0  0  0  0
 21 47  1  0  0  0  0
 22 40  1  0  0  0  0
 23 24  1  0  0  0  0
 23 50  1  0  0  0  0
 24 60  1  0  0  0  0
 25 81  1  0  0  0  0
 26 82  1  0  0  0  0
 27 29  2  0  0  0  0
 27 81  1  0  0  0  0
 28 83  1  0  0  0  0
 29 84  1  0  0  0  0
 30 66  2  0  0  0  0
 31 63  1  0  0  0  0
 31 65  2  0  0  0  0
 32 67  1  0  0  0  0
 32 70  1  0  0  0  0
 33 71  1  0  0  0  0
 33 76  2  0  0  0  0
 34 48  1  0  0  0  0
 34 72  1  0  0  0  0
 34 77  2  0  0  0  0
 35 61  1  0  0  0  0
 35 68  1  0  0  0  0
 35 78  2  0  0  0  0
 36 62  1  0  0  0  0
 36 73  1  0  0  0  0
 36 79  2  0  0  0  0
 37 69  1  0  0  0  0
 37 74  1  0  0  0  0
 37 80  2  0  0  0  0
 38 41  1  0  0  0  0
 39 48  1  0  0  0  0
 40 68  1  0  0  0  0
 41 43  1  0  0  0  0
 42 44  1  0  0  0  0
 42 45  1  0  0  0  0
 43 47  1  0  0  0  0
 44 49  1  0  0  0  0
 45 69  1  0  0  0  0
 46 49  1  0  0  0  0
 46 69  1  0  0  0  0
 47 72  1  0  0  0  0
 48 68  1  0  0  0  0
 49 67  1  0  0  0  0
 51 60  1  0  0  0  0
 52 62  1  0  0  0  0
 53 63  1  0  0  0  0
 54 63  1  0  0  0  0
 55 64  1  0  0  0  0
 56 64  1  0  0  0  0
 57 64  1  0  0  0  0
 58 75  1  0  0  0  0
 59 63  1  0  0  0  0
 59 82  1  0  0  0  0
 60 74  1  0  0  0  0
 61 64  1  0  0  0  0
 61 73  1  0  0  0  0
 62 75  1  0  0  0  0
 66 67  1  0  0  0  0
M  CHG  1  75   1
M  ISO  4  37 100  59 101  74 100  82 101
M  END
> <Batch ID>
0115

> <Smiles>
CNC(C)C(=O)NC(C(=O)N1Cc2cc([101O:1][101CH2:1]C(C)(C)c3cc(C)c(C(C)[100NH:0][100C:0](=O)N4CCCC(n5nc(-c6ccc(Oc7ccc(F)cc7F)cc6)c(C(N)=O)c5N)C4)cn3)ccc2CC1C(=O)NC1CCCc2ccccc21)C(C)(C)C

> <Shape>
0.220

> <Color>
0.098

> <Negative vol penalty>
0.000

$$$$

  -OEChem-04052320103D

 90 98  0     1  0  0  0  0  0999 V2000
  -19.8463  -17.1411   19.4429 C   0  0  0  0  0  0  0  0  0  0  0  0
  -21.0522  -17.4555   20.0614 C   0  0  0  0  0  0  0  0  0  0  0  0
  -23.0727   -9.8692   19.9494 C   0  0  0  0  0  0  0  0  0  0  0  0
  -23.8327   -9.8860   22.2427 C   0  0  0  0  0  0  0  0  0  0  0  0
  -19.4516  -17.8299   18.2967 C   0  0  0  0  0  0  0  0  0  0  0  0
  -21.8646  -18.4583   19.5333 C   0  0  0  0  0  0  0  0  0  0  0  0
  -23.6666  -21.5750   23.0948 C   0  0  0  0  0  0  0  0  0  0  0  0
  -22.3274   -8.7182   20.2048 C   0  0  0  0  0  0  0  0  0  0  0  0
  -23.0873   -8.7350   22.4981 C   0  0  0  0  0  0  0  0  0  0  0  0
  -24.7399  -21.1172   23.8577 C   0  0  0  0  0  0  0  0  0  0  0  0
  -21.0988   -6.0069   23.8477 C   0  0  0  0  0  0  0  0  0  0  0  0
  -20.3425   -5.9699   25.0191 C   0  0  0  0  0  0  0  0  0  0  0  0
  -26.2536  -22.4041   22.4895 C   0  0  0  0  0  0  0  0  0  0  0  0
  -19.1005   -7.9053   24.2784 C   0  0  0  0  0  0  0  0  0  0  0  0
  -23.8255  -10.4531   20.9683 C   0  0  0  0  0  0  0  0  0  0  0  0
  -24.1707  -12.9772   20.8363 C   0  0  0  0  0  0  0  0  0  0  0  0
  -20.2550  -18.8483   17.7600 C   0  0  0  0  0  0  0  0  0  0  0  0
  -23.8802  -22.4437   22.0149 C   0  0  0  0  0  0  0  0  0  0  0  0
  -21.4809  -19.1605   18.3782 C   0  0  0  0  0  0  0  0  0  0  0  0
  -25.1810  -22.8735   21.7160 C   0  0  0  0  0  0  0  0  0  0  0  0
  -22.3346   -8.1512   21.4792 C   0  0  0  0  0  0  0  0  0  0  0  0
  -26.0340  -21.5294   23.5534 C   0  0  0  0  0  0  0  0  0  0  0  0
  -20.8560   -6.9932   22.8917 C   0  0  0  0  0  0  0  0  0  0  0  0
  -19.3433   -6.9190   25.2345 C   0  0  0  0  0  0  0  0  0  0  0  0
  -19.8568   -7.9424   23.1070 C   0  0  0  0  0  0  0  0  0  0  0  0
  -24.5961  -11.6417   20.7049 C   0  0  0  0  0  0  0  0  0  0  0  0
  -25.2638  -13.7235   20.4695 C   0  0  0  0  0  0  0  0  0  0  0  0
  -31.2370  -20.5910   26.9511 C   0  0  0  0  0  0  0  0  0  0  0  0
  -31.7974  -20.9365   25.6086 C   0  0  0  0  0  0  0  0  0  0  0  0
  -22.9009  -13.4967   21.2528 C   0  0  0  0  0  0  0  0  0  0  0  0
  -31.2425  -20.8345   23.1907 C   0  0  0  0  0  0  0  0  0  0  0  0
  -23.3805  -22.2899   18.8795 C   0  0  0  0  0  0  0  0  0  0  0  0
  -24.3186  -25.3937   18.9714 C   0  0  0  0  0  0  0  0  0  0  0  0
  -26.0511  -27.8502   20.5873 C   0  0  0  0  0  0  0  0  0  0  0  0
  -30.7489  -14.7361   20.6528 C   0  0  0  0  0  0  0  0  0  0  0  0
  -19.8089  -19.5327   16.4922 C   0  0  0  0  0  0  0  0  0  0  0  0
  -22.7089  -22.9496   21.2183 C   0  0  0  0  0  0  0  0  0  0  0  0
  -25.4616  -23.8213   20.5796 C   0  0  0  0  0  0  0  0  0  0  0  0
  -20.5496  -20.8376   16.2115 C   0  0  0  0  0  0  0  0  0  0  0  0
  -29.6080  -12.3419   18.2774 C   0  0  0  0  0  0  0  0  0  0  0  0
  -22.0513  -20.6511   16.4037 C   0  0  0  0  0  0  0  0  0  0  0  0
  -28.1702  -12.0521   18.7118 C   0  0  0  0  0  0  0  0  0  0  0  0
  -29.1094  -21.3919   26.3200 C   0  0  0  0  0  0  0  0  0  0  0  0
  -30.5255  -12.5672   19.4772 C   0  0  0  0  0  0  0  0  0  0  0  0
  -28.6248  -13.3073   20.8604 C   0  0  0  0  0  0  0  0  0  0  0  0
  -22.3778  -20.2589   17.8497 C   0  0  1  0  0  0  0  0  0  0  0  0
  -30.8419  -21.3781   24.5294 C   0  0  1  0  0  0  0  0  0  0  0  0
  -23.0970  -23.4255   19.8217 C   0  0  1  0  0  0  0  0  0  0  0  0
  -29.4151  -20.9476   24.8877 C   0  0  2  0  0  0  0  0  0  0  0  0
  -27.6503  -13.1284   19.6836 C   0  0  2  0  0  0  0  0  0  0  0  0
  -31.5245  -22.6479   21.5019 C   0  0  0  0  0  0  0  0  0  0  0  0
  -26.6664  -30.2758   20.4005 C   0  0  0  0  0  0  0  0  0  0  0  0
  -27.2521  -19.5191   19.8026 C   0  0  0  0  0  0  0  0  0  0  0  0
  -28.6455  -17.8664   18.4982 C   0  0  0  0  0  0  0  0  0  0  0  0
  -26.3814  -24.7033   16.8317 C   0  0  0  0  0  0  0  0  0  0  0  0
  -27.5558  -26.8477   17.3709 C   0  0  0  0  0  0  0  0  0  0  0  0
  -25.2209  -26.8927   16.4940 C   0  0  0  0  0  0  0  0  0  0  0  0
  -24.6776  -28.5134   23.1235 C   0  0  0  0  0  0  0  0  0  0  0  0
  -32.2403  -21.6365   22.3779 C   0  0  0  0  0  0  0  0  0  0  0  0
  -28.3824  -21.5463   23.9284 C   0  0  0  0  0  0  0  0  0  1  0  0
  -31.2489  -19.3533   21.3522 C   0  0  0  0  0  0  0  0  0  0  0  0
  -30.8176  -16.8924   21.8796 C   0  0  0  0  0  0  0  0  0  0  0  0
  -25.6405  -26.1147   18.8627 C   0  0  1  0  0  0  0  0  0  0  0  0
  -25.6714  -29.2716   20.9610 C   0  0  2  0  0  0  0  0  0  0  0  0
  -28.6359  -18.9277   19.5867 C   0  0  0  0  0  0  0  0  0  0  0  0
  -30.5549  -18.0601   20.9295 C   0  0  1  0  0  0  0  0  0  0  0  0
  -26.1949  -26.1202   17.4101 C   0  0  0  0  0  0  0  0  0  0  0  0
  -25.8608  -11.5422   20.2870 N   0  0  0  0  0  0  0  0  0  0  0  0
  -30.0151  -20.7793   27.2900 N   0  0  0  0  0  0  0  0  0  0  0  0
  -30.7635  -19.7592   22.6623 N   0  0  0  0  0  0  0  0  0  0  0  0
  -26.2394  -12.8247   20.1526 N   0  0  0  0  0  0  0  0  0  0  0  0
  -24.2839  -24.2830   19.8263 N   0  0  0  0  0  0  0  0  0  0  0  0
  -29.9763  -13.6006   20.3583 N   0  0  0  0  0  0  0  0  0  0  0  0
  -25.4760  -15.0543   20.3902 N   0  0  0  0  0  0  0  0  0  0  0  0
  -21.8878  -12.5904   21.5944 N   0  0  0  0  0  0  0  0  0  0  0  0
  -22.3207  -21.4189   18.7132 N   0  0  0  0  0  0  0  0  0  0  0  0
  -25.4282  -27.4435   19.4263 N   0  0  0  0  0  0  0  0  0  0  0  0
  -30.1510  -15.6697   21.4905 N   0  0  0  0  0  0  0  0  0  0  0  0
  -25.6330  -29.4249   22.4429 N   0  3  0  0  0  0  0  0  0  0  0  0
  -29.0844  -18.3034   20.8570 N   0  3  0  0  0  0  0  0  0  0  0  0
  -33.0111  -20.8563   25.4771 O   0  0  0  0  0  0  0  0  0  0  0  0
  -22.6663  -14.7278   21.3044 O   0  0  0  0  0  0  0  0  0  0  0  0
  -24.4789  -22.2107   18.3420 O   0  0  0  0  0  0  0  0  0  0  0  0
  -23.3505  -25.8053   18.3271 O   0  0  0  0  0  0  0  0  0  0  0  0
  -26.8260  -27.1699   21.2561 O   0  0  0  0  0  0  0  0  0  0  0  0
  -31.8850  -14.9080   20.1984 O   0  0  0  0  0  0  0  0  0  0  0  0
  -21.6072   -7.0282   21.7288 O   0  0  0  0  0  0  0  0  0  0  0  0
  -27.0835  -21.0835   24.2960 O   0  0  0  0  0  0  0  0  0  1  0  0
  -18.6161   -6.8824   26.3588 F   0  0  0  0  0  0  0  0  0  0  0  0
  -19.6181   -8.8916   22.1917 F   0  0  0  0  0  0  0  0  0  0  0  0
  1  2  1  0  0  0  0
  1  5  2  0  0  0  0
  2  6  2  0  0  0  0
  3  8  2  0  0  0  0
  3 15  1  0  0  0  0
  4  9  1  0  0  0  0
  4 15  2  0  0  0  0
  5 17  1  0  0  0  0
  6 19  1  0  0  0  0
  7 10  2  0  0  0  0
  7 18  1  0  0  0  0
  8 21  1  0  0  0  0
  9 21  2  0  0  0  0
 10 22  1  0  0  0  0
 11 12  2  0  0  0  0
 11 23  1  0  0  0  0
 12 24  1  0  0  0  0
 13 20  1  0  0  0  0
 13 22  2  0  0  0  0
 14 24  2  0  0  0  0
 14 25  1  0  0  0  0
 15 26  1  0  0  0  0
 16 26  1  0  0  0  0
 16 27  2  0  0  0  0
 16 30  1  0  0  0  0
 17 19  2  0  0  0  0
 17 36  1  0  0  0  0
 18 20  2  0  0  0  0
 18 37  1  0  0  0  0
 19 46  1  0  0  0  0
 20 38  1  0  0  0  0
 21 87  1  0  0  0  0
 22 88  1  0  0  0  0
 23 25  2  0  0  0  0
 23 87  1  0  0  0  0
 24 89  1  0  0  0  0
 25 90  1  0  0  0  0
 26 68  2  0  0  0  0
 27 71  1  0  0  0  0
 27 74  1  0  0  0  0
 28 29  1  0  0  0  0
 28 69  2  0  0  0  0
 29 47  1  0  0  0  0
 29 81  2  0  0  0  0
 30 75  1  0  0  0  0
 30 82  2  0  0  0  0
 31 47  1  0  0  0  0
 31 59  1  0  0  0  0
 31 70  2  0  0  0  0
 32 48  1  0  0  0  0
 32 76  1  0  0  0  0
 32 83  2  0  0  0  0
 33 63  1  0  0  0  0
 33 72  1  0  0  0  0
 33 84  2  0  0  0  0
 34 64  1  0  0  0  0
 34 77  1  0  0  0  0
 34 85  2  0  0  0  0
 35 73  1  0  0  0  0
 35 78  1  0  0  0  0
 35 86  2  0  0  0  0
 36 39  1  0  0  0  0
 37 48  1  0  0  0  0
 38 72  1  0  0  0  0
 39 41  1  0  0  0  0
 40 42  1  0  0  0  0
 40 44  1  0  0  0  0
 41 46  1  0  0  0  0
 42 50  1  0  0  0  0
 43 49  1  0  0  0  0
 43 69  1  0  0  0  0
 44 73  1  0  0  0  0
 45 50  1  0  0  0  0
 45 73  1  0  0  0  0
 46 76  1  0  0  0  0
 47 49  1  0  0  0  0
 48 72  1  0  0  0  0
 49 60  1  0  0  0  0
 50 71  1  0  0  0  0
 51 59  1  0  0  0  0
 52 64  1  0  0  0  0
 53 65  1  0  0  0  0
 54 65  1  0  0  0  0
 55 67  1  0  0  0  0
 56 67  1  0  0  0  0
 57 67  1  0  0  0  0
 58 79  1  0  0  0  0
 60 88  1  0  0  0  0
 61 66  1  0  0  0  0
 61 70  1  0  0  0  0
 62 66  1  0  0  0  0
 62 78  1  0  0  0  0
 63 67  1  0  0  0  0
 63 77  1  0  0  0  0
 64 79  1  0  0  0  0
 65 80  1  0  0  0  0
 66 80  1  0  0  0  0
 68 71  1  0  0  0  0
M  CHG  2  79   1  80   1
M  ISO  4  35 100  60 101  78 100  88 101
M  END
> <Batch ID>
0115

> <Smiles>
C=CC(NCC(C[100NH:0][100C:0](=O)N1CCCC(n2nc(-c3ccc(Oc4ccc(F)cc4F)cc3)c(C(N)=O)c2N)C1)NC(C)C)=C1C(=O)CNCC1[101CH2:1][101O:1]c1ccc2c(c1)CN(C(=O)C(NC(=O)C(C)NC)C(C)(C)C)C(C(=O)NC1CCCc3ccccc31)C2

> <Shape>
0.227

> <Color>
0.173

> <Negative vol penalty>
0.000

$$$$

  -OEChem-04052320103D

 84 92  0     1  0  0  0  0  0999 V2000
  -23.0282   -7.9923   21.9505 C   0  0  0  0  0  0  0  0  0  0  0  0
  -24.2107   -8.6696   22.2307 C   0  0  0  0  0  0  0  0  0  0  0  0
  -26.4725  -25.6181   20.2418 C   0  0  0  0  0  0  0  0  0  0  0  0
  -28.8089  -26.1472   19.9283 C   0  0  0  0  0  0  0  0  0  0  0  0
  -22.1671   -8.4738   20.9653 C   0  0  0  0  0  0  0  0  0  0  0  0
  -24.5333   -9.8282   21.5250 C   0  0  0  0  0  0  0  0  0  0  0  0
  -27.4800  -14.7478   23.6744 C   0  0  0  0  0  0  0  0  0  0  0  0
  -26.1338  -26.9385   19.9466 C   0  0  0  0  0  0  0  0  0  0  0  0
  -28.4702  -27.4678   19.6331 C   0  0  0  0  0  0  0  0  0  0  0  0
  -28.8112  -15.1540   23.5923 C   0  0  0  0  0  0  0  0  0  0  0  0
  -24.6824  -30.2574   19.6270 C   0  0  0  0  0  0  0  0  0  0  0  0
  -23.7466  -30.8874   20.4473 C   0  0  0  0  0  0  0  0  0  0  0  0
  -28.2659  -16.5363   21.6920 C   0  0  0  0  0  0  0  0  0  0  0  0
  -25.1940  -30.5557   22.3532 C   0  0  0  0  0  0  0  0  0  0  0  0
  -27.8101  -25.2224   20.2327 C   0  0  0  0  0  0  0  0  0  0  0  0
  -28.2816  -22.7885   19.6315 C   0  0  0  0  0  0  0  0  0  0  0  0
  -22.4747   -9.6442   20.2538 C   0  0  0  0  0  0  0  0  0  0  0  0
  -26.5323  -15.2252   22.7576 C   0  0  0  0  0  0  0  0  0  0  0  0
  -23.6761  -10.3250   20.5284 C   0  0  0  0  0  0  0  0  0  0  0  0
  -26.9228  -16.1366   21.7662 C   0  0  0  0  0  0  0  0  0  0  0  0
  -27.1326  -27.8634   19.6422 C   0  0  0  0  0  0  0  0  0  0  0  0
  -29.2049  -16.0461   22.5992 C   0  0  0  0  0  0  0  0  0  0  0  0
  -25.8740  -29.7765   20.1698 C   0  0  0  0  0  0  0  0  0  0  0  0
  -24.0024  -31.0366   21.8104 C   0  0  0  0  0  0  0  0  0  0  0  0
  -26.1298  -29.9256   21.5328 C   0  0  0  0  0  0  0  0  0  0  0  0
  -28.1606  -23.8586   20.5381 C   0  0  0  0  0  0  0  0  0  0  0  0
  -28.6306  -21.7142   20.4128 C   0  0  0  0  0  0  0  0  0  0  0  0
  -28.0951  -22.7675   18.2100 C   0  0  0  0  0  0  0  0  0  0  0  0
  -34.2151  -19.6283   24.0487 C   0  0  0  0  0  0  0  0  0  0  0  0
  -24.6586  -13.8868   20.5665 C   0  0  0  0  0  0  0  0  0  0  0  0
  -23.4671  -16.8931   20.3122 C   0  0  0  0  0  0  0  0  0  0  0  0
  -23.9484  -20.2455   20.7326 C   0  0  0  0  0  0  0  0  0  0  0  0
  -31.3613  -21.2493   25.7212 C   0  0  0  0  0  0  0  0  0  0  0  0
  -21.5357  -10.0998   19.1651 C   0  0  0  0  0  0  0  0  0  0  0  0
  -25.0950  -14.7981   22.8762 C   0  0  0  0  0  0  0  0  0  0  0  0
  -25.9402  -16.6943   20.7703 C   0  0  0  0  0  0  0  0  0  0  0  0
  -21.7700  -11.5419   18.7228 C   0  0  0  0  0  0  0  0  0  0  0  0
  -28.1435  -19.9975   24.8520 C   0  0  0  0  0  0  0  0  0  0  0  0
  -23.2576  -11.7980   18.5033 C   0  0  0  0  0  0  0  0  0  0  0  0
  -27.7939  -20.7485   23.5661 C   0  0  0  0  0  0  0  0  0  0  0  0
  -33.3360  -18.6834   21.8971 C   0  0  0  0  0  0  0  0  0  0  0  0
  -28.9140  -20.8815   25.8302 C   0  0  0  0  0  0  0  0  0  0  0  0
  -29.7697  -22.2718   23.9840 C   0  0  0  0  0  0  0  0  0  0  0  0
  -34.7993  -16.8203   22.0427 C   0  0  0  0  0  0  0  0  0  0  0  0
  -24.0490  -11.5989   19.8016 C   0  0  1  0  0  0  0  0  0  0  0  0
  -34.5568  -19.1670   22.6703 C   0  0  2  0  0  0  0  0  0  0  0  0
  -24.3173  -14.9493   21.5725 C   0  0  1  0  0  0  0  0  0  0  0  0
  -33.3254  -17.1744   22.1218 C   0  0  2  0  0  0  0  0  0  0  0  0
  -29.0409  -21.4046   22.9433 C   0  0  2  0  0  0  0  0  0  0  0  0
  -22.8082  -22.4562   20.4007 C   0  0  0  0  0  0  0  0  0  0  0  0
  -24.0095  -16.7200   17.3145 C   0  0  0  0  0  0  0  0  0  0  0  0
  -23.7613  -19.2085   17.1966 C   0  0  0  0  0  0  0  0  0  0  0  0
  -21.8357  -17.7978   17.9209 C   0  0  0  0  0  0  0  0  0  0  0  0
  -24.0554  -20.8660   23.6244 C   0  0  0  0  0  0  0  0  0  0  0  0
  -31.8816  -14.0961   20.4240 C   0  0  0  0  0  0  0  0  0  0  0  0
  -34.6621  -21.0357   24.4119 C   0  0  0  0  0  0  0  0  0  0  0  0
  -33.7896  -21.6961   25.4704 C   0  0  0  0  0  0  0  0  0  0  0  0
  -31.0002  -16.7752   21.2203 C   0  0  0  0  0  0  0  0  0  1  0  0
  -23.8006  -18.1085   19.4812 C   0  0  1  0  0  0  0  0  0  0  0  0
  -23.0802  -21.3157   21.3692 C   0  0  2  0  0  0  0  0  0  0  0  0
  -32.4792  -16.4224   21.1096 C   0  0  2  0  0  0  0  0  0  0  0  0
  -23.3709  -17.9469   17.9957 C   0  0  0  0  0  0  0  0  0  0  0  0
  -28.4122  -23.4970   21.7991 N   0  0  0  0  0  0  0  0  0  0  0  0
  -28.6947  -22.1876   21.6903 N   0  0  0  0  0  0  0  0  0  0  0  0
  -24.5477  -16.2416   20.9235 N   0  0  0  0  0  0  0  0  0  0  0  0
  -30.0852  -21.4718   25.1778 N   0  0  0  0  0  0  0  0  0  0  0  0
  -28.8858  -20.4202   20.1249 N   0  0  0  0  0  0  0  0  0  0  0  0
  -27.7379  -23.9595   17.5653 N   0  0  0  0  0  0  0  0  0  0  0  0
  -23.8888  -12.7441   20.6719 N   0  0  0  0  0  0  0  0  0  0  0  0
  -23.1900  -19.2467   20.1594 N   0  0  0  0  0  0  0  0  0  0  0  0
  -32.4174  -21.8395   25.0377 N   0  0  0  0  0  0  0  0  0  0  0  0
  -35.4680  -17.9683   22.7391 N   0  3  0  0  0  0  0  0  0  0  0  0
  -23.7499  -21.8749   22.5775 N   0  3  0  0  0  0  0  0  0  0  0  0
  -32.6377  -14.9613   21.3648 N   0  3  0  0  0  0  0  0  0  0  0  0
  -28.2250  -21.7189   17.5339 O   0  0  0  0  0  0  0  0  0  0  0  0
  -33.6177  -18.8922   24.8322 O   0  0  0  0  0  0  0  0  0  0  0  0
  -25.5531  -14.0893   19.7537 O   0  0  0  0  0  0  0  0  0  0  0  0
  -22.2905  -16.5391   20.4208 O   0  0  0  0  0  0  0  0  0  0  0  0
  -25.1765  -20.2927   20.7396 O   0  0  0  0  0  0  0  0  0  0  0  0
  -31.5463  -20.5703   26.7369 O   0  0  0  0  0  0  0  0  0  0  0  0
  -26.8024  -29.1520   19.3539 O   0  0  0  0  0  0  0  0  0  0  0  0
  -30.5037  -16.4437   22.5164 O   0  0  0  0  0  0  0  0  0  1  0  0
  -23.1043  -31.6430   22.5978 F   0  0  0  0  0  0  0  0  0  0  0  0
  -27.2733  -29.4667   22.0598 F   0  0  0  0  0  0  0  0  0  0  0  0
  1  2  1  0  0  0  0
  1  5  2  0  0  0  0
  2  6  2  0  0  0  0
  3  8  2  0  0  0  0
  3 15  1  0  0  0  0
  4  9  1  0  0  0  0
  4 15  2  0  0  0  0
  5 17  1  0  0  0  0
  6 19  1  0  0  0  0
  7 10  2  0  0  0  0
  7 18  1  0  0  0  0
  8 21  1  0  0  0  0
  9 21  2  0  0  0  0
 10 22  1  0  0  0  0
 11 12  2  0  0  0  0
 11 23  1  0  0  0  0
 12 24  1  0  0  0  0
 13 20  1  0  0  0  0
 13 22  2  0  0  0  0
 14 24  2  0  0  0  0
 14 25  1  0  0  0  0
 15 26  1  0  0  0  0
 16 26  1  0  0  0  0
 16 27  2  0  0  0  0
 16 28  1  0  0  0  0
 17 19  2  0  0  0  0
 17 34  1  0  0  0  0
 18 20  2  0  0  0  0
 18 35  1  0  0  0  0
 19 45  1  0  0  0  0
 20 36  1  0  0  0  0
 21 81  1  0  0  0  0
 22 82  1  0  0  0  0
 23 25  2  0  0  0  0
 23 81  1  0  0  0  0
 24 83  1  0  0  0  0
 25 84  1  0  0  0  0
 26 63  2  0  0  0  0
 27 64  1  0  0  0  0
 27 67  1  0  0  0  0
 28 68  1  0  0  0  0
 28 75  2  0  0  0  0
 29 46  1  0  0  0  0
 29 56  1  0  0  0  0
 29 76  2  0  0  0  0
 30 47  1  0  0  0  0
 30 69  1  0  0  0  0
 30 77  2  0  0  0  0
 31 59  1  0  0  0  0
 31 65  1  0  0  0  0
 31 78  2  0  0  0  0
 32 60  1  0  0  0  0
 32 70  1  0  0  0  0
 32 79  2  0  0  0  0
 33 66  1  0  0  0  0
 33 71  1  0  0  0  0
 33 80  2  0  0  0  0
 34 37  1  0  0  0  0
 35 47  1  0  0  0  0
 36 65  1  0  0  0  0
 37 39  1  0  0  0  0
 38 40  1  0  0  0  0
 38 42  1  0  0  0  0
 39 45  1  0  0  0  0
 40 49  1  0  0  0  0
 41 46  1  0  0  0  0
 41 48  1  0  0  0  0
 42 66  1  0  0  0  0
 43 49  1  0  0  0  0
 43 66  1  0  0  0  0
 44 48  1  0  0  0  0
 44 72  1  0  0  0  0
 45 69  1  0  0  0  0
 46 72  1  0  0  0  0
 47 65  1  0  0  0  0
 48 61  1  0  0  0  0
 49 64  1  0  0  0  0
 50 60  1  0  0  0  0
 51 62  1  0  0  0  0
 52 62  1  0  0  0  0
 53 62  1  0  0  0  0
 54 73  1  0  0  0  0
 55 74  1  0  0  0  0
 56 57  1  0  0  0  0
 57 71  1  0  0  0  0
 58 61  1  0  0  0  0
 58 82  1  0  0  0  0
 59 62  1  0  0  0  0
 59 70  1  0  0  0  0
 60 73  1  0  0  0  0
 61 74  1  0  0  0  0
 63 64  1  0  0  0  0
M  CHG  3  72   1  73   1  74   1
M  ISO  4  33 100  58 101  71 100  82 101
M  END
> <Batch ID>
0115

> <Smiles>
CNC(C)C(=O)NC(C(=O)N1Cc2cc([101O:1][101CH2:1]C(NC)C3CNC(C(=O)CC[100NH:0][100C:0](=O)N4CCCC(n5nc(-c6ccc(Oc7ccc(F)cc7F)cc6)c(C(N)=O)c5N)C4)C3)ccc2CC1C(=O)NC1CCCc2ccccc21)C(C)(C)C

> <Shape>
0.199

> <Color>
0.051

> <Negative vol penalty>
0.000

$$$$

  -OEChem-04052320103D

 86 94  0     1  0  0  0  0  0999 V2000
  -26.4236  -32.3713   22.6657 C   0  0  0  0  0  0  0  0  0  0  0  0
  -26.1797  -31.0019   22.6883 C   0  0  0  0  0  0  0  0  0  0  0  0
  -23.1759   -9.7782   19.8923 C   0  0  0  0  0  0  0  0  0  0  0  0
  -23.8594   -9.8154   22.2093 C   0  0  0  0  0  0  0  0  0  0  0  0
  -25.4084  -33.2647   23.0052 C   0  0  0  0  0  0  0  0  0  0  0  0
  -24.9207  -30.5249   23.0516 C   0  0  0  0  0  0  0  0  0  0  0  0
  -23.2706  -26.8573   19.9742 C   0  0  0  0  0  0  0  0  0  0  0  0
  -22.4628   -8.6016   20.1216 C   0  0  0  0  0  0  0  0  0  0  0  0
  -23.1462   -8.6388   22.4386 C   0  0  0  0  0  0  0  0  0  0  0  0
  -23.8003  -25.5815   20.1628 C   0  0  0  0  0  0  0  0  0  0  0  0
  -19.9282   -7.7357   22.9377 C   0  0  0  0  0  0  0  0  0  0  0  0
  -19.1349   -7.6733   24.0833 C   0  0  0  0  0  0  0  0  0  0  0  0
  -21.8170  -24.9445   21.3793 C   0  0  0  0  0  0  0  0  0  0  0  0
  -20.4148   -5.7797   24.8664 C   0  0  0  0  0  0  0  0  0  0  0  0
  -31.8253  -17.4342   17.2816 C   0  0  0  0  0  0  0  0  0  0  0  0
  -30.5622  -17.0167   17.6389 C   0  0  0  0  0  0  0  0  0  0  0  0
  -32.1163  -18.3355   19.3630 C   0  0  0  0  0  0  0  0  0  0  0  0
  -23.8743  -10.3851   20.9362 C   0  0  0  0  0  0  0  0  0  0  0  0
  -24.1362  -12.9199   20.8191 C   0  0  0  0  0  0  0  0  0  0  0  0
  -24.1336  -32.7989   23.3634 C   0  0  0  0  0  0  0  0  0  0  0  0
  -22.0126  -27.1901   20.4969 C   0  0  0  0  0  0  0  0  0  0  0  0
  -23.8879  -31.4129   23.3975 C   0  0  0  0  0  0  0  0  0  0  0  0
  -21.2724  -26.2243   21.1937 C   0  0  0  0  0  0  0  0  0  0  0  0
  -22.4479   -8.0319   21.3947 C   0  0  0  0  0  0  0  0  0  0  0  0
  -23.0748  -24.6258   20.8679 C   0  0  0  0  0  0  0  0  0  0  0  0
  -20.9647   -6.8201   22.7564 C   0  0  0  0  0  0  0  0  0  0  0  0
  -19.3782   -6.6953   25.0477 C   0  0  0  0  0  0  0  0  0  0  0  0
  -21.2081   -5.8421   23.7207 C   0  0  0  0  0  0  0  0  0  0  0  0
  -24.6116  -11.6002   20.6999 C   0  0  0  0  0  0  0  0  0  0  0  0
  -30.8528  -17.9188   19.7202 C   0  0  0  0  0  0  0  0  0  0  0  0
  -25.2144  -13.7044   20.4894 C   0  0  0  0  0  0  0  0  0  0  0  0
  -22.8363  -13.3943   21.1945 C   0  0  0  0  0  0  0  0  0  0  0  0
  -20.9543  -29.3050   22.6208 C   0  0  0  0  0  0  0  0  0  0  0  0
  -18.0480  -28.2266   21.6653 C   0  0  0  0  0  0  0  0  0  0  0  0
  -16.2031  -25.7129   20.2780 C   0  0  0  0  0  0  0  0  0  0  0  0
  -30.6523  -14.9050   20.8538 C   0  0  0  0  0  0  0  0  0  0  0  0
  -23.0817  -33.8011   23.7682 C   0  0  0  0  0  0  0  0  0  0  0  0
  -21.4437  -28.5625   20.2618 C   0  0  0  0  0  0  0  0  0  0  0  0
  -19.9086  -26.5251   21.7575 C   0  0  0  0  0  0  0  0  0  0  0  0
  -21.6668  -33.2282   23.7792 C   0  0  0  0  0  0  0  0  0  0  0  0
  -29.6731  -12.4789   18.4390 C   0  0  0  0  0  0  0  0  0  0  0  0
  -21.6431  -31.8779   24.4883 C   0  0  0  0  0  0  0  0  0  0  0  0
  -28.2327  -12.1386   18.8255 C   0  0  0  0  0  0  0  0  0  0  0  0
  -30.5425  -12.7326   19.6685 C   0  0  0  0  0  0  0  0  0  0  0  0
  -28.5731  -13.4033   20.9897 C   0  0  0  0  0  0  0  0  0  0  0  0
  -22.5282  -30.8578   23.7621 C   0  0  1  0  0  0  0  0  0  0  0  0
  -20.3759  -28.9492   21.2805 C   0  0  1  0  0  0  0  0  0  0  0  0
  -27.6445  -13.1939   19.7813 C   0  0  2  0  0  0  0  0  0  0  0  0
  -13.8470  -25.1080   19.6615 C   0  0  0  0  0  0  0  0  0  0  0  0
  -26.2460  -19.0105   19.6638 C   0  0  0  0  0  0  0  0  0  0  0  0
  -17.4181  -27.6957   24.6032 C   0  0  0  0  0  0  0  0  0  0  0  0
  -15.5109  -26.2532   23.8616 C   0  0  0  0  0  0  0  0  0  0  0  0
  -15.5299  -28.6820   23.2932 C   0  0  0  0  0  0  0  0  0  0  0  0
  -16.8963  -25.4540   17.4124 C   0  0  0  0  0  0  0  0  0  0  0  0
  -25.2778  -21.6921   20.8370 C   0  0  0  0  0  0  0  0  0  0  0  0
  -30.6063  -17.0593   22.0852 C   0  0  0  0  0  0  0  0  0  0  0  0
  -28.4683  -19.8138   20.6293 C   0  0  0  0  0  0  0  0  0  0  0  0
  -24.8789  -23.1206   20.4997 C   0  0  0  0  0  0  0  0  0  1  0  0
  -30.3147  -18.2004   21.1054 C   0  0  2  0  0  0  0  0  0  0  0  0
  -17.1216  -27.1184   22.1043 C   0  0  1  0  0  0  0  0  0  0  0  0
  -15.1533  -25.7210   19.1815 C   0  0  2  0  0  0  0  0  0  0  0  0
  -26.9501  -19.9865   20.6016 C   0  0  1  0  0  0  0  0  0  0  0  0
  -16.4217  -27.4320   23.4568 C   0  0  0  0  0  0  0  0  0  0  0  0
  -32.6251  -18.1010   18.1373 N   0  0  0  0  0  0  0  0  0  0  0  0
  -30.0532  -17.2516   18.8646 N   0  0  0  0  0  0  0  0  0  0  0  0
  -25.8920  -11.5455   20.3235 N   0  0  0  0  0  0  0  0  0  0  0  0
  -26.2303  -12.8405   20.2034 N   0  0  0  0  0  0  0  0  0  0  0  0
  -19.3980  -27.8830   21.5067 N   0  0  0  0  0  0  0  0  0  0  0  0
  -29.9294  -13.7443   20.5326 N   0  0  0  0  0  0  0  0  0  0  0  0
  -25.3829  -15.0419   20.4189 N   0  0  0  0  0  0  0  0  0  0  0  0
  -21.8445  -12.4528   21.5015 N   0  0  0  0  0  0  0  0  0  0  0  0
  -21.8551  -30.3522   22.5849 N   0  0  0  0  0  0  0  0  0  0  0  0
  -16.2024  -26.8911   20.9944 N   0  0  0  0  0  0  0  0  0  0  0  0
  -29.9954  -15.8153   21.6728 N   0  0  0  0  0  0  0  0  0  0  0  0
  -26.5823  -21.3594   20.2821 N   0  0  0  0  0  0  0  0  0  0  0  0
  -15.6307  -24.9458   18.0016 N   0  3  0  0  0  0  0  0  0  0  0  0
  -28.8489  -18.4588   21.0982 N   0  3  0  0  0  0  0  0  0  0  0  0
  -22.5578  -14.6165   21.2400 O   0  0  0  0  0  0  0  0  0  0  0  0
  -20.6077  -28.6769   23.6144 O   0  0  0  0  0  0  0  0  0  0  0  0
  -17.5894  -29.3538   21.4634 O   0  0  0  0  0  0  0  0  0  0  0  0
  -16.9467  -24.7557   20.4812 O   0  0  0  0  0  0  0  0  0  0  0  0
  -31.7961  -15.1171   20.4371 O   0  0  0  0  0  0  0  0  0  0  0  0
  -21.7519   -6.8839   21.6188 O   0  0  0  0  0  0  0  0  0  0  0  0
  -23.5898  -23.3800   21.0540 O   0  0  0  0  0  0  0  0  0  1  0  0
  -18.6174   -6.6365   26.1485 F   0  0  0  0  0  0  0  0  0  0  0  0
  -22.2032   -4.9605   23.5526 F   0  0  0  0  0  0  0  0  0  0  0  0
  1  2  1  0  0  0  0
  1  5  2  0  0  0  0
  2  6  2  0  0  0  0
  3  8  2  0  0  0  0
  3 18  1  0  0  0  0
  4  9  1  0  0  0  0
  4 18  2  0  0  0  0
  5 20  1  0  0  0  0
  6 22  1  0  0  0  0
  7 10  2  0  0  0  0
  7 21  1  0  0  0  0
  8 24  1  0  0  0  0
  9 24  2  0  0  0  0
 10 25  1  0  0  0  0
 11 12  2  0  0  0  0
 11 26  1  0  0  0  0
 12 27  1  0  0  0  0
 13 23  1  0  0  0  0
 13 25  2  0  0  0  0
 14 27  2  0  0  0  0
 14 28  1  0  0  0  0
 15 16  2  0  0  0  0
 15 64  1  0  0  0  0
 16 65  1  0  0  0  0
 17 30  1  0  0  0  0
 17 64  2  0  0  0  0
 18 29  1  0  0  0  0
 19 29  1  0  0  0  0
 19 31  2  0  0  0  0
 19 32  1  0  0  0  0
 20 22  2  0  0  0  0
 20 37  1  0  0  0  0
 21 23  2  0  0  0  0
 21 38  1  0  0  0  0
 22 46  1  0  0  0  0
 23 39  1  0  0  0  0
 24 83  1  0  0  0  0
 25 84  1  0  0  0  0
 26 28  2  0  0  0  0
 26 83  1  0  0  0  0
 27 85  1  0  0  0  0
 28 86  1  0  0  0  0
 29 66  2  0  0  0  0
 30 59  1  0  0  0  0
 30 65  2  0  0  0  0
 31 67  1  0  0  0  0
 31 70  1  0  0  0  0
 32 71  1  0  0  0  0
 32 78  2  0  0  0  0
 33 47  1  0  0  0  0
 33 72  1  0  0  0  0
 33 79  2  0  0  0  0
 34 60  1  0  0  0  0
 34 68  1  0  0  0  0
 34 80  2  0  0  0  0
 35 61  1  0  0  0  0
 35 73  1  0  0  0  0
 35 81  2  0  0  0  0
 36 69  1  0  0  0  0
 36 74  1  0  0  0  0
 36 82  2  0  0  0  0
 37 40  1  0  0  0  0
 38 47  1  0  0  0  0
 39 68  1  0  0  0  0
 40 42  1  0  0  0  0
 41 43  1  0  0  0  0
 41 44  1  0  0  0  0
 42 46  1  0  0  0  0
 43 48  1  0  0  0  0
 44 69  1  0  0  0  0
 45 48  1  0  0  0  0
 45 69  1  0  0  0  0
 46 72  1  0  0  0  0
 47 68  1  0  0  0  0
 48 67  1  0  0  0  0
 49 61  1  0  0  0  0
 50 62  1  0  0  0  0
 51 63  1  0  0  0  0
 52 63  1  0  0  0  0
 53 63  1  0  0  0  0
 54 76  1  0  0  0  0
 55 58  1  0  0  0  0
 55 75  1  0  0  0  0
 56 59  1  0  0  0  0
 56 74  1  0  0  0  0
 57 62  1  0  0  0  0
 57 77  1  0  0  0  0
 58 84  1  0  0  0  0
 59 77  1  0  0  0  0
 60 63  1  0  0  0  0
 60 73  1  0  0  0  0
 61 76  1  0  0  0  0
 62 75  1  0  0  0  0
 66 67  1  0  0  0  0
M  CHG  2  76   1  77   1
M  ISO  4  36 100  58 101  74 100  84 101
M  END
> <Batch ID>
0115

> <Smiles>
CNC(C)C(=O)NC(C(=O)N1Cc2cc([101O:1][101CH2:1]CNC(C)CNC(C[100NH:0][100C:0](=O)N3CCCC(n4nc(-c5ccc(Oc6ccc(F)cc6F)cc5)c(C(N)=O)c4N)C3)c3cnccn3)ccc2CC1C(=O)NC1CCCc2ccccc21)C(C)(C)C

> <Shape>
0.326

> <Color>
0.185

> <Negative vol penalty>
0.000

$$$$

  -OEChem-04052320103D

 81 89  0     1  0  0  0  0  0999 V2000
  -27.7626  -31.7627   27.7629 C   0  0  0  0  0  0  0  0  0  0  0  0
  -27.8987  -30.7502   26.8185 C   0  0  0  0  0  0  0  0  0  0  0  0
  -23.5871  -14.1266   20.8678 C   0  0  0  0  0  0  0  0  0  0  0  0
  -25.9218  -14.4127   21.4193 C   0  0  0  0  0  0  0  0  0  0  0  0
  -26.5086  -32.3200   28.0099 C   0  0  0  0  0  0  0  0  0  0  0  0
  -26.7807  -30.2937   26.1214 C   0  0  0  0  0  0  0  0  0  0  0  0
  -27.6713  -29.7455   21.1664 C   0  0  0  0  0  0  0  0  0  0  0  0
  -30.9382  -22.3146   20.3090 C   0  0  0  0  0  0  0  0  0  0  0  0
  -23.8308  -12.7963   20.5262 C   0  0  0  0  0  0  0  0  0  0  0  0
  -26.1655  -13.0825   21.0778 C   0  0  0  0  0  0  0  0  0  0  0  0
  -28.3747  -28.6097   20.7678 C   0  0  0  0  0  0  0  0  0  0  0  0
  -23.7693   -9.2246   19.8525 C   0  0  0  0  0  0  0  0  0  0  0  0
  -22.8732   -8.2614   20.3159 C   0  0  0  0  0  0  0  0  0  0  0  0
  -29.7293  -21.6342   20.2137 C   0  0  0  0  0  0  0  0  0  0  0  0
  -26.2999  -27.5542   20.1351 C   0  0  0  0  0  0  0  0  0  0  0  0
  -23.3768   -8.8888   22.5941 C   0  0  0  0  0  0  0  0  0  0  0  0
  -24.6326  -14.9348   21.3143 C   0  0  0  0  0  0  0  0  0  0  0  0
  -24.0215  -16.8101   22.9322 C   0  0  0  0  0  0  0  0  0  0  0  0
  -25.3763  -31.8768   27.3085 C   0  0  0  0  0  0  0  0  0  0  0  0
  -26.2736  -29.7901   21.0624 C   0  0  0  0  0  0  0  0  0  0  0  0
  -25.5102  -30.8447   26.3602 C   0  0  0  0  0  0  0  0  0  0  0  0
  -25.5813  -28.6928   20.5307 C   0  0  0  0  0  0  0  0  0  0  0  0
  -31.0709  -23.5698   19.7259 C   0  0  0  0  0  0  0  0  0  0  0  0
  -25.1200  -12.2743   20.6312 C   0  0  0  0  0  0  0  0  0  0  0  0
  -27.6887  -27.5127   20.2547 C   0  0  0  0  0  0  0  0  0  0  0  0
  -24.4693  -10.0199   20.7599 C   0  0  0  0  0  0  0  0  0  0  0  0
  -22.6769   -8.0935   21.6867 C   0  0  0  0  0  0  0  0  0  0  0  0
  -24.2730   -9.8520   22.1306 C   0  0  0  0  0  0  0  0  0  0  0  0
  -24.3816  -16.3092   21.6668 C   0  0  0  0  0  0  0  0  0  0  0  0
  -29.9736  -24.0967   19.0639 C   0  0  0  0  0  0  0  0  0  0  0  0
  -28.6920  -22.2478   19.5301 C   0  0  0  0  0  0  0  0  0  0  0  0
  -23.9009  -18.1652   22.7434 C   0  0  0  0  0  0  0  0  0  0  0  0
  -23.8146  -16.1129   24.1678 C   0  0  0  0  0  0  0  0  0  0  0  0
  -23.8790  -30.0978   23.1300 C   0  0  0  0  0  0  0  0  0  0  0  0
  -22.0828  -30.2352   20.4323 C   0  0  0  0  0  0  0  0  0  0  0  0
  -21.7617  -29.4653   17.1231 C   0  0  0  0  0  0  0  0  0  0  0  0
  -26.2959  -21.9672   18.8046 C   0  0  0  0  0  0  0  0  0  0  0  0
  -24.0338  -32.4768   27.6437 C   0  0  0  0  0  0  0  0  0  0  0  0
  -25.5319  -31.0330   21.4718 C   0  0  0  0  0  0  0  0  0  0  0  0
  -24.0828  -28.6982   20.3794 C   0  0  0  0  0  0  0  0  0  0  0  0
  -22.9619  -32.1962   26.5937 C   0  0  0  0  0  0  0  0  0  0  0  0
  -22.8282  -21.3960   19.3750 C   0  0  0  0  0  0  0  0  0  0  0  0
  -22.9797  -30.7246   26.1927 C   0  0  0  0  0  0  0  0  0  0  0  0
  -22.8006  -20.0754   20.1479 C   0  0  0  0  0  0  0  0  0  0  0  0
  -23.9253  -21.4082   18.3121 C   0  0  0  0  0  0  0  0  0  0  0  0
  -25.2407  -19.7516   19.5749 C   0  0  0  0  0  0  0  0  0  0  0  0
  -24.3252  -30.3398   25.5658 C   0  0  1  0  0  0  0  0  0  0  0  0
  -24.0651  -30.7725   21.8003 C   0  0  1  0  0  0  0  0  0  0  0  0
  -24.1940  -19.7166   20.7005 C   0  0  2  0  0  0  0  0  0  0  0  0
  -32.3634  -24.3035   19.8229 C   0  0  0  0  0  0  0  0  0  0  0  0
  -29.1841  -25.5307   17.1529 C   0  0  0  0  0  0  0  0  0  0  0  0
  -20.1659  -29.6746   15.1978 C   0  0  0  0  0  0  0  0  0  0  0  0
  -20.3848  -27.9841   21.5982 C   0  0  0  0  0  0  0  0  0  0  0  0
  -19.4474  -27.5996   19.3087 C   0  0  0  0  0  0  0  0  0  0  0  0
  -19.0834  -29.7863   20.4525 C   0  0  0  0  0  0  0  0  0  0  0  0
  -23.6873  -31.0713   15.5510 C   0  0  0  0  0  0  0  0  0  0  0  0
  -29.7010  -26.5949   19.3804 C   0  0  0  0  0  0  0  0  0  1  0  0
  -30.0614  -25.4650   18.4062 C   0  0  1  0  0  0  0  0  0  0  0  0
  -21.3811  -29.2205   19.5623 C   0  0  1  0  0  0  0  0  0  0  0  0
  -21.3407  -30.3042   15.9300 C   0  0  2  0  0  0  0  0  0  0  0  0
  -20.1023  -28.6465   20.2349 C   0  0  0  0  0  0  0  0  0  0  0  0
  -24.4830  -17.2679   20.7424 N   0  0  0  0  0  0  0  0  0  0  0  0
  -28.7833  -23.4659   18.9506 N   0  0  0  0  0  0  0  0  0  0  0  0
  -24.1847  -18.3849   21.4275 N   0  0  0  0  0  0  0  0  0  0  0  0
  -23.4020  -29.9341   20.7996 N   0  0  0  0  0  0  0  0  0  0  0  0
  -25.2174  -21.0635   18.9092 N   0  0  0  0  0  0  0  0  0  0  0  0
  -23.5807  -19.1783   23.5761 N   0  0  0  0  0  0  0  0  0  0  0  0
  -23.9802  -14.7213   24.1855 N   0  0  0  0  0  0  0  0  0  0  0  0
  -27.4644  -21.5462   19.4387 N   0  0  0  0  0  0  0  0  0  0  0  0
  -24.3969  -30.8060   24.1975 N   0  0  0  0  0  0  0  0  0  0  0  0
  -21.1394  -29.8777   18.2824 N   0  0  0  0  0  0  0  0  0  0  0  0
  -22.4721  -30.4443   14.9703 N   0  3  0  0  0  0  0  0  0  0  0  0
  -23.4764  -16.7044   25.2210 O   0  0  0  0  0  0  0  0  0  0  0  0
  -23.3065  -29.0157   23.1835 O   0  0  0  0  0  0  0  0  0  0  0  0
  -21.4850  -31.2608   20.7677 O   0  0  0  0  0  0  0  0  0  0  0  0
  -22.5596  -28.5347   17.0348 O   0  0  0  0  0  0  0  0  0  0  0  0
  -26.1828  -23.0479   18.2205 O   0  0  0  0  0  0  0  0  0  0  0  0
  -25.3581  -10.9762   20.2982 O   0  0  0  0  0  0  0  0  0  0  0  0
  -28.3728  -26.4026   19.8655 O   0  0  0  0  0  0  0  0  0  1  0  0
  -21.8151   -7.1696   22.1315 F   0  0  0  0  0  0  0  0  0  0  0  0
  -24.9418  -10.6138   23.0071 F   0  0  0  0  0  0  0  0  0  0  0  0
  1  2  1  0  0  0  0
  1  5  2  0  0  0  0
  2  6  2  0  0  0  0
  3  9  2  0  0  0  0
  3 17  1  0  0  0  0
  4 10  1  0  0  0  0
  4 17  2  0  0  0  0
  5 19  1  0  0  0  0
  6 21  1  0  0  0  0
  7 11  2  0  0  0  0
  7 20  1  0  0  0  0
  8 14  2  0  0  0  0
  8 23  1  0  0  0  0
  9 24  1  0  0  0  0
 10 24  2  0  0  0  0
 11 25  1  0  0  0  0
 12 13  2  0  0  0  0
 12 26  1  0  0  0  0
 13 27  1  0  0  0  0
 14 31  1  0  0  0  0
 15 22  1  0  0  0  0
 15 25  2  0  0  0  0
 16 27  2  0  0  0  0
 16 28  1  0  0  0  0
 17 29  1  0  0  0  0
 18 29  1  0  0  0  0
 18 32  2  0  0  0  0
 18 33  1  0  0  0  0
 19 21  2  0  0  0  0
 19 38  1  0  0  0  0
 20 22  2  0  0  0  0
 20 39  1  0  0  0  0
 21 47  1  0  0  0  0
 22 40  1  0  0  0  0
 23 30  2  0  0  0  0
 23 50  1  0  0  0  0
 24 78  1  0  0  0  0
 25 79  1  0  0  0  0
 26 28  2  0  0  0  0
 26 78  1  0  0  0  0
 27 80  1  0  0  0  0
 28 81  1  0  0  0  0
 29 62  2  0  0  0  0
 30 58  1  0  0  0  0
 30 63  1  0  0  0  0
 31 63  2  0  0  0  0
 31 69  1  0  0  0  0
 32 64  1  0  0  0  0
 32 67  1  0  0  0  0
 33 68  1  0  0  0  0
 33 73  2  0  0  0  0
 34 48  1  0  0  0  0
 34 70  1  0  0  0  0
 34 74  2  0  0  0  0
 35 59  1  0  0  0  0
 35 65  1  0  0  0  0
 35 75  2  0  0  0  0
 36 60  1  0  0  0  0
 36 71  1  0  0  0  0
 36 76  2  0  0  0  0
 37 66  1  0  0  0  0
 37 69  1  0  0  0  0
 37 77  2  0  0  0  0
 38 41  1  0  0  0  0
 39 48  1  0  0  0  0
 40 65  1  0  0  0  0
 41 43  1  0  0  0  0
 42 44  1  0  0  0  0
 42 45  1  0  0  0  0
 43 47  1  0  0  0  0
 44 49  1  0  0  0  0
 45 66  1  0  0  0  0
 46 49  1  0  0  0  0
 46 66  1  0  0  0  0
 47 70  1  0  0  0  0
 48 65  1  0  0  0  0
 49 64  1  0  0  0  0
 51 58  1  0  0  0  0
 52 60  1  0  0  0  0
 53 61  1  0  0  0  0
 54 61  1  0  0  0  0
 55 61  1  0  0  0  0
 56 72  1  0  0  0  0
 57 58  1  0  0  0  0
 57 79  1  0  0  0  0
 59 61  1  0  0  0  0
 59 71  1  0  0  0  0
 60 72  1  0  0  0  0
 62 64  1  0  0  0  0
M  CHG  1  72   1
M  ISO  4  37 100  57 101  69 100  79 101
M  END
> <Batch ID>
0115

> <Smiles>
CNC(C)C(=O)NC(C(=O)N1Cc2cc([101O:1][101CH2:1]C(C)c3nc([100NH:0][100C:0](=O)N4CCCC(n5nc(-c6ccc(Oc7ccc(F)cc7F)cc6)c(C(N)=O)c5N)C4)ccc3C)ccc2CC1C(=O)NC1CCCc2ccccc21)C(C)(C)C

> <Shape>
0.249

> <Color>
0.105

> <Negative vol penalty>
0.000

$$$$

  -OEChem-04052320103D

 87 95  0     1  0  0  0  0  0999 V2000
  -27.5440  -32.2774   27.5890 C   0  0  0  0  0  0  0  0  0  0  0  0
  -27.7305  -31.2285   26.6943 C   0  0  0  0  0  0  0  0  0  0  0  0
  -23.5370  -15.6150   23.0572 C   0  0  0  0  0  0  0  0  0  0  0  0
  -24.8318  -14.8958   21.1485 C   0  0  0  0  0  0  0  0  0  0  0  0
  -26.2582  -32.7487   27.8506 C   0  0  0  0  0  0  0  0  0  0  0  0
  -26.6310  -30.6496   26.0615 C   0  0  0  0  0  0  0  0  0  0  0  0
  -27.4086  -29.9025   21.1135 C   0  0  0  0  0  0  0  0  0  0  0  0
  -22.6964  -14.5128   22.9023 C   0  0  0  0  0  0  0  0  0  0  0  0
  -23.9911  -13.7936   20.9936 C   0  0  0  0  0  0  0  0  0  0  0  0
  -28.1869  -28.8044   20.7500 C   0  0  0  0  0  0  0  0  0  0  0  0
  -23.5776  -10.7584   22.4208 C   0  0  0  0  0  0  0  0  0  0  0  0
  -24.1730   -9.5190   22.1864 C   0  0  0  0  0  0  0  0  0  0  0  0
  -26.1835  -27.5588   20.2461 C   0  0  0  0  0  0  0  0  0  0  0  0
  -31.6752  -22.8438   17.4334 C   0  0  0  0  0  0  0  0  0  0  0  0
  -22.9997   -9.3536   20.0808 C   0  0  0  0  0  0  0  0  0  0  0  0
  -24.6047  -15.8066   22.1803 C   0  0  0  0  0  0  0  0  0  0  0  0
  -26.6491  -17.0164   23.1101 C   0  0  0  0  0  0  0  0  0  0  0  0
  -25.1433  -32.1817   27.2133 C   0  0  0  0  0  0  0  0  0  0  0  0
  -26.0092  -29.8332   21.0564 C   0  0  0  0  0  0  0  0  0  0  0  0
  -25.3290  -31.1129   26.3158 C   0  0  0  0  0  0  0  0  0  0  0  0
  -25.3897  -28.6582   20.6071 C   0  0  0  0  0  0  0  0  0  0  0  0
  -31.3352  -22.5461   16.1185 C   0  0  0  0  0  0  0  0  0  0  0  0
  -30.0335  -22.1649   15.8122 C   0  0  0  0  0  0  0  0  0  0  0  0
  -22.9234  -13.6021   21.8705 C   0  0  0  0  0  0  0  0  0  0  0  0
  -27.5744  -27.6313   20.3190 C   0  0  0  0  0  0  0  0  0  0  0  0
  -22.6931  -11.2954   21.4853 C   0  0  0  0  0  0  0  0  0  0  0  0
  -23.8841   -8.8166   21.0164 C   0  0  0  0  0  0  0  0  0  0  0  0
  -22.4042  -10.5930   20.3153 C   0  0  0  0  0  0  0  0  0  0  0  0
  -25.4732  -16.9452   22.3394 C   0  0  0  0  0  0  0  0  0  0  0  0
  -30.6849  -22.7460   18.3975 C   0  0  0  0  0  0  0  0  0  0  0  0
  -29.1167  -22.0973   16.8488 C   0  0  0  0  0  0  0  0  0  0  0  0
  -27.1000  -18.3013   22.9307 C   0  0  0  0  0  0  0  0  0  0  0  0
  -27.2778  -16.0108   23.9159 C   0  0  0  0  0  0  0  0  0  0  0  0
  -23.6628  -30.0671   23.1880 C   0  0  0  0  0  0  0  0  0  0  0  0
  -21.7789  -29.9179   20.5515 C   0  0  0  0  0  0  0  0  0  0  0  0
  -21.4175  -28.9461   17.3001 C   0  0  0  0  0  0  0  0  0  0  0  0
  -26.3347  -22.3177   18.5564 C   0  0  0  0  0  0  0  0  0  0  0  0
  -23.7686  -32.6935   27.5638 C   0  0  0  0  0  0  0  0  0  0  0  0
  -25.1846  -31.0354   21.4265 C   0  0  0  0  0  0  0  0  0  0  0  0
  -23.8915  -28.5395   20.5083 C   0  0  0  0  0  0  0  0  0  0  0  0
  -22.6902  -32.2740   26.5681 C   0  0  0  0  0  0  0  0  0  0  0  0
  -25.5311  -22.7246   22.0011 C   0  0  0  0  0  0  0  0  0  0  0  0
  -22.8119  -30.7885   26.2437 C   0  0  0  0  0  0  0  0  0  0  0  0
  -25.5313  -21.2959   22.5479 C   0  0  0  0  0  0  0  0  0  0  0  0
  -24.9808  -22.7840   20.5778 C   0  0  0  0  0  0  0  0  0  0  0  0
  -25.6369  -20.4439   20.1685 C   0  0  0  0  0  0  0  0  0  0  0  0
  -24.1636  -30.4754   25.5907 C   0  0  1  0  0  0  0  0  0  0  0  0
  -23.7538  -30.6806   21.8194 C   0  0  1  0  0  0  0  0  0  0  0  0
  -26.2352  -20.3253   21.5806 C   0  0  2  0  0  0  0  0  0  0  0  0
  -32.3827  -22.6403   15.0588 C   0  0  0  0  0  0  0  0  0  0  0  0
  -29.6393  -21.8420   14.4102 C   0  0  0  0  0  0  0  0  0  0  0  0
  -19.7514  -28.9261   15.4237 C   0  0  0  0  0  0  0  0  0  0  0  0
  -20.3011  -27.6092   21.8916 C   0  0  0  0  0  0  0  0  0  0  0  0
  -19.3267  -27.0290   19.6595 C   0  0  0  0  0  0  0  0  0  0  0  0
  -18.8264  -29.2402   20.7002 C   0  0  0  0  0  0  0  0  0  0  0  0
  -23.1605  -30.6081   15.5800 C   0  0  0  0  0  0  0  0  0  0  0  0
  -27.7030  -21.6954   16.5816 C   0  0  0  0  0  0  0  0  0  0  0  0
  -30.8231  -21.8436   20.7701 C   0  0  0  0  0  0  0  0  0  0  0  0
  -30.1983  -24.2508   20.3823 C   0  0  0  0  0  0  0  0  0  0  0  0
  -31.7565  -20.6798   20.4432 C   0  0  0  0  0  0  0  0  0  0  0  0
  -29.7519  -26.7002   20.0569 C   0  0  0  0  0  0  0  0  0  1  0  0
  -31.0198  -23.0655   19.8469 C   0  0  2  0  0  0  0  0  0  0  0  0
  -21.1331  -28.8060   19.7606 C   0  0  1  0  0  0  0  0  0  0  0  0
  -20.8948  -29.6836   16.0805 C   0  0  2  0  0  0  0  0  0  0  0  0
  -19.9250  -28.1724   20.5066 C   0  0  0  0  0  0  0  0  0  0  0  0
  -25.1944  -18.0936   21.7170 N   0  0  0  0  0  0  0  0  0  0  0  0
  -29.4098  -22.3791   18.1382 N   0  0  0  0  0  0  0  0  0  0  0  0
  -26.2015  -18.8985   22.0963 N   0  0  0  0  0  0  0  0  0  0  0  0
  -23.1284  -29.7401   20.8874 N   0  0  0  0  0  0  0  0  0  0  0  0
  -25.6921  -21.8413   19.7111 N   0  0  0  0  0  0  0  0  0  0  0  0
  -28.1734  -18.9672   23.4069 N   0  0  0  0  0  0  0  0  0  0  0  0
  -26.6816  -14.7445   23.9896 N   0  0  0  0  0  0  0  0  0  0  0  0
  -24.1559  -30.8703   24.1985 N   0  0  0  0  0  0  0  0  0  0  0  0
  -20.8007  -29.3718   18.4575 N   0  0  0  0  0  0  0  0  0  0  0  0
  -26.9908  -21.3589   17.7942 N   0  0  0  0  0  0  0  0  0  0  0  0
  -21.9814  -29.8583   15.0757 N   0  3  0  0  0  0  0  0  0  0  0  0
  -30.5143  -25.4865   19.6182 N   0  3  0  0  0  0  0  0  0  0  0  0
  -28.3278  -16.2337   24.5649 O   0  0  0  0  0  0  0  0  0  0  0  0
  -23.1796  -28.9485   23.3177 O   0  0  0  0  0  0  0  0  0  0  0  0
  -21.1125  -30.9109   20.8539 O   0  0  0  0  0  0  0  0  0  0  0  0
  -22.2834  -28.0766   17.2323 O   0  0  0  0  0  0  0  0  0  0  0  0
  -26.3290  -23.5100   18.2320 O   0  0  0  0  0  0  0  0  0  0  0  0
  -31.5096  -19.6020   21.3382 O   0  0  0  0  0  0  0  0  0  0  0  0
  -22.1034  -12.5263   21.7192 O   0  0  0  0  0  0  0  0  0  0  0  0
  -28.3317  -26.5578   19.9642 O   0  0  0  0  0  0  0  0  0  1  0  0
  -24.4572   -7.6272   20.7906 F   0  0  0  0  0  0  0  0  0  0  0  0
  -21.5563  -11.1044   19.4124 F   0  0  0  0  0  0  0  0  0  0  0  0
  1  2  1  0  0  0  0
  1  5  2  0  0  0  0
  2  6  2  0  0  0  0
  3  8  2  0  0  0  0
  3 16  1  0  0  0  0
  4  9  1  0  0  0  0
  4 16  2  0  0  0  0
  5 18  1  0  0  0  0
  6 20  1  0  0  0  0
  7 10  2  0  0  0  0
  7 19  1  0  0  0  0
  8 24  1  0  0  0  0
  9 24  2  0  0  0  0
 10 25  1  0  0  0  0
 11 12  2  0  0  0  0
 11 26  1  0  0  0  0
 12 27  1  0  0  0  0
 13 21  1  0  0  0  0
 13 25  2  0  0  0  0
 14 22  2  0  0  0  0
 14 30  1  0  0  0  0
 15 27  2  0  0  0  0
 15 28  1  0  0  0  0
 16 29  1  0  0  0  0
 17 29  1  0  0  0  0
 17 32  2  0  0  0  0
 17 33  1  0  0  0  0
 18 20  2  0  0  0  0
 18 38  1  0  0  0  0
 19 21  2  0  0  0  0
 19 39  1  0  0  0  0
 20 47  1  0  0  0  0
 21 40  1  0  0  0  0
 22 23  1  0  0  0  0
 22 50  1  0  0  0  0
 23 31  2  0  0  0  0
 23 51  1  0  0  0  0
 24 84  1  0  0  0  0
 25 85  1  0  0  0  0
 26 28  2  0  0  0  0
 26 84  1  0  0  0  0
 27 86  1  0  0  0  0
 28 87  1  0  0  0  0
 29 66  2  0  0  0  0
 30 62  1  0  0  0  0
 30 67  2  0  0  0  0
 31 57  1  0  0  0  0
 31 67  1  0  0  0  0
 32 68  1  0  0  0  0
 32 71  1  0  0  0  0
 33 72  1  0  0  0  0
 33 78  2  0  0  0  0
 34 48  1  0  0  0  0
 34 73  1  0  0  0  0
 34 79  2  0  0  0  0
 35 63  1  0  0  0  0
 35 69  1  0  0  0  0
 35 80  2  0  0  0  0
 36 64  1  0  0  0  0
 36 74  1  0  0  0  0
 36 81  2  0  0  0  0
 37 70  1  0  0  0  0
 37 75  1  0  0  0  0
 37 82  2  0  0  0  0
 38 41  1  0  0  0  0
 39 48  1  0  0  0  0
 40 69  1  0  0  0  0
 41 43  1  0  0  0  0
 42 44  1  0  0  0  0
 42 45  1  0  0  0  0
 43 47  1  0  0  0  0
 44 49  1  0  0  0  0
 45 70  1  0  0  0  0
 46 49  1  0  0  0  0
 46 70  1  0  0  0  0
 47 73  1  0  0  0  0
 48 69  1  0  0  0  0
 49 68  1  0  0  0  0
 52 64  1  0  0  0  0
 53 65  1  0  0  0  0
 54 65  1  0  0  0  0
 55 65  1  0  0  0  0
 56 76  1  0  0  0  0
 57 75  1  0  0  0  0
 58 60  1  0  0  0  0
 58 62  1  0  0  0  0
 59 62  1  0  0  0  0
 59 77  1  0  0  0  0
 60 83  1  0  0  0  0
 61 77  1  0  0  0  0
 61 85  1  0  0  0  0
 63 65  1  0  0  0  0
 63 74  1  0  0  0  0
 64 76  1  0  0  0  0
 66 68  1  0  0  0  0
M  CHG  2  76   1  77   1
M  ISO  4  37 100  61 101  75 100  85 101
M  END
> <Batch ID>
0115

> <Smiles>
CNC(C)C(=O)NC(C(=O)N1Cc2cc([101O:1][101CH2:1]NCC(CCO)c3cc(C)c(C)c(C[100NH:0][100C:0](=O)N4CCCC(n5nc(-c6ccc(Oc7ccc(F)cc7F)cc6)c(C(N)=O)c5N)C4)n3)ccc2CC1C(=O)NC1CCCc2ccccc21)C(C)(C)C

> <Shape>
0.224

> <Color>
0.071

> <Negative vol penalty>
0.000

$$$$

  -OEChem-04052320103D

 84 92  0     1  0  0  0  0  0999 V2000
  -32.2531  -28.0703   14.5058 C   0  0  0  0  0  0  0  0  0  0  0  0
  -31.5690  -27.1827   15.3301 C   0  0  0  0  0  0  0  0  0  0  0  0
  -22.4457  -13.6330   21.7660 C   0  0  0  0  0  0  0  0  0  0  0  0
  -23.1001  -15.7912   22.6327 C   0  0  0  0  0  0  0  0  0  0  0  0
  -32.5313  -29.3614   14.9525 C   0  0  0  0  0  0  0  0  0  0  0  0
  -31.1637  -27.5853   16.6021 C   0  0  0  0  0  0  0  0  0  0  0  0
  -26.4098  -26.1953   17.6571 C   0  0  0  0  0  0  0  0  0  0  0  0
  -21.5504  -13.4794   22.8245 C   0  0  0  0  0  0  0  0  0  0  0  0
  -22.2047  -15.6376   23.6912 C   0  0  0  0  0  0  0  0  0  0  0  0
  -26.2007  -24.8653   18.0194 C   0  0  0  0  0  0  0  0  0  0  0  0
  -22.0924  -13.9870   26.6397 C   0  0  0  0  0  0  0  0  0  0  0  0
  -22.5401  -14.3136   27.9197 C   0  0  0  0  0  0  0  0  0  0  0  0
  -26.1338  -25.5147   20.3417 C   0  0  0  0  0  0  0  0  0  0  0  0
  -26.8027  -21.1196   20.3313 C   0  0  0  0  0  0  0  0  0  0  0  0
  -20.8025  -15.9823   28.1017 C   0  0  0  0  0  0  0  0  0  0  0  0
  -29.2657  -22.2657   20.0767 C   0  0  0  0  0  0  0  0  0  0  0  0
  -23.2206  -14.7889   21.6701 C   0  0  0  0  0  0  0  0  0  0  0  0
  -23.8874  -15.5306   19.3222 C   0  0  0  0  0  0  0  0  0  0  0  0
  -32.1208  -29.7832   16.2270 C   0  0  0  0  0  0  0  0  0  0  0  0
  -26.4934  -27.1952   18.6368 C   0  0  0  0  0  0  0  0  0  0  0  0
  -31.4379  -28.8828   17.0669 C   0  0  0  0  0  0  0  0  0  0  0  0
  -26.3413  -26.8570   19.9891 C   0  0  0  0  0  0  0  0  0  0  0  0
  -27.9388  -20.3556   20.5740 C   0  0  0  0  0  0  0  0  0  0  0  0
  -29.1977  -20.9320   20.4458 C   0  0  0  0  0  0  0  0  0  0  0  0
  -21.4298  -14.4817   23.7870 C   0  0  0  0  0  0  0  0  0  0  0  0
  -26.0656  -24.5244   19.3620 C   0  0  0  0  0  0  0  0  0  0  0  0
  -20.9998  -14.6582   26.0906 C   0  0  0  0  0  0  0  0  0  0  0  0
  -21.8951  -15.3112   28.6508 C   0  0  0  0  0  0  0  0  0  0  0  0
  -20.3549  -15.6558   26.8216 C   0  0  0  0  0  0  0  0  0  0  0  0
  -24.1461  -14.9479   20.5773 C   0  0  0  0  0  0  0  0  0  0  0  0
  -26.9778  -22.4447   19.9663 C   0  0  0  0  0  0  0  0  0  1  0  0
  -25.0811  -15.4399   18.6489 C   0  0  0  0  0  0  0  0  0  0  0  0
  -22.6763  -16.1027   18.8106 C   0  0  0  0  0  0  0  0  0  0  0  0
  -28.7394  -29.2439   19.5650 C   0  0  0  0  0  0  0  0  0  0  0  0
  -26.3640  -30.3903   21.4533 C   0  0  0  0  0  0  0  0  0  0  0  0
  -23.4130  -29.8141   23.0677 C   0  0  0  0  0  0  0  0  0  0  0  0
  -30.7713  -15.0536   20.4718 C   0  0  0  0  0  0  0  0  0  0  0  0
  -32.4860  -31.1732   16.6842 C   0  0  0  0  0  0  0  0  0  0  0  0
  -26.6925  -28.6289   18.2279 C   0  0  0  0  0  0  0  0  0  0  0  0
  -26.4030  -27.8956   21.0781 C   0  0  0  0  0  0  0  0  0  0  0  0
  -31.6932  -31.6419   17.9016 C   0  0  0  0  0  0  0  0  0  0  0  0
  -29.0332  -12.7570   18.3787 C   0  0  0  0  0  0  0  0  0  0  0  0
  -31.6576  -30.5515   18.9676 C   0  0  0  0  0  0  0  0  0  0  0  0
  -27.5603  -13.1106   18.5915 C   0  0  0  0  0  0  0  0  0  0  0  0
  -29.8407  -12.9038   19.6665 C   0  0  0  0  0  0  0  0  0  0  0  0
  -28.2494  -14.5717   20.5381 C   0  0  0  0  0  0  0  0  0  0  0  0
  -30.9601  -29.2903   18.4437 C   0  0  1  0  0  0  0  0  0  0  0  0
  -27.2744  -29.4928   19.3425 C   0  0  1  0  0  0  0  0  0  0  0  0
  -27.4056  -14.4926   19.2544 C   0  0  2  0  0  0  0  0  0  0  0  0
  -27.7850  -18.9246   20.9698 C   0  0  0  0  0  0  0  0  0  0  0  0
  -31.7249  -20.2762   18.0294 C   0  0  0  0  0  0  0  0  0  0  0  0
  -21.7346  -30.9306   24.5624 C   0  0  0  0  0  0  0  0  0  0  0  0
  -28.2591  -30.0626   23.8221 C   0  0  0  0  0  0  0  0  0  0  0  0
  -26.2815  -30.2689   25.3434 C   0  0  0  0  0  0  0  0  0  0  0  0
  -26.9078  -32.1667   23.8505 C   0  0  0  0  0  0  0  0  0  0  0  0
  -21.2502  -29.4927   21.0732 C   0  0  0  0  0  0  0  0  0  0  0  0
  -30.4470  -20.1603   20.6946 C   0  0  0  0  0  0  0  0  0  0  0  0
  -31.5503  -17.2593   21.3010 C   0  0  0  0  0  0  0  0  0  0  0  0
  -30.5624  -19.3589   18.3398 C   0  0  0  0  0  0  0  0  0  0  0  0
  -31.8330  -18.1720   20.1224 C   0  0  0  0  0  0  0  0  0  0  0  0
  -25.8684  -30.0916   22.8476 C   0  0  1  0  0  0  0  0  0  0  0  0
  -22.1243  -30.6142   23.1268 C   0  0  2  0  0  0  0  0  0  0  0  0
  -26.8299  -30.6274   23.9458 C   0  0  0  0  0  0  0  0  0  0  0  0
  -28.1844  -23.0397   19.8326 N   0  0  0  0  0  0  0  0  0  0  0  0
  -25.4052  -14.5186   20.6968 N   0  0  0  0  0  0  0  0  0  0  0  0
  -25.9484  -14.8318   19.5081 N   0  0  0  0  0  0  0  0  0  0  0  0
  -26.6056  -29.2827   20.6281 N   0  0  0  0  0  0  0  0  0  0  0  0
  -29.6516  -14.2369   20.2436 N   0  0  0  0  0  0  0  0  0  0  0  0
  -25.4629  -15.8218   17.4116 N   0  0  0  0  0  0  0  0  0  0  0  0
  -21.5428  -16.1146   19.6348 N   0  0  0  0  0  0  0  0  0  0  0  0
  -29.5238  -29.4677   18.4496 N   0  0  0  0  0  0  0  0  0  0  0  0
  -24.5148  -30.6306   22.9238 N   0  0  0  0  0  0  0  0  0  0  0  0
  -30.5031  -16.3040   21.0152 N   0  0  0  0  0  0  0  0  0  0  0  0
  -21.0112  -29.8507   22.4951 N   0  3  0  0  0  0  0  0  0  0  0  0
  -30.6041  -18.9810   19.7978 N   0  3  1  0  0  0  0  0  0  0  0  0
  -22.5970  -16.5742   17.6509 O   0  0  0  0  0  0  0  0  0  0  0  0
  -29.1295  -28.8775   20.6674 O   0  0  0  0  0  0  0  0  0  0  0  0
  -26.5239  -31.5632   21.1066 O   0  0  0  0  0  0  0  0  0  0  0  0
  -23.4399  -28.5879   23.1454 O   0  0  0  0  0  0  0  0  0  0  0  0
  -31.9242  -14.6972   20.2057 O   0  0  0  0  0  0  0  0  0  0  0  0
  -20.5561  -14.3323   24.8199 O   0  0  0  0  0  0  0  0  0  0  0  0
  -25.8622  -23.2269   19.7184 O   0  0  0  0  0  0  0  0  0  1  0  0
  -22.3241  -15.6236   29.8806 F   0  0  0  0  0  0  0  0  0  0  0  0
  -19.3039  -16.3032   26.2998 F   0  0  0  0  0  0  0  0  0  0  0  0
  1  2  1  0  0  0  0
  1  5  2  0  0  0  0
  2  6  2  0  0  0  0
  3  8  2  0  0  0  0
  3 17  1  0  0  0  0
  4  9  1  0  0  0  0
  4 17  2  0  0  0  0
  5 19  1  0  0  0  0
  6 21  1  0  0  0  0
  7 10  2  0  0  0  0
  7 20  1  0  0  0  0
  8 25  1  0  0  0  0
  9 25  2  0  0  0  0
 10 26  1  0  0  0  0
 11 12  2  0  0  0  0
 11 27  1  0  0  0  0
 12 28  1  0  0  0  0
 13 22  1  0  0  0  0
 13 26  2  0  0  0  0
 14 23  1  0  0  0  0
 14 31  2  0  0  0  0
 15 28  2  0  0  0  0
 15 29  1  0  0  0  0
 16 24  1  0  0  0  0
 16 64  2  0  0  0  0
 17 30  1  0  0  0  0
 18 30  1  0  0  0  0
 18 32  2  0  0  0  0
 18 33  1  0  0  0  0
 19 21  2  0  0  0  0
 19 38  1  0  0  0  0
 20 22  2  0  0  0  0
 20 39  1  0  0  0  0
 21 47  1  0  0  0  0
 22 40  1  0  0  0  0
 23 24  2  0  0  0  0
 23 50  1  0  0  0  0
 24 57  1  0  0  0  0
 25 81  1  0  0  0  0
 26 82  1  0  0  0  0
 27 29  2  0  0  0  0
 27 81  1  0  0  0  0
 28 83  1  0  0  0  0
 29 84  1  0  0  0  0
 30 65  2  0  0  0  0
 31 64  1  0  0  0  0
 31 82  1  0  0  0  0
 32 66  1  0  0  0  0
 32 69  1  0  0  0  0
 33 70  1  0  0  0  0
 33 76  2  0  0  0  0
 34 48  1  0  0  0  0
 34 71  1  0  0  0  0
 34 77  2  0  0  0  0
 35 61  1  0  0  0  0
 35 67  1  0  0  0  0
 35 78  2  0  0  0  0
 36 62  1  0  0  0  0
 36 72  1  0  0  0  0
 36 79  2  0  0  0  0
 37 68  1  0  0  0  0
 37 73  1  0  0  0  0
 37 80  2  0  0  0  0
 38 41  1  0  0  0  0
 39 48  1  0  0  0  0
 40 67  1  0  0  0  0
 41 43  1  0  0  0  0
 42 44  1  0  0  0  0
 42 45  1  0  0  0  0
 43 47  1  0  0  0  0
 44 49  1  0  0  0  0
 45 68  1  0  0  0  0
 46 49  1  0  0  0  0
 46 68  1  0  0  0  0
 47 71  1  0  0  0  0
 48 67  1  0  0  0  0
 49 66  1  0  0  0  0
 51 59  1  0  0  0  0
 52 62  1  0  0  0  0
 53 63  1  0  0  0  0
 54 63  1  0  0  0  0
 55 63  1  0  0  0  0
 56 74  1  0  0  0  0
 57 75  1  0  0  0  0
 58 60  1  0  0  0  0
 58 73  1  0  0  0  0
 59 75  1  0  0  0  0
 60 75  1  0  0  0  0
 61 63  1  0  0  0  0
 61 72  1  0  0  0  0
 62 74  1  0  0  0  0
 65 66  1  0  0  0  0
M  CHG  2  74   1  75   1
M  ISO  4  31 101  37 100  73 100  82 101
M  END
> <Batch ID>
0115

> <Smiles>
CCN(CC[100NH:0][100C:0](=O)N1CCCC(n2nc(-c3ccc(Oc4ccc(F)cc4F)cc3)c(C(N)=O)c2N)C1)Cc1cn[101c:1]([101O:1]c2ccc3c(c2)CN(C(=O)C(NC(=O)C(C)NC)C(C)(C)C)C(C(=O)NC2CCCc4ccccc42)C3)cc1C

> <Shape>
0.227

> <Color>
0.084

> <Negative vol penalty>
0.000

$$$$

  -OEChem-04052320103D

 85 94  0     1  0  0  0  0  0999 V2000
  -26.2981  -38.3656   18.6327 C   0  0  0  0  0  0  0  0  0  0  0  0
  -26.8784  -37.1493   18.2872 C   0  0  0  0  0  0  0  0  0  0  0  0
  -23.5367   -9.6318   19.9592 C   0  0  0  0  0  0  0  0  0  0  0  0
  -23.8575   -9.9431   22.3335 C   0  0  0  0  0  0  0  0  0  0  0  0
  -25.9400  -38.6147   19.9569 C   0  0  0  0  0  0  0  0  0  0  0  0
  -27.1020  -36.1818   19.2661 C   0  0  0  0  0  0  0  0  0  0  0  0
  -26.7463  -30.1058   18.5861 C   0  0  0  0  0  0  0  0  0  0  0  0
  -22.9291   -8.4001   20.2028 C   0  0  0  0  0  0  0  0  0  0  0  0
  -23.2498   -8.7114   22.5771 C   0  0  0  0  0  0  0  0  0  0  0  0
  -27.7167  -29.1271   18.3757 C   0  0  0  0  0  0  0  0  0  0  0  0
  -20.1104   -7.4678   22.7108 C   0  0  0  0  0  0  0  0  0  0  0  0
  -19.1660   -7.4041   23.7353 C   0  0  0  0  0  0  0  0  0  0  0  0
  -27.7672  -28.6764   20.7449 C   0  0  0  0  0  0  0  0  0  0  0  0
  -20.5120   -5.7514   24.8731 C   0  0  0  0  0  0  0  0  0  0  0  0
  -24.0009  -10.4033   21.0246 C   0  0  0  0  0  0  0  0  0  0  0  0
  -24.0011  -12.9328   20.6939 C   0  0  0  0  0  0  0  0  0  0  0  0
  -26.1505  -37.6460   20.9509 C   0  0  0  0  0  0  0  0  0  0  0  0
  -26.2862  -30.3852   19.8809 C   0  0  0  0  0  0  0  0  0  0  0  0
  -26.7477  -36.4186   20.6052 C   0  0  0  0  0  0  0  0  0  0  0  0
  -26.7890  -29.6574   20.9688 C   0  0  0  0  0  0  0  0  0  0  0  0
  -22.7856   -7.9399   21.5117 C   0  0  0  0  0  0  0  0  0  0  0  0
  -28.2294  -28.4143   19.4555 C   0  0  0  0  0  0  0  0  0  0  0  0
  -21.2555   -6.6732   22.7673 C   0  0  0  0  0  0  0  0  0  0  0  0
  -19.3668   -6.5459   24.8165 C   0  0  0  0  0  0  0  0  0  0  0  0
  -21.4563   -5.8151   23.8485 C   0  0  0  0  0  0  0  0  0  0  0  0
  -24.6292  -11.6755   20.7736 C   0  0  0  0  0  0  0  0  0  0  0  0
  -25.0249  -13.8127   20.4410 C   0  0  0  0  0  0  0  0  0  0  0  0
  -22.6159  -13.2748   20.8357 C   0  0  0  0  0  0  0  0  0  0  0  0
  -26.3266  -32.9386   21.7736 C   0  0  0  0  0  0  0  0  0  0  0  0
  -24.4975  -31.0650   23.6883 C   0  0  0  0  0  0  0  0  0  0  0  0
  -23.5546  -27.9196   24.6180 C   0  0  0  0  0  0  0  0  0  0  0  0
  -30.2718  -15.4274   21.9320 C   0  0  0  0  0  0  0  0  0  0  0  0
  -25.7904  -37.9791   22.3771 C   0  0  0  0  0  0  0  0  0  0  0  0
  -25.2197  -31.4254   20.0881 C   0  0  0  0  0  0  0  0  0  0  0  0
  -26.3137  -29.9050   22.3763 C   0  0  0  0  0  0  0  0  0  0  0  0
  -25.7174  -36.7565   23.2883 C   0  0  0  0  0  0  0  0  0  0  0  0
  -29.8397  -13.0097   19.1555 C   0  0  0  0  0  0  0  0  0  0  0  0
  -26.9315  -35.8582   23.0745 C   0  0  0  0  0  0  0  0  0  0  0  0
  -28.4167  -12.5012   19.3792 C   0  0  0  0  0  0  0  0  0  0  0  0
  -30.5952  -18.8816   21.9161 C   0  0  0  0  0  0  0  0  0  0  0  0
  -28.8021  -18.1725   20.2838 C   0  0  0  0  0  0  0  0  0  0  0  0
  -28.5591  -22.1290   21.2322 C   0  0  0  0  0  0  0  0  0  0  0  0
  -30.4921  -13.4594   20.4589 C   0  0  0  0  0  0  0  0  0  0  0  0
  -30.1718  -17.7340   22.8291 C   0  0  0  0  0  0  0  0  0  0  0  0
  -28.4308  -17.0188   21.2201 C   0  0  0  0  0  0  0  0  0  0  0  0
  -28.4334  -23.6060   20.8563 C   0  0  0  0  0  0  0  0  0  0  0  0
  -28.2747  -13.9642   21.4337 C   0  0  0  0  0  0  0  0  0  0  0  0
  -30.2557  -22.7686   19.6556 C   0  0  0  0  0  0  0  0  0  0  0  0
  -26.9835  -35.3344   21.6342 C   0  0  1  0  0  0  0  0  0  0  0  0
  -25.1973  -31.9838   21.5076 C   0  0  1  0  0  0  0  0  0  0  0  0
  -27.5744  -13.5451   20.1323 C   0  0  2  0  0  0  0  0  0  0  0  0
  -29.4146  -19.3362   21.0603 C   0  0  0  0  0  0  0  0  0  0  0  0
  -29.9223  -21.7171   20.6950 C   0  0  2  0  0  0  0  0  0  0  0  0
  -22.0706  -26.7057   26.2371 C   0  0  0  0  0  0  0  0  0  0  0  0
  -26.4842  -31.6350   25.9328 C   0  0  0  0  0  0  0  0  0  0  0  0
  -25.5145  -29.6984   27.1887 C   0  0  0  0  0  0  0  0  0  0  0  0
  -24.0834  -31.6644   26.6324 C   0  0  0  0  0  0  0  0  0  0  0  0
  -21.9908  -26.6783   22.4333 C   0  0  0  0  0  0  0  0  0  0  0  0
  -31.2003  -20.0122   19.4615 C   0  0  0  0  0  0  0  0  0  0  0  0
  -29.6941  -25.1218   19.4348 C   0  0  0  0  0  0  0  0  0  0  0  0
  -29.2002  -26.3620   20.1637 C   0  0  0  0  0  0  0  0  0  1  0  0
  -24.7733  -30.0733   24.7926 C   0  0  1  0  0  0  0  0  0  0  0  0
  -22.1856  -27.3038   24.8436 C   0  0  2  0  0  0  0  0  0  0  0  0
  -25.2244  -30.7642   26.1105 C   0  0  0  0  0  0  0  0  0  0  0  0
  -25.9498  -11.7460   20.5865 N   0  0  0  0  0  0  0  0  0  0  0  0
  -26.1599  -13.0583   20.3865 N   0  0  0  0  0  0  0  0  0  0  0  0
  -25.2743  -30.9366   22.5282 N   0  0  0  0  0  0  0  0  0  0  0  0
  -29.6517  -14.4152   21.1804 N   0  0  0  0  0  0  0  0  0  0  0  0
  -29.5767  -16.6394   22.0599 N   0  0  0  0  0  0  0  0  0  0  0  0
  -29.7500  -23.9707   20.3228 N   0  0  1  0  0  0  0  0  0  0  0  0
  -25.0561  -15.1504   20.2622 N   0  0  0  0  0  0  0  0  0  0  0  0
  -21.6973  -12.2482   21.0937 N   0  0  0  0  0  0  0  0  0  0  0  0
  -26.0393  -34.2523   21.4555 N   0  0  0  0  0  0  0  0  0  0  0  0
  -23.5669  -29.2638   24.9250 N   0  0  0  0  0  0  0  0  0  0  0  0
  -21.9321  -26.2252   23.8469 N   0  3  0  0  0  0  0  0  0  0  0  0
  -29.8811  -20.3692   20.0996 N   0  3  1  0  0  0  0  0  0  0  0  0
  -22.2028  -14.4536   20.7204 O   0  0  0  0  0  0  0  0  0  0  0  0
  -27.3800  -32.5151   22.2347 O   0  0  0  0  0  0  0  0  0  0  0  0
  -23.6200  -31.9175   23.8463 O   0  0  0  0  0  0  0  0  0  0  0  0
  -24.5178  -27.2721   24.2136 O   0  0  0  0  0  0  0  0  0  0  0  0
  -31.3805  -15.2575   22.4546 O   0  0  0  0  0  0  0  0  0  0  0  0
  -22.1925   -6.7382   21.7497 O   0  0  0  0  0  0  0  0  0  0  0  0
  -29.1839  -27.4521   19.2515 O   0  0  0  0  0  0  0  0  0  1  0  0
  -18.4606   -6.4860   25.8011 F   0  0  0  0  0  0  0  0  0  0  0  0
  -22.5550   -5.0503   23.9090 F   0  0  0  0  0  0  0  0  0  0  0  0
  1  2  1  0  0  0  0
  1  5  2  0  0  0  0
  2  6  2  0  0  0  0
  3  8  2  0  0  0  0
  3 15  1  0  0  0  0
  4  9  1  0  0  0  0
  4 15  2  0  0  0  0
  5 17  1  0  0  0  0
  6 19  1  0  0  0  0
  7 10  2  0  0  0  0
  7 18  1  0  0  0  0
  8 21  1  0  0  0  0
  9 21  2  0  0  0  0
 10 22  1  0  0  0  0
 11 12  2  0  0  0  0
 11 23  1  0  0  0  0
 12 24  1  0  0  0  0
 13 20  1  0  0  0  0
 13 22  2  0  0  0  0
 14 24  2  0  0  0  0
 14 25  1  0  0  0  0
 15 26  1  0  0  0  0
 16 26  1  0  0  0  0
 16 27  2  0  0  0  0
 16 28  1  0  0  0  0
 17 19  2  0  0  0  0
 17 33  1  0  0  0  0
 18 20  2  0  0  0  0
 18 34  1  0  0  0  0
 19 49  1  0  0  0  0
 20 35  1  0  0  0  0
 21 82  1  0  0  0  0
 22 83  1  0  0  0  0
 23 25  2  0  0  0  0
 23 82  1  0  0  0  0
 24 84  1  0  0  0  0
 25 85  1  0  0  0  0
 26 65  2  0  0  0  0
 27 66  1  0  0  0  0
 27 71  1  0  0  0  0
 28 72  1  0  0  0  0
 28 77  2  0  0  0  0
 29 50  1  0  0  0  0
 29 73  1  0  0  0  0
 29 78  2  0  0  0  0
 30 62  1  0  0  0  0
 30 67  1  0  0  0  0
 30 79  2  0  0  0  0
 31 63  1  0  0  0  0
 31 74  1  0  0  0  0
 31 80  2  0  0  0  0
 32 68  1  0  0  0  0
 32 69  1  0  0  0  0
 32 81  2  0  0  0  0
 33 36  1  0  0  0  0
 34 50  1  0  0  0  0
 35 67  1  0  0  0  0
 36 38  1  0  0  0  0
 37 39  1  0  0  0  0
 37 43  1  0  0  0  0
 38 49  1  0  0  0  0
 39 51  1  0  0  0  0
 40 44  1  0  0  0  0
 40 52  1  0  0  0  0
 41 45  1  0  0  0  0
 41 52  1  0  0  0  0
 42 46  1  0  0  0  0
 42 53  1  0  0  0  0
 43 68  1  0  0  0  0
 44 69  1  0  0  0  0
 45 69  1  0  0  0  0
 46 70  1  0  0  0  0
 47 51  1  0  0  0  0
 47 68  1  0  0  0  0
 48 53  1  0  0  0  0
 48 70  1  0  0  0  0
 49 73  1  0  0  0  0
 50 67  1  0  0  0  0
 51 66  1  0  0  0  0
 52 76  1  0  0  0  0
 53 76  1  0  0  0  0
 54 63  1  0  0  0  0
 55 64  1  0  0  0  0
 56 64  1  0  0  0  0
 57 64  1  0  0  0  0
 58 75  1  0  0  0  0
 59 76  1  0  0  0  0
 60 61  1  0  0  0  0
 60 70  1  0  0  0  0
 61 83  1  0  0  0  0
 62 64  1  0  0  0  0
 62 74  1  0  0  0  0
 63 75  1  0  0  0  0
 65 66  1  0  0  0  0
M  CHG  2  75   1  76   1
M  ISO  4  32 100  61 101  69 100  83 101
M  END
> <Batch ID>
0115

> <Smiles>
CNC(C)C(=O)NC(C(=O)N1Cc2cc([101O:1][101CH2:1]CN3CCC(N(C)C4CC[100N:0]([100C:0](=O)N5CCCC(n6nc(-c7ccc(Oc8ccc(F)cc8F)cc7)c(C(N)=O)c6N)C5)CC4)C3)ccc2CC1C(=O)NC1CCCc2ccccc21)C(C)(C)C

> <Shape>
0.359

> <Color>
0.172

> <Negative vol penalty>
0.000

$$$$

  -OEChem-04052320103D

 88 97  0     1  0  0  0  0  0999 V2000
  -28.3894  -30.8347   27.0271 C   0  0  0  0  0  0  0  0  0  0  0  0
  -28.4983  -29.6672   26.2785 C   0  0  0  0  0  0  0  0  0  0  0  0
  -22.9425   -9.7334   21.3839 C   0  0  0  0  0  0  0  0  0  0  0  0
  -24.1295  -10.5894   23.3063 C   0  0  0  0  0  0  0  0  0  0  0  0
  -28.7575  -19.8794   19.0693 C   0  0  0  0  0  0  0  0  0  0  0  0
  -27.2044  -31.5690   27.0028 C   0  0  0  0  0  0  0  0  0  0  0  0
  -27.4217  -29.2326   25.5061 C   0  0  0  0  0  0  0  0  0  0  0  0
  -28.8288  -27.7467   20.8739 C   0  0  0  0  0  0  0  0  0  0  0  0
  -22.2629   -8.8331   22.2044 C   0  0  0  0  0  0  0  0  0  0  0  0
  -23.4499   -9.6891   24.1268 C   0  0  0  0  0  0  0  0  0  0  0  0
  -29.4110  -26.4851   20.7593 C   0  0  0  0  0  0  0  0  0  0  0  0
  -22.8871   -5.8674   23.7009 C   0  0  0  0  0  0  0  0  0  0  0  0
  -22.7741   -4.5487   23.2608 C   0  0  0  0  0  0  0  0  0  0  0  0
  -28.5154  -18.5683   19.4638 C   0  0  0  0  0  0  0  0  0  0  0  0
  -27.3030  -25.5876   20.0041 C   0  0  0  0  0  0  0  0  0  0  0  0
  -20.3661   -4.7419   23.3000 C   0  0  0  0  0  0  0  0  0  0  0  0
  -31.0310  -19.2913   18.6926 C   0  0  0  0  0  0  0  0  0  0  0  0
  -23.8759  -10.6115   21.9348 C   0  0  0  0  0  0  0  0  0  0  0  0
  -30.0365  -20.2560   18.6749 C   0  0  0  0  0  0  0  0  0  0  0  0
  -24.0163  -12.5490   20.2814 C   0  0  0  0  0  0  0  0  0  0  0  0
  -26.1162  -31.1484   26.2221 C   0  0  0  0  0  0  0  0  0  0  0  0
  -27.4744  -27.9364   20.5643 C   0  0  0  0  0  0  0  0  0  0  0  0
  -26.2206  -29.9613   25.4724 C   0  0  0  0  0  0  0  0  0  0  0  0
  -26.7067  -26.8532   20.1131 C   0  0  0  0  0  0  0  0  0  0  0  0
  -22.5166   -8.8110   23.5759 C   0  0  0  0  0  0  0  0  0  0  0  0
  -28.6474  -25.4047   20.3272 C   0  0  0  0  0  0  0  0  0  0  0  0
  -21.7396   -6.6234   23.9407 C   0  0  0  0  0  0  0  0  0  0  0  0
  -21.5136   -3.9859   23.0603 C   0  0  0  0  0  0  0  0  0  0  0  0
  -20.4791   -6.0606   23.7402 C   0  0  0  0  0  0  0  0  0  0  0  0
  -24.5786  -11.5414   21.0877 C   0  0  0  0  0  0  0  0  0  0  0  0
  -29.5779  -17.6791   19.4460 C   0  0  0  0  0  0  0  0  0  0  0  0
  -25.0953  -13.1504   19.6810 C   0  0  0  0  0  0  0  0  0  0  0  0
  -30.3256  -21.6405   18.2506 C   0  0  0  0  0  0  0  0  0  0  0  0
  -22.6415  -12.9093   20.0920 C   0  0  0  0  0  0  0  0  0  0  0  0
  -24.9103  -28.8707   22.1942 C   0  0  0  0  0  0  0  0  0  0  0  0
  -23.4955  -28.7554   19.2774 C   0  0  0  0  0  0  0  0  0  0  0  0
  -23.4791  -27.4752   16.1139 C   0  0  0  0  0  0  0  0  0  0  0  0
  -30.2304  -15.2907   19.9109 C   0  0  0  0  0  0  0  0  0  0  0  0
  -24.8393  -31.9500   26.2649 C   0  0  0  0  0  0  0  0  0  0  0  0
  -26.8681  -29.3091   20.6675 C   0  0  0  0  0  0  0  0  0  0  0  0
  -25.2536  -27.0082   19.7488 C   0  0  0  0  0  0  0  0  0  0  0  0
  -23.8758  -31.6219   25.1272 C   0  0  0  0  0  0  0  0  0  0  0  0
  -29.9603  -11.7643   19.5005 C   0  0  0  0  0  0  0  0  0  0  0  0
  -23.7379  -30.1116   24.9632 C   0  0  0  0  0  0  0  0  0  0  0  0
  -28.4898  -11.4748   19.8105 C   0  0  0  0  0  0  0  0  0  0  0  0
  -30.5209  -12.8703   20.3928 C   0  0  0  0  0  0  0  0  0  0  0  0
  -32.4428  -22.8466   18.2666 C   0  0  0  0  0  0  0  0  0  0  0  0
  -28.2728  -13.8265   20.7104 C   0  0  0  0  0  0  0  0  0  0  0  0
  -33.6708  -22.4540   19.0634 C   0  0  0  0  0  0  0  0  0  0  0  0
  -32.3055  -22.2566   21.1404 C   0  0  0  0  0  0  0  0  0  0  0  0
  -25.0835  -29.4706   24.6027 C   0  0  1  0  0  0  0  0  0  0  0  0
  -25.3502  -29.2821   20.8176 C   0  0  1  0  0  0  0  0  0  0  0  0
  -27.6457  -12.7643   19.7927 C   0  0  2  0  0  0  0  0  0  0  0  0
  -31.0302  -22.6068   20.3810 C   0  0  1  0  0  0  0  0  0  0  0  0
  -28.5810  -23.9784   16.0438 C   0  0  0  0  0  0  0  0  0  0  0  0
  -22.1764  -27.5385   13.9700 C   0  0  0  0  0  0  0  0  0  0  0  0
  -21.3708  -26.9508   20.5180 C   0  0  0  0  0  0  0  0  0  0  0  0
  -20.6772  -26.2938   18.2038 C   0  0  0  0  0  0  0  0  0  0  0  0
  -20.4833  -28.6710   18.9346 C   0  0  0  0  0  0  0  0  0  0  0  0
  -25.7876  -28.5527   14.6077 C   0  0  0  0  0  0  0  0  0  0  0  0
  -30.5936  -24.0574   20.5569 C   0  0  0  0  0  0  0  0  0  1  0  0
  -29.8639  -23.4907   16.6822 C   0  0  0  0  0  0  0  0  0  0  0  0
  -22.7717  -27.6964   18.4814 C   0  0  1  0  0  0  0  0  0  0  0  0
  -23.3285  -28.1417   14.7584 C   0  0  2  0  0  0  0  0  0  0  0  0
  -21.3526  -27.3994   19.0431 C   0  0  0  0  0  0  0  0  0  0  0  0
  -30.8339  -18.0080   19.0693 N   0  0  0  0  0  0  0  0  0  0  0  0
  -25.9114  -11.5016   21.0089 N   0  0  0  0  0  0  0  0  0  0  0  0
  -26.1955  -12.4918   20.1458 N   0  0  0  0  0  0  0  0  0  0  0  0
  -31.2302  -22.3288   18.9362 N   0  0  0  0  0  0  0  0  0  0  0  0
  -24.7049  -28.3688   19.8724 N   0  0  0  0  0  0  0  0  0  0  0  0
  -29.6722  -14.0618   20.3218 N   0  0  0  0  0  0  0  0  0  0  0  0
  -25.2009  -14.1730   18.8060 N   0  0  0  0  0  0  0  0  0  0  0  0
  -22.0799  -13.8719   20.9419 N   0  0  0  0  0  0  0  0  0  0  0  0
  -29.3205  -16.3457   19.8503 N   0  0  0  0  0  0  0  0  0  0  0  0
  -25.3867  -29.6849   23.2039 N   0  0  0  0  0  0  0  0  0  0  0  0
  -22.7827  -28.1494   17.0947 N   0  0  0  0  0  0  0  0  0  0  0  0
  -29.6616  -22.1348   17.1990 N   0  3  0  0  0  0  0  0  0  0  0  0
  -33.4909  -22.8826   20.4821 N   0  3  0  0  0  0  0  0  0  0  0  0
  -24.5776  -27.9826   13.9613 N   0  3  0  0  0  0  0  0  0  0  0  0
  -21.9275  -12.3808   19.2064 O   0  0  0  0  0  0  0  0  0  0  0  0
  -24.1907  -27.8881   22.3300 O   0  0  0  0  0  0  0  0  0  0  0  0
  -23.0095  -29.8860   19.3621 O   0  0  0  0  0  0  0  0  0  0  0  0
  -24.1446  -26.4563   16.2849 O   0  0  0  0  0  0  0  0  0  0  0  0
  -31.4217  -15.3931   19.6070 O   0  0  0  0  0  0  0  0  0  0  0  0
  -21.8534   -7.9328   24.3768 O   0  0  0  0  0  0  0  0  0  0  0  0
  -29.2129  -24.1720   20.2151 O   0  0  0  0  0  0  0  0  0  1  0  0
  -21.4053   -2.7200   22.6362 F   0  0  0  0  0  0  0  0  0  0  0  0
  -19.3731   -6.7823   23.9677 F   0  0  0  0  0  0  0  0  0  0  0  0
  1  2  1  0  0  0  0
  1  6  2  0  0  0  0
  2  7  2  0  0  0  0
  3  9  2  0  0  0  0
  3 18  1  0  0  0  0
  4 10  1  0  0  0  0
  4 18  2  0  0  0  0
  5 14  2  0  0  0  0
  5 19  1  0  0  0  0
  6 21  1  0  0  0  0
  7 23  1  0  0  0  0
  8 11  2  0  0  0  0
  8 22  1  0  0  0  0
  9 25  1  0  0  0  0
 10 25  2  0  0  0  0
 11 26  1  0  0  0  0
 12 13  2  0  0  0  0
 12 27  1  0  0  0  0
 13 28  1  0  0  0  0
 14 31  1  0  0  0  0
 15 24  1  0  0  0  0
 15 26  2  0  0  0  0
 16 28  2  0  0  0  0
 16 29  1  0  0  0  0
 17 19  2  0  0  0  0
 17 66  1  0  0  0  0
 18 30  1  0  0  0  0
 19 33  1  0  0  0  0
 20 30  1  0  0  0  0
 20 32  2  0  0  0  0
 20 34  1  0  0  0  0
 21 23  2  0  0  0  0
 21 39  1  0  0  0  0
 22 24  2  0  0  0  0
 22 40  1  0  0  0  0
 23 51  1  0  0  0  0
 24 41  1  0  0  0  0
 25 85  1  0  0  0  0
 26 86  1  0  0  0  0
 27 29  2  0  0  0  0
 27 85  1  0  0  0  0
 28 87  1  0  0  0  0
 29 88  1  0  0  0  0
 30 67  2  0  0  0  0
 31 66  2  0  0  0  0
 31 74  1  0  0  0  0
 32 68  1  0  0  0  0
 32 72  1  0  0  0  0
 33 69  1  0  0  0  0
 33 77  2  0  0  0  0
 34 73  1  0  0  0  0
 34 80  2  0  0  0  0
 35 52  1  0  0  0  0
 35 75  1  0  0  0  0
 35 81  2  0  0  0  0
 36 63  1  0  0  0  0
 36 70  1  0  0  0  0
 36 82  2  0  0  0  0
 37 64  1  0  0  0  0
 37 76  1  0  0  0  0
 37 83  2  0  0  0  0
 38 71  1  0  0  0  0
 38 74  1  0  0  0  0
 38 84  2  0  0  0  0
 39 42  1  0  0  0  0
 40 52  1  0  0  0  0
 41 70  1  0  0  0  0
 42 44  1  0  0  0  0
 43 45  1  0  0  0  0
 43 46  1  0  0  0  0
 44 51  1  0  0  0  0
 45 53  1  0  0  0  0
 46 71  1  0  0  0  0
 47 49  1  0  0  0  0
 47 69  1  0  0  0  0
 48 53  1  0  0  0  0
 48 71  1  0  0  0  0
 49 78  1  0  0  0  0
 50 54  1  0  0  0  0
 50 78  1  0  0  0  0
 51 75  1  0  0  0  0
 52 70  1  0  0  0  0
 53 68  1  0  0  0  0
 54 61  1  0  0  0  0
 54 69  1  0  0  0  0
 55 62  1  0  0  0  0
 56 64  1  0  0  0  0
 57 65  1  0  0  0  0
 58 65  1  0  0  0  0
 59 65  1  0  0  0  0
 60 79  1  0  0  0  0
 61 86  1  0  0  0  0
 62 77  1  0  0  0  0
 63 65  1  0  0  0  0
 63 76  1  0  0  0  0
 64 79  1  0  0  0  0
 67 68  1  0  0  0  0
M  CHG  3  77   1  78   1  79   1
M  ISO  4  38 100  61 101  74 100  86 101
M  END
> <Batch ID>
0115

> <Smiles>
CCN=C(c1ccc([100NH:0][100C:0](=O)N2CCCC(n3nc(-c4ccc(Oc5ccc(F)cc5F)cc4)c(C(N)=O)c3N)C2)nc1)N1CCNCC1[101CH2:1][101O:1]c1ccc2c(c1)CN(C(=O)C(NC(=O)C(C)NC)C(C)(C)C)C(C(=O)NC1CCCc3ccccc31)C2

> <Shape>
0.307

> <Color>
0.100

> <Negative vol penalty>
0.000

$$$$

  -OEChem-04052320103D

 81 89  0     1  0  0  0  0  0999 V2000
  -22.7503  -23.2876   20.2892 C   0  0  0  0  0  0  0  0  0  0  0  0
  -23.8192  -22.6883   19.6307 C   0  0  0  0  0  0  0  0  0  0  0  0
  -25.9571  -27.4930   18.8835 C   0  0  0  0  0  0  0  0  0  0  0  0
  -26.2946  -27.5479   21.2752 C   0  0  0  0  0  0  0  0  0  0  0  0
  -22.2692  -22.7394   21.4775 C   0  0  0  0  0  0  0  0  0  0  0  0
  -24.4084  -21.5410   20.1606 C   0  0  0  0  0  0  0  0  0  0  0  0
  -27.6299  -15.4730   18.1314 C   0  0  0  0  0  0  0  0  0  0  0  0
  -24.8263  -28.2973   19.0246 C   0  0  0  0  0  0  0  0  0  0  0  0
  -25.1637  -28.3523   21.4163 C   0  0  0  0  0  0  0  0  0  0  0  0
  -28.7966  -14.7446   18.3596 C   0  0  0  0  0  0  0  0  0  0  0  0
  -21.8072  -27.9481   21.4475 C   0  0  0  0  0  0  0  0  0  0  0  0
  -20.9064  -27.6273   22.4630 C   0  0  0  0  0  0  0  0  0  0  0  0
  -30.8532  -14.5962   22.5629 C   0  0  0  0  0  0  0  0  0  0  0  0
  -30.5601  -15.8150   23.2230 C   0  0  0  0  0  0  0  0  0  0  0  0
  -27.8305  -13.8407   20.3767 C   0  0  0  0  0  0  0  0  0  0  0  0
  -21.2567  -29.8000   23.4600 C   0  0  0  0  0  0  0  0  0  0  0  0
  -26.6912  -27.1183   20.0089 C   0  0  0  0  0  0  0  0  0  0  0  0
  -29.1865  -26.7127   19.6670 C   0  0  0  0  0  0  0  0  0  0  0  0
  -22.8465  -21.5792   22.0172 C   0  0  0  0  0  0  0  0  0  0  0  0
  -26.5572  -15.3991   19.0314 C   0  0  0  0  0  0  0  0  0  0  0  0
  -23.9354  -20.9774   21.3579 C   0  0  0  0  0  0  0  0  0  0  0  0
  -26.6504  -14.5672   20.1564 C   0  0  0  0  0  0  0  0  0  0  0  0
  -24.4296  -28.7270   20.2910 C   0  0  0  0  0  0  0  0  0  0  0  0
  -28.8981  -13.9305   19.4839 C   0  0  0  0  0  0  0  0  0  0  0  0
  -22.4328  -29.1948   21.4383 C   0  0  0  0  0  0  0  0  0  0  0  0
  -20.6311  -28.5533   23.4692 C   0  0  0  0  0  0  0  0  0  0  0  0
  -22.1575  -30.1207   22.4445 C   0  0  0  0  0  0  0  0  0  0  0  0
  -27.8591  -26.2870   19.8638 C   0  0  0  0  0  0  0  0  0  0  0  0
  -31.6200  -14.9000   21.4597 C   0  0  0  0  0  0  0  0  0  0  0  0
  -31.1566  -16.8265   22.5030 C   0  0  0  0  0  0  0  0  0  0  0  0
  -29.9127  -25.5493   19.5921 C   0  0  0  0  0  0  0  0  0  0  0  0
  -29.7157  -28.0410   19.5613 C   0  0  0  0  0  0  0  0  0  0  0  0
  -25.0445  -17.4834   20.8945 C   0  0  0  0  0  0  0  0  0  0  0  0
  -23.0714  -14.9680   21.4443 C   0  0  0  0  0  0  0  0  0  0  0  0
  -22.6359  -11.5835   21.4903 C   0  0  0  0  0  0  0  0  0  0  0  0
  -30.0906  -20.3798   21.9705 C   0  0  0  0  0  0  0  0  0  0  0  0
  -22.3227  -21.0504   23.3289 C   0  0  0  0  0  0  0  0  0  0  0  0
  -25.2954  -16.1704   18.7569 C   0  0  0  0  0  0  0  0  0  0  0  0
  -25.5194  -14.4372   21.1425 C   0  0  0  0  0  0  0  0  0  0  0  0
  -22.7606  -19.6187   23.6269 C   0  0  0  0  0  0  0  0  0  0  0  0
  -28.8345  -20.8250   18.6057 C   0  0  0  0  0  0  0  0  0  0  0  0
  -24.2533  -19.4507   23.3614 C   0  0  0  0  0  0  0  0  0  0  0  0
  -28.5840  -22.3338   18.5718 C   0  0  0  0  0  0  0  0  0  0  0  0
  -28.4869  -20.2375   19.9703 C   0  0  0  0  0  0  0  0  0  0  0  0
  -28.9417  -22.3887   21.0835 C   0  0  0  0  0  0  0  0  0  0  0  0
  -24.5850  -19.7177   21.8883 C   0  0  1  0  0  0  0  0  0  0  0  0
  -24.4615  -16.4175   20.0103 C   0  0  1  0  0  0  0  0  0  0  0  0
  -29.2954  -23.0463   19.7372 C   0  0  2  0  0  0  0  0  0  0  0  0
  -20.9262   -9.8244   22.0191 C   0  0  0  0  0  0  0  0  0  0  0  0
  -31.8576  -12.8162   18.2077 C   0  0  0  0  0  0  0  0  0  0  0  0
  -23.5371  -15.4154   24.4264 C   0  0  0  0  0  0  0  0  0  0  0  0
  -22.6168  -13.1245   24.8427 C   0  0  0  0  0  0  0  0  0  0  0  0
  -21.1742  -14.8773   23.8087 C   0  0  0  0  0  0  0  0  0  0  0  0
  -32.5483  -16.9830   20.4292 C   0  0  0  0  0  0  0  0  0  0  0  0
  -22.6692  -10.5524   18.7164 C   0  0  0  0  0  0  0  0  0  0  0  0
  -32.2085  -13.9880   20.4093 C   0  0  0  0  0  0  0  0  0  0  0  0
  -31.1669  -18.2835   22.7479 C   0  0  0  0  0  0  0  0  0  0  0  0
  -23.0326  -13.8386   22.4451 C   0  0  1  0  0  0  0  0  0  0  0  0
  -21.5315  -10.7024   20.9349 C   0  0  2  0  0  0  0  0  0  0  0  0
  -31.2574  -13.7769   19.2264 C   0  0  2  0  0  0  0  0  0  1  0  0
  -22.6124  -14.3177   23.8634 C   0  0  0  0  0  0  0  0  0  0  0  0
  -27.7458  -24.9570   19.9109 N   0  0  0  0  0  0  0  0  0  0  0  0
  -31.7978  -16.2586   21.4332 N   0  0  0  0  0  0  0  0  0  0  0  0
  -29.0112  -24.5369   19.7424 N   0  0  0  0  0  0  0  0  0  0  0  0
  -24.3089  -15.2162   20.8336 N   0  0  0  0  0  0  0  0  0  0  0  0
  -29.2111  -20.9478   21.0339 N   0  0  0  0  0  0  0  0  0  0  0  0
  -31.2279  -25.3037   19.4128 N   0  0  0  0  0  0  0  0  0  0  0  0
  -28.8303  -29.1229   19.6607 N   0  0  0  0  0  0  0  0  0  0  0  0
  -24.2208  -18.5784   21.0736 N   0  0  0  0  0  0  0  0  0  0  0  0
  -22.1588  -12.8184   21.8758 N   0  0  0  0  0  0  0  0  0  0  0  0
  -30.2860  -19.0086   21.8595 N   0  0  0  0  0  0  0  0  0  0  0  0
  -22.0647   -9.8200   19.8588 N   0  3  0  0  0  0  0  0  0  0  0  0
  -30.9353  -28.2616   19.3677 O   0  0  0  0  0  0  0  0  0  0  0  0
  -26.1584  -17.3236   21.3795 O   0  0  0  0  0  0  0  0  0  0  0  0
  -22.0401  -15.6020   21.2075 O   0  0  0  0  0  0  0  0  0  0  0  0
  -23.8042  -11.2120   21.5772 O   0  0  0  0  0  0  0  0  0  0  0  0
  -30.6641  -21.0465   22.8386 O   0  0  0  0  0  0  0  0  0  0  0  0
  -23.3263  -29.5120   20.4290 O   0  0  0  0  0  0  0  0  0  0  0  0
  -30.0360  -13.2189   19.7093 O   0  0  0  0  0  0  0  0  0  1  0  0
  -19.7648  -28.2457   24.4435 F   0  0  0  0  0  0  0  0  0  0  0  0
  -22.7546  -31.3204   22.4403 F   0  0  0  0  0  0  0  0  0  0  0  0
  1  2  1  0  0  0  0
  1  5  2  0  0  0  0
  2  6  2  0  0  0  0
  3  8  2  0  0  0  0
  3 17  1  0  0  0  0
  4  9  1  0  0  0  0
  4 17  2  0  0  0  0
  5 19  1  0  0  0  0
  6 21  1  0  0  0  0
  7 10  2  0  0  0  0
  7 20  1  0  0  0  0
  8 23  1  0  0  0  0
  9 23  2  0  0  0  0
 10 24  1  0  0  0  0
 11 12  2  0  0  0  0
 11 25  1  0  0  0  0
 12 26  1  0  0  0  0
 13 14  1  0  0  0  0
 13 29  2  0  0  0  0
 14 30  2  0  0  0  0
 15 22  1  0  0  0  0
 15 24  2  0  0  0  0
 16 26  2  0  0  0  0
 16 27  1  0  0  0  0
 17 28  1  0  0  0  0
 18 28  1  0  0  0  0
 18 31  2  0  0  0  0
 18 32  1  0  0  0  0
 19 21  2  0  0  0  0
 19 37  1  0  0  0  0
 20 22  2  0  0  0  0
 20 38  1  0  0  0  0
 21 46  1  0  0  0  0
 22 39  1  0  0  0  0
 23 78  1  0  0  0  0
 24 79  1  0  0  0  0
 25 27  2  0  0  0  0
 25 78  1  0  0  0  0
 26 80  1  0  0  0  0
 27 81  1  0  0  0  0
 28 62  2  0  0  0  0
 29 56  1  0  0  0  0
 29 63  1  0  0  0  0
 30 57  1  0  0  0  0
 30 63  1  0  0  0  0
 31 64  1  0  0  0  0
 31 67  1  0  0  0  0
 32 68  1  0  0  0  0
 32 73  2  0  0  0  0
 33 47  1  0  0  0  0
 33 69  1  0  0  0  0
 33 74  2  0  0  0  0
 34 58  1  0  0  0  0
 34 65  1  0  0  0  0
 34 75  2  0  0  0  0
 35 59  1  0  0  0  0
 35 70  1  0  0  0  0
 35 76  2  0  0  0  0
 36 66  1  0  0  0  0
 36 71  1  0  0  0  0
 36 77  2  0  0  0  0
 37 40  1  0  0  0  0
 38 47  1  0  0  0  0
 39 65  1  0  0  0  0
 40 42  1  0  0  0  0
 41 43  1  0  0  0  0
 41 44  1  0  0  0  0
 42 46  1  0  0  0  0
 43 48  1  0  0  0  0
 44 66  1  0  0  0  0
 45 48  1  0  0  0  0
 45 66  1  0  0  0  0
 46 69  1  0  0  0  0
 47 65  1  0  0  0  0
 48 64  1  0  0  0  0
 49 59  1  0  0  0  0
 50 60  1  0  0  0  0
 51 61  1  0  0  0  0
 52 61  1  0  0  0  0
 53 61  1  0  0  0  0
 54 63  1  0  0  0  0
 55 72  1  0  0  0  0
 56 60  1  0  0  0  0
 57 71  1  0  0  0  0
 58 61  1  0  0  0  0
 58 70  1  0  0  0  0
 59 72  1  0  0  0  0
 60 79  1  0  0  0  0
 62 64  1  0  0  0  0
M  CHG  1  72   1
M  ISO  4  36 100  60 101  71 100  79 101
M  END
> <Batch ID>
0115

> <Smiles>
CNC(C)C(=O)NC(C(=O)N1Cc2cc([101O:1][101CH:1](C)Cc3ccc(C[100NH:0][100C:0](=O)N4CCCC(n5nc(-c6ccc(Oc7ccc(F)cc7F)cc6)c(C(N)=O)c5N)C4)n3C)ccc2CC1C(=O)NC1CCCc2ccccc21)C(C)(C)C

> <Shape>
0.272

> <Color>
0.054

> <Negative vol penalty>
0.000

$$$$

  -OEChem-04052320103D

 85 93  0     1  0  0  0  0  0999 V2000
  -33.2413   -7.2726   21.7311 C   0  0  0  0  0  0  0  0  0  0  0  0
  -31.9113   -7.2860   21.3231 C   0  0  0  0  0  0  0  0  0  0  0  0
  -24.7410  -30.6210   20.9161 C   0  0  0  0  0  0  0  0  0  0  0  0
  -25.1939  -29.2678   22.8656 C   0  0  0  0  0  0  0  0  0  0  0  0
  -33.7437   -8.3209   22.5009 C   0  0  0  0  0  0  0  0  0  0  0  0
  -31.0827   -8.3473   21.6856 C   0  0  0  0  0  0  0  0  0  0  0  0
  -25.5359  -12.1790   19.2632 C   0  0  0  0  0  0  0  0  0  0  0  0
  -23.7667  -18.3220   22.9150 C   0  0  0  0  0  0  0  0  0  0  0  0
  -24.0785  -31.5520   21.7161 C   0  0  0  0  0  0  0  0  0  0  0  0
  -24.5315  -30.1988   23.6657 C   0  0  0  0  0  0  0  0  0  0  0  0
  -24.2671  -12.6036   19.6550 C   0  0  0  0  0  0  0  0  0  0  0  0
  -24.9074  -34.0639   23.8223 C   0  0  0  0  0  0  0  0  0  0  0  0
  -25.1884  -35.4142   23.6138 C   0  0  0  0  0  0  0  0  0  0  0  0
  -23.5938  -16.9499   23.0596 C   0  0  0  0  0  0  0  0  0  0  0  0
  -25.2650  -14.3988   20.9201 C   0  0  0  0  0  0  0  0  0  0  0  0
  -22.8647  -35.8166   23.0887 C   0  0  0  0  0  0  0  0  0  0  0  0
  -25.2986  -29.4789   21.4908 C   0  0  0  0  0  0  0  0  0  0  0  0
  -27.3510  -28.4993   20.3352 C   0  0  0  0  0  0  0  0  0  0  0  0
  -32.9233   -9.4003   22.8648 C   0  0  0  0  0  0  0  0  0  0  0  0
  -26.6813  -12.8558   19.7065 C   0  0  0  0  0  0  0  0  0  0  0  0
  -31.5742   -9.4104   22.4621 C   0  0  0  0  0  0  0  0  0  0  0  0
  -26.5472  -13.9824   20.5304 C   0  0  0  0  0  0  0  0  0  0  0  0
  -23.3417  -18.9517   21.7505 C   0  0  0  0  0  0  0  0  0  0  0  0
  -23.9738  -31.3409   23.0909 C   0  0  0  0  0  0  0  0  0  0  0  0
  -24.1316  -13.7119   20.4859 C   0  0  0  0  0  0  0  0  0  0  0  0
  -23.6051  -33.5899   23.6639 C   0  0  0  0  0  0  0  0  0  0  0  0
  -24.1670  -36.2905   23.2471 C   0  0  0  0  0  0  0  0  0  0  0  0
  -22.5838  -34.4663   23.2971 C   0  0  0  0  0  0  0  0  0  0  0  0
  -25.9825  -28.5165   20.6648 C   0  0  0  0  0  0  0  0  0  0  0  0
  -22.9952  -16.2585   22.0187 C   0  0  0  0  0  0  0  0  0  0  0  0
  -22.7546  -18.1706   20.7682 C   0  0  0  0  0  0  0  0  0  0  0  0
  -27.4974  -27.3930   19.5344 C   0  0  0  0  0  0  0  0  0  0  0  0
  -28.3965  -29.4024   20.7186 C   0  0  0  0  0  0  0  0  0  0  0  0
  -29.2127  -12.0701   21.4610 C   0  0  0  0  0  0  0  0  0  0  0  0
  -30.2215  -15.0395   20.6320 C   0  0  0  0  0  0  0  0  0  0  0  0
  -29.4127  -18.1954   19.6156 C   0  0  0  0  0  0  0  0  0  0  0  0
  -24.3951  -22.2985   19.0118 C   0  0  0  0  0  0  0  0  0  0  0  0
  -33.4987  -10.4874   23.7376 C   0  0  0  0  0  0  0  0  0  0  0  0
  -28.0416  -12.4013   19.2531 C   0  0  0  0  0  0  0  0  0  0  0  0
  -27.7443  -14.7558   21.0173 C   0  0  0  0  0  0  0  0  0  0  0  0
  -32.6540  -11.7587   23.7637 C   0  0  0  0  0  0  0  0  0  0  0  0
  -25.0756  -24.6641   16.4393 C   0  0  0  0  0  0  0  0  0  0  0  0
  -31.1814  -11.4170   23.9670 C   0  0  0  0  0  0  0  0  0  0  0  0
  -25.5087  -25.9181   17.2008 C   0  0  0  0  0  0  0  0  0  0  0  0
  -23.9725  -23.9086   17.1772 C   0  0  0  0  0  0  0  0  0  0  0  0
  -24.7169  -24.8254   19.3404 C   0  0  0  0  0  0  0  0  0  0  0  0
  -30.6505  -10.5561   22.8144 C   0  0  1  0  0  0  0  0  0  0  0  0
  -29.1636  -12.8561   20.1814 C   0  0  1  0  0  0  0  0  0  0  0  0
  -25.8666  -25.5906   18.6630 C   0  0  2  0  0  0  0  0  0  0  0  0
  -20.7564  -18.6400   19.3052 C   0  0  0  0  0  0  0  0  0  0  0  0
  -23.0184  -18.2512   18.2626 C   0  0  0  0  0  0  0  0  0  0  0  0
  -21.4351  -14.4205   22.7474 C   0  0  0  0  0  0  0  0  0  0  0  0
  -30.4493  -20.4118   19.0583 C   0  0  0  0  0  0  0  0  0  0  0  0
  -26.0088  -20.7844   21.9570 C   0  0  0  0  0  0  0  0  0  0  0  0
  -30.6190  -15.5984   23.6051 C   0  0  0  0  0  0  0  0  0  0  0  0
  -30.7240  -18.0399   23.0609 C   0  0  0  0  0  0  0  0  0  0  0  0
  -32.4324  -16.4809   22.1261 C   0  0  0  0  0  0  0  0  0  0  0  0
  -28.3993  -18.1015   16.8365 C   0  0  0  0  0  0  0  0  0  0  0  0
  -23.5254  -20.4211   21.5893 C   0  0  0  0  0  0  0  0  0  0  0  0
  -22.2762  -18.7934   19.4977 C   0  0  0  0  0  0  0  0  0  0  0  0
  -22.7899  -14.7660   22.1425 C   0  0  1  0  0  0  0  0  0  1  0  0
  -30.0729  -16.4220   21.2198 C   0  0  1  0  0  0  0  0  0  0  0  0
  -29.9754  -19.0737   18.5127 C   0  0  2  0  0  0  0  0  0  0  0  0
  -24.8721  -20.8107   20.9400 C   0  0  1  0  0  0  0  0  0  0  0  0
  -30.9394  -16.6198   22.4956 C   0  0  0  0  0  0  0  0  0  0  0  0
  -25.3076  -27.5019   20.1180 N   0  0  0  0  0  0  0  0  0  0  0  0
  -22.5696  -16.8355   20.8727 N   0  0  0  0  0  0  0  0  0  0  0  0
  -26.2559  -26.8368   19.4366 N   0  0  0  0  0  0  0  0  0  0  0  0
  -29.0532  -14.2685   20.5518 N   0  0  0  0  0  0  0  0  0  0  0  0
  -24.3756  -23.6274   18.5572 N   0  0  0  0  0  0  0  0  0  0  0  0
  -28.5656  -26.8516   18.9113 N   0  0  0  0  0  0  0  0  0  0  0  0
  -28.0728  -30.4867   21.5455 N   0  0  0  0  0  0  0  0  0  0  0  0
  -30.3921  -11.3750   21.6494 N   0  0  0  0  0  0  0  0  0  0  0  0
  -30.3735  -17.3583   20.1422 N   0  0  0  0  0  0  0  0  0  0  0  0
  -24.7951  -22.1196   20.3304 N   0  0  0  0  0  0  0  0  0  0  0  0
  -28.9374  -19.3304   17.4746 N   0  3  0  0  0  0  0  0  0  0  0  0
  -29.5795  -29.2615   20.3258 O   0  0  0  0  0  0  0  0  0  0  0  0
  -28.2524  -12.0938   22.2219 O   0  0  0  0  0  0  0  0  0  0  0  0
  -31.3318  -14.6604   20.2511 O   0  0  0  0  0  0  0  0  0  0  0  0
  -28.2391  -18.2494   19.9766 O   0  0  0  0  0  0  0  0  0  0  0  0
  -24.0844  -21.3419   18.2940 O   0  0  0  0  0  0  0  0  0  0  0  0
  -23.3277  -32.2492   23.8719 O   0  0  0  0  0  0  0  0  0  0  0  0
  -22.8943  -14.1280   20.8704 O   0  0  0  0  0  0  0  0  0  1  0  0
  -24.4367  -37.5874   23.0485 F   0  0  0  0  0  0  0  0  0  0  0  0
  -21.3305  -34.0170   23.1446 F   0  0  0  0  0  0  0  0  0  0  0  0
  1  2  1  0  0  0  0
  1  5  2  0  0  0  0
  2  6  2  0  0  0  0
  3  9  2  0  0  0  0
  3 17  1  0  0  0  0
  4 10  1  0  0  0  0
  4 17  2  0  0  0  0
  5 19  1  0  0  0  0
  6 21  1  0  0  0  0
  7 11  2  0  0  0  0
  7 20  1  0  0  0  0
  8 14  2  0  0  0  0
  8 23  1  0  0  0  0
  9 24  1  0  0  0  0
 10 24  2  0  0  0  0
 11 25  1  0  0  0  0
 12 13  2  0  0  0  0
 12 26  1  0  0  0  0
 13 27  1  0  0  0  0
 14 30  1  0  0  0  0
 15 22  1  0  0  0  0
 15 25  2  0  0  0  0
 16 27  2  0  0  0  0
 16 28  1  0  0  0  0
 17 29  1  0  0  0  0
 18 29  1  0  0  0  0
 18 32  2  0  0  0  0
 18 33  1  0  0  0  0
 19 21  2  0  0  0  0
 19 38  1  0  0  0  0
 20 22  2  0  0  0  0
 20 39  1  0  0  0  0
 21 47  1  0  0  0  0
 22 40  1  0  0  0  0
 23 31  2  0  0  0  0
 23 59  1  0  0  0  0
 24 82  1  0  0  0  0
 25 83  1  0  0  0  0
 26 28  2  0  0  0  0
 26 82  1  0  0  0  0
 27 84  1  0  0  0  0
 28 85  1  0  0  0  0
 29 66  2  0  0  0  0
 30 61  1  0  0  0  0
 30 67  2  0  0  0  0
 31 60  1  0  0  0  0
 31 67  1  0  0  0  0
 32 68  1  0  0  0  0
 32 71  1  0  0  0  0
 33 72  1  0  0  0  0
 33 77  2  0  0  0  0
 34 48  1  0  0  0  0
 34 73  1  0  0  0  0
 34 78  2  0  0  0  0
 35 62  1  0  0  0  0
 35 69  1  0  0  0  0
 35 79  2  0  0  0  0
 36 63  1  0  0  0  0
 36 74  1  0  0  0  0
 36 80  2  0  0  0  0
 37 70  1  0  0  0  0
 37 75  1  0  0  0  0
 37 81  2  0  0  0  0
 38 41  1  0  0  0  0
 39 48  1  0  0  0  0
 40 69  1  0  0  0  0
 41 43  1  0  0  0  0
 42 44  1  0  0  0  0
 42 45  1  0  0  0  0
 43 47  1  0  0  0  0
 44 49  1  0  0  0  0
 45 70  1  0  0  0  0
 46 49  1  0  0  0  0
 46 70  1  0  0  0  0
 47 73  1  0  0  0  0
 48 69  1  0  0  0  0
 49 68  1  0  0  0  0
 50 60  1  0  0  0  0
 51 60  1  0  0  0  0
 52 61  1  0  0  0  0
 53 63  1  0  0  0  0
 54 64  1  0  0  0  0
 55 65  1  0  0  0  0
 56 65  1  0  0  0  0
 57 65  1  0  0  0  0
 58 76  1  0  0  0  0
 59 64  1  0  0  0  0
 61 83  1  0  0  0  0
 62 65  1  0  0  0  0
 62 74  1  0  0  0  0
 63 76  1  0  0  0  0
 64 75  1  0  0  0  0
 66 68  1  0  0  0  0
M  CHG  1  76   1
M  ISO  4  37 100  61 101  75 100  83 101
M  END
> <Batch ID>
0115

> <Smiles>
CNC(C)C(=O)NC(C(=O)N1Cc2cc([101O:1][101CH:1](C)c3ccc(CC(C)[100NH:0][100C:0](=O)N4CCCC(n5nc(-c6ccc(Oc7ccc(F)cc7F)cc6)c(C(N)=O)c5N)C4)c(C(C)C)n3)ccc2CC1C(=O)NC1CCCc2ccccc21)C(C)(C)C

> <Shape>
0.233

> <Color>
0.077

> <Negative vol penalty>
0.000

$$$$

  -OEChem-04052320103D

 88 96  0     1  0  0  0  0  0999 V2000
  -29.1352  -23.9930   18.3806 C   0  0  0  0  0  0  0  0  0  0  0  0
  -27.7654  -24.2065   18.4964 C   0  0  0  0  0  0  0  0  0  0  0  0
  -27.2844  -12.9629   20.4627 C   0  0  0  0  0  0  0  0  0  0  0  0
  -25.0269  -13.8113   20.6071 C   0  0  0  0  0  0  0  0  0  0  0  0
  -30.0045  -24.5167   19.3366 C   0  0  0  0  0  0  0  0  0  0  0  0
  -27.2639  -24.9430   19.5691 C   0  0  0  0  0  0  0  0  0  0  0  0
  -22.4294  -28.7020   19.5138 C   0  0  0  0  0  0  0  0  0  0  0  0
  -26.8676  -11.7576   21.0274 C   0  0  0  0  0  0  0  0  0  0  0  0
  -24.6100  -12.6059   21.1718 C   0  0  0  0  0  0  0  0  0  0  0  0
  -21.1025  -28.5294   19.9051 C   0  0  0  0  0  0  0  0  0  0  0  0
  -23.8480   -9.4903   20.1073 C   0  0  0  0  0  0  0  0  0  0  0  0
  -22.6693   -8.9230   19.6232 C   0  0  0  0  0  0  0  0  0  0  0  0
  -21.6128  -29.5123   22.0481 C   0  0  0  0  0  0  0  0  0  0  0  0
  -21.6995   -9.0532   21.8322 C   0  0  0  0  0  0  0  0  0  0  0  0
  -19.4927  -25.9389   22.6303 C   0  0  0  0  0  0  0  0  0  0  0  0
  -26.3641  -13.9899   20.2526 C   0  0  0  0  0  0  0  0  0  0  0  0
  -26.8308  -15.5662   18.3020 C   0  0  0  0  0  0  0  0  0  0  0  0
  -29.5142  -25.2682   20.4163 C   0  0  0  0  0  0  0  0  0  0  0  0
  -23.3621  -29.2721   20.3922 C   0  0  0  0  0  0  0  0  0  0  0  0
  -28.1273  -25.4761   20.5412 C   0  0  0  0  0  0  0  0  0  0  0  0
  -22.9504  -29.6935   21.6646 C   0  0  0  0  0  0  0  0  0  0  0  0
  -25.5304  -11.5790   21.3819 C   0  0  0  0  0  0  0  0  0  0  0  0
  -20.6946  -28.9319   21.1735 C   0  0  0  0  0  0  0  0  0  0  0  0
  -23.9526   -9.8390   21.4539 C   0  0  0  0  0  0  0  0  0  0  0  0
  -21.5950   -8.7045   20.4856 C   0  0  0  0  0  0  0  0  0  0  0  0
  -22.8783   -9.6205   22.3163 C   0  0  0  0  0  0  0  0  0  0  0  0
  -26.7942  -15.2355   19.6699 C   0  0  0  0  0  0  0  0  0  0  0  0
  -19.3721  -26.3532   21.3222 C   0  0  0  0  0  0  0  0  0  0  0  0
  -20.4491  -24.4606   20.6236 C   0  0  0  0  0  0  0  0  0  0  0  0
  -20.5703  -24.0467   21.9319 C   0  0  0  0  0  0  0  0  0  0  0  0
  -27.3114  -16.8525   18.2725 C   0  0  0  0  0  0  0  0  0  0  0  0
  -26.4631  -14.7809   17.1601 C   0  0  0  0  0  0  0  0  0  0  0  0
  -26.0504  -28.2763   21.7651 C   0  0  0  0  0  0  0  0  0  0  0  0
  -26.2100  -31.3517   22.7843 C   0  0  0  0  0  0  0  0  0  0  0  0
  -23.5618  -21.8747   22.1517 C   0  0  0  0  0  0  0  0  0  0  0  0
  -24.5647  -34.2514   23.5133 C   0  0  0  0  0  0  0  0  0  0  0  0
  -27.2638  -21.3155   22.2639 C   0  0  0  0  0  0  0  0  0  0  0  0
  -30.4886  -25.7741   21.4504 C   0  0  0  0  0  0  0  0  0  0  0  0
  -24.7837  -29.4760   19.9452 C   0  0  0  0  0  0  0  0  0  0  0  0
  -23.9081  -30.3295   22.6377 C   0  0  0  0  0  0  0  0  0  0  0  0
  -29.9094  -26.8606   22.3528 C   0  0  0  0  0  0  0  0  0  0  0  0
  -30.1199  -19.8573   20.7168 C   0  0  0  0  0  0  0  0  0  0  0  0
  -28.5230  -26.4607   22.8476 C   0  0  0  0  0  0  0  0  0  0  0  0
  -29.5947  -18.5373   20.1496 C   0  0  0  0  0  0  0  0  0  0  0  0
  -29.4645  -20.1978   22.0534 C   0  0  0  0  0  0  0  0  0  0  0  0
  -27.4645  -18.8812   21.4698 C   0  0  0  0  0  0  0  0  0  0  0  0
  -27.5473  -26.2907   21.6769 C   0  0  1  0  0  0  0  0  0  0  0  0
  -25.7641  -29.5968   21.1078 C   0  0  1  0  0  0  0  0  0  0  0  0
  -28.0552  -18.5234   20.0952 C   0  0  2  0  0  0  0  0  0  0  0  0
  -22.0839  -24.3697   18.7071 C   0  0  0  0  0  0  0  0  0  0  0  0
  -19.8711  -23.1744   18.5341 C   0  0  0  0  0  0  0  0  0  0  0  0
  -20.6724  -22.1094   23.5531 C   0  0  0  0  0  0  0  0  0  0  0  0
  -17.2530  -27.7039   21.4901 C   0  0  0  0  0  0  0  0  0  0  0  0
  -24.9585  -36.5800   24.3619 C   0  0  0  0  0  0  0  0  0  0  0  0
  -26.5109  -30.2650   25.6196 C   0  0  0  0  0  0  0  0  0  0  0  0
  -25.9475  -32.5478   26.4796 C   0  0  0  0  0  0  0  0  0  0  0  0
  -27.9886  -32.2107   25.0858 C   0  0  0  0  0  0  0  0  0  0  0  0
  -23.5507  -35.4600   21.0093 C   0  0  0  0  0  0  0  0  0  0  0  0
  -24.9910  -22.3014   22.4101 C   0  0  0  0  0  0  0  0  0  0  0  0
  -20.9796  -23.6413   19.4970 C   0  0  0  0  0  0  0  0  0  0  0  0
  -21.2375  -22.7605   22.2816 C   0  0  2  0  0  0  0  0  0  0  0  0
  -18.6920  -27.6621   20.9917 C   0  0  1  0  0  0  0  0  0  1  0  0
  -25.7108  -32.1044   23.9940 C   0  0  1  0  0  0  0  0  0  0  0  0
  -24.8472  -35.6932   23.1314 C   0  0  2  0  0  0  0  0  0  0  0  0
  -26.5216  -31.7682   25.2774 C   0  0  0  0  0  0  0  0  0  0  0  0
  -20.0940  -24.7783   22.9587 N   0  0  0  0  0  0  0  0  0  0  0  0
  -27.2179  -16.2313   20.4527 N   0  0  0  0  0  0  0  0  0  0  0  0
  -19.8481  -25.6214   20.2953 N   0  0  0  0  0  0  0  0  0  0  0  0
  -27.5254  -17.2004   19.5738 N   0  0  0  0  0  0  0  0  0  0  0  0
  -25.2887  -30.5016   22.1564 N   0  0  0  0  0  0  0  0  0  0  0  0
  -28.0048  -20.1689   21.9332 N   0  0  0  0  0  0  0  0  0  0  0  0
  -27.5677  -17.7086   17.2607 N   0  0  0  0  0  0  0  0  0  0  0  0
  -25.9881  -13.4791   17.3694 N   0  0  0  0  0  0  0  0  0  0  0  0
  -27.1022  -27.5820   21.1984 N   0  0  0  0  0  0  0  0  0  0  0  0
  -22.6781  -22.9075   22.4067 N   0  0  0  0  0  0  0  0  0  0  0  0
  -25.7259  -33.5172   23.6306 N   0  0  0  0  0  0  0  0  0  0  0  0
  -25.8867  -21.2051   22.1156 N   0  0  0  0  0  0  0  0  0  0  0  0
  -23.7551  -36.2236   22.2671 N   0  3  0  0  0  0  0  0  0  0  0  0
  -26.5687  -15.2149   15.9879 O   0  0  0  0  0  0  0  0  0  0  0  0
  -25.3685  -27.9148   22.7170 O   0  0  0  0  0  0  0  0  0  0  0  0
  -27.3724  -31.5175   22.4062 O   0  0  0  0  0  0  0  0  0  0  0  0
  -23.2506  -20.7400   21.7988 O   0  0  0  0  0  0  0  0  0  0  0  0
  -23.4278  -33.8205   23.6935 O   0  0  0  0  0  0  0  0  0  0  0  0
  -27.7909  -22.3618   22.6567 O   0  0  0  0  0  0  0  0  0  0  0  0
  -25.1232  -10.4029   21.9328 O   0  0  0  0  0  0  0  0  0  0  0  0
  -19.4002  -28.7639   21.5582 O   0  0  0  0  0  0  0  0  0  1  0  0
  -20.4626   -8.1611   20.0203 F   0  0  0  0  0  0  0  0  0  0  0  0
  -22.9723   -9.9545   23.6107 F   0  0  0  0  0  0  0  0  0  0  0  0
  1  2  1  0  0  0  0
  1  5  2  0  0  0  0
  2  6  2  0  0  0  0
  3  8  2  0  0  0  0
  3 16  1  0  0  0  0
  4  9  1  0  0  0  0
  4 16  2  0  0  0  0
  5 18  1  0  0  0  0
  6 20  1  0  0  0  0
  7 10  2  0  0  0  0
  7 19  1  0  0  0  0
  8 22  1  0  0  0  0
  9 22  2  0  0  0  0
 10 23  1  0  0  0  0
 11 12  2  0  0  0  0
 11 24  1  0  0  0  0
 12 25  1  0  0  0  0
 13 21  1  0  0  0  0
 13 23  2  0  0  0  0
 14 25  2  0  0  0  0
 14 26  1  0  0  0  0
 15 28  1  0  0  0  0
 15 66  2  0  0  0  0
 16 27  1  0  0  0  0
 17 27  1  0  0  0  0
 17 31  2  0  0  0  0
 17 32  1  0  0  0  0
 18 20  2  0  0  0  0
 18 38  1  0  0  0  0
 19 21  2  0  0  0  0
 19 39  1  0  0  0  0
 20 47  1  0  0  0  0
 21 40  1  0  0  0  0
 22 85  1  0  0  0  0
 23 86  1  0  0  0  0
 24 26  2  0  0  0  0
 24 85  1  0  0  0  0
 25 87  1  0  0  0  0
 26 88  1  0  0  0  0
 27 67  2  0  0  0  0
 28 62  1  0  0  0  0
 28 68  2  0  0  0  0
 29 30  2  0  0  0  0
 29 60  1  0  0  0  0
 29 68  1  0  0  0  0
 30 61  1  0  0  0  0
 30 66  1  0  0  0  0
 31 69  1  0  0  0  0
 31 72  1  0  0  0  0
 32 73  1  0  0  0  0
 32 79  2  0  0  0  0
 33 48  1  0  0  0  0
 33 74  1  0  0  0  0
 33 80  2  0  0  0  0
 34 63  1  0  0  0  0
 34 70  1  0  0  0  0
 34 81  2  0  0  0  0
 35 59  1  0  0  0  0
 35 75  1  0  0  0  0
 35 82  2  0  0  0  0
 36 64  1  0  0  0  0
 36 76  1  0  0  0  0
 36 83  2  0  0  0  0
 37 71  1  0  0  0  0
 37 77  1  0  0  0  0
 37 84  2  0  0  0  0
 38 41  1  0  0  0  0
 39 48  1  0  0  0  0
 40 70  1  0  0  0  0
 41 43  1  0  0  0  0
 42 44  1  0  0  0  0
 42 45  1  0  0  0  0
 43 47  1  0  0  0  0
 44 49  1  0  0  0  0
 45 71  1  0  0  0  0
 46 49  1  0  0  0  0
 46 71  1  0  0  0  0
 47 74  1  0  0  0  0
 48 70  1  0  0  0  0
 49 69  1  0  0  0  0
 50 60  1  0  0  0  0
 51 60  1  0  0  0  0
 52 61  1  0  0  0  0
 53 62  1  0  0  0  0
 54 64  1  0  0  0  0
 55 65  1  0  0  0  0
 56 65  1  0  0  0  0
 57 65  1  0  0  0  0
 58 78  1  0  0  0  0
 59 77  1  0  0  0  0
 61 75  1  0  0  0  0
 62 86  1  0  0  0  0
 63 65  1  0  0  0  0
 63 76  1  0  0  0  0
 64 78  1  0  0  0  0
 67 69  1  0  0  0  0
M  CHG  1  78   1
M  ISO  4  37 100  62 101  77 100  86 101
M  END
> <Batch ID>
0115

> <Smiles>
CNC(C)C(=O)NC(C(=O)N1Cc2cc([101O:1][101CH:1](C)c3cnc(C(C)NC(=O)C[100NH:0][100C:0](=O)N4CCCC(n5nc(-c6ccc(Oc7ccc(F)cc7F)cc6)c(C(N)=O)c5N)C4)c(C(C)C)n3)ccc2CC1C(=O)NC1CCCc2ccccc21)C(C)(C)C

> <Shape>
0.306

> <Color>
0.066

> <Negative vol penalty>
0.000

$$$$

  -OEChem-04052320103D

 92100  0     1  0  0  0  0  0999 V2000
  -27.0262  -24.2563   25.8034 C   0  0  0  0  0  0  0  0  0  0  0  0
  -27.0840  -24.9753   24.6138 C   0  0  0  0  0  0  0  0  0  0  0  0
  -23.4242   -9.9796   22.2779 C   0  0  0  0  0  0  0  0  0  0  0  0
  -23.5559   -9.5579   19.9026 C   0  0  0  0  0  0  0  0  0  0  0  0
  -25.8135  -23.7197   26.2340 C   0  0  0  0  0  0  0  0  0  0  0  0
  -25.9293  -25.1571   23.8535 C   0  0  0  0  0  0  0  0  0  0  0  0
  -25.4189  -29.9177   22.2038 C   0  0  0  0  0  0  0  0  0  0  0  0
  -22.5824   -8.8775   22.4270 C   0  0  0  0  0  0  0  0  0  0  0  0
  -22.7141   -8.4557   20.0517 C   0  0  0  0  0  0  0  0  0  0  0  0
  -26.1919  -30.2980   21.1076 C   0  0  0  0  0  0  0  0  0  0  0  0
  -22.8871   -5.5137   22.5854 C   0  0  0  0  0  0  0  0  0  0  0  0
  -23.1443   -4.6397   23.6416 C   0  0  0  0  0  0  0  0  0  0  0  0
  -24.2858  -29.9848   19.6626 C   0  0  0  0  0  0  0  0  0  0  0  0
  -28.7335  -26.9312   19.4051 C   0  0  0  0  0  0  0  0  0  0  0  0
  -20.9477   -5.0841   24.5442 C   0  0  0  0  0  0  0  0  0  0  0  0
  -23.9109  -10.3199   21.0157 C   0  0  0  0  0  0  0  0  0  0  0  0
  -26.1858  -11.4716   20.9365 C   0  0  0  0  0  0  0  0  0  0  0  0
  -24.6415  -23.9032   25.4835 C   0  0  0  0  0  0  0  0  0  0  0  0
  -24.0743  -29.5570   22.0358 C   0  0  0  0  0  0  0  0  0  0  0  0
  -24.7001  -24.6212   24.2738 C   0  0  0  0  0  0  0  0  0  0  0  0
  -23.4973  -29.6028   20.7587 C   0  0  0  0  0  0  0  0  0  0  0  0
  -27.8863  -25.8311   19.3326 C   0  0  0  0  0  0  0  0  0  0  0  0
  -28.4198  -24.5472   19.3539 C   0  0  0  0  0  0  0  0  0  0  0  0
  -22.2274   -8.1155   21.3139 C   0  0  0  0  0  0  0  0  0  0  0  0
  -25.6262  -30.3288   19.8364 C   0  0  0  0  0  0  0  0  0  0  0  0
  -21.6603   -6.1730   22.5086 C   0  0  0  0  0  0  0  0  0  0  0  0
  -22.1746   -4.4249   24.6210 C   0  0  0  0  0  0  0  0  0  0  0  0
  -20.6906   -5.9582   23.4880 C   0  0  0  0  0  0  0  0  0  0  0  0
  -24.7801  -11.4586   20.8610 C   0  0  0  0  0  0  0  0  0  0  0  0
  -30.0958  -26.6958   19.4970 C   0  0  0  0  0  0  0  0  0  0  0  0
  -29.7962  -24.4185   19.4479 C   0  0  0  0  0  0  0  0  0  0  0  0
  -26.5290  -12.7840   20.7216 C   0  0  0  0  0  0  0  0  0  0  0  0
  -27.0995  -10.3937   21.1790 C   0  0  0  0  0  0  0  0  0  0  0  0
  -22.3824  -26.9123   22.5325 C   0  0  0  0  0  0  0  0  0  0  0  0
  -19.8853  -28.8296   21.7508 C   0  0  0  0  0  0  0  0  0  0  0  0
  -18.7723  -31.6252   20.1407 C   0  0  0  0  0  0  0  0  0  0  0  0
  -25.8403  -18.1105   21.7115 C   0  0  0  0  0  0  0  0  0  0  0  0
  -23.3633  -23.2640   25.9655 C   0  0  0  0  0  0  0  0  0  0  0  0
  -23.2467  -29.1748   23.2323 C   0  0  0  0  0  0  0  0  0  0  0  0
  -22.0527  -29.2444   20.5278 C   0  0  0  0  0  0  0  0  0  0  0  0
  -22.1119  -23.8210   25.2916 C   0  0  0  0  0  0  0  0  0  0  0  0
  -23.7434  -16.7035   19.1407 C   0  0  0  0  0  0  0  0  0  0  0  0
  -22.3131  -23.9096   23.7821 C   0  0  0  0  0  0  0  0  0  0  0  0
  -23.9515  -15.2039   19.3642 C   0  0  0  0  0  0  0  0  0  0  0  0
  -23.6937  -17.4562   20.4667 C   0  0  0  0  0  0  0  0  0  0  0  0
  -25.0914  -15.7513   21.5660 C   0  0  0  0  0  0  0  0  0  0  0  0
  -23.4643  -24.8610   23.4339 C   0  0  1  0  0  0  0  0  0  0  0  0
  -22.0272  -28.3325   22.8709 C   0  0  1  0  0  0  0  0  0  0  0  0
  -25.1726  -14.9329   20.2642 C   0  0  1  0  0  0  0  0  0  0  0  0
  -26.4137  -26.0545   19.2301 C   0  0  0  0  0  0  0  0  0  0  0  0
  -30.4279  -23.0651   19.4767 C   0  0  0  0  0  0  0  0  0  0  0  0
  -27.7941  -22.5181   18.0031 C   0  0  0  0  0  0  0  0  0  0  0  0
  -16.6742  -32.9108   19.6479 C   0  0  0  0  0  0  0  0  0  0  0  0
  -25.9939  -21.1630   23.0388 C   0  0  0  0  0  0  0  0  0  0  0  0
  -19.1046  -26.7493   19.6595 C   0  0  0  0  0  0  0  0  0  0  0  0
  -17.6364  -28.4742   18.5931 C   0  0  0  0  0  0  0  0  0  0  0  0
  -17.1831  -27.7246   20.9288 C   0  0  0  0  0  0  0  0  0  0  0  0
  -19.7787  -34.0301   21.5415 C   0  0  0  0  0  0  0  0  0  0  0  0
  -31.0350  -27.8527   19.5779 C   0  0  0  0  0  0  0  0  0  0  0  0
  -31.5343  -28.3641   18.2129 C   0  0  0  0  0  0  0  0  0  0  0  0
  -28.1429  -31.9221   17.6846 C   0  0  0  0  0  0  0  0  0  0  0  0
  -30.4483  -28.8948   17.2820 C   0  0  0  0  0  0  0  0  0  0  0  0
  -28.7318  -30.6895   17.0151 C   0  0  0  0  0  0  0  0  0  0  0  0
  -27.6341  -22.4186   20.5127 C   0  0  0  0  0  0  0  0  0  0  0  0
  -27.4365  -31.6258   19.0018 C   0  0  0  0  0  0  0  0  0  1  0  0
  -27.5162  -23.3223   19.2785 C   0  0  1  0  0  0  0  0  0  0  0  0
  -19.1832  -29.2005   20.4668 C   0  0  1  0  0  0  0  0  0  0  0  0
  -17.8567  -32.7494   20.5905 C   0  0  2  0  0  0  0  0  0  0  0  0
  -26.4600  -20.5327   21.7348 C   0  0  1  0  0  0  0  0  0  0  0  0
  -18.3046  -28.0421   19.9158 C   0  0  0  0  0  0  0  0  0  0  0  0
  -24.2656  -12.6669   20.6175 N   0  0  0  0  0  0  0  0  0  0  0  0
  -30.6510  -25.4634   19.5203 N   0  0  0  0  0  0  0  0  0  0  0  0
  -25.3538  -13.4514   20.5381 N   0  0  0  0  0  0  0  0  0  0  0  0
  -21.2866  -28.8713   21.7284 N   0  0  0  0  0  0  0  0  0  0  0  0
  -24.8985  -17.1717   21.2581 N   0  0  0  0  0  0  0  0  0  0  0  0
  -27.7184  -13.4207   20.6738 N   0  0  0  0  0  0  0  0  0  0  0  0
  -26.5783   -9.1081   21.3791 N   0  0  0  0  0  0  0  0  0  0  0  0
  -23.0339  -26.2380   23.5476 N   0  0  0  0  0  0  0  0  0  0  0  0
  -18.4469  -30.4290   20.7444 N   0  0  0  0  0  0  0  0  0  0  0  0
  -25.5861  -19.4310   21.3565 N   0  0  0  0  0  0  0  0  0  0  0  0
  -18.6025  -34.0389   20.6340 N   0  3  0  0  0  0  0  0  0  0  0  0
  -29.7718  -30.0686   17.8814 N   0  3  0  0  0  0  0  0  0  0  0  0
  -26.4322  -21.5492   20.6321 N   0  3  0  0  0  0  0  0  0  0  0  0
  -28.3405  -10.5683   21.2334 O   0  0  0  0  0  0  0  0  0  0  0  0
  -22.0859  -26.4610   21.4324 O   0  0  0  0  0  0  0  0  0  0  0  0
  -19.2149  -28.5213   22.7393 O   0  0  0  0  0  0  0  0  0  0  0  0
  -19.6825  -31.7908   19.3316 O   0  0  0  0  0  0  0  0  0  0  0  0
  -26.8329  -17.7938   22.3753 O   0  0  0  0  0  0  0  0  0  0  0  0
  -21.4061   -7.0398   21.4590 O   0  0  0  0  0  0  0  0  0  0  0  0
  -26.3838  -30.7016   18.7571 O   0  0  0  0  0  0  0  0  0  1  0  0
  -22.4212   -3.5844   25.6343 F   0  0  0  0  0  0  0  0  0  0  0  0
  -19.5096   -6.5878   23.4189 F   0  0  0  0  0  0  0  0  0  0  0  0
  1  2  1  0  0  0  0
  1  5  2  0  0  0  0
  2  6  2  0  0  0  0
  3  8  2  0  0  0  0
  3 16  1  0  0  0  0
  4  9  1  0  0  0  0
  4 16  2  0  0  0  0
  5 18  1  0  0  0  0
  6 20  1  0  0  0  0
  7 10  2  0  0  0  0
  7 19  1  0  0  0  0
  8 24  1  0  0  0  0
  9 24  2  0  0  0  0
 10 25  1  0  0  0  0
 11 12  2  0  0  0  0
 11 26  1  0  0  0  0
 12 27  1  0  0  0  0
 13 21  1  0  0  0  0
 13 25  2  0  0  0  0
 14 22  2  0  0  0  0
 14 30  1  0  0  0  0
 15 27  2  0  0  0  0
 15 28  1  0  0  0  0
 16 29  1  0  0  0  0
 17 29  1  0  0  0  0
 17 32  2  0  0  0  0
 17 33  1  0  0  0  0
 18 20  2  0  0  0  0
 18 38  1  0  0  0  0
 19 21  2  0  0  0  0
 19 39  1  0  0  0  0
 20 47  1  0  0  0  0
 21 40  1  0  0  0  0
 22 23  1  0  0  0  0
 22 50  1  0  0  0  0
 23 31  2  0  0  0  0
 23 66  1  0  0  0  0
 24 89  1  0  0  0  0
 25 90  1  0  0  0  0
 26 28  2  0  0  0  0
 26 89  1  0  0  0  0
 27 91  1  0  0  0  0
 28 92  1  0  0  0  0
 29 71  2  0  0  0  0
 30 59  1  0  0  0  0
 30 72  2  0  0  0  0
 31 51  1  0  0  0  0
 31 72  1  0  0  0  0
 32 73  1  0  0  0  0
 32 76  1  0  0  0  0
 33 77  1  0  0  0  0
 33 84  2  0  0  0  0
 34 48  1  0  0  0  0
 34 78  1  0  0  0  0
 34 85  2  0  0  0  0
 35 67  1  0  0  0  0
 35 74  1  0  0  0  0
 35 86  2  0  0  0  0
 36 68  1  0  0  0  0
 36 79  1  0  0  0  0
 36 87  2  0  0  0  0
 37 75  1  0  0  0  0
 37 80  1  0  0  0  0
 37 88  2  0  0  0  0
 38 41  1  0  0  0  0
 39 48  1  0  0  0  0
 40 74  1  0  0  0  0
 41 43  1  0  0  0  0
 42 44  1  0  0  0  0
 42 45  1  0  0  0  0
 43 47  1  0  0  0  0
 44 49  1  0  0  0  0
 45 75  1  0  0  0  0
 46 49  1  0  0  0  0
 46 75  1  0  0  0  0
 47 78  1  0  0  0  0
 48 74  1  0  0  0  0
 49 73  1  0  0  0  0
 52 66  1  0  0  0  0
 53 68  1  0  0  0  0
 54 69  1  0  0  0  0
 55 70  1  0  0  0  0
 56 70  1  0  0  0  0
 57 70  1  0  0  0  0
 58 81  1  0  0  0  0
 59 60  1  0  0  0  0
 60 62  1  0  0  0  0
 61 63  1  0  0  0  0
 61 65  1  0  0  0  0
 62 82  1  0  0  0  0
 63 82  1  0  0  0  0
 64 66  1  0  0  0  0
 64 83  1  0  0  0  0
 65 90  1  0  0  0  0
 67 70  1  0  0  0  0
 67 79  1  0  0  0  0
 68 81  1  0  0  0  0
 69 80  1  0  0  0  0
 69 83  1  0  0  0  0
 71 73  1  0  0  0  0
M  CHG  3  81   1  82   1  83   1
M  ISO  4  37 100  65 101  80 100  90 101
M  END
> <Batch ID>
0115

> <Smiles>
CNC(C)C(=O)NC(C(=O)N1Cc2cc([101O:1][101CH2:1]CCNCCCc3cc(C)c(C(C)CNC(C)[100NH:0][100C:0](=O)N4CCCC(n5nc(-c6ccc(Oc7ccc(F)cc7F)cc6)c(C(N)=O)c5N)C4)c(C)n3)ccc2CC1C(=O)NC1CCCc2ccccc21)C(C)(C)C

> <Shape>
0.243

> <Color>
0.104

> <Negative vol penalty>
0.000

$$$$

  -OEChem-04052320103D

 88 97  0     1  0  0  0  0  0999 V2000
  -28.5015  -12.5021   18.2713 C   0  0  0  0  0  0  0  0  0  0  0  0
  -27.7879  -13.5520   17.7020 C   0  0  0  0  0  0  0  0  0  0  0  0
  -17.5085  -29.5260   23.0851 C   0  0  0  0  0  0  0  0  0  0  0  0
  -27.4876  -25.3357   19.5436 C   0  0  0  0  0  0  0  0  0  0  0  0
  -28.9552  -26.8447   20.7295 C   0  0  0  0  0  0  0  0  0  0  0  0
  -28.0058  -11.8569   19.4035 C   0  0  0  0  0  0  0  0  0  0  0  0
  -26.5776  -13.9565   18.2640 C   0  0  0  0  0  0  0  0  0  0  0  0
  -24.3645  -19.6608   18.5262 C   0  0  0  0  0  0  0  0  0  0  0  0
  -28.4689  -24.3455   19.5890 C   0  0  0  0  0  0  0  0  0  0  0  0
  -29.9366  -25.8545   20.7749 C   0  0  0  0  0  0  0  0  0  0  0  0
  -23.4368  -20.3440   17.7411 C   0  0  0  0  0  0  0  0  0  0  0  0
  -30.4532  -21.3020   19.7099 C   0  0  0  0  0  0  0  0  0  0  0  0
  -30.0567  -20.0116   20.0612 C   0  0  0  0  0  0  0  0  0  0  0  0
  -18.3977  -29.4043   24.1813 C   0  0  0  0  0  0  0  0  0  0  0  0
  -21.7010  -19.7923   19.3228 C   0  0  0  0  0  0  0  0  0  0  0  0
  -29.2693  -20.8336   22.1922 C   0  0  0  0  0  0  0  0  0  0  0  0
  -17.8918  -28.6003   22.1399 C   0  0  0  0  0  0  0  0  0  0  0  0
  -27.7307  -26.5853   20.1138 C   0  0  0  0  0  0  0  0  0  0  0  0
  -26.1376  -28.1786   18.9176 C   0  0  0  0  0  0  0  0  0  0  0  0
  -26.7935  -12.2601   19.9854 C   0  0  0  0  0  0  0  0  0  0  0  0
  -23.9646  -19.0279   19.7119 C   0  0  0  0  0  0  0  0  0  0  0  0
  -26.0645  -13.3152   19.4043 C   0  0  0  0  0  0  0  0  0  0  0  0
  -22.6260  -19.1039   20.1225 C   0  0  0  0  0  0  0  0  0  0  0  0
  -29.6934  -24.6049   20.2046 C   0  0  0  0  0  0  0  0  0  0  0  0
  -22.1042  -20.4074   18.1378 C   0  0  0  0  0  0  0  0  0  0  0  0
  -30.2578  -22.3582   20.5998 C   0  0  0  0  0  0  0  0  0  0  0  0
  -29.4648  -19.7774   21.3023 C   0  0  0  0  0  0  0  0  0  0  0  0
  -29.6658  -22.1240   21.8410 C   0  0  0  0  0  0  0  0  0  0  0  0
  -26.7176  -27.6087   20.0668 C   0  0  0  0  0  0  0  0  0  0  0  0
  -19.2975  -28.4081   23.8725 C   0  0  0  0  0  0  0  0  0  0  0  0
  -25.2379  -29.0947   19.4053 C   0  0  0  0  0  0  0  0  0  0  0  0
  -26.3894  -27.9042   17.5330 C   0  0  0  0  0  0  0  0  0  0  0  0
  -23.9499  -16.0263   20.7576 C   0  0  0  0  0  0  0  0  0  0  0  0
  -22.9913  -17.4084   23.5313 C   0  0  0  0  0  0  0  0  0  0  0  0
  -21.5069  -20.0593   25.0856 C   0  0  0  0  0  0  0  0  0  0  0  0
  -22.2736  -29.5374   24.5887 C   0  0  0  0  0  0  0  0  0  0  0  0
  -26.2745  -11.5014   21.1811 C   0  0  0  0  0  0  0  0  0  0  0  0
  -24.9827  -18.3177   20.5613 C   0  0  0  0  0  0  0  0  0  0  0  0
  -22.1497  -18.4586   21.3972 C   0  0  0  0  0  0  0  0  0  0  0  0
  -25.1699  -12.2362   21.9361 C   0  0  0  0  0  0  0  0  0  0  0  0
  -24.4691  -31.9519   23.1651 C   0  0  0  0  0  0  0  0  0  0  0  0
  -24.1316  -12.7848   20.9626 C   0  0  0  0  0  0  0  0  0  0  0  0
  -25.2420  -31.1640   22.1059 C   0  0  0  0  0  0  0  0  0  0  0  0
  -19.4690  -25.8968   18.4117 C   0  0  0  0  0  0  0  0  0  0  0  0
  -24.1835  -31.1039   24.4026 C   0  0  0  0  0  0  0  0  0  0  0  0
  -24.2839  -29.0317   23.0723 C   0  0  0  0  0  0  0  0  0  0  0  0
  -18.9580  -24.7004   17.6267 C   0  0  0  0  0  0  0  0  0  0  0  0
  -21.1666  -24.2580   18.5793 C   0  0  0  0  0  0  0  0  0  0  0  0
  -24.7601  -13.7992   19.9995 C   0  0  1  0  0  0  0  0  0  0  0  0
  -24.3653  -17.2731   21.4860 C   0  0  1  0  0  0  0  0  0  0  0  0
  -20.4303  -25.2867   19.4211 C   0  0  1  0  0  0  0  0  0  0  0  0
  -24.5466  -29.8279   21.7826 C   0  0  2  0  0  0  0  0  0  0  0  0
  -20.8319  -20.8856   27.3569 C   0  0  0  0  0  0  0  0  0  0  0  0
  -22.3350  -25.6062   21.0120 C   0  0  0  0  0  0  0  0  0  0  0  0
  -20.6188  -15.4897   23.5216 C   0  0  0  0  0  0  0  0  0  0  0  0
  -19.5147  -16.9567   25.2237 C   0  0  0  0  0  0  0  0  0  0  0  0
  -21.6749  -15.8315   25.7626 C   0  0  0  0  0  0  0  0  0  0  0  0
  -23.2643  -22.4310   24.8728 C   0  0  0  0  0  0  0  0  0  0  0  0
  -20.4301  -27.8773   24.6586 C   0  0  0  0  0  0  0  0  0  0  0  0
  -20.5971  -27.4102   20.8227 C   0  0  0  0  0  0  0  0  0  0  0  0
  -19.6825  -26.8604   21.9192 C   0  0  0  0  0  0  0  0  0  0  0  0
  -20.5522  -23.1710   16.3902 C   0  0  0  0  0  0  0  0  0  0  0  0
  -21.6770  -22.1786   16.6093 C   0  0  0  0  0  0  0  0  0  1  0  0
  -21.6583  -17.7706   24.1404 C   0  0  1  0  0  0  0  0  0  0  0  0
  -21.9204  -20.8785   26.2948 C   0  0  2  0  0  0  0  0  0  0  0  0
  -21.3579  -26.3060   20.0584 C   0  0  2  0  0  0  0  0  0  0  0  0
  -20.8750  -16.5228   24.6370 C   0  0  0  0  0  0  0  0  0  0  0  0
  -26.2277  -28.1202   21.1992 N   0  0  0  0  0  0  0  0  0  0  0  0
  -18.9804  -27.9267   22.6291 N   0  0  0  0  0  0  0  0  0  0  0  0
  -25.3304  -29.0211   20.7640 N   0  0  0  0  0  0  0  0  0  0  0  0
  -23.1818  -17.7705   22.1902 N   0  0  0  0  0  0  0  0  0  0  0  0
  -23.5222  -29.8519   24.0272 N   0  0  0  0  0  0  0  0  0  0  0  0
  -24.3848  -29.9481   18.8001 N   0  0  0  0  0  0  0  0  0  0  0  0
  -25.6310  -26.9099   16.9002 N   0  0  0  0  0  0  0  0  0  0  0  0
  -24.9463  -15.0739   20.6590 N   0  0  0  0  0  0  0  0  0  0  0  0
  -21.9389  -18.7534   25.1815 N   0  0  0  0  0  0  0  0  0  0  0  0
  -21.7134  -28.3352   24.1744 N   0  0  0  0  0  0  0  0  0  0  0  0
  -20.0708  -23.6714   17.7140 N   0  3  2  0  0  0  0  0  0  0  0  0
  -22.1969  -22.2876   25.8960 N   0  3  0  0  0  0  0  0  0  0  0  0
  -27.2725  -28.5111   16.8808 O   0  0  0  0  0  0  0  0  0  0  0  0
  -22.8094  -15.9344   20.3189 O   0  0  0  0  0  0  0  0  0  0  0  0
  -23.8351  -16.8318   24.2220 O   0  0  0  0  0  0  0  0  0  0  0  0
  -20.8618  -20.5298   24.1512 O   0  0  0  0  0  0  0  0  0  0  0  0
  -21.6981  -30.2760   25.3950 O   0  0  0  0  0  0  0  0  0  0  0  0
  -30.6512  -23.6388   20.2493 O   0  0  0  0  0  0  0  0  0  0  0  0
  -21.1966  -21.0730   17.3730 O   0  0  0  0  0  0  0  0  0  1  0  0
  -29.0827  -18.5385   21.6389 F   0  0  0  0  0  0  0  0  0  0  0  0
  -29.4744  -23.1349   22.6996 F   0  0  0  0  0  0  0  0  0  0  0  0
  1  2  1  0  0  0  0
  1  6  2  0  0  0  0
  2  7  2  0  0  0  0
  3 14  1  0  0  0  0
  3 17  2  0  0  0  0
  4  9  2  0  0  0  0
  4 18  1  0  0  0  0
  5 10  1  0  0  0  0
  5 18  2  0  0  0  0
  6 20  1  0  0  0  0
  7 22  1  0  0  0  0
  8 11  2  0  0  0  0
  8 21  1  0  0  0  0
  9 24  1  0  0  0  0
 10 24  2  0  0  0  0
 11 25  1  0  0  0  0
 12 13  2  0  0  0  0
 12 26  1  0  0  0  0
 13 27  1  0  0  0  0
 14 30  2  0  0  0  0
 15 23  1  0  0  0  0
 15 25  2  0  0  0  0
 16 27  2  0  0  0  0
 16 28  1  0  0  0  0
 17 69  1  0  0  0  0
 18 29  1  0  0  0  0
 19 29  1  0  0  0  0
 19 31  2  0  0  0  0
 19 32  1  0  0  0  0
 20 22  2  0  0  0  0
 20 37  1  0  0  0  0
 21 23  2  0  0  0  0
 21 38  1  0  0  0  0
 22 49  1  0  0  0  0
 23 39  1  0  0  0  0
 24 85  1  0  0  0  0
 25 86  1  0  0  0  0
 26 28  2  0  0  0  0
 26 85  1  0  0  0  0
 27 87  1  0  0  0  0
 28 88  1  0  0  0  0
 29 68  2  0  0  0  0
 30 59  1  0  0  0  0
 30 69  1  0  0  0  0
 31 70  1  0  0  0  0
 31 73  1  0  0  0  0
 32 74  1  0  0  0  0
 32 80  2  0  0  0  0
 33 50  1  0  0  0  0
 33 75  1  0  0  0  0
 33 81  2  0  0  0  0
 34 64  1  0  0  0  0
 34 71  1  0  0  0  0
 34 82  2  0  0  0  0
 35 65  1  0  0  0  0
 35 76  1  0  0  0  0
 35 83  2  0  0  0  0
 36 72  1  0  0  0  0
 36 77  1  0  0  0  0
 36 84  2  0  0  0  0
 37 40  1  0  0  0  0
 38 50  1  0  0  0  0
 39 71  1  0  0  0  0
 40 42  1  0  0  0  0
 41 43  1  0  0  0  0
 41 45  1  0  0  0  0
 42 49  1  0  0  0  0
 43 52  1  0  0  0  0
 44 47  1  0  0  0  0
 44 51  1  0  0  0  0
 45 72  1  0  0  0  0
 46 52  1  0  0  0  0
 46 72  1  0  0  0  0
 47 78  1  0  0  0  0
 48 51  1  0  0  0  0
 48 78  1  0  0  0  0
 49 75  1  0  0  0  0
 50 71  1  0  0  0  0
 51 66  1  0  0  0  0
 52 70  1  0  0  0  0
 53 65  1  0  0  0  0
 54 66  1  0  0  0  0
 55 67  1  0  0  0  0
 56 67  1  0  0  0  0
 57 67  1  0  0  0  0
 58 79  1  0  0  0  0
 59 77  1  0  0  0  0
 60 61  1  0  0  0  0
 60 66  1  0  0  0  0
 61 69  1  0  0  0  0
 62 63  1  0  0  0  0
 62 78  1  0  0  0  0
 63 86  1  0  0  0  0
 64 67  1  0  0  0  0
 64 76  1  0  0  0  0
 65 79  1  0  0  0  0
 68 70  1  0  0  0  0
M  CHG  2  78   1  79   1
M  ISO  4  36 100  63 101  77 100  86 101
M  END
> <Batch ID>
0115

> <Smiles>
CNC(C)C(=O)NC(C(=O)N1Cc2cc([101O:1][101CH2:1]CN3CCC(C(C)CCn4cccc4C[100NH:0][100C:0](=O)N4CCCC(n5nc(-c6ccc(Oc7ccc(F)cc7F)cc6)c(C(N)=O)c5N)C4)C3)ccc2CC1C(=O)NC1CCCc2ccccc21)C(C)(C)C

> <Shape>
0.216

> <Color>
0.061

> <Negative vol penalty>
0.000

$$$$

  -OEChem-04052320103D

 85 93  0     1  0  0  0  0  0999 V2000
  -18.3377  -31.3532   25.6091 C   0  0  0  0  0  0  0  0  0  0  0  0
  -19.6069  -30.8744   25.9178 C   0  0  0  0  0  0  0  0  0  0  0  0
  -24.2407  -14.2710   20.7514 C   0  0  0  0  0  0  0  0  0  0  0  0
  -26.4769  -14.1151   21.6526 C   0  0  0  0  0  0  0  0  0  0  0  0
  -17.6546  -30.8509   24.5023 C   0  0  0  0  0  0  0  0  0  0  0  0
  -20.1932  -29.8921   25.1205 C   0  0  0  0  0  0  0  0  0  0  0  0
  -26.1405  -29.3011   23.7840 C   0  0  0  0  0  0  0  0  0  0  0  0
  -24.2594  -12.9052   20.4686 C   0  0  0  0  0  0  0  0  0  0  0  0
  -26.4956  -12.7493   21.3699 C   0  0  0  0  0  0  0  0  0  0  0  0
  -27.1457  -28.4944   24.3156 C   0  0  0  0  0  0  0  0  0  0  0  0
  -23.8593  -10.0054   22.1609 C   0  0  0  0  0  0  0  0  0  0  0  0
  -22.7302   -9.2584   22.4963 C   0  0  0  0  0  0  0  0  0  0  0  0
  -26.7770  -26.8859   22.5560 C   0  0  0  0  0  0  0  0  0  0  0  0
  -32.1170  -26.4434   21.3970 C   0  0  0  0  0  0  0  0  0  0  0  0
  -22.4497   -8.6409   20.1775 C   0  0  0  0  0  0  0  0  0  0  0  0
  -25.3495  -14.8759   21.3434 C   0  0  0  0  0  0  0  0  0  0  0  0
  -24.8953  -16.9035   22.8233 C   0  0  0  0  0  0  0  0  0  0  0  0
  -18.2368  -29.8690   23.6854 C   0  0  0  0  0  0  0  0  0  0  0  0
  -25.4374  -28.9004   22.6388 C   0  0  0  0  0  0  0  0  0  0  0  0
  -19.5167  -29.3753   24.0025 C   0  0  0  0  0  0  0  0  0  0  0  0
  -25.7651  -27.6905   22.0104 C   0  0  0  0  0  0  0  0  0  0  0  0
  -31.6017  -25.1242   21.4322 C   0  0  0  0  0  0  0  0  0  0  0  0
  -25.3868  -12.1444   20.7779 C   0  0  0  0  0  0  0  0  0  0  0  0
  -27.4621  -27.2852   23.7033 C   0  0  0  0  0  0  0  0  0  0  0  0
  -24.2837  -10.0702   20.8337 C   0  0  0  0  0  0  0  0  0  0  0  0
  -22.0253   -8.5761   21.5047 C   0  0  0  0  0  0  0  0  0  0  0  0
  -23.5789   -9.3879   19.8420 C   0  0  0  0  0  0  0  0  0  0  0  0
  -25.3309  -16.2868   21.6352 C   0  0  0  0  0  0  0  0  0  0  0  0
  -31.8717  -27.0138   22.6265 C   0  0  0  0  0  0  0  0  0  0  0  0
  -31.0569  -24.9287   22.6822 C   0  0  0  0  0  0  0  0  0  0  0  0
  -25.0795  -18.2462   22.6008 C   0  0  0  0  0  0  0  0  0  0  0  0
  -24.3711  -16.3152   24.0212 C   0  0  0  0  0  0  0  0  0  0  0  0
  -22.3981  -28.2305   21.9925 C   0  0  0  0  0  0  0  0  0  0  0  0
  -30.3134  -23.9566   19.5960 C   0  0  0  0  0  0  0  0  0  0  0  0
  -23.4977  -28.0209   18.9480 C   0  0  0  0  0  0  0  0  0  0  0  0
  -26.1371  -27.4885   16.8511 C   0  0  0  0  0  0  0  0  0  0  0  0
  -28.8006  -21.1746   19.0746 C   0  0  0  0  0  0  0  0  0  0  0  0
  -17.4404  -29.3226   22.5270 C   0  0  0  0  0  0  0  0  0  0  0  0
  -24.3741  -29.7946   22.0623 C   0  0  0  0  0  0  0  0  0  0  0  0
  -25.0539  -27.2245   20.7672 C   0  0  0  0  0  0  0  0  0  0  0  0
  -18.2858  -28.5521   21.5161 C   0  0  0  0  0  0  0  0  0  0  0  0
  -25.1941  -21.4758   19.0703 C   0  0  0  0  0  0  0  0  0  0  0  0
  -19.2196  -27.5808   22.2312 C   0  0  0  0  0  0  0  0  0  0  0  0
  -24.7834  -20.2245   19.8487 C   0  0  0  0  0  0  0  0  0  0  0  0
  -26.3966  -21.1988   18.1729 C   0  0  0  0  0  0  0  0  0  0  0  0
  -27.1759  -19.3985   19.6647 C   0  0  0  0  0  0  0  0  0  0  0  0
  -20.1964  -28.3279   23.1473 C   0  0  1  0  0  0  0  0  0  0  0  0
  -23.3721  -29.0454   21.1894 C   0  0  1  0  0  0  0  0  0  0  0  0
  -25.9792  -19.6192   20.6077 C   0  0  2  0  0  0  0  0  0  0  0  0
  -32.1993  -28.3653   23.1252 C   0  0  0  0  0  0  0  0  0  0  0  0
  -30.3890  -23.7404   23.2550 C   0  0  0  0  0  0  0  0  0  0  0  0
  -30.5743  -23.7929   17.1155 C   0  0  0  0  0  0  0  0  0  0  0  0
  -26.7188  -27.3422   14.4144 C   0  0  0  0  0  0  0  0  0  0  0  0
  -22.2345  -25.2466   18.8155 C   0  0  0  0  0  0  0  0  0  0  0  0
  -23.6254  -24.7865   16.7853 C   0  0  0  0  0  0  0  0  0  0  0  0
  -21.9411  -26.6262   16.7503 C   0  0  0  0  0  0  0  0  0  0  0  0
  -28.0182  -29.7651   17.0444 C   0  0  0  0  0  0  0  0  0  0  0  0
  -31.6452  -24.1450   20.3280 C   0  0  0  0  0  0  0  0  0  0  0  0
  -30.7728  -26.3001   24.8228 C   0  0  0  0  0  0  0  0  0  0  0  0
  -29.5094  -27.1498   24.9059 C   0  0  0  0  0  0  0  0  0  1  0  0
  -30.3144  -23.0198   18.3959 C   0  0  2  0  0  0  0  0  0  0  0  0
  -24.0655  -26.9161   18.0900 C   0  0  1  0  0  0  0  0  0  0  0  0
  -26.6238  -28.2495   15.6311 C   0  0  2  0  0  0  0  0  0  0  0  0
  -22.9789  -25.9014   17.6348 C   0  0  0  0  0  0  0  0  0  0  0  0
  -25.7595  -17.1656   20.7252 N   0  0  0  0  0  0  0  0  0  0  0  0
  -31.2265  -26.0840   23.3995 N   0  0  0  0  0  0  0  0  0  0  0  0
  -25.5939  -18.3483   21.3417 N   0  0  0  0  0  0  0  0  0  0  0  0
  -24.0176  -28.1309   20.2455 N   0  0  0  0  0  0  0  0  0  0  0  0
  -27.5059  -20.6416   18.9597 N   0  0  0  0  0  0  0  0  0  0  0  0
  -24.8500  -19.3378   23.3611 N   0  0  0  0  0  0  0  0  0  0  0  0
  -24.2485  -14.9203   24.0821 N   0  0  0  0  0  0  0  0  0  0  0  0
  -21.2634  -28.9222   22.3710 N   0  0  0  0  0  0  0  0  0  0  0  0
  -24.7681  -27.5718   16.9924 N   0  0  0  0  0  0  0  0  0  0  0  0
  -29.0333  -22.3497   18.3705 N   0  0  0  0  0  0  0  0  0  0  0  0
  -27.9706  -28.8335   15.8881 N   0  3  0  0  0  0  0  0  0  0  0  0
  -24.0064  -17.0070   25.0019 O   0  0  0  0  0  0  0  0  0  0  0  0
  -22.6563  -27.0602   22.2486 O   0  0  0  0  0  0  0  0  0  0  0  0
  -29.2988  -24.5624   19.9426 O   0  0  0  0  0  0  0  0  0  0  0  0
  -22.6302  -28.7636   18.4817 O   0  0  0  0  0  0  0  0  0  0  0  0
  -26.8952  -26.8779   17.6014 O   0  0  0  0  0  0  0  0  0  0  0  0
  -29.6830  -20.6453   19.7589 O   0  0  0  0  0  0  0  0  0  0  0  0
  -25.4054  -10.8116   20.5023 O   0  0  0  0  0  0  0  0  0  0  0  0
  -28.4424  -26.4956   24.2205 O   0  0  0  0  0  0  0  0  0  1  0  0
  -20.9419   -7.8576   21.8272 F   0  0  0  0  0  0  0  0  0  0  0  0
  -23.9824   -9.4455   18.5654 F   0  0  0  0  0  0  0  0  0  0  0  0
  1  2  1  0  0  0  0
  1  5  2  0  0  0  0
  2  6  2  0  0  0  0
  3  8  2  0  0  0  0
  3 16  1  0  0  0  0
  4  9  1  0  0  0  0
  4 16  2  0  0  0  0
  5 18  1  0  0  0  0
  6 20  1  0  0  0  0
  7 10  2  0  0  0  0
  7 19  1  0  0  0  0
  8 23  1  0  0  0  0
  9 23  2  0  0  0  0
 10 24  1  0  0  0  0
 11 12  2  0  0  0  0
 11 25  1  0  0  0  0
 12 26  1  0  0  0  0
 13 21  1  0  0  0  0
 13 24  2  0  0  0  0
 14 22  1  0  0  0  0
 14 29  2  0  0  0  0
 15 26  2  0  0  0  0
 15 27  1  0  0  0  0
 16 28  1  0  0  0  0
 17 28  1  0  0  0  0
 17 31  2  0  0  0  0
 17 32  1  0  0  0  0
 18 20  2  0  0  0  0
 18 38  1  0  0  0  0
 19 21  2  0  0  0  0
 19 39  1  0  0  0  0
 20 47  1  0  0  0  0
 21 40  1  0  0  0  0
 22 30  2  0  0  0  0
 22 58  1  0  0  0  0
 23 82  1  0  0  0  0
 24 83  1  0  0  0  0
 25 27  2  0  0  0  0
 25 82  1  0  0  0  0
 26 84  1  0  0  0  0
 27 85  1  0  0  0  0
 28 65  2  0  0  0  0
 29 50  1  0  0  0  0
 29 66  1  0  0  0  0
 30 51  1  0  0  0  0
 30 66  1  0  0  0  0
 31 67  1  0  0  0  0
 31 70  1  0  0  0  0
 32 71  1  0  0  0  0
 32 76  2  0  0  0  0
 33 48  1  0  0  0  0
 33 72  1  0  0  0  0
 33 77  2  0  0  0  0
 34 58  1  0  0  0  0
 34 61  1  0  0  0  0
 34 78  2  0  0  0  0
 35 62  1  0  0  0  0
 35 68  1  0  0  0  0
 35 79  2  0  0  0  0
 36 63  1  0  0  0  0
 36 73  1  0  0  0  0
 36 80  2  0  0  0  0
 37 69  1  0  0  0  0
 37 74  1  0  0  0  0
 37 81  2  0  0  0  0
 38 41  1  0  0  0  0
 39 48  1  0  0  0  0
 40 68  1  0  0  0  0
 41 43  1  0  0  0  0
 42 44  1  0  0  0  0
 42 45  1  0  0  0  0
 43 47  1  0  0  0  0
 44 49  1  0  0  0  0
 45 69  1  0  0  0  0
 46 49  1  0  0  0  0
 46 69  1  0  0  0  0
 47 72  1  0  0  0  0
 48 68  1  0  0  0  0
 49 67  1  0  0  0  0
 52 61  1  0  0  0  0
 53 63  1  0  0  0  0
 54 64  1  0  0  0  0
 55 64  1  0  0  0  0
 56 64  1  0  0  0  0
 57 75  1  0  0  0  0
 59 60  1  0  0  0  0
 59 66  1  0  0  0  0
 60 83  1  0  0  0  0
 61 74  1  0  0  0  0
 62 64  1  0  0  0  0
 62 73  1  0  0  0  0
 63 75  1  0  0  0  0
 65 67  1  0  0  0  0
M  CHG  1  75   1
M  ISO  4  37 100  60 101  74 100  83 101
M  END
> <Batch ID>
0115

> <Smiles>
C=C([100NH:0][100C:0](=O)N1CCCC(n2nc(-c3ccc(Oc4ccc(F)cc4F)cc3)c(C(N)=O)c2N)C1)C(O)Cc1cc(C)n(C[101CH2:1][101O:1]c2ccc3c(c2)CN(C(=O)C(NC(=O)C(C)NC)C(C)(C)C)C(C(=O)NC2CCCc4ccccc42)C3)c1C

> <Shape>
0.205

> <Color>
0.077

> <Negative vol penalty>
0.000

$$$$

  -OEChem-04052320103D

 81 89  0     1  0  0  0  0  0999 V2000
  -32.1694  -31.1147   15.3472 C   0  0  0  0  0  0  0  0  0  0  0  0
  -31.7594  -29.7855   15.3279 C   0  0  0  0  0  0  0  0  0  0  0  0
  -22.9391  -10.0251   19.9249 C   0  0  0  0  0  0  0  0  0  0  0  0
  -23.7975   -9.8064   22.1726 C   0  0  0  0  0  0  0  0  0  0  0  0
  -31.8517  -31.9252   16.4363 C   0  0  0  0  0  0  0  0  0  0  0  0
  -31.0323  -29.2656   16.3982 C   0  0  0  0  0  0  0  0  0  0  0  0
  -26.5894  -25.0590   16.1332 C   0  0  0  0  0  0  0  0  0  0  0  0
  -22.1536   -8.8881   20.1143 C   0  0  0  0  0  0  0  0  0  0  0  0
  -23.0120   -8.6694   22.3620 C   0  0  0  0  0  0  0  0  0  0  0  0
  -26.5860  -23.6829   16.3575 C   0  0  0  0  0  0  0  0  0  0  0  0
  -23.1224   -5.3967   21.5208 C   0  0  0  0  0  0  0  0  0  0  0  0
  -23.7199   -4.2890   22.1223 C   0  0  0  0  0  0  0  0  0  0  0  0
  -25.8441  -24.0601   18.6217 C   0  0  0  0  0  0  0  0  0  0  0  0
  -22.1043   -4.3916   23.9158 C   0  0  0  0  0  0  0  0  0  0  0  0
  -23.7611  -10.4842   20.9541 C   0  0  0  0  0  0  0  0  0  0  0  0
  -24.2153  -12.9934   21.0257 C   0  0  0  0  0  0  0  0  0  0  0  0
  -31.1121  -31.4177   17.5161 C   0  0  0  0  0  0  0  0  0  0  0  0
  -26.2301  -25.9479   17.1565 C   0  0  0  0  0  0  0  0  0  0  0  0
  -30.7056  -30.0698   17.5033 C   0  0  0  0  0  0  0  0  0  0  0  0
  -25.8414  -25.4468   18.4070 C   0  0  0  0  0  0  0  0  0  0  0  0
  -22.1900   -8.2103   21.3328 C   0  0  0  0  0  0  0  0  0  0  0  0
  -26.2161  -23.1834   17.6028 C   0  0  0  0  0  0  0  0  0  0  0  0
  -22.0160   -6.0018   22.1168 C   0  0  0  0  0  0  0  0  0  0  0  0
  -23.2108   -3.7865   23.3198 C   0  0  0  0  0  0  0  0  0  0  0  0
  -21.5069   -5.4993   23.3143 C   0  0  0  0  0  0  0  0  0  0  0  0
  -24.5732  -11.6583   20.7589 C   0  0  0  0  0  0  0  0  0  0  0  0
  -25.3245  -13.7231   20.6739 C   0  0  0  0  0  0  0  0  0  0  0  0
  -22.9898  -13.5264   21.5451 C   0  0  0  0  0  0  0  0  0  0  0  0
  -27.7155  -28.2775   18.7282 C   0  0  0  0  0  0  0  0  0  0  0  0
  -24.7788  -28.7462   20.0237 C   0  0  0  0  0  0  0  0  0  0  0  0
  -21.7215  -27.4529   20.8153 C   0  0  0  0  0  0  0  0  0  0  0  0
  -30.8530  -14.4855   20.6859 C   0  0  0  0  0  0  0  0  0  0  0  0
  -30.8333  -32.3192   18.6926 C   0  0  0  0  0  0  0  0  0  0  0  0
  -26.2133  -27.4282   16.8903 C   0  0  0  0  0  0  0  0  0  0  0  0
  -25.4275  -26.3580   19.5326 C   0  0  0  0  0  0  0  0  0  0  0  0
  -29.7374  -31.7939   19.6163 C   0  0  0  0  0  0  0  0  0  0  0  0
  -29.5021  -12.3615   18.1679 C   0  0  0  0  0  0  0  0  0  0  0  0
  -29.9562  -30.3144   19.9167 C   0  0  0  0  0  0  0  0  0  0  0  0
  -28.4579  -20.0474   18.3183 C   0  0  0  0  0  0  0  0  0  0  0  0
  -28.0727  -12.0946   18.6427 C   0  0  0  0  0  0  0  0  0  0  0  0
  -29.3572  -19.0642   19.0577 C   0  0  0  0  0  0  0  0  0  0  0  0
  -27.4752  -19.4724   20.5005 C   0  0  0  0  0  0  0  0  0  0  0  0
  -30.4800  -12.4408   19.3382 C   0  0  0  0  0  0  0  0  0  0  0  0
  -28.6767  -13.1339   20.8684 C   0  0  0  0  0  0  0  0  0  0  0  0
  -29.8939  -29.4761   18.6342 C   0  0  1  0  0  0  0  0  0  0  0  0
  -26.3242  -28.2651   18.1610 C   0  0  1  0  0  0  0  0  0  0  0  0
  -27.1385  -20.0306   19.1031 C   0  0  1  0  0  0  0  0  0  0  0  0
  -27.6451  -13.1011   19.7278 C   0  0  2  0  0  0  0  0  0  0  0  0
  -28.9975  -19.3040   20.5214 C   0  0  2  0  0  0  0  0  0  0  0  0
  -29.7120  -20.5153   21.1236 C   0  0  0  0  0  0  0  0  0  0  0  0
  -19.5446  -28.0664   21.9027 C   0  0  0  0  0  0  0  0  0  0  0  0
  -26.0943  -28.5380   22.7689 C   0  0  0  0  0  0  0  0  0  0  0  0
  -23.8183  -28.2034   23.7570 C   0  0  0  0  0  0  0  0  0  0  0  0
  -24.3625  -30.3318   22.5753 C   0  0  0  0  0  0  0  0  0  0  0  0
  -20.2009  -26.9372   18.3292 C   0  0  0  0  0  0  0  0  0  0  0  0
  -26.4795  -21.4018   19.1560 C   0  0  0  0  0  0  0  0  0  1  0  0
  -31.0733  -16.5196   22.0906 C   0  0  0  0  0  0  0  0  0  0  0  0
  -30.8037  -17.7502   21.2449 C   0  0  0  0  0  0  0  0  0  0  0  0
  -24.0457  -28.2140   21.2313 C   0  0  1  0  0  0  0  0  0  0  0  0
  -20.3160  -27.9824   20.5948 C   0  0  2  0  0  0  0  0  0  0  0  0
  -24.5898  -28.8044   22.5627 C   0  0  0  0  0  0  0  0  0  0  0  0
  -25.8128  -11.5436   20.2748 N   0  0  0  0  0  0  0  0  0  0  0  0
  -26.2435  -12.8160   20.2346 N   0  0  0  0  0  0  0  0  0  0  0  0
  -25.4334  -27.7978   19.2251 N   0  0  0  0  0  0  0  0  0  0  0  0
  -30.0173  -13.4139   20.3306 N   0  0  0  0  0  0  0  0  0  0  0  0
  -25.5937  -15.0457   20.7006 N   0  0  0  0  0  0  0  0  0  0  0  0
  -21.9521  -12.6365   21.8541 N   0  0  0  0  0  0  0  0  0  0  0  0
  -28.5198  -29.2815   18.2237 N   0  0  0  0  0  0  0  0  0  0  0  0
  -22.6296  -28.4745   20.9967 N   0  0  0  0  0  0  0  0  0  0  0  0
  -30.3352  -15.3652   21.6287 N   0  0  0  0  0  0  0  0  0  0  0  0
  -29.3686  -18.1150   21.3329 N   0  3  0  0  0  0  0  0  0  0  0  0
  -19.5670  -27.0918   19.6638 N   0  3  0  0  0  0  0  0  0  0  0  0
  -22.8142  -14.7569   21.7143 O   0  0  0  0  0  0  0  0  0  0  0  0
  -28.0352  -27.4392   19.5629 O   0  0  0  0  0  0  0  0  0  0  0  0
  -24.7650  -29.9580   19.7934 O   0  0  0  0  0  0  0  0  0  0  0  0
  -21.9866  -26.2529   20.8293 O   0  0  0  0  0  0  0  0  0  0  0  0
  -31.9751  -14.6495   20.1950 O   0  0  0  0  0  0  0  0  0  0  0  0
  -21.4235   -7.1009   21.5180 O   0  0  0  0  0  0  0  0  0  0  0  0
  -26.2124  -21.8408   17.8247 O   0  0  0  0  0  0  0  0  0  1  0  0
  -23.7837   -2.7219   23.8965 F   0  0  0  0  0  0  0  0  0  0  0  0
  -20.4434   -6.0757   23.8910 F   0  0  0  0  0  0  0  0  0  0  0  0
  1  2  1  0  0  0  0
  1  5  2  0  0  0  0
  2  6  2  0  0  0  0
  3  8  2  0  0  0  0
  3 15  1  0  0  0  0
  4  9  1  0  0  0  0
  4 15  2  0  0  0  0
  5 17  1  0  0  0  0
  6 19  1  0  0  0  0
  7 10  2  0  0  0  0
  7 18  1  0  0  0  0
  8 21  1  0  0  0  0
  9 21  2  0  0  0  0
 10 22  1  0  0  0  0
 11 12  2  0  0  0  0
 11 23  1  0  0  0  0
 12 24  1  0  0  0  0
 13 20  1  0  0  0  0
 13 22  2  0  0  0  0
 14 24  2  0  0  0  0
 14 25  1  0  0  0  0
 15 26  1  0  0  0  0
 16 26  1  0  0  0  0
 16 27  2  0  0  0  0
 16 28  1  0  0  0  0
 17 19  2  0  0  0  0
 17 33  1  0  0  0  0
 18 20  2  0  0  0  0
 18 34  1  0  0  0  0
 19 45  1  0  0  0  0
 20 35  1  0  0  0  0
 21 78  1  0  0  0  0
 22 79  1  0  0  0  0
 23 25  2  0  0  0  0
 23 78  1  0  0  0  0
 24 80  1  0  0  0  0
 25 81  1  0  0  0  0
 26 62  2  0  0  0  0
 27 63  1  0  0  0  0
 27 66  1  0  0  0  0
 28 67  1  0  0  0  0
 28 73  2  0  0  0  0
 29 46  1  0  0  0  0
 29 68  1  0  0  0  0
 29 74  2  0  0  0  0
 30 59  1  0  0  0  0
 30 64  1  0  0  0  0
 30 75  2  0  0  0  0
 31 60  1  0  0  0  0
 31 69  1  0  0  0  0
 31 76  2  0  0  0  0
 32 65  1  0  0  0  0
 32 70  1  0  0  0  0
 32 77  2  0  0  0  0
 33 36  1  0  0  0  0
 34 46  1  0  0  0  0
 35 64  1  0  0  0  0
 36 38  1  0  0  0  0
 37 40  1  0  0  0  0
 37 43  1  0  0  0  0
 38 45  1  0  0  0  0
 39 41  1  0  0  0  0
 39 47  1  0  0  0  0
 40 48  1  0  0  0  0
 41 49  1  0  0  0  0
 42 47  1  0  0  0  0
 42 49  1  0  0  0  0
 43 65  1  0  0  0  0
 44 48  1  0  0  0  0
 44 65  1  0  0  0  0
 45 68  1  0  0  0  0
 46 64  1  0  0  0  0
 47 56  1  0  0  0  0
 48 63  1  0  0  0  0
 49 50  1  0  0  0  0
 49 71  1  0  0  0  0
 51 60  1  0  0  0  0
 52 61  1  0  0  0  0
 53 61  1  0  0  0  0
 54 61  1  0  0  0  0
 55 72  1  0  0  0  0
 56 79  1  0  0  0  0
 57 58  1  0  0  0  0
 57 70  1  0  0  0  0
 58 71  1  0  0  0  0
 59 61  1  0  0  0  0
 59 69  1  0  0  0  0
 60 72  1  0  0  0  0
 62 63  1  0  0  0  0
M  CHG  2  71   1  72   1
M  ISO  4  32 100  56 101  70 100  79 101
M  END
> <Batch ID>
0115

> <Smiles>
CNC(C)C(=O)NC(C(=O)N1Cc2cc([101O:1][101CH2:1]C3CCC(C)(NCC[100NH:0][100C:0](=O)N4CCCC(n5nc(-c6ccc(Oc7ccc(F)cc7F)cc6)c(C(N)=O)c5N)C4)C3)ccc2CC1C(=O)NC1CCCc2ccccc21)C(C)(C)C

> <Shape>
0.301

> <Color>
0.197

> <Negative vol penalty>
0.000

$$$$

  -OEChem-04052320103D

 85 93  0     1  0  0  0  0  0999 V2000
  -27.0170  -17.9494   17.0362 C   0  0  0  0  0  0  0  0  0  0  0  0
  -26.1284  -18.9671   17.3681 C   0  0  0  0  0  0  0  0  0  0  0  0
  -25.7039  -16.4423   19.9844 C   0  0  0  0  0  0  0  0  0  0  0  0
  -25.7783  -16.5599   22.3964 C   0  0  0  0  0  0  0  0  0  0  0  0
  -28.2706  -17.8945   17.6439 C   0  0  0  0  0  0  0  0  0  0  0  0
  -26.4926  -19.9298   18.3088 C   0  0  0  0  0  0  0  0  0  0  0  0
  -24.9259  -25.8502   18.3132 C   0  0  0  0  0  0  0  0  0  0  0  0
  -26.9468  -15.8094   19.9769 C   0  0  0  0  0  0  0  0  0  0  0  0
  -27.0212  -15.9269   22.3889 C   0  0  0  0  0  0  0  0  0  0  0  0
  -23.9343  -26.5576   18.9915 C   0  0  0  0  0  0  0  0  0  0  0  0
  -29.9351  -13.8386   19.3435 C   0  0  0  0  0  0  0  0  0  0  0  0
  -30.0912  -12.7258   18.5171 C   0  0  0  0  0  0  0  0  0  0  0  0
  -17.6087  -28.2323   22.3934 C   0  0  0  0  0  0  0  0  0  0  0  0
  -25.5380  -27.1681   20.6870 C   0  0  0  0  0  0  0  0  0  0  0  0
  -28.3223  -11.5919   19.7098 C   0  0  0  0  0  0  0  0  0  0  0  0
  -17.2935  -26.8969   22.2460 C   0  0  0  0  0  0  0  0  0  0  0  0
  -25.1196  -16.8176   21.1941 C   0  0  0  0  0  0  0  0  0  0  0  0
  -22.5701  -16.8597   21.2716 C   0  0  0  0  0  0  0  0  0  0  0  0
  -28.6540  -18.8626   18.5853 C   0  0  0  0  0  0  0  0  0  0  0  0
  -26.2307  -25.7873   18.8232 C   0  0  0  0  0  0  0  0  0  0  0  0
  -27.7520  -19.8870   18.9306 C   0  0  0  0  0  0  0  0  0  0  0  0
  -26.5450  -26.4614   20.0119 C   0  0  0  0  0  0  0  0  0  0  0  0
  -27.6055  -15.5517   21.1791 C   0  0  0  0  0  0  0  0  0  0  0  0
  -24.2396  -27.2143   20.1801 C   0  0  0  0  0  0  0  0  0  0  0  0
  -28.9726  -13.8280   20.3531 C   0  0  0  0  0  0  0  0  0  0  0  0
  -29.2849  -11.6025   18.7003 C   0  0  0  0  0  0  0  0  0  0  0  0
  -28.1662  -12.7047   20.5362 C   0  0  0  0  0  0  0  0  0  0  0  0
  -23.8359  -17.4719   21.2025 C   0  0  0  0  0  0  0  0  0  0  0  0
  -18.7400  -28.5002   23.1367 C   0  0  0  0  0  0  0  0  0  0  0  0
  -21.6808  -17.9062   21.2488 C   0  0  0  0  0  0  0  0  0  0  0  0
  -19.0998  -26.2823   23.4816 C   0  0  0  0  0  0  0  0  0  0  0  0
  -22.2287  -15.4694   21.3494 C   0  0  0  0  0  0  0  0  0  0  0  0
  -28.1349  -23.4501   19.8308 C   0  0  0  0  0  0  0  0  0  0  0  0
  -30.3190  -25.8407   20.0235 C   0  0  0  0  0  0  0  0  0  0  0  0
  -30.9367  -29.1818   20.3434 C   0  0  0  0  0  0  0  0  0  0  0  0
  -21.1521  -23.2011   23.2727 C   0  0  0  0  0  0  0  0  0  0  0  0
  -30.0016  -18.7346   19.2505 C   0  0  0  0  0  0  0  0  0  0  0  0
  -27.2953  -25.0423   18.0656 C   0  0  0  0  0  0  0  0  0  0  0  0
  -27.9352  -26.4416   20.5910 C   0  0  0  0  0  0  0  0  0  0  0  0
  -30.4538  -20.0081   19.9605 C   0  0  0  0  0  0  0  0  0  0  0  0
  -21.8853  -22.6225   19.7763 C   0  0  0  0  0  0  0  0  0  0  0  0
  -29.3191  -20.5808   20.8038 C   0  0  0  0  0  0  0  0  0  0  0  0
  -22.3426  -21.1628   19.7989 C   0  0  0  0  0  0  0  0  0  0  0  0
  -22.3651  -23.3714   21.0161 C   0  0  0  0  0  0  0  0  0  0  0  0
  -22.4171  -21.2885   22.3324 C   0  0  0  0  0  0  0  0  0  0  0  0
  -28.1200  -20.9640   19.9281 C   0  0  1  0  0  0  0  0  0  0  0  0
  -28.4674  -24.6171   18.9446 C   0  0  1  0  0  0  0  0  0  0  0  0
  -21.9445  -20.4713   21.1163 C   0  0  2  0  0  0  0  0  0  0  0  0
  -32.8222  -30.8296   20.5077 C   0  0  0  0  0  0  0  0  0  0  0  0
  -23.3864  -28.9633   23.5647 C   0  0  0  0  0  0  0  0  0  0  0  0
  -22.9720  -30.0645   19.8286 C   0  0  0  0  0  0  0  0  0  0  0  0
  -30.7959  -25.0026   22.9183 C   0  0  0  0  0  0  0  0  0  0  0  0
  -31.9282  -27.2035   23.2958 C   0  0  0  0  0  0  0  0  0  0  0  0
  -32.8685  -25.5858   21.6461 C   0  0  0  0  0  0  0  0  0  0  0  0
  -30.0861  -30.5773   17.8760 C   0  0  0  0  0  0  0  0  0  0  0  0
  -19.1631  -29.9244   23.3528 C   0  0  0  0  0  0  0  0  0  0  0  0
  -19.9273  -25.1997   24.0868 C   0  0  0  0  0  0  0  0  0  0  0  0
  -20.6696  -30.1028   23.5119 C   0  0  0  0  0  0  0  0  0  0  0  0
  -30.7359  -26.8245   21.0899 C   0  0  1  0  0  0  0  0  0  0  0  0
  -31.8566  -30.1141   19.5758 C   0  0  2  0  0  0  0  0  0  0  0  0
  -22.8619  -29.7497   22.3683 C   0  0  1  0  0  0  0  0  0  0  0  0
  -23.4923  -29.3012   21.0416 C   0  0  1  0  0  0  0  0  0  1  0  0
  -31.5554  -26.1531   22.2279 C   0  0  0  0  0  0  0  0  0  0  0  0
  -18.0196  -25.8921   22.7785 N   0  0  0  0  0  0  0  0  0  0  0  0
  -23.7616  -18.8041   21.1404 N   0  0  0  0  0  0  0  0  0  0  0  0
  -19.5118  -27.5461   23.6976 N   0  0  0  0  0  0  0  0  0  0  0  0
  -22.4385  -19.0375   21.1702 N   0  0  0  0  0  0  0  0  0  0  0  0
  -28.9400  -25.6944   19.8166 N   0  0  0  0  0  0  0  0  0  0  0  0
  -21.9375  -22.6712   22.2355 N   0  0  0  0  0  0  0  0  0  0  0  0
  -20.3325  -17.9598   21.2885 N   0  0  0  0  0  0  0  0  0  0  0  0
  -23.2656  -14.5265   21.3627 N   0  0  0  0  0  0  0  0  0  0  0  0
  -28.3693  -22.2182   19.2505 N   0  0  0  0  0  0  0  0  0  0  0  0
  -31.4408  -27.8997   20.4003 N   0  0  0  0  0  0  0  0  0  0  0  0
  -20.7446  -24.5192   23.1071 N   0  0  0  0  0  0  0  0  0  0  0  0
  -31.0611  -31.1407   18.8450 N   0  3  0  0  0  0  0  0  0  0  0  0
  -21.3820  -29.5705   22.3225 N   0  3  0  0  0  0  0  0  0  0  0  0
  -21.0389  -15.0740   21.3890 O   0  0  0  0  0  0  0  0  0  0  0  0
  -27.6994  -23.6525   20.9583 O   0  0  0  0  0  0  0  0  0  0  0  0
  -31.1851  -25.2301   19.3922 O   0  0  0  0  0  0  0  0  0  0  0  0
  -29.8787  -29.5546   20.8456 O   0  0  0  0  0  0  0  0  0  0  0  0
  -20.8328  -22.5461   24.2708 O   0  0  0  0  0  0  0  0  0  0  0  0
  -28.8183  -14.9339   21.1722 O   0  0  0  0  0  0  0  0  0  0  0  0
  -23.2734  -27.9049   20.8445 O   0  0  0  0  0  0  0  0  0  1  0  0
  -29.4339  -10.5345   17.9056 F   0  0  0  0  0  0  0  0  0  0  0  0
  -27.2391  -12.6892   21.5037 F   0  0  0  0  0  0  0  0  0  0  0  0
  1  2  1  0  0  0  0
  1  5  2  0  0  0  0
  2  6  2  0  0  0  0
  3  8  2  0  0  0  0
  3 17  1  0  0  0  0
  4  9  1  0  0  0  0
  4 17  2  0  0  0  0
  5 19  1  0  0  0  0
  6 21  1  0  0  0  0
  7 10  2  0  0  0  0
  7 20  1  0  0  0  0
  8 23  1  0  0  0  0
  9 23  2  0  0  0  0
 10 24  1  0  0  0  0
 11 12  2  0  0  0  0
 11 25  1  0  0  0  0
 12 26  1  0  0  0  0
 13 16  2  0  0  0  0
 13 29  1  0  0  0  0
 14 22  1  0  0  0  0
 14 24  2  0  0  0  0
 15 26  2  0  0  0  0
 15 27  1  0  0  0  0
 16 64  1  0  0  0  0
 17 28  1  0  0  0  0
 18 28  1  0  0  0  0
 18 30  2  0  0  0  0
 18 32  1  0  0  0  0
 19 21  2  0  0  0  0
 19 37  1  0  0  0  0
 20 22  2  0  0  0  0
 20 38  1  0  0  0  0
 21 46  1  0  0  0  0
 22 39  1  0  0  0  0
 23 82  1  0  0  0  0
 24 83  1  0  0  0  0
 25 27  2  0  0  0  0
 25 82  1  0  0  0  0
 26 84  1  0  0  0  0
 27 85  1  0  0  0  0
 28 65  2  0  0  0  0
 29 56  1  0  0  0  0
 29 66  2  0  0  0  0
 30 67  1  0  0  0  0
 30 70  1  0  0  0  0
 31 57  1  0  0  0  0
 31 64  2  0  0  0  0
 31 66  1  0  0  0  0
 32 71  1  0  0  0  0
 32 77  2  0  0  0  0
 33 47  1  0  0  0  0
 33 72  1  0  0  0  0
 33 78  2  0  0  0  0
 34 59  1  0  0  0  0
 34 68  1  0  0  0  0
 34 79  2  0  0  0  0
 35 60  1  0  0  0  0
 35 73  1  0  0  0  0
 35 80  2  0  0  0  0
 36 69  1  0  0  0  0
 36 74  1  0  0  0  0
 36 81  2  0  0  0  0
 37 40  1  0  0  0  0
 38 47  1  0  0  0  0
 39 68  1  0  0  0  0
 40 42  1  0  0  0  0
 41 43  1  0  0  0  0
 41 44  1  0  0  0  0
 42 46  1  0  0  0  0
 43 48  1  0  0  0  0
 44 69  1  0  0  0  0
 45 48  1  0  0  0  0
 45 69  1  0  0  0  0
 46 72  1  0  0  0  0
 47 68  1  0  0  0  0
 48 67  1  0  0  0  0
 49 60  1  0  0  0  0
 50 61  1  0  0  0  0
 51 62  1  0  0  0  0
 52 63  1  0  0  0  0
 53 63  1  0  0  0  0
 54 63  1  0  0  0  0
 55 75  1  0  0  0  0
 56 58  1  0  0  0  0
 57 74  1  0  0  0  0
 58 76  1  0  0  0  0
 59 63  1  0  0  0  0
 59 73  1  0  0  0  0
 60 75  1  0  0  0  0
 61 62  1  0  0  0  0
 61 76  1  0  0  0  0
 62 83  1  0  0  0  0
 65 67  1  0  0  0  0
M  CHG  2  75   1  76   1
M  ISO  4  36 100  62 101  74 100  83 101
M  END
> <Batch ID>
0115

> <Smiles>
CNC(C)C(=O)NC(C(=O)N1Cc2cc([101O:1][101CH:1](C)C(C)NCCc3ccnc(C[100NH:0][100C:0](=O)N4CCCC(n5nc(-c6ccc(Oc7ccc(F)cc7F)cc6)c(C(N)=O)c5N)C4)n3)ccc2CC1C(=O)NC1CCCc2ccccc21)C(C)(C)C

> <Shape>
0.241

> <Color>
0.058

> <Negative vol penalty>
0.000

$$$$

  -OEChem-04052320103D

 82 90  0     1  0  0  0  0  0999 V2000
  -27.8287  -17.4595   17.4526 C   0  0  0  0  0  0  0  0  0  0  0  0
  -27.1516  -18.6340   17.1444 C   0  0  0  0  0  0  0  0  0  0  0  0
  -24.8241  -15.3091   19.2265 C   0  0  0  0  0  0  0  0  0  0  0  0
  -23.6160  -14.6729   21.2197 C   0  0  0  0  0  0  0  0  0  0  0  0
  -28.6265  -17.3982   18.5933 C   0  0  0  0  0  0  0  0  0  0  0  0
  -27.2815  -19.7513   17.9701 C   0  0  0  0  0  0  0  0  0  0  0  0
  -24.5455  -25.1906   17.7343 C   0  0  0  0  0  0  0  0  0  0  0  0
  -25.5523  -14.1210   19.2886 C   0  0  0  0  0  0  0  0  0  0  0  0
  -24.3441  -13.4848   21.2818 C   0  0  0  0  0  0  0  0  0  0  0  0
  -23.4047  -25.7925   18.2634 C   0  0  0  0  0  0  0  0  0  0  0  0
  -27.9802  -11.4186   19.1279 C   0  0  0  0  0  0  0  0  0  0  0  0
  -29.3587  -11.4898   18.9275 C   0  0  0  0  0  0  0  0  0  0  0  0
  -24.7353  -26.7403   20.0384 C   0  0  0  0  0  0  0  0  0  0  0  0
  -29.5590  -12.9668   20.8290 C   0  0  0  0  0  0  0  0  0  0  0  0
  -23.8560  -15.5851   20.1920 C   0  0  0  0  0  0  0  0  0  0  0  0
  -21.8847  -17.0288   19.4590 C   0  0  0  0  0  0  0  0  0  0  0  0
  -28.7557  -18.5118   19.4396 C   0  0  0  0  0  0  0  0  0  0  0  0
  -25.7900  -25.3504   18.3604 C   0  0  0  0  0  0  0  0  0  0  0  0
  -28.1009  -19.7168   19.1129 C   0  0  0  0  0  0  0  0  0  0  0  0
  -25.8908  -26.1415   19.5138 C   0  0  0  0  0  0  0  0  0  0  0  0
  -25.3122  -13.2088   20.3162 C   0  0  0  0  0  0  0  0  0  0  0  0
  -23.4989  -26.5651   19.4172 C   0  0  0  0  0  0  0  0  0  0  0  0
  -27.3910  -12.1216   20.1788 C   0  0  0  0  0  0  0  0  0  0  0  0
  -30.1481  -12.2639   19.7780 C   0  0  0  0  0  0  0  0  0  0  0  0
  -28.1804  -12.8956   21.0294 C   0  0  0  0  0  0  0  0  0  0  0  0
  -23.1040  -16.8125   20.1287 C   0  0  0  0  0  0  0  0  0  0  0  0
  -21.5890  -18.3479   19.7018 C   0  0  0  0  0  0  0  0  0  0  0  0
  -21.0905  -16.1187   18.6866 C   0  0  0  0  0  0  0  0  0  0  0  0
  -27.8873  -23.3845   19.7171 C   0  0  0  0  0  0  0  0  0  0  0  0
  -29.6946  -26.0715   19.9071 C   0  0  0  0  0  0  0  0  0  0  0  0
  -29.8155  -29.4805   20.0090 C   0  0  0  0  0  0  0  0  0  0  0  0
  -22.0393  -22.3343   23.8756 C   0  0  0  0  0  0  0  0  0  0  0  0
  -29.6384  -18.3928   20.6569 C   0  0  0  0  0  0  0  0  0  0  0  0
  -27.0158  -24.7165   17.7620 C   0  0  0  0  0  0  0  0  0  0  0  0
  -27.2069  -26.3607   20.2125 C   0  0  0  0  0  0  0  0  0  0  0  0
  -29.3626  -19.4718   21.6990 C   0  0  0  0  0  0  0  0  0  0  0  0
  -24.2115  -22.3147   21.0546 C   0  0  0  0  0  0  0  0  0  0  0  0
  -29.3416  -20.8411   21.0363 C   0  0  0  0  0  0  0  0  0  0  0  0
  -24.0340  -20.9140   20.4660 C   0  0  0  0  0  0  0  0  0  0  0  0
  -20.2218  -25.9829   21.5083 C   0  0  0  0  0  0  0  0  0  0  0  0
  -24.1506  -22.2976   22.5804 C   0  0  0  0  0  0  0  0  0  0  0  0
  -22.7710  -20.2556   22.5565 C   0  0  0  0  0  0  0  0  0  0  0  0
  -20.7840  -27.3973   23.3326 C   0  0  0  0  0  0  0  0  0  0  0  0
  -28.2028  -20.9350   20.0128 C   0  0  1  0  0  0  0  0  0  0  0  0
  -28.1428  -24.5244   18.7722 C   0  0  1  0  0  0  0  0  0  0  0  0
  -20.9169  -27.3025   21.8208 C   0  0  1  0  0  0  0  0  0  0  0  0
  -22.7691  -20.2298   21.0184 C   0  0  2  0  0  0  0  0  0  0  0  0
  -18.9821  -26.0378   22.3917 C   0  0  1  0  0  0  0  0  0  0  0  0
  -31.4328  -31.3893   20.2048 C   0  0  0  0  0  0  0  0  0  0  0  0
  -18.0727  -23.8386   21.5622 C   0  0  0  0  0  0  0  0  0  0  0  0
  -29.9944  -25.5083   22.8909 C   0  0  0  0  0  0  0  0  0  0  0  0
  -30.7726  -27.8694   23.1874 C   0  0  0  0  0  0  0  0  0  0  0  0
  -32.0829  -26.2957   21.7629 C   0  0  0  0  0  0  0  0  0  0  0  0
  -29.0291  -30.5692   17.3718 C   0  0  0  0  0  0  0  0  0  0  0  0
  -22.3546  -27.3482   21.3494 C   0  0  0  0  0  0  0  0  0  1  0  0
  -19.8909  -22.2229   25.1129 C   0  0  0  0  0  0  0  0  0  0  0  0
  -18.8176  -22.9360   24.3102 C   0  0  0  0  0  0  0  0  0  0  0  0
  -29.8662  -27.1748   20.9231 C   0  0  1  0  0  0  0  0  0  0  0  0
  -30.6704  -30.4812   19.2525 C   0  0  2  0  0  0  0  0  0  0  0  0
  -18.4367  -24.6784   22.7798 C   0  0  1  0  0  0  0  0  0  0  0  0
  -30.6538  -26.7065   22.1792 C   0  0  0  0  0  0  0  0  0  0  0  0
  -23.5521  -17.9066   20.7502 N   0  0  0  0  0  0  0  0  0  0  0  0
  -22.6095  -18.8231   20.4719 N   0  0  0  0  0  0  0  0  0  0  0  0
  -28.3756  -25.7149   19.5924 N   0  0  0  0  0  0  0  0  0  0  0  0
  -22.9265  -21.6367   23.0394 N   0  0  0  0  0  0  0  0  0  0  0  0
  -20.5583  -19.1362   19.3295 N   0  0  0  0  0  0  0  0  0  0  0  0
  -21.5406  -14.7998   18.5376 N   0  0  0  0  0  0  0  0  0  0  0  0
  -28.3438  -22.1626   19.2611 N   0  0  0  0  0  0  0  0  0  0  0  0
  -30.4820  -28.2909   20.2135 N   0  0  0  0  0  0  0  0  0  0  0  0
  -20.9003  -21.6371   24.2593 N   0  0  0  0  0  0  0  0  0  0  0  0
  -19.4425  -26.7826   23.6194 N   0  3  0  0  0  0  0  0  0  0  0  0
  -29.8179  -31.3311   18.3740 N   0  3  0  0  0  0  0  0  0  0  0  0
  -20.0219  -16.4692   18.1310 O   0  0  0  0  0  0  0  0  0  0  0  0
  -27.3194  -23.5980   20.7818 O   0  0  0  0  0  0  0  0  0  0  0  0
  -30.6939  -25.5502   19.4058 O   0  0  0  0  0  0  0  0  0  0  0  0
  -28.6723  -29.7306   20.3846 O   0  0  0  0  0  0  0  0  0  0  0  0
  -22.2443  -23.4946   24.2479 O   0  0  0  0  0  0  0  0  0  0  0  0
  -26.0224  -12.0493   20.3770 O   0  0  0  0  0  0  0  0  0  0  0  0
  -22.3868  -27.1531   19.9361 O   0  0  0  0  0  0  0  0  0  1  0  0
  -19.4108  -23.9790   23.5520 O   0  0  0  0  0  0  0  0  0  0  0  0
  -31.4721  -12.3309   19.5863 F   0  0  0  0  0  0  0  0  0  0  0  0
  -27.6202  -13.5722   22.0414 F   0  0  0  0  0  0  0  0  0  0  0  0
  1  2  1  0  0  0  0
  1  5  2  0  0  0  0
  2  6  2  0  0  0  0
  3  8  2  0  0  0  0
  3 15  1  0  0  0  0
  4  9  1  0  0  0  0
  4 15  2  0  0  0  0
  5 17  1  0  0  0  0
  6 19  1  0  0  0  0
  7 10  2  0  0  0  0
  7 18  1  0  0  0  0
  8 21  1  0  0  0  0
  9 21  2  0  0  0  0
 10 22  1  0  0  0  0
 11 12  2  0  0  0  0
 11 23  1  0  0  0  0
 12 24  1  0  0  0  0
 13 20  1  0  0  0  0
 13 22  2  0  0  0  0
 14 24  2  0  0  0  0
 14 25  1  0  0  0  0
 15 26  1  0  0  0  0
 16 26  1  0  0  0  0
 16 27  2  0  0  0  0
 16 28  1  0  0  0  0
 17 19  2  0  0  0  0
 17 33  1  0  0  0  0
 18 20  2  0  0  0  0
 18 34  1  0  0  0  0
 19 44  1  0  0  0  0
 20 35  1  0  0  0  0
 21 78  1  0  0  0  0
 22 79  1  0  0  0  0
 23 25  2  0  0  0  0
 23 78  1  0  0  0  0
 24 81  1  0  0  0  0
 25 82  1  0  0  0  0
 26 62  2  0  0  0  0
 27 63  1  0  0  0  0
 27 66  1  0  0  0  0
 28 67  1  0  0  0  0
 28 73  2  0  0  0  0
 29 45  1  0  0  0  0
 29 68  1  0  0  0  0
 29 74  2  0  0  0  0
 30 58  1  0  0  0  0
 30 64  1  0  0  0  0
 30 75  2  0  0  0  0
 31 59  1  0  0  0  0
 31 69  1  0  0  0  0
 31 76  2  0  0  0  0
 32 65  1  0  0  0  0
 32 70  1  0  0  0  0
 32 77  2  0  0  0  0
 33 36  1  0  0  0  0
 34 45  1  0  0  0  0
 35 64  1  0  0  0  0
 36 38  1  0  0  0  0
 37 39  1  0  0  0  0
 37 41  1  0  0  0  0
 38 44  1  0  0  0  0
 39 47  1  0  0  0  0
 40 46  1  0  0  0  0
 40 48  1  0  0  0  0
 41 65  1  0  0  0  0
 42 47  1  0  0  0  0
 42 65  1  0  0  0  0
 43 46  1  0  0  0  0
 43 71  1  0  0  0  0
 44 68  1  0  0  0  0
 45 64  1  0  0  0  0
 46 55  1  0  0  0  0
 47 63  1  0  0  0  0
 48 60  1  0  0  0  0
 48 71  1  0  0  0  0
 49 59  1  0  0  0  0
 50 60  1  0  0  0  0
 51 61  1  0  0  0  0
 52 61  1  0  0  0  0
 53 61  1  0  0  0  0
 54 72  1  0  0  0  0
 55 79  1  0  0  0  0
 56 57  1  0  0  0  0
 56 70  1  0  0  0  0
 57 80  1  0  0  0  0
 58 61  1  0  0  0  0
 58 69  1  0  0  0  0
 59 72  1  0  0  0  0
 60 80  1  0  0  0  0
 62 63  1  0  0  0  0
M  CHG  2  71   1  72   1
M  ISO  4  32 100  55 101  70 100  79 101
M  END
> <Batch ID>
0115

> <Smiles>
CNC(C)C(=O)NC(C(=O)N1Cc2cc([101O:1][101CH2:1]C3CNC(C(C)OCC[100NH:0][100C:0](=O)N4CCCC(n5nc(-c6ccc(Oc7ccc(F)cc7F)cc6)c(C(N)=O)c5N)C4)C3)ccc2CC1C(=O)NC1CCCc2ccccc21)C(C)(C)C

> <Shape>
0.216

> <Color>
0.048

> <Negative vol penalty>
0.000

$$$$

  -OEChem-04052320103D

 83 90  0     1  0  0  0  0  0999 V2000
  -16.9234  -30.4723   23.1391 C   0  0  0  0  0  0  0  0  0  0  0  0
  -18.2431  -30.9119   23.1161 C   0  0  0  0  0  0  0  0  0  0  0  0
  -26.0706  -15.4350   20.7735 C   0  0  0  0  0  0  0  0  0  0  0  0
  -28.0825  -14.7135   19.6469 C   0  0  0  0  0  0  0  0  0  0  0  0
  -16.6383  -29.1172   22.9771 C   0  0  0  0  0  0  0  0  0  0  0  0
  -19.2787  -29.9964   22.9321 C   0  0  0  0  0  0  0  0  0  0  0  0
  -25.7880  -29.4469   19.9921 C   0  0  0  0  0  0  0  0  0  0  0  0
  -25.6505  -14.1087   20.8726 C   0  0  0  0  0  0  0  0  0  0  0  0
  -27.6623  -13.3872   19.7460 C   0  0  0  0  0  0  0  0  0  0  0  0
  -27.0862  -29.0545   20.3153 C   0  0  0  0  0  0  0  0  0  0  0  0
  -24.2175  -10.8833   21.7435 C   0  0  0  0  0  0  0  0  0  0  0  0
  -23.6992  -10.4568   22.9663 C   0  0  0  0  0  0  0  0  0  0  0  0
  -26.4696  -26.7486   19.9667 C   0  0  0  0  0  0  0  0  0  0  0  0
  -25.7938  -10.9970   24.0424 C   0  0  0  0  0  0  0  0  0  0  0  0
  -27.2866  -15.7375   20.1606 C   0  0  0  0  0  0  0  0  0  0  0  0
  -28.4985  -17.8249   20.9861 C   0  0  0  0  0  0  0  0  0  0  0  0
  -17.6703  -28.1859   22.7813 C   0  0  0  0  0  0  0  0  0  0  0  0
  -24.8163  -28.4906   19.6637 C   0  0  0  0  0  0  0  0  0  0  0  0
  -19.0072  -28.6273   22.7686 C   0  0  0  0  0  0  0  0  0  0  0  0
  -25.1605  -27.1316   19.6371 C   0  0  0  0  0  0  0  0  0  0  0  0
  -26.4463  -13.0847   20.3589 C   0  0  0  0  0  0  0  0  0  0  0  0
  -27.4264  -27.7050   20.3055 C   0  0  0  0  0  0  0  0  0  0  0  0
  -25.5239  -11.3666   21.6701 C   0  0  0  0  0  0  0  0  0  0  0  0
  -24.4874  -10.5137   24.1157 C   0  0  0  0  0  0  0  0  0  0  0  0
  -26.3121  -11.4234   22.8196 C   0  0  0  0  0  0  0  0  0  0  0  0
  -27.7210  -17.1074   20.0575 C   0  0  0  0  0  0  0  0  0  0  0  0
  -28.6348  -19.0727   20.4285 C   0  0  0  0  0  0  0  0  0  0  0  0
  -29.0486  -17.4013   22.2406 C   0  0  0  0  0  0  0  0  0  0  0  0
  -22.0337  -27.5989   20.9150 C   0  0  0  0  0  0  0  0  0  0  0  0
  -21.8728  -25.7509   18.2540 C   0  0  0  0  0  0  0  0  0  0  0  0
  -23.5271  -24.1392   15.7416 C   0  0  0  0  0  0  0  0  0  0  0  0
  -29.6351  -22.3529   16.0257 C   0  0  0  0  0  0  0  0  0  0  0  0
  -17.3161  -26.7251   22.6580 C   0  0  0  0  0  0  0  0  0  0  0  0
  -23.4275  -28.9321   19.2914 C   0  0  0  0  0  0  0  0  0  0  0  0
  -24.1596  -26.0671   19.2718 C   0  0  0  0  0  0  0  0  0  0  0  0
  -18.4473  -25.8695   22.0934 C   0  0  0  0  0  0  0  0  0  0  0  0
  -26.3022  -21.1803   16.4657 C   0  0  0  0  0  0  0  0  0  0  0  0
  -19.7655  -26.2044   22.7840 C   0  0  0  0  0  0  0  0  0  0  0  0
  -26.4395  -20.0718   17.5108 C   0  0  0  0  0  0  0  0  0  0  0  0
  -27.4970  -21.2108   15.5151 C   0  0  0  0  0  0  0  0  0  0  0  0
  -28.9499  -20.1857   17.2216 C   0  0  0  0  0  0  0  0  0  0  0  0
  -20.1564  -27.6681   22.5466 C   0  0  1  0  0  0  0  0  0  0  0  0
  -22.3830  -27.8350   19.4728 C   0  0  1  0  0  0  0  0  0  0  0  0
  -27.7954  -20.1512   18.2377 C   0  0  2  0  0  0  0  0  0  0  0  0
  -23.1283  -22.6802   13.7391 C   0  0  0  0  0  0  0  0  0  0  0  0
  -21.3855  -23.3649   20.0924 C   0  0  0  0  0  0  0  0  0  0  0  0
  -21.9406  -21.8595   18.1705 C   0  0  0  0  0  0  0  0  0  0  0  0
  -19.9787  -23.3933   18.0249 C   0  0  0  0  0  0  0  0  0  0  0  0
  -32.5555  -23.5110   21.5260 C   0  0  0  0  0  0  0  0  0  0  0  0
  -30.1239  -23.9666   21.8178 C   0  0  0  0  0  0  0  0  0  0  0  0
  -24.7090  -26.1371   13.9057 C   0  0  0  0  0  0  0  0  0  0  0  0
  -30.7173  -27.5628   23.8056 C   0  0  0  0  0  0  0  0  0  0  0  0
  -31.8012  -23.3873   16.6558 C   0  0  0  0  0  0  0  0  0  0  0  0
  -31.5514  -24.5526   17.5949 C   0  0  0  0  0  0  0  0  0  0  0  0
  -30.9526  -27.7309   21.3323 C   0  0  0  0  0  0  0  0  0  0  0  0
  -31.4493  -25.1584   20.0159 C   0  0  0  0  0  0  0  0  0  0  0  0
  -31.7679  -25.7029   22.5254 C   0  0  0  0  0  0  0  0  0  0  0  0
  -29.6220  -28.3502   20.9529 C   0  0  0  0  0  0  0  0  0  1  0  0
  -22.3143  -24.3526   17.8952 C   0  0  1  0  0  0  0  0  0  0  0  0
  -23.2948  -24.1058   14.2418 C   0  0  2  0  0  0  0  0  0  0  0  0
  -21.4234  -23.2622   18.5546 C   0  0  0  0  0  0  0  0  0  0  0  0
  -31.4791  -24.6163   21.4638 C   0  0  0  0  0  0  0  0  0  0  0  0
  -27.3865  -17.8386   18.9909 N   0  0  0  0  0  0  0  0  0  0  0  0
  -27.9566  -19.0286   19.2460 N   0  0  0  0  0  0  0  0  0  0  0  0
  -22.8131  -26.5484   18.9215 N   0  0  0  0  0  0  0  0  0  0  0  0
  -28.7516  -21.2880   16.2675 N   0  0  0  0  0  0  0  0  0  0  0  0
  -29.2672  -20.1924   20.8393 N   0  0  0  0  0  0  0  0  0  0  0  0
  -28.8128  -16.0861   22.6635 N   0  0  0  0  0  0  0  0  0  0  0  0
  -20.7065  -27.8353   21.2184 N   0  0  0  0  0  0  0  0  0  0  0  0
  -22.3473  -24.2963   16.4377 N   0  0  0  0  0  0  0  0  0  0  0  0
  -30.7981  -22.3541   16.7860 N   0  0  0  0  0  0  0  0  0  0  0  0
  -24.4455  -24.7253   13.5255 N   0  3  0  0  0  0  0  0  0  0  0  0
  -31.6185  -24.0851   19.0065 N   0  3  0  0  0  0  0  0  0  0  0  0
  -30.7581  -26.8234   22.4911 N   0  3  1  0  0  0  0  0  0  0  0  0
  -29.7152  -18.1715   22.9728 O   0  0  0  0  0  0  0  0  0  0  0  0
  -22.9036  -27.2283   21.6945 O   0  0  0  0  0  0  0  0  0  0  0  0
  -20.7379  -26.1243   17.9468 O   0  0  0  0  0  0  0  0  0  0  0  0
  -24.6430  -24.0324   16.2453 O   0  0  0  0  0  0  0  0  0  0  0  0
  -29.4021  -23.2400   15.1976 O   0  0  0  0  0  0  0  0  0  0  0  0
  -26.0367  -11.7903   20.4556 O   0  0  0  0  0  0  0  0  0  0  0  0
  -28.6927  -27.3193   20.6212 O   0  0  0  0  0  0  0  0  0  1  0  0
  -23.9891  -10.1055   25.2901 F   0  0  0  0  0  0  0  0  0  0  0  0
  -27.5675  -11.8879   22.7556 F   0  0  0  0  0  0  0  0  0  0  0  0
  1  2  1  0  0  0  0
  1  5  2  0  0  0  0
  2  6  2  0  0  0  0
  3  8  2  0  0  0  0
  3 15  1  0  0  0  0
  4  9  1  0  0  0  0
  4 15  2  0  0  0  0
  5 17  1  0  0  0  0
  6 19  1  0  0  0  0
  7 10  2  0  0  0  0
  7 18  1  0  0  0  0
  8 21  1  0  0  0  0
  9 21  2  0  0  0  0
 10 22  1  0  0  0  0
 11 12  2  0  0  0  0
 11 23  1  0  0  0  0
 12 24  1  0  0  0  0
 13 20  1  0  0  0  0
 13 22  2  0  0  0  0
 14 24  2  0  0  0  0
 14 25  1  0  0  0  0
 15 26  1  0  0  0  0
 16 26  1  0  0  0  0
 16 27  2  0  0  0  0
 16 28  1  0  0  0  0
 17 19  2  0  0  0  0
 17 33  1  0  0  0  0
 18 20  2  0  0  0  0
 18 34  1  0  0  0  0
 19 42  1  0  0  0  0
 20 35  1  0  0  0  0
 21 80  1  0  0  0  0
 22 81  1  0  0  0  0
 23 25  2  0  0  0  0
 23 80  1  0  0  0  0
 24 82  1  0  0  0  0
 25 83  1  0  0  0  0
 26 63  2  0  0  0  0
 27 64  1  0  0  0  0
 27 67  1  0  0  0  0
 28 68  1  0  0  0  0
 28 75  2  0  0  0  0
 29 43  1  0  0  0  0
 29 69  1  0  0  0  0
 29 76  2  0  0  0  0
 30 59  1  0  0  0  0
 30 65  1  0  0  0  0
 30 77  2  0  0  0  0
 31 60  1  0  0  0  0
 31 70  1  0  0  0  0
 31 78  2  0  0  0  0
 32 66  1  0  0  0  0
 32 71  1  0  0  0  0
 32 79  2  0  0  0  0
 33 36  1  0  0  0  0
 34 43  1  0  0  0  0
 35 65  1  0  0  0  0
 36 38  1  0  0  0  0
 37 39  1  0  0  0  0
 37 40  1  0  0  0  0
 38 42  1  0  0  0  0
 39 44  1  0  0  0  0
 40 66  1  0  0  0  0
 41 44  1  0  0  0  0
 41 66  1  0  0  0  0
 42 69  1  0  0  0  0
 43 65  1  0  0  0  0
 44 64  1  0  0  0  0
 45 60  1  0  0  0  0
 46 61  1  0  0  0  0
 47 61  1  0  0  0  0
 48 61  1  0  0  0  0
 49 62  1  0  0  0  0
 50 62  1  0  0  0  0
 51 72  1  0  0  0  0
 52 74  1  0  0  0  0
 53 54  1  0  0  0  0
 53 71  1  0  0  0  0
 54 73  1  0  0  0  0
 55 58  1  0  0  0  0
 55 74  1  0  0  0  0
 56 62  1  0  0  0  0
 56 73  1  0  0  0  0
 57 62  1  0  0  0  0
 57 74  1  0  0  0  0
 58 81  1  0  0  0  0
 59 61  1  0  0  0  0
 59 70  1  0  0  0  0
 60 72  1  0  0  0  0
 63 64  1  0  0  0  0
M  CHG  3  72   1  73   1  74   1
M  ISO  4  32 100  58 101  71 100  81 101
M  END
> <Batch ID>
0115

> <Smiles>
CNC(C)C(=O)NC(C(=O)N1Cc2cc([101O:1][101CH2:1]CN(C)CC(C)(C)CNCC[100NH:0][100C:0](=O)N3CCCC(n4nc(-c5ccc(Oc6ccc(F)cc6F)cc5)c(C(N)=O)c4N)C3)ccc2CC1C(=O)NC1CCCc2ccccc21)C(C)(C)C

> <Shape>
0.232

> <Color>
0.077

> <Negative vol penalty>
0.000

$$$$

  -OEChem-04052320103D

 82 90  0     1  0  0  0  0  0999 V2000
  -23.7568  -27.1473   26.1115 C   0  0  0  0  0  0  0  0  0  0  0  0
  -24.5438  -26.0632   25.7365 C   0  0  0  0  0  0  0  0  0  0  0  0
  -23.1537   -9.8646   19.9619 C   0  0  0  0  0  0  0  0  0  0  0  0
  -23.8226   -9.9650   22.2812 C   0  0  0  0  0  0  0  0  0  0  0  0
  -22.9241  -27.0506   27.2256 C   0  0  0  0  0  0  0  0  0  0  0  0
  -24.4993  -24.8819   26.4761 C   0  0  0  0  0  0  0  0  0  0  0  0
  -24.2317  -20.7624   23.5430 C   0  0  0  0  0  0  0  0  0  0  0  0
  -22.4402   -8.6938   20.2183 C   0  0  0  0  0  0  0  0  0  0  0  0
  -23.1091   -8.7942   22.5377 C   0  0  0  0  0  0  0  0  0  0  0  0
  -25.4129  -20.3321   22.9402 C   0  0  0  0  0  0  0  0  0  0  0  0
  -23.5342   -5.4696   22.0932 C   0  0  0  0  0  0  0  0  0  0  0  0
  -24.1557   -4.4879   22.8650 C   0  0  0  0  0  0  0  0  0  0  0  0
  -25.6633  -18.6469   24.6481 C   0  0  0  0  0  0  0  0  0  0  0  0
  -32.1017  -17.5720   22.0625 C   0  0  0  0  0  0  0  0  0  0  0  0
  -22.3839   -4.6513   24.4994 C   0  0  0  0  0  0  0  0  0  0  0  0
  -30.1297  -17.5664   23.1492 C   0  0  0  0  0  0  0  0  0  0  0  0
  -23.8450  -10.5002   20.9933 C   0  0  0  0  0  0  0  0  0  0  0  0
  -24.1053  -13.0312   20.8096 C   0  0  0  0  0  0  0  0  0  0  0  0
  -22.8622  -25.8642   27.9735 C   0  0  0  0  0  0  0  0  0  0  0  0
  -23.7624  -20.1442   24.7109 C   0  0  0  0  0  0  0  0  0  0  0  0
  -23.6660  -24.7696   27.6020 C   0  0  0  0  0  0  0  0  0  0  0  0
  -24.4745  -19.0696   25.2622 C   0  0  0  0  0  0  0  0  0  0  0  0
  -31.1896  -16.7651   22.7863 C   0  0  0  0  0  0  0  0  0  0  0  0
  -22.4179   -8.1586   21.5062 C   0  0  0  0  0  0  0  0  0  0  0  0
  -26.1305  -19.2761   23.4944 C   0  0  0  0  0  0  0  0  0  0  0  0
  -22.3377   -6.0423   22.5246 C   0  0  0  0  0  0  0  0  0  0  0  0
  -23.5805   -4.0787   24.0680 C   0  0  0  0  0  0  0  0  0  0  0  0
  -21.7625   -5.6331   23.7277 C   0  0  0  0  0  0  0  0  0  0  0  0
  -24.5826  -11.7093   20.7289 C   0  0  0  0  0  0  0  0  0  0  0  0
  -31.5715  -18.8421   22.0053 C   0  0  0  0  0  0  0  0  0  0  0  0
  -25.1847  -13.8077   20.4655 C   0  0  0  0  0  0  0  0  0  0  0  0
  -22.8026  -13.5141   21.1640 C   0  0  0  0  0  0  0  0  0  0  0  0
  -23.2129  -21.1036   27.6911 C   0  0  0  0  0  0  0  0  0  0  0  0
  -21.9979  -18.1135   28.0155 C   0  0  0  0  0  0  0  0  0  0  0  0
  -21.9302  -14.8798   26.9266 C   0  0  0  0  0  0  0  0  0  0  0  0
  -30.9412  -13.9730   21.0569 C   0  0  0  0  0  0  0  0  0  0  0  0
  -21.9823  -25.8230   29.1978 C   0  0  0  0  0  0  0  0  0  0  0  0
  -22.4723  -20.6028   25.3338 C   0  0  0  0  0  0  0  0  0  0  0  0
  -24.0027  -18.3590   26.5036 C   0  0  0  0  0  0  0  0  0  0  0  0
  -21.7131  -24.4093   29.7070 C   0  0  0  0  0  0  0  0  0  0  0  0
  -29.3941  -13.0237   17.9939 C   0  0  0  0  0  0  0  0  0  0  0  0
  -23.0083  -23.6054   29.7602 C   0  0  0  0  0  0  0  0  0  0  0  0
  -27.9513  -12.7109   18.3944 C   0  0  0  0  0  0  0  0  0  0  0  0
  -30.3851  -12.5960   19.0742 C   0  0  0  0  0  0  0  0  0  0  0  0
  -28.6600  -12.8168   20.8204 C   0  0  0  0  0  0  0  0  0  0  0  0
  -23.6269  -23.4629   28.3643 C   0  0  1  0  0  0  0  0  0  0  0  0
  -22.3584  -20.2365   26.8103 C   0  0  1  0  0  0  0  0  0  0  0  0
  -27.6197  -13.2810   19.7867 C   0  0  2  0  0  0  0  0  0  0  0  0
  -32.1076  -20.0656   21.3738 C   0  0  0  0  0  0  0  0  0  0  0  0
  -21.1797  -12.4902   26.7718 C   0  0  0  0  0  0  0  0  0  0  0  0
  -29.3159  -20.3953   24.3381 C   0  0  0  0  0  0  0  0  0  0  0  0
  -28.1114  -19.4525   20.7272 C   0  0  0  0  0  0  0  0  0  0  0  0
  -23.8510  -17.7558   30.4130 C   0  0  0  0  0  0  0  0  0  0  0  0
  -23.4581  -15.2879   30.2601 C   0  0  0  0  0  0  0  0  0  0  0  0
  -21.5503  -16.8263   30.7249 C   0  0  0  0  0  0  0  0  0  0  0  0
  -19.8594  -15.5389   24.9175 C   0  0  0  0  0  0  0  0  0  0  0  0
  -31.3448  -15.3307   23.0948 C   0  0  0  0  0  0  0  0  0  0  0  0
  -22.5593  -16.7681   28.4075 C   0  0  1  0  0  0  0  0  0  0  0  0
  -20.7747  -13.9472   26.6109 C   0  0  2  0  0  0  0  0  0  0  0  0
  -29.4412  -20.0161   22.8553 C   0  0  2  0  0  0  0  0  0  0  0  0
  -28.0492  -19.8312   22.2035 C   0  0  2  0  0  0  0  0  0  1  0  0
  -22.8648  -16.6739   29.9291 C   0  0  0  0  0  0  0  0  0  0  0  0
  -25.8654  -11.6458   20.3622 N   0  0  0  0  0  0  0  0  0  0  0  0
  -30.3728  -18.8270   22.6694 N   0  0  0  0  0  0  0  0  0  0  0  0
  -26.2032  -12.9375   20.2093 N   0  0  0  0  0  0  0  0  0  0  0  0
  -22.7391  -18.8483   27.0793 N   0  0  0  0  0  0  0  0  0  0  0  0
  -30.0148  -13.1716   20.3694 N   0  0  0  0  0  0  0  0  0  0  0  0
  -25.3525  -15.1430   20.3601 N   0  0  0  0  0  0  0  0  0  0  0  0
  -21.8097  -12.5801   21.4900 N   0  0  0  0  0  0  0  0  0  0  0  0
  -22.9258  -22.4523   27.6016 N   0  0  0  0  0  0  0  0  0  0  0  0
  -21.6074  -15.7726   27.9265 N   0  0  0  0  0  0  0  0  0  0  0  0
  -30.5078  -14.4841   22.2741 N   0  0  0  0  0  0  0  0  0  0  0  0
  -20.3102  -14.1539   25.2100 N   0  3  0  0  0  0  0  0  0  0  0  0
  -22.5226  -14.7368   21.1748 O   0  0  0  0  0  0  0  0  0  0  0  0
  -24.0683  -20.5871   28.4005 O   0  0  0  0  0  0  0  0  0  0  0  0
  -20.9370  -18.4951   28.5159 O   0  0  0  0  0  0  0  0  0  0  0  0
  -23.0123  -14.8196   26.3469 O   0  0  0  0  0  0  0  0  0  0  0  0
  -32.0690  -14.2193   20.6160 O   0  0  0  0  0  0  0  0  0  0  0  0
  -21.7215   -7.0163   21.7569 O   0  0  0  0  0  0  0  0  0  0  0  0
  -27.2841  -18.8545   22.9085 O   0  0  0  0  0  0  0  0  0  1  0  0
  -24.1766   -3.1348   24.8083 F   0  0  0  0  0  0  0  0  0  0  0  0
  -20.6125   -6.1787   24.1467 F   0  0  0  0  0  0  0  0  0  0  0  0
  1  2  1  0  0  0  0
  1  5  2  0  0  0  0
  2  6  2  0  0  0  0
  3  8  2  0  0  0  0
  3 17  1  0  0  0  0
  4  9  1  0  0  0  0
  4 17  2  0  0  0  0
  5 19  1  0  0  0  0
  6 21  1  0  0  0  0
  7 10  2  0  0  0  0
  7 20  1  0  0  0  0
  8 24  1  0  0  0  0
  9 24  2  0  0  0  0
 10 25  1  0  0  0  0
 11 12  2  0  0  0  0
 11 26  1  0  0  0  0
 12 27  1  0  0  0  0
 13 22  1  0  0  0  0
 13 25  2  0  0  0  0
 14 23  1  0  0  0  0
 14 30  2  0  0  0  0
 15 27  2  0  0  0  0
 15 28  1  0  0  0  0
 16 23  2  0  0  0  0
 16 64  1  0  0  0  0
 17 29  1  0  0  0  0
 18 29  1  0  0  0  0
 18 31  2  0  0  0  0
 18 32  1  0  0  0  0
 19 21  2  0  0  0  0
 19 37  1  0  0  0  0
 20 22  2  0  0  0  0
 20 38  1  0  0  0  0
 21 46  1  0  0  0  0
 22 39  1  0  0  0  0
 23 57  1  0  0  0  0
 24 79  1  0  0  0  0
 25 80  1  0  0  0  0
 26 28  2  0  0  0  0
 26 79  1  0  0  0  0
 27 81  1  0  0  0  0
 28 82  1  0  0  0  0
 29 63  2  0  0  0  0
 30 49  1  0  0  0  0
 30 64  1  0  0  0  0
 31 65  1  0  0  0  0
 31 68  1  0  0  0  0
 32 69  1  0  0  0  0
 32 74  2  0  0  0  0
 33 47  1  0  0  0  0
 33 70  1  0  0  0  0
 33 75  2  0  0  0  0
 34 58  1  0  0  0  0
 34 66  1  0  0  0  0
 34 76  2  0  0  0  0
 35 59  1  0  0  0  0
 35 71  1  0  0  0  0
 35 77  2  0  0  0  0
 36 67  1  0  0  0  0
 36 72  1  0  0  0  0
 36 78  2  0  0  0  0
 37 40  1  0  0  0  0
 38 47  1  0  0  0  0
 39 66  1  0  0  0  0
 40 42  1  0  0  0  0
 41 43  1  0  0  0  0
 41 44  1  0  0  0  0
 42 46  1  0  0  0  0
 43 48  1  0  0  0  0
 44 67  1  0  0  0  0
 45 48  1  0  0  0  0
 45 67  1  0  0  0  0
 46 70  1  0  0  0  0
 47 66  1  0  0  0  0
 48 65  1  0  0  0  0
 50 59  1  0  0  0  0
 51 60  1  0  0  0  0
 52 61  1  0  0  0  0
 53 62  1  0  0  0  0
 54 62  1  0  0  0  0
 55 62  1  0  0  0  0
 56 73  1  0  0  0  0
 57 72  1  0  0  0  0
 58 62  1  0  0  0  0
 58 71  1  0  0  0  0
 59 73  1  0  0  0  0
 60 61  1  0  0  0  0
 60 64  1  0  0  0  0
 61 80  1  0  0  0  0
 63 65  1  0  0  0  0
M  CHG  1  73   1
M  ISO  4  36 100  61 101  72 100  80 101
M  END
> <Batch ID>
0115

> <Smiles>
CNC(C)C(=O)NC(C(=O)N1Cc2cc([101O:1][101CH:1](C)C(C)n3cc(C[100NH:0][100C:0](=O)N4CCCC(n5nc(-c6ccc(Oc7ccc(F)cc7F)cc6)c(C(N)=O)c5N)C4)cc3C)ccc2CC1C(=O)NC1CCCc2ccccc21)C(C)(C)C

> <Shape>
0.179

> <Color>
0.196

> <Negative vol penalty>
0.000

$$$$

  -OEChem-04052320103D

 84 92  0     1  0  0  0  0  0999 V2000
  -23.7092  -27.2549   26.3380 C   0  0  0  0  0  0  0  0  0  0  0  0
  -24.7121  -26.4270   25.8440 C   0  0  0  0  0  0  0  0  0  0  0  0
  -23.0834   -9.8570   19.9426 C   0  0  0  0  0  0  0  0  0  0  0  0
  -23.8453   -9.8712   22.2353 C   0  0  0  0  0  0  0  0  0  0  0  0
  -22.7349  -27.7580   25.4769 C   0  0  0  0  0  0  0  0  0  0  0  0
  -24.7407  -26.1007   24.4886 C   0  0  0  0  0  0  0  0  0  0  0  0
  -29.7092  -25.2318   21.0151 C   0  0  0  0  0  0  0  0  0  0  0  0
  -22.3474   -8.6992   20.1943 C   0  0  0  0  0  0  0  0  0  0  0  0
  -23.1092   -8.7134   22.4871 C   0  0  0  0  0  0  0  0  0  0  0  0
  -30.3734  -24.0784   20.6000 C   0  0  0  0  0  0  0  0  0  0  0  0
  -19.8869   -7.8949   23.0932 C   0  0  0  0  0  0  0  0  0  0  0  0
  -19.1313   -7.8511   24.2648 C   0  0  0  0  0  0  0  0  0  0  0  0
  -29.1520  -24.1308   18.5204 C   0  0  0  0  0  0  0  0  0  0  0  0
  -20.3862   -5.9226   25.0020 C   0  0  0  0  0  0  0  0  0  0  0  0
  -23.8324  -10.4430   20.9631 C   0  0  0  0  0  0  0  0  0  0  0  0
  -24.1575  -12.9702   20.8403 C   0  0  0  0  0  0  0  0  0  0  0  0
  -22.7572  -27.4455   24.1085 C   0  0  0  0  0  0  0  0  0  0  0  0
  -28.7519  -25.8381   20.1891 C   0  0  0  0  0  0  0  0  0  0  0  0
  -23.7650  -26.5990   23.6085 C   0  0  0  0  0  0  0  0  0  0  0  0
  -28.4789  -25.2932   18.9263 C   0  0  0  0  0  0  0  0  0  0  0  0
  -22.3603   -8.1274   21.4666 C   0  0  0  0  0  0  0  0  0  0  0  0
  -30.0928  -23.5261   19.3537 C   0  0  0  0  0  0  0  0  0  0  0  0
  -20.8921   -6.9525   22.8760 C   0  0  0  0  0  0  0  0  0  0  0  0
  -19.3809   -6.8650   25.2193 C   0  0  0  0  0  0  0  0  0  0  0  0
  -21.1418   -5.9664   23.8304 C   0  0  0  0  0  0  0  0  0  0  0  0
  -24.5934  -11.6386   20.7035 C   0  0  0  0  0  0  0  0  0  0  0  0
  -25.2443  -13.7265   20.4753 C   0  0  0  0  0  0  0  0  0  0  0  0
  -22.8840  -13.4780   21.2599 C   0  0  0  0  0  0  0  0  0  0  0  0
  -25.6395  -26.4376   20.4284 C   0  0  0  0  0  0  0  0  0  0  0  0
  -26.1264  -28.0204   17.6391 C   0  0  0  0  0  0  0  0  0  0  0  0
  -28.0133  -28.4145   14.8228 C   0  0  0  0  0  0  0  0  0  0  0  0
  -30.7214  -14.7819   20.6578 C   0  0  0  0  0  0  0  0  0  0  0  0
  -21.6553  -27.9748   23.2250 C   0  0  0  0  0  0  0  0  0  0  0  0
  -28.0635  -27.0970   20.6405 C   0  0  0  0  0  0  0  0  0  0  0  0
  -27.4745  -25.9174   17.9936 C   0  0  0  0  0  0  0  0  0  0  0  0
  -21.9732  -27.8845   21.7347 C   0  0  0  0  0  0  0  0  0  0  0  0
  -24.7238  -18.4372   19.2853 C   0  0  0  0  0  0  0  0  0  0  0  0
  -25.6871  -18.3640   18.1027 C   0  0  0  0  0  0  0  0  0  0  0  0
  -24.9946  -19.6578   20.1620 C   0  0  0  0  0  0  0  0  0  0  0  0
  -29.5974  -12.3876   18.2744 C   0  0  0  0  0  0  0  0  0  0  0  0
  -22.5328  -26.5079   21.3906 C   0  0  0  0  0  0  0  0  0  0  0  0
  -28.1624  -12.0849   18.7088 C   0  0  0  0  0  0  0  0  0  0  0  0
  -27.1439  -18.4140   18.5590 C   0  0  0  0  0  0  0  0  0  0  0  0
  -26.4506  -19.7098   20.6210 C   0  0  0  0  0  0  0  0  0  0  0  0
  -30.5142  -12.6157   19.4742 C   0  0  0  0  0  0  0  0  0  0  0  0
  -28.6089  -13.3355   20.8618 C   0  0  0  0  0  0  0  0  0  0  0  0
  -23.8441  -26.2424   22.1400 C   0  0  1  0  0  0  0  0  0  0  0  0
  -26.7345  -27.3385   19.9314 C   0  0  1  0  0  0  0  0  0  0  0  0
  -27.6348  -13.1534   19.6852 C   0  0  2  0  0  0  0  0  0  0  0  0
  -27.4027  -19.6420   19.4290 C   0  0  0  0  0  0  0  0  0  0  0  0
  -28.1411  -29.7625   12.7100 C   0  0  0  0  0  0  0  0  0  0  0  0
  -23.8576  -26.3640   16.4480 C   0  0  0  0  0  0  0  0  0  0  0  0
  -24.6509  -27.0418   14.1722 C   0  0  0  0  0  0  0  0  0  0  0  0
  -23.8520  -28.7740   15.7797 C   0  0  0  0  0  0  0  0  0  0  0  0
  -30.6525  -29.5334   15.5589 C   0  0  0  0  0  0  0  0  0  0  0  0
  -30.4841  -18.0821   20.9317 C   0  0  0  0  0  0  0  0  0  0  0  0
  -31.1562  -20.0771   19.3748 C   0  0  0  0  0  0  0  0  0  0  0  0
  -30.7741  -16.9341   21.8925 C   0  0  0  0  0  0  0  0  0  0  0  0
  -28.9993  -18.4156   20.8623 C   0  0  0  0  0  0  0  0  0  0  0  0
  -29.8033  -19.6295   18.8422 C   0  0  0  0  0  0  0  0  0  0  0  0
  -31.1497  -21.4839   19.9604 C   0  0  0  0  0  0  0  0  0  1  0  0
  -26.0808  -27.6484   16.1767 C   0  0  1  0  0  0  0  0  0  0  0  0
  -28.5868  -29.6539   14.1599 C   0  0  2  0  0  0  0  0  0  0  0  0
  -24.6279  -27.4439   15.6623 C   0  0  0  0  0  0  0  0  0  0  0  0
  -25.8585  -11.5507   20.2842 N   0  0  0  0  0  0  0  0  0  0  0  0
  -26.2268  -12.8367   20.1543 N   0  0  0  0  0  0  0  0  0  0  0  0
  -26.8232  -27.1438   18.4828 N   0  0  0  0  0  0  0  0  0  0  0  0
  -29.9576  -13.6414   20.3597 N   0  0  0  0  0  0  0  0  0  0  0  0
  -25.4459  -15.0593   20.4008 N   0  0  0  0  0  0  0  0  0  0  0  0
  -21.8784  -12.5625   21.5989 N   0  0  0  0  0  0  0  0  0  0  0  0
  -24.9394  -26.9448   21.5064 N   0  0  0  0  0  0  0  0  0  0  0  0
  -26.8252  -28.6842   15.4686 N   0  0  0  0  0  0  0  0  0  0  0  0
  -30.1169  -15.7076   21.4995 N   0  0  0  0  0  0  0  0  0  0  0  0
  -30.0763  -29.6163   14.1922 N   0  3  0  0  0  0  0  0  0  0  0  0
  -28.8008  -19.5886   19.9326 N   0  3  1  0  0  0  0  0  0  0  0  0
  -22.6397  -14.7071   21.3162 O   0  0  0  0  0  0  0  0  0  0  0  0
  -25.4432  -25.3626   19.8738 O   0  0  0  0  0  0  0  0  0  0  0  0
  -25.5706  -29.0545   18.0177 O   0  0  0  0  0  0  0  0  0  0  0  0
  -28.5622  -27.3162   14.7697 O   0  0  0  0  0  0  0  0  0  0  0  0
  -31.8558  -14.9644   20.2030 O   0  0  0  0  0  0  0  0  0  0  0  0
  -21.6420   -6.9978   21.7126 O   0  0  0  0  0  0  0  0  0  0  0  0
  -30.7392  -22.4000   18.9463 O   0  0  0  0  0  0  0  0  0  1  0  0
  -18.6562   -6.8240   26.3450 F   0  0  0  0  0  0  0  0  0  0  0  0
  -22.1069   -5.0590   23.6278 F   0  0  0  0  0  0  0  0  0  0  0  0
  1  2  1  0  0  0  0
  1  5  2  0  0  0  0
  2  6  2  0  0  0  0
  3  8  2  0  0  0  0
  3 15  1  0  0  0  0
  4  9  1  0  0  0  0
  4 15  2  0  0  0  0
  5 17  1  0  0  0  0
  6 19  1  0  0  0  0
  7 10  2  0  0  0  0
  7 18  1  0  0  0  0
  8 21  1  0  0  0  0
  9 21  2  0  0  0  0
 10 22  1  0  0  0  0
 11 12  2  0  0  0  0
 11 23  1  0  0  0  0
 12 24  1  0  0  0  0
 13 20  1  0  0  0  0
 13 22  2  0  0  0  0
 14 24  2  0  0  0  0
 14 25  1  0  0  0  0
 15 26  1  0  0  0  0
 16 26  1  0  0  0  0
 16 27  2  0  0  0  0
 16 28  1  0  0  0  0
 17 19  2  0  0  0  0
 17 33  1  0  0  0  0
 18 20  2  0  0  0  0
 18 34  1  0  0  0  0
 19 47  1  0  0  0  0
 20 35  1  0  0  0  0
 21 81  1  0  0  0  0
 22 82  1  0  0  0  0
 23 25  2  0  0  0  0
 23 81  1  0  0  0  0
 24 83  1  0  0  0  0
 25 84  1  0  0  0  0
 26 65  2  0  0  0  0
 27 66  1  0  0  0  0
 27 69  1  0  0  0  0
 28 70  1  0  0  0  0
 28 76  2  0  0  0  0
 29 48  1  0  0  0  0
 29 71  1  0  0  0  0
 29 77  2  0  0  0  0
 30 62  1  0  0  0  0
 30 67  1  0  0  0  0
 30 78  2  0  0  0  0
 31 63  1  0  0  0  0
 31 72  1  0  0  0  0
 31 79  2  0  0  0  0
 32 68  1  0  0  0  0
 32 73  1  0  0  0  0
 32 80  2  0  0  0  0
 33 36  1  0  0  0  0
 34 48  1  0  0  0  0
 35 67  1  0  0  0  0
 36 41  1  0  0  0  0
 37 38  1  0  0  0  0
 37 39  1  0  0  0  0
 38 43  1  0  0  0  0
 39 44  1  0  0  0  0
 40 42  1  0  0  0  0
 40 45  1  0  0  0  0
 41 47  1  0  0  0  0
 42 49  1  0  0  0  0
 43 50  1  0  0  0  0
 44 50  1  0  0  0  0
 45 68  1  0  0  0  0
 46 49  1  0  0  0  0
 46 68  1  0  0  0  0
 47 71  1  0  0  0  0
 48 67  1  0  0  0  0
 49 66  1  0  0  0  0
 50 75  1  0  0  0  0
 51 63  1  0  0  0  0
 52 64  1  0  0  0  0
 53 64  1  0  0  0  0
 54 64  1  0  0  0  0
 55 74  1  0  0  0  0
 56 58  1  0  0  0  0
 56 59  1  0  0  0  0
 57 60  1  0  0  0  0
 57 61  1  0  0  0  0
 58 73  1  0  0  0  0
 59 75  1  0  0  0  0
 60 75  1  0  0  0  0
 61 82  1  0  0  0  0
 62 64  1  0  0  0  0
 62 72  1  0  0  0  0
 63 74  1  0  0  0  0
 65 66  1  0  0  0  0
M  CHG  2  74   1  75   1
M  ISO  4  32 100  61 101  73 100  82 101
M  END
> <Batch ID>
0115

> <Smiles>
CNC(C)C(=O)NC(C(=O)N1Cc2cc([101O:1][101CH2:1]CCN(CCC[100NH:0][100C:0](=O)N3CCCC(n4nc(-c5ccc(Oc6ccc(F)cc6F)cc5)c(C(N)=O)c4N)C3)C3CCCCC3)ccc2CC1C(=O)NC1CCCc2ccccc21)C(C)(C)C

> <Shape>
0.282

> <Color>
0.192

> <Negative vol penalty>
0.000

$$$$

  -OEChem-04052320103D

 84 91  0     1  0  0  0  0  0999 V2000
  -19.7208  -26.8043   25.9053 C   0  0  0  0  0  0  0  0  0  0  0  0
  -20.0098  -25.5088   26.3220 C   0  0  0  0  0  0  0  0  0  0  0  0
  -22.9953   -9.9174   19.9892 C   0  0  0  0  0  0  0  0  0  0  0  0
  -23.7419   -9.9454   22.2868 C   0  0  0  0  0  0  0  0  0  0  0  0
  -19.5378  -27.0748   24.5499 C   0  0  0  0  0  0  0  0  0  0  0  0
  -20.1149  -24.4828   25.3835 C   0  0  0  0  0  0  0  0  0  0  0  0
  -23.8945  -19.6689   25.5992 C   0  0  0  0  0  0  0  0  0  0  0  0
  -22.2272   -8.7833   20.2526 C   0  0  0  0  0  0  0  0  0  0  0  0
  -22.9737   -8.8113   22.5502 C   0  0  0  0  0  0  0  0  0  0  0  0
  -23.7081  -18.3474   26.0023 C   0  0  0  0  0  0  0  0  0  0  0  0
  -23.2014   -5.4758   22.0466 C   0  0  0  0  0  0  0  0  0  0  0  0
  -23.7922   -4.4499   22.7842 C   0  0  0  0  0  0  0  0  0  0  0  0
  -23.3195  -17.7090   23.7087 C   0  0  0  0  0  0  0  0  0  0  0  0
  -22.0847   -4.6842   24.4774 C   0  0  0  0  0  0  0  0  0  0  0  0
  -23.7528  -10.4984   21.0063 C   0  0  0  0  0  0  0  0  0  0  0  0
  -24.1457  -13.0141   20.8489 C   0  0  0  0  0  0  0  0  0  0  0  0
  -19.6503  -26.0536   23.5933 C   0  0  0  0  0  0  0  0  0  0  0  0
  -23.7838  -20.0230   24.2468 C   0  0  0  0  0  0  0  0  0  0  0  0
  -19.9319  -24.7398   24.0141 C   0  0  0  0  0  0  0  0  0  0  0  0
  -23.5075  -19.0353   23.2907 C   0  0  0  0  0  0  0  0  0  0  0  0
  -22.2163   -8.2303   21.5331 C   0  0  0  0  0  0  0  0  0  0  0  0
  -23.4177  -17.3677   25.0573 C   0  0  0  0  0  0  0  0  0  0  0  0
  -22.0524   -6.1060   22.5244 C   0  0  0  0  0  0  0  0  0  0  0  0
  -23.2338   -4.0541   23.9996 C   0  0  0  0  0  0  0  0  0  0  0  0
  -21.4940   -5.7101   23.7398 C   0  0  0  0  0  0  0  0  0  0  0  0
  -24.5470  -11.6696   20.7347 C   0  0  0  0  0  0  0  0  0  0  0  0
  -25.2547  -13.7359   20.4807 C   0  0  0  0  0  0  0  0  0  0  0  0
  -22.8833  -13.5615   21.2520 C   0  0  0  0  0  0  0  0  0  0  0  0
  -21.8790  -21.9459   22.5802 C   0  0  0  0  0  0  0  0  0  0  0  0
  -23.8839  -21.1815   20.1474 C   0  0  0  0  0  0  0  0  0  0  0  0
  -27.9690  -15.6793   26.0967 C   0  0  0  0  0  0  0  0  0  0  0  0
  -26.1245  -18.9731   18.8247 C   0  0  0  0  0  0  0  0  0  0  0  0
  -30.7565  -14.6486   20.6866 C   0  0  0  0  0  0  0  0  0  0  0  0
  -19.3974  -26.3853   22.1440 C   0  0  0  0  0  0  0  0  0  0  0  0
  -24.0141  -21.4483   23.8251 C   0  0  0  0  0  0  0  0  0  0  0  0
  -23.3980  -19.3599   21.8240 C   0  0  0  0  0  0  0  0  0  0  0  0
  -19.8958  -25.3137   21.1779 C   0  0  0  0  0  0  0  0  0  0  0  0
  -29.5854  -12.2499   18.3305 C   0  0  0  0  0  0  0  0  0  0  0  0
  -19.4717  -23.9276   21.6531 C   0  0  0  0  0  0  0  0  0  0  0  0
  -28.1398  -11.9916   18.7591 C   0  0  0  0  0  0  0  0  0  0  0  0
  -30.4997  -12.4713   19.5334 C   0  0  0  0  0  0  0  0  0  0  0  0
  -28.6049  -13.2618   20.8967 C   0  0  0  0  0  0  0  0  0  0  0  0
  -20.0785  -23.6048   23.0239 C   0  0  1  0  0  0  0  0  0  0  0  0
  -23.3700  -21.7860   22.4840 C   0  0  1  0  0  0  0  0  0  0  0  0
  -27.6343  -13.0880   19.7160 C   0  0  2  0  0  0  0  0  0  0  0  0
  -30.0197  -16.7443   27.1120 C   0  0  0  0  0  0  0  0  0  0  0  0
  -27.8357  -18.0671   17.2284 C   0  0  0  0  0  0  0  0  0  0  0  0
  -22.9419  -15.2476   27.6786 C   0  0  0  0  0  0  0  0  0  0  0  0
  -21.4221  -20.3600   18.5429 C   0  0  0  0  0  0  0  0  0  0  0  0
  -22.9407  -19.1432   16.9677 C   0  0  0  0  0  0  0  0  0  0  0  0
  -23.1472  -21.6145   17.2374 C   0  0  0  0  0  0  0  0  0  0  0  0
  -28.3474  -20.2578   20.2967 C   0  0  0  0  0  0  0  0  0  0  0  0
  -24.8706  -14.4697   26.2452 C   0  0  0  0  0  0  0  0  0  0  0  0
  -25.8561  -14.7936   25.1240 C   0  0  0  0  0  0  0  0  0  0  0  0
  -30.8581  -16.8166   21.8902 C   0  0  0  0  0  0  0  0  0  0  0  0
  -30.0134  -17.6966   22.7925 C   0  0  0  0  0  0  0  0  0  0  0  0
  -28.9390  -17.7709   25.0462 C   0  0  0  0  0  0  0  0  0  0  0  0
  -23.9290  -20.0948   19.1005 C   0  0  1  0  0  0  0  0  0  0  0  0
  -28.7188  -16.9902   26.3467 C   0  0  1  0  0  0  0  0  0  0  0  0
  -27.4979  -19.1774   18.2112 C   0  0  2  0  0  0  0  0  0  0  0  0
  -23.9479  -15.6413   26.6047 C   0  0  1  0  0  0  0  0  0  1  0  0
  -22.8598  -20.2970   17.9899 C   0  0  0  0  0  0  0  0  0  0  0  0
  -25.8121  -11.5420   20.3257 N   0  0  0  0  0  0  0  0  0  0  0  0
  -26.2153  -12.8157   20.1796 N   0  0  0  0  0  0  0  0  0  0  0  0
  -23.6253  -20.7688   21.4622 N   0  0  0  0  0  0  0  0  0  0  0  0
  -29.9647  -13.5244   20.3998 N   0  0  0  0  0  0  0  0  0  0  0  0
  -25.4920  -15.0616   20.3882 N   0  0  0  0  0  0  0  0  0  0  0  0
  -21.8515  -12.6781   21.5972 N   0  0  0  0  0  0  0  0  0  0  0  0
  -21.4694  -23.2299   22.8853 N   0  0  0  0  0  0  0  0  0  0  0  0
  -26.7418  -15.8708   25.4691 N   0  0  0  0  0  0  0  0  0  0  0  0
  -25.3020  -20.0585   18.6087 N   0  0  0  0  0  0  0  0  0  0  0  0
  -30.1711  -15.6022   21.5104 N   0  0  0  0  0  0  0  0  0  0  0  0
  -28.5422  -19.1980   19.2741 N   0  3  0  0  0  0  0  0  0  0  0  0
  -29.7128  -16.9767   24.0598 N   0  3  0  0  0  0  0  0  0  0  0  0
  -22.6714  -14.7974   21.2886 O   0  0  0  0  0  0  0  0  0  0  0  0
  -21.1539  -20.9765   22.3901 O   0  0  0  0  0  0  0  0  0  0  0  0
  -24.0783  -22.3526   19.8121 O   0  0  0  0  0  0  0  0  0  0  0  0
  -28.4230  -14.5836   26.4198 O   0  0  0  0  0  0  0  0  0  0  0  0
  -25.8113  -17.9512   19.4315 O   0  0  0  0  0  0  0  0  0  0  0  0
  -31.8983  -14.7943   20.2373 O   0  0  0  0  0  0  0  0  0  0  0  0
  -21.4666   -7.1238   21.7905 O   0  0  0  0  0  0  0  0  0  0  0  0
  -23.2347  -16.0771   25.4481 O   0  0  0  0  0  0  0  0  0  1  0  0
  -23.8003   -3.0678   24.7071 F   0  0  0  0  0  0  0  0  0  0  0  0
  -20.3895   -6.3110   24.2033 F   0  0  0  0  0  0  0  0  0  0  0  0
  1  2  1  0  0  0  0
  1  5  2  0  0  0  0
  2  6  2  0  0  0  0
  3  8  2  0  0  0  0
  3 15  1  0  0  0  0
  4  9  1  0  0  0  0
  4 15  2  0  0  0  0
  5 17  1  0  0  0  0
  6 19  1  0  0  0  0
  7 10  2  0  0  0  0
  7 18  1  0  0  0  0
  8 21  1  0  0  0  0
  9 21  2  0  0  0  0
 10 22  1  0  0  0  0
 11 12  2  0  0  0  0
 11 23  1  0  0  0  0
 12 24  1  0  0  0  0
 13 20  1  0  0  0  0
 13 22  2  0  0  0  0
 14 24  2  0  0  0  0
 14 25  1  0  0  0  0
 15 26  1  0  0  0  0
 16 26  1  0  0  0  0
 16 27  2  0  0  0  0
 16 28  1  0  0  0  0
 17 19  2  0  0  0  0
 17 34  1  0  0  0  0
 18 20  2  0  0  0  0
 18 35  1  0  0  0  0
 19 43  1  0  0  0  0
 20 36  1  0  0  0  0
 21 81  1  0  0  0  0
 22 82  1  0  0  0  0
 23 25  2  0  0  0  0
 23 81  1  0  0  0  0
 24 83  1  0  0  0  0
 25 84  1  0  0  0  0
 26 63  2  0  0  0  0
 27 64  1  0  0  0  0
 27 67  1  0  0  0  0
 28 68  1  0  0  0  0
 28 75  2  0  0  0  0
 29 44  1  0  0  0  0
 29 69  1  0  0  0  0
 29 76  2  0  0  0  0
 30 58  1  0  0  0  0
 30 65  1  0  0  0  0
 30 77  2  0  0  0  0
 31 59  1  0  0  0  0
 31 70  1  0  0  0  0
 31 78  2  0  0  0  0
 32 60  1  0  0  0  0
 32 71  1  0  0  0  0
 32 79  2  0  0  0  0
 33 66  1  0  0  0  0
 33 72  1  0  0  0  0
 33 80  2  0  0  0  0
 34 37  1  0  0  0  0
 35 44  1  0  0  0  0
 36 65  1  0  0  0  0
 37 39  1  0  0  0  0
 38 40  1  0  0  0  0
 38 41  1  0  0  0  0
 39 43  1  0  0  0  0
 40 45  1  0  0  0  0
 41 66  1  0  0  0  0
 42 45  1  0  0  0  0
 42 66  1  0  0  0  0
 43 69  1  0  0  0  0
 44 65  1  0  0  0  0
 45 64  1  0  0  0  0
 46 59  1  0  0  0  0
 47 60  1  0  0  0  0
 48 61  1  0  0  0  0
 49 62  1  0  0  0  0
 50 62  1  0  0  0  0
 51 62  1  0  0  0  0
 52 73  1  0  0  0  0
 53 54  1  0  0  0  0
 53 61  1  0  0  0  0
 54 70  1  0  0  0  0
 55 56  1  0  0  0  0
 55 72  1  0  0  0  0
 56 74  1  0  0  0  0
 57 59  1  0  0  0  0
 57 74  1  0  0  0  0
 58 62  1  0  0  0  0
 58 71  1  0  0  0  0
 60 73  1  0  0  0  0
 61 82  1  0  0  0  0
 63 64  1  0  0  0  0
M  CHG  2  73   1  74   1
M  ISO  4  33 100  61 101  72 100  82 101
M  END
> <Batch ID>
0115

> <Smiles>
CNC(C)C(=O)NC(C(=O)N1Cc2cc([101O:1][101CH:1](C)CCNC(=O)C(C)CNCC[100NH:0][100C:0](=O)N3CCCC(n4nc(-c5ccc(Oc6ccc(F)cc6F)cc5)c(C(N)=O)c4N)C3)ccc2CC1C(=O)NC1CCCc2ccccc21)C(C)(C)C

> <Shape>
0.213

> <Color>
0.189

> <Negative vol penalty>
0.000

$$$$

  -OEChem-04052320103D

 87 95  0     1  0  0  0  0  0999 V2000
  -18.2529  -26.9163   19.8061 C   0  0  0  0  0  0  0  0  0  0  0  0
  -19.4256  -27.4682   19.3004 C   0  0  0  0  0  0  0  0  0  0  0  0
  -21.5613  -17.0963   19.0255 C   0  0  0  0  0  0  0  0  0  0  0  0
  -23.3087  -17.4942   20.6457 C   0  0  0  0  0  0  0  0  0  0  0  0
  -17.8804  -27.1637   21.1267 C   0  0  0  0  0  0  0  0  0  0  0  0
  -20.2259  -28.2687   20.1148 C   0  0  0  0  0  0  0  0  0  0  0  0
  -25.1471  -27.1449   19.7098 C   0  0  0  0  0  0  0  0  0  0  0  0
  -21.6148  -15.7304   19.3031 C   0  0  0  0  0  0  0  0  0  0  0  0
  -23.3622  -16.1283   20.9234 C   0  0  0  0  0  0  0  0  0  0  0  0
  -25.8199  -27.6264   18.5876 C   0  0  0  0  0  0  0  0  0  0  0  0
  -24.6800  -13.3501   19.5178 C   0  0  0  0  0  0  0  0  0  0  0  0
  -25.9387  -12.7557   19.6067 C   0  0  0  0  0  0  0  0  0  0  0  0
  -26.7202  -29.4321   19.9098 C   0  0  0  0  0  0  0  0  0  0  0  0
  -29.3014  -24.7631   17.6756 C   0  0  0  0  0  0  0  0  0  0  0  0
  -25.4720  -12.1086   21.8872 C   0  0  0  0  0  0  0  0  0  0  0  0
  -22.4082  -17.9782   19.6968 C   0  0  0  0  0  0  0  0  0  0  0  0
  -21.5478  -20.3547   20.0424 C   0  0  0  0  0  0  0  0  0  0  0  0
  -18.6814  -27.9597   21.9606 C   0  0  0  0  0  0  0  0  0  0  0  0
  -25.2472  -27.8107   20.9399 C   0  0  0  0  0  0  0  0  0  0  0  0
  -19.8630  -28.5280   21.4474 C   0  0  0  0  0  0  0  0  0  0  0  0
  -26.0497  -28.9556   21.0466 C   0  0  0  0  0  0  0  0  0  0  0  0
  -30.3176  -25.0695   18.6138 C   0  0  0  0  0  0  0  0  0  0  0  0
  -22.5153  -15.2464   20.2521 C   0  0  0  0  0  0  0  0  0  0  0  0
  -26.6043  -28.7718   18.6868 C   0  0  0  0  0  0  0  0  0  0  0  0
  -23.8173  -13.3238   20.6136 C   0  0  0  0  0  0  0  0  0  0  0  0
  -26.3347  -12.1349   20.7914 C   0  0  0  0  0  0  0  0  0  0  0  0
  -24.2133  -12.7031   21.7983 C   0  0  0  0  0  0  0  0  0  0  0  0
  -22.3538  -19.3892   19.4100 C   0  0  0  0  0  0  0  0  0  0  0  0
  -30.0591  -24.3400   19.7533 C   0  0  0  0  0  0  0  0  0  0  0  0
  -28.4525  -23.8557   18.2703 C   0  0  0  0  0  0  0  0  0  0  0  0
  -21.8651  -21.5330   19.4120 C   0  0  0  0  0  0  0  0  0  0  0  0
  -20.5974  -20.2003   21.1047 C   0  0  0  0  0  0  0  0  0  0  0  0
  -23.1894  -29.2653   22.8772 C   0  0  0  0  0  0  0  0  0  0  0  0
  -25.7743  -29.4790   24.8253 C   0  0  0  0  0  0  0  0  0  0  0  0
  -29.1725  -29.5371   25.1341 C   0  0  0  0  0  0  0  0  0  0  0  0
  -26.7239  -23.4199   16.4903 C   0  0  0  0  0  0  0  0  0  0  0  0
  -18.2133  -28.2376   23.3671 C   0  0  0  0  0  0  0  0  0  0  0  0
  -24.5366  -27.2633   22.1472 C   0  0  0  0  0  0  0  0  0  0  0  0
  -26.2064  -29.6955   22.3491 C   0  0  0  0  0  0  0  0  0  0  0  0
  -19.3087  -28.7898   24.2756 C   0  0  0  0  0  0  0  0  0  0  0  0
  -23.4069  -23.2348   15.2096 C   0  0  0  0  0  0  0  0  0  0  0  0
  -20.0759  -29.9038   23.5705 C   0  0  0  0  0  0  0  0  0  0  0  0
  -22.6855  -22.3204   16.2023 C   0  0  0  0  0  0  0  0  0  0  0  0
  -24.8519  -22.7951   14.9803 C   0  0  0  0  0  0  0  0  0  0  0  0
  -24.9303  -21.7158   17.1935 C   0  0  0  0  0  0  0  0  0  0  0  0
  -20.7703  -29.3812   22.3070 C   0  0  1  0  0  0  0  0  0  0  0  0
  -24.2982  -28.3137   23.2276 C   0  0  1  0  0  0  0  0  0  0  0  0
  -23.4911  -22.1571   17.5061 C   0  0  2  0  0  0  0  0  0  0  0  0
  -30.7972  -24.2791   21.0332 C   0  0  0  0  0  0  0  0  0  0  0  0
  -32.7181  -25.2800   17.8876 C   0  0  0  0  0  0  0  0  0  0  0  0
  -30.9912  -29.7610   26.8487 C   0  0  0  0  0  0  0  0  0  0  0  0
  -28.3157  -21.2578   19.9949 C   0  0  0  0  0  0  0  0  0  0  0  0
  -26.9116  -23.1617   20.8947 C   0  0  0  0  0  0  0  0  0  0  0  0
  -28.3606  -31.3739   17.3315 C   0  0  0  0  0  0  0  0  0  0  0  0
  -25.2428  -32.4789   24.9938 C   0  0  0  0  0  0  0  0  0  0  0  0
  -27.5613  -32.7685   25.8933 C   0  0  0  0  0  0  0  0  0  0  0  0
  -25.8946  -31.4116   27.1596 C   0  0  0  0  0  0  0  0  0  0  0  0
  -30.2612  -26.8596   24.4980 C   0  0  0  0  0  0  0  0  0  0  0  0
  -31.1303  -27.1812   17.4427 C   0  0  0  0  0  0  0  0  0  0  0  0
  -29.6254  -29.1562   17.1712 C   0  0  0  0  0  0  0  0  0  0  0  0
  -31.4805  -26.0299   18.3944 C   0  0  1  0  0  0  0  0  0  0  0  0
  -26.8824  -30.4846   25.0249 C   0  0  1  0  0  0  0  0  0  0  0  0
  -30.1119  -28.7962   26.0685 C   0  0  2  0  0  0  0  0  0  0  0  0
  -28.3146  -22.7053   20.4904 C   0  0  0  0  0  0  0  0  0  0  0  0
  -28.4879  -29.9373   17.8211 C   0  0  2  0  0  0  0  0  0  1  0  0
  -26.3910  -31.7733   25.7428 C   0  0  0  0  0  0  0  0  0  0  0  0
  -23.1250  -19.9090   18.4513 N   0  0  0  0  0  0  0  0  0  0  0  0
  -28.9228  -23.6061   19.5331 N   0  0  0  0  0  0  0  0  0  0  0  0
  -22.8050  -21.2140   18.4766 N   0  0  0  0  0  0  0  0  0  0  0  0
  -25.4868  -29.1246   23.4996 N   0  0  0  0  0  0  0  0  0  0  0  0
  -25.5542  -22.6656   16.2589 N   0  0  0  0  0  0  0  0  0  0  0  0
  -21.4290  -22.8005   19.5722 N   0  0  0  0  0  0  0  0  0  0  0  0
  -20.3934  -18.9203   21.6379 N   0  0  0  0  0  0  0  0  0  0  0  0
  -27.2863  -23.2388   17.7534 N   0  0  0  0  0  0  0  0  0  0  0  0
  -21.9711  -28.6523   22.6550 N   0  0  0  0  0  0  0  0  0  0  0  0
  -27.9510  -29.7808   25.7256 N   0  0  0  0  0  0  0  0  0  0  0  0
  -30.9938  -27.8773   25.2947 N   0  3  0  0  0  0  0  0  0  0  0  0
  -29.9894  -27.9687   17.9837 N   0  3  0  0  0  0  0  0  0  0  0  0
  -19.9362  -21.1659   21.5562 O   0  0  0  0  0  0  0  0  0  0  0  0
  -23.4217  -30.4669   22.8146 O   0  0  0  0  0  0  0  0  0  0  0  0
  -25.1903  -29.0193   25.8098 O   0  0  0  0  0  0  0  0  0  0  0  0
  -29.4918  -29.8700   23.9949 O   0  0  0  0  0  0  0  0  0  0  0  0
  -27.1770  -24.1917   15.6411 O   0  0  0  0  0  0  0  0  0  0  0  0
  -22.5676  -13.9137   20.5235 O   0  0  0  0  0  0  0  0  0  0  0  0
  -27.2615  -29.2443   17.5929 O   0  0  0  0  0  0  0  0  0  1  0  0
  -27.5429  -11.5629   20.8762 F   0  0  0  0  0  0  0  0  0  0  0  0
  -23.3884  -12.6736   22.8540 F   0  0  0  0  0  0  0  0  0  0  0  0
  1  2  1  0  0  0  0
  1  5  2  0  0  0  0
  2  6  2  0  0  0  0
  3  8  2  0  0  0  0
  3 16  1  0  0  0  0
  4  9  1  0  0  0  0
  4 16  2  0  0  0  0
  5 18  1  0  0  0  0
  6 20  1  0  0  0  0
  7 10  2  0  0  0  0
  7 19  1  0  0  0  0
  8 23  1  0  0  0  0
  9 23  2  0  0  0  0
 10 24  1  0  0  0  0
 11 12  2  0  0  0  0
 11 25  1  0  0  0  0
 12 26  1  0  0  0  0
 13 21  1  0  0  0  0
 13 24  2  0  0  0  0
 14 22  1  0  0  0  0
 14 30  2  0  0  0  0
 15 26  2  0  0  0  0
 15 27  1  0  0  0  0
 16 28  1  0  0  0  0
 17 28  1  0  0  0  0
 17 31  2  0  0  0  0
 17 32  1  0  0  0  0
 18 20  2  0  0  0  0
 18 37  1  0  0  0  0
 19 21  2  0  0  0  0
 19 38  1  0  0  0  0
 20 46  1  0  0  0  0
 21 39  1  0  0  0  0
 22 29  2  0  0  0  0
 22 61  1  0  0  0  0
 23 84  1  0  0  0  0
 24 85  1  0  0  0  0
 25 27  2  0  0  0  0
 25 84  1  0  0  0  0
 26 86  1  0  0  0  0
 27 87  1  0  0  0  0
 28 67  2  0  0  0  0
 29 49  1  0  0  0  0
 29 68  1  0  0  0  0
 30 68  1  0  0  0  0
 30 74  1  0  0  0  0
 31 69  1  0  0  0  0
 31 72  1  0  0  0  0
 32 73  1  0  0  0  0
 32 79  2  0  0  0  0
 33 47  1  0  0  0  0
 33 75  1  0  0  0  0
 33 80  2  0  0  0  0
 34 62  1  0  0  0  0
 34 70  1  0  0  0  0
 34 81  2  0  0  0  0
 35 63  1  0  0  0  0
 35 76  1  0  0  0  0
 35 82  2  0  0  0  0
 36 71  1  0  0  0  0
 36 74  1  0  0  0  0
 36 83  2  0  0  0  0
 37 40  1  0  0  0  0
 38 47  1  0  0  0  0
 39 70  1  0  0  0  0
 40 42  1  0  0  0  0
 41 43  1  0  0  0  0
 41 44  1  0  0  0  0
 42 46  1  0  0  0  0
 43 48  1  0  0  0  0
 44 71  1  0  0  0  0
 45 48  1  0  0  0  0
 45 71  1  0  0  0  0
 46 75  1  0  0  0  0
 47 70  1  0  0  0  0
 48 69  1  0  0  0  0
 50 61  1  0  0  0  0
 51 63  1  0  0  0  0
 52 64  1  0  0  0  0
 53 64  1  0  0  0  0
 54 65  1  0  0  0  0
 55 66  1  0  0  0  0
 56 66  1  0  0  0  0
 57 66  1  0  0  0  0
 58 77  1  0  0  0  0
 59 61  1  0  0  0  0
 59 78  1  0  0  0  0
 60 65  1  0  0  0  0
 60 78  1  0  0  0  0
 62 66  1  0  0  0  0
 62 76  1  0  0  0  0
 63 77  1  0  0  0  0
 64 68  1  0  0  0  0
 65 85  1  0  0  0  0
 67 69  1  0  0  0  0
M  CHG  2  77   1  78   1
M  ISO  4  36 100  65 101  74 100  85 101
M  END
> <Batch ID>
0115

> <Smiles>
CNC(C)C(=O)NC(C(=O)N1Cc2cc([101O:1][101CH:1](C)CNCC(C)c3cc([100NH:0][100C:0](=O)N4CCCC(n5nc(-c6ccc(Oc7ccc(F)cc7F)cc6)c(C(N)=O)c5N)C4)n(C(C)C)c3C)ccc2CC1C(=O)NC1CCCc2ccccc21)C(C)(C)C

> <Shape>
0.223

> <Color>
0.068

> <Negative vol penalty>
0.000

$$$$

  -OEChem-04052320103D

 87 95  0     1  0  0  0  0  0999 V2000
  -22.4637   -6.8580   23.7959 C   0  0  0  0  0  0  0  0  0  0  0  0
  -23.7889   -7.2429   23.9721 C   0  0  0  0  0  0  0  0  0  0  0  0
  -26.1785  -30.2133   20.0627 C   0  0  0  0  0  0  0  0  0  0  0  0
  -25.3992  -28.6386   21.7209 C   0  0  0  0  0  0  0  0  0  0  0  0
  -21.7278   -7.3659   22.7261 C   0  0  0  0  0  0  0  0  0  0  0  0
  -24.3794   -8.1352   23.0779 C   0  0  0  0  0  0  0  0  0  0  0  0
  -29.2358  -13.3954   22.8280 C   0  0  0  0  0  0  0  0  0  0  0  0
  -25.0060  -30.9535   20.2145 C   0  0  0  0  0  0  0  0  0  0  0  0
  -24.2267  -29.3788   21.8728 C   0  0  0  0  0  0  0  0  0  0  0  0
  -30.3762  -13.7757   22.1220 C   0  0  0  0  0  0  0  0  0  0  0  0
  -20.8707  -30.6551   22.4368 C   0  0  0  0  0  0  0  0  0  0  0  0
  -19.6642  -29.9566   22.4808 C   0  0  0  0  0  0  0  0  0  0  0  0
  -30.0731  -19.1917   20.0312 C   0  0  0  0  0  0  0  0  0  0  0  0
  -28.9843  -14.6497   20.3562 C   0  0  0  0  0  0  0  0  0  0  0  0
  -20.0924  -29.0776   20.2715 C   0  0  0  0  0  0  0  0  0  0  0  0
  -30.5513  -19.7966   22.1467 C   0  0  0  0  0  0  0  0  0  0  0  0
  -26.3751  -29.0558   20.8158 C   0  0  0  0  0  0  0  0  0  0  0  0
  -30.9976  -19.0304   21.0925 C   0  0  0  0  0  0  0  0  0  0  0  0
  -28.7888  -28.4468   21.3732 C   0  0  0  0  0  0  0  0  0  0  0  0
  -22.3066   -8.2724   21.8240 C   0  0  0  0  0  0  0  0  0  0  0  0
  -27.9590  -13.6299   22.2976 C   0  0  0  0  0  0  0  0  0  0  0  0
  -23.6509   -8.6547   21.9943 C   0  0  0  0  0  0  0  0  0  0  0  0
  -27.8292  -14.2737   21.0587 C   0  0  0  0  0  0  0  0  0  0  0  0
  -24.0302  -30.5362   21.1196 C   0  0  0  0  0  0  0  0  0  0  0  0
  -30.2507  -14.4004   20.8846 C   0  0  0  0  0  0  0  0  0  0  0  0
  -21.6881  -30.5649   21.3101 C   0  0  0  0  0  0  0  0  0  0  0  0
  -19.2750  -29.1679   21.3982 C   0  0  0  0  0  0  0  0  0  0  0  0
  -21.2990  -29.7762   20.2275 C   0  0  0  0  0  0  0  0  0  0  0  0
  -27.5858  -28.2905   20.6590 C   0  0  0  0  0  0  0  0  0  0  0  0
  -29.0902  -20.0516   20.4690 C   0  0  0  0  0  0  0  0  0  0  0  0
  -29.6231  -27.4868   20.8548 C   0  0  0  0  0  0  0  0  0  0  0  0
  -32.2359  -18.1984   21.1128 C   0  0  0  0  0  0  0  0  0  0  0  0
  -29.1224  -29.3767   22.4123 C   0  0  0  0  0  0  0  0  0  0  0  0
  -25.5225  -11.7880   21.4176 C   0  0  0  0  0  0  0  0  0  0  0  0
  -24.0219  -14.6355   21.0149 C   0  0  0  0  0  0  0  0  0  0  0  0
  -24.2786  -17.9914   20.4502 C   0  0  0  0  0  0  0  0  0  0  0  0
  -28.6171  -22.2595   18.1135 C   0  0  0  0  0  0  0  0  0  0  0  0
  -21.4857   -8.7579   20.6556 C   0  0  0  0  0  0  0  0  0  0  0  0
  -26.7382  -13.2377   23.0838 C   0  0  0  0  0  0  0  0  0  0  0  0
  -26.4809  -14.5666   20.4547 C   0  0  0  0  0  0  0  0  0  0  0  0
  -22.0721   -9.9887   19.9688 C   0  0  0  0  0  0  0  0  0  0  0  0
  -30.4598  -25.0260   16.8379 C   0  0  0  0  0  0  0  0  0  0  0  0
  -23.5682   -9.8066   19.7333 C   0  0  0  0  0  0  0  0  0  0  0  0
  -30.0408  -26.1904   17.7370 C   0  0  0  0  0  0  0  0  0  0  0  0
  -29.2969  -24.0733   16.5695 C   0  0  0  0  0  0  0  0  0  0  0  0
  -28.2012  -24.7305   18.6769 C   0  0  0  0  0  0  0  0  0  0  0  0
  -24.3192   -9.6398   21.0599 C   0  0  1  0  0  0  0  0  0  0  0  0
  -25.4977  -13.0623   22.2134 C   0  0  1  0  0  0  0  0  0  0  0  0
  -29.3546  -25.6882   19.0216 C   0  0  2  0  0  0  0  0  0  0  0  0
  -23.5315  -20.3733   20.1937 C   0  0  0  0  0  0  0  0  0  0  0  0
  -29.3986  -22.5642   22.9651 C   0  0  0  0  0  0  0  0  0  0  0  0
  -28.0620  -20.5952   23.8271 C   0  0  0  0  0  0  0  0  0  0  0  0
  -23.3511  -13.7386   18.1766 C   0  0  0  0  0  0  0  0  0  0  0  0
  -22.8192  -16.1219   17.6238 C   0  0  0  0  0  0  0  0  0  0  0  0
  -21.4943  -14.9212   19.3632 C   0  0  0  0  0  0  0  0  0  0  0  0
  -24.5664  -18.5156   23.3488 C   0  0  0  0  0  0  0  0  0  0  0  0
  -34.6241  -16.3052   18.0202 C   0  0  0  0  0  0  0  0  0  0  0  0
  -27.8920  -20.5574   19.7678 C   0  0  0  0  0  0  0  0  0  0  0  0
  -32.6019  -17.4018   19.8661 C   0  0  0  0  0  0  0  0  0  0  0  0
  -32.5164  -15.1193   20.9569 C   0  0  0  0  0  0  0  0  0  1  0  0
  -23.8717  -15.6130   19.8743 C   0  0  1  0  0  0  0  0  0  0  0  0
  -23.6263  -19.1804   21.1322 C   0  0  2  0  0  0  0  0  0  0  0  0
  -28.6152  -21.3048   22.5897 C   0  0  0  0  0  0  0  0  0  0  0  0
  -33.3684  -16.1114   20.1706 C   0  0  1  0  0  0  0  0  0  0  0  0
  -22.9097  -15.0915   18.7697 C   0  0  0  0  0  0  0  0  0  0  0  0
  -27.6463  -27.3085   19.7557 N   0  0  0  0  0  0  0  0  0  0  0  0
  -29.3913  -20.4131   21.7561 N   0  0  0  0  0  0  0  0  0  0  0  0
  -28.8974  -26.8392   19.8986 N   0  0  0  0  0  0  0  0  0  0  0  0
  -25.3174  -14.1582   21.2590 N   0  0  0  0  0  0  0  0  0  0  0  0
  -28.6911  -23.6329   17.8284 N   0  0  0  0  0  0  0  0  0  0  0  0
  -30.8993  -27.1418   21.1280 N   0  0  0  0  0  0  0  0  0  0  0  0
  -28.1475  -30.2951   22.8252 N   0  0  0  0  0  0  0  0  0  0  0  0
  -24.4866  -10.9216   21.7105 N   0  0  0  0  0  0  0  0  0  0  0  0
  -23.4638  -16.8793   20.4729 N   0  0  0  0  0  0  0  0  0  0  0  0
  -28.0340  -21.9283   19.3306 N   0  0  0  0  0  0  0  0  0  0  0  0
  -24.4138  -19.5865   22.3305 N   0  3  0  0  0  0  0  0  0  0  0  0
  -33.7532  -15.4649   18.8780 N   0  3  0  0  0  0  0  0  0  0  0  0
  -32.9199  -18.1690   22.1332 O   0  0  0  0  0  0  0  0  0  0  0  0
  -30.2568  -29.4035   22.9470 O   0  0  0  0  0  0  0  0  0  0  0  0
  -26.4145  -11.6051   20.5975 O   0  0  0  0  0  0  0  0  0  0  0  0
  -23.0275  -14.3131   21.6698 O   0  0  0  0  0  0  0  0  0  0  0  0
  -25.3975  -18.0450   19.9445 O   0  0  0  0  0  0  0  0  0  0  0  0
  -29.0441  -21.3928   17.3432 O   0  0  0  0  0  0  0  0  0  0  0  0
  -22.8861  -31.2584   21.2682 O   0  0  0  0  0  0  0  0  0  0  0  0
  -31.3622  -14.7720   20.1931 O   0  0  0  0  0  0  0  0  0  1  0  0
  -18.1171  -28.4959   21.4412 F   0  0  0  0  0  0  0  0  0  0  0  0
  -22.0806  -29.6847   19.1428 F   0  0  0  0  0  0  0  0  0  0  0  0
  1  2  1  0  0  0  0
  1  5  2  0  0  0  0
  2  6  2  0  0  0  0
  3  8  2  0  0  0  0
  3 17  1  0  0  0  0
  4  9  1  0  0  0  0
  4 17  2  0  0  0  0
  5 20  1  0  0  0  0
  6 22  1  0  0  0  0
  7 10  2  0  0  0  0
  7 21  1  0  0  0  0
  8 24  1  0  0  0  0
  9 24  2  0  0  0  0
 10 25  1  0  0  0  0
 11 12  2  0  0  0  0
 11 26  1  0  0  0  0
 12 27  1  0  0  0  0
 13 18  1  0  0  0  0
 13 30  2  0  0  0  0
 14 23  1  0  0  0  0
 14 25  2  0  0  0  0
 15 27  2  0  0  0  0
 15 28  1  0  0  0  0
 16 18  2  0  0  0  0
 16 67  1  0  0  0  0
 17 29  1  0  0  0  0
 18 32  1  0  0  0  0
 19 29  1  0  0  0  0
 19 31  2  0  0  0  0
 19 33  1  0  0  0  0
 20 22  2  0  0  0  0
 20 38  1  0  0  0  0
 21 23  2  0  0  0  0
 21 39  1  0  0  0  0
 22 47  1  0  0  0  0
 23 40  1  0  0  0  0
 24 84  1  0  0  0  0
 25 85  1  0  0  0  0
 26 28  2  0  0  0  0
 26 84  1  0  0  0  0
 27 86  1  0  0  0  0
 28 87  1  0  0  0  0
 29 66  2  0  0  0  0
 30 58  1  0  0  0  0
 30 67  1  0  0  0  0
 31 68  1  0  0  0  0
 31 71  1  0  0  0  0
 32 59  1  0  0  0  0
 32 78  2  0  0  0  0
 33 72  1  0  0  0  0
 33 79  2  0  0  0  0
 34 48  1  0  0  0  0
 34 73  1  0  0  0  0
 34 80  2  0  0  0  0
 35 61  1  0  0  0  0
 35 69  1  0  0  0  0
 35 81  2  0  0  0  0
 36 62  1  0  0  0  0
 36 74  1  0  0  0  0
 36 82  2  0  0  0  0
 37 70  1  0  0  0  0
 37 75  1  0  0  0  0
 37 83  2  0  0  0  0
 38 41  1  0  0  0  0
 39 48  1  0  0  0  0
 40 69  1  0  0  0  0
 41 43  1  0  0  0  0
 42 44  1  0  0  0  0
 42 45  1  0  0  0  0
 43 47  1  0  0  0  0
 44 49  1  0  0  0  0
 45 70  1  0  0  0  0
 46 49  1  0  0  0  0
 46 70  1  0  0  0  0
 47 73  1  0  0  0  0
 48 69  1  0  0  0  0
 49 68  1  0  0  0  0
 50 62  1  0  0  0  0
 51 63  1  0  0  0  0
 52 63  1  0  0  0  0
 53 65  1  0  0  0  0
 54 65  1  0  0  0  0
 55 65  1  0  0  0  0
 56 76  1  0  0  0  0
 57 77  1  0  0  0  0
 58 75  1  0  0  0  0
 59 64  1  0  0  0  0
 60 64  1  0  0  0  0
 60 85  1  0  0  0  0
 61 65  1  0  0  0  0
 61 74  1  0  0  0  0
 62 76  1  0  0  0  0
 63 67  1  0  0  0  0
 64 77  1  0  0  0  0
 66 68  1  0  0  0  0
M  CHG  2  76   1  77   1
M  ISO  4  37 100  60 101  75 100  85 101
M  END
> <Batch ID>
0115

> <Smiles>
CNC(C)C(=O)NC(C(=O)N1Cc2cc([101O:1][101CH2:1]C(CC(=O)c3cc(C[100NH:0][100C:0](=O)N4CCCC(n5nc(-c6ccc(Oc7ccc(F)cc7F)cc6)c(C(N)=O)c5N)C4)n(C(C)C)c3)NC)ccc2CC1C(=O)NC1CCCc2ccccc21)C(C)(C)C

> <Shape>
0.282

> <Color>
0.070

> <Negative vol penalty>
0.000

$$$$

  -OEChem-04052320103D

 89 97  0     1  0  0  0  0  0999 V2000
  -25.8114  -38.3212   20.6628 C   0  0  0  0  0  0  0  0  0  0  0  0
  -26.4695  -37.3004   19.9844 C   0  0  0  0  0  0  0  0  0  0  0  0
  -23.7094  -12.8212   23.4482 C   0  0  0  0  0  0  0  0  0  0  0  0
  -26.0024  -13.5268   23.7333 C   0  0  0  0  0  0  0  0  0  0  0  0
  -25.2373  -38.0716   21.9086 C   0  0  0  0  0  0  0  0  0  0  0  0
  -26.5548  -36.0295   20.5519 C   0  0  0  0  0  0  0  0  0  0  0  0
  -26.7243  -29.1029   18.7329 C   0  0  0  0  0  0  0  0  0  0  0  0
  -23.5093  -12.9148   24.8255 C   0  0  0  0  0  0  0  0  0  0  0  0
  -25.8024  -13.6204   25.1106 C   0  0  0  0  0  0  0  0  0  0  0  0
  -27.4848  -27.9530   18.9407 C   0  0  0  0  0  0  0  0  0  0  0  0
  -22.9486  -15.3520   27.1011 C   0  0  0  0  0  0  0  0  0  0  0  0
  -21.7828  -15.9756   27.5459 C   0  0  0  0  0  0  0  0  0  0  0  0
  -26.3868  -27.6174   21.0622 C   0  0  0  0  0  0  0  0  0  0  0  0
  -21.1254  -13.9423   28.6732 C   0  0  0  0  0  0  0  0  0  0  0  0
  -24.9560  -13.1272   22.9022 C   0  0  0  0  0  0  0  0  0  0  0  0
  -24.4808  -13.7359   20.4708 C   0  0  0  0  0  0  0  0  0  0  0  0
  -25.3072  -36.7945   22.4873 C   0  0  0  0  0  0  0  0  0  0  0  0
  -25.7955  -29.5254   19.6948 C   0  0  0  0  0  0  0  0  0  0  0  0
  -25.9822  -35.7629   21.8072 C   0  0  0  0  0  0  0  0  0  0  0  0
  -25.6139  -28.7716   20.8631 C   0  0  0  0  0  0  0  0  0  0  0  0
  -24.5558  -13.3145   25.6567 C   0  0  0  0  0  0  0  0  0  0  0  0
  -27.3183  -27.2117   20.1068 C   0  0  0  0  0  0  0  0  0  0  0  0
  -23.2027  -14.0236   27.4423 C   0  0  0  0  0  0  0  0  0  0  0  0
  -20.8713  -15.2708   28.3320 C   0  0  0  0  0  0  0  0  0  0  0  0
  -22.2911  -13.3188   28.2284 C   0  0  0  0  0  0  0  0  0  0  0  0
  -25.1635  -13.0301   21.4796 C   0  0  0  0  0  0  0  0  0  0  0  0
  -25.0432  -13.2907   19.2996 C   0  0  0  0  0  0  0  0  0  0  0  0
  -30.7796  -16.6540   18.0857 C   0  0  0  0  0  0  0  0  0  0  0  0
  -23.4321  -14.7073   20.5826 C   0  0  0  0  0  0  0  0  0  0  0  0
  -25.4620  -32.1173   21.5043 C   0  0  0  0  0  0  0  0  0  0  0  0
  -22.6567  -30.7090   22.3225 C   0  0  0  0  0  0  0  0  0  0  0  0
  -20.8297  -27.8406   22.6072 C   0  0  0  0  0  0  0  0  0  0  0  0
  -30.3837  -10.9258   17.9815 C   0  0  0  0  0  0  0  0  0  0  0  0
  -24.7123  -36.5849   23.8573 C   0  0  0  0  0  0  0  0  0  0  0  0
  -24.9638  -30.7532   19.4435 C   0  0  0  0  0  0  0  0  0  0  0  0
  -24.6155  -29.1713   21.9176 C   0  0  0  0  0  0  0  0  0  0  0  0
  -31.1311  -17.6587   19.1539 C   0  0  0  0  0  0  0  0  0  0  0  0
  -24.5222  -35.1144   24.2203 C   0  0  0  0  0  0  0  0  0  0  0  0
  -27.1911   -9.4630   17.3951 C   0  0  0  0  0  0  0  0  0  0  0  0
  -25.7765  -34.3146   23.8823 C   0  0  0  0  0  0  0  0  0  0  0  0
  -26.2478  -10.2750   18.2844 C   0  0  0  0  0  0  0  0  0  0  0  0
  -28.5528   -9.2588   18.0553 C   0  0  0  0  0  0  0  0  0  0  0  0
  -28.2725  -11.3097   19.3928 C   0  0  0  0  0  0  0  0  0  0  0  0
  -31.0757  -19.0646   18.5835 C   0  0  0  0  0  0  0  0  0  0  0  0
  -29.4808  -18.3353   16.7925 C   0  0  0  0  0  0  0  0  0  0  0  0
  -26.0743  -34.3648   22.3789 C   0  0  1  0  0  0  0  0  0  0  0  0
  -29.5175  -16.8855   17.2773 C   0  0  2  0  0  0  0  0  0  0  0  0
  -24.4144  -31.3751   20.7236 C   0  0  1  0  0  0  0  0  0  0  0  0
  -26.9052  -11.5896   18.7460 C   0  0  2  0  0  0  0  0  0  0  0  0
  -18.5815  -27.0018   23.3418 C   0  0  0  0  0  0  0  0  0  0  0  0
  -27.0812  -16.2834   17.2025 C   0  0  0  0  0  0  0  0  0  0  0  0
  -28.5773  -15.2501   18.9339 C   0  0  0  0  0  0  0  0  0  0  0  0
  -23.4992  -31.0125   25.2393 C   0  0  0  0  0  0  0  0  0  0  0  0
  -21.7284  -29.3517   25.8510 C   0  0  0  0  0  0  0  0  0  0  0  0
  -21.0913  -31.5180   24.7909 C   0  0  0  0  0  0  0  0  0  0  0  0
  -20.2053  -26.8031   19.9067 C   0  0  0  0  0  0  0  0  0  0  0  0
  -29.0093  -23.0384   18.3254 C   0  0  0  0  0  0  0  0  0  0  0  0
  -29.1480  -21.5641   18.7073 C   0  0  0  0  0  0  0  0  0  0  0  0
  -28.5636  -23.8822   19.5176 C   0  0  0  0  0  0  0  0  0  0  0  0
  -32.0171  -13.5319   16.7262 C   0  0  0  0  0  0  0  0  0  0  0  0
  -31.0711  -14.7238   16.8490 C   0  0  0  0  0  0  0  0  0  0  0  0
  -32.1246  -12.6945   17.9984 C   0  0  0  0  0  0  0  0  0  0  0  0
  -29.5576  -20.7251   17.5059 C   0  0  0  0  0  0  0  0  0  0  0  0
  -28.4646  -25.3574   19.1562 C   0  0  0  0  0  0  0  0  0  1  0  0
  -22.2199  -29.7389   23.3935 C   0  0  1  0  0  0  0  0  0  0  0  0
  -19.4160  -27.4994   22.1718 C   0  0  2  0  0  0  0  0  0  0  0  0
  -28.2938  -16.5011   18.1051 C   0  0  0  0  0  0  0  0  0  0  0  0
  -22.1550  -30.3985   24.7999 C   0  0  0  0  0  0  0  0  0  0  0  0
  -26.0887  -12.1994   20.9918 N   0  0  0  0  0  0  0  0  0  0  0  0
  -31.5225  -15.6103   17.9107 N   0  0  0  0  0  0  0  0  0  0  0  0
  -25.9913  -12.3804   19.6637 N   0  0  0  0  0  0  0  0  0  0  0  0
  -23.8306  -30.3829   21.6286 N   0  0  0  0  0  0  0  0  0  0  0  0
  -29.1227  -10.5437   18.4681 N   0  0  0  0  0  0  0  0  0  0  0  0
  -24.8141  -13.5928   18.0039 N   0  0  0  0  0  0  0  0  0  0  0  0
  -23.7832  -16.0594   20.6958 N   0  0  0  0  0  0  0  0  0  0  0  0
  -25.1982  -33.4648   21.6598 N   0  0  0  0  0  0  0  0  0  0  0  0
  -20.9540  -29.1729   22.9399 N   0  0  0  0  0  0  0  0  0  0  0  0
  -30.8475  -12.1611   18.4170 N   0  0  0  0  0  0  0  0  0  0  0  0
  -29.7259  -19.2938   17.9387 N   0  3  2  0  0  0  0  0  0  0  0  0
  -19.4381  -26.4385   21.1254 N   0  3  0  0  0  0  0  0  0  0  0  0
  -22.2202  -14.3842   20.5986 O   0  0  0  0  0  0  0  0  0  0  0  0
  -26.4366  -31.5121   21.9349 O   0  0  0  0  0  0  0  0  0  0  0  0
  -21.9774  -31.7153   22.1045 O   0  0  0  0  0  0  0  0  0  0  0  0
  -21.7323  -27.0077   22.6515 O   0  0  0  0  0  0  0  0  0  0  0  0
  -31.0448  -10.2210   17.2113 O   0  0  0  0  0  0  0  0  0  0  0  0
  -24.3609  -13.4062   27.0006 O   0  0  0  0  0  0  0  0  0  0  0  0
  -28.0598  -26.0893   20.3124 O   0  0  0  0  0  0  0  0  0  1  0  0
  -19.7526  -15.8702   28.7603 F   0  0  0  0  0  0  0  0  0  0  0  0
  -22.5304  -12.0427   28.5604 F   0  0  0  0  0  0  0  0  0  0  0  0
  1  2  1  0  0  0  0
  1  5  2  0  0  0  0
  2  6  2  0  0  0  0
  3  8  2  0  0  0  0
  3 15  1  0  0  0  0
  4  9  1  0  0  0  0
  4 15  2  0  0  0  0
  5 17  1  0  0  0  0
  6 19  1  0  0  0  0
  7 10  2  0  0  0  0
  7 18  1  0  0  0  0
  8 21  1  0  0  0  0
  9 21  2  0  0  0  0
 10 22  1  0  0  0  0
 11 12  2  0  0  0  0
 11 23  1  0  0  0  0
 12 24  1  0  0  0  0
 13 20  1  0  0  0  0
 13 22  2  0  0  0  0
 14 24  2  0  0  0  0
 14 25  1  0  0  0  0
 15 26  1  0  0  0  0
 16 26  1  0  0  0  0
 16 27  2  0  0  0  0
 16 29  1  0  0  0  0
 17 19  2  0  0  0  0
 17 34  1  0  0  0  0
 18 20  2  0  0  0  0
 18 35  1  0  0  0  0
 19 46  1  0  0  0  0
 20 36  1  0  0  0  0
 21 86  1  0  0  0  0
 22 87  1  0  0  0  0
 23 25  2  0  0  0  0
 23 86  1  0  0  0  0
 24 88  1  0  0  0  0
 25 89  1  0  0  0  0
 26 69  2  0  0  0  0
 27 71  1  0  0  0  0
 27 74  1  0  0  0  0
 28 37  1  0  0  0  0
 28 47  1  0  0  0  0
 28 70  2  0  0  0  0
 29 75  1  0  0  0  0
 29 81  2  0  0  0  0
 30 48  1  0  0  0  0
 30 76  1  0  0  0  0
 30 82  2  0  0  0  0
 31 65  1  0  0  0  0
 31 72  1  0  0  0  0
 31 83  2  0  0  0  0
 32 66  1  0  0  0  0
 32 77  1  0  0  0  0
 32 84  2  0  0  0  0
 33 73  1  0  0  0  0
 33 78  1  0  0  0  0
 33 85  2  0  0  0  0
 34 38  1  0  0  0  0
 35 48  1  0  0  0  0
 36 72  1  0  0  0  0
 37 44  1  0  0  0  0
 38 40  1  0  0  0  0
 39 41  1  0  0  0  0
 39 42  1  0  0  0  0
 40 46  1  0  0  0  0
 41 49  1  0  0  0  0
 42 73  1  0  0  0  0
 43 49  1  0  0  0  0
 43 73  1  0  0  0  0
 44 79  1  0  0  0  0
 45 47  1  0  0  0  0
 45 79  1  0  0  0  0
 46 76  1  0  0  0  0
 47 67  1  0  0  0  0
 48 72  1  0  0  0  0
 49 71  1  0  0  0  0
 50 66  1  0  0  0  0
 51 67  1  0  0  0  0
 52 67  1  0  0  0  0
 53 68  1  0  0  0  0
 54 68  1  0  0  0  0
 55 68  1  0  0  0  0
 56 80  1  0  0  0  0
 57 58  1  0  0  0  0
 57 59  1  0  0  0  0
 58 63  1  0  0  0  0
 59 64  1  0  0  0  0
 60 61  1  0  0  0  0
 60 62  1  0  0  0  0
 61 70  1  0  0  0  0
 62 78  1  0  0  0  0
 63 79  1  0  0  0  0
 64 87  1  0  0  0  0
 65 68  1  0  0  0  0
 65 77  1  0  0  0  0
 66 80  1  0  0  0  0
 69 71  1  0  0  0  0
M  CHG  2  79   1  80   1
M  ISO  4  33 100  64 101  78 100  87 101
M  END
> <Batch ID>
0115

> <Smiles>
CNC(C)C(=O)NC(C(=O)N1Cc2cc([101O:1][101CH2:1]CCCCN3CC=C(NCCC[100NH:0][100C:0](=O)N4CCCC(n5nc(-c6ccc(Oc7ccc(F)cc7F)cc6)c(C(N)=O)c5N)C4)C(C(C)C)C3)ccc2CC1C(=O)NC1CCCc2ccccc21)C(C)(C)C

> <Shape>
0.238

> <Color>
0.098

> <Negative vol penalty>
0.000

$$$$

  -OEChem-04052320103D

 86 95  0     1  0  0  0  0  0999 V2000
  -17.8226  -26.4131   22.7901 C   0  0  0  0  0  0  0  0  0  0  0  0
  -19.0277  -26.0199   23.3632 C   0  0  0  0  0  0  0  0  0  0  0  0
  -24.1412   -9.0234   21.0158 C   0  0  0  0  0  0  0  0  0  0  0  0
  -25.3205   -9.7965   22.9776 C   0  0  0  0  0  0  0  0  0  0  0  0
  -17.7938  -27.4804   21.8935 C   0  0  0  0  0  0  0  0  0  0  0  0
  -20.2050  -26.6932   23.0391 C   0  0  0  0  0  0  0  0  0  0  0  0
  -27.3011  -22.3694   26.4297 C   0  0  0  0  0  0  0  0  0  0  0  0
  -28.3726  -23.2955   24.4724 C   0  0  0  0  0  0  0  0  0  0  0  0
  -24.9575  -27.7902   26.7427 C   0  0  0  0  0  0  0  0  0  0  0  0
  -27.5739  -23.5421   27.1340 C   0  0  0  0  0  0  0  0  0  0  0  0
  -28.6454  -24.4683   25.1766 C   0  0  0  0  0  0  0  0  0  0  0  0
  -24.0382   -7.7515   21.5788 C   0  0  0  0  0  0  0  0  0  0  0  0
  -25.2175   -8.5245   23.5407 C   0  0  0  0  0  0  0  0  0  0  0  0
  -26.1840  -27.1487   26.9098 C   0  0  0  0  0  0  0  0  0  0  0  0
  -22.1231   -6.1996   23.8933 C   0  0  0  0  0  0  0  0  0  0  0  0
  -20.8889   -5.5543   23.8159 C   0  0  0  0  0  0  0  0  0  0  0  0
  -27.2130  -28.7403   25.4175 C   0  0  0  0  0  0  0  0  0  0  0  0
  -21.9105   -3.7489   22.5773 C   0  0  0  0  0  0  0  0  0  0  0  0
  -24.7824  -10.0459   21.7151 C   0  0  0  0  0  0  0  0  0  0  0  0
  -23.8339  -12.2059   20.7443 C   0  0  0  0  0  0  0  0  0  0  0  0
  -27.7005  -22.2461   25.0990 C   0  0  0  0  0  0  0  0  0  0  0  0
  -18.9699  -28.1733   21.5656 C   0  0  0  0  0  0  0  0  0  0  0  0
  -24.8471  -28.9069   25.9017 C   0  0  0  0  0  0  0  0  0  0  0  0
  -20.1922  -27.7699   22.1362 C   0  0  0  0  0  0  0  0  0  0  0  0
  -25.9845  -29.3957   25.2434 C   0  0  0  0  0  0  0  0  0  0  0  0
  -28.2460  -24.5915   26.5074 C   0  0  0  0  0  0  0  0  0  0  0  0
  -24.5763   -7.5020   22.8413 C   0  0  0  0  0  0  0  0  0  0  0  0
  -27.3114  -27.6220   26.2450 C   0  0  0  0  0  0  0  0  0  0  0  0
  -23.2510   -5.6195   23.3127 C   0  0  0  0  0  0  0  0  0  0  0  0
  -20.7826   -4.3290   23.1579 C   0  0  0  0  0  0  0  0  0  0  0  0
  -23.1447   -4.3942   22.6548 C   0  0  0  0  0  0  0  0  0  0  0  0
  -24.8896  -11.3599   21.1337 C   0  0  0  0  0  0  0  0  0  0  0  0
  -24.4561  -13.3284   20.2549 C   0  0  0  0  0  0  0  0  0  0  0  0
  -22.4175  -11.9960   20.8183 C   0  0  0  0  0  0  0  0  0  0  0  0
  -23.2231  -29.5661   23.2500 C   0  0  0  0  0  0  0  0  0  0  0  0
  -28.4062  -17.2571   20.7563 C   0  0  0  0  0  0  0  0  0  0  0  0
  -24.4346  -32.5394   23.7126 C   0  0  0  0  0  0  0  0  0  0  0  0
  -26.8738  -34.4929   25.0839 C   0  0  0  0  0  0  0  0  0  0  0  0
  -18.8965  -29.2905   20.5551 C   0  0  0  0  0  0  0  0  0  0  0  0
  -23.5225  -29.6037   25.7529 C   0  0  0  0  0  0  0  0  0  0  0  0
  -25.9233  -30.6032   24.3452 C   0  0  0  0  0  0  0  0  0  0  0  0
  -20.1293  -30.1908   20.5518 C   0  0  0  0  0  0  0  0  0  0  0  0
  -29.3043  -14.1913   19.1333 C   0  0  0  0  0  0  0  0  0  0  0  0
  -28.6922  -20.2573   23.8871 C   0  0  0  0  0  0  0  0  0  0  0  0
  -26.4760  -21.2262   23.1325 C   0  0  0  0  0  0  0  0  0  0  0  0
  -21.4031  -29.3517   20.5622 C   0  0  0  0  0  0  0  0  0  0  0  0
  -28.3835  -18.9677   23.1271 C   0  0  0  0  0  0  0  0  0  0  0  0
  -26.1729  -19.9342   22.3744 C   0  0  0  0  0  0  0  0  0  0  0  0
  -28.1646  -13.2426   19.5021 C   0  0  0  0  0  0  0  0  0  0  0  0
  -29.6179  -15.1568   20.2720 C   0  0  0  0  0  0  0  0  0  0  0  0
  -27.2969  -14.9960   21.1139 C   0  0  0  0  0  0  0  0  0  0  0  0
  -27.4041  -20.9702   24.3319 C   0  0  0  0  0  0  0  0  0  0  0  0
  -21.4866  -28.4912   21.8287 C   0  0  1  0  0  0  0  0  0  0  0  0
  -23.4185  -30.4218   24.4695 C   0  0  1  0  0  0  0  0  0  0  0  0
  -27.4575  -19.2223   21.9305 C   0  0  0  0  0  0  0  0  0  0  0  0
  -26.9276  -14.0239   19.9794 C   0  0  2  0  0  0  0  0  0  0  0  0
  -29.8962  -25.8173   27.9626 C   0  0  0  0  0  0  0  0  0  0  0  0
  -26.2251  -18.1483   20.0161 C   0  0  0  0  0  0  0  0  0  0  0  0
  -27.6170  -36.8834   25.2589 C   0  0  0  0  0  0  0  0  0  0  0  0
  -25.4924  -32.4173   20.8532 C   0  0  0  0  0  0  0  0  0  0  0  0
  -26.9903  -34.3477   21.3990 C   0  0  0  0  0  0  0  0  0  0  0  0
  -24.5135  -34.6229   21.5100 C   0  0  0  0  0  0  0  0  0  0  0  0
  -26.5960  -34.4850   28.0304 C   0  0  0  0  0  0  0  0  0  0  0  0
  -28.5397  -25.8627   27.2708 C   0  0  1  0  0  0  0  0  0  1  0  0
  -27.1284  -17.9129   21.2159 C   0  0  1  0  0  0  0  0  0  0  0  0
  -25.6901  -33.2607   23.2854 C   0  0  1  0  0  0  0  0  0  0  0  0
  -26.8008  -35.7714   25.8992 C   0  0  2  0  0  0  0  0  0  0  0  0
  -25.6727  -33.6382   21.7772 C   0  0  0  0  0  0  0  0  0  0  0  0
  -26.0912  -11.8988   20.9108 N   0  0  0  0  0  0  0  0  0  0  0  0
  -25.7945  -13.0954   20.3760 N   0  0  0  0  0  0  0  0  0  0  0  0
  -24.6042  -31.2462   24.2271 N   0  0  0  0  0  0  0  0  0  0  0  0
  -28.4132  -15.8629   20.7118 N   0  0  0  0  0  0  0  0  0  0  0  0
  -23.9834  -14.4820   19.7371 N   0  0  0  0  0  0  0  0  0  0  0  0
  -21.7423  -12.3976   21.9790 N   0  0  0  0  0  0  0  0  0  0  0  0
  -21.8997  -29.2946   22.9593 N   0  0  0  0  0  0  0  0  0  0  0  0
  -25.8323  -34.4003   24.1851 N   0  0  0  0  0  0  0  0  0  0  0  0
  -27.3224  -35.5384   27.2757 N   0  3  0  0  0  0  0  0  0  0  0  0
  -21.7725  -11.4529   19.8896 O   0  0  0  0  0  0  0  0  0  0  0  0
  -24.2005  -29.1819   22.6185 O   0  0  0  0  0  0  0  0  0  0  0  0
  -29.3673  -17.9647   20.4437 O   0  0  0  0  0  0  0  0  0  0  0  0
  -23.3442  -33.1054   23.6007 O   0  0  0  0  0  0  0  0  0  0  0  0
  -27.7675  -33.6616   25.2274 O   0  0  0  0  0  0  0  0  0  0  0  0
  -24.4758   -6.2610   23.3912 O   0  0  0  0  0  0  0  0  0  0  0  0
  -28.5097  -26.9973   26.4058 O   0  0  0  0  0  0  0  0  0  1  0  0
  -19.5976   -3.7088   23.0849 F   0  0  0  0  0  0  0  0  0  0  0  0
  -24.2250   -3.8315   22.0961 F   0  0  0  0  0  0  0  0  0  0  0  0
  1  2  1  0  0  0  0
  1  5  2  0  0  0  0
  2  6  2  0  0  0  0
  3 12  2  0  0  0  0
  3 19  1  0  0  0  0
  4 13  1  0  0  0  0
  4 19  2  0  0  0  0
  5 22  1  0  0  0  0
  6 24  1  0  0  0  0
  7 10  2  0  0  0  0
  7 21  1  0  0  0  0
  8 11  1  0  0  0  0
  8 21  2  0  0  0  0
  9 14  2  0  0  0  0
  9 23  1  0  0  0  0
 10 26  1  0  0  0  0
 11 26  2  0  0  0  0
 12 27  1  0  0  0  0
 13 27  2  0  0  0  0
 14 28  1  0  0  0  0
 15 16  2  0  0  0  0
 15 29  1  0  0  0  0
 16 30  1  0  0  0  0
 17 25  1  0  0  0  0
 17 28  2  0  0  0  0
 18 30  2  0  0  0  0
 18 31  1  0  0  0  0
 19 32  1  0  0  0  0
 20 32  1  0  0  0  0
 20 33  2  0  0  0  0
 20 34  1  0  0  0  0
 21 52  1  0  0  0  0
 22 24  2  0  0  0  0
 22 39  1  0  0  0  0
 23 25  2  0  0  0  0
 23 40  1  0  0  0  0
 24 53  1  0  0  0  0
 25 41  1  0  0  0  0
 26 64  1  0  0  0  0
 27 83  1  0  0  0  0
 28 84  1  0  0  0  0
 29 31  2  0  0  0  0
 29 83  1  0  0  0  0
 30 85  1  0  0  0  0
 31 86  1  0  0  0  0
 32 69  2  0  0  0  0
 33 70  1  0  0  0  0
 33 73  1  0  0  0  0
 34 74  1  0  0  0  0
 34 78  2  0  0  0  0
 35 54  1  0  0  0  0
 35 75  1  0  0  0  0
 35 79  2  0  0  0  0
 36 65  1  0  0  0  0
 36 72  1  0  0  0  0
 36 80  2  0  0  0  0
 37 66  1  0  0  0  0
 37 71  1  0  0  0  0
 37 81  2  0  0  0  0
 38 67  1  0  0  0  0
 38 76  1  0  0  0  0
 38 82  2  0  0  0  0
 39 42  1  0  0  0  0
 40 54  1  0  0  0  0
 41 71  1  0  0  0  0
 42 46  1  0  0  0  0
 43 49  1  0  0  0  0
 43 50  1  0  0  0  0
 44 47  1  0  0  0  0
 44 52  1  0  0  0  0
 45 48  1  0  0  0  0
 45 52  1  0  0  0  0
 46 53  1  0  0  0  0
 47 55  1  0  0  0  0
 48 55  1  0  0  0  0
 49 56  1  0  0  0  0
 50 72  1  0  0  0  0
 51 56  1  0  0  0  0
 51 72  1  0  0  0  0
 53 75  1  0  0  0  0
 54 71  1  0  0  0  0
 55 65  1  0  0  0  0
 56 70  1  0  0  0  0
 57 64  1  0  0  0  0
 58 65  1  0  0  0  0
 59 67  1  0  0  0  0
 60 68  1  0  0  0  0
 61 68  1  0  0  0  0
 62 68  1  0  0  0  0
 63 77  1  0  0  0  0
 64 84  1  0  0  0  0
 66 68  1  0  0  0  0
 66 76  1  0  0  0  0
 67 77  1  0  0  0  0
 69 70  1  0  0  0  0
M  CHG  1  77   1
M  ISO  4  36 100  64 101  65 100  84 101
M  END
> <Batch ID>
0115

> <Smiles>
CNC(C)C(=O)NC(C(=O)N1Cc2cc([101O:1][101CH:1](C)c3ccc(C4CCC([100CH:0](C)[100C:0](=O)N5CCCC(n6nc(-c7ccc(Oc8ccc(F)cc8F)cc7)c(C(N)=O)c6N)C5)CC4)cc3)ccc2CC1C(=O)NC1CCCc2ccccc21)C(C)(C)C

> <Shape>
0.263

> <Color>
0.128

> <Negative vol penalty>
0.000

$$$$

  -OEChem-04052320103D

 86 94  0     1  0  0  0  0  0999 V2000
  -29.6046  -22.8050   14.5455 C   0  0  0  0  0  0  0  0  0  0  0  0
  -28.8721  -22.5526   15.7010 C   0  0  0  0  0  0  0  0  0  0  0  0
  -23.6951   -9.5618   20.0591 C   0  0  0  0  0  0  0  0  0  0  0  0
  -24.1238   -9.9490   22.4050 C   0  0  0  0  0  0  0  0  0  0  0  0
  -30.4073  -23.9422   14.4648 C   0  0  0  0  0  0  0  0  0  0  0  0
  -28.9427  -23.4367   16.7770 C   0  0  0  0  0  0  0  0  0  0  0  0
  -24.3935  -24.4610   18.7518 C   0  0  0  0  0  0  0  0  0  0  0  0
  -23.1619   -8.3093   20.3632 C   0  0  0  0  0  0  0  0  0  0  0  0
  -23.5906   -8.6965   22.7092 C   0  0  0  0  0  0  0  0  0  0  0  0
  -23.8314  -23.4982   19.5890 C   0  0  0  0  0  0  0  0  0  0  0  0
  -20.5269   -7.3088   23.0391 C   0  0  0  0  0  0  0  0  0  0  0  0
  -19.6416   -7.2267   24.1138 C   0  0  0  0  0  0  0  0  0  0  0  0
  -24.5424  -24.7660   21.5142 C   0  0  0  0  0  0  0  0  0  0  0  0
  -21.1242   -5.6698   25.2161 C   0  0  0  0  0  0  0  0  0  0  0  0
  -24.1761  -10.3817   21.0800 C   0  0  0  0  0  0  0  0  0  0  0  0
  -24.0354  -12.8990   20.6911 C   0  0  0  0  0  0  0  0  0  0  0  0
  -30.4803  -24.8457   15.5367 C   0  0  0  0  0  0  0  0  0  0  0  0
  -25.0449  -25.5799   19.2904 C   0  0  0  0  0  0  0  0  0  0  0  0
  -29.7482  -24.5863   16.7111 C   0  0  0  0  0  0  0  0  0  0  0  0
  -25.1097  -25.7428   20.6816 C   0  0  0  0  0  0  0  0  0  0  0  0
  -23.1096   -7.8767   21.6883 C   0  0  0  0  0  0  0  0  0  0  0  0
  -23.9083  -23.6492   20.9704 C   0  0  0  0  0  0  0  0  0  0  0  0
  -21.7109   -6.5714   23.0528 C   0  0  0  0  0  0  0  0  0  0  0  0
  -19.9402   -6.4072   25.2023 C   0  0  0  0  0  0  0  0  0  0  0  0
  -22.0095   -5.7519   24.1414 C   0  0  0  0  0  0  0  0  0  0  0  0
  -24.7275  -11.6754   20.7664 C   0  0  0  0  0  0  0  0  0  0  0  0
  -25.0004  -13.8198   20.3637 C   0  0  0  0  0  0  0  0  0  0  0  0
  -22.6445  -13.1782   20.8988 C   0  0  0  0  0  0  0  0  0  0  0  0
  -28.0102  -26.7190   19.1776 C   0  0  0  0  0  0  0  0  0  0  0  0
  -26.6920  -29.2239   20.7620 C   0  0  0  0  0  0  0  0  0  0  0  0
  -24.1933  -30.3884   22.7738 C   0  0  0  0  0  0  0  0  0  0  0  0
  -29.9961  -16.0045   20.8542 C   0  0  0  0  0  0  0  0  0  0  0  0
  -31.3985  -26.0365   15.4211 C   0  0  0  0  0  0  0  0  0  0  0  0
  -25.6227  -26.6229   18.3736 C   0  0  0  0  0  0  0  0  0  0  0  0
  -25.7803  -26.9362   21.3099 C   0  0  0  0  0  0  0  0  0  0  0  0
  -31.1268  -27.1186   16.4630 C   0  0  0  0  0  0  0  0  0  0  0  0
  -29.7775  -13.2018   18.8415 C   0  0  0  0  0  0  0  0  0  0  0  0
  -30.9710  -26.4988   17.8481 C   0  0  0  0  0  0  0  0  0  0  0  0
  -28.3872  -12.6441   19.1460 C   0  0  0  0  0  0  0  0  0  0  0  0
  -27.6531  -18.8350   21.3287 C   0  0  0  0  0  0  0  0  0  0  0  0
  -27.3140  -17.1720   23.1910 C   0  0  0  0  0  0  0  0  0  0  0  0
  -30.4617  -13.6874   20.1143 C   0  0  0  0  0  0  0  0  0  0  0  0
  -29.0535  -18.2710   21.1051 C   0  0  0  0  0  0  0  0  0  0  0  0
  -28.7218  -16.6435   22.9363 C   0  0  0  0  0  0  0  0  0  0  0  0
  -28.2826  -14.1654   21.1815 C   0  0  0  0  0  0  0  0  0  0  0  0
  -29.7794  -25.5345   17.8901 C   0  0  1  0  0  0  0  0  0  0  0  0
  -26.7120  -27.4619   19.0344 C   0  0  1  0  0  0  0  0  0  0  0  0
  -27.1895  -18.6450   22.7788 C   0  0  0  0  0  0  0  0  0  0  0  0
  -27.5405  -13.6659   19.9255 C   0  0  2  0  0  0  0  0  0  0  0  0
  -26.2917  -19.7558   25.4049 C   0  0  0  0  0  0  0  0  0  0  0  0
  -23.4053  -32.4707   23.9314 C   0  0  0  0  0  0  0  0  0  0  0  0
  -23.0092  -17.8810   23.8044 C   0  0  0  0  0  0  0  0  0  0  0  0
  -21.0185  -22.2812   22.1864 C   0  0  0  0  0  0  0  0  0  0  0  0
  -28.8608  -28.8654   22.8781 C   0  0  0  0  0  0  0  0  0  0  0  0
  -27.4939  -30.2875   24.4199 C   0  0  0  0  0  0  0  0  0  0  0  0
  -28.3636  -31.2439   22.2864 C   0  0  0  0  0  0  0  0  0  0  0  0
  -21.6463  -30.4017   21.2666 C   0  0  0  0  0  0  0  0  0  0  0  0
  -25.3653  -19.0132   24.4520 C   0  0  0  0  0  0  0  0  0  0  0  0
  -24.7595  -18.3851   22.0504 C   0  0  0  0  0  0  0  0  0  0  0  0
  -22.5720  -20.5255   21.1627 C   0  0  0  0  0  0  0  0  0  0  0  0
  -26.4681  -29.5723   22.2137 C   0  0  1  0  0  0  0  0  0  0  0  0
  -23.3115  -31.6200   22.6743 C   0  0  2  0  0  0  0  0  0  0  0  0
  -25.7572  -19.1411   22.9616 C   0  0  2  0  0  0  0  0  0  0  0  0
  -23.2771  -18.4953   22.4354 C   0  0  2  0  0  0  0  0  0  0  0  0
  -22.2217  -22.0041   21.2947 C   0  0  2  0  0  0  0  0  0  1  0  0
  -27.7856  -29.9687   22.9380 C   0  0  0  0  0  0  0  0  0  0  0  0
  -26.0315  -11.8039   20.5074 N   0  0  0  0  0  0  0  0  0  0  0  0
  -26.1665  -13.1190   20.2661 N   0  0  0  0  0  0  0  0  0  0  0  0
  -26.3356  -27.9254   20.3714 N   0  0  0  0  0  0  0  0  0  0  0  0
  -29.6244  -14.6519   20.8275 N   0  0  0  0  0  0  0  0  0  0  0  0
  -29.1485  -16.8817   21.5509 N   0  0  0  0  0  0  0  0  0  0  0  0
  -24.9569  -15.1524   20.1524 N   0  0  0  0  0  0  0  0  0  0  0  0
  -21.7918  -12.1161   21.2291 N   0  0  0  0  0  0  0  0  0  0  0  0
  -28.5366  -26.2704   17.9813 N   0  0  0  0  0  0  0  0  0  0  0  0
  -25.4416  -30.6088   22.2311 N   0  0  0  0  0  0  0  0  0  0  0  0
  -21.8880  -31.2236   22.4803 N   0  3  0  0  0  0  0  0  0  0  0  0
  -22.8735  -19.9275   22.4894 N   0  3  0  0  0  0  0  0  0  0  0  0
  -22.1689  -14.3327   20.7784 O   0  0  0  0  0  0  0  0  0  0  0  0
  -28.4989  -26.5656   20.2908 O   0  0  0  0  0  0  0  0  0  0  0  0
  -27.1591  -30.0750   20.0009 O   0  0  0  0  0  0  0  0  0  0  0  0
  -23.8141  -29.3371   23.2853 O   0  0  0  0  0  0  0  0  0  0  0  0
  -31.0196  -16.4075   20.2875 O   0  0  0  0  0  0  0  0  0  0  0  0
  -22.5891   -6.6546   21.9854 O   0  0  0  0  0  0  0  0  0  0  0  0
  -23.3579  -22.7052   21.7947 O   0  0  0  0  0  0  0  0  0  1  0  0
  -19.0907   -6.3296   26.2350 F   0  0  0  0  0  0  0  0  0  0  0  0
  -23.1459   -5.0420   24.1608 F   0  0  0  0  0  0  0  0  0  0  0  0
  1  2  1  0  0  0  0
  1  5  2  0  0  0  0
  2  6  2  0  0  0  0
  3  8  2  0  0  0  0
  3 15  1  0  0  0  0
  4  9  1  0  0  0  0
  4 15  2  0  0  0  0
  5 17  1  0  0  0  0
  6 19  1  0  0  0  0
  7 10  2  0  0  0  0
  7 18  1  0  0  0  0
  8 21  1  0  0  0  0
  9 21  2  0  0  0  0
 10 22  1  0  0  0  0
 11 12  2  0  0  0  0
 11 23  1  0  0  0  0
 12 24  1  0  0  0  0
 13 20  1  0  0  0  0
 13 22  2  0  0  0  0
 14 24  2  0  0  0  0
 14 25  1  0  0  0  0
 15 26  1  0  0  0  0
 16 26  1  0  0  0  0
 16 27  2  0  0  0  0
 16 28  1  0  0  0  0
 17 19  2  0  0  0  0
 17 33  1  0  0  0  0
 18 20  2  0  0  0  0
 18 34  1  0  0  0  0
 19 46  1  0  0  0  0
 20 35  1  0  0  0  0
 21 83  1  0  0  0  0
 22 84  1  0  0  0  0
 23 25  2  0  0  0  0
 23 83  1  0  0  0  0
 24 85  1  0  0  0  0
 25 86  1  0  0  0  0
 26 67  2  0  0  0  0
 27 68  1  0  0  0  0
 27 72  1  0  0  0  0
 28 73  1  0  0  0  0
 28 78  2  0  0  0  0
 29 47  1  0  0  0  0
 29 74  1  0  0  0  0
 29 79  2  0  0  0  0
 30 61  1  0  0  0  0
 30 69  1  0  0  0  0
 30 80  2  0  0  0  0
 31 62  1  0  0  0  0
 31 75  1  0  0  0  0
 31 81  2  0  0  0  0
 32 70  1  0  0  0  0
 32 71  1  0  0  0  0
 32 82  2  0  0  0  0
 33 36  1  0  0  0  0
 34 47  1  0  0  0  0
 35 69  1  0  0  0  0
 36 38  1  0  0  0  0
 37 39  1  0  0  0  0
 37 42  1  0  0  0  0
 38 46  1  0  0  0  0
 39 49  1  0  0  0  0
 40 43  1  0  0  0  0
 40 48  1  0  0  0  0
 41 44  1  0  0  0  0
 41 48  1  0  0  0  0
 42 70  1  0  0  0  0
 43 71  1  0  0  0  0
 44 71  1  0  0  0  0
 45 49  1  0  0  0  0
 45 70  1  0  0  0  0
 46 74  1  0  0  0  0
 47 69  1  0  0  0  0
 48 63  1  0  0  0  0
 49 68  1  0  0  0  0
 50 58  1  0  0  0  0
 51 62  1  0  0  0  0
 52 64  1  0  0  0  0
 53 65  1  0  0  0  0
 54 66  1  0  0  0  0
 55 66  1  0  0  0  0
 56 66  1  0  0  0  0
 57 76  1  0  0  0  0
 58 63  1  0  0  0  0
 59 63  1  0  0  0  0
 59 64  1  0  0  0  0
 60 65  1  0  0  0  0
 60 77  1  0  0  0  0
 61 66  1  0  0  0  0
 61 75  1  0  0  0  0
 62 76  1  0  0  0  0
 64 77  1  0  0  0  0
 65 84  1  0  0  0  0
 67 68  1  0  0  0  0
M  CHG  2  76   1  77   1
M  ISO  4  32 100  65 101  71 100  84 101
M  END
> <Batch ID>
0115

> <Smiles>
CCC(CC(C)NC[101CH:1](C)[101O:1]c1ccc2c(c1)CN(C(=O)C(NC(=O)C(C)NC)C(C)(C)C)C(C(=O)NC1CCCc3ccccc31)C2)C1CC[100N:0]([100C:0](=O)N2CCCC(n3nc(-c4ccc(Oc5ccc(F)cc5F)cc4)c(C(N)=O)c3N)C2)CC1

> <Shape>
0.284

> <Color>
0.166

> <Negative vol penalty>
0.000

$$$$

  -OEChem-04052320103D

 84 92  0     1  0  0  0  0  0999 V2000
  -27.6671  -10.3558   22.0951 C   0  0  0  0  0  0  0  0  0  0  0  0
  -28.3613  -11.5561   21.9822 C   0  0  0  0  0  0  0  0  0  0  0  0
  -22.9634  -28.0398   22.1200 C   0  0  0  0  0  0  0  0  0  0  0  0
  -22.4335  -27.3738   19.8589 C   0  0  0  0  0  0  0  0  0  0  0  0
  -26.3876  -10.2382   21.5538 C   0  0  0  0  0  0  0  0  0  0  0  0
  -27.7767  -12.6393   21.3268 C   0  0  0  0  0  0  0  0  0  0  0  0
  -28.4344  -18.5693   22.7080 C   0  0  0  0  0  0  0  0  0  0  0  0
  -31.2877  -25.2379   19.6073 C   0  0  0  0  0  0  0  0  0  0  0  0
  -31.5568  -23.9933   17.5541 C   0  0  0  0  0  0  0  0  0  0  0  0
  -30.3293  -24.3205   20.0379 C   0  0  0  0  0  0  0  0  0  0  0  0
  -30.5985  -23.0758   17.9847 C   0  0  0  0  0  0  0  0  0  0  0  0
  -21.6155  -27.9415   22.4649 C   0  0  0  0  0  0  0  0  0  0  0  0
  -21.0855  -27.2754   20.2038 C   0  0  0  0  0  0  0  0  0  0  0  0
  -29.2463  -19.5713   22.1783 C   0  0  0  0  0  0  0  0  0  0  0  0
  -18.8103  -29.7914   22.1003 C   0  0  0  0  0  0  0  0  0  0  0  0
  -18.2589  -30.8246   22.8579 C   0  0  0  0  0  0  0  0  0  0  0  0
  -27.4278  -20.2892   20.7652 C   0  0  0  0  0  0  0  0  0  0  0  0
  -17.7125  -29.2503   24.6073 C   0  0  0  0  0  0  0  0  0  0  0  0
  -23.3725  -27.7560   20.8170 C   0  0  0  0  0  0  0  0  0  0  0  0
  -25.7370  -26.8424   20.5310 C   0  0  0  0  0  0  0  0  0  0  0  0
  -25.7833  -11.3234   20.9000 C   0  0  0  0  0  0  0  0  0  0  0  0
  -27.1144  -18.4125   22.2617 C   0  0  0  0  0  0  0  0  0  0  0  0
  -26.4885  -12.5356   20.7751 C   0  0  0  0  0  0  0  0  0  0  0  0
  -26.6004  -19.2861   21.2927 C   0  0  0  0  0  0  0  0  0  0  0  0
  -31.9014  -25.0744   18.3654 C   0  0  0  0  0  0  0  0  0  0  0  0
  -29.9847  -23.2394   19.2266 C   0  0  0  0  0  0  0  0  0  0  0  0
  -20.6765  -27.5593   21.5068 C   0  0  0  0  0  0  0  0  0  0  0  0
  -28.7439  -20.4297   21.2047 C   0  0  0  0  0  0  0  0  0  0  0  0
  -18.8127  -28.4876   22.5961 C   0  0  0  0  0  0  0  0  0  0  0  0
  -17.7100  -30.5541   24.1114 C   0  0  0  0  0  0  0  0  0  0  0  0
  -18.2638  -28.2171   23.8496 C   0  0  0  0  0  0  0  0  0  0  0  0
  -24.7647  -27.8579   20.4600 C   0  0  0  0  0  0  0  0  0  0  0  0
  -26.8903  -27.4395   20.0839 C   0  0  0  0  0  0  0  0  0  0  0  0
  -25.6092  -25.4811   20.9624 C   0  0  0  0  0  0  0  0  0  0  0  0
  -25.5004  -16.0960   20.8015 C   0  0  0  0  0  0  0  0  0  0  0  0
  -31.0745  -27.5699   15.1403 C   0  0  0  0  0  0  0  0  0  0  0  0
  -22.9751  -18.0674   21.3102 C   0  0  0  0  0  0  0  0  0  0  0  0
  -21.8395  -21.2393   21.8547 C   0  0  0  0  0  0  0  0  0  0  0  0
  -29.5857  -30.7091   16.4521 C   0  0  0  0  0  0  0  0  0  0  0  0
  -24.4172  -11.1339   20.2895 C   0  0  0  0  0  0  0  0  0  0  0  0
  -26.2431  -17.3437   22.8624 C   0  0  0  0  0  0  0  0  0  0  0  0
  -25.1837  -19.1727   20.7943 C   0  0  0  0  0  0  0  0  0  0  0  0
  -23.7196  -12.4455   19.9384 C   0  0  0  0  0  0  0  0  0  0  0  0
  -27.9418  -32.3037   19.1782 C   0  0  0  0  0  0  0  0  0  0  0  0
  -24.6782  -13.3813   19.2088 C   0  0  0  0  0  0  0  0  0  0  0  0
  -27.0448  -31.2077   19.7561 C   0  0  0  0  0  0  0  0  0  0  0  0
  -28.0311  -32.2157   17.6562 C   0  0  0  0  0  0  0  0  0  0  0  0
  -27.5405  -29.8012   17.7129 C   0  0  0  0  0  0  0  0  0  0  0  0
  -25.8782  -13.7409   20.0931 C   0  0  1  0  0  0  0  0  0  0  0  0
  -25.0757  -16.9490   21.9632 C   0  0  1  0  0  0  0  0  0  0  0  0
  -27.4641  -29.8147   19.2492 C   0  0  2  0  0  0  0  0  0  0  0  0
  -30.3377  -27.0064   13.9473 C   0  0  0  0  0  0  0  0  0  0  0  0
  -19.7218  -22.5424   22.1931 C   0  0  0  0  0  0  0  0  0  0  0  0
  -22.3785  -17.8684   18.3245 C   0  0  0  0  0  0  0  0  0  0  0  0
  -20.9014  -19.8766   18.5567 C   0  0  0  0  0  0  0  0  0  0  0  0
  -20.3607  -17.7823   19.7995 C   0  0  0  0  0  0  0  0  0  0  0  0
  -22.6837  -22.1349   24.5462 C   0  0  0  0  0  0  0  0  0  0  0  0
  -32.9262  -26.0548   17.9043 C   0  0  0  0  0  0  0  0  0  0  0  0
  -28.9549  -22.2520   19.6912 C   0  0  0  0  0  0  0  0  0  1  0  0
  -31.0583  -29.0734   15.3054 C   0  0  0  0  0  0  0  0  0  0  0  0
  -32.3387  -27.2302   17.1144 C   0  0  0  0  0  0  0  0  0  0  0  0
  -22.3245  -19.1916   20.5408 C   0  0  1  0  0  0  0  0  0  0  0  0
  -20.8610  -21.7981   22.8720 C   0  0  2  0  0  0  0  0  0  0  0  0
  -21.5186  -18.6809   19.3132 C   0  0  0  0  0  0  0  0  0  0  0  0
  -25.2573  -29.0126   20.0039 N   0  0  0  0  0  0  0  0  0  0  0  0
  -31.6319  -26.7279   15.9330 N   0  0  0  0  0  0  0  0  0  0  0  0
  -26.5519  -28.7263   19.7843 N   0  0  0  0  0  0  0  0  0  0  0  0
  -24.3732  -18.1076   21.4078 N   0  0  0  0  0  0  0  0  0  0  0  0
  -28.4348  -30.8701   17.2412 N   0  0  0  0  0  0  0  0  0  0  0  0
  -28.1508  -26.9841   19.9219 N   0  0  0  0  0  0  0  0  0  0  0  0
  -24.3527  -25.0310   21.3902 N   0  0  0  0  0  0  0  0  0  0  0  0
  -25.5042  -14.7406   21.0705 N   0  0  0  0  0  0  0  0  0  0  0  0
  -21.5296  -19.9413   21.5075 N   0  0  0  0  0  0  0  0  0  0  0  0
  -29.9009  -29.4003   16.1081 N   0  0  0  0  0  0  0  0  0  0  0  0
  -21.5547  -22.7408   23.7944 N   0  3  0  0  0  0  0  0  0  0  0  0
  -26.5840  -24.6919   20.9838 O   0  0  0  0  0  0  0  0  0  0  0  0
  -25.8009  -16.6280   19.7392 O   0  0  0  0  0  0  0  0  0  0  0  0
  -22.2683  -17.1899   21.8122 O   0  0  0  0  0  0  0  0  0  0  0  0
  -22.7820  -21.8904   21.4096 O   0  0  0  0  0  0  0  0  0  0  0  0
  -30.2837  -31.6608   16.0860 O   0  0  0  0  0  0  0  0  0  0  0  0
  -19.3612  -27.4630   21.8431 O   0  0  0  0  0  0  0  0  0  0  0  0
  -29.5344  -21.4082   20.6855 O   0  0  0  0  0  0  0  0  0  1  0  0
  -17.1820  -31.5467   24.8395 F   0  0  0  0  0  0  0  0  0  0  0  0
  -18.2643  -26.9667   24.3317 F   0  0  0  0  0  0  0  0  0  0  0  0
  1  2  1  0  0  0  0
  1  5  2  0  0  0  0
  2  6  2  0  0  0  0
  3 12  2  0  0  0  0
  3 19  1  0  0  0  0
  4 13  1  0  0  0  0
  4 19  2  0  0  0  0
  5 21  1  0  0  0  0
  6 23  1  0  0  0  0
  7 14  2  0  0  0  0
  7 22  1  0  0  0  0
  8 10  2  0  0  0  0
  8 25  1  0  0  0  0
  9 11  1  0  0  0  0
  9 25  2  0  0  0  0
 10 26  1  0  0  0  0
 11 26  2  0  0  0  0
 12 27  1  0  0  0  0
 13 27  2  0  0  0  0
 14 28  1  0  0  0  0
 15 16  2  0  0  0  0
 15 29  1  0  0  0  0
 16 30  1  0  0  0  0
 17 24  1  0  0  0  0
 17 28  2  0  0  0  0
 18 30  2  0  0  0  0
 18 31  1  0  0  0  0
 19 32  1  0  0  0  0
 20 32  1  0  0  0  0
 20 33  2  0  0  0  0
 20 34  1  0  0  0  0
 21 23  2  0  0  0  0
 21 40  1  0  0  0  0
 22 24  2  0  0  0  0
 22 41  1  0  0  0  0
 23 49  1  0  0  0  0
 24 42  1  0  0  0  0
 25 58  1  0  0  0  0
 26 59  1  0  0  0  0
 27 81  1  0  0  0  0
 28 82  1  0  0  0  0
 29 31  2  0  0  0  0
 29 81  1  0  0  0  0
 30 83  1  0  0  0  0
 31 84  1  0  0  0  0
 32 65  2  0  0  0  0
 33 67  1  0  0  0  0
 33 70  1  0  0  0  0
 34 71  1  0  0  0  0
 34 76  2  0  0  0  0
 35 50  1  0  0  0  0
 35 72  1  0  0  0  0
 35 77  2  0  0  0  0
 36 52  1  0  0  0  0
 36 60  1  0  0  0  0
 36 66  2  0  0  0  0
 37 62  1  0  0  0  0
 37 68  1  0  0  0  0
 37 78  2  0  0  0  0
 38 63  1  0  0  0  0
 38 73  1  0  0  0  0
 38 79  2  0  0  0  0
 39 69  1  0  0  0  0
 39 74  1  0  0  0  0
 39 80  2  0  0  0  0
 40 43  1  0  0  0  0
 41 50  1  0  0  0  0
 42 68  1  0  0  0  0
 43 45  1  0  0  0  0
 44 46  1  0  0  0  0
 44 47  1  0  0  0  0
 45 49  1  0  0  0  0
 46 51  1  0  0  0  0
 47 69  1  0  0  0  0
 48 51  1  0  0  0  0
 48 69  1  0  0  0  0
 49 72  1  0  0  0  0
 50 68  1  0  0  0  0
 51 67  1  0  0  0  0
 53 63  1  0  0  0  0
 54 64  1  0  0  0  0
 55 64  1  0  0  0  0
 56 64  1  0  0  0  0
 57 75  1  0  0  0  0
 58 61  1  0  0  0  0
 59 82  1  0  0  0  0
 60 74  1  0  0  0  0
 61 66  1  0  0  0  0
 62 64  1  0  0  0  0
 62 73  1  0  0  0  0
 63 75  1  0  0  0  0
 65 67  1  0  0  0  0
M  CHG  1  75   1
M  ISO  4  39 100  59 101  74 100  82 101
M  END
> <Batch ID>
0115

> <Smiles>
C=C(C[100NH:0][100C:0](=O)N1CCCC(n2nc(-c3ccc(Oc4ccc(F)cc4F)cc3)c(C(N)=O)c2N)C1)NCCc1ccc([101CH2:1][101O:1]c2ccc3c(c2)CN(C(=O)C(NC(=O)C(C)NC)C(C)(C)C)C(C(=O)NC2CCCc4ccccc42)C3)cc1

> <Shape>
0.194

> <Color>
0.082

> <Negative vol penalty>
0.000

$$$$

  -OEChem-04052320103D

 81 89  0     1  0  0  0  0  0999 V2000
  -21.7701  -35.8208   22.6493 C   0  0  0  0  0  0  0  0  0  0  0  0
  -22.9438  -35.1130   22.4110 C   0  0  0  0  0  0  0  0  0  0  0  0
  -26.9765  -12.4399   21.2107 C   0  0  0  0  0  0  0  0  0  0  0  0
  -26.4955  -13.2069   18.9707 C   0  0  0  0  0  0  0  0  0  0  0  0
  -20.6573  -35.1661   23.1755 C   0  0  0  0  0  0  0  0  0  0  0  0
  -23.0058  -33.7503   22.6999 C   0  0  0  0  0  0  0  0  0  0  0  0
  -26.1205  -29.4715   19.6183 C   0  0  0  0  0  0  0  0  0  0  0  0
  -26.3211  -11.2387   20.9402 C   0  0  0  0  0  0  0  0  0  0  0  0
  -25.8400  -12.0057   18.7002 C   0  0  0  0  0  0  0  0  0  0  0  0
  -27.3595  -28.8718   19.8393 C   0  0  0  0  0  0  0  0  0  0  0  0
  -24.4612   -8.1139   20.9547 C   0  0  0  0  0  0  0  0  0  0  0  0
  -23.5799   -7.6231   21.9180 C   0  0  0  0  0  0  0  0  0  0  0  0
  -26.2628  -27.0242   20.9360 C   0  0  0  0  0  0  0  0  0  0  0  0
  -22.2518   -9.6322   21.7265 C   0  0  0  0  0  0  0  0  0  0  0  0
  -29.1611  -24.6042   18.2003 C   0  0  0  0  0  0  0  0  0  0  0  0
  -27.0637  -13.4240   20.2259 C   0  0  0  0  0  0  0  0  0  0  0  0
  -29.1045  -14.9523   20.3100 C   0  0  0  0  0  0  0  0  0  0  0  0
  -20.7025  -33.7926   23.4620 C   0  0  0  0  0  0  0  0  0  0  0  0
  -24.9421  -28.8564   20.0649 C   0  0  0  0  0  0  0  0  0  0  0  0
  -21.8930  -33.0769   23.2318 C   0  0  0  0  0  0  0  0  0  0  0  0
  -25.0099  -27.6170   20.7172 C   0  0  0  0  0  0  0  0  0  0  0  0
  -25.7528  -11.0216   19.6850 C   0  0  0  0  0  0  0  0  0  0  0  0
  -27.4310  -27.6493   20.5008 C   0  0  0  0  0  0  0  0  0  0  0  0
  -24.2379   -9.3639   20.3774 C   0  0  0  0  0  0  0  0  0  0  0  0
  -22.4752   -8.3822   22.3039 C   0  0  0  0  0  0  0  0  0  0  0  0
  -23.1331  -10.1230   20.7633 C   0  0  0  0  0  0  0  0  0  0  0  0
  -27.7402  -14.6652   20.5049 C   0  0  0  0  0  0  0  0  0  0  0  0
  -28.9548  -22.8619   19.4054 C   0  0  0  0  0  0  0  0  0  0  0  0
  -29.7315  -23.7268   20.1398 C   0  0  0  0  0  0  0  0  0  0  0  0
  -29.2441  -16.2542   20.7249 C   0  0  0  0  0  0  0  0  0  0  0  0
  -30.1519  -14.1169   19.7995 C   0  0  0  0  0  0  0  0  0  0  0  0
  -22.6455  -29.6344   22.1200 C   0  0  0  0  0  0  0  0  0  0  0  0
  -27.3775  -21.5271   20.7687 C   0  0  0  0  0  0  0  0  0  0  0  0
  -21.2581  -26.9271   20.9941 C   0  0  0  0  0  0  0  0  0  0  0  0
  -21.6383  -23.8816   19.5016 C   0  0  0  0  0  0  0  0  0  0  0  0
  -19.4893  -33.1384   24.0741 C   0  0  0  0  0  0  0  0  0  0  0  0
  -23.6114  -29.5034   19.7950 C   0  0  0  0  0  0  0  0  0  0  0  0
  -23.7727  -26.9056   21.1985 C   0  0  0  0  0  0  0  0  0  0  0  0
  -19.5179  -31.6138   24.0021 C   0  0  0  0  0  0  0  0  0  0  0  0
  -26.0701  -19.2780   23.2329 C   0  0  0  0  0  0  0  0  0  0  0  0
  -20.8809  -31.0844   24.4365 C   0  0  0  0  0  0  0  0  0  0  0  0
  -26.4739  -17.8996   22.7111 C   0  0  0  0  0  0  0  0  0  0  0  0
  -25.7370  -20.2321   22.0901 C   0  0  0  0  0  0  0  0  0  0  0  0
  -27.2338  -18.9962   20.5558 C   0  0  0  0  0  0  0  0  0  0  0  0
  -21.9913  -31.5924   23.5089 C   0  0  1  0  0  0  0  0  0  0  0  0
  -22.5155  -29.0360   20.7479 C   0  0  1  0  0  0  0  0  0  0  0  0
  -27.6081  -18.0106   21.6769 C   0  0  2  0  0  0  0  0  0  0  0  0
  -30.3472  -23.6048   21.4731 C   0  0  0  0  0  0  0  0  0  0  0  0
  -32.7919  -25.2772   18.6233 C   0  0  0  0  0  0  0  0  0  0  0  0
  -20.3260  -21.8804   18.7464 C   0  0  0  0  0  0  0  0  0  0  0  0
  -21.0156  -25.9964   23.8897 C   0  0  0  0  0  0  0  0  0  0  0  0
  -20.6028  -23.6788   23.0372 C   0  0  0  0  0  0  0  0  0  0  0  0
  -19.0145  -25.5164   22.4687 C   0  0  0  0  0  0  0  0  0  0  0  0
  -22.4538  -24.2657   16.6826 C   0  0  0  0  0  0  0  0  0  0  0  0
  -28.5020  -21.5085   19.7642 C   0  0  0  0  0  0  0  0  0  0  0  0
  -31.7608  -26.3976   18.6901 C   0  0  0  0  0  0  0  0  0  0  0  0
  -29.6681  -27.3199   19.7638 C   0  0  0  0  0  0  0  0  0  1  0  0
  -21.2949  -25.4676   21.3781 C   0  0  1  0  0  0  0  0  0  0  0  0
  -20.9044  -23.2283   18.3445 C   0  0  2  0  0  0  0  0  0  0  0  0
  -30.6184  -26.1130   19.6876 C   0  0  1  0  0  0  0  0  0  0  0  0
  -20.5056  -25.1789   22.6862 C   0  0  0  0  0  0  0  0  0  0  0  0
  -28.6033  -23.4139   18.1990 N   0  0  0  0  0  0  0  0  0  0  0  0
  -27.0615  -15.7013   21.0049 N   0  0  0  0  0  0  0  0  0  0  0  0
  -29.8553  -24.8383   19.3547 N   0  0  0  0  0  0  0  0  0  0  0  0
  -28.0033  -16.6521   21.1277 N   0  0  0  0  0  0  0  0  0  0  0  0
  -22.4956  -27.5816   20.9165 N   0  0  0  0  0  0  0  0  0  0  0  0
  -26.8299  -20.2925   21.1178 N   0  0  0  0  0  0  0  0  0  0  0  0
  -30.3060  -17.0859   20.7808 N   0  0  0  0  0  0  0  0  0  0  0  0
  -29.8353  -12.8056   19.4193 N   0  0  0  0  0  0  0  0  0  0  0  0
  -21.9961  -30.8449   22.2697 N   0  0  0  0  0  0  0  0  0  0  0  0
  -20.8161  -24.7274   20.2156 N   0  0  0  0  0  0  0  0  0  0  0  0
  -21.8304  -23.0187   17.1958 N   0  3  0  0  0  0  0  0  0  0  0  0
  -31.3369  -14.5160   19.6993 O   0  0  0  0  0  0  0  0  0  0  0  0
  -23.2861  -29.0410   22.9797 O   0  0  0  0  0  0  0  0  0  0  0  0
  -27.0005  -22.6073   21.2304 O   0  0  0  0  0  0  0  0  0  0  0  0
  -20.1719  -27.4647   20.7642 O   0  0  0  0  0  0  0  0  0  0  0  0
  -22.8216  -23.6607   19.7496 O   0  0  0  0  0  0  0  0  0  0  0  0
  -25.1134   -9.8495   19.4206 O   0  0  0  0  0  0  0  0  0  0  0  0
  -28.6392  -27.0620   20.7184 O   0  0  0  0  0  0  0  0  0  1  0  0
  -21.6281   -7.9100   23.2278 F   0  0  0  0  0  0  0  0  0  0  0  0
  -22.9127  -11.3241   20.2113 F   0  0  0  0  0  0  0  0  0  0  0  0
  1  2  1  0  0  0  0
  1  5  2  0  0  0  0
  2  6  2  0  0  0  0
  3  8  2  0  0  0  0
  3 16  1  0  0  0  0
  4  9  1  0  0  0  0
  4 16  2  0  0  0  0
  5 18  1  0  0  0  0
  6 20  1  0  0  0  0
  7 10  2  0  0  0  0
  7 19  1  0  0  0  0
  8 22  1  0  0  0  0
  9 22  2  0  0  0  0
 10 23  1  0  0  0  0
 11 12  2  0  0  0  0
 11 24  1  0  0  0  0
 12 25  1  0  0  0  0
 13 21  1  0  0  0  0
 13 23  2  0  0  0  0
 14 25  2  0  0  0  0
 14 26  1  0  0  0  0
 15 62  2  0  0  0  0
 15 64  1  0  0  0  0
 16 27  1  0  0  0  0
 17 27  1  0  0  0  0
 17 30  2  0  0  0  0
 17 31  1  0  0  0  0
 18 20  2  0  0  0  0
 18 36  1  0  0  0  0
 19 21  2  0  0  0  0
 19 37  1  0  0  0  0
 20 45  1  0  0  0  0
 21 38  1  0  0  0  0
 22 78  1  0  0  0  0
 23 79  1  0  0  0  0
 24 26  2  0  0  0  0
 24 78  1  0  0  0  0
 25 80  1  0  0  0  0
 26 81  1  0  0  0  0
 27 63  2  0  0  0  0
 28 29  2  0  0  0  0
 28 55  1  0  0  0  0
 28 62  1  0  0  0  0
 29 48  1  0  0  0  0
 29 64  1  0  0  0  0
 30 65  1  0  0  0  0
 30 68  1  0  0  0  0
 31 69  1  0  0  0  0
 31 73  2  0  0  0  0
 32 46  1  0  0  0  0
 32 70  1  0  0  0  0
 32 74  2  0  0  0  0
 33 55  1  0  0  0  0
 33 67  1  0  0  0  0
 33 75  2  0  0  0  0
 34 58  1  0  0  0  0
 34 66  1  0  0  0  0
 34 76  2  0  0  0  0
 35 59  1  0  0  0  0
 35 71  1  0  0  0  0
 35 77  2  0  0  0  0
 36 39  1  0  0  0  0
 37 46  1  0  0  0  0
 38 66  1  0  0  0  0
 39 41  1  0  0  0  0
 40 42  1  0  0  0  0
 40 43  1  0  0  0  0
 41 45  1  0  0  0  0
 42 47  1  0  0  0  0
 43 67  1  0  0  0  0
 44 47  1  0  0  0  0
 44 67  1  0  0  0  0
 45 70  1  0  0  0  0
 46 66  1  0  0  0  0
 47 65  1  0  0  0  0
 49 56  1  0  0  0  0
 50 59  1  0  0  0  0
 51 61  1  0  0  0  0
 52 61  1  0  0  0  0
 53 61  1  0  0  0  0
 54 72  1  0  0  0  0
 56 60  1  0  0  0  0
 57 60  1  0  0  0  0
 57 79  1  0  0  0  0
 58 61  1  0  0  0  0
 58 71  1  0  0  0  0
 59 72  1  0  0  0  0
 60 64  1  0  0  0  0
 63 65  1  0  0  0  0
M  CHG  1  72   1
M  ISO  4  33 100  55 100  57 101  79 101
M  END
> <Batch ID>
0115

> <Smiles>
CCC(n1cnc([100CH2:0][100C:0](=O)N2CCCC(n3nc(-c4ccc(Oc5ccc(F)cc5F)cc4)c(C(N)=O)c3N)C2)c1C)[101CH2:1][101O:1]c1ccc2c(c1)CN(C(=O)C(NC(=O)C(C)NC)C(C)(C)C)C(C(=O)NC1CCCc3ccccc31)C2

> <Shape>
0.270

> <Color>
0.097

> <Negative vol penalty>
0.000

$$$$

  -OEChem-04052320103D

 86 94  0     1  0  0  0  0  0999 V2000
  -22.2808  -18.3547   40.3805 C   0  0  0  0  0  0  0  0  0  0  0  0
  -23.0904  -17.7755   39.4086 C   0  0  0  0  0  0  0  0  0  0  0  0
  -23.0740   -9.8690   19.9416 C   0  0  0  0  0  0  0  0  0  0  0  0
  -23.8384   -9.8745   22.2335 C   0  0  0  0  0  0  0  0  0  0  0  0
  -21.1732  -19.1125   40.0025 C   0  0  0  0  0  0  0  0  0  0  0  0
  -22.7922  -17.9531   38.0580 C   0  0  0  0  0  0  0  0  0  0  0  0
  -26.7850  -18.4697   33.4432 C   0  0  0  0  0  0  0  0  0  0  0  0
  -28.6747  -18.1378   24.7600 C   0  0  0  0  0  0  0  0  0  0  0  0
  -30.9278  -17.8037   25.5657 C   0  0  0  0  0  0  0  0  0  0  0  0
  -29.0674  -17.7203   23.4884 C   0  0  0  0  0  0  0  0  0  0  0  0
  -31.3206  -17.3861   24.2940 C   0  0  0  0  0  0  0  0  0  0  0  0
  -22.3314   -8.7151   20.1921 C   0  0  0  0  0  0  0  0  0  0  0  0
  -23.0957   -8.7207   22.4840 C   0  0  0  0  0  0  0  0  0  0  0  0
  -27.2615  -17.5520   32.5080 C   0  0  0  0  0  0  0  0  0  0  0  0
  -19.8693   -7.9204   23.0922 C   0  0  0  0  0  0  0  0  0  0  0  0
  -19.1146   -7.8790   24.2645 C   0  0  0  0  0  0  0  0  0  0  0  0
  -25.6103  -18.3172   30.9247 C   0  0  0  0  0  0  0  0  0  0  0  0
  -20.3587   -5.9417   24.9969 C   0  0  0  0  0  0  0  0  0  0  0  0
  -23.8276  -10.4486   20.9623 C   0  0  0  0  0  0  0  0  0  0  0  0
  -24.1677  -12.9741   20.8437 C   0  0  0  0  0  0  0  0  0  0  0  0
  -20.8668  -19.3074   38.6465 C   0  0  0  0  0  0  0  0  0  0  0  0
  -25.7086  -19.3119   33.1294 C   0  0  0  0  0  0  0  0  0  0  0  0
  -21.6787  -18.7131   37.6616 C   0  0  0  0  0  0  0  0  0  0  0  0
  -25.1236  -19.2465   31.8567 C   0  0  0  0  0  0  0  0  0  0  0  0
  -29.6049  -18.1796   25.7987 C   0  0  0  0  0  0  0  0  0  0  0  0
  -30.3903  -17.3444   23.2554 C   0  0  0  0  0  0  0  0  0  0  0  0
  -22.3422   -8.1410   21.4632 C   0  0  0  0  0  0  0  0  0  0  0  0
  -26.6723  -17.4737   31.2495 C   0  0  0  0  0  0  0  0  0  0  0  0
  -20.8686   -6.9724   22.8721 C   0  0  0  0  0  0  0  0  0  0  0  0
  -19.3594   -6.8897   25.2169 C   0  0  0  0  0  0  0  0  0  0  0  0
  -21.1133   -5.9831   23.8245 C   0  0  0  0  0  0  0  0  0  0  0  0
  -24.5955  -11.6402   20.7040 C   0  0  0  0  0  0  0  0  0  0  0  0
  -25.2586  -13.7245   20.4789 C   0  0  0  0  0  0  0  0  0  0  0  0
  -22.8977  -13.4888   21.2656 C   0  0  0  0  0  0  0  0  0  0  0  0
  -22.7759  -19.7283   34.2825 C   0  0  0  0  0  0  0  0  0  0  0  0
  -29.5001  -16.8624   28.7070 C   0  0  0  0  0  0  0  0  0  0  0  0
  -22.7268  -22.2081   32.1920 C   0  0  0  0  0  0  0  0  0  0  0  0
  -23.9544  -23.6133   29.3344 C   0  0  0  0  0  0  0  0  0  0  0  0
  -30.7421  -14.7468   20.6573 C   0  0  0  0  0  0  0  0  0  0  0  0
  -19.6320  -20.0953   38.2873 C   0  0  0  0  0  0  0  0  0  0  0  0
  -25.2236  -20.3149   34.1400 C   0  0  0  0  0  0  0  0  0  0  0  0
  -23.9786  -20.1424   31.4632 C   0  0  0  0  0  0  0  0  0  0  0  0
  -19.6002  -20.5467   36.8294 C   0  0  0  0  0  0  0  0  0  0  0  0
  -29.6013  -12.3636   18.2708 C   0  0  0  0  0  0  0  0  0  0  0  0
  -19.9764  -19.3931   35.9050 C   0  0  0  0  0  0  0  0  0  0  0  0
  -28.1649  -12.0686   18.7063 C   0  0  0  0  0  0  0  0  0  0  0  0
  -30.5206  -12.5840   19.4701 C   0  0  0  0  0  0  0  0  0  0  0  0
  -28.6212  -13.3127   20.8610 C   0  0  0  0  0  0  0  0  0  0  0  0
  -21.4021  -18.9035   36.1860 C   0  0  1  0  0  0  0  0  0  0  0  0
  -23.7881  -20.7675   33.8913 C   0  0  1  0  0  0  0  0  0  0  0  0
  -27.6448  -13.1385   19.6852 C   0  0  2  0  0  0  0  0  0  0  0  0
  -30.1805  -16.0652   29.7950 C   0  0  0  0  0  0  0  0  0  0  0  0
  -29.3321  -20.1413   27.3476 C   0  0  0  0  0  0  0  0  0  0  0  0
  -30.6035  -17.9753   20.8227 C   0  0  0  0  0  0  0  0  0  0  0  0
  -23.6926  -25.6264   27.8593 C   0  0  0  0  0  0  0  0  0  0  0  0
  -20.1444  -21.0408   31.0613 C   0  0  0  0  0  0  0  0  0  0  0  0
  -20.4489  -22.4982   29.0485 C   0  0  0  0  0  0  0  0  0  0  0  0
  -20.1474  -23.5304   31.2993 C   0  0  0  0  0  0  0  0  0  0  0  0
  -26.7593  -24.4470   29.7778 C   0  0  0  0  0  0  0  0  0  0  0  0
  -28.1742  -16.3426   28.1783 C   0  0  0  0  0  0  0  0  0  0  0  0
  -27.0102  -16.9327   28.9584 C   0  0  0  0  0  0  0  0  0  1  0  0
  -29.1799  -18.6322   27.1777 C   0  0  2  0  0  0  0  0  0  0  0  0
  -30.8091  -16.8964   21.8959 C   0  0  2  0  0  0  0  0  0  0  0  0
  -22.3294  -22.3795   30.7457 C   0  0  1  0  0  0  0  0  0  0  0  0
  -24.4446  -25.0180   29.0328 C   0  0  2  0  0  0  0  0  0  0  0  0
  -20.7878  -22.3439   30.5465 C   0  0  0  0  0  0  0  0  0  0  0  0
  -25.8595  -11.5455   20.2832 N   0  0  0  0  0  0  0  0  0  0  0  0
  -29.9442  -17.9747   28.2264 N   0  0  0  0  0  0  0  0  0  0  0  0
  -26.2354  -12.8294   20.1552 N   0  0  0  0  0  0  0  0  0  0  0  0
  -23.5361  -21.1021   32.4882 N   0  0  0  0  0  0  0  0  0  0  0  0
  -29.9712  -13.6114   20.3580 N   0  0  0  0  0  0  0  0  0  0  0  0
  -25.4681  -15.0562   20.4066 N   0  0  0  0  0  0  0  0  0  0  0  0
  -21.8870  -12.5787   21.6041 N   0  0  0  0  0  0  0  0  0  0  0  0
  -22.3709  -19.8058   35.6013 N   0  0  0  0  0  0  0  0  0  0  0  0
  -22.9622  -23.6132   30.2919 N   0  0  0  0  0  0  0  0  0  0  0  0
  -30.1440  -15.6745   21.5013 N   0  0  0  0  0  0  0  0  0  0  0  0
  -25.8974  -24.9995   28.7013 N   0  3  0  0  0  0  0  0  0  0  0  0
  -22.6608  -14.7192   21.3244 O   0  0  0  0  0  0  0  0  0  0  0  0
  -22.3897  -18.9171   33.4490 O   0  0  0  0  0  0  0  0  0  0  0  0
  -22.3395  -23.0294   33.0269 O   0  0  0  0  0  0  0  0  0  0  0  0
  -24.4039  -22.6162   28.7739 O   0  0  0  0  0  0  0  0  0  0  0  0
  -31.8771  -14.9233   20.2016 O   0  0  0  0  0  0  0  0  0  0  0  0
  -21.6174   -7.0153   21.7081 O   0  0  0  0  0  0  0  0  0  0  0  0
  -27.1351  -16.5784   30.3351 O   0  0  0  0  0  0  0  0  0  1  0  0
  -18.6357   -6.8510   26.3434 F   0  0  0  0  0  0  0  0  0  0  0  0
  -22.0728   -5.0703   23.6192 F   0  0  0  0  0  0  0  0  0  0  0  0
  1  2  1  0  0  0  0
  1  5  2  0  0  0  0
  2  6  2  0  0  0  0
  3 12  2  0  0  0  0
  3 19  1  0  0  0  0
  4 13  1  0  0  0  0
  4 19  2  0  0  0  0
  5 21  1  0  0  0  0
  6 23  1  0  0  0  0
  7 14  2  0  0  0  0
  7 22  1  0  0  0  0
  8 10  2  0  0  0  0
  8 25  1  0  0  0  0
  9 11  1  0  0  0  0
  9 25  2  0  0  0  0
 10 26  1  0  0  0  0
 11 26  2  0  0  0  0
 12 27  1  0  0  0  0
 13 27  2  0  0  0  0
 14 28  1  0  0  0  0
 15 16  2  0  0  0  0
 15 29  1  0  0  0  0
 16 30  1  0  0  0  0
 17 24  1  0  0  0  0
 17 28  2  0  0  0  0
 18 30  2  0  0  0  0
 18 31  1  0  0  0  0
 19 32  1  0  0  0  0
 20 32  1  0  0  0  0
 20 33  2  0  0  0  0
 20 34  1  0  0  0  0
 21 23  2  0  0  0  0
 21 40  1  0  0  0  0
 22 24  2  0  0  0  0
 22 41  1  0  0  0  0
 23 49  1  0  0  0  0
 24 42  1  0  0  0  0
 25 62  1  0  0  0  0
 26 63  1  0  0  0  0
 27 83  1  0  0  0  0
 28 84  1  0  0  0  0
 29 31  2  0  0  0  0
 29 83  1  0  0  0  0
 30 85  1  0  0  0  0
 31 86  1  0  0  0  0
 32 67  2  0  0  0  0
 33 69  1  0  0  0  0
 33 72  1  0  0  0  0
 34 73  1  0  0  0  0
 34 78  2  0  0  0  0
 35 50  1  0  0  0  0
 35 74  1  0  0  0  0
 35 79  2  0  0  0  0
 36 52  1  0  0  0  0
 36 60  1  0  0  0  0
 36 68  2  0  0  0  0
 37 64  1  0  0  0  0
 37 70  1  0  0  0  0
 37 80  2  0  0  0  0
 38 65  1  0  0  0  0
 38 75  1  0  0  0  0
 38 81  2  0  0  0  0
 39 71  1  0  0  0  0
 39 76  1  0  0  0  0
 39 82  2  0  0  0  0
 40 43  1  0  0  0  0
 41 50  1  0  0  0  0
 42 70  1  0  0  0  0
 43 45  1  0  0  0  0
 44 46  1  0  0  0  0
 44 47  1  0  0  0  0
 45 49  1  0  0  0  0
 46 51  1  0  0  0  0
 47 71  1  0  0  0  0
 48 51  1  0  0  0  0
 48 71  1  0  0  0  0
 49 74  1  0  0  0  0
 50 70  1  0  0  0  0
 51 69  1  0  0  0  0
 53 62  1  0  0  0  0
 54 63  1  0  0  0  0
 55 65  1  0  0  0  0
 56 66  1  0  0  0  0
 57 66  1  0  0  0  0
 58 66  1  0  0  0  0
 59 77  1  0  0  0  0
 60 61  1  0  0  0  0
 61 84  1  0  0  0  0
 62 68  1  0  0  0  0
 63 76  1  0  0  0  0
 64 66  1  0  0  0  0
 64 75  1  0  0  0  0
 65 77  1  0  0  0  0
 67 69  1  0  0  0  0
M  CHG  1  77   1
M  ISO  4  39 100  61 101  76 100  84 101
M  END
> <Batch ID>
0115

> <Smiles>
CNC(C)C(=O)NC(C(=O)N1Cc2cc([101O:1][101CH2:1]C=C(C)NC(C)c3ccc(C(C)[100NH:0][100C:0](=O)N4CCCC(n5nc(-c6ccc(Oc7ccc(F)cc7F)cc6)c(C(N)=O)c5N)C4)cc3)ccc2CC1C(=O)NC1CCCc2ccccc21)C(C)(C)C

> <Shape>
0.168

> <Color>
0.196

> <Negative vol penalty>
0.000

$$$$

  -OEChem-04052320103D

 80 88  0     1  0  0  0  0  0999 V2000
  -17.9452  -25.7427   22.7910 C   0  0  0  0  0  0  0  0  0  0  0  0
  -19.2830  -25.3610   22.7977 C   0  0  0  0  0  0  0  0  0  0  0  0
  -26.4715  -12.5653   20.2915 C   0  0  0  0  0  0  0  0  0  0  0  0
  -24.6406  -14.0468   20.8303 C   0  0  0  0  0  0  0  0  0  0  0  0
  -17.5865  -27.0141   22.3454 C   0  0  0  0  0  0  0  0  0  0  0  0
  -20.2628  -26.2502   22.3577 C   0  0  0  0  0  0  0  0  0  0  0  0
  -25.9601  -26.8207   24.5305 C   0  0  0  0  0  0  0  0  0  0  0  0
  -25.6544  -11.4635   20.5442 C   0  0  0  0  0  0  0  0  0  0  0  0
  -23.8234  -12.9449   21.0829 C   0  0  0  0  0  0  0  0  0  0  0  0
  -27.1866  -26.3274   24.0877 C   0  0  0  0  0  0  0  0  0  0  0  0
  -23.2115   -9.7557   18.9477 C   0  0  0  0  0  0  0  0  0  0  0  0
  -23.2412   -8.7033   18.0327 C   0  0  0  0  0  0  0  0  0  0  0  0
  -27.6070  -28.4120   22.9488 C   0  0  0  0  0  0  0  0  0  0  0  0
  -23.9741   -7.2047   19.7803 C   0  0  0  0  0  0  0  0  0  0  0  0
  -30.0064  -23.6576   21.4302 C   0  0  0  0  0  0  0  0  0  0  0  0
  -25.9647  -13.8570   20.4346 C   0  0  0  0  0  0  0  0  0  0  0  0
  -26.9844  -15.6601   18.9458 C   0  0  0  0  0  0  0  0  0  0  0  0
  -18.5633  -27.9229   21.9088 C   0  0  0  0  0  0  0  0  0  0  0  0
  -25.5422  -28.1115   24.1761 C   0  0  0  0  0  0  0  0  0  0  0  0
  -19.9167  -27.5346   21.9045 C   0  0  0  0  0  0  0  0  0  0  0  0
  -26.3758  -28.9202   23.3905 C   0  0  0  0  0  0  0  0  0  0  0  0
  -28.5612  -23.2700   19.7475 C   0  0  0  0  0  0  0  0  0  0  0  0
  -29.2005  -22.6904   20.8712 C   0  0  0  0  0  0  0  0  0  0  0  0
  -24.3303  -11.6533   20.9398 C   0  0  0  0  0  0  0  0  0  0  0  0
  -28.0090  -27.1220   23.2943 C   0  0  0  0  0  0  0  0  0  0  0  0
  -23.5633   -9.5326   20.2789 C   0  0  0  0  0  0  0  0  0  0  0  0
  -23.6224   -7.4278   18.4490 C   0  0  0  0  0  0  0  0  0  0  0  0
  -23.9445   -8.2571   20.6952 C   0  0  0  0  0  0  0  0  0  0  0  0
  -26.8084  -14.9955   20.1743 C   0  0  0  0  0  0  0  0  0  0  0  0
  -28.9961  -24.5736   19.6540 C   0  0  0  0  0  0  0  0  0  0  0  0
  -27.8783  -16.6650   19.2240 C   0  0  0  0  0  0  0  0  0  0  0  0
  -26.3926  -15.3929   17.6675 C   0  0  0  0  0  0  0  0  0  0  0  0
  -23.0984  -29.3056   22.5313 C   0  0  0  0  0  0  0  0  0  0  0  0
  -24.3182  -32.1413   23.5280 C   0  0  0  0  0  0  0  0  0  0  0  0
  -27.0269  -33.9062   24.6211 C   0  0  0  0  0  0  0  0  0  0  0  0
  -29.6945  -20.8079   22.4707 C   0  0  0  0  0  0  0  0  0  0  0  0
  -18.1228  -29.2694   21.3916 C   0  0  0  0  0  0  0  0  0  0  0  0
  -24.2282  -28.6386   24.6841 C   0  0  0  0  0  0  0  0  0  0  0  0
  -25.9825  -30.3204   22.9991 C   0  0  0  0  0  0  0  0  0  0  0  0
  -19.2577  -30.2856   21.2942 C   0  0  0  0  0  0  0  0  0  0  0  0
  -30.7147  -17.5070   23.3311 C   0  0  0  0  0  0  0  0  0  0  0  0
  -20.4806  -29.6582   20.6326 C   0  0  0  0  0  0  0  0  0  0  0  0
  -29.8038  -16.6140   22.4854 C   0  0  0  0  0  0  0  0  0  0  0  0
  -29.9825  -18.7500   23.8335 C   0  0  0  0  0  0  0  0  0  0  0  0
  -28.4022  -18.6467   21.9463 C   0  0  0  0  0  0  0  0  0  0  0  0
  -21.0110  -28.4799   21.4583 C   0  0  1  0  0  0  0  0  0  0  0  0
  -23.6740  -29.7792   23.8359 C   0  0  1  0  0  0  0  0  0  0  0  0
  -29.1135  -17.4145   21.3637 C   0  0  2  0  0  0  0  0  0  0  0  0
  -27.6028  -22.6029   18.8413 C   0  0  0  0  0  0  0  0  0  0  0  0
  -28.6510  -25.6263   18.6752 C   0  0  0  0  0  0  0  0  0  0  0  0
  -27.7237  -36.2137   25.3189 C   0  0  0  0  0  0  0  0  0  0  0  0
  -24.3458  -33.0145   20.6045 C   0  0  0  0  0  0  0  0  0  0  0  0
  -25.8899  -34.8773   21.2480 C   0  0  0  0  0  0  0  0  0  0  0  0
  -23.5915  -34.7754   22.2121 C   0  0  0  0  0  0  0  0  0  0  0  0
  -27.7657  -32.9878   27.3358 C   0  0  0  0  0  0  0  0  0  0  0  0
  -30.5956  -26.0939   20.9627 C   0  0  0  0  0  0  0  0  0  0  0  0
  -29.6880  -27.1342   21.6100 C   0  0  0  0  0  0  0  0  0  1  0  0
  -25.3353  -33.1169   22.9871 C   0  0  1  0  0  0  0  0  0  0  0  0
  -27.2021  -34.8637   25.7859 C   0  0  2  0  0  0  0  0  0  0  0  0
  -24.7975  -33.9190   21.7685 C   0  0  0  0  0  0  0  0  0  0  0  0
  -27.5326  -15.5330   21.1596 N   0  0  0  0  0  0  0  0  0  0  0  0
  -29.8743  -24.7981   20.6818 N   0  0  0  0  0  0  0  0  0  0  0  0
  -28.1723  -16.5458   20.5505 N   0  0  0  0  0  0  0  0  0  0  0  0
  -24.6855  -30.7883   23.5152 N   0  0  0  0  0  0  0  0  0  0  0  0
  -29.3571  -19.4599   22.7155 N   0  0  0  0  0  0  0  0  0  0  0  0
  -28.4338  -17.6302   18.4609 N   0  0  0  0  0  0  0  0  0  0  0  0
  -25.4949  -14.3222   17.5575 N   0  0  0  0  0  0  0  0  0  0  0  0
  -29.0617  -21.3683   21.3616 N   0  0  0  0  0  0  0  0  0  0  0  0
  -21.7624  -28.9592   22.5984 N   0  0  0  0  0  0  0  0  0  0  0  0
  -25.7450  -33.9468   24.1149 N   0  0  0  0  0  0  0  0  0  0  0  0
  -28.1655  -34.3045   26.7758 N   0  3  0  0  0  0  0  0  0  0  0  0
  -26.6648  -16.0729   16.6492 O   0  0  0  0  0  0  0  0  0  0  0  0
  -23.8132  -29.2595   21.5369 O   0  0  0  0  0  0  0  0  0  0  0  0
  -23.2404  -32.5649   23.9531 O   0  0  0  0  0  0  0  0  0  0  0  0
  -27.9373  -33.1962   24.1998 O   0  0  0  0  0  0  0  0  0  0  0  0
  -30.5070  -21.4118   23.1756 O   0  0  0  0  0  0  0  0  0  0  0  0
  -23.5326  -10.5783   21.1862 O   0  0  0  0  0  0  0  0  0  0  0  0
  -29.2064  -26.6428   22.8602 O   0  0  0  0  0  0  0  0  0  1  0  0
  -23.6494   -6.4169   17.5707 F   0  0  0  0  0  0  0  0  0  0  0  0
  -24.2824   -8.0364   21.9731 F   0  0  0  0  0  0  0  0  0  0  0  0
  1  2  1  0  0  0  0
  1  5  2  0  0  0  0
  2  6  2  0  0  0  0
  3  8  2  0  0  0  0
  3 16  1  0  0  0  0
  4  9  1  0  0  0  0
  4 16  2  0  0  0  0
  5 18  1  0  0  0  0
  6 20  1  0  0  0  0
  7 10  2  0  0  0  0
  7 19  1  0  0  0  0
  8 24  1  0  0  0  0
  9 24  2  0  0  0  0
 10 25  1  0  0  0  0
 11 12  2  0  0  0  0
 11 26  1  0  0  0  0
 12 27  1  0  0  0  0
 13 21  1  0  0  0  0
 13 25  2  0  0  0  0
 14 27  2  0  0  0  0
 14 28  1  0  0  0  0
 15 23  2  0  0  0  0
 15 62  1  0  0  0  0
 16 29  1  0  0  0  0
 17 29  1  0  0  0  0
 17 31  2  0  0  0  0
 17 32  1  0  0  0  0
 18 20  2  0  0  0  0
 18 37  1  0  0  0  0
 19 21  2  0  0  0  0
 19 38  1  0  0  0  0
 20 46  1  0  0  0  0
 21 39  1  0  0  0  0
 22 23  1  0  0  0  0
 22 30  2  0  0  0  0
 22 49  1  0  0  0  0
 23 68  1  0  0  0  0
 24 77  1  0  0  0  0
 25 78  1  0  0  0  0
 26 28  2  0  0  0  0
 26 77  1  0  0  0  0
 27 79  1  0  0  0  0
 28 80  1  0  0  0  0
 29 61  2  0  0  0  0
 30 50  1  0  0  0  0
 30 62  1  0  0  0  0
 31 63  1  0  0  0  0
 31 66  1  0  0  0  0
 32 67  1  0  0  0  0
 32 72  2  0  0  0  0
 33 47  1  0  0  0  0
 33 69  1  0  0  0  0
 33 73  2  0  0  0  0
 34 58  1  0  0  0  0
 34 64  1  0  0  0  0
 34 74  2  0  0  0  0
 35 59  1  0  0  0  0
 35 70  1  0  0  0  0
 35 75  2  0  0  0  0
 36 65  1  0  0  0  0
 36 68  1  0  0  0  0
 36 76  2  0  0  0  0
 37 40  1  0  0  0  0
 38 47  1  0  0  0  0
 39 64  1  0  0  0  0
 40 42  1  0  0  0  0
 41 43  1  0  0  0  0
 41 44  1  0  0  0  0
 42 46  1  0  0  0  0
 43 48  1  0  0  0  0
 44 65  1  0  0  0  0
 45 48  1  0  0  0  0
 45 65  1  0  0  0  0
 46 69  1  0  0  0  0
 47 64  1  0  0  0  0
 48 63  1  0  0  0  0
 51 59  1  0  0  0  0
 52 60  1  0  0  0  0
 53 60  1  0  0  0  0
 54 60  1  0  0  0  0
 55 71  1  0  0  0  0
 56 57  1  0  0  0  0
 56 62  1  0  0  0  0
 57 78  1  0  0  0  0
 58 60  1  0  0  0  0
 58 70  1  0  0  0  0
 59 71  1  0  0  0  0
 61 63  1  0  0  0  0
M  CHG  1  71   1
M  ISO  4  36 100  57 101  68 100  78 101
M  END
> <Batch ID>
0115

> <Smiles>
CNC(C)C(=O)NC(C(=O)N1Cc2cc([101O:1][101CH2:1]Cn3cc([100NH:0][100C:0](=O)N4CCCC(n5nc(-c6ccc(Oc7ccc(F)cc7F)cc6)c(C(N)=O)c5N)C4)c(C)c3C)ccc2CC1C(=O)NC1CCCc2ccccc21)C(C)(C)C

> <Shape>
0.274

> <Color>
0.076

> <Negative vol penalty>
0.000

$$$$

  -OEChem-04052320103D

 86 94  0     1  0  0  0  0  0999 V2000
  -24.7583  -25.3993   16.0641 C   0  0  0  0  0  0  0  0  0  0  0  0
  -24.5085  -25.5833   17.4203 C   0  0  0  0  0  0  0  0  0  0  0  0
  -23.1179   -9.7544   20.0174 C   0  0  0  0  0  0  0  0  0  0  0  0
  -23.8089   -9.9322   22.3256 C   0  0  0  0  0  0  0  0  0  0  0  0
  -25.7731  -24.5354   15.6544 C   0  0  0  0  0  0  0  0  0  0  0  0
  -25.2725  -24.9026   18.3675 C   0  0  0  0  0  0  0  0  0  0  0  0
  -27.9574  -25.6614   24.9654 C   0  0  0  0  0  0  0  0  0  0  0  0
  -28.7161  -18.0352   23.2256 C   0  0  0  0  0  0  0  0  0  0  0  0
  -22.4094   -8.5914   20.3190 C   0  0  0  0  0  0  0  0  0  0  0  0
  -23.1004   -8.7692   22.6273 C   0  0  0  0  0  0  0  0  0  0  0  0
  -27.9998  -25.0025   26.1933 C   0  0  0  0  0  0  0  0  0  0  0  0
  -23.5285   -5.4326   22.2881 C   0  0  0  0  0  0  0  0  0  0  0  0
  -24.1594   -4.4779   23.0856 C   0  0  0  0  0  0  0  0  0  0  0  0
  -28.2763  -18.5194   24.4525 C   0  0  0  0  0  0  0  0  0  0  0  0
  -29.7786  -23.5962   25.3704 C   0  0  0  0  0  0  0  0  0  0  0  0
  -22.4031   -4.6916   24.7309 C   0  0  0  0  0  0  0  0  0  0  0  0
  -23.8177  -10.4248   21.0207 C   0  0  0  0  0  0  0  0  0  0  0  0
  -24.0707  -12.9490   20.7514 C   0  0  0  0  0  0  0  0  0  0  0  0
  -26.5563  -23.8512   16.5972 C   0  0  0  0  0  0  0  0  0  0  0  0
  -28.8193  -25.2848   23.9254 C   0  0  0  0  0  0  0  0  0  0  0  0
  -26.2978  -24.0277   17.9700 C   0  0  0  0  0  0  0  0  0  0  0  0
  -29.7469  -24.2536   24.1311 C   0  0  0  0  0  0  0  0  0  0  0  0
  -30.0538  -17.6950   23.0577 C   0  0  0  0  0  0  0  0  0  0  0  0
  -22.4007   -8.0988   21.6240 C   0  0  0  0  0  0  0  0  0  0  0  0
  -28.9085  -23.9678   26.3950 C   0  0  0  0  0  0  0  0  0  0  0  0
  -22.3349   -6.0169   22.7120 C   0  0  0  0  0  0  0  0  0  0  0  0
  -23.5967   -4.1074   24.3070 C   0  0  0  0  0  0  0  0  0  0  0  0
  -21.7722   -5.6464   23.9334 C   0  0  0  0  0  0  0  0  0  0  0  0
  -24.5502  -11.6260   20.7096 C   0  0  0  0  0  0  0  0  0  0  0  0
  -29.2066  -18.6438   25.4718 C   0  0  0  0  0  0  0  0  0  0  0  0
  -30.9045  -17.8566   24.1393 C   0  0  0  0  0  0  0  0  0  0  0  0
  -25.1451  -13.7157   20.3716 C   0  0  0  0  0  0  0  0  0  0  0  0
  -22.7705  -13.4408   21.1023 C   0  0  0  0  0  0  0  0  0  0  0  0
  -28.4228  -24.1287   20.9911 C   0  0  0  0  0  0  0  0  0  0  0  0
  -31.6365  -24.5345   20.8176 C   0  0  0  0  0  0  0  0  0  0  0  0
  -34.6159  -24.8012   22.4604 C   0  0  0  0  0  0  0  0  0  0  0  0
  -30.5802  -14.9531   20.6447 C   0  0  0  0  0  0  0  0  0  0  0  0
  -27.6109  -22.8915   16.1056 C   0  0  0  0  0  0  0  0  0  0  0  0
  -28.7793  -26.0233   22.6156 C   0  0  0  0  0  0  0  0  0  0  0  0
  -30.7077  -23.8246   23.0534 C   0  0  0  0  0  0  0  0  0  0  0  0
  -28.6216  -22.4952   17.1787 C   0  0  0  0  0  0  0  0  0  0  0  0
  -29.6012  -12.3839   18.3825 C   0  0  0  0  0  0  0  0  0  0  0  0
  -27.9073  -22.1306   18.4763 C   0  0  0  0  0  0  0  0  0  0  0  0
  -28.1632  -12.0628   18.7938 C   0  0  0  0  0  0  0  0  0  0  0  0
  -30.4738  -12.7134   19.5917 C   0  0  0  0  0  0  0  0  0  0  0  0
  -28.5065  -13.4557   20.8773 C   0  0  0  0  0  0  0  0  0  0  0  0
  -27.1214  -23.3262   19.0281 C   0  0  1  0  0  0  0  0  0  0  0  0
  -29.3518  -25.2144   21.4558 C   0  0  1  0  0  0  0  0  0  0  0  0
  -27.5746  -13.1715   19.6869 C   0  0  2  0  0  0  0  0  0  0  0  0
  -32.5868  -15.9984   24.0789 C   0  0  0  0  0  0  0  0  0  0  0  0
  -30.3235  -18.1758   20.5965 C   0  0  0  0  0  0  0  0  0  0  0  0
  -37.0743  -25.0890   22.0473 C   0  0  0  0  0  0  0  0  0  0  0  0
  -27.2662  -23.2857   29.3156 C   0  0  0  0  0  0  0  0  0  0  0  0
  -31.8344  -21.6094   19.9723 C   0  0  0  0  0  0  0  0  0  0  0  0
  -34.2811  -21.6959   20.4961 C   0  0  0  0  0  0  0  0  0  0  0  0
  -33.3364  -23.1630   18.7134 C   0  0  0  0  0  0  0  0  0  0  0  0
  -34.6863  -27.3542   23.9558 C   0  0  0  0  0  0  0  0  0  0  0  0
  -32.3510  -17.5045   24.0181 C   0  0  0  0  0  0  0  0  0  0  0  0
  -28.7665  -19.1614   26.8094 C   0  0  0  0  0  0  0  0  0  0  0  0
  -28.0325  -21.1636   28.1100 C   0  0  0  0  0  0  0  0  0  0  0  0
  -30.5311  -17.1770   21.7452 C   0  0  2  0  0  0  0  0  0  0  0  0
  -32.8405  -23.6819   21.1377 C   0  0  1  0  0  0  0  0  0  0  0  0
  -35.7558  -25.7944   22.3243 C   0  0  2  0  0  0  0  0  0  0  0  0
  -27.7604  -22.6615   28.0171 C   0  0  2  0  0  0  0  0  0  1  0  0
  -33.0538  -22.5441   20.0997 C   0  0  0  0  0  0  0  0  0  0  0  0
  -25.8295  -11.5529   20.3327 N   0  0  0  0  0  0  0  0  0  0  0  0
  -30.5141  -18.3238   25.3464 N   0  0  0  0  0  0  0  0  0  0  0  0
  -26.1630  -12.8395   20.1342 N   0  0  0  0  0  0  0  0  0  0  0  0
  -30.6255  -24.5731   21.7883 N   0  0  0  0  0  0  0  0  0  0  0  0
  -29.8602  -13.7730   20.3959 N   0  0  0  0  0  0  0  0  0  0  0  0
  -25.3090  -15.0472   20.2207 N   0  0  0  0  0  0  0  0  0  0  0  0
  -21.7828  -12.5162   21.4684 N   0  0  0  0  0  0  0  0  0  0  0  0
  -28.0145  -24.2616   19.6777 N   0  0  0  0  0  0  0  0  0  0  0  0
  -33.9689  -24.5986   21.2597 N   0  0  0  0  0  0  0  0  0  0  0  0
  -29.9230  -15.9087   21.4100 N   0  0  0  0  0  0  0  0  0  0  0  0
  -35.9022  -26.5897   23.5761 N   0  3  0  0  0  0  0  0  0  0  0  0
  -28.5273  -20.6302   26.8164 N   0  3  0  0  0  0  0  0  0  0  0  0
  -22.4880  -14.6627   21.0757 O   0  0  0  0  0  0  0  0  0  0  0  0
  -28.1016  -23.2356   21.7663 O   0  0  0  0  0  0  0  0  0  0  0  0
  -31.5977  -25.1493   19.7489 O   0  0  0  0  0  0  0  0  0  0  0  0
  -34.3304  -24.2566   23.5246 O   0  0  0  0  0  0  0  0  0  0  0  0
  -31.7219  -15.1434   20.2120 O   0  0  0  0  0  0  0  0  0  0  0  0
  -21.7093   -6.9640   21.9187 O   0  0  0  0  0  0  0  0  0  0  0  0
  -28.9516  -23.3225   27.5924 O   0  0  0  0  0  0  0  0  0  1  0  0
  -24.2019   -3.1894   25.0720 F   0  0  0  0  0  0  0  0  0  0  0  0
  -20.6251   -6.2033   24.3453 F   0  0  0  0  0  0  0  0  0  0  0  0
  1  2  1  0  0  0  0
  1  5  2  0  0  0  0
  2  6  2  0  0  0  0
  3  9  2  0  0  0  0
  3 17  1  0  0  0  0
  4 10  1  0  0  0  0
  4 17  2  0  0  0  0
  5 19  1  0  0  0  0
  6 21  1  0  0  0  0
  7 11  2  0  0  0  0
  7 20  1  0  0  0  0
  8 14  2  0  0  0  0
  8 23  1  0  0  0  0
  9 24  1  0  0  0  0
 10 24  2  0  0  0  0
 11 25  1  0  0  0  0
 12 13  2  0  0  0  0
 12 26  1  0  0  0  0
 13 27  1  0  0  0  0
 14 30  1  0  0  0  0
 15 22  1  0  0  0  0
 15 25  2  0  0  0  0
 16 27  2  0  0  0  0
 16 28  1  0  0  0  0
 17 29  1  0  0  0  0
 18 29  1  0  0  0  0
 18 32  2  0  0  0  0
 18 33  1  0  0  0  0
 19 21  2  0  0  0  0
 19 38  1  0  0  0  0
 20 22  2  0  0  0  0
 20 39  1  0  0  0  0
 21 47  1  0  0  0  0
 22 40  1  0  0  0  0
 23 31  2  0  0  0  0
 23 61  1  0  0  0  0
 24 83  1  0  0  0  0
 25 84  1  0  0  0  0
 26 28  2  0  0  0  0
 26 83  1  0  0  0  0
 27 85  1  0  0  0  0
 28 86  1  0  0  0  0
 29 66  2  0  0  0  0
 30 59  1  0  0  0  0
 30 67  2  0  0  0  0
 31 58  1  0  0  0  0
 31 67  1  0  0  0  0
 32 68  1  0  0  0  0
 32 71  1  0  0  0  0
 33 72  1  0  0  0  0
 33 78  2  0  0  0  0
 34 48  1  0  0  0  0
 34 73  1  0  0  0  0
 34 79  2  0  0  0  0
 35 62  1  0  0  0  0
 35 69  1  0  0  0  0
 35 80  2  0  0  0  0
 36 63  1  0  0  0  0
 36 74  1  0  0  0  0
 36 81  2  0  0  0  0
 37 70  1  0  0  0  0
 37 75  1  0  0  0  0
 37 82  2  0  0  0  0
 38 41  1  0  0  0  0
 39 48  1  0  0  0  0
 40 69  1  0  0  0  0
 41 43  1  0  0  0  0
 42 44  1  0  0  0  0
 42 45  1  0  0  0  0
 43 47  1  0  0  0  0
 44 49  1  0  0  0  0
 45 70  1  0  0  0  0
 46 49  1  0  0  0  0
 46 70  1  0  0  0  0
 47 73  1  0  0  0  0
 48 69  1  0  0  0  0
 49 68  1  0  0  0  0
 50 58  1  0  0  0  0
 51 61  1  0  0  0  0
 52 63  1  0  0  0  0
 53 64  1  0  0  0  0
 54 65  1  0  0  0  0
 55 65  1  0  0  0  0
 56 65  1  0  0  0  0
 57 76  1  0  0  0  0
 59 77  1  0  0  0  0
 60 64  1  0  0  0  0
 60 77  1  0  0  0  0
 61 75  1  0  0  0  0
 62 65  1  0  0  0  0
 62 74  1  0  0  0  0
 63 76  1  0  0  0  0
 64 84  1  0  0  0  0
 66 68  1  0  0  0  0
M  CHG  2  76   1  77   1
M  ISO  4  37 100  64 101  75 100  84 101
M  END
> <Batch ID>
0115

> <Smiles>
CCc1nc(CNC[101CH:1](C)[101O:1]c2ccc3c(c2)CN(C(=O)C(NC(=O)C(C)NC)C(C)(C)C)C(C(=O)NC2CCCc4ccccc42)C3)ccc1C(C)[100NH:0][100C:0](=O)N1CCCC(n2nc(-c3ccc(Oc4ccc(F)cc4F)cc3)c(C(N)=O)c2N)C1

> <Shape>
0.201

> <Color>
0.192

> <Negative vol penalty>
0.000

$$$$

  -OEChem-04052320103D

 84 92  0     1  0  0  0  0  0999 V2000
  -23.2871  -26.4349   13.5651 C   0  0  0  0  0  0  0  0  0  0  0  0
  -23.5200  -27.0575   14.7862 C   0  0  0  0  0  0  0  0  0  0  0  0
  -27.1854  -17.6108   18.4295 C   0  0  0  0  0  0  0  0  0  0  0  0
  -27.4579  -18.3240   20.7217 C   0  0  0  0  0  0  0  0  0  0  0  0
  -23.8309  -25.1771   13.3135 C   0  0  0  0  0  0  0  0  0  0  0  0
  -24.3065  -26.4278   15.7514 C   0  0  0  0  0  0  0  0  0  0  0  0
  -25.4245  -29.0341   19.7715 C   0  0  0  0  0  0  0  0  0  0  0  0
  -28.5399  -17.2833   18.3704 C   0  0  0  0  0  0  0  0  0  0  0  0
  -28.8125  -17.9964   20.6626 C   0  0  0  0  0  0  0  0  0  0  0  0
  -24.4880  -29.3342   20.7597 C   0  0  0  0  0  0  0  0  0  0  0  0
  -30.7080  -15.2040   20.8363 C   0  0  0  0  0  0  0  0  0  0  0  0
  -31.2504  -14.5000   21.9112 C   0  0  0  0  0  0  0  0  0  0  0  0
  -17.9979  -25.2663   22.3759 C   0  0  0  0  0  0  0  0  0  0  0  0
  -19.2380  -24.9515   21.7674 C   0  0  0  0  0  0  0  0  0  0  0  0
  -25.4404  -27.6263   22.1723 C   0  0  0  0  0  0  0  0  0  0  0  0
  -32.8076  -16.3043   22.3072 C   0  0  0  0  0  0  0  0  0  0  0  0
  -26.6444  -18.1313   19.6052 C   0  0  0  0  0  0  0  0  0  0  0  0
  -24.1835  -17.6313   20.0542 C   0  0  0  0  0  0  0  0  0  0  0  0
  -24.6141  -24.5269   14.2814 C   0  0  0  0  0  0  0  0  0  0  0  0
  -26.3707  -28.0187   19.9722 C   0  0  0  0  0  0  0  0  0  0  0  0
  -24.8840  -25.1686   15.5073 C   0  0  0  0  0  0  0  0  0  0  0  0
  -26.3894  -27.3170   21.1860 C   0  0  0  0  0  0  0  0  0  0  0  0
  -29.3535  -17.4760   19.4869 C   0  0  0  0  0  0  0  0  0  0  0  0
  -24.4940  -28.6283   21.9592 C   0  0  0  0  0  0  0  0  0  0  0  0
  -31.2154  -16.4582   20.4966 C   0  0  0  0  0  0  0  0  0  0  0  0
  -32.3002  -15.0501   22.6468 C   0  0  0  0  0  0  0  0  0  0  0  0
  -32.2651  -17.0084   21.2322 C   0  0  0  0  0  0  0  0  0  0  0  0
  -25.2453  -18.4704   19.6667 C   0  0  0  0  0  0  0  0  0  0  0  0
  -17.8993  -26.6394   22.4223 C   0  0  0  0  0  0  0  0  0  0  0  0
  -19.8595  -26.1419   21.4606 C   0  0  0  0  0  0  0  0  0  0  0  0
  -23.0644  -18.4198   19.9428 C   0  0  0  0  0  0  0  0  0  0  0  0
  -24.2066  -16.2615   20.4772 C   0  0  0  0  0  0  0  0  0  0  0  0
  -27.0328  -25.2559   18.5467 C   0  0  0  0  0  0  0  0  0  0  0  0
  -29.5537  -25.2535   20.5881 C   0  0  0  0  0  0  0  0  0  0  0  0
  -30.9032  -26.3446   23.5267 C   0  0  0  0  0  0  0  0  0  0  0  0
  -22.3275  -24.2692   20.2552 C   0  0  0  0  0  0  0  0  0  0  0  0
  -25.1845  -23.1696   13.9534 C   0  0  0  0  0  0  0  0  0  0  0  0
  -27.3911  -27.7253   18.9069 C   0  0  0  0  0  0  0  0  0  0  0  0
  -27.3973  -26.2315   21.4590 C   0  0  0  0  0  0  0  0  0  0  0  0
  -25.6277  -22.3961   15.1910 C   0  0  0  0  0  0  0  0  0  0  0  0
  -21.3421  -22.1518   17.4906 C   0  0  0  0  0  0  0  0  0  0  0  0
  -26.5006  -23.2787   16.0706 C   0  0  0  0  0  0  0  0  0  0  0  0
  -22.1408  -20.8800   17.7818 C   0  0  0  0  0  0  0  0  0  0  0  0
  -22.1431  -23.4010   17.8458 C   0  0  0  0  0  0  0  0  0  0  0  0
  -23.4336  -22.1680   19.5452 C   0  0  0  0  0  0  0  0  0  0  0  0
  -25.7111  -24.4895   16.5839 C   0  0  1  0  0  0  0  0  0  0  0  0
  -27.9815  -26.3228   19.0151 C   0  0  1  0  0  0  0  0  0  0  0  0
  -22.6698  -20.8694   19.2283 C   0  0  2  0  0  0  0  0  0  0  0  0
  -16.8164  -27.4934   22.9524 C   0  0  0  0  0  0  0  0  0  0  0  0
  -32.9653  -26.1427   24.9424 C   0  0  0  0  0  0  0  0  0  0  0  0
  -19.5681  -30.8441   22.8704 C   0  0  0  0  0  0  0  0  0  0  0  0
  -21.5202  -29.4884   24.8847 C   0  0  0  0  0  0  0  0  0  0  0  0
  -28.6593  -22.4796   21.4912 C   0  0  0  0  0  0  0  0  0  0  0  0
  -30.1276  -22.7374   23.5026 C   0  0  0  0  0  0  0  0  0  0  0  0
  -31.1315  -22.7413   21.2190 C   0  0  0  0  0  0  0  0  0  0  0  0
  -31.4606  -29.2447   23.3331 C   0  0  0  0  0  0  0  0  0  0  0  0
  -21.1669  -26.3888   20.8182 C   0  0  0  0  0  0  0  0  0  0  0  0
  -19.3372  -28.6328   21.7142 C   0  0  0  0  0  0  0  0  0  0  0  0
  -22.3128  -29.4111   22.4934 C   0  0  0  0  0  0  0  0  0  1  0  0
  -29.7947  -24.7444   21.9887 C   0  0  1  0  0  0  0  0  0  0  0  0
  -32.2624  -26.9368   23.8524 C   0  0  2  0  0  0  0  0  0  0  0  0
  -19.7764  -29.3310   23.0245 C   0  0  1  0  0  0  0  0  0  0  0  0
  -21.2208  -28.9576   23.4734 C   0  0  2  0  0  0  0  0  0  0  0  0
  -29.9079  -23.1948   22.0448 C   0  0  0  0  0  0  0  0  0  0  0  0
  -24.8374  -19.6979   19.3338 N   0  0  0  0  0  0  0  0  0  0  0  0
  -19.0368  -27.1611   21.8634 N   0  0  0  0  0  0  0  0  0  0  0  0
  -23.5068  -19.6359   19.5118 N   0  0  0  0  0  0  0  0  0  0  0  0
  -28.3704  -25.9773   20.3839 N   0  0  0  0  0  0  0  0  0  0  0  0
  -22.6013  -23.3367   19.2408 N   0  0  0  0  0  0  0  0  0  0  0  0
  -21.7551  -18.1847   20.1724 N   0  0  0  0  0  0  0  0  0  0  0  0
  -25.4413  -15.6009   20.5352 N   0  0  0  0  0  0  0  0  0  0  0  0
  -26.6215  -25.4048   17.2359 N   0  0  0  0  0  0  0  0  0  0  0  0
  -30.9739  -25.4480   22.4815 N   0  0  0  0  0  0  0  0  0  0  0  0
  -21.5382  -25.3504   19.8829 N   0  0  0  0  0  0  0  0  0  0  0  0
  -32.1158  -28.3452   24.3172 N   0  3  0  0  0  0  0  0  0  0  0  0
  -23.1614  -15.6368   20.7786 O   0  0  0  0  0  0  0  0  0  0  0  0
  -26.6998  -24.3629   19.3169 O   0  0  0  0  0  0  0  0  0  0  0  0
  -30.3882  -25.0236   19.7092 O   0  0  0  0  0  0  0  0  0  0  0  0
  -29.8815  -26.6443   24.1406 O   0  0  0  0  0  0  0  0  0  0  0  0
  -22.7509  -24.1447   21.4095 O   0  0  0  0  0  0  0  0  0  0  0  0
  -30.6752  -17.1563   19.4296 O   0  0  0  0  0  0  0  0  0  0  0  0
  -23.5806  -28.9187   22.9253 O   0  0  0  0  0  0  0  0  0  1  0  0
  -32.8200  -14.3746   23.6800 F   0  0  0  0  0  0  0  0  0  0  0  0
  -32.7560  -18.2134   20.9114 F   0  0  0  0  0  0  0  0  0  0  0  0
  1  2  1  0  0  0  0
  1  5  2  0  0  0  0
  2  6  2  0  0  0  0
  3  8  2  0  0  0  0
  3 17  1  0  0  0  0
  4  9  1  0  0  0  0
  4 17  2  0  0  0  0
  5 19  1  0  0  0  0
  6 21  1  0  0  0  0
  7 10  2  0  0  0  0
  7 20  1  0  0  0  0
  8 23  1  0  0  0  0
  9 23  2  0  0  0  0
 10 24  1  0  0  0  0
 11 12  2  0  0  0  0
 11 25  1  0  0  0  0
 12 26  1  0  0  0  0
 13 14  1  0  0  0  0
 13 29  2  0  0  0  0
 14 30  2  0  0  0  0
 15 22  1  0  0  0  0
 15 24  2  0  0  0  0
 16 26  2  0  0  0  0
 16 27  1  0  0  0  0
 17 28  1  0  0  0  0
 18 28  1  0  0  0  0
 18 31  2  0  0  0  0
 18 32  1  0  0  0  0
 19 21  2  0  0  0  0
 19 37  1  0  0  0  0
 20 22  2  0  0  0  0
 20 38  1  0  0  0  0
 21 46  1  0  0  0  0
 22 39  1  0  0  0  0
 23 81  1  0  0  0  0
 24 82  1  0  0  0  0
 25 27  2  0  0  0  0
 25 81  1  0  0  0  0
 26 83  1  0  0  0  0
 27 84  1  0  0  0  0
 28 65  2  0  0  0  0
 29 49  1  0  0  0  0
 29 66  1  0  0  0  0
 30 57  1  0  0  0  0
 30 66  1  0  0  0  0
 31 67  1  0  0  0  0
 31 70  1  0  0  0  0
 32 71  1  0  0  0  0
 32 76  2  0  0  0  0
 33 47  1  0  0  0  0
 33 72  1  0  0  0  0
 33 77  2  0  0  0  0
 34 60  1  0  0  0  0
 34 68  1  0  0  0  0
 34 78  2  0  0  0  0
 35 61  1  0  0  0  0
 35 73  1  0  0  0  0
 35 79  2  0  0  0  0
 36 69  1  0  0  0  0
 36 74  1  0  0  0  0
 36 80  2  0  0  0  0
 37 40  1  0  0  0  0
 38 47  1  0  0  0  0
 39 68  1  0  0  0  0
 40 42  1  0  0  0  0
 41 43  1  0  0  0  0
 41 44  1  0  0  0  0
 42 46  1  0  0  0  0
 43 48  1  0  0  0  0
 44 69  1  0  0  0  0
 45 48  1  0  0  0  0
 45 69  1  0  0  0  0
 46 72  1  0  0  0  0
 47 68  1  0  0  0  0
 48 67  1  0  0  0  0
 50 61  1  0  0  0  0
 51 62  1  0  0  0  0
 52 63  1  0  0  0  0
 53 64  1  0  0  0  0
 54 64  1  0  0  0  0
 55 64  1  0  0  0  0
 56 75  1  0  0  0  0
 57 74  1  0  0  0  0
 58 62  1  0  0  0  0
 58 66  1  0  0  0  0
 59 63  1  0  0  0  0
 59 82  1  0  0  0  0
 60 64  1  0  0  0  0
 60 73  1  0  0  0  0
 61 75  1  0  0  0  0
 62 63  1  0  0  0  0
 65 67  1  0  0  0  0
M  CHG  1  75   1
M  ISO  4  36 100  59 101  74 100  82 101
M  END
> <Batch ID>
0115

> <Smiles>
CNC(C)C(=O)NC(C(=O)N1Cc2cc([101O:1][101CH2:1]C(C)C(C)Cn3c(C)ccc3C[100NH:0][100C:0](=O)N3CCCC(n4nc(-c5ccc(Oc6ccc(F)cc6F)cc5)c(C(N)=O)c4N)C3)ccc2CC1C(=O)NC1CCCc2ccccc21)C(C)(C)C

> <Shape>
0.174

> <Color>
0.067

> <Negative vol penalty>
0.000

$$$$

  -OEChem-04052320103D

 82 90  0     1  0  0  0  0  0999 V2000
  -19.3783  -33.3919   25.4686 C   0  0  0  0  0  0  0  0  0  0  0  0
  -20.6856  -33.4138   24.9932 C   0  0  0  0  0  0  0  0  0  0  0  0
  -26.0833  -15.3540   21.1983 C   0  0  0  0  0  0  0  0  0  0  0  0
  -27.6019  -14.9181   19.3705 C   0  0  0  0  0  0  0  0  0  0  0  0
  -18.6976  -32.1800   25.5772 C   0  0  0  0  0  0  0  0  0  0  0  0
  -21.3132  -32.2237   24.6271 C   0  0  0  0  0  0  0  0  0  0  0  0
  -26.0993  -29.6409   19.9646 C   0  0  0  0  0  0  0  0  0  0  0  0
  -30.1205  -24.1998   21.1828 C   0  0  0  0  0  0  0  0  0  0  0  0
  -25.7698  -13.9964   21.2616 C   0  0  0  0  0  0  0  0  0  0  0  0
  -27.2885  -13.5604   19.4339 C   0  0  0  0  0  0  0  0  0  0  0  0
  -27.2726  -28.8887   19.9309 C   0  0  0  0  0  0  0  0  0  0  0  0
  -26.6188  -10.0319   18.8760 C   0  0  0  0  0  0  0  0  0  0  0  0
  -26.3737   -9.3664   17.6750 C   0  0  0  0  0  0  0  0  0  0  0  0
  -31.3846  -23.6212   21.1591 C   0  0  0  0  0  0  0  0  0  0  0  0
  -25.9715  -26.8633   20.0863 C   0  0  0  0  0  0  0  0  0  0  0  0
  -24.5349  -10.8658   17.2193 C   0  0  0  0  0  0  0  0  0  0  0  0
  -26.9993  -15.8149   20.2526 C   0  0  0  0  0  0  0  0  0  0  0  0
  -28.3496  -17.8865   20.8794 C   0  0  0  0  0  0  0  0  0  0  0  0
  -19.3139  -30.9754   25.2032 C   0  0  0  0  0  0  0  0  0  0  0  0
  -24.8517  -29.0094   20.0705 C   0  0  0  0  0  0  0  0  0  0  0  0
  -20.6406  -30.9944   24.7321 C   0  0  0  0  0  0  0  0  0  0  0  0
  -24.7836  -27.6097   20.1186 C   0  0  0  0  0  0  0  0  0  0  0  0
  -29.5771  -24.7179   20.0125 C   0  0  0  0  0  0  0  0  0  0  0  0
  -26.3724  -13.0995   20.3794 C   0  0  0  0  0  0  0  0  0  0  0  0
  -27.2090  -27.4998   19.9947 C   0  0  0  0  0  0  0  0  0  0  0  0
  -25.8219  -11.1144   19.2488 C   0  0  0  0  0  0  0  0  0  0  0  0
  -25.3318   -9.7833   16.8466 C   0  0  0  0  0  0  0  0  0  0  0  0
  -24.7800  -11.5314   18.4204 C   0  0  0  0  0  0  0  0  0  0  0  0
  -27.3231  -17.2174   20.1863 C   0  0  0  0  0  0  0  0  0  0  0  0
  -32.0590  -23.5856   19.9493 C   0  0  0  0  0  0  0  0  0  0  0  0
  -30.3325  -24.6334   18.8540 C   0  0  0  0  0  0  0  0  0  0  0  0
  -28.2404  -19.1948   20.4755 C   0  0  0  0  0  0  0  0  0  0  0  0
  -29.3156  -17.3716   21.8054 C   0  0  0  0  0  0  0  0  0  0  0  0
  -22.4965  -29.0395   22.2049 C   0  0  0  0  0  0  0  0  0  0  0  0
  -20.9802  -27.2314   19.9790 C   0  0  0  0  0  0  0  0  0  0  0  0
  -21.2202  -25.1090   17.3174 C   0  0  0  0  0  0  0  0  0  0  0  0
  -27.5345  -23.0058   16.4601 C   0  0  0  0  0  0  0  0  0  0  0  0
  -18.5542  -29.6850   25.3829 C   0  0  0  0  0  0  0  0  0  0  0  0
  -23.5938  -29.8339   20.0787 C   0  0  0  0  0  0  0  0  0  0  0  0
  -23.4680  -26.8825   20.2125 C   0  0  0  0  0  0  0  0  0  0  0  0
  -19.1611  -28.5097   24.6208 C   0  0  0  0  0  0  0  0  0  0  0  0
  -24.6049  -21.5380   17.8528 C   0  0  0  0  0  0  0  0  0  0  0  0
  -20.6706  -28.4578   24.8336 C   0  0  0  0  0  0  0  0  0  0  0  0
  -25.1349  -20.3354   18.6355 C   0  0  0  0  0  0  0  0  0  0  0  0
  -25.3931  -21.7649   16.5647 C   0  0  0  0  0  0  0  0  0  0  0  0
  -27.3829  -20.6740   17.5261 C   0  0  0  0  0  0  0  0  0  0  0  0
  -21.3468  -29.7271   24.3016 C   0  0  1  0  0  0  0  0  0  0  0  0
  -22.4078  -29.1083   20.7066 C   0  0  1  0  0  0  0  0  0  0  0  0
  -26.6554  -20.4391   18.8610 C   0  0  2  0  0  0  0  0  0  0  0  0
  -33.3634  -21.4769   19.5775 C   0  0  0  0  0  0  0  0  0  0  0  0
  -19.8093  -23.7667   15.7347 C   0  0  0  0  0  0  0  0  0  0  0  0
  -20.4861  -25.1689   22.1726 C   0  0  0  0  0  0  0  0  0  0  0  0
  -19.9522  -23.4988   20.3855 C   0  0  0  0  0  0  0  0  0  0  0  0
  -18.5474  -25.5446   20.6381 C   0  0  0  0  0  0  0  0  0  0  0  0
  -22.2382  -26.5931   14.9679 C   0  0  0  0  0  0  0  0  0  0  0  0
  -28.2140  -25.3446   20.0320 C   0  0  0  0  0  0  0  0  0  1  0  0
  -33.4172  -22.9703   19.8872 C   0  0  0  0  0  0  0  0  0  0  0  0
  -29.7983  -25.1702   17.5667 C   0  0  0  0  0  0  0  0  0  0  0  0
  -29.7475  -24.1290   16.4434 C   0  0  0  0  0  0  0  0  0  0  0  0
  -20.8815  -25.7532   19.6890 C   0  0  1  0  0  0  0  0  0  0  0  0
  -20.5128  -25.0935   15.9744 C   0  0  2  0  0  0  0  0  0  0  0  0
  -19.9918  -25.0049   20.7215 C   0  0  0  0  0  0  0  0  0  0  0  0
  -26.6139  -18.0332   19.4018 N   0  0  0  0  0  0  0  0  0  0  0  0
  -31.5637  -24.0785   18.7920 N   0  0  0  0  0  0  0  0  0  0  0  0
  -27.1956  -19.2284   19.5995 N   0  0  0  0  0  0  0  0  0  0  0  0
  -22.2664  -27.7331   20.2236 N   0  0  0  0  0  0  0  0  0  0  0  0
  -26.8274  -21.8557   16.8480 N   0  0  0  0  0  0  0  0  0  0  0  0
  -28.9370  -20.3081   20.7879 N   0  0  0  0  0  0  0  0  0  0  0  0
  -29.2871  -16.0036   22.1089 N   0  0  0  0  0  0  0  0  0  0  0  0
  -21.4582  -29.6740   22.8597 N   0  0  0  0  0  0  0  0  0  0  0  0
  -20.4216  -25.6378   18.3093 N   0  0  0  0  0  0  0  0  0  0  0  0
  -28.8885  -23.0133   16.7723 N   0  0  0  0  0  0  0  0  0  0  0  0
  -21.4905  -25.3130   14.8713 N   0  3  0  0  0  0  0  0  0  0  0  0
  -30.1680  -18.1059   22.3601 O   0  0  0  0  0  0  0  0  0  0  0  0
  -23.4365  -28.4527   22.7282 O   0  0  0  0  0  0  0  0  0  0  0  0
  -19.9548  -27.9171   19.9812 O   0  0  0  0  0  0  0  0  0  0  0  0
  -22.3653  -24.6901   17.4719 O   0  0  0  0  0  0  0  0  0  0  0  0
  -26.9978  -23.9577   15.8833 O   0  0  0  0  0  0  0  0  0  0  0  0
  -26.0670  -11.7746   20.4411 O   0  0  0  0  0  0  0  0  0  0  0  0
  -28.3528  -26.7632   19.9627 O   0  0  0  0  0  0  0  0  0  1  0  0
  -25.0976   -9.1451   15.6925 F   0  0  0  0  0  0  0  0  0  0  0  0
  -24.0118  -12.5714   18.7726 F   0  0  0  0  0  0  0  0  0  0  0  0
  1  2  1  0  0  0  0
  1  5  2  0  0  0  0
  2  6  2  0  0  0  0
  3  9  2  0  0  0  0
  3 17  1  0  0  0  0
  4 10  1  0  0  0  0
  4 17  2  0  0  0  0
  5 19  1  0  0  0  0
  6 21  1  0  0  0  0
  7 11  2  0  0  0  0
  7 20  1  0  0  0  0
  8 14  2  0  0  0  0
  8 23  1  0  0  0  0
  9 24  1  0  0  0  0
 10 24  2  0  0  0  0
 11 25  1  0  0  0  0
 12 13  2  0  0  0  0
 12 26  1  0  0  0  0
 13 27  1  0  0  0  0
 14 30  1  0  0  0  0
 15 22  1  0  0  0  0
 15 25  2  0  0  0  0
 16 27  2  0  0  0  0
 16 28  1  0  0  0  0
 17 29  1  0  0  0  0
 18 29  1  0  0  0  0
 18 32  2  0  0  0  0
 18 33  1  0  0  0  0
 19 21  2  0  0  0  0
 19 38  1  0  0  0  0
 20 22  2  0  0  0  0
 20 39  1  0  0  0  0
 21 47  1  0  0  0  0
 22 40  1  0  0  0  0
 23 31  2  0  0  0  0
 23 56  1  0  0  0  0
 24 79  1  0  0  0  0
 25 80  1  0  0  0  0
 26 28  2  0  0  0  0
 26 79  1  0  0  0  0
 27 81  1  0  0  0  0
 28 82  1  0  0  0  0
 29 63  2  0  0  0  0
 30 57  1  0  0  0  0
 30 64  2  0  0  0  0
 31 58  1  0  0  0  0
 31 64  1  0  0  0  0
 32 65  1  0  0  0  0
 32 68  1  0  0  0  0
 33 69  1  0  0  0  0
 33 74  2  0  0  0  0
 34 48  1  0  0  0  0
 34 70  1  0  0  0  0
 34 75  2  0  0  0  0
 35 60  1  0  0  0  0
 35 66  1  0  0  0  0
 35 76  2  0  0  0  0
 36 61  1  0  0  0  0
 36 71  1  0  0  0  0
 36 77  2  0  0  0  0
 37 67  1  0  0  0  0
 37 72  1  0  0  0  0
 37 78  2  0  0  0  0
 38 41  1  0  0  0  0
 39 48  1  0  0  0  0
 40 66  1  0  0  0  0
 41 43  1  0  0  0  0
 42 44  1  0  0  0  0
 42 45  1  0  0  0  0
 43 47  1  0  0  0  0
 44 49  1  0  0  0  0
 45 67  1  0  0  0  0
 46 49  1  0  0  0  0
 46 67  1  0  0  0  0
 47 70  1  0  0  0  0
 48 66  1  0  0  0  0
 49 65  1  0  0  0  0
 50 57  1  0  0  0  0
 51 61  1  0  0  0  0
 52 62  1  0  0  0  0
 53 62  1  0  0  0  0
 54 62  1  0  0  0  0
 55 73  1  0  0  0  0
 56 80  1  0  0  0  0
 58 59  1  0  0  0  0
 59 72  1  0  0  0  0
 60 62  1  0  0  0  0
 60 71  1  0  0  0  0
 61 73  1  0  0  0  0
 63 65  1  0  0  0  0
M  CHG  1  73   1
M  ISO  4  37 100  56 101  72 100  80 101
M  END
> <Batch ID>
0115

> <Smiles>
CCc1ccc([101CH2:1][101O:1]c2ccc3c(c2)CN(C(=O)C(NC(=O)C(C)NC)C(C)(C)C)C(C(=O)NC2CCCc4ccccc42)C3)c(CC[100NH:0][100C:0](=O)N2CCCC(n3nc(-c4ccc(Oc5ccc(F)cc5F)cc4)c(C(N)=O)c3N)C2)n1

> <Shape>
0.207

> <Color>
0.093

> <Negative vol penalty>
0.000

$$$$

  -OEChem-04052320103D

 89 97  0     1  0  0  0  0  0999 V2000
  -22.7607  -19.0185   15.5254 C   0  0  0  0  0  0  0  0  0  0  0  0
  -23.6925  -18.5097   16.4245 C   0  0  0  0  0  0  0  0  0  0  0  0
  -25.0481  -31.0957   21.2787 C   0  0  0  0  0  0  0  0  0  0  0  0
  -24.3042  -29.3098   22.7259 C   0  0  0  0  0  0  0  0  0  0  0  0
  -21.4040  -18.7507   15.7031 C   0  0  0  0  0  0  0  0  0  0  0  0
  -23.2680  -17.7337   17.5024 C   0  0  0  0  0  0  0  0  0  0  0  0
  -26.1207  -13.6023   18.1647 C   0  0  0  0  0  0  0  0  0  0  0  0
  -24.3177  -32.0126   22.0347 C   0  0  0  0  0  0  0  0  0  0  0  0
  -23.5739  -30.2267   23.4819 C   0  0  0  0  0  0  0  0  0  0  0  0
  -27.3571  -13.7750   18.7853 C   0  0  0  0  0  0  0  0  0  0  0  0
  -22.9388  -34.8768   23.7983 C   0  0  0  0  0  0  0  0  0  0  0  0
  -23.5612  -36.0773   24.1400 C   0  0  0  0  0  0  0  0  0  0  0  0
  -26.4128  -13.0052   20.8673 C   0  0  0  0  0  0  0  0  0  0  0  0
  -29.1774  -19.2799   17.7509 C   0  0  0  0  0  0  0  0  0  0  0  0
  -28.4918  -21.2839   18.8905 C   0  0  0  0  0  0  0  0  0  0  0  0
  -25.2797  -34.8517   25.3156 C   0  0  0  0  0  0  0  0  0  0  0  0
  -25.0413  -29.7443   21.6242 C   0  0  0  0  0  0  0  0  0  0  0  0
  -27.1315  -28.4021   21.0436 C   0  0  0  0  0  0  0  0  0  0  0  0
  -20.9635  -17.9630   16.7783 C   0  0  0  0  0  0  0  0  0  0  0  0
  -25.0164  -13.1392   18.8945 C   0  0  0  0  0  0  0  0  0  0  0  0
  -21.9040  -17.4562   17.6954 C   0  0  0  0  0  0  0  0  0  0  0  0
  -25.1641  -12.8249   20.2530 C   0  0  0  0  0  0  0  0  0  0  0  0
  -23.5807  -31.5781   23.1363 C   0  0  0  0  0  0  0  0  0  0  0  0
  -27.5026  -13.4792   20.1375 C   0  0  0  0  0  0  0  0  0  0  0  0
  -23.4868  -33.6636   24.2152 C   0  0  0  0  0  0  0  0  0  0  0  0
  -29.2883  -20.1456   18.8334 C   0  0  0  0  0  0  0  0  0  0  0  0
  -24.7316  -36.0648   24.8987 C   0  0  0  0  0  0  0  0  0  0  0  0
  -24.6572  -33.6511   24.9738 C   0  0  0  0  0  0  0  0  0  0  0  0
  -25.7951  -28.7967   20.8433 C   0  0  0  0  0  0  0  0  0  0  0  0
  -28.2622  -19.5951   16.7595 C   0  0  0  0  0  0  0  0  0  0  0  0
  -27.6074  -21.5094   17.8480 C   0  0  0  0  0  0  0  0  0  0  0  0
  -27.3738  -27.4908   20.0450 C   0  0  0  0  0  0  0  0  0  0  0  0
  -28.0699  -28.8218   22.0431 C   0  0  0  0  0  0  0  0  0  0  0  0
  -22.1640  -14.3262   19.6418 C   0  0  0  0  0  0  0  0  0  0  0  0
  -21.6843  -11.3617   20.8682 C   0  0  0  0  0  0  0  0  0  0  0  0
  -23.0379   -8.4984   22.1393 C   0  0  0  0  0  0  0  0  0  0  0  0
  -25.8484  -23.0943   16.9876 C   0  0  0  0  0  0  0  0  0  0  0  0
  -19.4825  -17.7399   16.9559 C   0  0  0  0  0  0  0  0  0  0  0  0
  -23.6962  -12.9328   18.2041 C   0  0  0  0  0  0  0  0  0  0  0  0
  -24.0148  -12.3056   21.0763 C   0  0  0  0  0  0  0  0  0  0  0  0
  -19.1489  -16.5974   17.9117 C   0  0  0  0  0  0  0  0  0  0  0  0
  -24.6468  -26.2830   15.9552 C   0  0  0  0  0  0  0  0  0  0  0  0
  -19.9888  -16.7007   19.1809 C   0  0  0  0  0  0  0  0  0  0  0  0
  -24.9484  -27.1887   17.1513 C   0  0  0  0  0  0  0  0  0  0  0  0
  -24.2268  -24.8820   16.3963 C   0  0  0  0  0  0  0  0  0  0  0  0
  -25.4556  -25.1241   18.5177 C   0  0  0  0  0  0  0  0  0  0  0  0
  -21.4848  -16.5896   18.8631 C   0  0  1  0  0  0  0  0  0  0  0  0
  -22.5112  -12.9443   19.1649 C   0  0  1  0  0  0  0  0  0  0  0  0
  -25.9456  -26.5267   18.1223 C   0  0  2  0  0  0  0  0  0  0  0  0
  -29.0507  -19.0640   14.4394 C   0  0  0  0  0  0  0  0  0  0  0  0
  -22.3925   -6.2679   23.0912 C   0  0  0  0  0  0  0  0  0  0  0  0
  -20.9050  -12.7098   23.4922 C   0  0  0  0  0  0  0  0  0  0  0  0
  -21.1989  -10.5009   24.6336 C   0  0  0  0  0  0  0  0  0  0  0  0
  -19.4711  -10.7629   22.8535 C   0  0  0  0  0  0  0  0  0  0  0  0
  -34.6893  -16.5564   20.8161 C   0  0  0  0  0  0  0  0  0  0  0  0
  -24.4498   -7.0405   19.9852 C   0  0  0  0  0  0  0  0  0  0  0  0
  -28.1146  -18.6873   15.5844 C   0  0  0  0  0  0  0  0  0  0  0  0
  -30.7730  -18.3461   21.5825 C   0  0  0  0  0  0  0  0  0  0  0  0
  -32.3354  -16.3481   21.2358 C   0  0  0  0  0  0  0  0  0  0  0  0
  -29.9435  -14.7625   22.4818 C   0  0  0  0  0  0  0  0  0  0  0  0
  -30.4629  -18.5093   20.0977 C   0  0  0  0  0  0  0  0  0  0  0  0
  -28.6947  -13.9764   22.1344 C   0  0  0  0  0  0  0  0  0  1  0  0
  -21.9155  -10.7096   22.2099 C   0  0  1  0  0  0  0  0  0  0  0  0
  -22.7702   -7.0357   21.8339 C   0  0  2  0  0  0  0  0  0  0  0  0
  -31.1227  -16.9083   21.9881 C   0  0  2  0  0  0  0  0  0  0  0  0
  -20.8940  -11.1824   23.2825 C   0  0  0  0  0  0  0  0  0  0  0  0
  -25.2281  -28.1861   19.7993 N   0  0  0  0  0  0  0  0  0  0  0  0
  -27.4716  -20.6914   16.7802 N   0  0  0  0  0  0  0  0  0  0  0  0
  -26.2131  -27.3988   19.3347 N   0  0  0  0  0  0  0  0  0  0  0  0
  -22.7426  -12.1266   20.3574 N   0  0  0  0  0  0  0  0  0  0  0  0
  -25.2209  -24.3161   17.3108 N   0  0  0  0  0  0  0  0  0  0  0  0
  -28.4644  -26.7673   19.7139 N   0  0  0  0  0  0  0  0  0  0  0  0
  -27.6565  -29.7652   22.9935 N   0  0  0  0  0  0  0  0  0  0  0  0
  -26.7992  -22.6713   17.9158 N   0  0  0  0  0  0  0  0  0  0  0  0
  -21.8501  -15.2094   18.6265 N   0  0  0  0  0  0  0  0  0  0  0  0
  -21.9079   -9.2704   21.9710 N   0  0  0  0  0  0  0  0  0  0  0  0
  -33.5387  -17.1307   21.4983 N   0  0  0  0  0  0  0  0  0  0  0  0
  -23.9809   -6.4002   21.2411 N   0  3  0  0  0  0  0  0  0  0  0  0
  -29.9671  -16.0192   21.6916 N   0  3  0  0  0  0  0  0  0  0  0  0
  -29.2454  -28.3857   22.0819 O   0  0  0  0  0  0  0  0  0  0  0  0
  -22.1782  -14.5725   20.8421 O   0  0  0  0  0  0  0  0  0  0  0  0
  -20.6072  -11.1926   20.2912 O   0  0  0  0  0  0  0  0  0  0  0  0
  -24.1384   -8.9139   22.4954 O   0  0  0  0  0  0  0  0  0  0  0  0
  -25.5828  -22.4831   15.9495 O   0  0  0  0  0  0  0  0  0  0  0  0
  -22.8681  -32.4725   23.8744 O   0  0  0  0  0  0  0  0  0  0  0  0
  -28.7082  -13.6476   20.7458 O   0  0  0  0  0  0  0  0  0  1  0  0
  -30.1792  -19.8790   19.8395 O   0  0  0  0  0  0  0  0  0  0  0  0
  -25.3301  -37.2177   25.2255 F   0  0  0  0  0  0  0  0  0  0  0  0
  -25.1890  -32.4888   25.3763 F   0  0  0  0  0  0  0  0  0  0  0  0
  1  2  1  0  0  0  0
  1  5  2  0  0  0  0
  2  6  2  0  0  0  0
  3  8  2  0  0  0  0
  3 17  1  0  0  0  0
  4  9  1  0  0  0  0
  4 17  2  0  0  0  0
  5 19  1  0  0  0  0
  6 21  1  0  0  0  0
  7 10  2  0  0  0  0
  7 20  1  0  0  0  0
  8 23  1  0  0  0  0
  9 23  2  0  0  0  0
 10 24  1  0  0  0  0
 11 12  2  0  0  0  0
 11 25  1  0  0  0  0
 12 27  1  0  0  0  0
 13 22  1  0  0  0  0
 13 24  2  0  0  0  0
 14 26  2  0  0  0  0
 14 30  1  0  0  0  0
 15 26  1  0  0  0  0
 15 31  2  0  0  0  0
 16 27  2  0  0  0  0
 16 28  1  0  0  0  0
 17 29  1  0  0  0  0
 18 29  1  0  0  0  0
 18 32  2  0  0  0  0
 18 33  1  0  0  0  0
 19 21  2  0  0  0  0
 19 38  1  0  0  0  0
 20 22  2  0  0  0  0
 20 39  1  0  0  0  0
 21 47  1  0  0  0  0
 22 40  1  0  0  0  0
 23 85  1  0  0  0  0
 24 86  1  0  0  0  0
 25 28  2  0  0  0  0
 25 85  1  0  0  0  0
 26 87  1  0  0  0  0
 27 88  1  0  0  0  0
 28 89  1  0  0  0  0
 29 67  2  0  0  0  0
 30 57  1  0  0  0  0
 30 68  2  0  0  0  0
 31 68  1  0  0  0  0
 31 74  1  0  0  0  0
 32 69  1  0  0  0  0
 32 72  1  0  0  0  0
 33 73  1  0  0  0  0
 33 80  2  0  0  0  0
 34 48  1  0  0  0  0
 34 75  1  0  0  0  0
 34 81  2  0  0  0  0
 35 63  1  0  0  0  0
 35 70  1  0  0  0  0
 35 82  2  0  0  0  0
 36 64  1  0  0  0  0
 36 76  1  0  0  0  0
 36 83  2  0  0  0  0
 37 71  1  0  0  0  0
 37 74  1  0  0  0  0
 37 84  2  0  0  0  0
 38 41  1  0  0  0  0
 39 48  1  0  0  0  0
 40 70  1  0  0  0  0
 41 43  1  0  0  0  0
 42 44  1  0  0  0  0
 42 45  1  0  0  0  0
 43 47  1  0  0  0  0
 44 49  1  0  0  0  0
 45 71  1  0  0  0  0
 46 49  1  0  0  0  0
 46 71  1  0  0  0  0
 47 75  1  0  0  0  0
 48 70  1  0  0  0  0
 49 69  1  0  0  0  0
 50 57  1  0  0  0  0
 51 64  1  0  0  0  0
 52 66  1  0  0  0  0
 53 66  1  0  0  0  0
 54 66  1  0  0  0  0
 55 77  1  0  0  0  0
 56 78  1  0  0  0  0
 58 61  1  0  0  0  0
 58 65  1  0  0  0  0
 59 65  1  0  0  0  0
 59 77  1  0  0  0  0
 60 62  1  0  0  0  0
 60 79  1  0  0  0  0
 61 87  1  0  0  0  0
 62 86  1  0  0  0  0
 63 66  1  0  0  0  0
 63 76  1  0  0  0  0
 64 78  1  0  0  0  0
 65 79  1  0  0  0  0
 67 69  1  0  0  0  0
M  CHG  2  78   1  79   1
M  ISO  4  37 100  62 101  74 100  86 101
M  END
> <Batch ID>
0115

> <Smiles>
CCc1cc(OCCC(CNC)NC[101CH2:1][101O:1]c2ccc3c(c2)CN(C(=O)C(NC(=O)C(C)NC)C(C)(C)C)C(C(=O)NC2CCCc4ccccc42)C3)cc([100NH:0][100C:0](=O)N2CCCC(n3nc(-c4ccc(Oc5ccc(F)cc5F)cc4)c(C(N)=O)c3N)C2)n1

> <Shape>
0.243

> <Color>
0.068

> <Negative vol penalty>
0.000

$$$$

  -OEChem-04052320103D

 84 93  0     1  0  0  0  0  0999 V2000
  -17.6336  -30.2417   23.5293 C   0  0  0  0  0  0  0  0  0  0  0  0
  -18.9984  -30.5080   23.4859 C   0  0  0  0  0  0  0  0  0  0  0  0
  -29.4518  -23.9053   16.7281 C   0  0  0  0  0  0  0  0  0  0  0  0
  -26.0417  -13.3585   21.3092 C   0  0  0  0  0  0  0  0  0  0  0  0
  -24.2727  -14.9001   20.7334 C   0  0  0  0  0  0  0  0  0  0  0  0
  -17.1680  -28.9514   23.2802 C   0  0  0  0  0  0  0  0  0  0  0  0
  -19.8985  -29.4836   23.1943 C   0  0  0  0  0  0  0  0  0  0  0  0
  -25.1399  -29.9688   20.0642 C   0  0  0  0  0  0  0  0  0  0  0  0
  -25.0919  -12.4149   21.7006 C   0  0  0  0  0  0  0  0  0  0  0  0
  -23.3230  -13.9565   21.1248 C   0  0  0  0  0  0  0  0  0  0  0  0
  -26.4683  -30.0849   20.4713 C   0  0  0  0  0  0  0  0  0  0  0  0
  -23.0279  -10.1912   20.2082 C   0  0  0  0  0  0  0  0  0  0  0  0
  -23.2093   -8.8747   19.7845 C   0  0  0  0  0  0  0  0  0  0  0  0
  -30.1951  -24.9785   17.2067 C   0  0  0  0  0  0  0  0  0  0  0  0
  -29.0573  -22.8963   17.5995 C   0  0  0  0  0  0  0  0  0  0  0  0
  -26.7483  -27.7025   20.2166 C   0  0  0  0  0  0  0  0  0  0  0  0
  -23.3076   -8.1474   22.0863 C   0  0  0  0  0  0  0  0  0  0  0  0
  -25.6321  -14.6012   20.8256 C   0  0  0  0  0  0  0  0  0  0  0  0
  -27.1717  -15.7395   19.1400 C   0  0  0  0  0  0  0  0  0  0  0  0
  -18.0621  -27.9128   22.9759 C   0  0  0  0  0  0  0  0  0  0  0  0
  -24.6018  -28.7150   19.7401 C   0  0  0  0  0  0  0  0  0  0  0  0
  -19.4445  -28.1779   22.9422 C   0  0  0  0  0  0  0  0  0  0  0  0
  -25.4136  -27.5735   19.8032 C   0  0  0  0  0  0  0  0  0  0  0  0
  -23.7326  -12.7139   21.6084 C   0  0  0  0  0  0  0  0  0  0  0  0
  -27.2719  -28.9513   20.5504 C   0  0  0  0  0  0  0  0  0  0  0  0
  -22.9865  -10.4858   21.5710 C   0  0  0  0  0  0  0  0  0  0  0  0
  -23.3491   -7.8528   20.7235 C   0  0  0  0  0  0  0  0  0  0  0  0
  -23.1263   -9.4640   22.5100 C   0  0  0  0  0  0  0  0  0  0  0  0
  -26.6127  -15.5766   20.4217 C   0  0  0  0  0  0  0  0  0  0  0  0
  -30.5156  -24.9955   18.5546 C   0  0  0  0  0  0  0  0  0  0  0  0
  -29.4289  -23.0065   18.9298 C   0  0  0  0  0  0  0  0  0  0  0  0
  -28.0433  -16.7922   19.2769 C   0  0  0  0  0  0  0  0  0  0  0  0
  -26.9250  -15.0052   17.9335 C   0  0  0  0  0  0  0  0  0  0  0  0
  -22.2524  -26.9149   20.8992 C   0  0  0  0  0  0  0  0  0  0  0  0
  -22.9420  -25.0501   18.3362 C   0  0  0  0  0  0  0  0  0  0  0  0
  -25.2259  -24.0689   15.9978 C   0  0  0  0  0  0  0  0  0  0  0  0
  -29.2782  -21.8781   21.1771 C   0  0  0  0  0  0  0  0  0  0  0  0
  -17.5152  -26.5239   22.7604 C   0  0  0  0  0  0  0  0  0  0  0  0
  -23.1746  -28.6102   19.2770 C   0  0  0  0  0  0  0  0  0  0  0  0
  -24.8897  -26.2071   19.4466 C   0  0  0  0  0  0  0  0  0  0  0  0
  -18.5066  -25.5761   22.0902 C   0  0  0  0  0  0  0  0  0  0  0  0
  -29.7310  -19.1534   23.4239 C   0  0  0  0  0  0  0  0  0  0  0  0
  -19.8776  -25.6836   22.7502 C   0  0  0  0  0  0  0  0  0  0  0  0
  -29.0060  -17.9934   22.7377 C   0  0  0  0  0  0  0  0  0  0  0  0
  -30.9238  -29.3778   20.5686 C   0  0  0  0  0  0  0  0  0  0  0  0
  -29.0040  -20.4804   23.2134 C   0  0  0  0  0  0  0  0  0  0  0  0
  -27.9882  -19.6535   21.1269 C   0  0  0  0  0  0  0  0  0  0  0  0
  -31.2894  -27.9354   20.8876 C   0  0  0  0  0  0  0  0  0  0  0  0
  -29.6645  -28.0456   19.0547 C   0  0  0  0  0  0  0  0  0  0  0  0
  -20.4503  -27.0987   22.6050 C   0  0  1  0  0  0  0  0  0  0  0  0
  -22.5863  -27.2153   19.4654 C   0  0  1  0  0  0  0  0  0  0  0  0
  -28.7176  -18.3064   21.2564 C   0  0  2  0  0  0  0  0  0  0  0  0
  -29.5437  -29.2828   19.9299 C   0  0  2  0  0  0  0  0  0  1  0  0
  -29.1616  -30.5313   19.1500 C   0  0  0  0  0  0  0  0  0  0  0  0
  -25.5110  -22.5013   14.0591 C   0  0  0  0  0  0  0  0  0  0  0  0
  -23.2287  -22.7103   20.2735 C   0  0  0  0  0  0  0  0  0  0  0  0
  -24.4130  -21.4481   18.4644 C   0  0  0  0  0  0  0  0  0  0  0  0
  -22.0441  -22.1598   18.1408 C   0  0  0  0  0  0  0  0  0  0  0  0
  -25.7252  -26.2996   14.1179 C   0  0  0  0  0  0  0  0  0  0  0  0
  -31.3164  -26.1382   19.1061 C   0  0  0  0  0  0  0  0  0  0  0  0
  -23.8802  -23.8967   18.0748 C   0  0  1  0  0  0  0  0  0  0  0  0
  -25.1195  -23.9055   14.4924 C   0  0  2  0  0  0  0  0  0  0  0  0
  -23.4011  -22.5791   18.7470 C   0  0  0  0  0  0  0  0  0  0  0  0
  -27.0893  -16.4552   21.3076 N   0  0  0  0  0  0  0  0  0  0  0  0
  -30.1503  -24.0338   19.4316 N   0  0  0  0  0  0  0  0  0  0  0  0
  -27.9570  -17.1803   20.5815 N   0  0  0  0  0  0  0  0  0  0  0  0
  -23.4860  -26.1555   19.0055 N   0  0  0  0  0  0  0  0  0  0  0  0
  -28.7688  -20.7120   21.7865 N   0  0  0  0  0  0  0  0  0  0  0  0
  -28.8675  -17.4143   18.4074 N   0  0  0  0  0  0  0  0  0  0  0  0
  -25.9986  -13.9541   17.9687 N   0  0  0  0  0  0  0  0  0  0  0  0
  -29.0202  -21.9741   19.8101 N   0  0  0  0  0  0  0  0  0  0  0  0
  -20.9775  -27.2962   21.2718 N   0  0  0  0  0  0  0  0  0  0  0  0
  -24.0261  -23.8094   16.6258 N   0  0  0  0  0  0  0  0  0  0  0  0
  -30.4941  -27.0986   19.9038 N   0  3  1  0  0  0  0  0  0  0  0  0
  -26.0136  -24.8770   13.8013 N   0  3  0  0  0  0  0  0  0  0  0  0
  -27.5210  -15.2625   16.8602 O   0  0  0  0  0  0  0  0  0  0  0  0
  -23.0889  -26.3758   21.6142 O   0  0  0  0  0  0  0  0  0  0  0  0
  -21.7714  -24.9761   17.9541 O   0  0  0  0  0  0  0  0  0  0  0  0
  -26.2700  -24.3907   16.5607 O   0  0  0  0  0  0  0  0  0  0  0  0
  -29.9211  -22.7158   21.8151 O   0  0  0  0  0  0  0  0  0  0  0  0
  -22.8056  -11.7932   21.9900 O   0  0  0  0  0  0  0  0  0  0  0  0
  -28.5686  -29.0618   20.9481 O   0  0  0  0  0  0  0  0  0  1  0  0
  -23.5217   -6.5884   20.3165 F   0  0  0  0  0  0  0  0  0  0  0  0
  -23.0862   -9.7407   23.8206 F   0  0  0  0  0  0  0  0  0  0  0  0
  1  2  1  0  0  0  0
  1  6  2  0  0  0  0
  2  7  2  0  0  0  0
  3 14  2  0  0  0  0
  3 15  1  0  0  0  0
  4  9  2  0  0  0  0
  4 18  1  0  0  0  0
  5 10  1  0  0  0  0
  5 18  2  0  0  0  0
  6 20  1  0  0  0  0
  7 22  1  0  0  0  0
  8 11  2  0  0  0  0
  8 21  1  0  0  0  0
  9 24  1  0  0  0  0
 10 24  2  0  0  0  0
 11 25  1  0  0  0  0
 12 13  2  0  0  0  0
 12 26  1  0  0  0  0
 13 27  1  0  0  0  0
 14 30  1  0  0  0  0
 15 31  2  0  0  0  0
 16 23  1  0  0  0  0
 16 25  2  0  0  0  0
 17 27  2  0  0  0  0
 17 28  1  0  0  0  0
 18 29  1  0  0  0  0
 19 29  1  0  0  0  0
 19 32  2  0  0  0  0
 19 33  1  0  0  0  0
 20 22  2  0  0  0  0
 20 38  1  0  0  0  0
 21 23  2  0  0  0  0
 21 39  1  0  0  0  0
 22 50  1  0  0  0  0
 23 40  1  0  0  0  0
 24 81  1  0  0  0  0
 25 82  1  0  0  0  0
 26 28  2  0  0  0  0
 26 81  1  0  0  0  0
 27 83  1  0  0  0  0
 28 84  1  0  0  0  0
 29 64  2  0  0  0  0
 30 60  1  0  0  0  0
 30 65  2  0  0  0  0
 31 65  1  0  0  0  0
 31 71  1  0  0  0  0
 32 66  1  0  0  0  0
 32 69  1  0  0  0  0
 33 70  1  0  0  0  0
 33 76  2  0  0  0  0
 34 51  1  0  0  0  0
 34 72  1  0  0  0  0
 34 77  2  0  0  0  0
 35 61  1  0  0  0  0
 35 67  1  0  0  0  0
 35 78  2  0  0  0  0
 36 62  1  0  0  0  0
 36 73  1  0  0  0  0
 36 79  2  0  0  0  0
 37 68  1  0  0  0  0
 37 71  1  0  0  0  0
 37 80  2  0  0  0  0
 38 41  1  0  0  0  0
 39 51  1  0  0  0  0
 40 67  1  0  0  0  0
 41 43  1  0  0  0  0
 42 44  1  0  0  0  0
 42 46  1  0  0  0  0
 43 50  1  0  0  0  0
 44 52  1  0  0  0  0
 45 48  1  0  0  0  0
 45 53  1  0  0  0  0
 46 68  1  0  0  0  0
 47 52  1  0  0  0  0
 47 68  1  0  0  0  0
 48 74  1  0  0  0  0
 49 53  1  0  0  0  0
 49 74  1  0  0  0  0
 50 72  1  0  0  0  0
 51 67  1  0  0  0  0
 52 66  1  0  0  0  0
 53 54  1  0  0  0  0
 53 82  1  0  0  0  0
 55 62  1  0  0  0  0
 56 63  1  0  0  0  0
 57 63  1  0  0  0  0
 58 63  1  0  0  0  0
 59 75  1  0  0  0  0
 60 74  1  0  0  0  0
 61 63  1  0  0  0  0
 61 73  1  0  0  0  0
 62 75  1  0  0  0  0
 64 66  1  0  0  0  0
M  CHG  2  74   1  75   1
M  ISO  4  37 100  53 101  71 100  82 101
M  END
> <Batch ID>
0115

> <Smiles>
CNC(C)C(=O)NC(C(=O)N1Cc2cc([101O:1][101C:1]3(C)CCN(Cc4cccc([100NH:0][100C:0](=O)N5CCCC(n6nc(-c7ccc(Oc8ccc(F)cc8F)cc7)c(C(N)=O)c6N)C5)n4)C3)ccc2CC1C(=O)NC1CCCc2ccccc21)C(C)(C)C

> <Shape>
0.295

> <Color>
0.058

> <Negative vol penalty>
0.000

$$$$

  -OEChem-04052320103D

 81 88  0     1  0  0  0  0  0999 V2000
  -18.1680  -28.7857   22.9203 C   0  0  0  0  0  0  0  0  0  0  0  0
  -19.5209  -28.7179   22.6029 C   0  0  0  0  0  0  0  0  0  0  0  0
  -27.5292  -13.7056   22.0723 C   0  0  0  0  0  0  0  0  0  0  0  0
  -26.9360  -14.4721   19.8592 C   0  0  0  0  0  0  0  0  0  0  0  0
  -17.4336  -27.6129   23.0908 C   0  0  0  0  0  0  0  0  0  0  0  0
  -20.1403  -27.4771   22.4570 C   0  0  0  0  0  0  0  0  0  0  0  0
  -23.1312  -27.2669   18.3759 C   0  0  0  0  0  0  0  0  0  0  0  0
  -26.6395  -12.6393   21.9415 C   0  0  0  0  0  0  0  0  0  0  0  0
  -26.0463  -13.4057   19.7284 C   0  0  0  0  0  0  0  0  0  0  0  0
  -24.3833  -27.8726   18.4723 C   0  0  0  0  0  0  0  0  0  0  0  0
  -24.2583   -9.9188   22.3309 C   0  0  0  0  0  0  0  0  0  0  0  0
  -23.4217   -9.6341   23.4101 C   0  0  0  0  0  0  0  0  0  0  0  0
  -25.3898  -25.7156   18.8639 C   0  0  0  0  0  0  0  0  0  0  0  0
  -22.4670  -11.8480   23.2540 C   0  0  0  0  0  0  0  0  0  0  0  0
  -27.6774  -14.6220   21.0311 C   0  0  0  0  0  0  0  0  0  0  0  0
  -29.9572  -15.7447   20.8079 C   0  0  0  0  0  0  0  0  0  0  0  0
  -18.0421  -26.3572   22.9375 C   0  0  0  0  0  0  0  0  0  0  0  0
  -22.9974  -25.8800   18.5340 C   0  0  0  0  0  0  0  0  0  0  0  0
  -19.4136  -26.2864   22.6270 C   0  0  0  0  0  0  0  0  0  0  0  0
  -24.1353  -25.0944   18.7666 C   0  0  0  0  0  0  0  0  0  0  0  0
  -25.8981  -12.4894   20.7696 C   0  0  0  0  0  0  0  0  0  0  0  0
  -25.5124  -27.0973   18.7191 C   0  0  0  0  0  0  0  0  0  0  0  0
  -24.1993  -11.1681   21.7133 C   0  0  0  0  0  0  0  0  0  0  0  0
  -22.5260  -10.5987   23.8716 C   0  0  0  0  0  0  0  0  0  0  0  0
  -23.3037  -12.1327   22.1748 C   0  0  0  0  0  0  0  0  0  0  0  0
  -28.5959  -15.7240   21.1658 C   0  0  0  0  0  0  0  0  0  0  0  0
  -30.3784  -17.0110   21.1326 C   0  0  0  0  0  0  0  0  0  0  0  0
  -30.7684  -14.7116   20.2332 C   0  0  0  0  0  0  0  0  0  0  0  0
  -21.4696  -23.9932   20.5857 C   0  0  0  0  0  0  0  0  0  0  0  0
  -30.7213  -23.9960   18.4800 C   0  0  0  0  0  0  0  0  0  0  0  0
  -22.4821  -21.6503   18.5837 C   0  0  0  0  0  0  0  0  0  0  0  0
  -24.7336  -20.6184   16.2358 C   0  0  0  0  0  0  0  0  0  0  0  0
  -28.8928  -26.6421   18.6411 C   0  0  0  0  0  0  0  0  0  0  0  0
  -29.6020  -22.5374   21.1733 C   0  0  0  0  0  0  0  0  0  0  0  0
  -17.2182  -25.1170   23.1782 C   0  0  0  0  0  0  0  0  0  0  0  0
  -21.6433  -25.2387   18.4006 C   0  0  0  0  0  0  0  0  0  0  0  0
  -24.0481  -23.5990   18.9237 C   0  0  0  0  0  0  0  0  0  0  0  0
  -17.8627  -23.8432   22.6375 C   0  0  0  0  0  0  0  0  0  0  0  0
  -28.0988  -20.6570   23.7965 C   0  0  0  0  0  0  0  0  0  0  0  0
  -19.3351  -23.7812   23.0313 C   0  0  0  0  0  0  0  0  0  0  0  0
  -28.2009  -19.2092   23.3136 C   0  0  0  0  0  0  0  0  0  0  0  0
  -27.8306  -21.6196   22.6417 C   0  0  0  0  0  0  0  0  0  0  0  0
  -28.8859  -20.0746   21.0375 C   0  0  0  0  0  0  0  0  0  0  0  0
  -20.1155  -24.9594   22.4360 C   0  0  1  0  0  0  0  0  0  0  0  0
  -21.5550  -23.8805   19.0898 C   0  0  1  0  0  0  0  0  0  0  0  0
  -29.2115  -19.0731   22.1588 C   0  0  2  0  0  0  0  0  0  0  0  0
  -32.2193  -25.6355   17.3298 C   0  0  0  0  0  0  0  0  0  0  0  0
  -25.3272  -18.6394   14.8115 C   0  0  0  0  0  0  0  0  0  0  0  0
  -28.1796  -28.4629   17.0529 C   0  0  0  0  0  0  0  0  0  0  0  0
  -23.6840  -20.2607   21.0197 C   0  0  0  0  0  0  0  0  0  0  0  0
  -25.0386  -18.8480   19.4585 C   0  0  0  0  0  0  0  0  0  0  0  0
  -22.5476  -18.7303   19.4008 C   0  0  0  0  0  0  0  0  0  0  0  0
  -24.3128  -22.1450   13.7355 C   0  0  0  0  0  0  0  0  0  0  0  0
  -31.4010  -23.3054   19.6459 C   0  0  0  0  0  0  0  0  0  0  0  0
  -31.0526  -25.4699   18.2862 C   0  0  1  0  0  0  0  0  0  0  0  0
  -23.7130  -20.7812   18.4910 C   0  0  1  0  0  0  0  0  0  0  0  0
  -24.5466  -19.9422   14.8895 C   0  0  2  0  0  0  0  0  0  0  0  0
  -27.7317  -27.2685   17.8815 C   0  0  2  0  0  0  0  0  0  1  0  0
  -23.7475  -19.6834   19.5915 C   0  0  0  0  0  0  0  0  0  0  0  0
  -28.1799  -16.8850   21.6789 N   0  0  0  0  0  0  0  0  0  0  0  0
  -29.2864  -17.6470   21.6457 N   0  0  0  0  0  0  0  0  0  0  0  0
  -22.7012  -23.0196   18.7912 N   0  0  0  0  0  0  0  0  0  0  0  0
  -28.8249  -21.4406   21.5809 N   0  0  0  0  0  0  0  0  0  0  0  0
  -31.5727  -17.6314   21.0266 N   0  0  0  0  0  0  0  0  0  0  0  0
  -30.1768  -13.4702   19.9627 N   0  0  0  0  0  0  0  0  0  0  0  0
  -20.3884  -24.7279   21.0338 N   0  0  0  0  0  0  0  0  0  0  0  0
  -29.8661  -26.1313   17.7962 N   0  0  0  0  0  0  0  0  0  0  0  0
  -23.7445  -20.2621   17.1280 N   0  0  0  0  0  0  0  0  0  0  0  0
  -30.5249  -22.2799   20.1669 N   0  0  0  0  0  0  0  0  0  0  0  0
  -25.0128  -20.8359   13.7918 N   0  3  0  0  0  0  0  0  0  0  0  0
  -31.9861  -14.8789   19.9826 O   0  0  0  0  0  0  0  0  0  0  0  0
  -22.3207  -23.4523   21.2819 O   0  0  0  0  0  0  0  0  0  0  0  0
  -30.0188  -23.3780   17.6784 O   0  0  0  0  0  0  0  0  0  0  0  0
  -21.3675  -21.1345   18.4687 O   0  0  0  0  0  0  0  0  0  0  0  0
  -25.6660  -21.3830   16.4733 O   0  0  0  0  0  0  0  0  0  0  0  0
  -28.9278  -26.5917   19.8687 O   0  0  0  0  0  0  0  0  0  0  0  0
  -29.4860  -23.6615   21.6732 O   0  0  0  0  0  0  0  0  0  0  0  0
  -25.0300  -11.4489   20.6415 O   0  0  0  0  0  0  0  0  0  0  0  0
  -26.7356  -27.6860   18.8143 O   0  0  0  0  0  0  0  0  0  1  0  0
  -21.7216  -10.3247   24.9070 F   0  0  0  0  0  0  0  0  0  0  0  0
  -23.2417  -13.3343   21.5848 F   0  0  0  0  0  0  0  0  0  0  0  0
  1  2  1  0  0  0  0
  1  5  2  0  0  0  0
  2  6  2  0  0  0  0
  3  8  2  0  0  0  0
  3 15  1  0  0  0  0
  4  9  1  0  0  0  0
  4 15  2  0  0  0  0
  5 17  1  0  0  0  0
  6 19  1  0  0  0  0
  7 10  2  0  0  0  0
  7 18  1  0  0  0  0
  8 21  1  0  0  0  0
  9 21  2  0  0  0  0
 10 22  1  0  0  0  0
 11 12  2  0  0  0  0
 11 23  1  0  0  0  0
 12 24  1  0  0  0  0
 13 20  1  0  0  0  0
 13 22  2  0  0  0  0
 14 24  2  0  0  0  0
 14 25  1  0  0  0  0
 15 26  1  0  0  0  0
 16 26  1  0  0  0  0
 16 27  2  0  0  0  0
 16 28  1  0  0  0  0
 17 19  2  0  0  0  0
 17 35  1  0  0  0  0
 18 20  2  0  0  0  0
 18 36  1  0  0  0  0
 19 44  1  0  0  0  0
 20 37  1  0  0  0  0
 21 78  1  0  0  0  0
 22 79  1  0  0  0  0
 23 25  2  0  0  0  0
 23 78  1  0  0  0  0
 24 80  1  0  0  0  0
 25 81  1  0  0  0  0
 26 60  2  0  0  0  0
 27 61  1  0  0  0  0
 27 64  1  0  0  0  0
 28 65  1  0  0  0  0
 28 71  2  0  0  0  0
 29 45  1  0  0  0  0
 29 66  1  0  0  0  0
 29 72  2  0  0  0  0
 30 54  1  0  0  0  0
 30 55  1  0  0  0  0
 30 73  2  0  0  0  0
 31 56  1  0  0  0  0
 31 62  1  0  0  0  0
 31 74  2  0  0  0  0
 32 57  1  0  0  0  0
 32 68  1  0  0  0  0
 32 75  2  0  0  0  0
 33 58  1  0  0  0  0
 33 67  1  0  0  0  0
 33 76  2  0  0  0  0
 34 63  1  0  0  0  0
 34 69  1  0  0  0  0
 34 77  2  0  0  0  0
 35 38  1  0  0  0  0
 36 45  1  0  0  0  0
 37 62  1  0  0  0  0
 38 40  1  0  0  0  0
 39 41  1  0  0  0  0
 39 42  1  0  0  0  0
 40 44  1  0  0  0  0
 41 46  1  0  0  0  0
 42 63  1  0  0  0  0
 43 46  1  0  0  0  0
 43 63  1  0  0  0  0
 44 66  1  0  0  0  0
 45 62  1  0  0  0  0
 46 61  1  0  0  0  0
 47 55  1  0  0  0  0
 48 57  1  0  0  0  0
 49 58  1  0  0  0  0
 50 59  1  0  0  0  0
 51 59  1  0  0  0  0
 52 59  1  0  0  0  0
 53 70  1  0  0  0  0
 54 69  1  0  0  0  0
 55 67  1  0  0  0  0
 56 59  1  0  0  0  0
 56 68  1  0  0  0  0
 57 70  1  0  0  0  0
 58 79  1  0  0  0  0
 60 61  1  0  0  0  0
M  CHG  1  70   1
M  ISO  4  34 100  58 101  69 100  79 101
M  END
> <Batch ID>
0115

> <Smiles>
CNC(C)C(=O)NC(C(=O)N1Cc2cc([101O:1][101CH:1](C)C(=O)NC(C)C(=O)C[100NH:0][100C:0](=O)N3CCCC(n4nc(-c5ccc(Oc6ccc(F)cc6F)cc5)c(C(N)=O)c4N)C3)ccc2CC1C(=O)NC1CCCc2ccccc21)C(C)(C)C

> <Shape>
0.221

> <Color>
0.056

> <Negative vol penalty>
0.000

$$$$

  -OEChem-04052320103D

 84 92  0     1  0  0  0  0  0999 V2000
  -21.7009  -25.0466   21.3320 C   0  0  0  0  0  0  0  0  0  0  0  0
  -22.7421  -24.1338   21.4664 C   0  0  0  0  0  0  0  0  0  0  0  0
  -23.0789   -9.8611   19.9652 C   0  0  0  0  0  0  0  0  0  0  0  0
  -23.8239   -9.9111   22.2629 C   0  0  0  0  0  0  0  0  0  0  0  0
  -21.9812  -26.4001   21.1491 C   0  0  0  0  0  0  0  0  0  0  0  0
  -24.0643  -24.5738   21.4169 C   0  0  0  0  0  0  0  0  0  0  0  0
  -28.8126  -22.3263   24.5646 C   0  0  0  0  0  0  0  0  0  0  0  0
  -22.3329   -8.7131   20.2319 C   0  0  0  0  0  0  0  0  0  0  0  0
  -23.0779   -8.7631   22.5297 C   0  0  0  0  0  0  0  0  0  0  0  0
  -29.8232  -21.4283   24.2239 C   0  0  0  0  0  0  0  0  0  0  0  0
  -19.8456   -7.9777   23.1262 C   0  0  0  0  0  0  0  0  0  0  0  0
  -19.0810   -7.9600   24.2926 C   0  0  0  0  0  0  0  0  0  0  0  0
  -31.2806  -23.2773   23.6980 C   0  0  0  0  0  0  0  0  0  0  0  0
  -20.3168   -6.0364   25.0735 C   0  0  0  0  0  0  0  0  0  0  0  0
  -23.8244  -10.4601   20.9806 C   0  0  0  0  0  0  0  0  0  0  0  0
  -24.1680  -12.9825   20.8153 C   0  0  0  0  0  0  0  0  0  0  0  0
  -23.3074  -26.8583   21.1070 C   0  0  0  0  0  0  0  0  0  0  0  0
  -29.0252  -23.7088   24.4640 C   0  0  0  0  0  0  0  0  0  0  0  0
  -24.3626  -25.9345   21.2319 C   0  0  0  0  0  0  0  0  0  0  0  0
  -30.2719  -24.1908   24.0405 C   0  0  0  0  0  0  0  0  0  0  0  0
  -22.3324   -8.1641   21.5142 C   0  0  0  0  0  0  0  0  0  0  0  0
  -31.0564  -21.9037   23.7878 C   0  0  0  0  0  0  0  0  0  0  0  0
  -20.8457   -7.0247   22.9333 C   0  0  0  0  0  0  0  0  0  0  0  0
  -19.3166   -6.9894   25.2663 C   0  0  0  0  0  0  0  0  0  0  0  0
  -21.0814   -6.0541   23.9070 C   0  0  0  0  0  0  0  0  0  0  0  0
  -24.5956  -11.6457   20.7055 C   0  0  0  0  0  0  0  0  0  0  0  0
  -25.2628  -13.7247   20.4451 C   0  0  0  0  0  0  0  0  0  0  0  0
  -32.4423  -18.4180   19.2524 C   0  0  0  0  0  0  0  0  0  0  0  0
  -22.8950  -13.5064   21.2161 C   0  0  0  0  0  0  0  0  0  0  0  0
  -27.7183  -26.0620   22.7735 C   0  0  0  0  0  0  0  0  0  0  0  0
  -29.6470  -27.9221   24.6018 C   0  0  0  0  0  0  0  0  0  0  0  0
  -32.4642  -28.1768   26.5110 C   0  0  0  0  0  0  0  0  0  0  0  0
  -30.7456  -14.7456   20.6498 C   0  0  0  0  0  0  0  0  0  0  0  0
  -23.5615  -28.3243   20.8601 C   0  0  0  0  0  0  0  0  0  0  0  0
  -27.9337  -24.6646   24.8608 C   0  0  0  0  0  0  0  0  0  0  0  0
  -30.5575  -25.6658   23.9345 C   0  0  0  0  0  0  0  0  0  0  0  0
  -24.9858  -28.7603   21.1941 C   0  0  0  0  0  0  0  0  0  0  0  0
  -29.6226  -12.3168   18.3011 C   0  0  0  0  0  0  0  0  0  0  0  0
  -25.9957  -27.7768   20.6114 C   0  0  0  0  0  0  0  0  0  0  0  0
  -28.1822  -12.0317   18.7301 C   0  0  0  0  0  0  0  0  0  0  0  0
  -30.7763  -19.4171   21.4474 C   0  0  0  0  0  0  0  0  0  0  0  0
  -30.5320  -12.5600   19.5035 C   0  0  0  0  0  0  0  0  0  0  0  0
  -28.6216  -13.3176   20.8637 C   0  0  0  0  0  0  0  0  0  0  0  0
  -25.8098  -26.3766   21.2084 C   0  0  1  0  0  0  0  0  0  0  0  0
  -32.8028  -19.7122   19.9716 C   0  0  2  0  0  0  0  0  0  0  0  0
  -28.0894  -26.0447   24.2294 C   0  0  1  0  0  0  0  0  0  0  0  0
  -32.2698  -19.7533   21.4153 C   0  0  1  0  0  0  0  0  0  0  0  0
  -27.6550  -13.1211   19.6832 C   0  0  2  0  0  0  0  0  0  0  0  0
  -30.5123  -18.0376   20.8445 C   0  0  2  0  0  0  0  0  0  0  0  0
  -32.3446  -20.8778   19.0894 C   0  0  0  0  0  0  0  0  0  0  0  0
  -33.7987  -29.8336   27.8420 C   0  0  0  0  0  0  0  0  0  0  0  0
  -30.7308  -29.1235   22.0149 C   0  0  0  0  0  0  0  0  0  0  0  0
  -32.6613  -30.0298   23.3265 C   0  0  0  0  0  0  0  0  0  0  0  0
  -30.3396  -30.7774   23.8496 C   0  0  0  0  0  0  0  0  0  0  0  0
  -36.2691  -20.8128   22.9633 C   0  0  0  0  0  0  0  0  0  0  0  0
  -32.0962  -26.6387   29.0126 C   0  0  0  0  0  0  0  0  0  0  0  0
  -30.8043  -16.9190   21.8464 C   0  0  0  0  0  0  0  0  0  0  0  0
  -34.0075  -21.4896   22.1472 C   0  0  0  0  0  0  0  0  0  0  0  0
  -31.0606  -28.4382   24.4822 C   0  0  1  0  0  0  0  0  0  0  0  0
  -32.7000  -28.7829   27.8827 C   0  0  2  0  0  0  0  0  0  0  0  0
  -32.5370  -21.0859   22.1159 C   0  0  2  0  0  0  0  0  0  1  0  0
  -31.1924  -29.5644   23.4183 C   0  0  0  0  0  0  0  0  0  0  0  0
  -25.8631  -11.5417   20.2973 N   0  0  0  0  0  0  0  0  0  0  0  0
  -26.2414  -12.8225   20.1473 N   0  0  0  0  0  0  0  0  0  0  0  0
  -31.2694  -17.8002   19.6209 N   0  0  0  0  0  0  0  0  0  0  0  0
  -29.4564  -26.5603   24.3278 N   0  0  0  0  0  0  0  0  0  0  0  0
  -29.9761  -13.6052   20.3664 N   0  0  0  0  0  0  0  0  0  0  0  0
  -25.4742  -15.0545   20.3483 N   0  0  0  0  0  0  0  0  0  0  0  0
  -21.8806  -12.6041   21.5639 N   0  0  0  0  0  0  0  0  0  0  0  0
  -26.3803  -26.3137   22.5369 N   0  0  0  0  0  0  0  0  0  0  0  0
  -31.4650  -28.8358   25.8264 N   0  0  0  0  0  0  0  0  0  0  0  0
  -30.1414  -15.6903   21.4703 N   0  0  0  0  0  0  0  0  0  0  0  0
  -34.8267  -20.4667   22.8437 N   0  3  0  0  0  0  0  0  0  0  0  0
  -33.0968  -27.7255   28.8550 N   0  3  0  0  0  0  0  0  0  0  0  0
  -33.1305  -18.0078   18.3147 O   0  0  0  0  0  0  0  0  0  0  0  0
  -22.6589  -14.7380   21.2487 O   0  0  0  0  0  0  0  0  0  0  0  0
  -28.5821  -25.8633   21.9274 O   0  0  0  0  0  0  0  0  0  0  0  0
  -28.7463  -28.6970   24.9332 O   0  0  0  0  0  0  0  0  0  0  0  0
  -33.1050  -27.2173   26.0877 O   0  0  0  0  0  0  0  0  0  0  0  0
  -31.8845  -14.9122   20.2004 O   0  0  0  0  0  0  0  0  0  0  0  0
  -21.6044   -7.0440   21.7750 O   0  0  0  0  0  0  0  0  0  0  0  0
  -32.0444  -21.0294   23.4540 O   0  0  0  0  0  0  0  0  0  1  0  0
  -18.5834   -6.9735   26.3872 F   0  0  0  0  0  0  0  0  0  0  0  0
  -22.0416   -5.1367   23.7278 F   0  0  0  0  0  0  0  0  0  0  0  0
  1  2  1  0  0  0  0
  1  5  2  0  0  0  0
  2  6  2  0  0  0  0
  3  8  2  0  0  0  0
  3 15  1  0  0  0  0
  4  9  1  0  0  0  0
  4 15  2  0  0  0  0
  5 17  1  0  0  0  0
  6 19  1  0  0  0  0
  7 10  2  0  0  0  0
  7 18  1  0  0  0  0
  8 21  1  0  0  0  0
  9 21  2  0  0  0  0
 10 22  1  0  0  0  0
 11 12  2  0  0  0  0
 11 23  1  0  0  0  0
 12 24  1  0  0  0  0
 13 20  1  0  0  0  0
 13 22  2  0  0  0  0
 14 24  2  0  0  0  0
 14 25  1  0  0  0  0
 15 26  1  0  0  0  0
 16 26  1  0  0  0  0
 16 27  2  0  0  0  0
 16 29  1  0  0  0  0
 17 19  2  0  0  0  0
 17 34  1  0  0  0  0
 18 20  2  0  0  0  0
 18 35  1  0  0  0  0
 19 44  1  0  0  0  0
 20 36  1  0  0  0  0
 21 81  1  0  0  0  0
 22 82  1  0  0  0  0
 23 25  2  0  0  0  0
 23 81  1  0  0  0  0
 24 83  1  0  0  0  0
 25 84  1  0  0  0  0
 26 63  2  0  0  0  0
 27 64  1  0  0  0  0
 27 68  1  0  0  0  0
 28 45  1  0  0  0  0
 28 65  1  0  0  0  0
 28 75  2  0  0  0  0
 29 69  1  0  0  0  0
 29 76  2  0  0  0  0
 30 46  1  0  0  0  0
 30 70  1  0  0  0  0
 30 77  2  0  0  0  0
 31 59  1  0  0  0  0
 31 66  1  0  0  0  0
 31 78  2  0  0  0  0
 32 60  1  0  0  0  0
 32 71  1  0  0  0  0
 32 79  2  0  0  0  0
 33 67  1  0  0  0  0
 33 72  1  0  0  0  0
 33 80  2  0  0  0  0
 34 37  1  0  0  0  0
 35 46  1  0  0  0  0
 36 66  1  0  0  0  0
 37 39  1  0  0  0  0
 38 40  1  0  0  0  0
 38 42  1  0  0  0  0
 39 44  1  0  0  0  0
 40 48  1  0  0  0  0
 41 47  1  0  0  0  0
 41 49  1  0  0  0  0
 42 67  1  0  0  0  0
 43 48  1  0  0  0  0
 43 67  1  0  0  0  0
 44 70  1  0  0  0  0
 45 47  1  0  0  0  0
 45 50  1  0  0  0  0
 46 66  1  0  0  0  0
 47 61  1  0  0  0  0
 48 64  1  0  0  0  0
 49 57  1  0  0  0  0
 49 65  1  0  0  0  0
 51 60  1  0  0  0  0
 52 62  1  0  0  0  0
 53 62  1  0  0  0  0
 54 62  1  0  0  0  0
 55 73  1  0  0  0  0
 56 74  1  0  0  0  0
 57 72  1  0  0  0  0
 58 61  1  0  0  0  0
 58 73  1  0  0  0  0
 59 62  1  0  0  0  0
 59 71  1  0  0  0  0
 60 74  1  0  0  0  0
 61 82  1  0  0  0  0
 63 64  1  0  0  0  0
M  CHG  2  73   1  74   1
M  ISO  4  33 100  61 101  72 100  82 101
M  END
> <Batch ID>
0115

> <Smiles>
CNC[101CH:1](C1CC(C[100NH:0][100C:0](=O)N2CCCC(n3nc(-c4ccc(Oc5ccc(F)cc5F)cc4)c(C(N)=O)c3N)C2)NC(=O)C1C)[101O:1]c1ccc2c(c1)CN(C(=O)C(NC(=O)C(C)NC)C(C)(C)C)C(C(=O)NC1CCCc3ccccc31)C2

> <Shape>
0.199

> <Color>
0.184

> <Negative vol penalty>
0.000

$$$$

  -OEChem-04052320103D

 82 90  0     1  0  0  0  0  0999 V2000
  -22.5326  -11.1738   18.9266 C   0  0  0  0  0  0  0  0  0  0  0  0
  -21.9605  -12.3831   19.3085 C   0  0  0  0  0  0  0  0  0  0  0  0
  -25.0438  -28.7320   19.3297 C   0  0  0  0  0  0  0  0  0  0  0  0
  -25.9829  -27.2704   21.0087 C   0  0  0  0  0  0  0  0  0  0  0  0
  -23.8523  -10.8880   19.2737 C   0  0  0  0  0  0  0  0  0  0  0  0
  -22.7075  -13.3067   20.0387 C   0  0  0  0  0  0  0  0  0  0  0  0
  -22.3952  -19.4116   19.6662 C   0  0  0  0  0  0  0  0  0  0  0  0
  -26.2576  -29.4139   19.2445 C   0  0  0  0  0  0  0  0  0  0  0  0
  -27.1967  -27.9523   20.9234 C   0  0  0  0  0  0  0  0  0  0  0  0
  -21.7389  -20.3663   20.4418 C   0  0  0  0  0  0  0  0  0  0  0  0
  -30.6532  -29.0791   20.8871 C   0  0  0  0  0  0  0  0  0  0  0  0
  -31.8218  -28.3198   20.8298 C   0  0  0  0  0  0  0  0  0  0  0  0
  -23.7652  -20.7284   21.6998 C   0  0  0  0  0  0  0  0  0  0  0  0
  -31.0403  -27.2703   18.7987 C   0  0  0  0  0  0  0  0  0  0  0  0
  -24.9064  -27.6602   20.2119 C   0  0  0  0  0  0  0  0  0  0  0  0
  -23.2522  -25.8348   19.5492 C   0  0  0  0  0  0  0  0  0  0  0  0
  -24.6190  -11.8127   20.0002 C   0  0  0  0  0  0  0  0  0  0  0  0
  -23.7407  -19.0998   19.9091 C   0  0  0  0  0  0  0  0  0  0  0  0
  -24.0383  -13.0324   20.3970 C   0  0  0  0  0  0  0  0  0  0  0  0
  -24.4370  -19.7712   20.9242 C   0  0  0  0  0  0  0  0  0  0  0  0
  -27.3341  -29.0241   20.0413 C   0  0  0  0  0  0  0  0  0  0  0  0
  -22.4231  -21.0228   21.4607 C   0  0  0  0  0  0  0  0  0  0  0  0
  -29.6780  -28.9340   19.9003 C   0  0  0  0  0  0  0  0  0  0  0  0
  -32.0154  -27.4154   19.7856 C   0  0  0  0  0  0  0  0  0  0  0  0
  -29.8717  -28.0296   18.8561 C   0  0  0  0  0  0  0  0  0  0  0  0
  -23.6527  -26.9558   20.3008 C   0  0  0  0  0  0  0  0  0  0  0  0
  -21.9894  -25.5478   20.0069 C   0  0  0  0  0  0  0  0  0  0  0  0
  -23.9586  -25.1171   18.5286 C   0  0  0  0  0  0  0  0  0  0  0  0
  -25.3137  -16.4789   20.7812 C   0  0  0  0  0  0  0  0  0  0  0  0
  -27.9190  -18.3380   20.2537 C   0  0  0  0  0  0  0  0  0  0  0  0
  -29.2466  -21.4755   20.0522 C   0  0  0  0  0  0  0  0  0  0  0  0
  -19.1841  -26.6340   25.1839 C   0  0  0  0  0  0  0  0  0  0  0  0
  -26.0264  -11.4392   20.3930 C   0  0  0  0  0  0  0  0  0  0  0  0
  -24.4417  -18.0867   19.0461 C   0  0  0  0  0  0  0  0  0  0  0  0
  -25.8878  -19.4874   21.2121 C   0  0  0  0  0  0  0  0  0  0  0  0
  -26.8688  -12.6293   20.8450 C   0  0  0  0  0  0  0  0  0  0  0  0
  -18.1395  -27.6371   21.9313 C   0  0  0  0  0  0  0  0  0  0  0  0
  -26.0853  -13.4963   21.8255 C   0  0  0  0  0  0  0  0  0  0  0  0
  -19.3978  -27.4751   21.0768 C   0  0  0  0  0  0  0  0  0  0  0  0
  -22.4452  -25.0473   27.8741 C   0  0  0  0  0  0  0  0  0  0  0  0
  -21.6305  -24.1061   28.7145 C   0  0  0  0  0  0  0  0  0  0  0  0
  -18.4724  -28.1263   23.3391 C   0  0  0  0  0  0  0  0  0  0  0  0
  -20.7323  -27.1529   23.2014 C   0  0  0  0  0  0  0  0  0  0  0  0
  -24.8242  -14.0704   21.1684 C   0  0  1  0  0  0  0  0  0  0  0  0
  -25.6693  -17.4779   19.7166 C   0  0  1  0  0  0  0  0  0  0  0  0
  -20.4524  -26.6080   21.7904 C   0  0  2  0  0  0  0  0  0  0  0  0
  -21.2731  -24.3167   27.2617 C   0  0  0  0  0  0  0  0  0  0  0  0
  -31.4123  -22.6756   19.6434 C   0  0  0  0  0  0  0  0  0  0  0  0
  -28.8439  -17.6242   23.0724 C   0  0  0  0  0  0  0  0  0  0  0  0
  -30.4477  -19.5433   22.9570 C   0  0  0  0  0  0  0  0  0  0  0  0
  -30.6595  -17.6449   21.3526 C   0  0  0  0  0  0  0  0  0  0  0  0
  -28.1703  -22.8443   17.6591 C   0  0  0  0  0  0  0  0  0  0  0  0
  -20.2675  -21.4107   27.4437 C   0  0  0  0  0  0  0  0  0  0  0  0
  -20.0340  -25.1093   26.9480 C   0  0  0  0  0  0  0  0  0  0  0  0
  -21.5656  -23.1949   26.2894 C   0  0  0  0  0  0  0  0  0  0  0  0
  -20.3323  -21.4918   24.9555 C   0  0  0  0  0  0  0  0  0  0  0  0
  -20.3818  -21.7823   22.4157 C   0  0  0  0  0  0  0  0  0  1  0  0
  -28.7483  -19.2795   21.0933 C   0  0  1  0  0  0  0  0  0  0  0  0
  -30.1423  -22.1254   19.0131 C   0  0  2  0  0  0  0  0  0  0  0  0
  -19.9964  -22.3837   23.7635 C   0  0  1  0  0  0  0  0  0  0  0  0
  -29.6470  -18.5272   22.1149 C   0  0  0  0  0  0  0  0  0  0  0  0
  -22.7198  -27.3539   21.1699 N   0  0  0  0  0  0  0  0  0  0  0  0
  -21.7206  -26.4783   20.9672 N   0  0  0  0  0  0  0  0  0  0  0  0
  -26.5276  -18.4842   20.3450 N   0  0  0  0  0  0  0  0  0  0  0  0
  -19.4768  -27.2600   23.9610 N   0  0  0  0  0  0  0  0  0  0  0  0
  -21.0938  -24.5929   19.6775 N   0  0  0  0  0  0  0  0  0  0  0  0
  -25.2467  -25.5456   18.1802 N   0  0  0  0  0  0  0  0  0  0  0  0
  -25.1637  -15.1874   20.3133 N   0  0  0  0  0  0  0  0  0  0  0  0
  -29.4844  -20.1213   20.1563 N   0  0  0  0  0  0  0  0  0  0  0  0
  -20.1884  -25.8250   25.7011 N   0  0  0  0  0  0  0  0  0  0  0  0
  -29.4270  -23.2471   18.3414 N   0  3  0  0  0  0  0  0  0  0  0  0
  -20.3692  -22.2785   26.2135 N   0  3  1  0  0  0  0  0  0  0  0  0
  -23.4558  -24.1352   17.9316 O   0  0  0  0  0  0  0  0  0  0  0  0
  -25.1863  -16.8520   21.9415 O   0  0  0  0  0  0  0  0  0  0  0  0
  -28.4851  -17.5083   19.5376 O   0  0  0  0  0  0  0  0  0  0  0  0
  -28.4214  -22.1067   20.7088 O   0  0  0  0  0  0  0  0  0  0  0  0
  -18.1054  -26.7807   25.7686 O   0  0  0  0  0  0  0  0  0  0  0  0
  -18.5944  -22.6571   23.7520 O   0  0  0  0  0  0  0  0  0  0  0  0
  -28.5187  -29.6891   19.9582 O   0  0  0  0  0  0  0  0  0  0  0  0
  -21.7847  -21.9546   22.2197 O   0  0  0  0  0  0  0  0  0  1  0  0
  -33.1384  -26.6874   19.7299 F   0  0  0  0  0  0  0  0  0  0  0  0
  -28.9390  -27.8867   17.9045 F   0  0  0  0  0  0  0  0  0  0  0  0
  1  2  1  0  0  0  0
  1  5  2  0  0  0  0
  2  6  2  0  0  0  0
  3  8  2  0  0  0  0
  3 15  1  0  0  0  0
  4  9  1  0  0  0  0
  4 15  2  0  0  0  0
  5 17  1  0  0  0  0
  6 19  1  0  0  0  0
  7 10  2  0  0  0  0
  7 18  1  0  0  0  0
  8 21  1  0  0  0  0
  9 21  2  0  0  0  0
 10 22  1  0  0  0  0
 11 12  2  0  0  0  0
 11 23  1  0  0  0  0
 12 24  1  0  0  0  0
 13 20  1  0  0  0  0
 13 22  2  0  0  0  0
 14 24  2  0  0  0  0
 14 25  1  0  0  0  0
 15 26  1  0  0  0  0
 16 26  1  0  0  0  0
 16 27  2  0  0  0  0
 16 28  1  0  0  0  0
 17 19  2  0  0  0  0
 17 33  1  0  0  0  0
 18 20  2  0  0  0  0
 18 34  1  0  0  0  0
 19 44  1  0  0  0  0
 20 35  1  0  0  0  0
 21 79  1  0  0  0  0
 22 80  1  0  0  0  0
 23 25  2  0  0  0  0
 23 79  1  0  0  0  0
 24 81  1  0  0  0  0
 25 82  1  0  0  0  0
 26 62  2  0  0  0  0
 27 63  1  0  0  0  0
 27 66  1  0  0  0  0
 28 67  1  0  0  0  0
 28 73  2  0  0  0  0
 29 45  1  0  0  0  0
 29 68  1  0  0  0  0
 29 74  2  0  0  0  0
 30 58  1  0  0  0  0
 30 64  1  0  0  0  0
 30 75  2  0  0  0  0
 31 59  1  0  0  0  0
 31 69  1  0  0  0  0
 31 76  2  0  0  0  0
 32 65  1  0  0  0  0
 32 70  1  0  0  0  0
 32 77  2  0  0  0  0
 33 36  1  0  0  0  0
 34 45  1  0  0  0  0
 35 64  1  0  0  0  0
 36 38  1  0  0  0  0
 37 39  1  0  0  0  0
 37 42  1  0  0  0  0
 38 44  1  0  0  0  0
 39 46  1  0  0  0  0
 40 41  1  0  0  0  0
 40 47  1  0  0  0  0
 41 47  1  0  0  0  0
 42 65  1  0  0  0  0
 43 46  1  0  0  0  0
 43 65  1  0  0  0  0
 44 68  1  0  0  0  0
 45 64  1  0  0  0  0
 46 63  1  0  0  0  0
 47 54  1  0  0  0  0
 47 55  1  0  0  0  0
 48 59  1  0  0  0  0
 49 61  1  0  0  0  0
 50 61  1  0  0  0  0
 51 61  1  0  0  0  0
 52 71  1  0  0  0  0
 53 72  1  0  0  0  0
 54 70  1  0  0  0  0
 55 72  1  0  0  0  0
 56 60  1  0  0  0  0
 56 72  1  0  0  0  0
 57 60  1  0  0  0  0
 57 80  1  0  0  0  0
 58 61  1  0  0  0  0
 58 69  1  0  0  0  0
 59 71  1  0  0  0  0
 60 78  1  0  0  0  0
 62 63  1  0  0  0  0
M  CHG  2  71   1  72   1
M  ISO  4  32 100  57 101  70 100  80 101
M  END
> <Batch ID>
0115

> <Smiles>
CNC(C)C(=O)NC(C(=O)N1Cc2cc([101O:1][101CH2:1]C(O)CN(C)CC3(C[100NH:0][100C:0](=O)N4CCCC(n5nc(-c6ccc(Oc7ccc(F)cc7F)cc6)c(C(N)=O)c5N)C4)CC3)ccc2CC1C(=O)NC1CCCc2ccccc21)C(C)(C)C

> <Shape>
0.200

> <Color>
0.073

> <Negative vol penalty>
0.000

$$$$

  -OEChem-04052320103D

 84 93  0     1  0  0  0  0  0999 V2000
  -28.7924  -36.3685   23.1158 C   0  0  0  0  0  0  0  0  0  0  0  0
  -29.1034  -35.1631   22.4947 C   0  0  0  0  0  0  0  0  0  0  0  0
  -22.7261  -20.5454   20.7926 C   0  0  0  0  0  0  0  0  0  0  0  0
  -23.9307  -20.7009   18.7041 C   0  0  0  0  0  0  0  0  0  0  0  0
  -27.8171  -36.4071   24.1114 C   0  0  0  0  0  0  0  0  0  0  0  0
  -28.4400  -33.9953   22.8697 C   0  0  0  0  0  0  0  0  0  0  0  0
  -26.8928  -29.3123   19.2392 C   0  0  0  0  0  0  0  0  0  0  0  0
  -22.0165  -21.7020   20.4694 C   0  0  0  0  0  0  0  0  0  0  0  0
  -23.2211  -21.8574   18.3809 C   0  0  0  0  0  0  0  0  0  0  0  0
  -27.4895  -28.0755   18.9979 C   0  0  0  0  0  0  0  0  0  0  0  0
  -21.4712  -24.6487   16.8430 C   0  0  0  0  0  0  0  0  0  0  0  0
  -20.9645  -24.7589   15.5481 C   0  0  0  0  0  0  0  0  0  0  0  0
  -26.0277  -27.0596   20.6259 C   0  0  0  0  0  0  0  0  0  0  0  0
  -19.6515  -22.7602   15.8917 C   0  0  0  0  0  0  0  0  0  0  0  0
  -30.4883  -20.7196   20.7945 C   0  0  0  0  0  0  0  0  0  0  0  0
  -29.4021  -21.0715   18.3813 C   0  0  0  0  0  0  0  0  0  0  0  0
  -23.6833  -20.0449   19.9099 C   0  0  0  0  0  0  0  0  0  0  0  0
  -24.0625  -17.5224   19.9399 C   0  0  0  0  0  0  0  0  0  0  0  0
  -27.1346  -35.2410   24.4921 C   0  0  0  0  0  0  0  0  0  0  0  0
  -25.8648  -29.4342   20.1850 C   0  0  0  0  0  0  0  0  0  0  0  0
  -27.4556  -34.0182   23.8723 C   0  0  0  0  0  0  0  0  0  0  0  0
  -25.4179  -28.2985   20.8754 C   0  0  0  0  0  0  0  0  0  0  0  0
  -22.2640  -22.3580   19.2636 C   0  0  0  0  0  0  0  0  0  0  0  0
  -27.0589  -26.9495   19.6934 C   0  0  0  0  0  0  0  0  0  0  0  0
  -21.0682  -23.5941   17.6622 C   0  0  0  0  0  0  0  0  0  0  0  0
  -20.0546  -23.8147   15.0725 C   0  0  0  0  0  0  0  0  0  0  0  0
  -20.1583  -22.6499   17.1866 C   0  0  0  0  0  0  0  0  0  0  0  0
  -24.4170  -18.8505   20.2435 C   0  0  0  0  0  0  0  0  0  0  0  0
  -30.3992  -19.6788   19.8965 C   0  0  0  0  0  0  0  0  0  0  0  0
  -29.4904  -22.1121   19.2796 C   0  0  0  0  0  0  0  0  0  0  0  0
  -25.0795  -16.7660   20.4692 C   0  0  0  0  0  0  0  0  0  0  0  0
  -22.9164  -17.0175   19.2418 C   0  0  0  0  0  0  0  0  0  0  0  0
  -25.4978  -31.0376   22.9050 C   0  0  0  0  0  0  0  0  0  0  0  0
  -22.4691  -29.8910   22.7185 C   0  0  0  0  0  0  0  0  0  0  0  0
  -30.8077  -18.0679   21.7361 C   0  0  0  0  0  0  0  0  0  0  0  0
  -20.3422  -27.5082   21.5162 C   0  0  0  0  0  0  0  0  0  0  0  0
  -26.1216  -35.3237   25.6063 C   0  0  0  0  0  0  0  0  0  0  0  0
  -25.2133  -30.7704   20.4143 C   0  0  0  0  0  0  0  0  0  0  0  0
  -24.3039  -28.3723   21.8864 C   0  0  0  0  0  0  0  0  0  0  0  0
  -25.2003  -34.1090   25.6834 C   0  0  0  0  0  0  0  0  0  0  0  0
  -28.3269  -16.7700   23.9724 C   0  0  0  0  0  0  0  0  0  0  0  0
  -26.0077  -32.8191   25.5786 C   0  0  0  0  0  0  0  0  0  0  0  0
  -33.0686  -18.6828   18.7447 C   0  0  0  0  0  0  0  0  0  0  0  0
  -33.4227  -19.1806   20.1182 C   0  0  0  0  0  0  0  0  0  0  0  0
  -27.0093  -17.0613   23.2551 C   0  0  0  0  0  0  0  0  0  0  0  0
  -29.3525  -17.8719   23.7257 C   0  0  0  0  0  0  0  0  0  0  0  0
  -28.2970  -18.4383   21.5607 C   0  0  0  0  0  0  0  0  0  0  0  0
  -26.7404  -32.7345   24.2342 C   0  0  1  0  0  0  0  0  0  0  0  0
  -24.5248  -30.8744   21.7717 C   0  0  1  0  0  0  0  0  0  0  0  0
  -32.4211  -18.0710   19.9560 C   0  0  0  0  0  0  0  0  0  0  0  0
  -27.2432  -17.3343   21.7587 C   0  0  2  0  0  0  0  0  0  0  0  0
  -17.9310  -26.8146   21.5647 C   0  0  0  0  0  0  0  0  0  0  0  0
  -30.1155  -17.2451   19.5091 C   0  0  0  0  0  0  0  0  0  0  0  0
  -22.8436  -28.7951   25.5414 C   0  0  0  0  0  0  0  0  0  0  0  0
  -20.8388  -27.3426   25.1685 C   0  0  0  0  0  0  0  0  0  0  0  0
  -20.6060  -29.8256   25.1107 C   0  0  0  0  0  0  0  0  0  0  0  0
  -20.0724  -27.8227   18.5858 C   0  0  0  0  0  0  0  0  0  0  0  0
  -29.0098  -25.7457   19.0601 C   0  0  0  0  0  0  0  0  0  1  0  0
  -29.6707  -24.4689   19.5422 C   0  0  0  0  0  0  0  0  0  0  0  0
  -21.7662  -28.6447   23.1999 C   0  0  1  0  0  0  0  0  0  0  0  0
  -18.9930  -27.6166   20.8288 C   0  0  2  0  0  0  0  0  0  0  0  0
  -30.9099  -18.3267   20.2540 C   0  0  2  0  0  0  0  0  0  0  0  0
  -21.5360  -28.6507   24.7376 C   0  0  0  0  0  0  0  0  0  0  0  0
  -29.8548  -19.8362   18.6737 N   0  0  0  0  0  0  0  0  0  0  0  0
  -30.0352  -21.9548   20.5023 N   0  0  0  0  0  0  0  0  0  0  0  0
  -25.5691  -18.9363   20.9138 N   0  0  0  0  0  0  0  0  0  0  0  0
  -25.9473  -17.6525   21.0358 N   0  0  0  0  0  0  0  0  0  0  0  0
  -23.7030  -29.7023   22.0799 N   0  0  0  0  0  0  0  0  0  0  0  0
  -29.5297  -18.1166   22.2932 N   0  0  0  0  0  0  0  0  0  0  0  0
  -25.3070  -15.4357   20.5006 N   0  0  0  0  0  0  0  0  0  0  0  0
  -21.9685  -17.9327   18.7640 N   0  0  0  0  0  0  0  0  0  0  0  0
  -25.8235  -32.3515   23.1821 N   0  0  0  0  0  0  0  0  0  0  0  0
  -20.5426  -28.5363   22.4129 N   0  0  0  0  0  0  0  0  0  0  0  0
  -19.0816  -27.1078   19.4309 N   0  3  0  0  0  0  0  0  0  0  0  0
  -22.7300  -15.7902   19.0618 O   0  0  0  0  0  0  0  0  0  0  0  0
  -25.9204  -30.0449   23.4861 O   0  0  0  0  0  0  0  0  0  0  0  0
  -21.9394  -30.9908   22.8959 O   0  0  0  0  0  0  0  0  0  0  0  0
  -31.8338  -17.8268   22.3773 O   0  0  0  0  0  0  0  0  0  0  0  0
  -21.1371  -26.6001   21.2838 O   0  0  0  0  0  0  0  0  0  0  0  0
  -21.5716  -23.4864   18.9478 O   0  0  0  0  0  0  0  0  0  0  0  0
  -27.6401  -25.7412   19.4604 O   0  0  0  0  0  0  0  0  0  1  0  0
  -29.0187  -23.3543   18.9456 O   0  0  0  0  0  0  0  0  0  0  0  0
  -19.5669  -23.9216   13.8296 F   0  0  0  0  0  0  0  0  0  0  0  0
  -19.7664  -21.6352   17.9694 F   0  0  0  0  0  0  0  0  0  0  0  0
  1  2  1  0  0  0  0
  1  5  2  0  0  0  0
  2  6  2  0  0  0  0
  3  8  2  0  0  0  0
  3 17  1  0  0  0  0
  4  9  1  0  0  0  0
  4 17  2  0  0  0  0
  5 19  1  0  0  0  0
  6 21  1  0  0  0  0
  7 10  2  0  0  0  0
  7 20  1  0  0  0  0
  8 23  1  0  0  0  0
  9 23  2  0  0  0  0
 10 24  1  0  0  0  0
 11 12  2  0  0  0  0
 11 25  1  0  0  0  0
 12 26  1  0  0  0  0
 13 22  1  0  0  0  0
 13 24  2  0  0  0  0
 14 26  2  0  0  0  0
 14 27  1  0  0  0  0
 15 29  2  0  0  0  0
 15 65  1  0  0  0  0
 16 30  1  0  0  0  0
 16 64  2  0  0  0  0
 17 28  1  0  0  0  0
 18 28  1  0  0  0  0
 18 31  2  0  0  0  0
 18 32  1  0  0  0  0
 19 21  2  0  0  0  0
 19 37  1  0  0  0  0
 20 22  2  0  0  0  0
 20 38  1  0  0  0  0
 21 48  1  0  0  0  0
 22 39  1  0  0  0  0
 23 80  1  0  0  0  0
 24 81  1  0  0  0  0
 25 27  2  0  0  0  0
 25 80  1  0  0  0  0
 26 83  1  0  0  0  0
 27 84  1  0  0  0  0
 28 66  2  0  0  0  0
 29 62  1  0  0  0  0
 29 64  1  0  0  0  0
 30 65  2  0  0  0  0
 30 82  1  0  0  0  0
 31 67  1  0  0  0  0
 31 70  1  0  0  0  0
 32 71  1  0  0  0  0
 32 75  2  0  0  0  0
 33 49  1  0  0  0  0
 33 72  1  0  0  0  0
 33 76  2  0  0  0  0
 34 60  1  0  0  0  0
 34 68  1  0  0  0  0
 34 77  2  0  0  0  0
 35 62  1  0  0  0  0
 35 69  1  0  0  0  0
 35 78  2  0  0  0  0
 36 61  1  0  0  0  0
 36 73  1  0  0  0  0
 36 79  2  0  0  0  0
 37 40  1  0  0  0  0
 38 49  1  0  0  0  0
 39 68  1  0  0  0  0
 40 42  1  0  0  0  0
 41 45  1  0  0  0  0
 41 46  1  0  0  0  0
 42 48  1  0  0  0  0
 43 44  1  0  0  0  0
 43 50  1  0  0  0  0
 44 50  1  0  0  0  0
 45 51  1  0  0  0  0
 46 69  1  0  0  0  0
 47 51  1  0  0  0  0
 47 69  1  0  0  0  0
 48 72  1  0  0  0  0
 49 68  1  0  0  0  0
 50 62  1  0  0  0  0
 51 67  1  0  0  0  0
 52 61  1  0  0  0  0
 53 62  1  0  0  0  0
 54 63  1  0  0  0  0
 55 63  1  0  0  0  0
 56 63  1  0  0  0  0
 57 74  1  0  0  0  0
 58 59  1  0  0  0  0
 58 81  1  0  0  0  0
 59 82  1  0  0  0  0
 60 63  1  0  0  0  0
 60 73  1  0  0  0  0
 61 74  1  0  0  0  0
 66 67  1  0  0  0  0
M  CHG  1  74   1
M  ISO  4  35 100  58 101  62 100  81 101
M  END
> <Batch ID>
0115

> <Smiles>
CNC(C)C(=O)NC(C(=O)N1Cc2cc([101O:1][101CH2:1]COc3cnc([100C:0](C)(C4CC4)[100C:0](=O)N4CCCC(n5nc(-c6ccc(Oc7ccc(F)cc7F)cc6)c(C(N)=O)c5N)C4)cn3)ccc2CC1C(=O)NC1CCCc2ccccc21)C(C)(C)C

> <Shape>
0.224

> <Color>
0.093

> <Negative vol penalty>
0.000

$$$$

  -OEChem-04052320103D

 84 92  0     1  0  0  0  0  0999 V2000
  -25.5813  -21.8589   21.1723 C   0  0  0  0  0  0  0  0  0  0  0  0
  -25.5406  -20.5787   20.6315 C   0  0  0  0  0  0  0  0  0  0  0  0
  -24.7565  -27.8010   21.8064 C   0  0  0  0  0  0  0  0  0  0  0  0
  -25.3394  -26.3018   20.0038 C   0  0  0  0  0  0  0  0  0  0  0  0
  -26.8002  -22.4061   21.5675 C   0  0  0  0  0  0  0  0  0  0  0  0
  -26.7171  -19.8407   20.4968 C   0  0  0  0  0  0  0  0  0  0  0  0
  -30.6506  -16.3929   24.1878 C   0  0  0  0  0  0  0  0  0  0  0  0
  -23.4161  -27.4383   21.6747 C   0  0  0  0  0  0  0  0  0  0  0  0
  -23.9990  -25.9390   19.8720 C   0  0  0  0  0  0  0  0  0  0  0  0
  -30.3673  -17.0545   25.3819 C   0  0  0  0  0  0  0  0  0  0  0  0
  -19.4624  -26.4176   21.3410 C   0  0  0  0  0  0  0  0  0  0  0  0
  -18.5398  -27.0148   22.2000 C   0  0  0  0  0  0  0  0  0  0  0  0
  -30.7674  -19.8936   23.1854 C   0  0  0  0  0  0  0  0  0  0  0  0
  -28.0724  -17.3153   24.6858 C   0  0  0  0  0  0  0  0  0  0  0  0
  -20.3223  -28.2690   23.2425 C   0  0  0  0  0  0  0  0  0  0  0  0
  -29.8763  -20.3000   22.2169 C   0  0  0  0  0  0  0  0  0  0  0  0
  -30.3438  -22.0844   23.4865 C   0  0  0  0  0  0  0  0  0  0  0  0
  -25.7182  -27.2328   20.9710 C   0  0  0  0  0  0  0  0  0  0  0  0
  -27.6495  -28.5252   22.0231 C   0  0  0  0  0  0  0  0  0  0  0  0
  -27.9933  -21.6785   21.4256 C   0  0  0  0  0  0  0  0  0  0  0  0
  -29.6478  -16.1968   23.2274 C   0  0  0  0  0  0  0  0  0  0  0  0
  -27.9541  -20.3663   20.9120 C   0  0  0  0  0  0  0  0  0  0  0  0
  -28.3449  -16.6487   23.4814 C   0  0  0  0  0  0  0  0  0  0  0  0
  -31.0633  -21.0225   23.9886 C   0  0  0  0  0  0  0  0  0  0  0  0
  -23.0373  -26.5073   20.7075 C   0  0  0  0  0  0  0  0  0  0  0  0
  -29.0787  -17.5184   25.6297 C   0  0  0  0  0  0  0  0  0  0  0  0
  -20.8149  -26.7461   21.4328 C   0  0  0  0  0  0  0  0  0  0  0  0
  -18.9697  -27.9405   23.1507 C   0  0  0  0  0  0  0  0  0  0  0  0
  -21.2449  -27.6718   22.3835 C   0  0  0  0  0  0  0  0  0  0  0  0
  -27.1029  -27.6075   21.1062 C   0  0  0  0  0  0  0  0  0  0  0  0
  -28.9950  -28.5260   21.7473 C   0  0  0  0  0  0  0  0  0  0  0  0
  -26.9993  -29.3069   23.0340 C   0  0  0  0  0  0  0  0  0  0  0  0
  -29.2125  -17.1222   20.2178 C   0  0  0  0  0  0  0  0  0  0  0  0
  -26.6304  -15.1672   20.4002 C   0  0  0  0  0  0  0  0  0  0  0  0
  -26.5298  -15.4922   17.0045 C   0  0  0  0  0  0  0  0  0  0  0  0
  -29.5347  -23.7752   19.6033 C   0  0  0  0  0  0  0  0  0  0  0  0
  -29.2837  -22.3161   21.8769 C   0  0  0  0  0  0  0  0  0  0  0  0
  -29.9633  -15.4576   21.9560 C   0  0  0  0  0  0  0  0  0  0  0  0
  -27.2280  -16.4455   22.4917 C   0  0  0  0  0  0  0  0  0  0  0  0
  -30.5181  -21.6404   21.2888 C   0  0  0  0  0  0  0  0  0  0  0  0
  -31.1971  -26.6552   17.6783 C   0  0  0  0  0  0  0  0  0  0  0  0
  -30.4284  -20.1341   21.4832 C   0  0  0  0  0  0  0  0  0  0  0  0
  -30.4836  -27.6849   18.5484 C   0  0  0  0  0  0  0  0  0  0  0  0
  -30.5393  -25.2857   17.8245 C   0  0  0  0  0  0  0  0  0  0  0  0
  -30.8311  -25.7880   20.2509 C   0  0  0  0  0  0  0  0  0  0  0  0
  -29.2249  -19.5567   20.7276 C   0  0  1  0  0  0  0  0  0  0  0  0
  -28.9858  -15.7673   20.8265 C   0  0  1  0  0  0  0  0  0  0  0  0
  -30.4708  -27.2716   20.0357 C   0  0  2  0  0  0  0  0  0  0  0  0
  -33.1357  -22.0584   25.0008 C   0  0  0  0  0  0  0  0  0  0  0  0
  -25.4183  -14.5392   14.9664 C   0  0  0  0  0  0  0  0  0  0  0  0
  -29.5295  -17.6084   29.0120 C   0  0  0  0  0  0  0  0  0  0  0  0
  -28.4237  -12.7049   20.5766 C   0  0  0  0  0  0  0  0  0  0  0  0
  -27.9910  -12.3015   18.1438 C   0  0  0  0  0  0  0  0  0  0  0  0
  -26.1008  -12.2480   19.7707 C   0  0  0  0  0  0  0  0  0  0  0  0
  -25.3174  -18.0996   16.3041 C   0  0  0  0  0  0  0  0  0  0  0  0
  -30.0947  -19.8305   27.9655 C   0  0  0  0  0  0  0  0  0  0  0  0
  -31.4549  -20.3521   27.5107 C   0  0  0  0  0  0  0  0  0  0  0  0
  -28.7027  -22.4733   21.5692 C   0  0  0  0  0  0  0  0  0  0  0  0
  -31.9968  -21.0571   25.1766 C   0  0  1  0  0  0  0  0  0  0  0  0
  -27.1593  -14.4648   19.1730 C   0  0  1  0  0  0  0  0  0  0  0  0
  -25.3654  -15.6165   16.0385 C   0  0  2  0  0  0  0  0  0  0  0  0
  -29.8746  -18.3337   27.7172 C   0  0  2  0  0  0  0  0  0  1  0  0
  -27.4296  -12.9546   19.4249 C   0  0  0  0  0  0  0  0  0  0  0  0
  -28.0257  -27.0649   20.3074 N   0  0  0  0  0  0  0  0  0  0  0  0
  -29.6257  -21.6335   22.4099 N   0  0  0  0  0  0  0  0  0  0  0  0
  -29.1658  -27.6434   20.7216 N   0  0  0  0  0  0  0  0  0  0  0  0
  -27.5880  -15.7227   21.2606 N   0  0  0  0  0  0  0  0  0  0  0  0
  -30.2662  -24.9159   19.2200 N   0  0  0  0  0  0  0  0  0  0  0  0
  -30.0369  -29.1957   22.2844 N   0  0  0  0  0  0  0  0  0  0  0  0
  -25.6110  -29.1849   23.1829 N   0  0  0  0  0  0  0  0  0  0  0  0
  -29.0522  -18.1708   21.1034 N   0  0  0  0  0  0  0  0  0  0  0  0
  -26.2008  -14.7305   18.1057 N   0  0  0  0  0  0  0  0  0  0  0  0
  -29.4065  -23.5993   20.9788 N   0  0  0  0  0  0  0  0  0  0  0  0
  -25.3877  -16.9476   15.3687 N   0  3  0  0  0  0  0  0  0  0  0  0
  -31.2941  -21.3747   26.4505 N   0  3  0  0  0  0  0  0  0  0  0  0
  -27.6283  -30.1026   23.7720 O   0  0  0  0  0  0  0  0  0  0  0  0
  -29.5122  -17.2097   19.0328 O   0  0  0  0  0  0  0  0  0  0  0  0
  -25.4122  -15.2271   20.5848 O   0  0  0  0  0  0  0  0  0  0  0  0
  -27.6232  -16.0152   16.8005 O   0  0  0  0  0  0  0  0  0  0  0  0
  -29.0551  -22.9794   18.7905 O   0  0  0  0  0  0  0  0  0  0  0  0
  -21.7295  -26.1529   20.5788 O   0  0  0  0  0  0  0  0  0  0  0  0
  -28.7996  -18.1651   26.7941 O   0  0  0  0  0  0  0  0  0  1  0  0
  -18.0834  -28.5151   23.9744 F   0  0  0  0  0  0  0  0  0  0  0  0
  -22.5428  -27.9922   22.4757 F   0  0  0  0  0  0  0  0  0  0  0  0
  1  2  1  0  0  0  0
  1  5  2  0  0  0  0
  2  6  2  0  0  0  0
  3  8  2  0  0  0  0
  3 18  1  0  0  0  0
  4  9  1  0  0  0  0
  4 18  2  0  0  0  0
  5 20  1  0  0  0  0
  6 22  1  0  0  0  0
  7 10  2  0  0  0  0
  7 21  1  0  0  0  0
  8 25  1  0  0  0  0
  9 25  2  0  0  0  0
 10 26  1  0  0  0  0
 11 12  2  0  0  0  0
 11 27  1  0  0  0  0
 12 28  1  0  0  0  0
 13 16  2  0  0  0  0
 13 24  1  0  0  0  0
 14 23  1  0  0  0  0
 14 26  2  0  0  0  0
 15 28  2  0  0  0  0
 15 29  1  0  0  0  0
 16 65  1  0  0  0  0
 17 24  2  0  0  0  0
 17 65  1  0  0  0  0
 18 30  1  0  0  0  0
 19 30  1  0  0  0  0
 19 31  2  0  0  0  0
 19 32  1  0  0  0  0
 20 22  2  0  0  0  0
 20 37  1  0  0  0  0
 21 23  2  0  0  0  0
 21 38  1  0  0  0  0
 22 46  1  0  0  0  0
 23 39  1  0  0  0  0
 24 59  1  0  0  0  0
 25 81  1  0  0  0  0
 26 82  1  0  0  0  0
 27 29  2  0  0  0  0
 27 81  1  0  0  0  0
 28 83  1  0  0  0  0
 29 84  1  0  0  0  0
 30 64  2  0  0  0  0
 31 66  1  0  0  0  0
 31 69  1  0  0  0  0
 32 70  1  0  0  0  0
 32 76  2  0  0  0  0
 33 47  1  0  0  0  0
 33 71  1  0  0  0  0
 33 77  2  0  0  0  0
 34 60  1  0  0  0  0
 34 67  1  0  0  0  0
 34 78  2  0  0  0  0
 35 61  1  0  0  0  0
 35 72  1  0  0  0  0
 35 79  2  0  0  0  0
 36 68  1  0  0  0  0
 36 73  1  0  0  0  0
 36 80  2  0  0  0  0
 37 40  1  0  0  0  0
 38 47  1  0  0  0  0
 39 67  1  0  0  0  0
 40 42  1  0  0  0  0
 41 43  1  0  0  0  0
 41 44  1  0  0  0  0
 42 46  1  0  0  0  0
 43 48  1  0  0  0  0
 44 68  1  0  0  0  0
 45 48  1  0  0  0  0
 45 68  1  0  0  0  0
 46 71  1  0  0  0  0
 47 67  1  0  0  0  0
 48 66  1  0  0  0  0
 49 59  1  0  0  0  0
 50 61  1  0  0  0  0
 51 62  1  0  0  0  0
 52 63  1  0  0  0  0
 53 63  1  0  0  0  0
 54 63  1  0  0  0  0
 55 74  1  0  0  0  0
 56 57  1  0  0  0  0
 56 62  1  0  0  0  0
 57 75  1  0  0  0  0
 58 65  1  0  0  0  0
 58 73  1  0  0  0  0
 59 75  1  0  0  0  0
 60 63  1  0  0  0  0
 60 72  1  0  0  0  0
 61 74  1  0  0  0  0
 62 82  1  0  0  0  0
 64 66  1  0  0  0  0
M  CHG  2  74   1  75   1
M  ISO  4  36 100  62 101  73 100  82 101
M  END
> <Batch ID>
0115

> <Smiles>
CNC(C)C(=O)NC(C(=O)N1Cc2cc([101O:1][101CH:1](C)CCNC(C)c3ccn(C[100NH:0][100C:0](=O)N4CCCC(n5nc(-c6ccc(Oc7ccc(F)cc7F)cc6)c(C(N)=O)c5N)C4)c3)ccc2CC1C(=O)NC1CCCc2ccccc21)C(C)(C)C

> <Shape>
0.249

> <Color>
0.066

> <Negative vol penalty>
0.000

$$$$

  -OEChem-04052320103D

 83 91  0     1  0  0  0  0  0999 V2000
  -32.3822  -24.3030   16.8755 C   0  0  0  0  0  0  0  0  0  0  0  0
  -31.0893  -24.5449   16.4226 C   0  0  0  0  0  0  0  0  0  0  0  0
  -26.0338  -14.6549   19.1369 C   0  0  0  0  0  0  0  0  0  0  0  0
  -23.8331  -14.6104   20.1329 C   0  0  0  0  0  0  0  0  0  0  0  0
  -32.6340  -24.2075   18.2435 C   0  0  0  0  0  0  0  0  0  0  0  0
  -30.0471  -24.6904   17.3375 C   0  0  0  0  0  0  0  0  0  0  0  0
  -23.8743  -28.2077   18.2552 C   0  0  0  0  0  0  0  0  0  0  0  0
  -26.3101  -13.4053   19.6915 C   0  0  0  0  0  0  0  0  0  0  0  0
  -24.1094  -13.3607   20.6875 C   0  0  0  0  0  0  0  0  0  0  0  0
  -22.5357  -27.9713   18.5649 C   0  0  0  0  0  0  0  0  0  0  0  0
  -24.1969  -10.1438   19.6558 C   0  0  0  0  0  0  0  0  0  0  0  0
  -23.2129   -9.1603   19.5560 C   0  0  0  0  0  0  0  0  0  0  0  0
  -23.1025  -27.8656   20.9073 C   0  0  0  0  0  0  0  0  0  0  0  0
  -20.4030  -24.6303   21.4675 C   0  0  0  0  0  0  0  0  0  0  0  0
  -23.1164   -9.0122   21.9656 C   0  0  0  0  0  0  0  0  0  0  0  0
  -18.8643  -23.5668   20.2140 C   0  0  0  0  0  0  0  0  0  0  0  0
  -24.7953  -15.2576   19.3576 C   0  0  0  0  0  0  0  0  0  0  0  0
  -23.9347  -16.8128   17.5278 C   0  0  0  0  0  0  0  0  0  0  0  0
  -31.5961  -24.3616   19.1760 C   0  0  0  0  0  0  0  0  0  0  0  0
  -24.8404  -28.2642   19.2700 C   0  0  0  0  0  0  0  0  0  0  0  0
  -30.2850  -24.5956   18.7192 C   0  0  0  0  0  0  0  0  0  0  0  0
  -24.4524  -28.1055   20.6080 C   0  0  0  0  0  0  0  0  0  0  0  0
  -19.3766  -24.8111   20.5078 C   0  0  0  0  0  0  0  0  0  0  0  0
  -25.3480  -12.7582   20.4668 C   0  0  0  0  0  0  0  0  0  0  0  0
  -22.1501  -27.7973   19.8908 C   0  0  0  0  0  0  0  0  0  0  0  0
  -24.6408  -10.5615   20.9105 C   0  0  0  0  0  0  0  0  0  0  0  0
  -22.6726   -8.5945   20.7109 C   0  0  0  0  0  0  0  0  0  0  0  0
  -24.1005   -9.9958   22.0654 C   0  0  0  0  0  0  0  0  0  0  0  0
  -24.5095  -16.5487   18.7855 C   0  0  0  0  0  0  0  0  0  0  0  0
  -20.4868  -23.2808   21.7307 C   0  0  0  0  0  0  0  0  0  0  0  0
  -23.8748  -18.1832   17.4587 C   0  0  0  0  0  0  0  0  0  0  0  0
  -23.4943  -15.9008   16.5129 C   0  0  0  0  0  0  0  0  0  0  0  0
  -27.4392  -26.5810   19.9891 C   0  0  0  0  0  0  0  0  0  0  0  0
  -27.8174  -28.8677   22.2586 C   0  0  0  0  0  0  0  0  0  0  0  0
  -26.3845  -31.2500   24.2380 C   0  0  0  0  0  0  0  0  0  0  0  0
  -23.6459  -22.4703   21.6323 C   0  0  0  0  0  0  0  0  0  0  0  0
  -31.9086  -24.2031   20.6429 C   0  0  0  0  0  0  0  0  0  0  0  0
  -26.2762  -28.5467   18.9217 C   0  0  0  0  0  0  0  0  0  0  0  0
  -25.4476  -28.1772   21.7362 C   0  0  0  0  0  0  0  0  0  0  0  0
  -30.8142  -24.7421   21.5605 C   0  0  0  0  0  0  0  0  0  0  0  0
  -26.0829  -22.1134   19.0613 C   0  0  0  0  0  0  0  0  0  0  0  0
  -29.4426  -24.2673   21.0916 C   0  0  0  0  0  0  0  0  0  0  0  0
  -25.9041  -20.6706   18.5856 C   0  0  0  0  0  0  0  0  0  0  0  0
  -25.8711  -22.2412   20.5682 C   0  0  0  0  0  0  0  0  0  0  0  0
  -24.4138  -20.2538   20.5866 C   0  0  0  0  0  0  0  0  0  0  0  0
  -29.1323  -24.7839   19.6815 C   0  0  1  0  0  0  0  0  0  0  0  0
  -27.2550  -28.0722   19.9913 C   0  0  1  0  0  0  0  0  0  0  0  0
  -24.5626  -20.0843   19.0649 C   0  0  2  0  0  0  0  0  0  0  0  0
  -26.9425  -32.9286   26.0180 C   0  0  0  0  0  0  0  0  0  0  0  0
  -19.5850  -20.6156   19.5583 C   0  0  0  0  0  0  0  0  0  0  0  0
  -17.8904  -20.8735   21.4206 C   0  0  0  0  0  0  0  0  0  0  0  0
  -28.0188  -26.6198   24.3119 C   0  0  0  0  0  0  0  0  0  0  0  0
  -27.6187  -28.3181   26.1074 C   0  0  0  0  0  0  0  0  0  0  0  0
  -29.6389  -28.4939   24.6545 C   0  0  0  0  0  0  0  0  0  0  0  0
  -25.4786  -33.5092   22.5545 C   0  0  0  0  0  0  0  0  0  0  0  0
  -21.3831  -22.5478   22.6487 C   0  0  0  0  0  0  0  0  0  0  0  0
  -20.0609  -26.8804   19.2196 C   0  0  0  0  0  0  0  0  0  1  0  0
  -18.9256  -26.1261   19.9154 C   0  0  2  0  0  0  0  0  0  0  0  0
  -27.3667  -29.0390   23.6891 C   0  0  1  0  0  0  0  0  0  0  0  0
  -26.7746  -32.6886   24.5257 C   0  0  2  0  0  0  0  0  0  0  0  0
  -19.2993  -21.2192   20.9349 C   0  0  0  0  0  0  0  0  0  0  0  0
  -28.1421  -28.1144   24.6695 C   0  0  0  0  0  0  0  0  0  0  0  0
  -24.7945  -17.6620   19.4662 N   0  0  0  0  0  0  0  0  0  0  0  0
  -19.5470  -22.6441   20.9629 N   0  0  0  0  0  0  0  0  0  0  0  0
  -24.3972  -18.6389   18.6332 N   0  0  0  0  0  0  0  0  0  0  0  0
  -26.8404  -28.4493   21.3441 N   0  0  0  0  0  0  0  0  0  0  0  0
  -24.5803  -21.6679   20.9571 N   0  0  0  0  0  0  0  0  0  0  0  0
  -23.4267  -19.0309   16.5083 N   0  0  0  0  0  0  0  0  0  0  0  0
  -23.6287  -14.5255   16.7465 N   0  0  0  0  0  0  0  0  0  0  0  0
  -28.7340  -26.1744   19.7289 N   0  0  0  0  0  0  0  0  0  0  0  0
  -27.4879  -30.4619   23.9877 N   0  0  0  0  0  0  0  0  0  0  0  0
  -22.4456  -21.8509   21.9586 N   0  0  0  0  0  0  0  0  0  0  0  0
  -18.3224  -27.0342   20.9432 N   0  3  0  0  0  0  0  0  0  0  0  0
  -25.7302  -33.6207   24.0144 N   0  3  0  0  0  0  0  0  0  0  0  0
  -23.0114  -16.2943   15.4240 O   0  0  0  0  0  0  0  0  0  0  0  0
  -26.4781  -25.8532   20.2088 O   0  0  0  0  0  0  0  0  0  0  0  0
  -28.9913  -29.1035   21.9620 O   0  0  0  0  0  0  0  0  0  0  0  0
  -25.2179  -30.8632   24.2392 O   0  0  0  0  0  0  0  0  0  0  0  0
  -23.8629  -23.6527   21.9182 O   0  0  0  0  0  0  0  0  0  0  0  0
  -25.6172  -11.5387   21.0080 O   0  0  0  0  0  0  0  0  0  0  0  0
  -20.8442  -27.5657   20.1959 O   0  0  0  0  0  0  0  0  0  1  0  0
  -21.7266   -7.6511   20.6149 F   0  0  0  0  0  0  0  0  0  0  0  0
  -24.5221  -10.3938   23.2735 F   0  0  0  0  0  0  0  0  0  0  0  0
  1  2  1  0  0  0  0
  1  5  2  0  0  0  0
  2  6  2  0  0  0  0
  3  8  2  0  0  0  0
  3 17  1  0  0  0  0
  4  9  1  0  0  0  0
  4 17  2  0  0  0  0
  5 19  1  0  0  0  0
  6 21  1  0  0  0  0
  7 10  2  0  0  0  0
  7 20  1  0  0  0  0
  8 24  1  0  0  0  0
  9 24  2  0  0  0  0
 10 25  1  0  0  0  0
 11 12  2  0  0  0  0
 11 26  1  0  0  0  0
 12 27  1  0  0  0  0
 13 22  1  0  0  0  0
 13 25  2  0  0  0  0
 14 23  1  0  0  0  0
 14 30  2  0  0  0  0
 15 27  2  0  0  0  0
 15 28  1  0  0  0  0
 16 23  2  0  0  0  0
 16 64  1  0  0  0  0
 17 29  1  0  0  0  0
 18 29  1  0  0  0  0
 18 31  2  0  0  0  0
 18 32  1  0  0  0  0
 19 21  2  0  0  0  0
 19 37  1  0  0  0  0
 20 22  2  0  0  0  0
 20 38  1  0  0  0  0
 21 46  1  0  0  0  0
 22 39  1  0  0  0  0
 23 58  1  0  0  0  0
 24 80  1  0  0  0  0
 25 81  1  0  0  0  0
 26 28  2  0  0  0  0
 26 80  1  0  0  0  0
 27 82  1  0  0  0  0
 28 83  1  0  0  0  0
 29 63  2  0  0  0  0
 30 56  1  0  0  0  0
 30 64  1  0  0  0  0
 31 65  1  0  0  0  0
 31 68  1  0  0  0  0
 32 69  1  0  0  0  0
 32 75  2  0  0  0  0
 33 47  1  0  0  0  0
 33 70  1  0  0  0  0
 33 76  2  0  0  0  0
 34 59  1  0  0  0  0
 34 66  1  0  0  0  0
 34 77  2  0  0  0  0
 35 60  1  0  0  0  0
 35 71  1  0  0  0  0
 35 78  2  0  0  0  0
 36 67  1  0  0  0  0
 36 72  1  0  0  0  0
 36 79  2  0  0  0  0
 37 40  1  0  0  0  0
 38 47  1  0  0  0  0
 39 66  1  0  0  0  0
 40 42  1  0  0  0  0
 41 43  1  0  0  0  0
 41 44  1  0  0  0  0
 42 46  1  0  0  0  0
 43 48  1  0  0  0  0
 44 67  1  0  0  0  0
 45 48  1  0  0  0  0
 45 67  1  0  0  0  0
 46 70  1  0  0  0  0
 47 66  1  0  0  0  0
 48 65  1  0  0  0  0
 49 60  1  0  0  0  0
 50 61  1  0  0  0  0
 51 61  1  0  0  0  0
 52 62  1  0  0  0  0
 53 62  1  0  0  0  0
 54 62  1  0  0  0  0
 55 74  1  0  0  0  0
 56 72  1  0  0  0  0
 57 58  1  0  0  0  0
 57 81  1  0  0  0  0
 58 73  1  0  0  0  0
 59 62  1  0  0  0  0
 59 71  1  0  0  0  0
 60 74  1  0  0  0  0
 61 64  1  0  0  0  0
 63 65  1  0  0  0  0
M  CHG  2  73   1  74   1
M  ISO  4  36 100  57 101  72 100  81 101
M  END
> <Batch ID>
0115

> <Smiles>
CNC(C)C(=O)NC(C(=O)N1Cc2cc([101O:1][101CH2:1]C(N)c3cc(C[100NH:0][100C:0](=O)N4CCCC(n5nc(-c6ccc(Oc7ccc(F)cc7F)cc6)c(C(N)=O)c5N)C4)n(C(C)C)c3)ccc2CC1C(=O)NC1CCCc2ccccc21)C(C)(C)C

> <Shape>
0.207

> <Color>
0.061

> <Negative vol penalty>
0.000

$$$$

  -OEChem-04052320103D

 84 92  0     1  0  0  0  0  0999 V2000
  -30.2544  -20.9974   16.4948 C   0  0  0  0  0  0  0  0  0  0  0  0
  -29.5607  -21.1839   17.6862 C   0  0  0  0  0  0  0  0  0  0  0  0
  -24.5165   -8.3530   21.0733 C   0  0  0  0  0  0  0  0  0  0  0  0
  -24.3954  -10.0947   22.7434 C   0  0  0  0  0  0  0  0  0  0  0  0
  -30.8392  -22.0877   15.8520 C   0  0  0  0  0  0  0  0  0  0  0  0
  -29.4523  -22.4607   18.2361 C   0  0  0  0  0  0  0  0  0  0  0  0
  -24.7607  -23.4944   19.8378 C   0  0  0  0  0  0  0  0  0  0  0  0
  -24.1514   -7.4082   22.0322 C   0  0  0  0  0  0  0  0  0  0  0  0
  -24.0303   -9.1498   23.7023 C   0  0  0  0  0  0  0  0  0  0  0  0
  -24.3684  -22.9439   21.0571 C   0  0  0  0  0  0  0  0  0  0  0  0
  -21.3160   -6.3722   23.5553 C   0  0  0  0  0  0  0  0  0  0  0  0
  -20.3468   -5.4327   23.2036 C   0  0  0  0  0  0  0  0  0  0  0  0
  -24.8062  -25.0528   22.1434 C   0  0  0  0  0  0  0  0  0  0  0  0
  -21.9276   -3.6508   23.6073 C   0  0  0  0  0  0  0  0  0  0  0  0
  -24.6385   -9.6963   21.4289 C   0  0  0  0  0  0  0  0  0  0  0  0
  -24.3307  -10.9870   19.2502 C   0  0  0  0  0  0  0  0  0  0  0  0
  -30.7297  -23.3800   16.3893 C   0  0  0  0  0  0  0  0  0  0  0  0
  -25.1898  -24.8274   19.7639 C   0  0  0  0  0  0  0  0  0  0  0  0
  -30.0374  -23.5691   17.6006 C   0  0  0  0  0  0  0  0  0  0  0  0
  -25.2010  -25.6186   20.9215 C   0  0  0  0  0  0  0  0  0  0  0  0
  -23.9083   -7.8065   23.3467 C   0  0  0  0  0  0  0  0  0  0  0  0
  -24.3939  -23.7222   22.2107 C   0  0  0  0  0  0  0  0  0  0  0  0
  -22.5910   -5.9509   23.9330 C   0  0  0  0  0  0  0  0  0  0  0  0
  -20.6526   -4.0720   23.2296 C   0  0  0  0  0  0  0  0  0  0  0  0
  -22.8968   -4.5903   23.9590 C   0  0  0  0  0  0  0  0  0  0  0  0
  -25.0162  -10.6728   20.4389 C   0  0  0  0  0  0  0  0  0  0  0  0
  -25.0912  -11.9695   18.6647 C   0  0  0  0  0  0  0  0  0  0  0  0
  -23.1151  -10.4398   18.7223 C   0  0  0  0  0  0  0  0  0  0  0  0
  -27.9014  -26.2688   18.9432 C   0  0  0  0  0  0  0  0  0  0  0  0
  -26.1255  -28.9591   19.3045 C   0  0  0  0  0  0  0  0  0  0  0  0
  -23.6540  -30.1910   21.6265 C   0  0  0  0  0  0  0  0  0  0  0  0
  -28.9462  -15.9921   20.8577 C   0  0  0  0  0  0  0  0  0  0  0  0
  -31.4189  -24.5206   15.6831 C   0  0  0  0  0  0  0  0  0  0  0  0
  -25.5844  -25.4142   18.4363 C   0  0  0  0  0  0  0  0  0  0  0  0
  -25.6341  -27.0609   20.8921 C   0  0  0  0  0  0  0  0  0  0  0  0
  -30.9387  -25.8969   16.1364 C   0  0  0  0  0  0  0  0  0  0  0  0
  -29.6028  -13.5342   18.3669 C   0  0  0  0  0  0  0  0  0  0  0  0
  -30.8747  -25.9652   17.6589 C   0  0  0  0  0  0  0  0  0  0  0  0
  -28.4399  -12.5505   18.5082 C   0  0  0  0  0  0  0  0  0  0  0  0
  -26.2605  -18.2817   21.9788 C   0  0  0  0  0  0  0  0  0  0  0  0
  -28.3001  -17.9257   23.4186 C   0  0  0  0  0  0  0  0  0  0  0  0
  -30.0443  -14.0845   19.7213 C   0  0  0  0  0  0  0  0  0  0  0  0
  -27.8020  -13.7005   20.6691 C   0  0  0  0  0  0  0  0  0  0  0  0
  -26.1203  -19.6918   22.5373 C   0  0  0  0  0  0  0  0  0  0  0  0
  -28.1487  -19.3371   23.9708 C   0  0  0  0  0  0  0  0  0  0  0  0
  -29.8769  -24.9425   18.2156 C   0  0  1  0  0  0  0  0  0  0  0  0
  -26.4927  -26.6327   18.5679 C   0  0  1  0  0  0  0  0  0  0  0  0
  -27.2849  -13.1612   19.3244 C   0  0  2  0  0  0  0  0  0  0  0  0
  -27.7134  -17.8064   22.0120 C   0  0  0  0  0  0  0  0  0  0  0  0
  -21.7959  -31.8468   21.3054 C   0  0  0  0  0  0  0  0  0  0  0  0
  -24.6685  -20.1158   26.0843 C   0  0  0  0  0  0  0  0  0  0  0  0
  -28.1501  -30.9941   20.3389 C   0  0  0  0  0  0  0  0  0  0  0  0
  -26.2860  -32.1136   21.5800 C   0  0  0  0  0  0  0  0  0  0  0  0
  -26.2223  -31.9828   19.0897 C   0  0  0  0  0  0  0  0  0  0  0  0
  -21.6195  -28.2701   22.5907 C   0  0  0  0  0  0  0  0  0  0  0  0
  -25.4671  -24.3457   27.2724 C   0  0  0  0  0  0  0  0  0  0  0  0
  -26.4736  -21.0810   24.5769 C   0  0  0  0  0  0  0  0  0  0  0  0
  -24.6303  -23.7105   24.5771 C   0  0  0  0  0  0  0  0  0  1  0  0
  -25.8183  -29.8913   20.4515 C   0  0  1  0  0  0  0  0  0  0  0  0
  -22.1704  -30.3739   21.3623 C   0  0  2  0  0  0  0  0  0  0  0  0
  -25.0234  -21.2135   25.0693 C   0  0  2  0  0  0  0  0  0  0  0  0
  -24.7002  -22.6161   25.6418 C   0  0  1  0  0  0  0  0  0  0  0  0
  -26.6250  -31.2180   20.3693 C   0  0  0  0  0  0  0  0  0  0  0  0
  -26.1269  -11.3968   20.6005 N   0  0  0  0  0  0  0  0  0  0  0  0
  -26.1452  -12.1758   19.5055 N   0  0  0  0  0  0  0  0  0  0  0  0
  -26.0165  -27.5870   19.5713 N   0  0  0  0  0  0  0  0  0  0  0  0
  -28.9027  -14.6505   20.4439 N   0  0  0  0  0  0  0  0  0  0  0  0
  -24.9547  -12.6685   17.5179 N   0  0  0  0  0  0  0  0  0  0  0  0
  -21.9012  -11.0440   19.0768 N   0  0  0  0  0  0  0  0  0  0  0  0
  -28.5200  -25.4172   18.0479 N   0  0  0  0  0  0  0  0  0  0  0  0
  -24.3705  -30.0715   20.4545 N   0  0  0  0  0  0  0  0  0  0  0  0
  -27.8204  -16.4509   21.5307 N   0  0  0  0  0  0  0  0  0  0  0  0
  -26.6942  -19.7398   23.9330 N   0  3  0  0  0  0  0  0  0  0  0  0
  -21.3688  -29.7265   22.4390 N   0  3  0  0  0  0  0  0  0  0  0  0
  -25.7241  -23.0227   26.6514 N   0  3  0  0  0  0  0  0  0  0  0  0
  -23.1045   -9.4346   17.9721 O   0  0  0  0  0  0  0  0  0  0  0  0
  -28.3913  -26.7278   19.9684 O   0  0  0  0  0  0  0  0  0  0  0  0
  -26.4434  -29.4312   18.2100 O   0  0  0  0  0  0  0  0  0  0  0  0
  -24.1302  -30.1610   22.7591 O   0  0  0  0  0  0  0  0  0  0  0  0
  -29.9143  -16.7281   20.6387 O   0  0  0  0  0  0  0  0  0  0  0  0
  -23.5519   -6.8848   24.2826 O   0  0  0  0  0  0  0  0  0  0  0  0
  -24.0121  -23.1871   23.4022 O   0  0  0  0  0  0  0  0  0  1  0  0
  -19.7213   -3.1699   22.8933 F   0  0  0  0  0  0  0  0  0  0  0  0
  -24.1196   -4.1795   24.3221 F   0  0  0  0  0  0  0  0  0  0  0  0
  1  2  1  0  0  0  0
  1  5  2  0  0  0  0
  2  6  2  0  0  0  0
  3  8  2  0  0  0  0
  3 15  1  0  0  0  0
  4  9  1  0  0  0  0
  4 15  2  0  0  0  0
  5 17  1  0  0  0  0
  6 19  1  0  0  0  0
  7 10  2  0  0  0  0
  7 18  1  0  0  0  0
  8 21  1  0  0  0  0
  9 21  2  0  0  0  0
 10 22  1  0  0  0  0
 11 12  2  0  0  0  0
 11 23  1  0  0  0  0
 12 24  1  0  0  0  0
 13 20  1  0  0  0  0
 13 22  2  0  0  0  0
 14 24  2  0  0  0  0
 14 25  1  0  0  0  0
 15 26  1  0  0  0  0
 16 26  1  0  0  0  0
 16 27  2  0  0  0  0
 16 28  1  0  0  0  0
 17 19  2  0  0  0  0
 17 33  1  0  0  0  0
 18 20  2  0  0  0  0
 18 34  1  0  0  0  0
 19 46  1  0  0  0  0
 20 35  1  0  0  0  0
 21 81  1  0  0  0  0
 22 82  1  0  0  0  0
 23 25  2  0  0  0  0
 23 81  1  0  0  0  0
 24 83  1  0  0  0  0
 25 84  1  0  0  0  0
 26 64  2  0  0  0  0
 27 65  1  0  0  0  0
 27 68  1  0  0  0  0
 28 69  1  0  0  0  0
 28 76  2  0  0  0  0
 29 47  1  0  0  0  0
 29 70  1  0  0  0  0
 29 77  2  0  0  0  0
 30 59  1  0  0  0  0
 30 66  1  0  0  0  0
 30 78  2  0  0  0  0
 31 60  1  0  0  0  0
 31 71  1  0  0  0  0
 31 79  2  0  0  0  0
 32 67  1  0  0  0  0
 32 72  1  0  0  0  0
 32 80  2  0  0  0  0
 33 36  1  0  0  0  0
 34 47  1  0  0  0  0
 35 66  1  0  0  0  0
 36 38  1  0  0  0  0
 37 39  1  0  0  0  0
 37 42  1  0  0  0  0
 38 46  1  0  0  0  0
 39 48  1  0  0  0  0
 40 44  1  0  0  0  0
 40 49  1  0  0  0  0
 41 45  1  0  0  0  0
 41 49  1  0  0  0  0
 42 67  1  0  0  0  0
 43 48  1  0  0  0  0
 43 67  1  0  0  0  0
 44 73  1  0  0  0  0
 45 73  1  0  0  0  0
 46 70  1  0  0  0  0
 47 66  1  0  0  0  0
 48 65  1  0  0  0  0
 49 72  1  0  0  0  0
 50 60  1  0  0  0  0
 51 61  1  0  0  0  0
 52 63  1  0  0  0  0
 53 63  1  0  0  0  0
 54 63  1  0  0  0  0
 55 74  1  0  0  0  0
 56 75  1  0  0  0  0
 57 61  1  0  0  0  0
 57 73  1  0  0  0  0
 58 62  1  0  0  0  0
 58 82  1  0  0  0  0
 59 63  1  0  0  0  0
 59 71  1  0  0  0  0
 60 74  1  0  0  0  0
 61 62  1  0  0  0  0
 62 75  1  0  0  0  0
 64 65  1  0  0  0  0
M  CHG  3  73   1  74   1  75   1
M  ISO  4  32 100  58 101  72 100  82 101
M  END
> <Batch ID>
0115

> <Smiles>
CNC(C)C(=O)NC(C(=O)N1Cc2cc([101O:1][101CH2:1]C(NC)C(C)CN3CCC([100NH:0][100C:0](=O)N4CCCC(n5nc(-c6ccc(Oc7ccc(F)cc7F)cc6)c(C(N)=O)c5N)C4)CC3)ccc2CC1C(=O)NC1CCCc2ccccc21)C(C)(C)C

> <Shape>
0.236

> <Color>
0.084

> <Negative vol penalty>
0.000

$$$$

  -OEChem-04052320103D

 85 93  0     1  0  0  0  0  0999 V2000
  -20.6684  -33.9481   20.3787 C   0  0  0  0  0  0  0  0  0  0  0  0
  -21.5353  -33.6890   21.4355 C   0  0  0  0  0  0  0  0  0  0  0  0
  -22.9812  -10.1786   21.8811 C   0  0  0  0  0  0  0  0  0  0  0  0
  -24.7460  -10.4775   23.5039 C   0  0  0  0  0  0  0  0  0  0  0  0
  -19.6011  -33.0870   20.1269 C   0  0  0  0  0  0  0  0  0  0  0  0
  -21.3348  -32.5691   22.2417 C   0  0  0  0  0  0  0  0  0  0  0  0
  -26.1905  -26.6866   23.9288 C   0  0  0  0  0  0  0  0  0  0  0  0
  -22.3772   -9.2348   22.7118 C   0  0  0  0  0  0  0  0  0  0  0  0
  -24.1420   -9.5338   24.3346 C   0  0  0  0  0  0  0  0  0  0  0  0
  -26.9033  -25.5128   24.1743 C   0  0  0  0  0  0  0  0  0  0  0  0
  -20.5626   -6.4825   24.2467 C   0  0  0  0  0  0  0  0  0  0  0  0
  -20.1036   -5.3018   23.6630 C   0  0  0  0  0  0  0  0  0  0  0  0
  -24.8307  -24.3074   24.4896 C   0  0  0  0  0  0  0  0  0  0  0  0
  -22.3472   -4.7949   22.9238 C   0  0  0  0  0  0  0  0  0  0  0  0
  -24.1657  -10.7999   22.2771 C   0  0  0  0  0  0  0  0  0  0  0  0
  -24.2362  -12.9857   20.9638 C   0  0  0  0  0  0  0  0  0  0  0  0
  -19.3931  -31.9507   20.9246 C   0  0  0  0  0  0  0  0  0  0  0  0
  -24.7930  -26.6718   23.9476 C   0  0  0  0  0  0  0  0  0  0  0  0
  -20.2630  -31.6927   22.0012 C   0  0  0  0  0  0  0  0  0  0  0  0
  -24.1111  -25.4773   24.2321 C   0  0  0  0  0  0  0  0  0  0  0  0
  -22.9575   -8.9124   23.9386 C   0  0  0  0  0  0  0  0  0  0  0  0
  -26.2251  -24.3263   24.4542 C   0  0  0  0  0  0  0  0  0  0  0  0
  -21.9140   -6.8196   24.1689 C   0  0  0  0  0  0  0  0  0  0  0  0
  -20.9959   -4.4580   23.0016 C   0  0  0  0  0  0  0  0  0  0  0  0
  -22.8062   -5.9757   23.5075 C   0  0  0  0  0  0  0  0  0  0  0  0
  -24.7904  -11.7744   21.4192 C   0  0  0  0  0  0  0  0  0  0  0  0
  -25.2212  -13.5428   20.1853 C   0  0  0  0  0  0  0  0  0  0  0  0
  -22.9464  -13.5564   21.2215 C   0  0  0  0  0  0  0  0  0  0  0  0
  -21.6084  -28.6117   23.5342 C   0  0  0  0  0  0  0  0  0  0  0  0
  -21.1640  -25.8778   22.2156 C   0  0  0  0  0  0  0  0  0  0  0  0
  -21.2231  -22.9239   20.5102 C   0  0  0  0  0  0  0  0  0  0  0  0
  -30.7499  -14.8168   19.8294 C   0  0  0  0  0  0  0  0  0  0  0  0
  -18.1980  -31.0749   20.6429 C   0  0  0  0  0  0  0  0  0  0  0  0
  -23.9853  -27.9257   23.7496 C   0  0  0  0  0  0  0  0  0  0  0  0
  -22.6079  -25.5163   24.2759 C   0  0  0  0  0  0  0  0  0  0  0  0
  -18.2748  -29.7056   21.3133 C   0  0  0  0  0  0  0  0  0  0  0  0
  -32.5440  -18.7988   18.4100 C   0  0  0  0  0  0  0  0  0  0  0  0
  -31.7296  -20.0052   18.8700 C   0  0  0  0  0  0  0  0  0  0  0  0
  -29.5428  -11.6097   18.4298 C   0  0  0  0  0  0  0  0  0  0  0  0
  -18.6978  -29.8483   22.7719 C   0  0  0  0  0  0  0  0  0  0  0  0
  -28.1837  -11.4412   19.1070 C   0  0  0  0  0  0  0  0  0  0  0  0
  -31.6934  -17.5308   18.3446 C   0  0  0  0  0  0  0  0  0  0  0  0
  -31.0284  -19.7370   20.2002 C   0  0  0  0  0  0  0  0  0  0  0  0
  -30.5080  -12.4208   19.2890 C   0  0  0  0  0  0  0  0  0  0  0  0
  -28.6163  -13.5781   20.3827 C   0  0  0  0  0  0  0  0  0  0  0  0
  -20.0931  -30.4746   22.8830 C   0  0  1  0  0  0  0  0  0  0  0  0
  -22.6591  -27.6785   23.0084 C   0  0  1  0  0  0  0  0  0  0  0  0
  -27.6052  -12.8050   19.5228 C   0  0  2  0  0  0  0  0  0  0  0  0
  -30.9932  -17.2556   19.6794 C   0  0  1  0  0  0  0  0  0  0  0  0
  -30.1723  -18.4735   20.1209 C   0  0  1  0  0  0  0  0  0  0  0  0
  -19.7875  -21.4495   19.0741 C   0  0  0  0  0  0  0  0  0  0  0  0
  -27.3273  -17.2938   23.2524 C   0  0  0  0  0  0  0  0  0  0  0  0
  -19.6410  -24.9549   24.6920 C   0  0  0  0  0  0  0  0  0  0  0  0
  -18.9567  -22.9089   23.4217 C   0  0  0  0  0  0  0  0  0  0  0  0
  -18.2462  -25.1641   22.6268 C   0  0  0  0  0  0  0  0  0  0  0  0
  -28.8712  -16.2608   18.9417 C   0  0  0  0  0  0  0  0  0  0  0  0
  -23.0813  -23.1506   18.2179 C   0  0  0  0  0  0  0  0  0  0  0  0
  -27.3797  -20.9564   23.9252 C   0  0  0  0  0  0  0  0  0  0  0  0
  -28.4255  -19.0826   21.7997 C   0  0  0  0  0  0  0  0  0  0  0  0
  -26.3022  -21.9524   24.3257 C   0  0  0  0  0  0  0  0  0  1  0  0
  -20.6623  -24.4645   22.3720 C   0  0  1  0  0  0  0  0  0  0  0  0
  -20.8141  -22.5713   19.0914 C   0  0  2  0  0  0  0  0  0  0  0  0
  -27.8437  -18.7268   23.1674 C   0  0  1  0  0  0  0  0  0  0  0  0
  -19.4040  -24.3796   23.2814 C   0  0  0  0  0  0  0  0  0  0  0  0
  -26.0312  -11.5731   20.9675 N   0  0  0  0  0  0  0  0  0  0  0  0
  -26.2647  -12.6653   20.2201 N   0  0  0  0  0  0  0  0  0  0  0  0
  -22.0937  -26.3272   23.1612 N   0  0  0  0  0  0  0  0  0  0  0  0
  -29.9168  -13.6927   19.7059 N   0  0  0  0  0  0  0  0  0  0  0  0
  -25.2877  -14.6927   19.4812 N   0  0  0  0  0  0  0  0  0  0  0  0
  -22.0561  -12.8517   22.0432 N   0  0  0  0  0  0  0  0  0  0  0  0
  -21.1134  -29.4909   22.5901 N   0  0  0  0  0  0  0  0  0  0  0  0
  -20.4592  -23.9517   21.0214 N   0  0  0  0  0  0  0  0  0  0  0  0
  -26.8046  -19.6698   23.5588 N   0  0  0  0  0  0  0  0  0  0  0  0
  -30.1737  -16.0708   19.5764 N   0  0  0  0  0  0  0  0  0  0  0  0
  -29.5822  -18.2168   21.4635 N   0  3  0  0  0  0  0  0  0  0  0  0
  -22.0013  -22.1342   18.3037 N   0  3  0  0  0  0  0  0  0  0  0  0
  -22.5877  -14.6507   20.7243 O   0  0  0  0  0  0  0  0  0  0  0  0
  -21.2695  -28.5393   24.7097 O   0  0  0  0  0  0  0  0  0  0  0  0
  -20.7404  -26.5686   21.2847 O   0  0  0  0  0  0  0  0  0  0  0  0
  -22.1272  -22.3431   21.1067 O   0  0  0  0  0  0  0  0  0  0  0  0
  -31.9432  -14.7050   20.1384 O   0  0  0  0  0  0  0  0  0  0  0  0
  -22.3683   -7.9918   24.7496 O   0  0  0  0  0  0  0  0  0  0  0  0
  -26.9271  -23.1830   24.6885 O   0  0  0  0  0  0  0  0  0  1  0  0
  -20.5552   -3.3234   22.4425 F   0  0  0  0  0  0  0  0  0  0  0  0
  -24.1058   -6.2936   23.4305 F   0  0  0  0  0  0  0  0  0  0  0  0
  1  2  1  0  0  0  0
  1  5  2  0  0  0  0
  2  6  2  0  0  0  0
  3  8  2  0  0  0  0
  3 15  1  0  0  0  0
  4  9  1  0  0  0  0
  4 15  2  0  0  0  0
  5 17  1  0  0  0  0
  6 19  1  0  0  0  0
  7 10  2  0  0  0  0
  7 18  1  0  0  0  0
  8 21  1  0  0  0  0
  9 21  2  0  0  0  0
 10 22  1  0  0  0  0
 11 12  2  0  0  0  0
 11 23  1  0  0  0  0
 12 24  1  0  0  0  0
 13 20  1  0  0  0  0
 13 22  2  0  0  0  0
 14 24  2  0  0  0  0
 14 25  1  0  0  0  0
 15 26  1  0  0  0  0
 16 26  1  0  0  0  0
 16 27  2  0  0  0  0
 16 28  1  0  0  0  0
 17 19  2  0  0  0  0
 17 33  1  0  0  0  0
 18 20  2  0  0  0  0
 18 34  1  0  0  0  0
 19 46  1  0  0  0  0
 20 35  1  0  0  0  0
 21 82  1  0  0  0  0
 22 83  1  0  0  0  0
 23 25  2  0  0  0  0
 23 82  1  0  0  0  0
 24 84  1  0  0  0  0
 25 85  1  0  0  0  0
 26 65  2  0  0  0  0
 27 66  1  0  0  0  0
 27 69  1  0  0  0  0
 28 70  1  0  0  0  0
 28 77  2  0  0  0  0
 29 47  1  0  0  0  0
 29 71  1  0  0  0  0
 29 78  2  0  0  0  0
 30 61  1  0  0  0  0
 30 67  1  0  0  0  0
 30 79  2  0  0  0  0
 31 62  1  0  0  0  0
 31 72  1  0  0  0  0
 31 80  2  0  0  0  0
 32 68  1  0  0  0  0
 32 74  1  0  0  0  0
 32 81  2  0  0  0  0
 33 36  1  0  0  0  0
 34 47  1  0  0  0  0
 35 67  1  0  0  0  0
 36 40  1  0  0  0  0
 37 38  1  0  0  0  0
 37 42  1  0  0  0  0
 38 43  1  0  0  0  0
 39 41  1  0  0  0  0
 39 44  1  0  0  0  0
 40 46  1  0  0  0  0
 41 48  1  0  0  0  0
 42 49  1  0  0  0  0
 43 50  1  0  0  0  0
 44 68  1  0  0  0  0
 45 48  1  0  0  0  0
 45 68  1  0  0  0  0
 46 71  1  0  0  0  0
 47 67  1  0  0  0  0
 48 66  1  0  0  0  0
 49 50  1  0  0  0  0
 49 74  1  0  0  0  0
 50 75  1  0  0  0  0
 51 62  1  0  0  0  0
 52 63  1  0  0  0  0
 53 64  1  0  0  0  0
 54 64  1  0  0  0  0
 55 64  1  0  0  0  0
 56 74  1  0  0  0  0
 57 76  1  0  0  0  0
 58 60  1  0  0  0  0
 58 73  1  0  0  0  0
 59 63  1  0  0  0  0
 59 75  1  0  0  0  0
 60 83  1  0  0  0  0
 61 64  1  0  0  0  0
 61 72  1  0  0  0  0
 62 76  1  0  0  0  0
 63 73  1  0  0  0  0
 65 66  1  0  0  0  0
M  CHG  2  75   1  76   1
M  ISO  4  32 100  60 101  74 100  83 101
M  END
> <Batch ID>
0115

> <Smiles>
CNC(C)C(=O)NC(C(=O)N1Cc2cc([101O:1][101CH2:1]CNC(C)CNC3CCCCC3[100N:0](C)[100C:0](=O)N3CCCC(n4nc(-c5ccc(Oc6ccc(F)cc6F)cc5)c(C(N)=O)c4N)C3)ccc2CC1C(=O)NC1CCCc2ccccc21)C(C)(C)C

> <Shape>
0.207

> <Color>
0.163

> <Negative vol penalty>
0.000

$$$$

  -OEChem-04052320103D

 85 93  0     1  0  0  0  0  0999 V2000
  -22.1565  -19.8414   22.2150 C   0  0  0  0  0  0  0  0  0  0  0  0
  -22.6029  -20.9184   21.4559 C   0  0  0  0  0  0  0  0  0  0  0  0
  -26.5320  -13.6906   21.8105 C   0  0  0  0  0  0  0  0  0  0  0  0
  -25.7917  -14.2020   19.5683 C   0  0  0  0  0  0  0  0  0  0  0  0
  -21.1311  -20.0211   23.1425 C   0  0  0  0  0  0  0  0  0  0  0  0
  -22.0234  -22.1756   21.6232 C   0  0  0  0  0  0  0  0  0  0  0  0
  -25.4631  -25.8851   21.8538 C   0  0  0  0  0  0  0  0  0  0  0  0
  -25.6270  -12.6308   21.8676 C   0  0  0  0  0  0  0  0  0  0  0  0
  -24.8867  -13.1420   19.6254 C   0  0  0  0  0  0  0  0  0  0  0  0
  -26.0220  -26.3109   20.6497 C   0  0  0  0  0  0  0  0  0  0  0  0
  -22.3134  -12.2105   22.3847 C   0  0  0  0  0  0  0  0  0  0  0  0
  -21.5518  -12.0714   23.5450 C   0  0  0  0  0  0  0  0  0  0  0  0
  -32.2889  -26.8041   18.6278 C   0  0  0  0  0  0  0  0  0  0  0  0
  -24.5255  -28.2027   20.6309 C   0  0  0  0  0  0  0  0  0  0  0  0
  -22.4945   -9.8754   23.9003 C   0  0  0  0  0  0  0  0  0  0  0  0
  -31.4009  -27.8672   18.6607 C   0  0  0  0  0  0  0  0  0  0  0  0
  -26.6143  -14.4763   20.6608 C   0  0  0  0  0  0  0  0  0  0  0  0
  -28.8816  -15.5285   20.1512 C   0  0  0  0  0  0  0  0  0  0  0  0
  -20.5453  -21.2833   23.3281 C   0  0  0  0  0  0  0  0  0  0  0  0
  -24.4219  -26.6102   22.4510 C   0  0  0  0  0  0  0  0  0  0  0  0
  -20.9883  -22.3721   22.5531 C   0  0  0  0  0  0  0  0  0  0  0  0
  -23.9567  -27.7854   21.8440 C   0  0  0  0  0  0  0  0  0  0  0  0
  -31.9918  -25.7335   17.7918 C   0  0  0  0  0  0  0  0  0  0  0  0
  -30.8322  -25.7584   17.0251 C   0  0  0  0  0  0  0  0  0  0  0  0
  -24.8044  -12.3564   20.7751 C   0  0  0  0  0  0  0  0  0  0  0  0
  -25.5513  -27.4683   20.0365 C   0  0  0  0  0  0  0  0  0  0  0  0
  -23.1654  -11.1821   21.9821 C   0  0  0  0  0  0  0  0  0  0  0  0
  -21.6424  -10.9038   24.3028 C   0  0  0  0  0  0  0  0  0  0  0  0
  -23.2560  -10.0146   22.7399 C   0  0  0  0  0  0  0  0  0  0  0  0
  -27.5485  -15.5717   20.6014 C   0  0  0  0  0  0  0  0  0  0  0  0
  -30.0093  -26.8682   17.1298 C   0  0  0  0  0  0  0  0  0  0  0  0
  -29.3344  -16.8172   20.2947 C   0  0  0  0  0  0  0  0  0  0  0  0
  -29.6426  -14.4223   19.6482 C   0  0  0  0  0  0  0  0  0  0  0  0
  -21.3962  -25.9871   23.1997 C   0  0  0  0  0  0  0  0  0  0  0  0
  -21.5452  -28.9143   24.5896 C   0  0  0  0  0  0  0  0  0  0  0  0
  -23.0340  -31.9819   24.7313 C   0  0  0  0  0  0  0  0  0  0  0  0
  -28.6060  -22.3220   19.7362 C   0  0  0  0  0  0  0  0  0  0  0  0
  -19.4076  -21.4184   24.3089 C   0  0  0  0  0  0  0  0  0  0  0  0
  -23.8479  -26.1522   23.7637 C   0  0  0  0  0  0  0  0  0  0  0  0
  -22.8548  -28.6108   22.4546 C   0  0  0  0  0  0  0  0  0  0  0  0
  -19.1025  -22.8642   24.6923 C   0  0  0  0  0  0  0  0  0  0  0  0
  -27.2750  -20.7862   22.6596 C   0  0  0  0  0  0  0  0  0  0  0  0
  -19.0510  -23.7467   23.4492 C   0  0  0  0  0  0  0  0  0  0  0  0
  -27.3318  -19.2903   22.3450 C   0  0  0  0  0  0  0  0  0  0  0  0
  -26.9344  -21.6110   21.4204 C   0  0  0  0  0  0  0  0  0  0  0  0
  -27.8629  -19.8721   19.9413 C   0  0  0  0  0  0  0  0  0  0  0  0
  -20.4017  -23.7567   22.7233 C   0  0  1  0  0  0  0  0  0  0  0  0
  -22.4423  -26.6870   24.0203 C   0  0  1  0  0  0  0  0  0  0  0  0
  -28.2582  -19.0038   21.1480 C   0  0  2  0  0  0  0  0  0  0  0  0
  -32.9303  -24.5737   17.7353 C   0  0  0  0  0  0  0  0  0  0  0  0
  -22.9136  -34.1759   25.9433 C   0  0  0  0  0  0  0  0  0  0  0  0
  -29.2647  -22.4403   15.7432 C   0  0  0  0  0  0  0  0  0  0  0  0
  -19.0758  -29.6728   22.9660 C   0  0  0  0  0  0  0  0  0  0  0  0
  -19.5676  -32.0752   23.4708 C   0  0  0  0  0  0  0  0  0  0  0  0
  -19.0619  -30.4903   25.3295 C   0  0  0  0  0  0  0  0  0  0  0  0
  -25.7877  -31.6885   25.7754 C   0  0  0  0  0  0  0  0  0  0  0  0
  -30.4880  -24.6241   16.1193 C   0  0  0  0  0  0  0  0  0  0  0  0
  -28.7381  -26.9521   16.3232 C   0  0  0  0  0  0  0  0  0  0  0  0
  -27.6202  -27.7351   17.0151 C   0  0  0  0  0  0  0  0  0  0  0  0
  -30.2999  -22.8770   18.0094 C   0  0  0  0  0  0  0  0  0  0  0  0
  -27.1439  -27.0898   18.3113 C   0  0  0  0  0  0  0  0  0  1  0  0
  -21.2833  -30.3291   24.1331 C   0  0  1  0  0  0  0  0  0  0  0  0
  -23.5528  -32.7966   25.9024 C   0  0  2  0  0  0  0  0  0  0  0  0
  -29.6320  -23.5107   16.7775 C   0  0  2  0  0  0  0  0  0  0  0  0
  -19.7666  -30.6255   23.9621 C   0  0  0  0  0  0  0  0  0  0  0  0
  -30.2647  -27.9270   17.9306 N   0  0  0  0  0  0  0  0  0  0  0  0
  -27.1785  -16.7912   21.0012 N   0  0  0  0  0  0  0  0  0  0  0  0
  -28.2859  -17.5263   20.8027 N   0  0  0  0  0  0  0  0  0  0  0  0
  -22.3215  -28.1183   23.7354 N   0  0  0  0  0  0  0  0  0  0  0  0
  -27.8507  -21.2931   20.3226 N   0  0  0  0  0  0  0  0  0  0  0  0
  -30.5232  -17.4017   20.0347 N   0  0  0  0  0  0  0  0  0  0  0  0
  -29.0238  -13.1674   19.5671 N   0  0  0  0  0  0  0  0  0  0  0  0
  -21.3373  -24.6224   23.4086 N   0  0  0  0  0  0  0  0  0  0  0  0
  -21.9577  -31.1986   25.0909 N   0  0  0  0  0  0  0  0  0  0  0  0
  -29.4543  -21.9337   18.7065 N   0  0  0  0  0  0  0  0  0  0  0  0
  -25.0300  -32.9661   25.8015 N   0  3  0  0  0  0  0  0  0  0  0  0
  -30.8411  -14.5397   19.2968 O   0  0  0  0  0  0  0  0  0  0  0  0
  -20.6934  -26.6373   22.4348 O   0  0  0  0  0  0  0  0  0  0  0  0
  -21.0843  -28.5317   25.6680 O   0  0  0  0  0  0  0  0  0  0  0  0
  -23.5313  -32.0377   23.6087 O   0  0  0  0  0  0  0  0  0  0  0  0
  -28.5340  -23.4987   20.1068 O   0  0  0  0  0  0  0  0  0  0  0  0
  -23.9214  -11.3221   20.8304 O   0  0  0  0  0  0  0  0  0  0  0  0
  -26.0947  -27.8858   18.8608 O   0  0  0  0  0  0  0  0  0  1  0  0
  -20.9122  -10.7710   25.4179 F   0  0  0  0  0  0  0  0  0  0  0  0
  -24.0737   -9.0236   22.3589 F   0  0  0  0  0  0  0  0  0  0  0  0
  1  2  1  0  0  0  0
  1  5  2  0  0  0  0
  2  6  2  0  0  0  0
  3  8  2  0  0  0  0
  3 17  1  0  0  0  0
  4  9  1  0  0  0  0
  4 17  2  0  0  0  0
  5 19  1  0  0  0  0
  6 21  1  0  0  0  0
  7 10  2  0  0  0  0
  7 20  1  0  0  0  0
  8 25  1  0  0  0  0
  9 25  2  0  0  0  0
 10 26  1  0  0  0  0
 11 12  2  0  0  0  0
 11 27  1  0  0  0  0
 12 28  1  0  0  0  0
 13 16  1  0  0  0  0
 13 23  2  0  0  0  0
 14 22  1  0  0  0  0
 14 26  2  0  0  0  0
 15 28  2  0  0  0  0
 15 29  1  0  0  0  0
 16 66  2  0  0  0  0
 17 30  1  0  0  0  0
 18 30  1  0  0  0  0
 18 32  2  0  0  0  0
 18 33  1  0  0  0  0
 19 21  2  0  0  0  0
 19 38  1  0  0  0  0
 20 22  2  0  0  0  0
 20 39  1  0  0  0  0
 21 47  1  0  0  0  0
 22 40  1  0  0  0  0
 23 24  1  0  0  0  0
 23 50  1  0  0  0  0
 24 31  2  0  0  0  0
 24 57  1  0  0  0  0
 25 82  1  0  0  0  0
 26 83  1  0  0  0  0
 27 29  2  0  0  0  0
 27 82  1  0  0  0  0
 28 84  1  0  0  0  0
 29 85  1  0  0  0  0
 30 67  2  0  0  0  0
 31 58  1  0  0  0  0
 31 66  1  0  0  0  0
 32 68  1  0  0  0  0
 32 71  1  0  0  0  0
 33 72  1  0  0  0  0
 33 77  2  0  0  0  0
 34 48  1  0  0  0  0
 34 73  1  0  0  0  0
 34 78  2  0  0  0  0
 35 62  1  0  0  0  0
 35 69  1  0  0  0  0
 35 79  2  0  0  0  0
 36 63  1  0  0  0  0
 36 74  1  0  0  0  0
 36 80  2  0  0  0  0
 37 70  1  0  0  0  0
 37 75  1  0  0  0  0
 37 81  2  0  0  0  0
 38 41  1  0  0  0  0
 39 48  1  0  0  0  0
 40 69  1  0  0  0  0
 41 43  1  0  0  0  0
 42 44  1  0  0  0  0
 42 45  1  0  0  0  0
 43 47  1  0  0  0  0
 44 49  1  0  0  0  0
 45 70  1  0  0  0  0
 46 49  1  0  0  0  0
 46 70  1  0  0  0  0
 47 73  1  0  0  0  0
 48 69  1  0  0  0  0
 49 68  1  0  0  0  0
 51 63  1  0  0  0  0
 52 64  1  0  0  0  0
 53 65  1  0  0  0  0
 54 65  1  0  0  0  0
 55 65  1  0  0  0  0
 56 76  1  0  0  0  0
 57 64  1  0  0  0  0
 58 59  1  0  0  0  0
 59 61  1  0  0  0  0
 60 64  1  0  0  0  0
 60 75  1  0  0  0  0
 61 83  1  0  0  0  0
 62 65  1  0  0  0  0
 62 74  1  0  0  0  0
 63 76  1  0  0  0  0
 67 68  1  0  0  0  0
M  CHG  1  76   1
M  ISO  4  37 100  61 101  75 100  83 101
M  END
> <Batch ID>
0115

> <Smiles>
CNC(C)C(=O)NC(C(=O)N1Cc2cc([101O:1][101CH2:1]CCc3nccc(C)c3CC(C)C[100NH:0][100C:0](=O)N3CCCC(n4nc(-c5ccc(Oc6ccc(F)cc6F)cc5)c(C(N)=O)c4N)C3)ccc2CC1C(=O)NC1CCCc2ccccc21)C(C)(C)C

> <Shape>
0.234

> <Color>
0.051

> <Negative vol penalty>
0.000

$$$$

  -OEChem-04052320103D

 86 94  0     1  0  0  0  0  0999 V2000
  -19.7751  -22.5095   20.9975 C   0  0  0  0  0  0  0  0  0  0  0  0
  -21.0457  -22.5708   20.4344 C   0  0  0  0  0  0  0  0  0  0  0  0
  -24.0364  -30.1053   23.7949 C   0  0  0  0  0  0  0  0  0  0  0  0
  -23.6751  -27.7859   24.3669 C   0  0  0  0  0  0  0  0  0  0  0  0
  -19.5008  -21.5761   21.9963 C   0  0  0  0  0  0  0  0  0  0  0  0
  -22.0432  -21.6995   20.8707 C   0  0  0  0  0  0  0  0  0  0  0  0
  -27.7802  -18.1365   18.4814 C   0  0  0  0  0  0  0  0  0  0  0  0
  -22.6575  -30.3136   23.7685 C   0  0  0  0  0  0  0  0  0  0  0  0
  -22.2962  -27.9942   24.3405 C   0  0  0  0  0  0  0  0  0  0  0  0
  -29.1283  -17.9419   18.7792 C   0  0  0  0  0  0  0  0  0  0  0  0
  -18.6755  -27.8275   24.0709 C   0  0  0  0  0  0  0  0  0  0  0  0
  -17.8887  -26.8781   23.4188 C   0  0  0  0  0  0  0  0  0  0  0  0
  -28.7868  -20.4076   23.5542 C   0  0  0  0  0  0  0  0  0  0  0  0
  -28.5175  -16.3178   20.4550 C   0  0  0  0  0  0  0  0  0  0  0  0
  -19.0731  -27.3122   21.3582 C   0  0  0  0  0  0  0  0  0  0  0  0
  -27.4622  -20.1547   23.2361 C   0  0  0  0  0  0  0  0  0  0  0  0
  -24.5453  -28.8414   24.0941 C   0  0  0  0  0  0  0  0  0  0  0  0
  -26.8297  -28.7640   25.2268 C   0  0  0  0  0  0  0  0  0  0  0  0
  -20.4927  -20.6865   22.4382 C   0  0  0  0  0  0  0  0  0  0  0  0
  -26.7885  -17.4300   19.1770 C   0  0  0  0  0  0  0  0  0  0  0  0
  -21.7823  -20.7543   21.8772 C   0  0  0  0  0  0  0  0  0  0  0  0
  -27.1577  -16.5033   20.1624 C   0  0  0  0  0  0  0  0  0  0  0  0
  -29.5108  -21.2425   22.7104 C   0  0  0  0  0  0  0  0  0  0  0  0
  -28.8967  -21.7913   21.5901 C   0  0  0  0  0  0  0  0  0  0  0  0
  -21.7874  -29.2581   24.0413 C   0  0  0  0  0  0  0  0  0  0  0  0
  -29.4970  -17.0346   19.7681 C   0  0  0  0  0  0  0  0  0  0  0  0
  -19.6610  -28.5193   23.3667 C   0  0  0  0  0  0  0  0  0  0  0  0
  -18.0875  -26.6204   22.0624 C   0  0  0  0  0  0  0  0  0  0  0  0
  -19.8598  -28.2616   22.0104 C   0  0  0  0  0  0  0  0  0  0  0  0
  -25.9696  -28.6254   24.1210 C   0  0  0  0  0  0  0  0  0  0  0  0
  -27.5672  -21.4762   21.3598 C   0  0  0  0  0  0  0  0  0  0  0  0
  -28.0732  -28.4484   24.7363 C   0  0  0  0  0  0  0  0  0  0  0  0
  -26.5312  -29.1438   26.5768 C   0  0  0  0  0  0  0  0  0  0  0  0
  -24.3671  -18.2403   21.0701 C   0  0  0  0  0  0  0  0  0  0  0  0
  -23.6903  -15.0720   20.9087 C   0  0  0  0  0  0  0  0  0  0  0  0
  -24.8106  -11.8939   20.3688 C   0  0  0  0  0  0  0  0  0  0  0  0
  -29.9079  -25.0983   20.1252 C   0  0  0  0  0  0  0  0  0  0  0  0
  -20.1622  -19.7266   23.5535 C   0  0  0  0  0  0  0  0  0  0  0  0
  -25.3400  -17.6316   18.8254 C   0  0  0  0  0  0  0  0  0  0  0  0
  -26.1325  -15.7049   20.9240 C   0  0  0  0  0  0  0  0  0  0  0  0
  -21.1695  -18.5884   23.6961 C   0  0  0  0  0  0  0  0  0  0  0  0
  -30.6384  -28.5355   20.6986 C   0  0  0  0  0  0  0  0  0  0  0  0
  -22.5953  -19.1285   23.6497 C   0  0  0  0  0  0  0  0  0  0  0  0
  -29.6023  -28.9608   21.7405 C   0  0  0  0  0  0  0  0  0  0  0  0
  -30.0584  -27.5344   19.7019 C   0  0  0  0  0  0  0  0  0  0  0  0
  -28.3951  -26.7719   21.3529 C   0  0  0  0  0  0  0  0  0  0  0  0
  -22.8838  -19.8095   22.3064 C   0  0  1  0  0  0  0  0  0  0  0  0
  -24.3909  -17.2363   19.9525 C   0  0  1  0  0  0  0  0  0  0  0  0
  -28.9495  -27.7385   22.4135 C   0  0  2  0  0  0  0  0  0  0  0  0
  -26.8544  -22.0357   20.1722 C   0  0  0  0  0  0  0  0  0  0  0  0
  -24.0322   -9.5084   20.3441 C   0  0  0  0  0  0  0  0  0  0  0  0
  -32.8943  -16.6358   23.2074 C   0  0  0  0  0  0  0  0  0  0  0  0
  -23.6787  -15.0466   23.9598 C   0  0  0  0  0  0  0  0  0  0  0  0
  -23.8501  -12.5505   23.8703 C   0  0  0  0  0  0  0  0  0  0  0  0
  -21.8597  -13.6978   22.8984 C   0  0  0  0  0  0  0  0  0  0  0  0
  -25.5119  -11.5731   17.5115 C   0  0  0  0  0  0  0  0  0  0  0  0
  -30.9484  -21.5351   23.0295 C   0  0  0  0  0  0  0  0  0  0  0  0
  -29.6486  -22.6904   20.6673 C   0  0  0  0  0  0  0  0  0  0  0  0
  -31.9410  -20.7834   22.1483 C   0  0  0  0  0  0  0  0  0  0  0  0
  -32.6822  -18.4930   21.4823 C   0  0  0  0  0  0  0  0  0  0  0  0
  -31.1316  -16.4748   21.4022 C   0  0  0  0  0  0  0  0  0  1  0  0
  -24.0842  -13.8526   21.7068 C   0  0  1  0  0  0  0  0  0  0  0  0
  -24.2620  -10.7636   19.5168 C   0  0  2  0  0  0  0  0  0  0  0  0
  -32.5295  -16.9936   21.7622 C   0  0  2  0  0  0  0  0  0  0  0  0
  -23.3876  -13.8032   23.0960 C   0  0  0  0  0  0  0  0  0  0  0  0
  -26.8315  -20.6693   22.1568 N   0  0  0  0  0  0  0  0  0  0  0  0
  -26.6124  -28.2512   23.0116 N   0  0  0  0  0  0  0  0  0  0  0  0
  -27.8896  -28.1520   23.4178 N   0  0  0  0  0  0  0  0  0  0  0  0
  -24.7290  -15.9421   20.5483 N   0  0  0  0  0  0  0  0  0  0  0  0
  -29.4561  -26.3987   20.4043 N   0  0  0  0  0  0  0  0  0  0  0  0
  -29.2949  -28.3985   25.3085 N   0  0  0  0  0  0  0  0  0  0  0  0
  -25.2014  -29.4341   26.9107 N   0  0  0  0  0  0  0  0  0  0  0  0
  -23.1301  -18.8192   21.2802 N   0  0  0  0  0  0  0  0  0  0  0  0
  -23.8043  -12.7005   20.8567 N   0  0  0  0  0  0  0  0  0  0  0  0
  -29.2883  -24.0801   20.8395 N   0  0  0  0  0  0  0  0  0  0  0  0
  -25.2134  -10.4346   18.4179 N   0  3  0  0  0  0  0  0  0  0  0  0
  -31.7999  -19.3143   22.3449 N   0  3  0  0  0  0  0  0  0  0  0  0
  -27.4200  -29.2394   27.4568 O   0  0  0  0  0  0  0  0  0  0  0  0
  -25.3947  -18.4715   21.6966 O   0  0  0  0  0  0  0  0  0  0  0  0
  -22.5057  -15.2424   20.6098 O   0  0  0  0  0  0  0  0  0  0  0  0
  -26.0114  -12.0440   20.5834 O   0  0  0  0  0  0  0  0  0  0  0  0
  -30.8011  -24.8627   19.3046 O   0  0  0  0  0  0  0  0  0  0  0  0
  -20.4417  -29.4610   24.0158 O   0  0  0  0  0  0  0  0  0  0  0  0
  -30.8120  -16.8433   20.0612 O   0  0  0  0  0  0  0  0  0  1  0  0
  -17.3330  -25.7076   21.4367 F   0  0  0  0  0  0  0  0  0  0  0  0
  -20.8058  -28.9222   21.3288 F   0  0  0  0  0  0  0  0  0  0  0  0
  1  2  1  0  0  0  0
  1  5  2  0  0  0  0
  2  6  2  0  0  0  0
  3  8  2  0  0  0  0
  3 17  1  0  0  0  0
  4  9  1  0  0  0  0
  4 17  2  0  0  0  0
  5 19  1  0  0  0  0
  6 21  1  0  0  0  0
  7 10  2  0  0  0  0
  7 20  1  0  0  0  0
  8 25  1  0  0  0  0
  9 25  2  0  0  0  0
 10 26  1  0  0  0  0
 11 12  2  0  0  0  0
 11 27  1  0  0  0  0
 12 28  1  0  0  0  0
 13 16  2  0  0  0  0
 13 23  1  0  0  0  0
 14 22  1  0  0  0  0
 14 26  2  0  0  0  0
 15 28  2  0  0  0  0
 15 29  1  0  0  0  0
 16 66  1  0  0  0  0
 17 30  1  0  0  0  0
 18 30  1  0  0  0  0
 18 32  2  0  0  0  0
 18 33  1  0  0  0  0
 19 21  2  0  0  0  0
 19 38  1  0  0  0  0
 20 22  2  0  0  0  0
 20 39  1  0  0  0  0
 21 47  1  0  0  0  0
 22 40  1  0  0  0  0
 23 24  2  0  0  0  0
 23 57  1  0  0  0  0
 24 31  1  0  0  0  0
 24 58  1  0  0  0  0
 25 83  1  0  0  0  0
 26 84  1  0  0  0  0
 27 29  2  0  0  0  0
 27 83  1  0  0  0  0
 28 85  1  0  0  0  0
 29 86  1  0  0  0  0
 30 67  2  0  0  0  0
 31 50  1  0  0  0  0
 31 66  2  0  0  0  0
 32 68  1  0  0  0  0
 32 71  1  0  0  0  0
 33 72  1  0  0  0  0
 33 78  2  0  0  0  0
 34 48  1  0  0  0  0
 34 73  1  0  0  0  0
 34 79  2  0  0  0  0
 35 62  1  0  0  0  0
 35 69  1  0  0  0  0
 35 80  2  0  0  0  0
 36 63  1  0  0  0  0
 36 74  1  0  0  0  0
 36 81  2  0  0  0  0
 37 70  1  0  0  0  0
 37 75  1  0  0  0  0
 37 82  2  0  0  0  0
 38 41  1  0  0  0  0
 39 48  1  0  0  0  0
 40 69  1  0  0  0  0
 41 43  1  0  0  0  0
 42 44  1  0  0  0  0
 42 45  1  0  0  0  0
 43 47  1  0  0  0  0
 44 49  1  0  0  0  0
 45 70  1  0  0  0  0
 46 49  1  0  0  0  0
 46 70  1  0  0  0  0
 47 73  1  0  0  0  0
 48 69  1  0  0  0  0
 49 68  1  0  0  0  0
 51 63  1  0  0  0  0
 52 64  1  0  0  0  0
 53 65  1  0  0  0  0
 54 65  1  0  0  0  0
 55 65  1  0  0  0  0
 56 76  1  0  0  0  0
 57 59  1  0  0  0  0
 58 75  1  0  0  0  0
 59 77  1  0  0  0  0
 60 64  1  0  0  0  0
 60 77  1  0  0  0  0
 61 64  1  0  0  0  0
 61 84  1  0  0  0  0
 62 65  1  0  0  0  0
 62 74  1  0  0  0  0
 63 76  1  0  0  0  0
 67 68  1  0  0  0  0
M  CHG  2  76   1  77   1
M  ISO  4  37 100  61 101  75 100  84 101
M  END
> <Batch ID>
0115

> <Smiles>
CNC(C)C(=O)NC(C(=O)N1Cc2cc([101O:1][101CH2:1]C(C)CNCCc3ccnc(C)c3C[100NH:0][100C:0](=O)N3CCCC(n4nc(-c5ccc(Oc6ccc(F)cc6F)cc5)c(C(N)=O)c4N)C3)ccc2CC1C(=O)NC1CCCc2ccccc21)C(C)(C)C

> <Shape>
0.212

> <Color>
0.064

> <Negative vol penalty>
0.000

$$$$

  -OEChem-04052320103D

 85 93  0     1  0  0  0  0  0999 V2000
  -25.4344  -33.3297   28.3054 C   0  0  0  0  0  0  0  0  0  0  0  0
  -26.2537  -32.7456   27.3446 C   0  0  0  0  0  0  0  0  0  0  0  0
  -26.7167  -13.1073   19.0948 C   0  0  0  0  0  0  0  0  0  0  0  0
  -26.2756  -12.9943   21.4675 C   0  0  0  0  0  0  0  0  0  0  0  0
  -24.1392  -32.8516   28.4994 C   0  0  0  0  0  0  0  0  0  0  0  0
  -25.7784  -31.6823   26.5779 C   0  0  0  0  0  0  0  0  0  0  0  0
  -27.1102  -30.4817   20.7221 C   0  0  0  0  0  0  0  0  0  0  0  0
  -25.5063  -12.4629   18.8391 C   0  0  0  0  0  0  0  0  0  0  0  0
  -25.0652  -12.3500   21.2118 C   0  0  0  0  0  0  0  0  0  0  0  0
  -28.0162  -29.6049   20.1269 C   0  0  0  0  0  0  0  0  0  0  0  0
  -24.0210   -9.2348   20.4141 C   0  0  0  0  0  0  0  0  0  0  0  0
  -23.7037   -8.1201   21.1901 C   0  0  0  0  0  0  0  0  0  0  0  0
  -26.2594  -27.9714   19.8728 C   0  0  0  0  0  0  0  0  0  0  0  0
  -21.7107   -9.2357   21.9778 C   0  0  0  0  0  0  0  0  0  0  0  0
  -27.1014  -13.3729   20.4090 C   0  0  0  0  0  0  0  0  0  0  0  0
  -29.6411  -13.5957   20.3218 C   0  0  0  0  0  0  0  0  0  0  0  0
  -23.6445  -31.7881   27.7280 C   0  0  0  0  0  0  0  0  0  0  0  0
  -25.7722  -30.1050   20.9073 C   0  0  0  0  0  0  0  0  0  0  0  0
  -24.4758  -31.1886   26.7626 C   0  0  0  0  0  0  0  0  0  0  0  0
  -25.3378  -28.8462   20.4683 C   0  0  0  0  0  0  0  0  0  0  0  0
  -24.6805  -12.0843   19.8976 C   0  0  0  0  0  0  0  0  0  0  0  0
  -27.5916  -28.3485   19.7048 C   0  0  0  0  0  0  0  0  0  0  0  0
  -23.1832  -10.3501   20.4200 C   0  0  0  0  0  0  0  0  0  0  0  0
  -22.5485   -8.1205   21.9719 C   0  0  0  0  0  0  0  0  0  0  0  0
  -22.0281  -10.3505   21.2018 C   0  0  0  0  0  0  0  0  0  0  0  0
  -28.3519  -14.0380   20.6738 C   0  0  0  0  0  0  0  0  0  0  0  0
  -30.4808  -14.5745   20.7944 C   0  0  0  0  0  0  0  0  0  0  0  0
  -32.5500  -23.0551   17.7284 C   0  0  0  0  0  0  0  0  0  0  0  0
  -31.1360  -24.2849   19.3899 C   0  0  0  0  0  0  0  0  0  0  0  0
  -30.0437  -12.4065   19.6293 C   0  0  0  0  0  0  0  0  0  0  0  0
  -23.8849  -29.7001   23.4327 C   0  0  0  0  0  0  0  0  0  0  0  0
  -21.6018  -29.2700   21.1689 C   0  0  0  0  0  0  0  0  0  0  0  0
  -20.8321  -28.4102   17.9572 C   0  0  0  0  0  0  0  0  0  0  0  0
  -29.7062  -20.3951   21.9659 C   0  0  0  0  0  0  0  0  0  0  0  0
  -22.2539  -31.2748   28.0063 C   0  0  0  0  0  0  0  0  0  0  0  0
  -24.8012  -31.0725   21.5267 C   0  0  0  0  0  0  0  0  0  0  0  0
  -23.9075  -28.4015   20.6257 C   0  0  0  0  0  0  0  0  0  0  0  0
  -32.8325  -21.8011   16.9329 C   0  0  0  0  0  0  0  0  0  0  0  0
  -21.6975  -30.3894   26.8942 C   0  0  0  0  0  0  0  0  0  0  0  0
  -30.8125  -17.8835   24.2341 C   0  0  0  0  0  0  0  0  0  0  0  0
  -22.7380  -29.3628   26.4581 C   0  0  0  0  0  0  0  0  0  0  0  0
  -30.4237  -16.5732   23.5471 C   0  0  0  0  0  0  0  0  0  0  0  0
  -29.7727  -18.9761   23.9953 C   0  0  0  0  0  0  0  0  0  0  0  0
  -29.0575  -17.9111   21.8911 C   0  0  0  0  0  0  0  0  0  0  0  0
  -32.6134  -20.5715   17.7891 C   0  0  0  0  0  0  0  0  0  0  0  0
  -23.9878  -30.0495   25.8941 C   0  0  1  0  0  0  0  0  0  0  0  0
  -31.2237  -23.0975   18.4768 C   0  0  2  0  0  0  0  0  0  0  0  0
  -23.5797  -30.3879   22.1321 C   0  0  1  0  0  0  0  0  0  0  0  0
  -30.1032  -16.7952   22.0567 C   0  0  2  0  0  0  0  0  0  0  0  0
  -31.0153  -21.8085   19.2827 C   0  0  1  0  0  0  0  0  0  0  0  0
  -18.8773  -28.1154   16.4114 C   0  0  0  0  0  0  0  0  0  0  0  0
  -29.4440  -25.8782   21.3701 C   0  0  0  0  0  0  0  0  0  0  0  0
  -30.6849  -27.9971   18.3325 C   0  0  0  0  0  0  0  0  0  0  0  0
  -20.9271  -26.6242   22.5307 C   0  0  0  0  0  0  0  0  0  0  0  0
  -19.6842  -25.9566   20.4624 C   0  0  0  0  0  0  0  0  0  0  0  0
  -18.9421  -27.9442   21.7745 C   0  0  0  0  0  0  0  0  0  0  0  0
  -21.8233  -30.5051   16.1165 C   0  0  0  0  0  0  0  0  0  0  0  0
  -29.6024  -21.6826   19.8468 C   0  0  0  0  0  0  0  0  0  0  0  0
  -21.0631  -28.0842   20.4056 C   0  0  1  0  0  0  0  0  0  0  0  0
  -19.9414  -29.0741   16.9226 C   0  0  2  0  0  0  0  0  0  0  0  0
  -30.3078  -26.2766   20.1786 C   0  0  2  0  0  0  0  0  0  0  0  0
  -29.8381  -27.5876   19.5318 C   0  0  2  0  0  0  0  0  0  1  0  0
  -20.1816  -27.1596   21.2919 C   0  0  0  0  0  0  0  0  0  0  0  0
  -28.3663  -15.2066   21.3204 N   0  0  0  0  0  0  0  0  0  0  0  0
  -30.2463  -25.1886   19.1934 N   0  0  0  0  0  0  0  0  0  0  0  0
  -29.6749  -15.5070   21.3783 N   0  0  0  0  0  0  0  0  0  0  0  0
  -22.9975  -29.3806   21.2428 N   0  0  0  0  0  0  0  0  0  0  0  0
  -29.5155  -19.1377   22.5623 N   0  0  0  0  0  0  0  0  0  0  0  0
  -31.8226  -14.7198   20.7633 N   0  0  0  0  0  0  0  0  0  0  0  0
  -30.3205  -11.2568   20.3815 N   0  0  0  0  0  0  0  0  0  0  0  0
  -23.7454  -30.5100   24.5437 N   0  0  0  0  0  0  0  0  0  0  0  0
  -20.3748  -28.6277   19.2397 N   0  0  0  0  0  0  0  0  0  0  0  0
  -29.4460  -20.4598   20.6025 N   0  0  0  0  0  0  0  0  0  0  0  0
  -31.2434  -20.6252   18.3794 N   0  3  0  0  0  0  0  0  0  0  0  0
  -20.7527  -29.5380   15.7618 N   0  3  0  0  0  0  0  0  0  0  0  0
  -33.3155  -24.0179   17.6864 O   0  0  0  0  0  0  0  0  0  0  0  0
  -30.1706  -12.3694   18.3819 O   0  0  0  0  0  0  0  0  0  0  0  0
  -24.2205  -28.5216   23.4288 O   0  0  0  0  0  0  0  0  0  0  0  0
  -20.8133  -30.0725   21.6746 O   0  0  0  0  0  0  0  0  0  0  0  0
  -21.8312  -27.7604   17.6574 O   0  0  0  0  0  0  0  0  0  0  0  0
  -30.0857  -21.3852   22.6003 O   0  0  0  0  0  0  0  0  0  0  0  0
  -23.4993  -11.4558   19.6484 O   0  0  0  0  0  0  0  0  0  0  0  0
  -28.4740  -27.4906   19.1242 O   0  0  0  0  0  0  0  0  0  1  0  0
  -22.2431   -7.0493   22.7159 F   0  0  0  0  0  0  0  0  0  0  0  0
  -21.2187  -11.4186   21.2106 F   0  0  0  0  0  0  0  0  0  0  0  0
  1  2  1  0  0  0  0
  1  5  2  0  0  0  0
  2  6  2  0  0  0  0
  3  8  2  0  0  0  0
  3 15  1  0  0  0  0
  4  9  1  0  0  0  0
  4 15  2  0  0  0  0
  5 17  1  0  0  0  0
  6 19  1  0  0  0  0
  7 10  2  0  0  0  0
  7 18  1  0  0  0  0
  8 21  1  0  0  0  0
  9 21  2  0  0  0  0
 10 22  1  0  0  0  0
 11 12  2  0  0  0  0
 11 23  1  0  0  0  0
 12 24  1  0  0  0  0
 13 20  1  0  0  0  0
 13 22  2  0  0  0  0
 14 24  2  0  0  0  0
 14 25  1  0  0  0  0
 15 26  1  0  0  0  0
 16 26  1  0  0  0  0
 16 27  2  0  0  0  0
 16 30  1  0  0  0  0
 17 19  2  0  0  0  0
 17 35  1  0  0  0  0
 18 20  2  0  0  0  0
 18 36  1  0  0  0  0
 19 46  1  0  0  0  0
 20 37  1  0  0  0  0
 21 82  1  0  0  0  0
 22 83  1  0  0  0  0
 23 25  2  0  0  0  0
 23 82  1  0  0  0  0
 24 84  1  0  0  0  0
 25 85  1  0  0  0  0
 26 64  2  0  0  0  0
 27 66  1  0  0  0  0
 27 69  1  0  0  0  0
 28 38  1  0  0  0  0
 28 47  1  0  0  0  0
 28 76  2  0  0  0  0
 29 47  1  0  0  0  0
 29 65  2  0  0  0  0
 30 70  1  0  0  0  0
 30 77  2  0  0  0  0
 31 48  1  0  0  0  0
 31 71  1  0  0  0  0
 31 78  2  0  0  0  0
 32 59  1  0  0  0  0
 32 67  1  0  0  0  0
 32 79  2  0  0  0  0
 33 60  1  0  0  0  0
 33 72  1  0  0  0  0
 33 80  2  0  0  0  0
 34 68  1  0  0  0  0
 34 73  1  0  0  0  0
 34 81  2  0  0  0  0
 35 39  1  0  0  0  0
 36 48  1  0  0  0  0
 37 67  1  0  0  0  0
 38 45  1  0  0  0  0
 39 41  1  0  0  0  0
 40 42  1  0  0  0  0
 40 43  1  0  0  0  0
 41 46  1  0  0  0  0
 42 49  1  0  0  0  0
 43 68  1  0  0  0  0
 44 49  1  0  0  0  0
 44 68  1  0  0  0  0
 45 74  1  0  0  0  0
 46 71  1  0  0  0  0
 47 50  1  0  0  0  0
 48 67  1  0  0  0  0
 49 66  1  0  0  0  0
 50 58  1  0  0  0  0
 50 74  1  0  0  0  0
 51 60  1  0  0  0  0
 52 61  1  0  0  0  0
 53 62  1  0  0  0  0
 54 63  1  0  0  0  0
 55 63  1  0  0  0  0
 56 63  1  0  0  0  0
 57 75  1  0  0  0  0
 58 73  1  0  0  0  0
 59 63  1  0  0  0  0
 59 72  1  0  0  0  0
 60 75  1  0  0  0  0
 61 62  1  0  0  0  0
 61 65  1  0  0  0  0
 62 83  1  0  0  0  0
 64 66  1  0  0  0  0
M  CHG  2  74   1  75   1
M  ISO  4  34 100  62 101  73 100  83 101
M  END
> <Batch ID>
0115

> <Smiles>
CNC(C)C(=O)NC(C(=O)N1Cc2cc([101O:1][101CH:1](C)C(C)NC=C3C(=O)CCNC3C[100NH:0][100C:0](=O)N3CCCC(n4nc(-c5ccc(Oc6ccc(F)cc6F)cc5)c(C(N)=O)c4N)C3)ccc2CC1C(=O)NC1CCCc2ccccc21)C(C)(C)C

> <Shape>
0.318

> <Color>
0.083

> <Negative vol penalty>
0.000

$$$$

  -OEChem-04052320103D

 83 90  0     1  0  0  0  0  0999 V2000
  -22.2030  -23.7771   21.5622 C   0  0  0  0  0  0  0  0  0  0  0  0
  -23.3849  -23.0832   21.8011 C   0  0  0  0  0  0  0  0  0  0  0  0
  -23.6676  -29.2128   21.2556 C   0  0  0  0  0  0  0  0  0  0  0  0
  -25.7328  -30.4220   20.9243 C   0  0  0  0  0  0  0  0  0  0  0  0
  -20.9750  -23.1377   21.7275 C   0  0  0  0  0  0  0  0  0  0  0  0
  -23.3395  -21.7498   22.2066 C   0  0  0  0  0  0  0  0  0  0  0  0
  -26.6702  -18.8509   19.7271 C   0  0  0  0  0  0  0  0  0  0  0  0
  -23.2870  -30.1310   22.2341 C   0  0  0  0  0  0  0  0  0  0  0  0
  -25.3522  -31.3403   21.9027 C   0  0  0  0  0  0  0  0  0  0  0  0
  -28.0020  -18.9215   20.1332 C   0  0  0  0  0  0  0  0  0  0  0  0
  -25.2794  -31.4965   25.2793 C   0  0  0  0  0  0  0  0  0  0  0  0
  -26.2342  -31.8679   26.2260 C   0  0  0  0  0  0  0  0  0  0  0  0
  -27.7211  -16.8811   21.3889 C   0  0  0  0  0  0  0  0  0  0  0  0
  -26.0423  -34.1694   25.5163 C   0  0  0  0  0  0  0  0  0  0  0  0
  -24.8906  -29.3582   20.6007 C   0  0  0  0  0  0  0  0  0  0  0  0
  -25.0218  -28.4805   18.2091 C   0  0  0  0  0  0  0  0  0  0  0  0
  -20.9148  -21.7930   22.1259 C   0  0  0  0  0  0  0  0  0  0  0  0
  -25.8494  -17.7989   20.1584 C   0  0  0  0  0  0  0  0  0  0  0  0
  -22.1096  -21.0923   22.3787 C   0  0  0  0  0  0  0  0  0  0  0  0
  -26.3799  -16.7980   20.9848 C   0  0  0  0  0  0  0  0  0  0  0  0
  -24.1292  -31.1948   22.5577 C   0  0  0  0  0  0  0  0  0  0  0  0
  -28.5269  -17.9381   20.9665 C   0  0  0  0  0  0  0  0  0  0  0  0
  -24.7062  -32.4614   24.4511 C   0  0  0  0  0  0  0  0  0  0  0  0
  -26.6156  -33.2043   26.3445 C   0  0  0  0  0  0  0  0  0  0  0  0
  -25.0877  -33.7979   24.5696 C   0  0  0  0  0  0  0  0  0  0  0  0
  -25.2847  -28.4097   19.5902 C   0  0  0  0  0  0  0  0  0  0  0  0
  -25.6022  -27.3488   17.6906 C   0  0  0  0  0  0  0  0  0  0  0  0
  -24.3161  -29.4800   17.4616 C   0  0  0  0  0  0  0  0  0  0  0  0
  -23.1881  -17.5929   21.8845 C   0  0  0  0  0  0  0  0  0  0  0  0
  -31.8306  -22.6668   23.5916 C   0  0  0  0  0  0  0  0  0  0  0  0
  -23.3511  -14.4633   21.0471 C   0  0  0  0  0  0  0  0  0  0  0  0
  -25.2745  -11.8293   20.0426 C   0  0  0  0  0  0  0  0  0  0  0  0
  -30.1138  -24.0320   19.5613 C   0  0  0  0  0  0  0  0  0  0  0  0
  -19.5631  -21.1583   22.3370 C   0  0  0  0  0  0  0  0  0  0  0  0
  -24.4221  -17.7227   19.6898 C   0  0  0  0  0  0  0  0  0  0  0  0
  -25.5461  -15.6369   21.4593 C   0  0  0  0  0  0  0  0  0  0  0  0
  -19.6101  -19.6341   22.4069 C   0  0  0  0  0  0  0  0  0  0  0  0
  -26.7610  -22.8575   18.8709 C   0  0  0  0  0  0  0  0  0  0  0  0
  -20.7388  -19.1763   23.3252 C   0  0  0  0  0  0  0  0  0  0  0  0
  -25.9775  -24.1712   18.8470 C   0  0  0  0  0  0  0  0  0  0  0  0
  -27.8494  -22.8824   19.9400 C   0  0  0  0  0  0  0  0  0  0  0  0
  -28.0203  -25.3370   19.7997 C   0  0  0  0  0  0  0  0  0  0  0  0
  -22.1021  -19.6376   22.7958 C   0  0  1  0  0  0  0  0  0  0  0  0
  -23.5364  -16.8842   20.6062 C   0  0  1  0  0  0  0  0  0  0  0  0
  -26.9196  -25.3834   18.7243 C   0  0  2  0  0  0  0  0  0  0  0  0
  -25.1317   -9.3888   19.4761 C   0  0  0  0  0  0  0  0  0  0  0  0
  -34.3524  -19.9344   21.5393 C   0  0  0  0  0  0  0  0  0  0  0  0
  -23.1557  -13.7879   24.0163 C   0  0  0  0  0  0  0  0  0  0  0  0
  -23.9618  -11.4807   23.4732 C   0  0  0  0  0  0  0  0  0  0  0  0
  -21.8097  -12.3050   22.5184 C   0  0  0  0  0  0  0  0  0  0  0  0
  -26.2115  -12.2981   17.2747 C   0  0  0  0  0  0  0  0  0  0  0  0
  -32.4074  -23.4619   24.7386 C   0  0  0  0  0  0  0  0  0  0  0  0
  -32.7666  -21.6642   22.9595 C   0  0  0  0  0  0  0  0  0  0  0  0
  -32.0050  -19.0048   21.4615 C   0  0  0  0  0  0  0  0  0  0  0  0
  -32.1243  -22.5942   19.3424 C   0  0  0  0  0  0  0  0  0  0  0  0
  -32.8901  -22.5925   20.6522 C   0  0  0  0  0  0  0  0  0  0  0  0
  -30.5949  -19.1102   20.8913 C   0  0  0  0  0  0  0  0  0  1  0  0
  -23.9915  -13.2305   21.6379 C   0  0  1  0  0  0  0  0  0  0  0  0
  -25.0859  -10.8091   18.9344 C   0  0  2  0  0  0  0  0  0  0  0  0
  -32.9388  -20.1282   21.0069 C   0  0  1  0  0  0  0  0  0  0  0  0
  -23.2451  -12.7238   22.9042 C   0  0  0  0  0  0  0  0  0  0  0  0
  -25.9780  -27.3191   19.9279 N   0  0  0  0  0  0  0  0  0  0  0  0
  -26.1556  -26.6942   18.7515 N   0  0  0  0  0  0  0  0  0  0  0  0
  -24.1546  -15.6102   20.9790 N   0  0  0  0  0  0  0  0  0  0  0  0
  -28.7227  -24.0501   19.7555 N   0  0  0  0  0  0  0  0  0  0  0  0
  -25.6880  -26.8597   16.4353 N   0  0  0  0  0  0  0  0  0  0  0  0
  -23.7831  -30.5777   18.1509 N   0  0  0  0  0  0  0  0  0  0  0  0
  -22.5306  -18.7943   21.7005 N   0  0  0  0  0  0  0  0  0  0  0  0
  -24.0677  -12.2526   20.5579 N   0  0  0  0  0  0  0  0  0  0  0  0
  -30.7030  -22.7738   19.5391 N   0  0  0  0  0  0  0  0  0  0  0  0
  -31.4063  -24.3925   25.3134 N   0  3  0  0  0  0  0  0  0  0  0  0
  -26.1564  -10.9554   17.9080 N   0  3  0  0  0  0  0  0  0  0  0  0
  -32.4355  -21.4378   21.5071 N   0  3  1  0  0  0  0  0  0  0  0  0
  -24.1485  -29.3936   16.2214 O   0  0  0  0  0  0  0  0  0  0  0  0
  -23.4921  -17.0866   22.9582 O   0  0  0  0  0  0  0  0  0  0  0  0
  -30.6759  -22.8253   23.1982 O   0  0  0  0  0  0  0  0  0  0  0  0
  -22.1832  -14.4086   20.6539 O   0  0  0  0  0  0  0  0  0  0  0  0
  -26.3818  -12.2096   20.4165 O   0  0  0  0  0  0  0  0  0  0  0  0
  -30.7814  -25.0613   19.4130 O   0  0  0  0  0  0  0  0  0  0  0  0
  -23.7580  -32.0912   23.5123 O   0  0  0  0  0  0  0  0  0  0  0  0
  -29.8264  -18.0050   21.3649 O   0  0  0  0  0  0  0  0  0  1  0  0
  -27.5313  -33.5611   27.2547 F   0  0  0  0  0  0  0  0  0  0  0  0
  -24.5396  -34.7296   23.7776 F   0  0  0  0  0  0  0  0  0  0  0  0
  1  2  1  0  0  0  0
  1  5  2  0  0  0  0
  2  6  2  0  0  0  0
  3  8  2  0  0  0  0
  3 15  1  0  0  0  0
  4  9  1  0  0  0  0
  4 15  2  0  0  0  0
  5 17  1  0  0  0  0
  6 19  1  0  0  0  0
  7 10  2  0  0  0  0
  7 18  1  0  0  0  0
  8 21  1  0  0  0  0
  9 21  2  0  0  0  0
 10 22  1  0  0  0  0
 11 12  2  0  0  0  0
 11 23  1  0  0  0  0
 12 24  1  0  0  0  0
 13 20  1  0  0  0  0
 13 22  2  0  0  0  0
 14 24  2  0  0  0  0
 14 25  1  0  0  0  0
 15 26  1  0  0  0  0
 16 26  1  0  0  0  0
 16 27  2  0  0  0  0
 16 28  1  0  0  0  0
 17 19  2  0  0  0  0
 17 34  1  0  0  0  0
 18 20  2  0  0  0  0
 18 35  1  0  0  0  0
 19 43  1  0  0  0  0
 20 36  1  0  0  0  0
 21 80  1  0  0  0  0
 22 81  1  0  0  0  0
 23 25  2  0  0  0  0
 23 80  1  0  0  0  0
 24 82  1  0  0  0  0
 25 83  1  0  0  0  0
 26 62  2  0  0  0  0
 27 63  1  0  0  0  0
 27 66  1  0  0  0  0
 28 67  1  0  0  0  0
 28 74  2  0  0  0  0
 29 44  1  0  0  0  0
 29 68  1  0  0  0  0
 29 75  2  0  0  0  0
 30 52  1  0  0  0  0
 30 53  1  0  0  0  0
 30 76  2  0  0  0  0
 31 58  1  0  0  0  0
 31 64  1  0  0  0  0
 31 77  2  0  0  0  0
 32 59  1  0  0  0  0
 32 69  1  0  0  0  0
 32 78  2  0  0  0  0
 33 65  1  0  0  0  0
 33 70  1  0  0  0  0
 33 79  2  0  0  0  0
 34 37  1  0  0  0  0
 35 44  1  0  0  0  0
 36 64  1  0  0  0  0
 37 39  1  0  0  0  0
 38 40  1  0  0  0  0
 38 41  1  0  0  0  0
 39 43  1  0  0  0  0
 40 45  1  0  0  0  0
 41 65  1  0  0  0  0
 42 45  1  0  0  0  0
 42 65  1  0  0  0  0
 43 68  1  0  0  0  0
 44 64  1  0  0  0  0
 45 63  1  0  0  0  0
 46 59  1  0  0  0  0
 47 60  1  0  0  0  0
 48 61  1  0  0  0  0
 49 61  1  0  0  0  0
 50 61  1  0  0  0  0
 51 72  1  0  0  0  0
 52 71  1  0  0  0  0
 53 73  1  0  0  0  0
 54 57  1  0  0  0  0
 54 60  1  0  0  0  0
 55 56  1  0  0  0  0
 55 70  1  0  0  0  0
 56 73  1  0  0  0  0
 57 81  1  0  0  0  0
 58 61  1  0  0  0  0
 58 69  1  0  0  0  0
 59 72  1  0  0  0  0
 60 73  1  0  0  0  0
 62 63  1  0  0  0  0
M  CHG  3  71   1  72   1  73   1
M  ISO  4  33 100  57 101  70 100  81 101
M  END
> <Batch ID>
0115

> <Smiles>
CNC(C)C(=O)NC(C(=O)N1Cc2cc([101O:1][101CH2:1]CC(C)N(CC[100NH:0][100C:0](=O)N3CCCC(n4nc(-c5ccc(Oc6ccc(F)cc6F)cc5)c(C(N)=O)c4N)C3)CC(=O)CN)ccc2CC1C(=O)NC1CCCc2ccccc21)C(C)(C)C

> <Shape>
0.212

> <Color>
0.078

> <Negative vol penalty>
0.000

$$$$

  -OEChem-04052320103D

 82 90  0     1  0  0  0  0  0999 V2000
  -27.1972  -10.3327   20.7467 C   0  0  0  0  0  0  0  0  0  0  0  0
  -27.9435  -11.3685   20.1939 C   0  0  0  0  0  0  0  0  0  0  0  0
  -22.8176  -29.5542   21.4790 C   0  0  0  0  0  0  0  0  0  0  0  0
  -23.8036  -27.9704   23.0141 C   0  0  0  0  0  0  0  0  0  0  0  0
  -25.8336  -10.5053   20.9806 C   0  0  0  0  0  0  0  0  0  0  0  0
  -27.3264  -12.5772   19.8737 C   0  0  0  0  0  0  0  0  0  0  0  0
  -30.0302  -16.5928   21.3602 C   0  0  0  0  0  0  0  0  0  0  0  0
  -21.7492  -29.7394   22.3563 C   0  0  0  0  0  0  0  0  0  0  0  0
  -22.7352  -28.1557   23.8914 C   0  0  0  0  0  0  0  0  0  0  0  0
  -31.1237  -16.9508   20.5729 C   0  0  0  0  0  0  0  0  0  0  0  0
  -18.5811  -30.3587   24.0306 C   0  0  0  0  0  0  0  0  0  0  0  0
  -17.2937  -30.3694   23.4939 C   0  0  0  0  0  0  0  0  0  0  0  0
  -29.8043  -18.6862   19.5401 C   0  0  0  0  0  0  0  0  0  0  0  0
  -17.6200  -28.1232   22.6662 C   0  0  0  0  0  0  0  0  0  0  0  0
  -31.7774  -21.8787   19.4372 C   0  0  0  0  0  0  0  0  0  0  0  0
  -30.3796  -21.8690   17.6876 C   0  0  0  0  0  0  0  0  0  0  0  0
  -23.8449  -28.6697   21.8078 C   0  0  0  0  0  0  0  0  0  0  0  0
  -26.1573  -29.1983   20.8694 C   0  0  0  0  0  0  0  0  0  0  0  0
  -25.2014  -11.7201   20.6720 C   0  0  0  0  0  0  0  0  0  0  0  0
  -28.8102  -17.2728   21.2353 C   0  0  0  0  0  0  0  0  0  0  0  0
  -25.9527  -12.7657   20.1025 C   0  0  0  0  0  0  0  0  0  0  0  0
  -28.6975  -18.3365   20.3288 C   0  0  0  0  0  0  0  0  0  0  0  0
  -30.7684  -22.7752   19.7119 C   0  0  0  0  0  0  0  0  0  0  0  0
  -29.8841  -22.7692   18.6050 C   0  0  0  0  0  0  0  0  0  0  0  0
  -21.7080  -29.0402   23.5625 C   0  0  0  0  0  0  0  0  0  0  0  0
  -31.0100  -17.9958   19.6607 C   0  0  0  0  0  0  0  0  0  0  0  0
  -19.3880  -29.2302   23.8850 C   0  0  0  0  0  0  0  0  0  0  0  0
  -16.8131  -29.2517   22.8117 C   0  0  0  0  0  0  0  0  0  0  0  0
  -18.9075  -28.1125   23.2028 C   0  0  0  0  0  0  0  0  0  0  0  0
  -24.9485  -28.4775   20.9017 C   0  0  0  0  0  0  0  0  0  0  0  0
  -26.8651  -28.6356   19.8355 C   0  0  0  0  0  0  0  0  0  0  0  0
  -26.6007  -30.2798   21.6997 C   0  0  0  0  0  0  0  0  0  0  0  0
  -25.8587  -16.4482   20.3911 C   0  0  0  0  0  0  0  0  0  0  0  0
  -25.1753  -19.4964   21.2652 C   0  0  0  0  0  0  0  0  0  0  0  0
  -26.2819  -22.6875   21.7542 C   0  0  0  0  0  0  0  0  0  0  0  0
  -27.8376  -23.5178   17.3410 C   0  0  0  0  0  0  0  0  0  0  0  0
  -23.7155  -11.8432   20.8990 C   0  0  0  0  0  0  0  0  0  0  0  0
  -27.6480  -16.8918   22.1109 C   0  0  0  0  0  0  0  0  0  0  0  0
  -27.4158  -19.1116   20.1710 C   0  0  0  0  0  0  0  0  0  0  0  0
  -23.2137  -13.2848   20.8788 C   0  0  0  0  0  0  0  0  0  0  0  0
  -25.6781  -25.9330   15.8643 C   0  0  0  0  0  0  0  0  0  0  0  0
  -23.7943  -14.0355   19.6846 C   0  0  0  0  0  0  0  0  0  0  0  0
  -25.3871  -26.9068   17.0084 C   0  0  0  0  0  0  0  0  0  0  0  0
  -25.7731  -24.4903   16.3577 C   0  0  0  0  0  0  0  0  0  0  0  0
  -26.4198  -25.2478   18.6110 C   0  0  0  0  0  0  0  0  0  0  0  0
  -25.3243  -14.1003   19.7646 C   0  0  1  0  0  0  0  0  0  0  0  0
  -26.3010  -17.3170   21.5344 C   0  0  1  0  0  0  0  0  0  0  0  0
  -26.3796  -26.7209   18.1729 C   0  0  2  0  0  0  0  0  0  0  0  0
  -31.8216  -24.5721   21.1316 C   0  0  0  0  0  0  0  0  0  0  0  0
  -30.4818  -22.7325   22.2159 C   0  0  0  0  0  0  0  0  0  0  0  0
  -26.2040  -25.0989   22.4444 C   0  0  0  0  0  0  0  0  0  0  0  0
  -32.3995  -17.9785   16.5463 C   0  0  0  0  0  0  0  0  0  0  0  0
  -23.8983  -19.8651   18.5187 C   0  0  0  0  0  0  0  0  0  0  0  0
  -23.9847  -22.3398   18.8878 C   0  0  0  0  0  0  0  0  0  0  0  0
  -22.6276  -20.9005   20.4075 C   0  0  0  0  0  0  0  0  0  0  0  0
  -27.0988  -22.0412   24.5244 C   0  0  0  0  0  0  0  0  0  0  0  0
  -32.3951  -20.3014   17.5196 C   0  0  0  0  0  0  0  0  0  0  0  0
  -30.6447  -23.5882   20.9385 C   0  0  0  0  0  0  0  0  0  0  0  0
  -25.1503  -20.8308   20.5598 C   0  0  1  0  0  0  0  0  0  0  0  0
  -26.0884  -23.6550   22.9078 C   0  0  2  0  0  0  0  0  0  0  0  0
  -31.7943  -18.8941   17.6030 C   0  0  2  0  0  0  0  0  0  1  0  0
  -23.9389  -20.9684   19.5948 C   0  0  0  0  0  0  0  0  0  0  0  0
  -24.8883  -27.5293   19.9629 N   0  0  0  0  0  0  0  0  0  0  0  0
  -31.5305  -21.3336   18.2042 N   0  0  0  0  0  0  0  0  0  0  0  0
  -26.0681  -27.6505   19.3309 N   0  0  0  0  0  0  0  0  0  0  0  0
  -26.3060  -18.6971   21.0450 N   0  0  0  0  0  0  0  0  0  0  0  0
  -26.7348  -24.3901   17.4577 N   0  0  0  0  0  0  0  0  0  0  0  0
  -28.0851  -28.8924   19.3179 N   0  0  0  0  0  0  0  0  0  0  0  0
  -25.7490  -30.7351   22.7153 N   0  0  0  0  0  0  0  0  0  0  0  0
  -28.7017  -23.5313   18.4355 N   0  0  0  0  0  0  0  0  0  0  0  0
  -25.7384  -15.1103   20.7148 N   0  0  0  0  0  0  0  0  0  0  0  0
  -25.1993  -21.8465   21.6059 N   0  0  0  0  0  0  0  0  0  0  0  0
  -27.1144  -23.4161   23.9619 N   0  3  0  0  0  0  0  0  0  0  0  0
  -27.7124  -30.8372   21.5350 O   0  0  0  0  0  0  0  0  0  0  0  0
  -25.6412  -16.9546   19.2965 O   0  0  0  0  0  0  0  0  0  0  0  0
  -24.2298  -19.1780   21.9907 O   0  0  0  0  0  0  0  0  0  0  0  0
  -27.2908  -22.6810   21.0523 O   0  0  0  0  0  0  0  0  0  0  0  0
  -28.0180  -22.8312   16.3321 O   0  0  0  0  0  0  0  0  0  0  0  0
  -20.6657  -29.2208   24.4190 O   0  0  0  0  0  0  0  0  0  0  0  0
  -32.0756  -18.3470   18.8906 O   0  0  0  0  0  0  0  0  0  1  0  0
  -15.5762  -29.2616   22.2978 F   0  0  0  0  0  0  0  0  0  0  0  0
  -19.6776  -27.0251   23.0607 F   0  0  0  0  0  0  0  0  0  0  0  0
  1  2  1  0  0  0  0
  1  5  2  0  0  0  0
  2  6  2  0  0  0  0
  3  8  2  0  0  0  0
  3 17  1  0  0  0  0
  4  9  1  0  0  0  0
  4 17  2  0  0  0  0
  5 19  1  0  0  0  0
  6 21  1  0  0  0  0
  7 10  2  0  0  0  0
  7 20  1  0  0  0  0
  8 25  1  0  0  0  0
  9 25  2  0  0  0  0
 10 26  1  0  0  0  0
 11 12  2  0  0  0  0
 11 27  1  0  0  0  0
 12 28  1  0  0  0  0
 13 22  1  0  0  0  0
 13 26  2  0  0  0  0
 14 28  2  0  0  0  0
 14 29  1  0  0  0  0
 15 23  2  0  0  0  0
 15 64  1  0  0  0  0
 16 24  2  0  0  0  0
 16 64  1  0  0  0  0
 17 30  1  0  0  0  0
 18 30  1  0  0  0  0
 18 31  2  0  0  0  0
 18 32  1  0  0  0  0
 19 21  2  0  0  0  0
 19 37  1  0  0  0  0
 20 22  2  0  0  0  0
 20 38  1  0  0  0  0
 21 46  1  0  0  0  0
 22 39  1  0  0  0  0
 23 24  1  0  0  0  0
 23 58  1  0  0  0  0
 24 70  1  0  0  0  0
 25 79  1  0  0  0  0
 26 80  1  0  0  0  0
 27 29  2  0  0  0  0
 27 79  1  0  0  0  0
 28 81  1  0  0  0  0
 29 82  1  0  0  0  0
 30 63  2  0  0  0  0
 31 65  1  0  0  0  0
 31 68  1  0  0  0  0
 32 69  1  0  0  0  0
 32 74  2  0  0  0  0
 33 47  1  0  0  0  0
 33 71  1  0  0  0  0
 33 75  2  0  0  0  0
 34 59  1  0  0  0  0
 34 66  1  0  0  0  0
 34 76  2  0  0  0  0
 35 60  1  0  0  0  0
 35 72  1  0  0  0  0
 35 77  2  0  0  0  0
 36 67  1  0  0  0  0
 36 70  1  0  0  0  0
 36 78  2  0  0  0  0
 37 40  1  0  0  0  0
 38 47  1  0  0  0  0
 39 66  1  0  0  0  0
 40 42  1  0  0  0  0
 41 43  1  0  0  0  0
 41 44  1  0  0  0  0
 42 46  1  0  0  0  0
 43 48  1  0  0  0  0
 44 67  1  0  0  0  0
 45 48  1  0  0  0  0
 45 67  1  0  0  0  0
 46 71  1  0  0  0  0
 47 66  1  0  0  0  0
 48 65  1  0  0  0  0
 49 58  1  0  0  0  0
 50 58  1  0  0  0  0
 51 60  1  0  0  0  0
 52 61  1  0  0  0  0
 53 62  1  0  0  0  0
 54 62  1  0  0  0  0
 55 62  1  0  0  0  0
 56 73  1  0  0  0  0
 57 61  1  0  0  0  0
 57 64  1  0  0  0  0
 59 62  1  0  0  0  0
 59 72  1  0  0  0  0
 60 73  1  0  0  0  0
 61 80  1  0  0  0  0
 63 65  1  0  0  0  0
M  CHG  1  73   1
M  ISO  4  36 100  61 101  70 100  80 101
M  END
> <Batch ID>
0115

> <Smiles>
CNC(C)C(=O)NC(C(=O)N1Cc2cc([101O:1][101CH:1](C)Cn3cc([100NH:0][100C:0](=O)N4CCCC(n5nc(-c6ccc(Oc7ccc(F)cc7F)cc6)c(C(N)=O)c5N)C4)c(C(C)C)c3)ccc2CC1C(=O)NC1CCCc2ccccc21)C(C)(C)C

> <Shape>
0.253

> <Color>
0.062

> <Negative vol penalty>
0.000

$$$$

  -OEChem-04052320103D

 89 97  0     1  0  0  0  0  0999 V2000
  -39.6349  -27.3375   19.8491 C   0  0  0  0  0  0  0  0  0  0  0  0
  -38.9383  -26.1340   19.8053 C   0  0  0  0  0  0  0  0  0  0  0  0
  -23.0503   -9.9000   19.9373 C   0  0  0  0  0  0  0  0  0  0  0  0
  -23.8143   -9.8821   22.2292 C   0  0  0  0  0  0  0  0  0  0  0  0
  -39.0471  -28.4612   20.4285 C   0  0  0  0  0  0  0  0  0  0  0  0
  -37.6539  -26.0533   20.3420 C   0  0  0  0  0  0  0  0  0  0  0  0
  -34.4364  -23.5754   17.3166 C   0  0  0  0  0  0  0  0  0  0  0  0
  -22.2867   -8.7589   20.1829 C   0  0  0  0  0  0  0  0  0  0  0  0
  -23.0506   -8.7409   22.4749 C   0  0  0  0  0  0  0  0  0  0  0  0
  -34.5131  -22.1833   17.3094 C   0  0  0  0  0  0  0  0  0  0  0  0
  -21.0202   -6.0325   23.8015 C   0  0  0  0  0  0  0  0  0  0  0  0
  -20.2654   -5.9964   24.9739 C   0  0  0  0  0  0  0  0  0  0  0  0
  -32.6167  -22.0772   18.7965 C   0  0  0  0  0  0  0  0  0  0  0  0
  -27.1656  -18.4194   20.0849 C   0  0  0  0  0  0  0  0  0  0  0  0
  -19.0538   -7.9589   24.2543 C   0  0  0  0  0  0  0  0  0  0  0  0
  -28.5373  -18.9910   21.7765 C   0  0  0  0  0  0  0  0  0  0  0  0
  -23.8142  -10.4616   20.9605 C   0  0  0  0  0  0  0  0  0  0  0  0
  -24.2002  -12.9809   20.8524 C   0  0  0  0  0  0  0  0  0  0  0  0
  -37.7510  -28.3966   20.9640 C   0  0  0  0  0  0  0  0  0  0  0  0
  -33.4544  -24.2302   18.0737 C   0  0  0  0  0  0  0  0  0  0  0  0
  -37.0487  -27.1768   20.9304 C   0  0  0  0  0  0  0  0  0  0  0  0
  -32.5280  -23.4775   18.8095 C   0  0  0  0  0  0  0  0  0  0  0  0
  -27.2406  -19.1002   21.3251 C   0  0  0  0  0  0  0  0  0  0  0  0
  -22.2868   -8.1794   21.4516 C   0  0  0  0  0  0  0  0  0  0  0  0
  -33.6050  -21.4341   18.0517 C   0  0  0  0  0  0  0  0  0  0  0  0
  -20.7919   -7.0319   22.8555 C   0  0  0  0  0  0  0  0  0  0  0  0
  -19.2822   -6.9595   25.2003 C   0  0  0  0  0  0  0  0  0  0  0  0
  -19.8087   -7.9951   23.0819 C   0  0  0  0  0  0  0  0  0  0  0  0
  -24.6036  -11.6400   20.7072 C   0  0  0  0  0  0  0  0  0  0  0  0
  -28.4188  -17.9147   19.8163 C   0  0  0  0  0  0  0  0  0  0  0  0
  -25.3047  -13.7129   20.4909 C   0  0  0  0  0  0  0  0  0  0  0  0
  -22.9397  -13.5169   21.2763 C   0  0  0  0  0  0  0  0  0  0  0  0
  -33.4909  -26.2727   20.5090 C   0  0  0  0  0  0  0  0  0  0  0  0
  -29.4307  -17.9702   17.5018 C   0  0  0  0  0  0  0  0  0  0  0  0
  -30.2899  -26.3462   19.9885 C   0  0  0  0  0  0  0  0  0  0  0  0
  -27.5200  -24.7864   18.7471 C   0  0  0  0  0  0  0  0  0  0  0  0
  -30.8059  -14.6343   20.6741 C   0  0  0  0  0  0  0  0  0  0  0  0
  -37.1756  -29.6255   21.6224 C   0  0  0  0  0  0  0  0  0  0  0  0
  -33.3683  -25.7317   18.0497 C   0  0  0  0  0  0  0  0  0  0  0  0
  -31.4422  -24.1317   19.6228 C   0  0  0  0  0  0  0  0  0  0  0  0
  -35.6653  -29.5531   21.8328 C   0  0  0  0  0  0  0  0  0  0  0  0
  -29.6222  -12.2822   18.2775 C   0  0  0  0  0  0  0  0  0  0  0  0
  -35.2731  -28.2038   22.4264 C   0  0  0  0  0  0  0  0  0  0  0  0
  -28.1806  -12.0116   18.7117 C   0  0  0  0  0  0  0  0  0  0  0  0
  -30.5452  -12.4808   19.4778 C   0  0  0  0  0  0  0  0  0  0  0  0
  -28.6591  -13.2382   20.8716 C   0  0  0  0  0  0  0  0  0  0  0  0
  -35.6438  -27.0559   21.4798 C   0  0  1  0  0  0  0  0  0  0  0  0
  -32.6489  -26.3085   19.2650 C   0  0  1  0  0  0  0  0  0  0  0  0
  -27.6799  -13.0867   19.6949 C   0  0  2  0  0  0  0  0  0  0  0  0
  -24.9727  -18.8547   22.3974 C   0  0  0  0  0  0  0  0  0  0  0  0
  -25.5729  -20.9857   21.1918 C   0  0  0  0  0  0  0  0  0  0  0  0
  -25.0395  -25.0767   18.5016 C   0  0  0  0  0  0  0  0  0  0  0  0
  -29.9207  -25.6657   22.9398 C   0  0  0  0  0  0  0  0  0  0  0  0
  -27.5507  -25.0420   22.4277 C   0  0  0  0  0  0  0  0  0  0  0  0
  -28.3303  -27.3826   22.0582 C   0  0  0  0  0  0  0  0  0  0  0  0
  -27.6849  -24.6980   15.7934 C   0  0  0  0  0  0  0  0  0  0  0  0
  -28.9050  -17.1116   18.6385 C   0  0  0  0  0  0  0  0  0  0  0  0
  -29.9817  -17.2339   16.2945 C   0  0  0  0  0  0  0  0  0  0  0  0
  -30.6481  -17.9383   20.9665 C   0  0  0  0  0  0  0  0  0  0  0  0
  -30.9118  -16.7771   21.9216 C   0  0  0  0  0  0  0  0  0  0  0  0
  -31.4765  -17.0037   16.4289 C   0  0  0  0  0  0  0  0  0  0  0  0
  -34.1843  -19.4561   16.8651 C   0  0  0  0  0  0  0  0  0  1  0  0
  -33.5408  -18.0922   16.7059 C   0  0  0  0  0  0  0  0  0  0  0  0
  -26.1347  -19.7982   22.0081 C   0  0  0  0  0  0  0  0  0  0  0  0
  -29.1065  -25.5559   20.4922 C   0  0  1  0  0  0  0  0  0  0  0  0
  -26.3991  -25.2848   17.8528 C   0  0  2  0  0  0  0  0  0  0  0  0
  -28.7486  -25.8990   21.9658 C   0  0  0  0  0  0  0  0  0  0  0  0
  -25.8659  -11.5240   20.2861 N   0  0  0  0  0  0  0  0  0  0  0  0
  -29.2444  -18.2681   20.8515 N   0  0  0  0  0  0  0  0  0  0  0  0
  -26.2651  -12.8014   20.1635 N   0  0  0  0  0  0  0  0  0  0  0  0
  -31.4032  -25.6026   19.5721 N   0  0  0  0  0  0  0  0  0  0  0  0
  -30.0144  -13.5144   20.3699 N   0  0  0  0  0  0  0  0  0  0  0  0
  -25.5384  -15.0408   20.4241 N   0  0  0  0  0  0  0  0  0  0  0  0
  -21.9126  -12.6240   21.6109 N   0  0  0  0  0  0  0  0  0  0  0  0
  -34.6843  -26.9608   20.4005 N   0  0  0  0  0  0  0  0  0  0  0  0
  -28.0237  -25.7929   19.5436 N   0  0  0  0  0  0  0  0  0  0  0  0
  -30.2247  -15.5692   21.5219 N   0  0  0  0  0  0  0  0  0  0  0  0
  -26.4142  -24.5601   16.5506 N   0  3  0  0  0  0  0  0  0  0  0  0
  -22.7253  -14.7512   21.3402 O   0  0  0  0  0  0  0  0  0  0  0  0
  -33.0870  -25.6670   21.4947 O   0  0  0  0  0  0  0  0  0  0  0  0
  -29.4072  -19.2009   17.5279 O   0  0  0  0  0  0  0  0  0  0  0  0
  -30.2262  -27.5778   19.9586 O   0  0  0  0  0  0  0  0  0  0  0  0
  -27.9072  -23.6200   18.7423 O   0  0  0  0  0  0  0  0  0  0  0  0
  -31.9439  -14.7920   20.2192 O   0  0  0  0  0  0  0  0  0  0  0  0
  -21.5416   -7.0660   21.6917 O   0  0  0  0  0  0  0  0  0  0  0  0
  -33.6780  -20.0752   18.0469 O   0  0  0  0  0  0  0  0  0  1  0  0
  -32.1336  -18.2548   16.5759 O   0  0  0  0  0  0  0  0  0  0  0  0
  -18.5563   -6.9238   26.3255 F   0  0  0  0  0  0  0  0  0  0  0  0
  -19.5840   -8.9569   22.1763 F   0  0  0  0  0  0  0  0  0  0  0  0
  1  2  1  0  0  0  0
  1  5  2  0  0  0  0
  2  6  2  0  0  0  0
  3  8  2  0  0  0  0
  3 17  1  0  0  0  0
  4  9  1  0  0  0  0
  4 17  2  0  0  0  0
  5 19  1  0  0  0  0
  6 21  1  0  0  0  0
  7 10  2  0  0  0  0
  7 20  1  0  0  0  0
  8 24  1  0  0  0  0
  9 24  2  0  0  0  0
 10 25  1  0  0  0  0
 11 12  2  0  0  0  0
 11 26  1  0  0  0  0
 12 27  1  0  0  0  0
 13 22  1  0  0  0  0
 13 25  2  0  0  0  0
 14 23  1  0  0  0  0
 14 30  2  0  0  0  0
 15 27  2  0  0  0  0
 15 28  1  0  0  0  0
 16 23  2  0  0  0  0
 16 69  1  0  0  0  0
 17 29  1  0  0  0  0
 18 29  1  0  0  0  0
 18 31  2  0  0  0  0
 18 32  1  0  0  0  0
 19 21  2  0  0  0  0
 19 38  1  0  0  0  0
 20 22  2  0  0  0  0
 20 39  1  0  0  0  0
 21 47  1  0  0  0  0
 22 40  1  0  0  0  0
 23 64  1  0  0  0  0
 24 85  1  0  0  0  0
 25 86  1  0  0  0  0
 26 28  2  0  0  0  0
 26 85  1  0  0  0  0
 27 88  1  0  0  0  0
 28 89  1  0  0  0  0
 29 68  2  0  0  0  0
 30 57  1  0  0  0  0
 30 69  1  0  0  0  0
 31 70  1  0  0  0  0
 31 73  1  0  0  0  0
 32 74  1  0  0  0  0
 32 79  2  0  0  0  0
 33 48  1  0  0  0  0
 33 75  1  0  0  0  0
 33 80  2  0  0  0  0
 34 57  1  0  0  0  0
 34 58  1  0  0  0  0
 34 81  2  0  0  0  0
 35 65  1  0  0  0  0
 35 71  1  0  0  0  0
 35 82  2  0  0  0  0
 36 66  1  0  0  0  0
 36 76  1  0  0  0  0
 36 83  2  0  0  0  0
 37 72  1  0  0  0  0
 37 77  1  0  0  0  0
 37 84  2  0  0  0  0
 38 41  1  0  0  0  0
 39 48  1  0  0  0  0
 40 71  1  0  0  0  0
 41 43  1  0  0  0  0
 42 44  1  0  0  0  0
 42 45  1  0  0  0  0
 43 47  1  0  0  0  0
 44 49  1  0  0  0  0
 45 72  1  0  0  0  0
 46 49  1  0  0  0  0
 46 72  1  0  0  0  0
 47 75  1  0  0  0  0
 48 71  1  0  0  0  0
 49 70  1  0  0  0  0
 50 64  1  0  0  0  0
 51 64  1  0  0  0  0
 52 66  1  0  0  0  0
 53 67  1  0  0  0  0
 54 67  1  0  0  0  0
 55 67  1  0  0  0  0
 56 78  1  0  0  0  0
 58 61  1  0  0  0  0
 59 60  1  0  0  0  0
 59 69  1  0  0  0  0
 60 77  1  0  0  0  0
 61 87  1  0  0  0  0
 62 63  1  0  0  0  0
 62 86  1  0  0  0  0
 63 87  1  0  0  0  0
 65 67  1  0  0  0  0
 65 76  1  0  0  0  0
 66 78  1  0  0  0  0
 68 70  1  0  0  0  0
M  CHG  1  78   1
M  ISO  4  37 100  62 101  77 100  86 101
M  END
> <Batch ID>
0115

> <Smiles>
CNC(C)C(=O)NC(C(=O)N1Cc2cc([101O:1][101CH2:1]COCCC(=O)Cc3cc(C(C)C)cn3CC[100NH:0][100C:0](=O)N3CCCC(n4nc(-c5ccc(Oc6ccc(F)cc6F)cc5)c(C(N)=O)c4N)C3)ccc2CC1C(=O)NC1CCCc2ccccc21)C(C)(C)C

> <Shape>
0.241

> <Color>
0.192

> <Negative vol penalty>
0.000

$$$$

  -OEChem-04052320103D

 83 90  0     1  0  0  0  0  0999 V2000
  -27.1602  -32.7203   24.8110 C   0  0  0  0  0  0  0  0  0  0  0  0
  -26.8920  -31.3710   25.0180 C   0  0  0  0  0  0  0  0  0  0  0  0
  -23.0691   -9.8799   19.9278 C   0  0  0  0  0  0  0  0  0  0  0  0
  -23.8432   -9.8571   22.2163 C   0  0  0  0  0  0  0  0  0  0  0  0
  -27.1419  -33.2431   23.5186 C   0  0  0  0  0  0  0  0  0  0  0  0
  -26.6043  -30.5439   23.9329 C   0  0  0  0  0  0  0  0  0  0  0  0
  -28.1243  -24.6458   23.2945 C   0  0  0  0  0  0  0  0  0  0  0  0
  -22.3262   -8.7240   20.1675 C   0  0  0  0  0  0  0  0  0  0  0  0
  -23.1002   -8.7012   22.4561 C   0  0  0  0  0  0  0  0  0  0  0  0
  -27.4109  -23.4657   23.5002 C   0  0  0  0  0  0  0  0  0  0  0  0
  -19.8755   -7.8971   23.0683 C   0  0  0  0  0  0  0  0  0  0  0  0
  -19.1258   -7.8424   24.2432 C   0  0  0  0  0  0  0  0  0  0  0  0
  -26.8674  -23.3918   21.1511 C   0  0  0  0  0  0  0  0  0  0  0  0
  -20.3707   -5.8951   24.9470 C   0  0  0  0  0  0  0  0  0  0  0  0
  -23.8277  -10.4465   20.9522 C   0  0  0  0  0  0  0  0  0  0  0  0
  -24.1701  -12.9728   20.8625 C   0  0  0  0  0  0  0  0  0  0  0  0
  -26.8633  -32.4200   22.4161 C   0  0  0  0  0  0  0  0  0  0  0  0
  -28.2056  -25.2145   22.0153 C   0  0  0  0  0  0  0  0  0  0  0  0
  -26.5809  -31.0565   22.6247 C   0  0  0  0  0  0  0  0  0  0  0  0
  -27.5845  -24.5778   20.9313 C   0  0  0  0  0  0  0  0  0  0  0  0
  -22.3417   -8.1346   21.4316 C   0  0  0  0  0  0  0  0  0  0  0  0
  -26.7799  -22.8401   22.4290 C   0  0  0  0  0  0  0  0  0  0  0  0
  -20.8728   -6.9507   22.8326 C   0  0  0  0  0  0  0  0  0  0  0  0
  -19.3734   -6.8415   25.1826 C   0  0  0  0  0  0  0  0  0  0  0  0
  -21.1204   -5.9498   23.7720 C   0  0  0  0  0  0  0  0  0  0  0  0
  -24.5958  -11.6402   20.7050 C   0  0  0  0  0  0  0  0  0  0  0  0
  -25.2603  -13.7264   20.5022 C   0  0  0  0  0  0  0  0  0  0  0  0
  -22.9025  -13.4838   21.2959 C   0  0  0  0  0  0  0  0  0  0  0  0
  -27.2841  -27.9681   20.7220 C   0  0  0  0  0  0  0  0  0  0  0  0
  -28.8850  -26.8409   18.1357 C   0  0  0  0  0  0  0  0  0  0  0  0
  -30.0885  -24.1468   16.4211 C   0  0  0  0  0  0  0  0  0  0  0  0
  -30.7457  -14.7405   20.6697 C   0  0  0  0  0  0  0  0  0  0  0  0
  -26.8084  -33.0404   21.0425 C   0  0  0  0  0  0  0  0  0  0  0  0
  -29.0014  -26.4735   21.8051 C   0  0  0  0  0  0  0  0  0  0  0  0
  -27.6586  -25.1367   19.5347 C   0  0  0  0  0  0  0  0  0  0  0  0
  -26.8631  -32.0184   19.9099 C   0  0  0  0  0  0  0  0  0  0  0  0
  -29.5921  -12.3874   18.2595 C   0  0  0  0  0  0  0  0  0  0  0  0
  -25.9041  -30.8645   20.1852 C   0  0  0  0  0  0  0  0  0  0  0  0
  -28.1572  -12.0888   18.6975 C   0  0  0  0  0  0  0  0  0  0  0  0
  -30.5167  -12.5924   19.4574 C   0  0  0  0  0  0  0  0  0  0  0  0
  -28.6240  -13.3064   20.8651 C   0  0  0  0  0  0  0  0  0  0  0  0
  -26.2889  -30.1221   21.4706 C   0  0  1  0  0  0  0  0  0  0  0  0
  -28.5875  -27.2399   20.5527 C   0  0  1  0  0  0  0  0  0  0  0  0
  -27.6425  -13.1474   19.6913 C   0  0  2  0  0  0  0  0  0  0  0  0
  -31.3387  -22.8830   14.6499 C   0  0  0  0  0  0  0  0  0  0  0  0
  -32.7766  -19.8528   19.6371 C   0  0  0  0  0  0  0  0  0  0  0  0
  -31.7894  -21.6083   21.1596 C   0  0  0  0  0  0  0  0  0  0  0  0
  -24.7933  -19.0871   23.1034 C   0  0  0  0  0  0  0  0  0  0  0  0
  -26.3496  -27.3293   16.5098 C   0  0  0  0  0  0  0  0  0  0  0  0
  -27.2982  -25.8589   14.7192 C   0  0  0  0  0  0  0  0  0  0  0  0
  -28.4716  -27.9677   15.3505 C   0  0  0  0  0  0  0  0  0  0  0  0
  -32.5952  -24.1927   17.9938 C   0  0  0  0  0  0  0  0  0  0  0  0
  -29.0623  -18.4204   20.9051 C   0  0  0  0  0  0  0  0  0  0  0  0
  -30.8203  -16.8750   21.9337 C   0  0  0  0  0  0  0  0  0  0  0  0
  -28.4455  -18.7791   22.2526 C   0  0  0  0  0  0  0  0  0  0  0  0
  -26.5256  -20.8338   23.6804 C   0  0  0  0  0  0  0  0  0  1  0  0
  -28.5211  -25.9994   16.9364 C   0  0  1  0  0  0  0  0  0  0  0  0
  -31.4460  -23.8730   15.7993 C   0  0  2  0  0  0  0  0  0  0  0  0
  -31.5718  -20.2749   20.4626 C   0  0  0  0  0  0  0  0  0  0  0  0
  -26.2695  -19.3735   23.3253 C   0  0  2  0  0  0  0  0  0  0  0  0
  -30.5511  -18.0608   21.0054 C   0  0  2  0  0  0  0  0  0  0  0  0
  -27.6569  -26.7791   15.9055 C   0  0  0  0  0  0  0  0  0  0  0  0
  -25.8580  -11.5492   20.2777 N   0  0  0  0  0  0  0  0  0  0  0  0
  -26.2347  -12.8342   20.1636 N   0  0  0  0  0  0  0  0  0  0  0  0
  -28.4432  -26.3730   19.3814 N   0  0  0  0  0  0  0  0  0  0  0  0
  -29.9722  -13.6097   20.3600 N   0  0  0  0  0  0  0  0  0  0  0  0
  -25.4710  -15.0586   20.4450 N   0  0  0  0  0  0  0  0  0  0  0  0
  -21.8922  -12.5708   21.6277 N   0  0  0  0  0  0  0  0  0  0  0  0
  -27.4156  -29.2462   21.2304 N   0  0  0  0  0  0  0  0  0  0  0  0
  -29.7780  -25.4900   16.3986 N   0  0  0  0  0  0  0  0  0  0  0  0
  -30.1522  -15.6587   21.5273 N   0  0  0  0  0  0  0  0  0  0  0  0
  -32.3784  -23.3118   16.8174 N   0  3  0  0  0  0  0  0  0  0  0  0
  -26.9993  -19.0582   22.0631 N   0  3  0  0  0  0  0  0  0  0  0  0
  -31.3229  -19.2380   21.4966 N   0  3  0  0  0  0  0  0  0  0  0  0
  -22.6672  -14.7136   21.3705 O   0  0  0  0  0  0  0  0  0  0  0  0
  -26.2368  -27.4120   20.4129 O   0  0  0  0  0  0  0  0  0  0  0  0
  -29.5432  -27.8715   17.9741 O   0  0  0  0  0  0  0  0  0  0  0  0
  -29.3733  -23.2575   16.8775 O   0  0  0  0  0  0  0  0  0  0  0  0
  -31.8789  -14.9213   20.2113 O   0  0  0  0  0  0  0  0  0  0  0  0
  -21.6167   -7.0068   21.6660 O   0  0  0  0  0  0  0  0  0  0  0  0
  -26.0824  -21.6885   22.6272 O   0  0  0  0  0  0  0  0  0  1  0  0
  -18.6544   -6.7900   26.3116 F   0  0  0  0  0  0  0  0  0  0  0  0
  -22.0780   -5.0385   23.5517 F   0  0  0  0  0  0  0  0  0  0  0  0
  1  2  1  0  0  0  0
  1  5  2  0  0  0  0
  2  6  2  0  0  0  0
  3  8  2  0  0  0  0
  3 15  1  0  0  0  0
  4  9  1  0  0  0  0
  4 15  2  0  0  0  0
  5 17  1  0  0  0  0
  6 19  1  0  0  0  0
  7 10  2  0  0  0  0
  7 18  1  0  0  0  0
  8 21  1  0  0  0  0
  9 21  2  0  0  0  0
 10 22  1  0  0  0  0
 11 12  2  0  0  0  0
 11 23  1  0  0  0  0
 12 24  1  0  0  0  0
 13 20  1  0  0  0  0
 13 22  2  0  0  0  0
 14 24  2  0  0  0  0
 14 25  1  0  0  0  0
 15 26  1  0  0  0  0
 16 26  1  0  0  0  0
 16 27  2  0  0  0  0
 16 28  1  0  0  0  0
 17 19  2  0  0  0  0
 17 33  1  0  0  0  0
 18 20  2  0  0  0  0
 18 34  1  0  0  0  0
 19 42  1  0  0  0  0
 20 35  1  0  0  0  0
 21 80  1  0  0  0  0
 22 81  1  0  0  0  0
 23 25  2  0  0  0  0
 23 80  1  0  0  0  0
 24 82  1  0  0  0  0
 25 83  1  0  0  0  0
 26 63  2  0  0  0  0
 27 64  1  0  0  0  0
 27 67  1  0  0  0  0
 28 68  1  0  0  0  0
 28 75  2  0  0  0  0
 29 43  1  0  0  0  0
 29 69  1  0  0  0  0
 29 76  2  0  0  0  0
 30 57  1  0  0  0  0
 30 65  1  0  0  0  0
 30 77  2  0  0  0  0
 31 58  1  0  0  0  0
 31 70  1  0  0  0  0
 31 78  2  0  0  0  0
 32 66  1  0  0  0  0
 32 71  1  0  0  0  0
 32 79  2  0  0  0  0
 33 36  1  0  0  0  0
 34 43  1  0  0  0  0
 35 65  1  0  0  0  0
 36 38  1  0  0  0  0
 37 39  1  0  0  0  0
 37 40  1  0  0  0  0
 38 42  1  0  0  0  0
 39 44  1  0  0  0  0
 40 66  1  0  0  0  0
 41 44  1  0  0  0  0
 41 66  1  0  0  0  0
 42 69  1  0  0  0  0
 43 65  1  0  0  0  0
 44 64  1  0  0  0  0
 45 58  1  0  0  0  0
 46 59  1  0  0  0  0
 47 59  1  0  0  0  0
 48 60  1  0  0  0  0
 49 62  1  0  0  0  0
 50 62  1  0  0  0  0
 51 62  1  0  0  0  0
 52 72  1  0  0  0  0
 53 55  1  0  0  0  0
 53 61  1  0  0  0  0
 54 61  1  0  0  0  0
 54 71  1  0  0  0  0
 55 73  1  0  0  0  0
 56 60  1  0  0  0  0
 56 81  1  0  0  0  0
 57 62  1  0  0  0  0
 57 70  1  0  0  0  0
 58 72  1  0  0  0  0
 59 74  1  0  0  0  0
 60 73  1  0  0  0  0
 61 74  1  0  0  0  0
 63 64  1  0  0  0  0
M  CHG  3  72   1  73   1  74   1
M  ISO  4  32 100  56 101  71 100  81 101
M  END
> <Batch ID>
0115

> <Smiles>
CNC(C)C(=O)NC(C(=O)N1Cc2cc([101O:1][101CH2:1]C(C)NCCC(C[100NH:0][100C:0](=O)N3CCCC(n4nc(-c5ccc(Oc6ccc(F)cc6F)cc5)c(C(N)=O)c4N)C3)NC(C)C)ccc2CC1C(=O)NC1CCCc2ccccc21)C(C)(C)C

> <Shape>
0.307

> <Color>
0.184

> <Negative vol penalty>
0.000

$$$$

  -OEChem-04052320103D

 80 87  0     1  0  0  0  0  0999 V2000
  -28.5826  -11.1157   21.5913 C   0  0  0  0  0  0  0  0  0  0  0  0
  -28.8902  -12.3700   21.0740 C   0  0  0  0  0  0  0  0  0  0  0  0
  -22.2609  -28.4916   20.8628 C   0  0  0  0  0  0  0  0  0  0  0  0
  -23.3439  -27.3528   22.6979 C   0  0  0  0  0  0  0  0  0  0  0  0
  -27.2652  -10.6596   21.5739 C   0  0  0  0  0  0  0  0  0  0  0  0
  -27.8806  -13.1685   20.5379 C   0  0  0  0  0  0  0  0  0  0  0  0
  -28.2007  -17.9878   22.0602 C   0  0  0  0  0  0  0  0  0  0  0  0
  -21.0201  -28.2796   21.4635 C   0  0  0  0  0  0  0  0  0  0  0  0
  -22.1029  -27.1409   23.2987 C   0  0  0  0  0  0  0  0  0  0  0  0
  -29.1559  -18.7900   21.4376 C   0  0  0  0  0  0  0  0  0  0  0  0
  -19.2012  -29.6379   23.9695 C   0  0  0  0  0  0  0  0  0  0  0  0
  -18.3104  -30.7103   24.0129 C   0  0  0  0  0  0  0  0  0  0  0  0
  -27.4377  -19.7351   20.0327 C   0  0  0  0  0  0  0  0  0  0  0  0
  -16.7073  -29.4304   22.7366 C   0  0  0  0  0  0  0  0  0  0  0  0
  -23.4229  -28.0281   21.4800 C   0  0  0  0  0  0  0  0  0  0  0  0
  -25.5599  -29.3500   21.0403 C   0  0  0  0  0  0  0  0  0  0  0  0
  -26.2374  -11.4570   21.0460 C   0  0  0  0  0  0  0  0  0  0  0  0
  -26.8563  -18.0453   21.6656 C   0  0  0  0  0  0  0  0  0  0  0  0
  -26.5484  -12.7221   20.5121 C   0  0  0  0  0  0  0  0  0  0  0  0
  -26.4670  -18.9344   20.6536 C   0  0  0  0  0  0  0  0  0  0  0  0
  -20.9410  -27.6043   22.6815 C   0  0  0  0  0  0  0  0  0  0  0  0
  -28.7750  -19.6618   20.4217 C   0  0  0  0  0  0  0  0  0  0  0  0
  -18.8452  -28.4617   23.3096 C   0  0  0  0  0  0  0  0  0  0  0  0
  -17.0635  -30.6066   23.3965 C   0  0  0  0  0  0  0  0  0  0  0  0
  -17.5982  -28.3579   22.6931 C   0  0  0  0  0  0  0  0  0  0  0  0
  -24.7049  -28.2462   20.8597 C   0  0  0  0  0  0  0  0  0  0  0  0
  -26.6412  -29.0818   20.2369 C   0  0  0  0  0  0  0  0  0  0  0  0
  -25.3918  -30.5135   21.8609 C   0  0  0  0  0  0  0  0  0  0  0  0
  -24.7934  -15.9725   20.4200 C   0  0  0  0  0  0  0  0  0  0  0  0
  -22.6859  -18.3980   20.8647 C   0  0  0  0  0  0  0  0  0  0  0  0
  -33.8681  -21.3957   18.3398 C   0  0  0  0  0  0  0  0  0  0  0  0
  -22.1609  -21.7513   21.2196 C   0  0  0  0  0  0  0  0  0  0  0  0
  -30.4863  -25.6317   18.4316 C   0  0  0  0  0  0  0  0  0  0  0  0
  -24.8357  -10.9017   21.0059 C   0  0  0  0  0  0  0  0  0  0  0  0
  -25.8337  -17.1927   22.3654 C   0  0  0  0  0  0  0  0  0  0  0  0
  -25.0331  -19.0487   20.2070 C   0  0  0  0  0  0  0  0  0  0  0  0
  -23.7668  -11.9635   20.7608 C   0  0  0  0  0  0  0  0  0  0  0  0
  -27.3135  -25.5345   16.6934 C   0  0  0  0  0  0  0  0  0  0  0  0
  -24.1789  -12.8813   19.6143 C   0  0  0  0  0  0  0  0  0  0  0  0
  -26.4197  -26.3291   17.6473 C   0  0  0  0  0  0  0  0  0  0  0  0
  -28.3117  -24.6723   17.4605 C   0  0  0  0  0  0  0  0  0  0  0  0
  -28.2725  -26.2201   19.3779 C   0  0  0  0  0  0  0  0  0  0  0  0
  -25.4771  -13.6278   19.9445 C   0  0  1  0  0  0  0  0  0  0  0  0
  -24.5777  -16.9604   21.5313 C   0  0  1  0  0  0  0  0  0  0  0  0
  -27.2562  -27.1293   18.6632 C   0  0  2  0  0  0  0  0  0  0  0  0
  -20.3271  -23.4362   21.5291 C   0  0  0  0  0  0  0  0  0  0  0  0
  -21.9383  -18.1216   17.9194 C   0  0  0  0  0  0  0  0  0  0  0  0
  -20.8560  -20.3752   18.0546 C   0  0  0  0  0  0  0  0  0  0  0  0
  -20.0016  -18.4971   19.4566 C   0  0  0  0  0  0  0  0  0  0  0  0
  -23.2643  -22.6477   23.8154 C   0  0  0  0  0  0  0  0  0  0  0  0
  -33.2726  -23.8649   18.2409 C   0  0  0  0  0  0  0  0  0  0  0  0
  -32.6280  -24.9506   17.3799 C   0  0  0  0  0  0  0  0  0  0  0  0
  -30.7922  -21.0385   17.7503 C   0  0  0  0  0  0  0  0  0  0  0  0
  -29.4690  -20.7929   18.4482 C   0  0  0  0  0  0  0  0  0  1  0  0
  -22.2155  -19.5705   20.0384 C   0  0  1  0  0  0  0  0  0  0  0  0
  -32.8600  -22.4334   17.8803 C   0  0  2  0  0  0  0  0  0  0  0  0
  -21.3420  -22.5419   22.2241 C   0  0  2  0  0  0  0  0  0  0  0  0
  -21.2803  -19.1378   18.8741 C   0  0  0  0  0  0  0  0  0  0  0  0
  -25.2003  -27.3442   20.0083 N   0  0  0  0  0  0  0  0  0  0  0  0
  -26.3782  -27.8807   19.6466 N   0  0  0  0  0  0  0  0  0  0  0  0
  -24.0715  -18.1897   20.9175 N   0  0  0  0  0  0  0  0  0  0  0  0
  -29.0885  -25.4971   18.3967 N   0  0  0  0  0  0  0  0  0  0  0  0
  -27.7817  -29.7586   19.9848 N   0  0  0  0  0  0  0  0  0  0  0  0
  -24.2214  -30.6302   22.6230 N   0  0  0  0  0  0  0  0  0  0  0  0
  -34.8149  -21.1017   17.3829 N   0  0  0  0  0  0  0  0  0  0  0  0
  -25.2122  -14.7270   20.8478 N   0  0  0  0  0  0  0  0  0  0  0  0
  -21.6092  -20.5119   20.9736 N   0  0  0  0  0  0  0  0  0  0  0  0
  -31.1856  -24.9086   17.4731 N   0  0  0  0  0  0  0  0  0  0  0  0
  -22.2316  -23.3996   23.0571 N   0  3  0  0  0  0  0  0  0  0  0  0
  -31.5144  -22.1362   18.4415 N   0  3  0  0  0  0  0  0  0  0  0  0
  -26.2465  -31.4307   21.9042 O   0  0  0  0  0  0  0  0  0  0  0  0
  -24.5933  -16.3143   19.2603 O   0  0  0  0  0  0  0  0  0  0  0  0
  -21.8551  -17.6970   21.4479 O   0  0  0  0  0  0  0  0  0  0  0  0
  -33.8393  -20.8697   19.4497 O   0  0  0  0  0  0  0  0  0  0  0  0
  -23.1853  -22.1909   20.7021 O   0  0  0  0  0  0  0  0  0  0  0  0
  -31.0684  -26.3481   19.2532 O   0  0  0  0  0  0  0  0  0  0  0  0
  -19.7304  -27.3976   23.2681 O   0  0  0  0  0  0  0  0  0  0  0  0
  -29.7055  -20.4455   19.8119 O   0  0  0  0  0  0  0  0  0  1  0  0
  -16.2075  -31.6359   23.4395 F   0  0  0  0  0  0  0  0  0  0  0  0
  -17.2500  -27.2301   22.0587 F   0  0  0  0  0  0  0  0  0  0  0  0
  1  2  1  0  0  0  0
  1  5  2  0  0  0  0
  2  6  2  0  0  0  0
  3  8  2  0  0  0  0
  3 15  1  0  0  0  0
  4  9  1  0  0  0  0
  4 15  2  0  0  0  0
  5 17  1  0  0  0  0
  6 19  1  0  0  0  0
  7 10  2  0  0  0  0
  7 18  1  0  0  0  0
  8 21  1  0  0  0  0
  9 21  2  0  0  0  0
 10 22  1  0  0  0  0
 11 12  2  0  0  0  0
 11 23  1  0  0  0  0
 12 24  1  0  0  0  0
 13 20  1  0  0  0  0
 13 22  2  0  0  0  0
 14 24  2  0  0  0  0
 14 25  1  0  0  0  0
 15 26  1  0  0  0  0
 16 26  1  0  0  0  0
 16 27  2  0  0  0  0
 16 28  1  0  0  0  0
 17 19  2  0  0  0  0
 17 34  1  0  0  0  0
 18 20  2  0  0  0  0
 18 35  1  0  0  0  0
 19 43  1  0  0  0  0
 20 36  1  0  0  0  0
 21 77  1  0  0  0  0
 22 78  1  0  0  0  0
 23 25  2  0  0  0  0
 23 77  1  0  0  0  0
 24 79  1  0  0  0  0
 25 80  1  0  0  0  0
 26 59  2  0  0  0  0
 27 60  1  0  0  0  0
 27 63  1  0  0  0  0
 28 64  1  0  0  0  0
 28 71  2  0  0  0  0
 29 44  1  0  0  0  0
 29 66  1  0  0  0  0
 29 72  2  0  0  0  0
 30 55  1  0  0  0  0
 30 61  1  0  0  0  0
 30 73  2  0  0  0  0
 31 56  1  0  0  0  0
 31 65  1  0  0  0  0
 31 74  2  0  0  0  0
 32 57  1  0  0  0  0
 32 67  1  0  0  0  0
 32 75  2  0  0  0  0
 33 62  1  0  0  0  0
 33 68  1  0  0  0  0
 33 76  2  0  0  0  0
 34 37  1  0  0  0  0
 35 44  1  0  0  0  0
 36 61  1  0  0  0  0
 37 39  1  0  0  0  0
 38 40  1  0  0  0  0
 38 41  1  0  0  0  0
 39 43  1  0  0  0  0
 40 45  1  0  0  0  0
 41 62  1  0  0  0  0
 42 45  1  0  0  0  0
 42 62  1  0  0  0  0
 43 66  1  0  0  0  0
 44 61  1  0  0  0  0
 45 60  1  0  0  0  0
 46 57  1  0  0  0  0
 47 58  1  0  0  0  0
 48 58  1  0  0  0  0
 49 58  1  0  0  0  0
 50 69  1  0  0  0  0
 51 52  1  0  0  0  0
 51 56  1  0  0  0  0
 52 68  1  0  0  0  0
 53 54  1  0  0  0  0
 53 70  1  0  0  0  0
 54 78  1  0  0  0  0
 55 58  1  0  0  0  0
 55 67  1  0  0  0  0
 56 70  1  0  0  0  0
 57 69  1  0  0  0  0
 59 60  1  0  0  0  0
M  CHG  2  69   1  70   1
M  ISO  4  33 100  54 101  68 100  78 101
M  END
> <Batch ID>
0115

> <Smiles>
CNC(C)C(=O)NC(C(=O)N1Cc2cc([101O:1][101CH2:1]CNC(CC[100NH:0][100C:0](=O)N3CCCC(n4nc(-c5ccc(Oc6ccc(F)cc6F)cc5)c(C(N)=O)c4N)C3)C(N)=O)ccc2CC1C(=O)NC1CCCc2ccccc21)C(C)(C)C

> <Shape>
0.249

> <Color>
0.086

> <Negative vol penalty>
0.000

$$$$

  -OEChem-04052320103D

 83 90  0     1  0  0  0  0  0999 V2000
  -29.6800  -24.5936   13.6486 C   0  0  0  0  0  0  0  0  0  0  0  0
  -28.7787  -24.1443   14.6084 C   0  0  0  0  0  0  0  0  0  0  0  0
  -30.1478  -17.8929   21.7557 C   0  0  0  0  0  0  0  0  0  0  0  0
  -28.5329  -17.4706   20.0090 C   0  0  0  0  0  0  0  0  0  0  0  0
  -30.6111  -25.5786   13.9754 C   0  0  0  0  0  0  0  0  0  0  0  0
  -28.8087  -24.6790   15.8959 C   0  0  0  0  0  0  0  0  0  0  0  0
  -24.1876  -25.7786   17.6512 C   0  0  0  0  0  0  0  0  0  0  0  0
  -30.8632  -16.7600   21.3680 C   0  0  0  0  0  0  0  0  0  0  0  0
  -29.2484  -16.3377   19.6213 C   0  0  0  0  0  0  0  0  0  0  0  0
  -23.4145  -24.7165   18.1181 C   0  0  0  0  0  0  0  0  0  0  0  0
  -30.4523  -13.1329   18.4009 C   0  0  0  0  0  0  0  0  0  0  0  0
  -29.7306  -11.9682   18.1399 C   0  0  0  0  0  0  0  0  0  0  0  0
  -24.0080  -25.2889   20.3851 C   0  0  0  0  0  0  0  0  0  0  0  0
  -28.8945  -11.9782   20.4066 C   0  0  0  0  0  0  0  0  0  0  0  0
  -28.9825  -18.2482   21.0762 C   0  0  0  0  0  0  0  0  0  0  0  0
  -28.4105  -20.7331   21.0031 C   0  0  0  0  0  0  0  0  0  0  0  0
  -30.6462  -26.1325   15.2648 C   0  0  0  0  0  0  0  0  0  0  0  0
  -24.8867  -26.5986   18.5486 C   0  0  0  0  0  0  0  0  0  0  0  0
  -29.7421  -25.6713   16.2406 C   0  0  0  0  0  0  0  0  0  0  0  0
  -24.7872  -26.3623   19.9272 C   0  0  0  0  0  0  0  0  0  0  0  0
  -30.4136  -15.9824   20.3009 C   0  0  0  0  0  0  0  0  0  0  0  0
  -23.3269  -24.4698   19.4850 C   0  0  0  0  0  0  0  0  0  0  0  0
  -30.3952  -13.7203   19.6648 C   0  0  0  0  0  0  0  0  0  0  0  0
  -28.9517  -11.3908   19.1427 C   0  0  0  0  0  0  0  0  0  0  0  0
  -29.6163  -13.1429   20.6676 C   0  0  0  0  0  0  0  0  0  0  0  0
  -28.2427  -19.4180   21.4765 C   0  0  0  0  0  0  0  0  0  0  0  0
  -27.4745  -21.4672   21.6898 C   0  0  0  0  0  0  0  0  0  0  0  0
  -29.3301  -21.2454   20.0297 C   0  0  0  0  0  0  0  0  0  0  0  0
  -27.9520  -27.2769   19.0461 C   0  0  0  0  0  0  0  0  0  0  0  0
  -20.1240  -22.1337   23.0249 C   0  0  0  0  0  0  0  0  0  0  0  0
  -26.7332  -29.4164   21.1578 C   0  0  0  0  0  0  0  0  0  0  0  0
  -24.1427  -30.3380   23.1793 C   0  0  0  0  0  0  0  0  0  0  0  0
  -22.2727  -20.0351   24.2863 C   0  0  0  0  0  0  0  0  0  0  0  0
  -31.7018  -27.1612   15.5844 C   0  0  0  0  0  0  0  0  0  0  0  0
  -25.6949  -27.7565   18.0305 C   0  0  0  0  0  0  0  0  0  0  0  0
  -25.5020  -27.2257   20.9332 C   0  0  0  0  0  0  0  0  0  0  0  0
  -31.4218  -27.9437   16.8649 C   0  0  0  0  0  0  0  0  0  0  0  0
  -25.0931  -21.5558   25.8386 C   0  0  0  0  0  0  0  0  0  0  0  0
  -31.0163  -26.9976   17.9907 C   0  0  0  0  0  0  0  0  0  0  0  0
  -26.2352  -21.2990   24.8539 C   0  0  0  0  0  0  0  0  0  0  0  0
  -24.1230  -20.3779   25.8973 C   0  0  0  0  0  0  0  0  0  0  0  0
  -24.7264  -19.6968   23.6069 C   0  0  0  0  0  0  0  0  0  0  0  0
  -29.7271  -26.2446   17.6411 C   0  0  1  0  0  0  0  0  0  0  0  0
  -26.7772  -28.2128   19.0040 C   0  0  1  0  0  0  0  0  0  0  0  0
  -25.7001  -20.8799   23.4714 C   0  0  2  0  0  0  0  0  0  0  0  0
  -23.4535  -32.1152   24.8115 C   0  0  0  0  0  0  0  0  0  0  0  0
  -19.0835  -22.1479   19.2748 C   0  0  0  0  0  0  0  0  0  0  0  0
  -28.5513  -28.1768   23.2715 C   0  0  0  0  0  0  0  0  0  0  0  0
  -27.1663  -29.3061   25.0250 C   0  0  0  0  0  0  0  0  0  0  0  0
  -28.4111  -30.6725   23.3499 C   0  0  0  0  0  0  0  0  0  0  0  0
  -21.8330  -31.1380   21.5107 C   0  0  0  0  0  0  0  0  0  0  0  0
  -18.8765  -22.3894   23.8591 C   0  0  0  0  0  0  0  0  0  0  0  0
  -19.0501  -23.5712   24.8137 C   0  0  0  0  0  0  0  0  0  0  0  0
  -20.5316  -19.6672   22.5564 C   0  0  0  0  0  0  0  0  0  0  0  0
  -17.8223  -23.8392   25.6747 C   0  0  0  0  0  0  0  0  0  0  0  0
  -21.4364  -23.0629   19.1649 C   0  0  0  0  0  0  0  0  0  1  0  0
  -20.0376  -21.0020   22.0081 C   0  0  2  0  0  0  0  0  0  0  0  0
  -26.3628  -29.3822   22.6209 C   0  0  1  0  0  0  0  0  0  0  0  0
  -23.4281  -31.6652   23.3590 C   0  0  2  0  0  0  0  0  0  0  0  0
  -20.3198  -22.5455   20.0648 C   0  0  2  0  0  0  0  0  0  0  0  0
  -27.6109  -29.3667   23.5480 C   0  0  0  0  0  0  0  0  0  0  0  0
  -27.2762  -19.3193   22.3931 N   0  0  0  0  0  0  0  0  0  0  0  0
  -26.8284  -20.5817   22.5014 N   0  0  0  0  0  0  0  0  0  0  0  0
  -26.2847  -28.3417   20.3770 N   0  0  0  0  0  0  0  0  0  0  0  0
  -23.6516  -20.0318   24.5542 N   0  0  0  0  0  0  0  0  0  0  0  0
  -27.1494  -22.7774   21.6727 N   0  0  0  0  0  0  0  0  0  0  0  0
  -30.2234  -20.3538   19.4203 N   0  0  0  0  0  0  0  0  0  0  0  0
  -28.5755  -27.1014   17.8254 N   0  0  0  0  0  0  0  0  0  0  0  0
  -25.4681  -30.5131   22.8420 N   0  0  0  0  0  0  0  0  0  0  0  0
  -21.9117  -19.7015   22.9866 N   0  0  0  0  0  0  0  0  0  0  0  0
  -18.0387  -25.0229   26.5393 N   0  3  0  0  0  0  0  0  0  0  0  0
  -22.0063  -31.5507   22.9273 N   0  3  0  0  0  0  0  0  0  0  0  0
  -20.8162  -21.3400   20.7896 N   0  3  0  0  0  0  0  0  0  0  0  0
  -29.3698  -22.4607   19.7217 O   0  0  0  0  0  0  0  0  0  0  0  0
  -28.2701  -26.7539   20.1077 O   0  0  0  0  0  0  0  0  0  0  0  0
  -21.1520  -22.7951   23.1722 O   0  0  0  0  0  0  0  0  0  0  0  0
  -27.3900  -30.3653   20.7223 O   0  0  0  0  0  0  0  0  0  0  0  0
  -23.5821  -29.2543   23.3273 O   0  0  0  0  0  0  0  0  0  0  0  0
  -21.4264  -20.3197   25.1405 O   0  0  0  0  0  0  0  0  0  0  0  0
  -31.1116  -14.8770   19.9222 O   0  0  0  0  0  0  0  0  0  0  0  0
  -22.5735  -23.4334   19.9434 O   0  0  0  0  0  0  0  0  0  1  0  0
  -28.2575  -10.2732   18.8914 F   0  0  0  0  0  0  0  0  0  0  0  0
  -29.5565  -13.7033   21.8835 F   0  0  0  0  0  0  0  0  0  0  0  0
  1  2  1  0  0  0  0
  1  5  2  0  0  0  0
  2  6  2  0  0  0  0
  3  8  2  0  0  0  0
  3 15  1  0  0  0  0
  4  9  1  0  0  0  0
  4 15  2  0  0  0  0
  5 17  1  0  0  0  0
  6 19  1  0  0  0  0
  7 10  2  0  0  0  0
  7 18  1  0  0  0  0
  8 21  1  0  0  0  0
  9 21  2  0  0  0  0
 10 22  1  0  0  0  0
 11 12  2  0  0  0  0
 11 23  1  0  0  0  0
 12 24  1  0  0  0  0
 13 20  1  0  0  0  0
 13 22  2  0  0  0  0
 14 24  2  0  0  0  0
 14 25  1  0  0  0  0
 15 26  1  0  0  0  0
 16 26  1  0  0  0  0
 16 27  2  0  0  0  0
 16 28  1  0  0  0  0
 17 19  2  0  0  0  0
 17 34  1  0  0  0  0
 18 20  2  0  0  0  0
 18 35  1  0  0  0  0
 19 43  1  0  0  0  0
 20 36  1  0  0  0  0
 21 80  1  0  0  0  0
 22 81  1  0  0  0  0
 23 25  2  0  0  0  0
 23 80  1  0  0  0  0
 24 82  1  0  0  0  0
 25 83  1  0  0  0  0
 26 62  2  0  0  0  0
 27 63  1  0  0  0  0
 27 66  1  0  0  0  0
 28 67  1  0  0  0  0
 28 74  2  0  0  0  0
 29 44  1  0  0  0  0
 29 68  1  0  0  0  0
 29 75  2  0  0  0  0
 30 52  1  0  0  0  0
 30 57  1  0  0  0  0
 30 76  2  0  0  0  0
 31 58  1  0  0  0  0
 31 64  1  0  0  0  0
 31 77  2  0  0  0  0
 32 59  1  0  0  0  0
 32 69  1  0  0  0  0
 32 78  2  0  0  0  0
 33 65  1  0  0  0  0
 33 70  1  0  0  0  0
 33 79  2  0  0  0  0
 34 37  1  0  0  0  0
 35 44  1  0  0  0  0
 36 64  1  0  0  0  0
 37 39  1  0  0  0  0
 38 40  1  0  0  0  0
 38 41  1  0  0  0  0
 39 43  1  0  0  0  0
 40 45  1  0  0  0  0
 41 65  1  0  0  0  0
 42 45  1  0  0  0  0
 42 65  1  0  0  0  0
 43 68  1  0  0  0  0
 44 64  1  0  0  0  0
 45 63  1  0  0  0  0
 46 59  1  0  0  0  0
 47 60  1  0  0  0  0
 48 61  1  0  0  0  0
 49 61  1  0  0  0  0
 50 61  1  0  0  0  0
 51 72  1  0  0  0  0
 52 53  1  0  0  0  0
 53 55  1  0  0  0  0
 54 57  1  0  0  0  0
 54 70  1  0  0  0  0
 55 71  1  0  0  0  0
 56 60  1  0  0  0  0
 56 81  1  0  0  0  0
 57 73  1  0  0  0  0
 58 61  1  0  0  0  0
 58 69  1  0  0  0  0
 59 72  1  0  0  0  0
 60 73  1  0  0  0  0
 62 63  1  0  0  0  0
M  CHG  3  71   1  72   1  73   1
M  ISO  4  33 100  56 101  70 100  81 101
M  END
> <Batch ID>
0115

> <Smiles>
CNC(C)C(=O)NC(C(=O)N1Cc2cc([101O:1][101CH2:1]C(C)NC(C[100NH:0][100C:0](=O)N3CCCC(n4nc(-c5ccc(Oc6ccc(F)cc6F)cc5)c(C(N)=O)c4N)C3)C(=O)CCCN)ccc2CC1C(=O)NC1CCCc2ccccc21)C(C)(C)C

> <Shape>
0.198

> <Color>
0.066

> <Negative vol penalty>
0.000

$$$$

  -OEChem-04052320103D

 93102  0     1  0  0  0  0  0999 V2000
  -29.4978  -23.5471   26.9678 C   0  0  0  0  0  0  0  0  0  0  0  0
  -30.1936  -22.3424   26.9664 C   0  0  0  0  0  0  0  0  0  0  0  0
  -23.2440  -10.1692   22.1508 C   0  0  0  0  0  0  0  0  0  0  0  0
  -23.5320   -9.5456   19.8345 C   0  0  0  0  0  0  0  0  0  0  0  0
  -29.0610  -24.0999   25.7646 C   0  0  0  0  0  0  0  0  0  0  0  0
  -30.4520  -21.6892   25.7619 C   0  0  0  0  0  0  0  0  0  0  0  0
  -35.4234  -18.4040   24.3482 C   0  0  0  0  0  0  0  0  0  0  0  0
  -22.4857   -9.0185   22.3663 C   0  0  0  0  0  0  0  0  0  0  0  0
  -22.7738   -8.3948   20.0500 C   0  0  0  0  0  0  0  0  0  0  0  0
  -35.6731  -17.0324   24.3503 C   0  0  0  0  0  0  0  0  0  0  0  0
  -23.0478   -5.7205   22.8568 C   0  0  0  0  0  0  0  0  0  0  0  0
  -23.3183   -4.9709   24.0015 C   0  0  0  0  0  0  0  0  0  0  0  0
  -30.0475  -17.0123   25.1503 C   0  0  0  0  0  0  0  0  0  0  0  0
  -35.1668  -16.9427   21.9934 C   0  0  0  0  0  0  0  0  0  0  0  0
  -21.0494   -5.3099   24.7595 C   0  0  0  0  0  0  0  0  0  0  0  0
  -29.2927  -16.5584   26.2199 C   0  0  0  0  0  0  0  0  0  0  0  0
  -23.7672  -10.4328   20.8848 C   0  0  0  0  0  0  0  0  0  0  0  0
  -24.1376  -12.9563   20.8354 C   0  0  0  0  0  0  0  0  0  0  0  0
  -29.3227  -23.4580   24.5439 C   0  0  0  0  0  0  0  0  0  0  0  0
  -35.0323  -19.0545   23.1690 C   0  0  0  0  0  0  0  0  0  0  0  0
  -30.0171  -22.2332   24.5414 C   0  0  0  0  0  0  0  0  0  0  0  0
  -34.9152  -18.3231   21.9784 C   0  0  0  0  0  0  0  0  0  0  0  0
  -30.8122  -16.0838   24.4529 C   0  0  0  0  0  0  0  0  0  0  0  0
  -30.7990  -14.7487   24.8409 C   0  0  0  0  0  0  0  0  0  0  0  0
  -22.2506   -8.1313   21.3159 C   0  0  0  0  0  0  0  0  0  0  0  0
  -35.5420  -16.3010   23.1734 C   0  0  0  0  0  0  0  0  0  0  0  0
  -21.7781   -6.2649   22.6634 C   0  0  0  0  0  0  0  0  0  0  0  0
  -22.3191   -4.7656   24.9529 C   0  0  0  0  0  0  0  0  0  0  0  0
  -20.7789   -6.0595   23.6148 C   0  0  0  0  0  0  0  0  0  0  0  0
  -24.5501  -11.6216   20.6614 C   0  0  0  0  0  0  0  0  0  0  0  0
  -30.0108  -14.3961   25.9245 C   0  0  0  0  0  0  0  0  0  0  0  0
  -25.2388  -13.7031   20.4948 C   0  0  0  0  0  0  0  0  0  0  0  0
  -22.8722  -13.4746   21.2665 C   0  0  0  0  0  0  0  0  0  0  0  0
  -32.4532  -20.6673   22.2466 C   0  0  0  0  0  0  0  0  0  0  0  0
  -34.2365  -21.2386   19.5978 C   0  0  0  0  0  0  0  0  0  0  0  0
  -36.4737  -19.3661   17.4751 C   0  0  0  0  0  0  0  0  0  0  0  0
  -30.7333  -14.6545   20.7199 C   0  0  0  0  0  0  0  0  0  0  0  0
  -28.7893  -24.0702   23.2729 C   0  0  0  0  0  0  0  0  0  0  0  0
  -34.7926  -20.5394   23.1776 C   0  0  0  0  0  0  0  0  0  0  0  0
  -34.5178  -18.9777   20.6815 C   0  0  0  0  0  0  0  0  0  0  0  0
  -29.4304  -23.5041   22.0085 C   0  0  0  0  0  0  0  0  0  0  0  0
  -29.5734  -12.3501   18.2662 C   0  0  0  0  0  0  0  0  0  0  0  0
  -29.4823  -21.9809   22.0723 C   0  0  0  0  0  0  0  0  0  0  0  0
  -28.1320  -12.0607   18.6885 C   0  0  0  0  0  0  0  0  0  0  0  0
  -30.4907  -12.5272   19.4742 C   0  0  0  0  0  0  0  0  0  0  0  0
  -28.9778  -12.1800   25.7160 C   0  0  0  0  0  0  0  0  0  0  0  0
  -30.4205  -12.6948   27.6778 C   0  0  0  0  0  0  0  0  0  0  0  0
  -28.5947  -13.2410   20.8775 C   0  0  0  0  0  0  0  0  0  0  0  0
  -29.4219  -10.7246   25.7735 C   0  0  0  0  0  0  0  0  0  0  0  0
  -30.8577  -11.2365   27.7341 C   0  0  0  0  0  0  0  0  0  0  0  0
  -30.3384  -21.5071   23.2531 C   0  0  1  0  0  0  0  0  0  0  0  0
  -33.9009  -21.0073   22.0316 C   0  0  1  0  0  0  0  0  0  0  0  0
  -27.6209  -13.1101   19.6940 C   0  0  2  0  0  0  0  0  0  0  0  0
  -38.3893  -20.1312   16.0460 C   0  0  0  0  0  0  0  0  0  0  0  0
  -32.7057  -11.1737   22.8617 C   0  0  0  0  0  0  0  0  0  0  0  0
  -35.8844  -13.4695   25.0426 C   0  0  0  0  0  0  0  0  0  0  0  0
  -32.1566  -21.3329   17.3673 C   0  0  0  0  0  0  0  0  0  0  0  0
  -33.9018  -20.4612   15.7980 C   0  0  0  0  0  0  0  0  0  0  0  0
  -34.2258  -22.6649   16.9212 C   0  0  0  0  0  0  0  0  0  0  0  0
  -30.0740   -8.9011   27.3451 C   0  0  0  0  0  0  0  0  0  0  0  0
  -38.3545  -17.5004   18.7944 C   0  0  0  0  0  0  0  0  0  0  0  0
  -31.6347  -16.5484   23.2958 C   0  0  0  0  0  0  0  0  0  0  0  0
  -34.2068  -13.1726   23.1403 C   0  0  0  0  0  0  0  0  0  0  0  0
  -30.8210  -16.7691   22.0161 C   0  0  0  0  0  0  0  0  0  0  0  0
  -32.2783  -12.7397   24.8035 C   0  0  0  0  0  0  0  0  0  0  0  0
  -34.4400  -20.5404   18.2749 C   0  0  1  0  0  0  0  0  0  0  0  0
  -37.9804  -19.5241   17.3791 C   0  0  2  0  0  0  0  0  0  0  0  0
  -33.3430  -12.1299   23.8781 C   0  0  1  0  0  0  0  0  0  0  0  0
  -34.9774  -14.1554   24.0299 C   0  0  2  0  0  0  0  0  0  1  0  0
  -33.6743  -21.2354   17.1139 C   0  0  0  0  0  0  0  0  0  0  0  0
  -29.2545  -15.2696   26.6265 N   0  0  0  0  0  0  0  0  0  0  0  0
  -25.8146  -11.5231   20.2426 N   0  0  0  0  0  0  0  0  0  0  0  0
  -26.2061  -12.8054   20.1505 N   0  0  0  0  0  0  0  0  0  0  0  0
  -29.9897  -13.0545   26.3232 N   0  0  0  0  0  0  0  0  0  0  0  0
  -34.2881  -20.4307   20.7425 N   0  0  0  0  0  0  0  0  0  0  0  0
  -29.9501  -13.5369   20.3875 N   0  0  0  0  0  0  0  0  0  0  0  0
  -25.4643  -15.0336   20.4590 N   0  0  0  0  0  0  0  0  0  0  0  0
  -21.8495  -12.5679   21.5768 N   0  0  0  0  0  0  0  0  0  0  0  0
  -31.5537  -13.8086   24.1576 N   0  0  0  0  0  0  0  0  0  0  0  0
  -31.7457  -21.6313   22.9390 N   0  0  0  0  0  0  0  0  0  0  0  0
  -35.8827  -20.4583   18.0744 N   0  0  0  0  0  0  0  0  0  0  0  0
  -30.1430  -15.5664   21.5865 N   0  0  0  0  0  0  0  0  0  0  0  0
  -29.7531  -10.3619   27.1989 N   0  3  0  0  0  0  0  0  0  0  0  0
  -38.6500  -18.2000   17.5176 N   0  3  0  0  0  0  0  0  0  0  0  0
  -22.6497  -14.7057   21.3575 O   0  0  0  0  0  0  0  0  0  0  0  0
  -32.0105  -19.6093   21.8148 O   0  0  0  0  0  0  0  0  0  0  0  0
  -34.0460  -22.4573   19.6153 O   0  0  0  0  0  0  0  0  0  0  0  0
  -35.8799  -18.3747   17.0567 O   0  0  0  0  0  0  0  0  0  0  0  0
  -31.8720  -14.8297   20.2731 O   0  0  0  0  0  0  0  0  0  0  0  0
  -21.5109   -7.0082   21.5259 O   0  0  0  0  0  0  0  0  0  0  0  0
  -35.7845  -14.9619   23.1729 O   0  0  0  0  0  0  0  0  0  1  0  0
  -22.5785   -4.0444   26.0514 F   0  0  0  0  0  0  0  0  0  0  0  0
  -19.5569   -6.5790   23.4339 F   0  0  0  0  0  0  0  0  0  0  0  0
  1  2  1  0  0  0  0
  1  5  2  0  0  0  0
  2  6  2  0  0  0  0
  3  8  2  0  0  0  0
  3 17  1  0  0  0  0
  4  9  1  0  0  0  0
  4 17  2  0  0  0  0
  5 19  1  0  0  0  0
  6 21  1  0  0  0  0
  7 10  2  0  0  0  0
  7 20  1  0  0  0  0
  8 25  1  0  0  0  0
  9 25  2  0  0  0  0
 10 26  1  0  0  0  0
 11 12  2  0  0  0  0
 11 27  1  0  0  0  0
 12 28  1  0  0  0  0
 13 16  1  0  0  0  0
 13 23  2  0  0  0  0
 14 22  1  0  0  0  0
 14 26  2  0  0  0  0
 15 28  2  0  0  0  0
 15 29  1  0  0  0  0
 16 71  2  0  0  0  0
 17 30  1  0  0  0  0
 18 30  1  0  0  0  0
 18 32  2  0  0  0  0
 18 33  1  0  0  0  0
 19 21  2  0  0  0  0
 19 38  1  0  0  0  0
 20 22  2  0  0  0  0
 20 39  1  0  0  0  0
 21 51  1  0  0  0  0
 22 40  1  0  0  0  0
 23 24  1  0  0  0  0
 23 62  1  0  0  0  0
 24 31  2  0  0  0  0
 24 79  1  0  0  0  0
 25 90  1  0  0  0  0
 26 91  1  0  0  0  0
 27 29  2  0  0  0  0
 27 90  1  0  0  0  0
 28 92  1  0  0  0  0
 29 93  1  0  0  0  0
 30 72  2  0  0  0  0
 31 71  1  0  0  0  0
 31 74  1  0  0  0  0
 32 73  1  0  0  0  0
 32 77  1  0  0  0  0
 33 78  1  0  0  0  0
 33 85  2  0  0  0  0
 34 52  1  0  0  0  0
 34 80  1  0  0  0  0
 34 86  2  0  0  0  0
 35 66  1  0  0  0  0
 35 75  1  0  0  0  0
 35 87  2  0  0  0  0
 36 67  1  0  0  0  0
 36 81  1  0  0  0  0
 36 88  2  0  0  0  0
 37 76  1  0  0  0  0
 37 82  1  0  0  0  0
 37 89  2  0  0  0  0
 38 41  1  0  0  0  0
 39 52  1  0  0  0  0
 40 75  1  0  0  0  0
 41 43  1  0  0  0  0
 42 44  1  0  0  0  0
 42 45  1  0  0  0  0
 43 51  1  0  0  0  0
 44 53  1  0  0  0  0
 45 76  1  0  0  0  0
 46 49  1  0  0  0  0
 46 74  1  0  0  0  0
 47 50  1  0  0  0  0
 47 74  1  0  0  0  0
 48 53  1  0  0  0  0
 48 76  1  0  0  0  0
 49 83  1  0  0  0  0
 50 83  1  0  0  0  0
 51 80  1  0  0  0  0
 52 75  1  0  0  0  0
 53 73  1  0  0  0  0
 54 67  1  0  0  0  0
 55 68  1  0  0  0  0
 56 69  1  0  0  0  0
 57 70  1  0  0  0  0
 58 70  1  0  0  0  0
 59 70  1  0  0  0  0
 60 83  1  0  0  0  0
 61 84  1  0  0  0  0
 62 64  1  0  0  0  0
 63 68  1  0  0  0  0
 63 69  1  0  0  0  0
 64 82  1  0  0  0  0
 65 68  1  0  0  0  0
 65 79  1  0  0  0  0
 66 70  1  0  0  0  0
 66 81  1  0  0  0  0
 67 84  1  0  0  0  0
 69 91  1  0  0  0  0
 72 73  1  0  0  0  0
M  CHG  2  83   1  84   1
M  ISO  4  37 100  69 101  82 100  91 101
M  END
> <Batch ID>
0115

> <Smiles>
CNC(C)C(=O)NC(C(=O)N1Cc2cc([101O:1][101CH:1](C)CC(C)CNc3c(CC[100NH:0][100C:0](=O)N4CCCC(n5nc(-c6ccc(Oc7ccc(F)cc7F)cc6)c(C(N)=O)c5N)C4)ccnc3N3CCN(C)CC3)ccc2CC1C(=O)NC1CCCc2ccccc21)C(C)(C)C

> <Shape>
0.167

> <Color>
0.192

> <Negative vol penalty>
0.000

$$$$

  -OEChem-04052320103D

 86 94  0     1  0  0  0  0  0999 V2000
  -22.2647  -19.3096   26.9308 C   0  0  0  0  0  0  0  0  0  0  0  0
  -23.1018  -20.0170   26.0740 C   0  0  0  0  0  0  0  0  0  0  0  0
  -26.9926  -12.6596   19.6574 C   0  0  0  0  0  0  0  0  0  0  0  0
  -25.5728  -13.1688   21.5447 C   0  0  0  0  0  0  0  0  0  0  0  0
  -20.8900  -19.5417   26.9093 C   0  0  0  0  0  0  0  0  0  0  0  0
  -22.5647  -20.9562   25.1944 C   0  0  0  0  0  0  0  0  0  0  0  0
  -25.2193  -25.2677   25.0972 C   0  0  0  0  0  0  0  0  0  0  0  0
  -26.0562  -11.7308   19.2035 C   0  0  0  0  0  0  0  0  0  0  0  0
  -24.6364  -12.2400   21.0908 C   0  0  0  0  0  0  0  0  0  0  0  0
  -26.4047  -25.2691   24.3634 C   0  0  0  0  0  0  0  0  0  0  0  0
  -24.2388   -8.8827   21.1252 C   0  0  0  0  0  0  0  0  0  0  0  0
  -23.6862   -8.0090   22.0616 C   0  0  0  0  0  0  0  0  0  0  0  0
  -25.2666  -26.3614   22.5383 C   0  0  0  0  0  0  0  0  0  0  0  0
  -21.4836   -8.8672   21.5624 C   0  0  0  0  0  0  0  0  0  0  0  0
  -26.7510  -13.3786   20.8280 C   0  0  0  0  0  0  0  0  0  0  0  0
  -29.0572  -14.0899   21.6544 C   0  0  0  0  0  0  0  0  0  0  0  0
  -20.3368  -20.4912   26.0358 C   0  0  0  0  0  0  0  0  0  0  0  0
  -24.0440  -25.8042   24.5519 C   0  0  0  0  0  0  0  0  0  0  0  0
  -21.1812  -21.2003   25.1602 C   0  0  0  0  0  0  0  0  0  0  0  0
  -24.0682  -26.3679   23.2682 C   0  0  0  0  0  0  0  0  0  0  0  0
  -24.8781  -11.5210   19.9202 C   0  0  0  0  0  0  0  0  0  0  0  0
  -26.4279  -25.8134   23.0826 C   0  0  0  0  0  0  0  0  0  0  0  0
  -23.4139   -9.7487   20.4074 C   0  0  0  0  0  0  0  0  0  0  0  0
  -22.3086   -8.0013   22.2802 C   0  0  0  0  0  0  0  0  0  0  0  0
  -22.0363   -9.7409   20.6260 C   0  0  0  0  0  0  0  0  0  0  0  0
  -27.7182  -14.3378   21.2977 C   0  0  0  0  0  0  0  0  0  0  0  0
  -29.5455  -15.3175   22.0298 C   0  0  0  0  0  0  0  0  0  0  0  0
  -29.7939  -12.8598   21.6470 C   0  0  0  0  0  0  0  0  0  0  0  0
  -21.1786  -24.6419   23.8155 C   0  0  0  0  0  0  0  0  0  0  0  0
  -20.5044  -27.7548   23.2012 C   0  0  0  0  0  0  0  0  0  0  0  0
  -22.1607  -30.5469   21.6270 C   0  0  0  0  0  0  0  0  0  0  0  0
  -27.9775  -20.9271   20.6424 C   0  0  0  0  0  0  0  0  0  0  0  0
  -18.8398  -20.6735   26.0155 C   0  0  0  0  0  0  0  0  0  0  0  0
  -22.7798  -25.8191   25.3667 C   0  0  0  0  0  0  0  0  0  0  0  0
  -22.8385  -26.9747   22.6453 C   0  0  0  0  0  0  0  0  0  0  0  0
  -18.3917  -21.9547   25.3167 C   0  0  0  0  0  0  0  0  0  0  0  0
  -28.1433  -19.4934   23.8972 C   0  0  0  0  0  0  0  0  0  0  0  0
  -19.1260  -22.1243   23.9905 C   0  0  0  0  0  0  0  0  0  0  0  0
  -28.1740  -17.9871   23.6322 C   0  0  0  0  0  0  0  0  0  0  0  0
  -27.2445  -20.2233   22.9016 C   0  0  0  0  0  0  0  0  0  0  0  0
  -32.7972  -21.5264   17.0251 C   0  0  0  0  0  0  0  0  0  0  0  0
  -27.5820  -18.4555   21.2179 C   0  0  0  0  0  0  0  0  0  0  0  0
  -32.3931  -20.4940   18.0643 C   0  0  0  0  0  0  0  0  0  0  0  0
  -20.6390  -22.2451   24.2091 C   0  0  1  0  0  0  0  0  0  0  0  0
  -21.5200  -25.9281   24.5131 C   0  0  1  0  0  0  0  0  0  0  0  0
  -28.5194  -17.6833   22.1620 C   0  0  2  0  0  0  0  0  0  0  0  0
  -30.7079  -22.7260   17.2941 C   0  0  1  0  0  0  0  0  0  0  0  0
  -30.2291  -21.7190   18.3590 C   0  0  1  0  0  0  0  0  0  0  0  0
  -21.8989  -33.0159   21.9914 C   0  0  0  0  0  0  0  0  0  0  0  0
  -30.6520  -25.1268   16.5103 C   0  0  0  0  0  0  0  0  0  0  0  0
  -29.8108  -27.6738   22.6649 C   0  0  0  0  0  0  0  0  0  0  0  0
  -18.5215  -27.5927   20.8879 C   0  0  0  0  0  0  0  0  0  0  0  0
  -19.3917  -29.7966   20.0791 C   0  0  0  0  0  0  0  0  0  0  0  0
  -18.2958  -29.6346   22.3142 C   0  0  0  0  0  0  0  0  0  0  0  0
  -25.0505  -30.8914   22.1649 C   0  0  0  0  0  0  0  0  0  0  0  0
  -28.7243  -21.4741   18.3397 C   0  0  0  0  0  0  0  0  0  0  0  0
  -30.1177  -26.1007   20.7361 C   0  0  0  0  0  0  0  0  0  0  0  0
  -29.6859  -25.6506   19.3394 C   0  0  0  0  0  0  0  0  0  0  0  0
  -27.7662  -26.8797   21.4311 C   0  0  0  0  0  0  0  0  0  1  0  0
  -20.6024  -28.6512   21.9905 C   0  0  1  0  0  0  0  0  0  0  0  0
  -22.7204  -31.7781   22.3166 C   0  0  2  0  0  0  0  0  0  0  0  0
  -30.1481  -24.1284   17.5422 C   0  0  2  0  0  0  0  0  0  0  0  0
  -29.2512  -27.2445   21.3036 C   0  0  1  0  0  0  0  0  0  0  0  0
  -19.2205  -28.8967   21.3216 C   0  0  0  0  0  0  0  0  0  0  0  0
  -27.3774  -15.6220   21.4344 N   0  0  0  0  0  0  0  0  0  0  0  0
  -28.5094  -16.1920   21.8813 N   0  0  0  0  0  0  0  0  0  0  0  0
  -32.1773  -22.8268   17.2833 N   0  0  0  0  0  0  0  0  0  0  0  0
  -21.6253  -26.9597   23.4793 N   0  0  0  0  0  0  0  0  0  0  0  0
  -27.6256  -19.8936   21.5261 N   0  0  0  0  0  0  0  0  0  0  0  0
  -30.7556  -15.7235   22.4693 N   0  0  0  0  0  0  0  0  0  0  0  0
  -29.7877  -12.0704   22.8050 N   0  0  0  0  0  0  0  0  0  0  0  0
  -20.9786  -23.5743   24.6698 N   0  0  0  0  0  0  0  0  0  0  0  0
  -21.2751  -29.8667   22.4358 N   0  0  0  0  0  0  0  0  0  0  0  0
  -28.3318  -20.5273   19.3597 N   0  0  0  0  0  0  0  0  0  0  0  0
  -30.5523  -24.5755   18.8672 N   0  0  0  0  0  0  0  0  0  0  0  0
  -30.9042  -20.3993   18.0944 N   0  3  0  0  0  0  0  0  0  0  0  0
  -24.1260  -32.0199   21.8844 N   0  3  0  0  0  0  0  0  0  0  0  0
  -30.4519  -12.4803   20.6488 O   0  0  0  0  0  0  0  0  0  0  0  0
  -21.1009  -24.6199   22.5927 O   0  0  0  0  0  0  0  0  0  0  0  0
  -19.4742  -27.7652   23.8796 O   0  0  0  0  0  0  0  0  0  0  0  0
  -22.4747  -30.2232   20.4837 O   0  0  0  0  0  0  0  0  0  0  0  0
  -27.9813  -22.1176   20.9737 O   0  0  0  0  0  0  0  0  0  0  0  0
  -23.9640  -10.6149   19.4775 O   0  0  0  0  0  0  0  0  0  0  0  0
  -27.5835  -25.8155   22.3640 O   0  0  0  0  0  0  0  0  0  1  0  0
  -21.7779   -7.1611   23.1784 F   0  0  0  0  0  0  0  0  0  0  0  0
  -21.2385  -10.5697   19.9386 F   0  0  0  0  0  0  0  0  0  0  0  0
  1  2  1  0  0  0  0
  1  5  2  0  0  0  0
  2  6  2  0  0  0  0
  3  8  2  0  0  0  0
  3 15  1  0  0  0  0
  4  9  1  0  0  0  0
  4 15  2  0  0  0  0
  5 17  1  0  0  0  0
  6 19  1  0  0  0  0
  7 10  2  0  0  0  0
  7 18  1  0  0  0  0
  8 21  1  0  0  0  0
  9 21  2  0  0  0  0
 10 22  1  0  0  0  0
 11 12  2  0  0  0  0
 11 23  1  0  0  0  0
 12 24  1  0  0  0  0
 13 20  1  0  0  0  0
 13 22  2  0  0  0  0
 14 24  2  0  0  0  0
 14 25  1  0  0  0  0
 15 26  1  0  0  0  0
 16 26  1  0  0  0  0
 16 27  2  0  0  0  0
 16 28  1  0  0  0  0
 17 19  2  0  0  0  0
 17 33  1  0  0  0  0
 18 20  2  0  0  0  0
 18 34  1  0  0  0  0
 19 44  1  0  0  0  0
 20 35  1  0  0  0  0
 21 83  1  0  0  0  0
 22 84  1  0  0  0  0
 23 25  2  0  0  0  0
 23 83  1  0  0  0  0
 24 85  1  0  0  0  0
 25 86  1  0  0  0  0
 26 65  2  0  0  0  0
 27 66  1  0  0  0  0
 27 70  1  0  0  0  0
 28 71  1  0  0  0  0
 28 78  2  0  0  0  0
 29 45  1  0  0  0  0
 29 72  1  0  0  0  0
 29 79  2  0  0  0  0
 30 60  1  0  0  0  0
 30 68  1  0  0  0  0
 30 80  2  0  0  0  0
 31 61  1  0  0  0  0
 31 73  1  0  0  0  0
 31 81  2  0  0  0  0
 32 69  1  0  0  0  0
 32 74  1  0  0  0  0
 32 82  2  0  0  0  0
 33 36  1  0  0  0  0
 34 45  1  0  0  0  0
 35 68  1  0  0  0  0
 36 38  1  0  0  0  0
 37 39  1  0  0  0  0
 37 40  1  0  0  0  0
 38 44  1  0  0  0  0
 39 46  1  0  0  0  0
 40 69  1  0  0  0  0
 41 43  1  0  0  0  0
 41 67  1  0  0  0  0
 42 46  1  0  0  0  0
 42 69  1  0  0  0  0
 43 76  1  0  0  0  0
 44 72  1  0  0  0  0
 45 68  1  0  0  0  0
 46 66  1  0  0  0  0
 47 48  1  0  0  0  0
 47 62  1  0  0  0  0
 47 67  1  0  0  0  0
 48 56  1  0  0  0  0
 48 76  1  0  0  0  0
 49 61  1  0  0  0  0
 50 62  1  0  0  0  0
 51 63  1  0  0  0  0
 52 64  1  0  0  0  0
 53 64  1  0  0  0  0
 54 64  1  0  0  0  0
 55 77  1  0  0  0  0
 56 74  1  0  0  0  0
 57 58  1  0  0  0  0
 57 63  1  0  0  0  0
 58 75  1  0  0  0  0
 59 63  1  0  0  0  0
 59 84  1  0  0  0  0
 60 64  1  0  0  0  0
 60 73  1  0  0  0  0
 61 77  1  0  0  0  0
 62 75  1  0  0  0  0
 65 66  1  0  0  0  0
M  CHG  2  76   1  77   1
M  ISO  4  32 100  59 101  74 100  84 101
M  END
> <Batch ID>
0115

> <Smiles>
CNC(C)C(=O)NC(C(=O)N1Cc2cc([101O:1][101CH2:1]C(C)CCNC(C)C3NCCNC3C[100NH:0][100C:0](=O)N3CCCC(n4nc(-c5ccc(Oc6ccc(F)cc6F)cc5)c(C(N)=O)c4N)C3)ccc2CC1C(=O)NC1CCCc2ccccc21)C(C)(C)C

> <Shape>
0.249

> <Color>
0.037

> <Negative vol penalty>
0.000

$$$$

  -OEChem-04052320103D

 87 95  0     1  0  0  0  0  0999 V2000
  -19.8989  -34.1900   21.0532 C   0  0  0  0  0  0  0  0  0  0  0  0
  -21.1516  -33.6790   20.7292 C   0  0  0  0  0  0  0  0  0  0  0  0
  -26.4183  -14.4275   20.9923 C   0  0  0  0  0  0  0  0  0  0  0  0
  -25.4505  -12.9268   19.3650 C   0  0  0  0  0  0  0  0  0  0  0  0
  -19.1488  -33.6009   22.0702 C   0  0  0  0  0  0  0  0  0  0  0  0
  -21.6555  -32.5793   21.4229 C   0  0  0  0  0  0  0  0  0  0  0  0
  -25.1654  -28.0963   19.1670 C   0  0  0  0  0  0  0  0  0  0  0  0
  -25.1485  -14.9198   21.2936 C   0  0  0  0  0  0  0  0  0  0  0  0
  -24.1806  -13.4191   19.6662 C   0  0  0  0  0  0  0  0  0  0  0  0
  -26.5417  -27.8762   19.1993 C   0  0  0  0  0  0  0  0  0  0  0  0
  -21.8609  -13.0057   22.0888 C   0  0  0  0  0  0  0  0  0  0  0  0
  -20.8319  -12.0794   22.2584 C   0  0  0  0  0  0  0  0  0  0  0  0
  -26.2613  -26.4430   21.1193 C   0  0  0  0  0  0  0  0  0  0  0  0
  -19.6162  -13.0960   20.4348 C   0  0  0  0  0  0  0  0  0  0  0  0
  -26.5693  -13.4311   20.0279 C   0  0  0  0  0  0  0  0  0  0  0  0
  -28.5389  -11.8373   20.3250 C   0  0  0  0  0  0  0  0  0  0  0  0
  -19.6395  -32.4875   22.7702 C   0  0  0  0  0  0  0  0  0  0  0  0
  -24.3265  -27.4991   20.1188 C   0  0  0  0  0  0  0  0  0  0  0  0
  -20.9118  -31.9756   22.4511 C   0  0  0  0  0  0  0  0  0  0  0  0
  -24.8743  -26.6551   21.0953 C   0  0  0  0  0  0  0  0  0  0  0  0
  -24.0296  -14.4156   20.6306 C   0  0  0  0  0  0  0  0  0  0  0  0
  -27.0902  -27.0518   20.1774 C   0  0  0  0  0  0  0  0  0  0  0  0
  -21.7675  -13.9772   21.0921 C   0  0  0  0  0  0  0  0  0  0  0  0
  -19.7095  -12.1246   21.4314 C   0  0  0  0  0  0  0  0  0  0  0  0
  -20.6452  -14.0223   20.2651 C   0  0  0  0  0  0  0  0  0  0  0  0
  -27.8808  -12.9225   19.7159 C   0  0  0  0  0  0  0  0  0  0  0  0
  -29.7470  -11.7603   19.6762 C   0  0  0  0  0  0  0  0  0  0  0  0
  -28.0975  -10.9758   21.3827 C   0  0  0  0  0  0  0  0  0  0  0  0
  -22.3698  -28.5813   22.3780 C   0  0  0  0  0  0  0  0  0  0  0  0
  -21.6107  -25.4418   22.6781 C   0  0  0  0  0  0  0  0  0  0  0  0
  -22.5298  -22.1843   22.2414 C   0  0  0  0  0  0  0  0  0  0  0  0
  -29.1188  -16.1020   16.5270 C   0  0  0  0  0  0  0  0  0  0  0  0
  -18.8126  -31.9140   23.8935 C   0  0  0  0  0  0  0  0  0  0  0  0
  -22.8409  -27.7252   20.0539 C   0  0  0  0  0  0  0  0  0  0  0  0
  -24.0147  -25.9740   22.1276 C   0  0  0  0  0  0  0  0  0  0  0  0
  -19.2580  -30.5198   24.3274 C   0  0  0  0  0  0  0  0  0  0  0  0
  -29.8291  -12.8381   15.4332 C   0  0  0  0  0  0  0  0  0  0  0  0
  -20.7738  -30.4706   24.4911 C   0  0  0  0  0  0  0  0  0  0  0  0
  -30.7760  -12.2705   16.4870 C   0  0  0  0  0  0  0  0  0  0  0  0
  -30.1327  -14.3046   15.1629 C   0  0  0  0  0  0  0  0  0  0  0  0
  -30.8130  -17.7095   17.5012 C   0  0  0  0  0  0  0  0  0  0  0  0
  -30.9707  -14.6314   17.4737 C   0  0  0  0  0  0  0  0  0  0  0  0
  -30.9482  -19.1412   16.9999 C   0  0  0  0  0  0  0  0  0  0  0  0
  -28.5079  -19.4970   17.3705 C   0  0  0  0  0  0  0  0  0  0  0  0
  -21.4820  -30.7686   23.1640 C   0  0  1  0  0  0  0  0  0  0  0  0
  -22.1399  -27.4765   21.3859 C   0  0  1  0  0  0  0  0  0  0  0  0
  -30.8455  -13.1196   17.7684 C   0  0  1  0  0  0  0  0  0  0  0  0
  -28.3638  -18.0561   17.8627 C   0  0  2  0  0  0  0  0  0  0  0  0
  -22.3019  -19.6855   22.2046 C   0  0  0  0  0  0  0  0  0  0  0  0
  -25.7800  -18.3577   19.4908 C   0  0  0  0  0  0  0  0  0  0  0  0
  -27.2027  -18.6718   21.5256 C   0  0  0  0  0  0  0  0  0  0  0  0
  -28.7532  -24.2022   16.7359 C   0  0  0  0  0  0  0  0  0  0  0  0
  -30.4290  -26.7941   18.9091 C   0  0  0  0  0  0  0  0  0  0  0  0
  -22.2349  -25.7041   25.6532 C   0  0  0  0  0  0  0  0  0  0  0  0
  -22.3338  -23.2057   25.7815 C   0  0  0  0  0  0  0  0  0  0  0  0
  -20.2080  -24.3362   25.1292 C   0  0  0  0  0  0  0  0  0  0  0  0
  -21.4946  -22.2035   19.4689 C   0  0  0  0  0  0  0  0  0  0  0  0
  -28.2945  -17.9561   19.3896 C   0  0  0  0  0  0  0  0  0  0  0  0
  -29.4220  -22.3668   18.3021 C   0  0  0  0  0  0  0  0  0  0  0  0
  -28.9826  -24.7122   19.2186 C   0  0  0  0  0  0  0  0  0  0  0  0
  -30.0509  -21.4519   17.2554 C   0  0  0  0  0  0  0  0  0  0  0  0
  -22.1378  -24.2880   23.4965 C   0  0  1  0  0  0  0  0  0  0  0  0
  -21.7931  -21.0020   21.6382 C   0  0  2  0  0  0  0  0  0  0  0  0
  -27.1570  -18.7861   20.0001 C   0  0  0  0  0  0  0  0  0  0  0  0
  -29.5143  -23.8867   18.0296 C   0  0  2  0  0  0  0  0  0  0  0  0
  -29.0195  -26.2377   19.0500 C   0  0  1  0  0  0  0  0  0  1  0  0
  -21.7453  -24.3977   24.9970 C   0  0  0  0  0  0  0  0  0  0  0  0
  -28.6105  -13.4940   18.7541 N   0  0  0  0  0  0  0  0  0  0  0  0
  -29.7396  -12.7652   18.7541 N   0  0  0  0  0  0  0  0  0  0  0  0
  -22.5687  -26.2314   22.0264 N   0  0  0  0  0  0  0  0  0  0  0  0
  -30.0885  -15.0949   16.3920 N   0  0  0  0  0  0  0  0  0  0  0  0
  -29.4430  -17.2021   17.3369 N   0  0  0  0  0  0  0  0  0  0  0  0
  -30.8044  -10.9319   19.8103 N   0  0  0  0  0  0  0  0  0  0  0  0
  -26.8289  -11.1942   21.9369 N   0  0  0  0  0  0  0  0  0  0  0  0
  -21.4477  -29.6075   22.3009 N   0  0  0  0  0  0  0  0  0  0  0  0
  -21.6637  -23.0733   22.8422 N   0  0  0  0  0  0  0  0  0  0  0  0
  -29.8997  -20.0080   17.6474 N   0  3  2  0  0  0  0  0  0  0  0  0
  -21.9743  -20.9786   20.1592 N   0  3  0  0  0  0  0  0  0  0  0  0
  -28.8138  -10.0503   21.8344 O   0  0  0  0  0  0  0  0  0  0  0  0
  -23.3131  -28.5074   23.1567 O   0  0  0  0  0  0  0  0  0  0  0  0
  -20.3935  -25.6311   22.6134 O   0  0  0  0  0  0  0  0  0  0  0  0
  -23.7518  -22.3052   22.1885 O   0  0  0  0  0  0  0  0  0  0  0  0
  -28.0177  -16.0145   15.9688 O   0  0  0  0  0  0  0  0  0  0  0  0
  -22.7903  -14.8955   20.9245 O   0  0  0  0  0  0  0  0  0  0  0  0
  -28.4395  -26.8348   20.2118 O   0  0  0  0  0  0  0  0  0  1  0  0
  -18.7222  -11.2341   21.5935 F   0  0  0  0  0  0  0  0  0  0  0  0
  -20.5504  -14.9525   19.3052 F   0  0  0  0  0  0  0  0  0  0  0  0
  1  2  1  0  0  0  0
  1  5  2  0  0  0  0
  2  6  2  0  0  0  0
  3  8  2  0  0  0  0
  3 15  1  0  0  0  0
  4  9  1  0  0  0  0
  4 15  2  0  0  0  0
  5 17  1  0  0  0  0
  6 19  1  0  0  0  0
  7 10  2  0  0  0  0
  7 18  1  0  0  0  0
  8 21  1  0  0  0  0
  9 21  2  0  0  0  0
 10 22  1  0  0  0  0
 11 12  2  0  0  0  0
 11 23  1  0  0  0  0
 12 24  1  0  0  0  0
 13 20  1  0  0  0  0
 13 22  2  0  0  0  0
 14 24  2  0  0  0  0
 14 25  1  0  0  0  0
 15 26  1  0  0  0  0
 16 26  1  0  0  0  0
 16 27  2  0  0  0  0
 16 28  1  0  0  0  0
 17 19  2  0  0  0  0
 17 33  1  0  0  0  0
 18 20  2  0  0  0  0
 18 34  1  0  0  0  0
 19 45  1  0  0  0  0
 20 35  1  0  0  0  0
 21 84  1  0  0  0  0
 22 85  1  0  0  0  0
 23 25  2  0  0  0  0
 23 84  1  0  0  0  0
 24 86  1  0  0  0  0
 25 87  1  0  0  0  0
 26 68  2  0  0  0  0
 27 69  1  0  0  0  0
 27 73  1  0  0  0  0
 28 74  1  0  0  0  0
 28 79  2  0  0  0  0
 29 46  1  0  0  0  0
 29 75  1  0  0  0  0
 29 80  2  0  0  0  0
 30 62  1  0  0  0  0
 30 70  1  0  0  0  0
 30 81  2  0  0  0  0
 31 63  1  0  0  0  0
 31 76  1  0  0  0  0
 31 82  2  0  0  0  0
 32 71  1  0  0  0  0
 32 72  1  0  0  0  0
 32 83  2  0  0  0  0
 33 36  1  0  0  0  0
 34 46  1  0  0  0  0
 35 70  1  0  0  0  0
 36 38  1  0  0  0  0
 37 39  1  0  0  0  0
 37 40  1  0  0  0  0
 38 45  1  0  0  0  0
 39 47  1  0  0  0  0
 40 71  1  0  0  0  0
 41 43  1  0  0  0  0
 41 72  1  0  0  0  0
 42 47  1  0  0  0  0
 42 71  1  0  0  0  0
 43 77  1  0  0  0  0
 44 48  1  0  0  0  0
 44 77  1  0  0  0  0
 45 75  1  0  0  0  0
 46 70  1  0  0  0  0
 47 69  1  0  0  0  0
 48 58  1  0  0  0  0
 48 72  1  0  0  0  0
 49 63  1  0  0  0  0
 50 64  1  0  0  0  0
 51 64  1  0  0  0  0
 52 65  1  0  0  0  0
 53 66  1  0  0  0  0
 54 67  1  0  0  0  0
 55 67  1  0  0  0  0
 56 67  1  0  0  0  0
 57 78  1  0  0  0  0
 58 64  1  0  0  0  0
 59 61  1  0  0  0  0
 59 65  1  0  0  0  0
 60 65  1  0  0  0  0
 60 66  1  0  0  0  0
 61 77  1  0  0  0  0
 62 67  1  0  0  0  0
 62 76  1  0  0  0  0
 63 78  1  0  0  0  0
 66 85  1  0  0  0  0
 68 69  1  0  0  0  0
M  CHG  2  77   1  78   1
M  ISO  4  32 100  66 101  72 100  85 101
M  END
> <Batch ID>
0115

> <Smiles>
CNC(C)C(=O)NC(C(=O)N1Cc2cc([101O:1][101CH:1](C)CC(C)CCN3CC[100N:0]([100C:0](=O)N4CCCC(n5nc(-c6ccc(Oc7ccc(F)cc7F)cc6)c(C(N)=O)c5N)C4)C(CC(C)C)C3)ccc2CC1C(=O)NC1CCCc2ccccc21)C(C)(C)C

> <Shape>
0.213

> <Color>
0.094

> <Negative vol penalty>
0.000

$$$$

  -OEChem-04052320103D

 81 89  0     1  0  0  0  0  0999 V2000
  -18.1567  -32.3358   20.5420 C   0  0  0  0  0  0  0  0  0  0  0  0
  -19.4819  -32.2260   20.1331 C   0  0  0  0  0  0  0  0  0  0  0  0
  -27.3265  -11.7442   20.6499 C   0  0  0  0  0  0  0  0  0  0  0  0
  -26.5077  -13.3088   19.0011 C   0  0  0  0  0  0  0  0  0  0  0  0
  -17.7588  -31.7968   21.7647 C   0  0  0  0  0  0  0  0  0  0  0  0
  -20.4102  -31.5781   20.9472 C   0  0  0  0  0  0  0  0  0  0  0  0
  -25.1636  -28.1743   19.1236 C   0  0  0  0  0  0  0  0  0  0  0  0
  -26.2703  -10.8818   20.3561 C   0  0  0  0  0  0  0  0  0  0  0  0
  -25.4514  -12.4464   18.7073 C   0  0  0  0  0  0  0  0  0  0  0  0
  -26.5208  -28.4591   18.9795 C   0  0  0  0  0  0  0  0  0  0  0  0
  -22.9818  -10.6296   21.0955 C   0  0  0  0  0  0  0  0  0  0  0  0
  -22.2993  -10.0535   22.1669 C   0  0  0  0  0  0  0  0  0  0  0  0
  -26.9395  -27.5435   21.1717 C   0  0  0  0  0  0  0  0  0  0  0  0
  -29.7228  -25.6498   18.7713 C   0  0  0  0  0  0  0  0  0  0  0  0
  -22.9019   -7.8544   21.3683 C   0  0  0  0  0  0  0  0  0  0  0  0
  -29.1201  -25.0641   20.8602 C   0  0  0  0  0  0  0  0  0  0  0  0
  -27.4452  -12.9578   19.9724 C   0  0  0  0  0  0  0  0  0  0  0  0
  -29.8060  -13.8756   19.6696 C   0  0  0  0  0  0  0  0  0  0  0  0
  -18.6806  -31.1334   22.5898 C   0  0  0  0  0  0  0  0  0  0  0  0
  -24.6818  -27.5809   20.2993 C   0  0  0  0  0  0  0  0  0  0  0  0
  -20.0245  -31.0308   22.1827 C   0  0  0  0  0  0  0  0  0  0  0  0
  -25.5762  -27.2499   21.3272 C   0  0  0  0  0  0  0  0  0  0  0  0
  -29.4998  -26.1361   20.0831 C   0  0  0  0  0  0  0  0  0  0  0  0
  -25.3328  -11.2329   19.3848 C   0  0  0  0  0  0  0  0  0  0  0  0
  -27.4085  -28.1464   20.0048 C   0  0  0  0  0  0  0  0  0  0  0  0
  -23.6243   -9.8181   20.1604 C   0  0  0  0  0  0  0  0  0  0  0  0
  -22.2594   -8.6659   22.3033 C   0  0  0  0  0  0  0  0  0  0  0  0
  -23.5843   -8.4305   20.2968 C   0  0  0  0  0  0  0  0  0  0  0  0
  -28.5357  -13.8493   20.2758 C   0  0  0  0  0  0  0  0  0  0  0  0
  -29.4724  -24.2954   18.7867 C   0  0  0  0  0  0  0  0  0  0  0  0
  -30.4694  -14.8956   20.3068 C   0  0  0  0  0  0  0  0  0  0  0  0
  -30.3387  -13.0518   18.6240 C   0  0  0  0  0  0  0  0  0  0  0  0
  -22.6358  -28.4459   22.5729 C   0  0  0  0  0  0  0  0  0  0  0  0
  -23.1296  -25.4179   23.6264 C   0  0  0  0  0  0  0  0  0  0  0  0
  -25.1645  -22.6800   23.7239 C   0  0  0  0  0  0  0  0  0  0  0  0
  -29.4922  -20.1290   22.5807 C   0  0  0  0  0  0  0  0  0  0  0  0
  -18.2137  -30.6083   23.9243 C   0  0  0  0  0  0  0  0  0  0  0  0
  -23.2189  -27.2557   20.4283 C   0  0  0  0  0  0  0  0  0  0  0  0
  -25.1125  -26.5935   22.6010 C   0  0  0  0  0  0  0  0  0  0  0  0
  -19.1787  -29.6091   24.5572 C   0  0  0  0  0  0  0  0  0  0  0  0
  -29.9255  -17.2448   24.6228 C   0  0  0  0  0  0  0  0  0  0  0  0
  -20.6107  -30.1294   24.4826 C   0  0  0  0  0  0  0  0  0  0  0  0
  -29.7294  -16.0777   23.6537 C   0  0  0  0  0  0  0  0  0  0  0  0
  -28.9965  -18.4120   24.2960 C   0  0  0  0  0  0  0  0  0  0  0  0
  -28.8724  -17.7222   21.9332 C   0  0  0  0  0  0  0  0  0  0  0  0
  -21.0557  -30.3135   23.0267 C   0  0  1  0  0  0  0  0  0  0  0  0
  -22.7626  -27.1199   21.8777 C   0  0  1  0  0  0  0  0  0  0  0  0
  -29.8268  -16.5431   22.1884 C   0  0  2  0  0  0  0  0  0  0  0  0
  -29.5517  -23.3042   17.6937 C   0  0  0  0  0  0  0  0  0  0  0  0
  -31.0620  -28.0968   20.3254 C   0  0  0  0  0  0  0  0  0  0  0  0
  -25.3156  -20.3715   24.6962 C   0  0  0  0  0  0  0  0  0  0  0  0
  -23.8293  -26.6117   26.3458 C   0  0  0  0  0  0  0  0  0  0  0  0
  -24.8640  -24.4176   26.9649 C   0  0  0  0  0  0  0  0  0  0  0  0
  -22.4277  -24.5429   26.4442 C   0  0  0  0  0  0  0  0  0  0  0  0
  -25.2576  -21.4310   21.0424 C   0  0  0  0  0  0  0  0  0  0  0  0
  -28.7574  -22.6213   20.5129 C   0  0  0  0  0  0  0  0  0  0  0  0
  -29.9756  -21.7322   20.7489 C   0  0  0  0  0  0  0  0  0  0  0  0
  -29.6507  -27.5671   20.5461 C   0  0  1  0  0  0  0  0  0  1  0  0
  -24.1088  -24.7600   24.5684 C   0  0  1  0  0  0  0  0  0  0  0  0
  -24.8806  -21.2054   23.5012 C   0  0  2  0  0  0  0  0  0  0  0  0
  -23.8162  -25.0972   26.0577 C   0  0  0  0  0  0  0  0  0  0  0  0
  -28.3981  -14.7786   21.2253 N   0  0  0  0  0  0  0  0  0  0  0  0
  -29.1066  -23.9505   20.0616 N   0  0  0  0  0  0  0  0  0  0  0  0
  -29.5905  -15.3984   21.2206 N   0  0  0  0  0  0  0  0  0  0  0  0
  -23.6719  -26.3012   22.6822 N   0  0  0  0  0  0  0  0  0  0  0  0
  -29.1389  -18.8058   22.8922 N   0  0  0  0  0  0  0  0  0  0  0  0
  -31.7130  -15.4024   20.1691 N   0  0  0  0  0  0  0  0  0  0  0  0
  -29.5221  -12.0507   18.0806 N   0  0  0  0  0  0  0  0  0  0  0  0
  -21.3939  -29.0363   22.4362 N   0  0  0  0  0  0  0  0  0  0  0  0
  -24.0761  -23.3343   24.2609 N   0  0  0  0  0  0  0  0  0  0  0  0
  -29.6122  -20.4167   21.2266 N   0  0  0  0  0  0  0  0  0  0  0  0
  -25.6067  -20.7143   22.2961 N   0  3  0  0  0  0  0  0  0  0  0  0
  -31.5098  -13.1884   18.1959 O   0  0  0  0  0  0  0  0  0  0  0  0
  -23.5932  -28.8990   23.1890 O   0  0  0  0  0  0  0  0  0  0  0  0
  -21.9287  -25.1522   23.7201 O   0  0  0  0  0  0  0  0  0  0  0  0
  -26.2452  -23.1986   23.4524 O   0  0  0  0  0  0  0  0  0  0  0  0
  -29.6916  -20.9890   23.4454 O   0  0  0  0  0  0  0  0  0  0  0  0
  -24.3021  -10.3915   19.0977 O   0  0  0  0  0  0  0  0  0  0  0  0
  -28.7336  -28.4239   19.8670 O   0  0  0  0  0  0  0  0  0  1  0  0
  -21.6052   -8.1129   23.3331 F   0  0  0  0  0  0  0  0  0  0  0  0
  -24.2007   -7.6457   19.4024 F   0  0  0  0  0  0  0  0  0  0  0  0
  1  2  1  0  0  0  0
  1  5  2  0  0  0  0
  2  6  2  0  0  0  0
  3  8  2  0  0  0  0
  3 17  1  0  0  0  0
  4  9  1  0  0  0  0
  4 17  2  0  0  0  0
  5 19  1  0  0  0  0
  6 21  1  0  0  0  0
  7 10  2  0  0  0  0
  7 20  1  0  0  0  0
  8 24  1  0  0  0  0
  9 24  2  0  0  0  0
 10 25  1  0  0  0  0
 11 12  2  0  0  0  0
 11 26  1  0  0  0  0
 12 27  1  0  0  0  0
 13 22  1  0  0  0  0
 13 25  2  0  0  0  0
 14 23  1  0  0  0  0
 14 30  2  0  0  0  0
 15 27  2  0  0  0  0
 15 28  1  0  0  0  0
 16 23  2  0  0  0  0
 16 63  1  0  0  0  0
 17 29  1  0  0  0  0
 18 29  1  0  0  0  0
 18 31  2  0  0  0  0
 18 32  1  0  0  0  0
 19 21  2  0  0  0  0
 19 37  1  0  0  0  0
 20 22  2  0  0  0  0
 20 38  1  0  0  0  0
 21 46  1  0  0  0  0
 22 39  1  0  0  0  0
 23 58  1  0  0  0  0
 24 78  1  0  0  0  0
 25 79  1  0  0  0  0
 26 28  2  0  0  0  0
 26 78  1  0  0  0  0
 27 80  1  0  0  0  0
 28 81  1  0  0  0  0
 29 62  2  0  0  0  0
 30 49  1  0  0  0  0
 30 63  1  0  0  0  0
 31 64  1  0  0  0  0
 31 67  1  0  0  0  0
 32 68  1  0  0  0  0
 32 73  2  0  0  0  0
 33 47  1  0  0  0  0
 33 69  1  0  0  0  0
 33 74  2  0  0  0  0
 34 59  1  0  0  0  0
 34 65  1  0  0  0  0
 34 75  2  0  0  0  0
 35 60  1  0  0  0  0
 35 70  1  0  0  0  0
 35 76  2  0  0  0  0
 36 66  1  0  0  0  0
 36 71  1  0  0  0  0
 36 77  2  0  0  0  0
 37 40  1  0  0  0  0
 38 47  1  0  0  0  0
 39 65  1  0  0  0  0
 40 42  1  0  0  0  0
 41 43  1  0  0  0  0
 41 44  1  0  0  0  0
 42 46  1  0  0  0  0
 43 48  1  0  0  0  0
 44 66  1  0  0  0  0
 45 48  1  0  0  0  0
 45 66  1  0  0  0  0
 46 69  1  0  0  0  0
 47 65  1  0  0  0  0
 48 64  1  0  0  0  0
 50 58  1  0  0  0  0
 51 60  1  0  0  0  0
 52 61  1  0  0  0  0
 53 61  1  0  0  0  0
 54 61  1  0  0  0  0
 55 72  1  0  0  0  0
 56 57  1  0  0  0  0
 56 63  1  0  0  0  0
 57 71  1  0  0  0  0
 58 79  1  0  0  0  0
 59 61  1  0  0  0  0
 59 70  1  0  0  0  0
 60 72  1  0  0  0  0
 62 64  1  0  0  0  0
M  CHG  1  72   1
M  ISO  4  36 100  58 101  71 100  79 101
M  END
> <Batch ID>
0115

> <Smiles>
CNC(C)C(=O)NC(C(=O)N1Cc2cc([101O:1][101CH:1](C)c3cc(C)n(CC[100NH:0][100C:0](=O)N4CCCC(n5nc(-c6ccc(Oc7ccc(F)cc7F)cc6)c(C(N)=O)c5N)C4)c3)ccc2CC1C(=O)NC1CCCc2ccccc21)C(C)(C)C

> <Shape>
0.248

> <Color>
0.089

> <Negative vol penalty>
0.000

$$$$

  -OEChem-04052320103D

 83 92  0     1  0  0  0  0  0999 V2000
  -28.2226  -35.6843   24.1278 C   0  0  0  0  0  0  0  0  0  0  0  0
  -29.0398  -34.6433   23.6990 C   0  0  0  0  0  0  0  0  0  0  0  0
  -23.3187   -9.6361   21.2027 C   0  0  0  0  0  0  0  0  0  0  0  0
  -24.0058  -10.4751   23.3617 C   0  0  0  0  0  0  0  0  0  0  0  0
  -26.8892  -35.4349   24.4501 C   0  0  0  0  0  0  0  0  0  0  0  0
  -28.5244  -33.3520   23.5932 C   0  0  0  0  0  0  0  0  0  0  0  0
  -29.1707  -27.3860   19.6809 C   0  0  0  0  0  0  0  0  0  0  0  0
  -22.6735   -8.5666   21.8237 C   0  0  0  0  0  0  0  0  0  0  0  0
  -23.3606   -9.4057   23.9826 C   0  0  0  0  0  0  0  0  0  0  0  0
  -29.3816  -26.0162   19.8324 C   0  0  0  0  0  0  0  0  0  0  0  0
  -23.5307   -5.6022   23.2027 C   0  0  0  0  0  0  0  0  0  0  0  0
  -23.7172   -4.3306   22.6606 C   0  0  0  0  0  0  0  0  0  0  0  0
  -27.0423  -25.7183   20.3402 C   0  0  0  0  0  0  0  0  0  0  0  0
  -21.3391   -4.1451   22.2772 C   0  0  0  0  0  0  0  0  0  0  0  0
  -29.9482  -20.9421   19.2710 C   0  0  0  0  0  0  0  0  0  0  0  0
  -23.9849  -10.5904   21.9717 C   0  0  0  0  0  0  0  0  0  0  0  0
  -24.1035  -12.9529   21.0168 C   0  0  0  0  0  0  0  0  0  0  0  0
  -26.3546  -34.1416   24.3389 C   0  0  0  0  0  0  0  0  0  0  0  0
  -27.8940  -27.9347   19.8689 C   0  0  0  0  0  0  0  0  0  0  0  0
  -27.1829  -33.0848   23.9155 C   0  0  0  0  0  0  0  0  0  0  0  0
  -26.8173  -27.0950   20.1880 C   0  0  0  0  0  0  0  0  0  0  0  0
  -29.8628  -21.8744   20.2939 C   0  0  0  0  0  0  0  0  0  0  0  0
  -29.7921  -21.1738   21.5390 C   0  0  0  0  0  0  0  0  0  0  0  0
  -22.6944   -8.4514   23.2136 C   0  0  0  0  0  0  0  0  0  0  0  0
  -28.3180  -25.1825   20.1649 C   0  0  0  0  0  0  0  0  0  0  0  0
  -22.2483   -6.1452   23.2821 C   0  0  0  0  0  0  0  0  0  0  0  0
  -22.6215   -3.6021   22.1978 C   0  0  0  0  0  0  0  0  0  0  0  0
  -21.1525   -5.4167   22.8194 C   0  0  0  0  0  0  0  0  0  0  0  0
  -24.6520  -11.6950   21.3309 C   0  0  0  0  0  0  0  0  0  0  0  0
  -29.8374  -19.8419   21.2251 C   0  0  0  0  0  0  0  0  0  0  0  0
  -25.1348  -13.6387   20.4230 C   0  0  0  0  0  0  0  0  0  0  0  0
  -22.7800  -13.4565   21.2418 C   0  0  0  0  0  0  0  0  0  0  0  0
  -26.6354  -30.0498   21.8803 C   0  0  0  0  0  0  0  0  0  0  0  0
  -24.0134  -29.6897   20.0047 C   0  0  0  0  0  0  0  0  0  0  0  0
  -22.2599  -27.7414   17.8193 C   0  0  0  0  0  0  0  0  0  0  0  0
  -30.4976  -15.1739   20.2532 C   0  0  0  0  0  0  0  0  0  0  0  0
  -24.9200  -33.9119   24.7438 C   0  0  0  0  0  0  0  0  0  0  0  0
  -27.6776  -29.4105   19.6755 C   0  0  0  0  0  0  0  0  0  0  0  0
  -25.4232  -27.6315   20.3807 C   0  0  0  0  0  0  0  0  0  0  0  0
  -29.8234  -18.5083   21.8630 C   0  0  0  0  0  0  0  0  0  0  0  0
  -24.3517  -32.5854   24.2461 C   0  0  0  0  0  0  0  0  0  0  0  0
  -29.6494  -12.0367   18.7988 C   0  0  0  0  0  0  0  0  0  0  0  0
  -25.3346  -31.4499   24.5128 C   0  0  0  0  0  0  0  0  0  0  0  0
  -28.2316  -11.7693   19.3069 C   0  0  0  0  0  0  0  0  0  0  0  0
  -29.9877  -18.3608   19.4014 C   0  0  0  0  0  0  0  0  0  0  0  0
  -30.5067  -12.7287   19.8562 C   0  0  0  0  0  0  0  0  0  0  0  0
  -28.5066  -13.6960   20.9228 C   0  0  0  0  0  0  0  0  0  0  0  0
  -26.6539  -31.6750   23.7642 C   0  0  1  0  0  0  0  0  0  0  0  0
  -26.4378  -29.9321   20.3954 C   0  0  1  0  0  0  0  0  0  0  0  0
  -27.5877  -13.0497   19.8720 C   0  0  2  0  0  0  0  0  0  0  0  0
  -30.3342  -17.6091   20.7028 C   0  0  2  0  0  0  0  0  0  0  0  0
  -30.9020  -21.4168   23.7890 C   0  0  0  0  0  0  0  0  0  0  0  0
  -28.3870  -21.3746   23.6221 C   0  0  0  0  0  0  0  0  0  0  0  0
  -20.1342  -27.6992   16.4862 C   0  0  0  0  0  0  0  0  0  0  0  0
  -22.4367  -29.0723   22.5430 C   0  0  0  0  0  0  0  0  0  0  0  0
  -20.6198  -28.1292   21.1015 C   0  0  0  0  0  0  0  0  0  0  0  0
  -21.2434  -30.5365   20.9039 C   0  0  0  0  0  0  0  0  0  0  0  0
  -23.7330  -27.5703   15.2581 C   0  0  0  0  0  0  0  0  0  0  0  0
  -29.8499  -23.3641   20.1151 C   0  0  0  0  0  0  0  0  0  1  0  0
  -29.6926  -21.7610   22.8878 C   0  0  0  0  0  0  0  0  0  0  0  0
  -22.8154  -28.7712   20.0068 C   0  0  1  0  0  0  0  0  0  0  0  0
  -21.6120  -28.0584   16.4836 C   0  0  2  0  0  0  0  0  0  0  0  0
  -21.8053  -29.1171   21.1371 C   0  0  0  0  0  0  0  0  0  0  0  0
  -25.9323  -11.5854   20.9666 N   0  0  0  0  0  0  0  0  0  0  0  0
  -29.9248  -19.7343   19.8684 N   0  0  0  0  0  0  0  0  0  0  0  0
  -26.1969  -12.7831   20.4174 N   0  0  0  0  0  0  0  0  0  0  0  0
  -25.2638  -29.0822   20.1869 N   0  0  0  0  0  0  0  0  0  0  0  0
  -29.8403  -13.9363   20.3497 N   0  0  0  0  0  0  0  0  0  0  0  0
  -25.2276  -14.8840   19.9103 N   0  0  0  0  0  0  0  0  0  0  0  0
  -21.8436  -12.6198   21.8642 N   0  0  0  0  0  0  0  0  0  0  0  0
  -26.5050  -31.3373   22.3649 N   0  0  0  0  0  0  0  0  0  0  0  0
  -22.2518  -28.8323   18.6626 N   0  0  0  0  0  0  0  0  0  0  0  0
  -29.7930  -16.2687   20.7385 N   0  0  0  0  0  0  0  0  0  0  0  0
  -22.2790  -27.2960   15.3904 N   0  3  0  0  0  0  0  0  0  0  0  0
  -22.4333  -14.6084   20.8862 O   0  0  0  0  0  0  0  0  0  0  0  0
  -26.8860  -29.0466   22.5379 O   0  0  0  0  0  0  0  0  0  0  0  0
  -23.8465  -30.9008   19.8401 O   0  0  0  0  0  0  0  0  0  0  0  0
  -22.7234  -26.6355   18.0890 O   0  0  0  0  0  0  0  0  0  0  0  0
  -31.6264  -15.2950   19.7653 O   0  0  0  0  0  0  0  0  0  0  0  0
  -22.0648   -7.4081   23.8199 O   0  0  0  0  0  0  0  0  0  0  0  0
  -28.5212  -23.8453   20.3141 O   0  0  0  0  0  0  0  0  0  1  0  0
  -22.8010   -2.3816   21.6758 F   0  0  0  0  0  0  0  0  0  0  0  0
  -19.9182   -5.9336   22.8919 F   0  0  0  0  0  0  0  0  0  0  0  0
  1  2  1  0  0  0  0
  1  5  2  0  0  0  0
  2  6  2  0  0  0  0
  3  8  2  0  0  0  0
  3 16  1  0  0  0  0
  4  9  1  0  0  0  0
  4 16  2  0  0  0  0
  5 18  1  0  0  0  0
  6 20  1  0  0  0  0
  7 10  2  0  0  0  0
  7 19  1  0  0  0  0
  8 24  1  0  0  0  0
  9 24  2  0  0  0  0
 10 25  1  0  0  0  0
 11 12  2  0  0  0  0
 11 26  1  0  0  0  0
 12 27  1  0  0  0  0
 13 21  1  0  0  0  0
 13 25  2  0  0  0  0
 14 27  2  0  0  0  0
 14 28  1  0  0  0  0
 15 22  2  0  0  0  0
 15 65  1  0  0  0  0
 16 29  1  0  0  0  0
 17 29  1  0  0  0  0
 17 31  2  0  0  0  0
 17 32  1  0  0  0  0
 18 20  2  0  0  0  0
 18 37  1  0  0  0  0
 19 21  2  0  0  0  0
 19 38  1  0  0  0  0
 20 48  1  0  0  0  0
 21 39  1  0  0  0  0
 22 23  1  0  0  0  0
 22 59  1  0  0  0  0
 23 30  2  0  0  0  0
 23 60  1  0  0  0  0
 24 80  1  0  0  0  0
 25 81  1  0  0  0  0
 26 28  2  0  0  0  0
 26 80  1  0  0  0  0
 27 82  1  0  0  0  0
 28 83  1  0  0  0  0
 29 64  2  0  0  0  0
 30 40  1  0  0  0  0
 30 65  1  0  0  0  0
 31 66  1  0  0  0  0
 31 69  1  0  0  0  0
 32 70  1  0  0  0  0
 32 75  2  0  0  0  0
 33 49  1  0  0  0  0
 33 71  1  0  0  0  0
 33 76  2  0  0  0  0
 34 61  1  0  0  0  0
 34 67  1  0  0  0  0
 34 77  2  0  0  0  0
 35 62  1  0  0  0  0
 35 72  1  0  0  0  0
 35 78  2  0  0  0  0
 36 68  1  0  0  0  0
 36 73  1  0  0  0  0
 36 79  2  0  0  0  0
 37 41  1  0  0  0  0
 38 49  1  0  0  0  0
 39 67  1  0  0  0  0
 40 51  1  0  0  0  0
 41 43  1  0  0  0  0
 42 44  1  0  0  0  0
 42 46  1  0  0  0  0
 43 48  1  0  0  0  0
 44 50  1  0  0  0  0
 45 51  1  0  0  0  0
 45 65  1  0  0  0  0
 46 68  1  0  0  0  0
 47 50  1  0  0  0  0
 47 68  1  0  0  0  0
 48 71  1  0  0  0  0
 49 67  1  0  0  0  0
 50 66  1  0  0  0  0
 51 73  1  0  0  0  0
 52 60  1  0  0  0  0
 53 60  1  0  0  0  0
 54 62  1  0  0  0  0
 55 63  1  0  0  0  0
 56 63  1  0  0  0  0
 57 63  1  0  0  0  0
 58 74  1  0  0  0  0
 59 81  1  0  0  0  0
 61 63  1  0  0  0  0
 61 72  1  0  0  0  0
 62 74  1  0  0  0  0
 64 66  1  0  0  0  0
M  CHG  1  74   1
M  ISO  4  36 100  59 101  73 100  81 101
M  END
> <Batch ID>
0115

> <Smiles>
CNC(C)C(=O)NC(C(=O)N1Cc2cc([101O:1][101CH2:1]c3cn4c(c3C(C)C)CC([100NH:0][100C:0](=O)N3CCCC(n5nc(-c6ccc(Oc7ccc(F)cc7F)cc6)c(C(N)=O)c5N)C3)C4)ccc2CC1C(=O)NC1CCCc2ccccc21)C(C)(C)C

> <Shape>
0.377

> <Color>
0.158

> <Negative vol penalty>
0.000

$$$$

  -OEChem-04052320103D

 87 95  0     1  0  0  0  0  0999 V2000
  -25.7983  -11.5306   16.8307 C   0  0  0  0  0  0  0  0  0  0  0  0
  -25.0080  -12.6722   16.7433 C   0  0  0  0  0  0  0  0  0  0  0  0
  -28.2649  -25.9274   17.8633 C   0  0  0  0  0  0  0  0  0  0  0  0
  -28.8157  -25.4587   20.1685 C   0  0  0  0  0  0  0  0  0  0  0  0
  -26.1929  -11.0513   18.0791 C   0  0  0  0  0  0  0  0  0  0  0  0
  -24.6111  -13.3346   17.9043 C   0  0  0  0  0  0  0  0  0  0  0  0
  -23.8622  -19.3698   18.6264 C   0  0  0  0  0  0  0  0  0  0  0  0
  -19.6765  -29.1123   22.0032 C   0  0  0  0  0  0  0  0  0  0  0  0
  -19.9317  -27.7901   24.0091 C   0  0  0  0  0  0  0  0  0  0  0  0
  -29.4862  -25.3867   17.4614 C   0  0  0  0  0  0  0  0  0  0  0  0
  -30.0371  -24.9179   19.7666 C   0  0  0  0  0  0  0  0  0  0  0  0
  -22.7311  -20.1845   18.5999 C   0  0  0  0  0  0  0  0  0  0  0  0
  -19.4340  -27.9515   21.2688 C   0  0  0  0  0  0  0  0  0  0  0  0
  -19.6891  -26.6292   23.2747 C   0  0  0  0  0  0  0  0  0  0  0  0
  -33.1452  -23.0856   19.3185 C   0  0  0  0  0  0  0  0  0  0  0  0
  -33.5415  -21.8784   19.8941 C   0  0  0  0  0  0  0  0  0  0  0  0
  -22.5952  -20.0636   21.0054 C   0  0  0  0  0  0  0  0  0  0  0  0
  -31.5595  -20.8100   19.0182 C   0  0  0  0  0  0  0  0  0  0  0  0
  -27.9296  -25.9635   19.2168 C   0  0  0  0  0  0  0  0  0  0  0  0
  -25.4460  -25.8412   19.7864 C   0  0  0  0  0  0  0  0  0  0  0  0
  -25.8086  -11.7137   19.2556 C   0  0  0  0  0  0  0  0  0  0  0  0
  -24.3628  -18.8863   19.8437 C   0  0  0  0  0  0  0  0  0  0  0  0
  -24.9998  -12.8630   19.1697 C   0  0  0  0  0  0  0  0  0  0  0  0
  -23.7343  -19.2451   21.0447 C   0  0  0  0  0  0  0  0  0  0  0  0
  -19.9254  -29.0316   23.3733 C   0  0  0  0  0  0  0  0  0  0  0  0
  -30.3723  -24.8819   18.4131 C   0  0  0  0  0  0  0  0  0  0  0  0
  -19.4403  -26.7100   21.9046 C   0  0  0  0  0  0  0  0  0  0  0  0
  -22.0957  -20.5291   19.7893 C   0  0  0  0  0  0  0  0  0  0  0  0
  -31.9559  -23.1549   18.5928 C   0  0  0  0  0  0  0  0  0  0  0  0
  -32.7488  -20.7406   19.7439 C   0  0  0  0  0  0  0  0  0  0  0  0
  -31.1631  -22.0171   18.4427 C   0  0  0  0  0  0  0  0  0  0  0  0
  -26.6684  -26.5224   19.6326 C   0  0  0  0  0  0  0  0  0  0  0  0
  -24.5623  -26.8098   20.1954 C   0  0  0  0  0  0  0  0  0  0  0  0
  -25.1371  -24.4567   19.5782 C   0  0  0  0  0  0  0  0  0  0  0  0
  -24.7817  -16.0006   21.1090 C   0  0  0  0  0  0  0  0  0  0  0  0
  -26.2376  -17.6766   23.4741 C   0  0  0  0  0  0  0  0  0  0  0  0
  -26.5937  -20.6403   25.1284 C   0  0  0  0  0  0  0  0  0  0  0  0
  -23.2968  -31.2073   23.3902 C   0  0  0  0  0  0  0  0  0  0  0  0
  -26.2203  -11.1310   20.5844 C   0  0  0  0  0  0  0  0  0  0  0  0
  -25.5996  -18.0304   19.8573 C   0  0  0  0  0  0  0  0  0  0  0  0
  -24.2440  -18.7688   22.3796 C   0  0  0  0  0  0  0  0  0  0  0  0
  -26.0690  -12.1052   21.7499 C   0  0  0  0  0  0  0  0  0  0  0  0
  -25.0334  -31.8438   20.3479 C   0  0  0  0  0  0  0  0  0  0  0  0
  -24.7127  -12.8009   21.6915 C   0  0  0  0  0  0  0  0  0  0  0  0
  -25.5177  -30.4614   19.9070 C   0  0  0  0  0  0  0  0  0  0  0  0
  -25.0812  -32.0009   21.8661 C   0  0  0  0  0  0  0  0  0  0  0  0
  -24.8582  -29.5665   22.1792 C   0  0  0  0  0  0  0  0  0  0  0  0
  -24.5695  -13.6235   20.4053 C   0  0  1  0  0  0  0  0  0  0  0  0
  -25.7199  -17.1741   21.1142 C   0  0  1  0  0  0  0  0  0  0  0  0
  -24.7755  -29.3409   20.6598 C   0  0  2  0  0  0  0  0  0  0  0  0
  -27.8302  -21.6919   27.0421 C   0  0  0  0  0  0  0  0  0  0  0  0
  -17.7195  -32.1943   24.0829 C   0  0  0  0  0  0  0  0  0  0  0  0
  -16.7436  -30.5198   25.7008 C   0  0  0  0  0  0  0  0  0  0  0  0
  -24.3825  -16.2668   25.4442 C   0  0  0  0  0  0  0  0  0  0  0  0
  -24.9832  -18.0032   27.1448 C   0  0  0  0  0  0  0  0  0  0  0  0
  -26.7477  -16.5003   26.2226 C   0  0  0  0  0  0  0  0  0  0  0  0
  -27.9111  -22.6046   23.3494 C   0  0  0  0  0  0  0  0  0  0  0  0
  -20.0817  -23.4458   20.4669 C   0  0  0  0  0  0  0  0  0  0  0  0
  -21.5479  -30.2594   24.8741 C   0  0  0  0  0  0  0  0  0  0  0  0
  -19.8260  -24.3782   21.6406 C   0  0  0  0  0  0  0  0  0  0  0  0
  -20.7694  -22.1608   20.9004 C   0  0  0  0  0  0  0  0  0  1  0  0
  -20.1840  -30.2726   24.1587 C   0  0  2  0  0  0  0  0  0  0  0  0
  -25.7847  -18.3241   24.7604 C   0  0  1  0  0  0  0  0  0  0  0  0
  -27.8282  -21.4187   25.5461 C   0  0  2  0  0  0  0  0  0  0  0  0
  -17.7804  -30.7727   24.6181 C   0  0  0  0  0  0  0  0  0  0  0  0
  -25.4635  -17.2812   25.8679 C   0  0  0  0  0  0  0  0  0  0  0  0
  -26.5735  -27.8233   19.9203 N   0  0  0  0  0  0  0  0  0  0  0  0
  -25.2809  -27.9673   20.2589 N   0  0  0  0  0  0  0  0  0  0  0  0
  -25.4527  -17.9291   22.3401 N   0  0  0  0  0  0  0  0  0  0  0  0
  -24.3577  -30.9075   22.5197 N   0  0  0  0  0  0  0  0  0  0  0  0
  -23.2483  -26.7759   20.5032 N   0  0  0  0  0  0  0  0  0  0  0  0
  -26.1628  -23.5991   19.1579 N   0  0  0  0  0  0  0  0  0  0  0  0
  -25.3026  -14.8664   20.5160 N   0  0  0  0  0  0  0  0  0  0  0  0
  -26.8243  -19.2809   25.1239 N   0  0  0  0  0  0  0  0  0  0  0  0
  -22.6608  -30.1125   23.9626 N   0  0  0  0  0  0  0  0  0  0  0  0
  -27.8841  -22.7244   24.8299 N   0  3  0  0  0  0  0  0  0  0  0  0
  -19.1242  -30.5453   25.1932 N   0  3  0  0  0  0  0  0  0  0  0  0
  -23.9817  -23.9970   19.7437 O   0  0  0  0  0  0  0  0  0  0  0  0
  -23.6681  -16.1151   21.6076 O   0  0  0  0  0  0  0  0  0  0  0  0
  -27.2546  -16.9784   23.4739 O   0  0  0  0  0  0  0  0  0  0  0  0
  -25.5299  -21.1836   24.8388 O   0  0  0  0  0  0  0  0  0  0  0  0
  -22.9393  -32.3646   23.6346 O   0  0  0  0  0  0  0  0  0  0  0  0
  -31.5641  -24.3539   18.0213 O   0  0  0  0  0  0  0  0  0  0  0  0
  -19.2007  -25.5696   21.1830 O   0  0  0  0  0  0  0  0  0  0  0  0
  -20.9911  -21.3236   19.7663 O   0  0  0  0  0  0  0  0  0  1  0  0
  -33.1303  -19.5811   20.2954 F   0  0  0  0  0  0  0  0  0  0  0  0
  -30.0202  -22.0773   17.7456 F   0  0  0  0  0  0  0  0  0  0  0  0
  1  2  1  0  0  0  0
  1  5  2  0  0  0  0
  2  6  2  0  0  0  0
  3 10  2  0  0  0  0
  3 19  1  0  0  0  0
  4 11  1  0  0  0  0
  4 19  2  0  0  0  0
  5 21  1  0  0  0  0
  6 23  1  0  0  0  0
  7 12  2  0  0  0  0
  7 22  1  0  0  0  0
  8 13  2  0  0  0  0
  8 25  1  0  0  0  0
  9 14  1  0  0  0  0
  9 25  2  0  0  0  0
 10 26  1  0  0  0  0
 11 26  2  0  0  0  0
 12 28  1  0  0  0  0
 13 27  1  0  0  0  0
 14 27  2  0  0  0  0
 15 16  2  0  0  0  0
 15 29  1  0  0  0  0
 16 30  1  0  0  0  0
 17 24  1  0  0  0  0
 17 28  2  0  0  0  0
 18 30  2  0  0  0  0
 18 31  1  0  0  0  0
 19 32  1  0  0  0  0
 20 32  1  0  0  0  0
 20 33  2  0  0  0  0
 20 34  1  0  0  0  0
 21 23  2  0  0  0  0
 21 39  1  0  0  0  0
 22 24  2  0  0  0  0
 22 40  1  0  0  0  0
 23 48  1  0  0  0  0
 24 41  1  0  0  0  0
 25 62  1  0  0  0  0
 26 83  1  0  0  0  0
 27 84  1  0  0  0  0
 28 85  1  0  0  0  0
 29 31  2  0  0  0  0
 29 83  1  0  0  0  0
 30 86  1  0  0  0  0
 31 87  1  0  0  0  0
 32 67  2  0  0  0  0
 33 68  1  0  0  0  0
 33 71  1  0  0  0  0
 34 72  1  0  0  0  0
 34 78  2  0  0  0  0
 35 49  1  0  0  0  0
 35 73  1  0  0  0  0
 35 79  2  0  0  0  0
 36 63  1  0  0  0  0
 36 69  1  0  0  0  0
 36 80  2  0  0  0  0
 37 64  1  0  0  0  0
 37 74  1  0  0  0  0
 37 81  2  0  0  0  0
 38 70  1  0  0  0  0
 38 75  1  0  0  0  0
 38 82  2  0  0  0  0
 39 42  1  0  0  0  0
 40 49  1  0  0  0  0
 41 69  1  0  0  0  0
 42 44  1  0  0  0  0
 43 45  1  0  0  0  0
 43 46  1  0  0  0  0
 44 48  1  0  0  0  0
 45 50  1  0  0  0  0
 46 70  1  0  0  0  0
 47 50  1  0  0  0  0
 47 70  1  0  0  0  0
 48 73  1  0  0  0  0
 49 69  1  0  0  0  0
 50 68  1  0  0  0  0
 51 64  1  0  0  0  0
 52 65  1  0  0  0  0
 53 65  1  0  0  0  0
 54 66  1  0  0  0  0
 55 66  1  0  0  0  0
 56 66  1  0  0  0  0
 57 76  1  0  0  0  0
 58 60  1  0  0  0  0
 58 61  1  0  0  0  0
 59 62  1  0  0  0  0
 59 75  1  0  0  0  0
 60 84  1  0  0  0  0
 61 85  1  0  0  0  0
 62 77  1  0  0  0  0
 63 66  1  0  0  0  0
 63 74  1  0  0  0  0
 64 76  1  0  0  0  0
 65 77  1  0  0  0  0
 67 68  1  0  0  0  0
M  CHG  2  76   1  77   1
M  ISO  4  38 100  61 101  75 100  85 101
M  END
> <Batch ID>
0115

> <Smiles>
CNC(C)C(=O)NC(C(=O)N1Cc2cc([101O:1][101CH2:1]CCOc3ccc(C(C[100NH:0][100C:0](=O)N4CCCC(n5nc(-c6ccc(Oc7ccc(F)cc7F)cc6)c(C(N)=O)c5N)C4)NC(C)C)cc3)ccc2CC1C(=O)NC1CCCc2ccccc21)C(C)(C)C

> <Shape>
0.187

> <Color>
0.077

> <Negative vol penalty>
0.000

$$$$

  -OEChem-04052320103D

 84 91  0     1  0  0  0  0  0999 V2000
  -18.2359  -17.2353   17.7271 C   0  0  0  0  0  0  0  0  0  0  0  0
  -19.2479  -18.1691   17.9253 C   0  0  0  0  0  0  0  0  0  0  0  0
  -22.4119  -28.3025   20.7863 C   0  0  0  0  0  0  0  0  0  0  0  0
  -23.5798  -27.2574   22.6250 C   0  0  0  0  0  0  0  0  0  0  0  0
  -18.2283  -16.0506   18.4623 C   0  0  0  0  0  0  0  0  0  0  0  0
  -20.2525  -17.9191   18.8596 C   0  0  0  0  0  0  0  0  0  0  0  0
  -26.1372  -19.5690   18.4681 C   0  0  0  0  0  0  0  0  0  0  0  0
  -21.1947  -28.0661   21.4251 C   0  0  0  0  0  0  0  0  0  0  0  0
  -22.3626  -27.0210   23.2639 C   0  0  0  0  0  0  0  0  0  0  0  0
  -26.8504  -20.6363   19.0122 C   0  0  0  0  0  0  0  0  0  0  0  0
  -19.3925  -29.4357   23.9369 C   0  0  0  0  0  0  0  0  0  0  0  0
  -18.4659  -30.4776   23.9722 C   0  0  0  0  0  0  0  0  0  0  0  0
  -27.5556  -19.2264   20.8382 C   0  0  0  0  0  0  0  0  0  0  0  0
  -16.8774  -29.1054   22.7760 C   0  0  0  0  0  0  0  0  0  0  0  0
  -23.6045  -27.8981   21.3863 C   0  0  0  0  0  0  0  0  0  0  0  0
  -25.6821  -29.2789   20.8526 C   0  0  0  0  0  0  0  0  0  0  0  0
  -19.2387  -15.7817   19.3991 C   0  0  0  0  0  0  0  0  0  0  0  0
  -26.1190  -18.3232   19.1118 C   0  0  0  0  0  0  0  0  0  0  0  0
  -20.2577  -16.7304   19.6089 C   0  0  0  0  0  0  0  0  0  0  0  0
  -26.8436  -18.1441   20.2988 C   0  0  0  0  0  0  0  0  0  0  0  0
  -21.1700  -27.4254   22.6639 C   0  0  0  0  0  0  0  0  0  0  0  0
  -27.5573  -20.4659   20.1989 C   0  0  0  0  0  0  0  0  0  0  0  0
  -19.0616  -28.2286   23.3211 C   0  0  0  0  0  0  0  0  0  0  0  0
  -17.2083  -30.3125   23.3918 C   0  0  0  0  0  0  0  0  0  0  0  0
  -17.8041  -28.0635   22.7407 C   0  0  0  0  0  0  0  0  0  0  0  0
  -24.8622  -28.1415   20.7266 C   0  0  0  0  0  0  0  0  0  0  0  0
  -26.7517  -29.0240   20.0295 C   0  0  0  0  0  0  0  0  0  0  0  0
  -33.0828  -25.7764   21.2872 C   0  0  0  0  0  0  0  0  0  0  0  0
  -25.4937  -30.4602   21.6431 C   0  0  0  0  0  0  0  0  0  0  0  0
  -32.5397  -24.8428   22.0960 C   0  0  0  0  0  0  0  0  0  0  0  0
  -23.8591  -16.4978   20.4018 C   0  0  0  0  0  0  0  0  0  0  0  0
  -26.2973  -14.3825   20.7232 C   0  0  0  0  0  0  0  0  0  0  0  0
  -29.6594  -13.8528   20.9723 C   0  0  0  0  0  0  0  0  0  0  0  0
  -30.6764  -25.5695   18.0782 C   0  0  0  0  0  0  0  0  0  0  0  0
  -19.1622  -14.5085   20.2039 C   0  0  0  0  0  0  0  0  0  0  0  0
  -25.3668  -17.1745   18.4978 C   0  0  0  0  0  0  0  0  0  0  0  0
  -26.8727  -16.8212   21.0182 C   0  0  0  0  0  0  0  0  0  0  0  0
  -20.4701  -14.1519   20.9056 C   0  0  0  0  0  0  0  0  0  0  0  0
  -27.4548  -25.3996   16.5718 C   0  0  0  0  0  0  0  0  0  0  0  0
  -21.0522  -15.3766   21.6043 C   0  0  0  0  0  0  0  0  0  0  0  0
  -26.5603  -26.1859   17.5317 C   0  0  0  0  0  0  0  0  0  0  0  0
  -28.5242  -24.6060   17.3191 C   0  0  0  0  0  0  0  0  0  0  0  0
  -28.4543  -26.1869   19.2084 C   0  0  0  0  0  0  0  0  0  0  0  0
  -21.3785  -16.4843   20.5954 C   0  0  1  0  0  0  0  0  0  0  0  0
  -24.9979  -16.0933   19.5089 C   0  0  1  0  0  0  0  0  0  0  0  0
  -27.3955  -27.0474   18.4979 C   0  0  2  0  0  0  0  0  0  0  0  0
  -32.2162  -25.2146   23.5239 C   0  0  0  0  0  0  0  0  0  0  0  0
  -33.4620  -22.5193   21.8544 C   0  0  0  0  0  0  0  0  0  0  0  0
  -31.3486  -12.0201   21.2643 C   0  0  0  0  0  0  0  0  0  0  0  0
  -25.5787  -14.1951   23.6826 C   0  0  0  0  0  0  0  0  0  0  0  0
  -27.8138  -13.1421   24.0871 C   0  0  0  0  0  0  0  0  0  0  0  0
  -26.1535  -12.0111   22.6083 C   0  0  0  0  0  0  0  0  0  0  0  0
  -28.7101  -23.0346   24.1857 C   0  0  0  0  0  0  0  0  0  0  0  0
  -27.3764  -23.8405   22.2046 C   0  0  0  0  0  0  0  0  0  0  0  0
  -30.9438  -14.4648   18.3771 C   0  0  0  0  0  0  0  0  0  0  0  0
  -33.4865  -25.6443   19.8438 C   0  0  0  0  0  0  0  0  0  0  0  0
  -32.7479  -26.6284   18.9424 C   0  0  0  0  0  0  0  0  0  0  0  0
  -31.0221  -22.7824   22.3780 C   0  0  0  0  0  0  0  0  0  0  0  0
  -28.3928  -21.5352   22.1520 C   0  0  0  0  0  0  0  0  0  1  0  0
  -32.2293  -23.4107   21.6651 C   0  0  1  0  0  0  0  0  0  0  0  0
  -27.3286  -14.0935   21.7870 C   0  0  1  0  0  0  0  0  0  0  0  0
  -30.5798  -12.8729   20.2671 C   0  0  2  0  0  0  0  0  0  0  0  0
  -26.7167  -13.3860   23.0290 C   0  0  0  0  0  0  0  0  0  0  0  0
  -28.5482  -22.9722   22.6654 C   0  0  0  0  0  0  0  0  0  0  0  0
  -25.3675  -27.2318   19.8893 N   0  0  0  0  0  0  0  0  0  0  0  0
  -26.5164  -27.7974   19.4816 N   0  0  0  0  0  0  0  0  0  0  0  0
  -26.1164  -15.7302   20.3815 N   0  0  0  0  0  0  0  0  0  0  0  0
  -29.2814  -25.4813   18.2171 N   0  0  0  0  0  0  0  0  0  0  0  0
  -27.8610  -29.7318   19.7281 N   0  0  0  0  0  0  0  0  0  0  0  0
  -24.3393  -30.5593   22.4317 N   0  0  0  0  0  0  0  0  0  0  0  0
  -22.6109  -16.1856   19.8979 N   0  0  0  0  0  0  0  0  0  0  0  0
  -28.3904  -13.3376   21.1315 N   0  0  0  0  0  0  0  0  0  0  0  0
  -31.3163  -26.4266   18.9651 N   0  0  0  0  0  0  0  0  0  0  0  0
  -31.5623  -13.6042   19.4182 N   0  3  0  0  0  0  0  0  0  0  0  0
  -29.7850  -23.5403   22.0638 N   0  3  0  0  0  0  0  0  0  0  0  0
  -26.3164  -31.4070   21.6372 O   0  0  0  0  0  0  0  0  0  0  0  0
  -24.0954  -17.0508   21.4695 O   0  0  0  0  0  0  0  0  0  0  0  0
  -25.6801  -13.4464   20.2090 O   0  0  0  0  0  0  0  0  0  0  0  0
  -30.0303  -14.9628   21.3478 O   0  0  0  0  0  0  0  0  0  0  0  0
  -31.3045  -24.9356   17.2233 O   0  0  0  0  0  0  0  0  0  0  0  0
  -19.9824  -27.1948   23.2876 O   0  0  0  0  0  0  0  0  0  0  0  0
  -28.2585  -21.5134   20.7362 O   0  0  0  0  0  0  0  0  0  1  0  0
  -16.3180  -31.3126   23.4271 F   0  0  0  0  0  0  0  0  0  0  0  0
  -17.4800  -26.9057   22.1487 F   0  0  0  0  0  0  0  0  0  0  0  0
  1  2  1  0  0  0  0
  1  5  2  0  0  0  0
  2  6  2  0  0  0  0
  3  8  2  0  0  0  0
  3 15  1  0  0  0  0
  4  9  1  0  0  0  0
  4 15  2  0  0  0  0
  5 17  1  0  0  0  0
  6 19  1  0  0  0  0
  7 10  2  0  0  0  0
  7 18  1  0  0  0  0
  8 21  1  0  0  0  0
  9 21  2  0  0  0  0
 10 22  1  0  0  0  0
 11 12  2  0  0  0  0
 11 23  1  0  0  0  0
 12 24  1  0  0  0  0
 13 20  1  0  0  0  0
 13 22  2  0  0  0  0
 14 24  2  0  0  0  0
 14 25  1  0  0  0  0
 15 26  1  0  0  0  0
 16 26  1  0  0  0  0
 16 27  2  0  0  0  0
 16 29  1  0  0  0  0
 17 19  2  0  0  0  0
 17 35  1  0  0  0  0
 18 20  2  0  0  0  0
 18 36  1  0  0  0  0
 19 44  1  0  0  0  0
 20 37  1  0  0  0  0
 21 81  1  0  0  0  0
 22 82  1  0  0  0  0
 23 25  2  0  0  0  0
 23 81  1  0  0  0  0
 24 83  1  0  0  0  0
 25 84  1  0  0  0  0
 26 65  2  0  0  0  0
 27 66  1  0  0  0  0
 27 69  1  0  0  0  0
 28 30  2  0  0  0  0
 28 56  1  0  0  0  0
 29 70  1  0  0  0  0
 29 76  2  0  0  0  0
 30 47  1  0  0  0  0
 30 60  1  0  0  0  0
 31 45  1  0  0  0  0
 31 71  1  0  0  0  0
 31 77  2  0  0  0  0
 32 61  1  0  0  0  0
 32 67  1  0  0  0  0
 32 78  2  0  0  0  0
 33 62  1  0  0  0  0
 33 72  1  0  0  0  0
 33 79  2  0  0  0  0
 34 68  1  0  0  0  0
 34 73  1  0  0  0  0
 34 80  2  0  0  0  0
 35 38  1  0  0  0  0
 36 45  1  0  0  0  0
 37 67  1  0  0  0  0
 38 40  1  0  0  0  0
 39 41  1  0  0  0  0
 39 42  1  0  0  0  0
 40 44  1  0  0  0  0
 41 46  1  0  0  0  0
 42 68  1  0  0  0  0
 43 46  1  0  0  0  0
 43 68  1  0  0  0  0
 44 71  1  0  0  0  0
 45 67  1  0  0  0  0
 46 66  1  0  0  0  0
 48 60  1  0  0  0  0
 49 62  1  0  0  0  0
 50 63  1  0  0  0  0
 51 63  1  0  0  0  0
 52 63  1  0  0  0  0
 53 64  1  0  0  0  0
 54 64  1  0  0  0  0
 55 74  1  0  0  0  0
 56 57  1  0  0  0  0
 57 73  1  0  0  0  0
 58 60  1  0  0  0  0
 58 75  1  0  0  0  0
 59 64  1  0  0  0  0
 59 82  1  0  0  0  0
 61 63  1  0  0  0  0
 61 72  1  0  0  0  0
 62 74  1  0  0  0  0
 64 75  1  0  0  0  0
 65 66  1  0  0  0  0
M  CHG  2  74   1  75   1
M  ISO  4  34 100  59 101  73 100  82 101
M  END
> <Batch ID>
0115

> <Smiles>
CNC(C)C(=O)NC(C(=O)N1Cc2cc([101O:1][101CH2:1]C(C)(C)NCC(C)C(C)=CCC[100NH:0][100C:0](=O)N3CCCC(n4nc(-c5ccc(Oc6ccc(F)cc6F)cc5)c(C(N)=O)c4N)C3)ccc2CC1C(=O)NC1CCCc2ccccc21)C(C)(C)C

> <Shape>
0.245

> <Color>
0.036

> <Negative vol penalty>
0.000

$$$$

  -OEChem-04052320103D

 83 91  0     1  0  0  0  0  0999 V2000
  -39.9951  -22.8148   16.6279 C   0  0  0  0  0  0  0  0  0  0  0  0
  -38.8659  -22.8392   17.4401 C   0  0  0  0  0  0  0  0  0  0  0  0
  -23.0780   -9.8619   19.9438 C   0  0  0  0  0  0  0  0  0  0  0  0
  -23.8368   -9.8761   22.2376 C   0  0  0  0  0  0  0  0  0  0  0  0
  -40.3879  -23.9666   15.9475 C   0  0  0  0  0  0  0  0  0  0  0  0
  -38.1294  -24.0158   17.5732 C   0  0  0  0  0  0  0  0  0  0  0  0
  -33.1371  -23.2301   17.2498 C   0  0  0  0  0  0  0  0  0  0  0  0
  -22.3363   -8.7080   20.1963 C   0  0  0  0  0  0  0  0  0  0  0  0
  -23.0950   -8.7222   22.4901 C   0  0  0  0  0  0  0  0  0  0  0  0
  -32.4998  -22.7122   18.3764 C   0  0  0  0  0  0  0  0  0  0  0  0
  -19.8681   -7.9196   23.0930 C   0  0  0  0  0  0  0  0  0  0  0  0
  -19.1106   -7.8811   24.2636 C   0  0  0  0  0  0  0  0  0  0  0  0
  -31.7399  -24.9269   18.9571 C   0  0  0  0  0  0  0  0  0  0  0  0
  -29.7388  -17.7253   22.7079 C   0  0  0  0  0  0  0  0  0  0  0  0
  -20.3554   -5.9479   25.0055 C   0  0  0  0  0  0  0  0  0  0  0  0
  -32.2193  -18.5523   21.9275 C   0  0  0  0  0  0  0  0  0  0  0  0
  -23.8283  -10.4460   20.9645 C   0  0  0  0  0  0  0  0  0  0  0  0
  -24.1653  -12.9715   20.8383 C   0  0  0  0  0  0  0  0  0  0  0  0
  -39.6504  -25.1553   16.0647 C   0  0  0  0  0  0  0  0  0  0  0  0
  -33.0897  -24.6041   16.9737 C   0  0  0  0  0  0  0  0  0  0  0  0
  -38.5136  -25.1850   16.8948 C   0  0  0  0  0  0  0  0  0  0  0  0
  -32.3753  -25.4593   17.8249 C   0  0  0  0  0  0  0  0  0  0  0  0
  -30.2119  -18.9607   23.1360 C   0  0  0  0  0  0  0  0  0  0  0  0
  -31.4748  -19.3895   22.7428 C   0  0  0  0  0  0  0  0  0  0  0  0
  -22.3447   -8.1381   21.4694 C   0  0  0  0  0  0  0  0  0  0  0  0
  -31.8034  -23.5611   19.2319 C   0  0  0  0  0  0  0  0  0  0  0  0
  -20.8692   -6.9722   22.8786 C   0  0  0  0  0  0  0  0  0  0  0  0
  -19.3543   -6.8953   25.2199 C   0  0  0  0  0  0  0  0  0  0  0  0
  -21.1128   -5.9864   23.8348 C   0  0  0  0  0  0  0  0  0  0  0  0
  -24.5952  -11.6377   20.7041 C   0  0  0  0  0  0  0  0  0  0  0  0
  -30.5609  -16.9627   21.8940 C   0  0  0  0  0  0  0  0  0  0  0  0
  -25.2562  -13.7222   20.4737 C   0  0  0  0  0  0  0  0  0  0  0  0
  -22.8936  -13.4859   21.2553 C   0  0  0  0  0  0  0  0  0  0  0  0
  -35.2547  -26.9182   16.7254 C   0  0  0  0  0  0  0  0  0  0  0  0
  -32.6973  -28.6762   15.7813 C   0  0  0  0  0  0  0  0  0  0  0  0
  -29.3136  -29.1190   15.8172 C   0  0  0  0  0  0  0  0  0  0  0  0
  -30.7203  -14.7788   20.6484 C   0  0  0  0  0  0  0  0  0  0  0  0
  -40.1411  -26.3878   15.3471 C   0  0  0  0  0  0  0  0  0  0  0  0
  -33.7600  -25.1432   15.7398 C   0  0  0  0  0  0  0  0  0  0  0  0
  -32.2772  -26.9391   17.5621 C   0  0  0  0  0  0  0  0  0  0  0  0
  -39.0920  -27.4922   15.2465 C   0  0  0  0  0  0  0  0  0  0  0  0
  -29.6117  -12.3569   18.2856 C   0  0  0  0  0  0  0  0  0  0  0  0
  -38.4087  -27.7037   16.5937 C   0  0  0  0  0  0  0  0  0  0  0  0
  -28.1724  -12.0636   18.7152 C   0  0  0  0  0  0  0  0  0  0  0  0
  -30.5258  -12.5905   19.4871 C   0  0  0  0  0  0  0  0  0  0  0  0
  -28.6167  -13.3147   20.8657 C   0  0  0  0  0  0  0  0  0  0  0  0
  -37.6745  -26.4354   17.0451 C   0  0  1  0  0  0  0  0  0  0  0  0
  -34.0787  -26.6321   15.8350 C   0  0  1  0  0  0  0  0  0  0  0  0
  -27.6448  -13.1366   19.6878 C   0  0  2  0  0  0  0  0  0  0  0  0
  -29.0419  -19.1316   25.3621 C   0  0  0  0  0  0  0  0  0  0  0  0
  -28.0381  -20.2229   23.3234 C   0  0  0  0  0  0  0  0  0  0  0  0
  -27.5205  -30.6665   14.9881 C   0  0  0  0  0  0  0  0  0  0  0  0
  -33.4519  -30.7009   17.9357 C   0  0  0  0  0  0  0  0  0  0  0  0
  -31.1635  -31.6908   17.7086 C   0  0  0  0  0  0  0  0  0  0  0  0
  -32.7268  -31.7089   15.7648 C   0  0  0  0  0  0  0  0  0  0  0  0
  -28.0263  -26.9703   14.2408 C   0  0  0  0  0  0  0  0  0  0  0  0
  -32.0369  -20.7193   23.1778 C   0  0  0  0  0  0  0  0  0  0  0  0
  -31.4472  -21.9134   22.4242 C   0  0  0  0  0  0  0  0  0  0  0  0
  -31.7575  -21.8986   20.9319 C   0  0  0  0  0  0  0  0  0  1  0  0
  -29.3506  -19.8074   24.0132 C   0  0  0  0  0  0  0  0  0  0  0  0
  -31.6679  -29.5285   16.4834 C   0  0  1  0  0  0  0  0  0  0  0  0
  -28.3235  -29.4068   14.7031 C   0  0  2  0  0  0  0  0  0  0  0  0
  -32.2558  -30.8797   16.9794 C   0  0  0  0  0  0  0  0  0  0  0  0
  -31.7934  -17.3456   21.4914 N   0  0  0  0  0  0  0  0  0  0  0  0
  -25.8605  -11.5433   20.2867 N   0  0  0  0  0  0  0  0  0  0  0  0
  -26.2350  -12.8273   20.1553 N   0  0  0  0  0  0  0  0  0  0  0  0
  -32.9546  -27.4191   16.3463 N   0  0  0  0  0  0  0  0  0  0  0  0
  -29.9644  -13.6224   20.3617 N   0  0  0  0  0  0  0  0  0  0  0  0
  -25.4641  -15.0539   20.3974 N   0  0  0  0  0  0  0  0  0  0  0  0
  -21.8833  -12.5756   21.5944 N   0  0  0  0  0  0  0  0  0  0  0  0
  -30.0707  -15.7046   21.4642 N   0  0  0  0  0  0  0  0  0  0  0  0
  -36.4233  -26.2947   16.3316 N   0  0  0  0  0  0  0  0  0  0  0  0
  -30.5512  -29.6675   15.5551 N   0  0  0  0  0  0  0  0  0  0  0  0
  -27.3736  -28.2691   14.5475 N   0  3  0  0  0  0  0  0  0  0  0  0
  -22.6550  -14.7162   21.3095 O   0  0  0  0  0  0  0  0  0  0  0  0
  -35.1128  -27.6516   17.6968 O   0  0  0  0  0  0  0  0  0  0  0  0
  -33.2474  -29.1070   14.7647 O   0  0  0  0  0  0  0  0  0  0  0  0
  -29.0176  -28.4752   16.8215 O   0  0  0  0  0  0  0  0  0  0  0  0
  -31.8493  -14.9485   20.1809 O   0  0  0  0  0  0  0  0  0  0  0  0
  -21.6208   -7.0122   21.7162 O   0  0  0  0  0  0  0  0  0  0  0  0
  -31.1810  -23.0583   20.3326 O   0  0  0  0  0  0  0  0  0  1  0  0
  -18.6279   -6.8594   26.3447 F   0  0  0  0  0  0  0  0  0  0  0  0
  -22.0740   -5.0743   23.6350 F   0  0  0  0  0  0  0  0  0  0  0  0
  1  2  1  0  0  0  0
  1  5  2  0  0  0  0
  2  6  2  0  0  0  0
  3  8  2  0  0  0  0
  3 17  1  0  0  0  0
  4  9  1  0  0  0  0
  4 17  2  0  0  0  0
  5 19  1  0  0  0  0
  6 21  1  0  0  0  0
  7 10  2  0  0  0  0
  7 20  1  0  0  0  0
  8 25  1  0  0  0  0
  9 25  2  0  0  0  0
 10 26  1  0  0  0  0
 11 12  2  0  0  0  0
 11 27  1  0  0  0  0
 12 28  1  0  0  0  0
 13 22  1  0  0  0  0
 13 26  2  0  0  0  0
 14 23  1  0  0  0  0
 14 31  2  0  0  0  0
 15 28  2  0  0  0  0
 15 29  1  0  0  0  0
 16 24  1  0  0  0  0
 16 64  2  0  0  0  0
 17 30  1  0  0  0  0
 18 30  1  0  0  0  0
 18 32  2  0  0  0  0
 18 33  1  0  0  0  0
 19 21  2  0  0  0  0
 19 38  1  0  0  0  0
 20 22  2  0  0  0  0
 20 39  1  0  0  0  0
 21 47  1  0  0  0  0
 22 40  1  0  0  0  0
 23 24  2  0  0  0  0
 23 60  1  0  0  0  0
 24 57  1  0  0  0  0
 25 80  1  0  0  0  0
 26 81  1  0  0  0  0
 27 29  2  0  0  0  0
 27 80  1  0  0  0  0
 28 82  1  0  0  0  0
 29 83  1  0  0  0  0
 30 65  2  0  0  0  0
 31 64  1  0  0  0  0
 31 71  1  0  0  0  0
 32 66  1  0  0  0  0
 32 69  1  0  0  0  0
 33 70  1  0  0  0  0
 33 75  2  0  0  0  0
 34 48  1  0  0  0  0
 34 72  1  0  0  0  0
 34 76  2  0  0  0  0
 35 61  1  0  0  0  0
 35 67  1  0  0  0  0
 35 77  2  0  0  0  0
 36 62  1  0  0  0  0
 36 73  1  0  0  0  0
 36 78  2  0  0  0  0
 37 68  1  0  0  0  0
 37 71  1  0  0  0  0
 37 79  2  0  0  0  0
 38 41  1  0  0  0  0
 39 48  1  0  0  0  0
 40 67  1  0  0  0  0
 41 43  1  0  0  0  0
 42 44  1  0  0  0  0
 42 45  1  0  0  0  0
 43 47  1  0  0  0  0
 44 49  1  0  0  0  0
 45 68  1  0  0  0  0
 46 49  1  0  0  0  0
 46 68  1  0  0  0  0
 47 72  1  0  0  0  0
 48 67  1  0  0  0  0
 49 66  1  0  0  0  0
 50 60  1  0  0  0  0
 51 60  1  0  0  0  0
 52 62  1  0  0  0  0
 53 63  1  0  0  0  0
 54 63  1  0  0  0  0
 55 63  1  0  0  0  0
 56 74  1  0  0  0  0
 57 58  1  0  0  0  0
 58 59  1  0  0  0  0
 59 81  1  0  0  0  0
 61 63  1  0  0  0  0
 61 73  1  0  0  0  0
 62 74  1  0  0  0  0
 65 66  1  0  0  0  0
M  CHG  1  74   1
M  ISO  4  37 100  59 101  71 100  81 101
M  END
> <Batch ID>
0115

> <Smiles>
CNC(C)C(=O)NC(C(=O)N1Cc2cc([101O:1][101CH2:1]CCc3cnc([100NH:0][100C:0](=O)N4CCCC(n5nc(-c6ccc(Oc7ccc(F)cc7F)cc6)c(C(N)=O)c5N)C4)cc3C(C)C)ccc2CC1C(=O)NC1CCCc2ccccc21)C(C)(C)C

> <Shape>
0.187

> <Color>
0.192

> <Negative vol penalty>
0.000

$$$$

  -OEChem-04052320103D

 81 89  0     1  0  0  0  0  0999 V2000
  -25.6202  -11.4569   20.8656 C   0  0  0  0  0  0  0  0  0  0  0  0
  -26.5212  -12.5160   20.8206 C   0  0  0  0  0  0  0  0  0  0  0  0
  -27.3582  -28.4299   19.7976 C   0  0  0  0  0  0  0  0  0  0  0  0
  -25.7779  -26.9380   20.8528 C   0  0  0  0  0  0  0  0  0  0  0  0
  -24.2580  -11.6940   20.6866 C   0  0  0  0  0  0  0  0  0  0  0  0
  -26.0604  -13.8127   20.5954 C   0  0  0  0  0  0  0  0  0  0  0  0
  -28.1827  -17.1964   23.7086 C   0  0  0  0  0  0  0  0  0  0  0  0
  -26.3238  -29.3186   19.5047 C   0  0  0  0  0  0  0  0  0  0  0  0
  -24.7434  -27.8267   20.5600 C   0  0  0  0  0  0  0  0  0  0  0  0
  -29.4790  -17.6126   23.4084 C   0  0  0  0  0  0  0  0  0  0  0  0
  -21.7402  -29.8703   20.4090 C   0  0  0  0  0  0  0  0  0  0  0  0
  -20.8168  -30.1467   21.4172 C   0  0  0  0  0  0  0  0  0  0  0  0
  -31.4261  -15.2640   19.9108 C   0  0  0  0  0  0  0  0  0  0  0  0
  -30.7061  -15.8816   18.8942 C   0  0  0  0  0  0  0  0  0  0  0  0
  -28.5964  -19.6278   22.4190 C   0  0  0  0  0  0  0  0  0  0  0  0
  -22.5953  -30.9991   22.8126 C   0  0  0  0  0  0  0  0  0  0  0  0
  -27.0853  -27.2396   20.4716 C   0  0  0  0  0  0  0  0  0  0  0  0
  -28.9507  -26.2964   21.9339 C   0  0  0  0  0  0  0  0  0  0  0  0
  -23.7793  -12.9955   20.4687 C   0  0  0  0  0  0  0  0  0  0  0  0
  -27.0810  -17.9891   23.3560 C   0  0  0  0  0  0  0  0  0  0  0  0
  -24.6907  -14.0673   20.4120 C   0  0  0  0  0  0  0  0  0  0  0  0
  -27.2872  -19.2207   22.7183 C   0  0  0  0  0  0  0  0  0  0  0  0
  -25.0164  -29.0170   19.8859 C   0  0  0  0  0  0  0  0  0  0  0  0
  -29.6858  -18.8271   22.7609 C   0  0  0  0  0  0  0  0  0  0  0  0
  -23.0913  -30.1583   20.6027 C   0  0  0  0  0  0  0  0  0  0  0  0
  -21.2443  -30.7111   22.6190 C   0  0  0  0  0  0  0  0  0  0  0  0
  -23.5188  -30.7227   21.8045 C   0  0  0  0  0  0  0  0  0  0  0  0
  -31.8374  -16.0052   21.0130 C   0  0  0  0  0  0  0  0  0  0  0  0
  -28.1533  -26.3209   20.7740 C   0  0  0  0  0  0  0  0  0  0  0  0
  -30.4251  -17.2319   19.0265 C   0  0  0  0  0  0  0  0  0  0  0  0
  -31.5060  -17.3500   21.0504 C   0  0  0  0  0  0  0  0  0  0  0  0
  -29.8112  -25.2441   21.7368 C   0  0  0  0  0  0  0  0  0  0  0  0
  -28.9166  -27.1485   23.0864 C   0  0  0  0  0  0  0  0  0  0  0  0
  -24.5590  -17.6083   21.4591 C   0  0  0  0  0  0  0  0  0  0  0  0
  -23.6695  -20.4618   22.7195 C   0  0  0  0  0  0  0  0  0  0  0  0
  -24.5991  -23.3804   24.2243 C   0  0  0  0  0  0  0  0  0  0  0  0
  -29.3340  -20.3245   18.5081 C   0  0  0  0  0  0  0  0  0  0  0  0
  -22.3031  -13.1962   20.2336 C   0  0  0  0  0  0  0  0  0  0  0  0
  -25.6905  -17.5385   23.7109 C   0  0  0  0  0  0  0  0  0  0  0  0
  -26.1394  -20.1181   22.3366 C   0  0  0  0  0  0  0  0  0  0  0  0
  -21.8561  -14.6492   20.3731 C   0  0  0  0  0  0  0  0  0  0  0  0
  -31.9789  -22.7814   18.2521 C   0  0  0  0  0  0  0  0  0  0  0  0
  -22.8072  -15.5748   19.6212 C   0  0  0  0  0  0  0  0  0  0  0  0
  -31.3609  -23.9714   18.9884 C   0  0  0  0  0  0  0  0  0  0  0  0
  -30.9296  -22.0287   17.4393 C   0  0  0  0  0  0  0  0  0  0  0  0
  -29.1355  -22.7520   18.9662 C   0  0  0  0  0  0  0  0  0  0  0  0
  -24.2269  -15.4913   20.1948 C   0  0  1  0  0  0  0  0  0  0  0  0
  -24.6136  -18.1853   22.8453 C   0  0  1  0  0  0  0  0  0  0  0  0
  -30.1411  -23.5409   19.8244 C   0  0  2  0  0  0  0  0  0  0  0  0
  -33.2706  -18.8835   21.9871 C   0  0  0  0  0  0  0  0  0  0  0  0
  -23.6534  -25.5338   25.0996 C   0  0  0  0  0  0  0  0  0  0  0  0
  -23.3704  -21.4891   19.8621 C   0  0  0  0  0  0  0  0  0  0  0  0
  -23.3657  -23.8204   20.7748 C   0  0  0  0  0  0  0  0  0  0  0  0
  -21.5647  -22.2232   21.4290 C   0  0  0  0  0  0  0  0  0  0  0  0
  -25.5395  -22.8112   26.9721 C   0  0  0  0  0  0  0  0  0  0  0  0
  -29.6544  -17.9270   17.9543 C   0  0  0  0  0  0  0  0  0  0  0  0
  -31.9195  -18.2183   22.2165 C   0  0  1  0  0  0  0  0  0  1  0  0
  -23.8963  -21.9090   22.3547 C   0  0  1  0  0  0  0  0  0  0  0  0
  -24.0513  -24.1060   25.4400 C   0  0  2  0  0  0  0  0  0  0  0  0
  -23.0710  -22.3428   21.1105 C   0  0  0  0  0  0  0  0  0  0  0  0
  -28.4784  -25.3607   19.9043 N   0  0  0  0  0  0  0  0  0  0  0  0
  -30.8079  -17.9847   20.0822 N   0  0  0  0  0  0  0  0  0  0  0  0
  -29.4897  -24.7229   20.5181 N   0  0  0  0  0  0  0  0  0  0  0  0
  -24.7984  -19.6306   22.6993 N   0  0  0  0  0  0  0  0  0  0  0  0
  -29.8045  -21.6312   18.2974 N   0  0  0  0  0  0  0  0  0  0  0  0
  -30.8039  -24.7232   22.4888 N   0  0  0  0  0  0  0  0  0  0  0  0
  -27.9696  -28.1810   23.1262 N   0  0  0  0  0  0  0  0  0  0  0  0
  -24.3202  -16.2477   21.4250 N   0  0  0  0  0  0  0  0  0  0  0  0
  -23.6135  -22.6827   23.5588 N   0  0  0  0  0  0  0  0  0  0  0  0
  -30.0181  -19.3213   17.8326 N   0  0  0  0  0  0  0  0  0  0  0  0
  -25.0746  -24.1487   26.5225 N   0  3  0  0  0  0  0  0  0  0  0  0
  -29.7134  -27.0090   24.0452 O   0  0  0  0  0  0  0  0  0  0  0  0
  -24.7201  -18.3434   20.4919 O   0  0  0  0  0  0  0  0  0  0  0  0
  -22.5339  -20.0844   23.0186 O   0  0  0  0  0  0  0  0  0  0  0  0
  -25.7823  -23.4308   23.8956 O   0  0  0  0  0  0  0  0  0  0  0  0
  -28.3777  -20.0697   19.2482 O   0  0  0  0  0  0  0  0  0  0  0  0
  -24.0068  -29.8840   19.6005 O   0  0  0  0  0  0  0  0  0  0  0  0
  -30.9501  -19.2354   22.4660 O   0  0  0  0  0  0  0  0  0  1  0  0
  -20.3571  -30.9778   23.5864 F   0  0  0  0  0  0  0  0  0  0  0  0
  -24.8153  -31.0026   21.9959 F   0  0  0  0  0  0  0  0  0  0  0  0
  -32.7282  -15.2385   22.2690 Cl  0  0  0  0  0  0  0  0  0  0  0  0
  1  2  1  0  0  0  0
  1  5  2  0  0  0  0
  2  6  2  0  0  0  0
  3  8  2  0  0  0  0
  3 17  1  0  0  0  0
  4  9  1  0  0  0  0
  4 17  2  0  0  0  0
  5 19  1  0  0  0  0
  6 21  1  0  0  0  0
  7 10  2  0  0  0  0
  7 20  1  0  0  0  0
  8 23  1  0  0  0  0
  9 23  2  0  0  0  0
 10 24  1  0  0  0  0
 11 12  2  0  0  0  0
 11 25  1  0  0  0  0
 12 26  1  0  0  0  0
 13 14  2  0  0  0  0
 13 28  1  0  0  0  0
 14 30  1  0  0  0  0
 15 22  1  0  0  0  0
 15 24  2  0  0  0  0
 16 26  2  0  0  0  0
 16 27  1  0  0  0  0
 17 29  1  0  0  0  0
 18 29  1  0  0  0  0
 18 32  2  0  0  0  0
 18 33  1  0  0  0  0
 19 21  2  0  0  0  0
 19 38  1  0  0  0  0
 20 22  2  0  0  0  0
 20 39  1  0  0  0  0
 21 47  1  0  0  0  0
 22 40  1  0  0  0  0
 23 77  1  0  0  0  0
 24 78  1  0  0  0  0
 25 27  2  0  0  0  0
 25 77  1  0  0  0  0
 26 79  1  0  0  0  0
 27 80  1  0  0  0  0
 28 31  2  0  0  0  0
 28 81  1  0  0  0  0
 29 61  2  0  0  0  0
 30 56  1  0  0  0  0
 30 62  2  0  0  0  0
 31 57  1  0  0  0  0
 31 62  1  0  0  0  0
 32 63  1  0  0  0  0
 32 66  1  0  0  0  0
 33 67  1  0  0  0  0
 33 72  2  0  0  0  0
 34 48  1  0  0  0  0
 34 68  1  0  0  0  0
 34 73  2  0  0  0  0
 35 58  1  0  0  0  0
 35 64  1  0  0  0  0
 35 74  2  0  0  0  0
 36 59  1  0  0  0  0
 36 69  1  0  0  0  0
 36 75  2  0  0  0  0
 37 65  1  0  0  0  0
 37 70  1  0  0  0  0
 37 76  2  0  0  0  0
 38 41  1  0  0  0  0
 39 48  1  0  0  0  0
 40 64  1  0  0  0  0
 41 43  1  0  0  0  0
 42 44  1  0  0  0  0
 42 45  1  0  0  0  0
 43 47  1  0  0  0  0
 44 49  1  0  0  0  0
 45 65  1  0  0  0  0
 46 49  1  0  0  0  0
 46 65  1  0  0  0  0
 47 68  1  0  0  0  0
 48 64  1  0  0  0  0
 49 63  1  0  0  0  0
 50 57  1  0  0  0  0
 51 59  1  0  0  0  0
 52 60  1  0  0  0  0
 53 60  1  0  0  0  0
 54 60  1  0  0  0  0
 55 71  1  0  0  0  0
 56 70  1  0  0  0  0
 57 78  1  0  0  0  0
 58 60  1  0  0  0  0
 58 69  1  0  0  0  0
 59 71  1  0  0  0  0
 61 63  1  0  0  0  0
M  CHG  1  71   1
M  ISO  4  37 100  57 101  70 100  78 101
M  END
> <Batch ID>
0115

> <Smiles>
CNC(C)C(=O)NC(C(=O)N1Cc2cc([101O:1][101CH:1](C)c3nc(C[100NH:0][100C:0](=O)N4CCCC(n5nc(-c6ccc(Oc7ccc(F)cc7F)cc6)c(C(N)=O)c5N)C4)ccc3Cl)ccc2CC1C(=O)NC1CCCc2ccccc21)C(C)(C)C

> <Shape>
0.204

> <Color>
0.059

> <Negative vol penalty>
0.000

$$$$

  -OEChem-04052320103D

 91100  0     1  0  0  0  0  0999 V2000
  -21.9052  -18.5476   16.0381 C   0  0  0  0  0  0  0  0  0  0  0  0
  -23.0976  -17.8319   16.0033 C   0  0  0  0  0  0  0  0  0  0  0  0
  -24.0733  -30.1640   20.2712 C   0  0  0  0  0  0  0  0  0  0  0  0
  -25.6845  -29.2922   21.8464 C   0  0  0  0  0  0  0  0  0  0  0  0
  -21.2565  -18.7605   17.2537 C   0  0  0  0  0  0  0  0  0  0  0  0
  -23.6426  -17.3295   17.1844 C   0  0  0  0  0  0  0  0  0  0  0  0
  -26.7400  -12.0915   17.8737 C   0  0  0  0  0  0  0  0  0  0  0  0
  -23.6273  -31.0731   21.2305 C   0  0  0  0  0  0  0  0  0  0  0  0
  -25.2386  -30.2014   22.8057 C   0  0  0  0  0  0  0  0  0  0  0  0
  -28.1040  -11.8095   17.9354 C   0  0  0  0  0  0  0  0  0  0  0  0
  -24.7698  -32.5355   25.5534 C   0  0  0  0  0  0  0  0  0  0  0  0
  -25.7319  -33.2252   26.2912 C   0  0  0  0  0  0  0  0  0  0  0  0
  -27.9976  -11.8519   20.3450 C   0  0  0  0  0  0  0  0  0  0  0  0
  -32.1025  -17.5778   19.1715 C   0  0  0  0  0  0  0  0  0  0  0  0
  -26.6174  -34.1712   24.2520 C   0  0  0  0  0  0  0  0  0  0  0  0
  -25.1019  -29.2735   20.5792 C   0  0  0  0  0  0  0  0  0  0  0  0
  -26.5897  -28.5277   18.6459 C   0  0  0  0  0  0  0  0  0  0  0  0
  -21.7888  -18.2522   18.4491 C   0  0  0  0  0  0  0  0  0  0  0  0
  -25.9956  -12.2669   19.0490 C   0  0  0  0  0  0  0  0  0  0  0  0
  -23.0011  -17.5370   18.4174 C   0  0  0  0  0  0  0  0  0  0  0  0
  -26.6238  -12.1335   20.2955 C   0  0  0  0  0  0  0  0  0  0  0  0
  -30.1103  -17.3556   20.5004 C   0  0  0  0  0  0  0  0  0  0  0  0
  -24.2100  -31.0918   22.4977 C   0  0  0  0  0  0  0  0  0  0  0  0
  -28.7336  -11.6925   19.1711 C   0  0  0  0  0  0  0  0  0  0  0  0
  -24.7315  -32.6636   24.1649 C   0  0  0  0  0  0  0  0  0  0  0  0
  -31.2865  -16.8117   19.9964 C   0  0  0  0  0  0  0  0  0  0  0  0
  -26.6557  -34.0430   25.6405 C   0  0  0  0  0  0  0  0  0  0  0  0
  -25.6553  -33.4815   23.5142 C   0  0  0  0  0  0  0  0  0  0  0  0
  -25.5626  -28.3338   19.5888 C   0  0  0  0  0  0  0  0  0  0  0  0
  -31.7008  -18.8721   18.8830 C   0  0  0  0  0  0  0  0  0  0  0  0
  -29.7978  -18.6599   20.1526 C   0  0  0  0  0  0  0  0  0  0  0  0
  -26.6388  -27.3480   17.9441 C   0  0  0  0  0  0  0  0  0  0  0  0
  -27.4249  -29.6718   18.4241 C   0  0  0  0  0  0  0  0  0  0  0  0
  -24.3384  -14.6642   20.3179 C   0  0  0  0  0  0  0  0  0  0  0  0
  -23.5232  -12.4225   22.5162 C   0  0  0  0  0  0  0  0  0  0  0  0
  -24.2887   -9.4895   24.0842 C   0  0  0  0  0  0  0  0  0  0  0  0
  -25.0567  -21.7328   19.2924 C   0  0  0  0  0  0  0  0  0  0  0  0
  -21.0762  -18.5484   19.7449 C   0  0  0  0  0  0  0  0  0  0  0  0
  -24.5196  -12.5442   18.9657 C   0  0  0  0  0  0  0  0  0  0  0  0
  -25.8652  -12.2925   21.5869 C   0  0  0  0  0  0  0  0  0  0  0  0
  -21.5252  -17.6616   20.9035 C   0  0  0  0  0  0  0  0  0  0  0  0
  -23.8755  -23.6937   16.5654 C   0  0  0  0  0  0  0  0  0  0  0  0
  -23.0475  -17.5813   20.9554 C   0  0  0  0  0  0  0  0  0  0  0  0
  -24.2666  -25.1227   16.9459 C   0  0  0  0  0  0  0  0  0  0  0  0
  -33.2623  -13.2478   20.8338 C   0  0  0  0  0  0  0  0  0  0  0  0
  -31.8309  -12.8983   21.1257 C   0  0  0  0  0  0  0  0  0  0  0  0
  -23.4573  -22.8786   17.7872 C   0  0  0  0  0  0  0  0  0  0  0  0
  -24.8314  -24.2912   19.2672 C   0  0  0  0  0  0  0  0  0  0  0  0
  -23.6110  -16.9549   19.6741 C   0  0  1  0  0  0  0  0  0  0  0  0
  -23.9654  -13.2120   20.2204 C   0  0  1  0  0  0  0  0  0  0  0  0
  -25.3142  -25.1354   18.0754 C   0  0  2  0  0  0  0  0  0  0  0  0
  -32.2387  -13.2843   19.7231 C   0  0  0  0  0  0  0  0  0  0  0  0
  -29.2250  -16.5440   21.3870 C   0  0  0  0  0  0  0  0  0  0  0  0
  -32.5520  -19.7230   18.0008 C   0  0  0  0  0  0  0  0  0  0  0  0
  -34.6329  -12.8876   17.9033 C   0  0  0  0  0  0  0  0  0  0  0  0
  -23.4512   -7.9297   25.8627 C   0  0  0  0  0  0  0  0  0  0  0  0
  -24.4851  -14.3617   24.6665 C   0  0  0  0  0  0  0  0  0  0  0  0
  -24.5221  -12.4465   26.2786 C   0  0  0  0  0  0  0  0  0  0  0  0
  -22.3717  -13.1475   25.2266 C   0  0  0  0  0  0  0  0  0  0  0  0
  -24.0283   -7.2532   22.1633 C   0  0  0  0  0  0  0  0  0  0  0  0
  -31.8054  -14.6290   19.2075 C   0  0  0  0  0  0  0  0  0  0  0  0
  -33.1965  -12.5903   17.4932 C   0  0  0  0  0  0  0  0  0  0  0  0
  -27.9677  -20.3539   20.0727 C   0  0  0  0  0  0  0  0  0  0  0  0
  -26.7135  -20.7322   20.8457 C   0  0  0  0  0  0  0  0  0  0  0  0
  -30.8766  -11.8875   18.1585 C   0  0  0  0  0  0  0  0  0  1  0  0
  -24.1037  -11.9501   23.8272 C   0  0  1  0  0  0  0  0  0  0  0  0
  -23.4535   -8.2562   24.3774 C   0  0  2  0  0  0  0  0  0  0  0  0
  -32.2905  -12.1954   18.6748 C   0  0  2  0  0  0  0  0  0  0  0  0
  -23.8856  -12.9753   24.9756 C   0  0  0  0  0  0  0  0  0  0  0  0
  -24.9996  -27.1260   19.4970 N   0  0  0  0  0  0  0  0  0  0  0  0
  -30.5654  -19.4349   19.3540 N   0  0  0  0  0  0  0  0  0  0  0  0
  -25.6753  -26.5504   18.4880 N   0  0  0  0  0  0  0  0  0  0  0  0
  -24.4254  -12.5692   21.4530 N   0  0  0  0  0  0  0  0  0  0  0  0
  -24.4947  -22.9304   18.8202 N   0  0  0  0  0  0  0  0  0  0  0  0
  -27.4115  -26.9256   16.9210 N   0  0  0  0  0  0  0  0  0  0  0  0
  -27.2415  -30.8001   19.2351 N   0  0  0  0  0  0  0  0  0  0  0  0
  -28.6004  -19.2202   20.6635 N   0  0  0  0  0  0  0  0  0  0  0  0
  -23.4449  -15.5175   19.6990 N   0  0  0  0  0  0  0  0  0  0  0  0
  -23.5227  -10.6361   24.0810 N   0  0  0  0  0  0  0  0  0  0  0  0
  -26.0377  -21.8718   20.2666 N   0  0  0  0  0  0  0  0  0  0  0  0
  -23.9908   -7.0791   23.6382 N   0  3  0  0  0  0  0  0  0  0  0  0
  -28.2966  -29.6990   17.5225 O   0  0  0  0  0  0  0  0  0  0  0  0
  -25.3605  -14.9869   20.9121 O   0  0  0  0  0  0  0  0  0  0  0  0
  -22.3127  -12.6460   22.4363 O   0  0  0  0  0  0  0  0  0  0  0  0
  -25.5000   -9.4411   23.8823 O   0  0  0  0  0  0  0  0  0  0  0  0
  -24.7137  -20.6224   18.8728 O   0  0  0  0  0  0  0  0  0  0  0  0
  -23.7752  -31.9789   23.4340 O   0  0  0  0  0  0  0  0  0  0  0  0
  -31.6560  -15.5281   20.3002 O   0  0  0  0  0  0  0  0  0  0  0  0
  -30.0650  -11.4180   19.2342 O   0  0  0  0  0  0  0  0  0  1  0  0
  -27.5786  -34.7065   26.3492 F   0  0  0  0  0  0  0  0  0  0  0  0
  -25.6227  -33.6095   22.1807 F   0  0  0  0  0  0  0  0  0  0  0  0
  1  2  1  0  0  0  0
  1  5  2  0  0  0  0
  2  6  2  0  0  0  0
  3  8  2  0  0  0  0
  3 16  1  0  0  0  0
  4  9  1  0  0  0  0
  4 16  2  0  0  0  0
  5 18  1  0  0  0  0
  6 20  1  0  0  0  0
  7 10  2  0  0  0  0
  7 19  1  0  0  0  0
  8 23  1  0  0  0  0
  9 23  2  0  0  0  0
 10 24  1  0  0  0  0
 11 12  2  0  0  0  0
 11 25  1  0  0  0  0
 12 27  1  0  0  0  0
 13 21  1  0  0  0  0
 13 24  2  0  0  0  0
 14 26  1  0  0  0  0
 14 30  2  0  0  0  0
 15 27  2  0  0  0  0
 15 28  1  0  0  0  0
 16 29  1  0  0  0  0
 17 29  1  0  0  0  0
 17 32  2  0  0  0  0
 17 33  1  0  0  0  0
 18 20  2  0  0  0  0
 18 38  1  0  0  0  0
 19 21  2  0  0  0  0
 19 39  1  0  0  0  0
 20 49  1  0  0  0  0
 21 40  1  0  0  0  0
 22 26  2  0  0  0  0
 22 31  1  0  0  0  0
 22 53  1  0  0  0  0
 23 87  1  0  0  0  0
 24 89  1  0  0  0  0
 25 28  2  0  0  0  0
 25 87  1  0  0  0  0
 26 88  1  0  0  0  0
 27 90  1  0  0  0  0
 28 91  1  0  0  0  0
 29 70  2  0  0  0  0
 30 54  1  0  0  0  0
 30 71  1  0  0  0  0
 31 71  2  0  0  0  0
 31 77  1  0  0  0  0
 32 72  1  0  0  0  0
 32 75  1  0  0  0  0
 33 76  1  0  0  0  0
 33 82  2  0  0  0  0
 34 50  1  0  0  0  0
 34 78  1  0  0  0  0
 34 83  2  0  0  0  0
 35 66  1  0  0  0  0
 35 73  1  0  0  0  0
 35 84  2  0  0  0  0
 36 67  1  0  0  0  0
 36 79  1  0  0  0  0
 36 85  2  0  0  0  0
 37 74  1  0  0  0  0
 37 80  1  0  0  0  0
 37 86  2  0  0  0  0
 38 41  1  0  0  0  0
 39 50  1  0  0  0  0
 40 73  1  0  0  0  0
 41 43  1  0  0  0  0
 42 44  1  0  0  0  0
 42 47  1  0  0  0  0
 43 49  1  0  0  0  0
 44 51  1  0  0  0  0
 45 46  1  0  0  0  0
 45 52  1  0  0  0  0
 46 52  1  0  0  0  0
 47 74  1  0  0  0  0
 48 51  1  0  0  0  0
 48 74  1  0  0  0  0
 49 78  1  0  0  0  0
 50 73  1  0  0  0  0
 51 72  1  0  0  0  0
 52 61  1  0  0  0  0
 52 68  1  0  0  0  0
 55 62  1  0  0  0  0
 56 67  1  0  0  0  0
 57 69  1  0  0  0  0
 58 69  1  0  0  0  0
 59 69  1  0  0  0  0
 60 81  1  0  0  0  0
 61 88  1  0  0  0  0
 62 68  1  0  0  0  0
 63 64  1  0  0  0  0
 63 77  1  0  0  0  0
 64 80  1  0  0  0  0
 65 68  1  0  0  0  0
 65 89  1  0  0  0  0
 66 69  1  0  0  0  0
 66 79  1  0  0  0  0
 67 81  1  0  0  0  0
 70 72  1  0  0  0  0
M  CHG  1  81   1
M  ISO  4  37 100  65 101  80 100  89 101
M  END
> <Batch ID>
0115

> <Smiles>
CCC(C1(COc2cc(C)nc(NCC[100NH:0][100C:0](=O)N3CCCC(n4nc(-c5ccc(Oc6ccc(F)cc6F)cc5)c(C(N)=O)c4N)C3)c2C)CC1)[101CH2:1][101O:1]c1ccc2c(c1)CN(C(=O)C(NC(=O)C(C)NC)C(C)(C)C)C(C(=O)NC1CCCc3ccccc31)C2

> <Shape>
0.229

> <Color>
0.071

> <Negative vol penalty>
0.000

$$$$

  -OEChem-04052320103D

 91100  0     1  0  0  0  0  0999 V2000
  -17.7203  -25.8707   23.0926 C   0  0  0  0  0  0  0  0  0  0  0  0
  -19.0034  -25.4926   22.7104 C   0  0  0  0  0  0  0  0  0  0  0  0
  -27.2060  -11.9682   20.2491 C   0  0  0  0  0  0  0  0  0  0  0  0
  -26.0704  -13.6850   18.9842 C   0  0  0  0  0  0  0  0  0  0  0  0
  -17.3123  -27.1958   22.9454 C   0  0  0  0  0  0  0  0  0  0  0  0
  -19.8789  -26.4393   22.1796 C   0  0  0  0  0  0  0  0  0  0  0  0
  -25.9523  -26.6674   22.9329 C   0  0  0  0  0  0  0  0  0  0  0  0
  -26.1277  -11.1067   20.0479 C   0  0  0  0  0  0  0  0  0  0  0  0
  -24.9921  -12.8234   18.7829 C   0  0  0  0  0  0  0  0  0  0  0  0
  -27.0133  -26.2486   22.1313 C   0  0  0  0  0  0  0  0  0  0  0  0
  -23.0379  -10.6409   21.3366 C   0  0  0  0  0  0  0  0  0  0  0  0
  -22.5754   -9.9153   22.4344 C   0  0  0  0  0  0  0  0  0  0  0  0
  -27.2214  -28.4841   21.2492 C   0  0  0  0  0  0  0  0  0  0  0  0
  -27.7693  -25.2023   17.4036 C   0  0  0  0  0  0  0  0  0  0  0  0
  -23.0548   -7.8519   21.2727 C   0  0  0  0  0  0  0  0  0  0  0  0
  -27.1774  -13.2575   19.7173 C   0  0  0  0  0  0  0  0  0  0  0  0
  -29.4259  -14.2957   19.1061 C   0  0  0  0  0  0  0  0  0  0  0  0
  -18.1865  -28.1611   22.4215 C   0  0  0  0  0  0  0  0  0  0  0  0
  -25.5101  -27.9974   22.8906 C   0  0  0  0  0  0  0  0  0  0  0  0
  -19.4818  -27.7782   22.0240 C   0  0  0  0  0  0  0  0  0  0  0  0
  -26.1563  -28.9179   22.0532 C   0  0  0  0  0  0  0  0  0  0  0  0
  -27.8275  -23.9125   16.8873 C   0  0  0  0  0  0  0  0  0  0  0  0
  -28.6626  -22.9704   17.4776 C   0  0  0  0  0  0  0  0  0  0  0  0
  -25.0208  -11.5342   19.3147 C   0  0  0  0  0  0  0  0  0  0  0  0
  -27.6462  -27.1563   21.2871 C   0  0  0  0  0  0  0  0  0  0  0  0
  -23.5088   -9.9719   20.2067 C   0  0  0  0  0  0  0  0  0  0  0  0
  -22.5838   -8.5209   22.4025 C   0  0  0  0  0  0  0  0  0  0  0  0
  -23.5173   -8.5775   20.1748 C   0  0  0  0  0  0  0  0  0  0  0  0
  -28.2907  -14.1481   19.9254 C   0  0  0  0  0  0  0  0  0  0  0  0
  -28.5599  -25.4972   18.5026 C   0  0  0  0  0  0  0  0  0  0  0  0
  -29.4133  -23.3653   18.5731 C   0  0  0  0  0  0  0  0  0  0  0  0
  -30.1795  -15.2575   19.7334 C   0  0  0  0  0  0  0  0  0  0  0  0
  -29.7687  -13.6235   17.8869 C   0  0  0  0  0  0  0  0  0  0  0  0
  -22.7855  -29.4313   22.1006 C   0  0  0  0  0  0  0  0  0  0  0  0
  -24.3196  -32.0789   23.1771 C   0  0  0  0  0  0  0  0  0  0  0  0
  -27.2790  -33.6538   23.8163 C   0  0  0  0  0  0  0  0  0  0  0  0
  -30.6001  -20.1595   22.3675 C   0  0  0  0  0  0  0  0  0  0  0  0
  -17.6845  -29.5714   22.2373 C   0  0  0  0  0  0  0  0  0  0  0  0
  -24.3816  -28.4397   23.7813 C   0  0  0  0  0  0  0  0  0  0  0  0
  -25.7329  -30.3618   21.9857 C   0  0  0  0  0  0  0  0  0  0  0  0
  -18.7991  -30.5905   22.0150 C   0  0  0  0  0  0  0  0  0  0  0  0
  -29.7205  -17.3211   24.3288 C   0  0  0  0  0  0  0  0  0  0  0  0
  -19.7979  -30.0730   20.9847 C   0  0  0  0  0  0  0  0  0  0  0  0
  -32.6983  -19.5826   15.7528 C   0  0  0  0  0  0  0  0  0  0  0  0
  -32.1375  -18.4283   14.9700 C   0  0  0  0  0  0  0  0  0  0  0  0
  -29.3579  -16.2575   23.2909 C   0  0  0  0  0  0  0  0  0  0  0  0
  -29.2800  -18.7148   23.8862 C   0  0  0  0  0  0  0  0  0  0  0  0
  -29.3965  -18.0574   21.5139 C   0  0  0  0  0  0  0  0  0  0  0  0
  -20.4688  -28.7812   21.4672 C   0  0  1  0  0  0  0  0  0  0  0  0
  -23.6806  -29.6975   23.2777 C   0  0  1  0  0  0  0  0  0  0  0  0
  -31.4317  -19.7559   14.9613 C   0  0  0  0  0  0  0  0  0  0  0  0
  -29.8705  -16.6432   21.8902 C   0  0  2  0  0  0  0  0  0  0  0  0
  -26.9861  -23.5654   15.7036 C   0  0  0  0  0  0  0  0  0  0  0  0
  -28.2132  -35.8258   24.6572 C   0  0  0  0  0  0  0  0  0  0  0  0
  -29.4124  -28.0589   17.0110 C   0  0  0  0  0  0  0  0  0  0  0  0
  -31.0180  -27.3130   18.7747 C   0  0  0  0  0  0  0  0  0  0  0  0
  -23.6641  -33.3934   20.5027 C   0  0  0  0  0  0  0  0  0  0  0  0
  -25.3888  -35.1345   21.0149 C   0  0  0  0  0  0  0  0  0  0  0  0
  -23.3942  -34.8848   22.4921 C   0  0  0  0  0  0  0  0  0  0  0  0
  -28.6243  -32.3269   26.0942 C   0  0  0  0  0  0  0  0  0  0  0  0
  -28.7374  -21.5803   16.9374 C   0  0  0  0  0  0  0  0  0  0  0  0
  -30.1052  -19.9179   15.6709 C   0  0  0  0  0  0  0  0  0  0  0  0
  -31.0811  -22.7133   20.3106 C   0  0  0  0  0  0  0  0  0  0  0  0
  -31.8953  -21.4980   20.7274 C   0  0  0  0  0  0  0  0  0  0  0  0
  -28.5221  -26.8908   19.0921 C   0  0  2  0  0  0  0  0  0  1  0  0
  -25.2099  -33.1265   22.5533 C   0  0  1  0  0  0  0  0  0  0  0  0
  -27.7705  -34.4198   25.0313 C   0  0  2  0  0  0  0  0  0  0  0  0
  -29.6024  -27.8405   18.5174 C   0  0  0  0  0  0  0  0  0  0  0  0
  -24.4212  -34.1072   21.6403 C   0  0  0  0  0  0  0  0  0  0  0  0
  -28.3166  -14.9518   20.9919 N   0  0  0  0  0  0  0  0  0  0  0  0
  -29.3833  -24.6088   19.1028 N   0  0  0  0  0  0  0  0  0  0  0  0
  -29.4773  -15.6135   20.8472 N   0  0  0  0  0  0  0  0  0  0  0  0
  -24.6206  -30.7441   22.8712 N   0  0  0  0  0  0  0  0  0  0  0  0
  -29.8005  -19.0194   22.5512 N   0  0  0  0  0  0  0  0  0  0  0  0
  -31.3676  -15.8250   19.4356 N   0  0  0  0  0  0  0  0  0  0  0  0
  -28.8817  -12.6632   17.3813 N   0  0  0  0  0  0  0  0  0  0  0  0
  -30.2670  -22.4099   19.1794 N   0  0  0  0  0  0  0  0  0  0  0  0
  -21.4943  -29.0786   22.4441 N   0  0  0  0  0  0  0  0  0  0  0  0
  -25.9147  -33.7721   23.6556 N   0  0  0  0  0  0  0  0  0  0  0  0
  -31.0574  -20.3713   21.0726 N   0  0  0  0  0  0  0  0  0  0  0  0
  -28.9249  -33.7143   25.6563 N   0  3  0  0  0  0  0  0  0  0  0  0
  -29.9839  -21.3129   16.1695 N   0  3  0  0  0  0  0  0  0  0  0  0
  -30.8377  -13.8553   17.2730 O   0  0  0  0  0  0  0  0  0  0  0  0
  -23.2327  -29.5394   20.9648 O   0  0  0  0  0  0  0  0  0  0  0  0
  -23.3958  -32.4316   23.9144 O   0  0  0  0  0  0  0  0  0  0  0  0
  -28.0307  -33.0175   23.0811 O   0  0  0  0  0  0  0  0  0  0  0  0
  -30.8898  -20.9286   23.2903 O   0  0  0  0  0  0  0  0  0  0  0  0
  -23.9685  -10.6937   19.1179 O   0  0  0  0  0  0  0  0  0  0  0  0
  -28.6816  -26.7500   20.5031 O   0  0  0  0  0  0  0  0  0  1  0  0
  -22.1410   -7.8243   23.4574 F   0  0  0  0  0  0  0  0  0  0  0  0
  -23.9696   -7.9293   19.0927 F   0  0  0  0  0  0  0  0  0  0  0  0
  1  2  1  0  0  0  0
  1  5  2  0  0  0  0
  2  6  2  0  0  0  0
  3  8  2  0  0  0  0
  3 16  1  0  0  0  0
  4  9  1  0  0  0  0
  4 16  2  0  0  0  0
  5 18  1  0  0  0  0
  6 20  1  0  0  0  0
  7 10  2  0  0  0  0
  7 19  1  0  0  0  0
  8 24  1  0  0  0  0
  9 24  2  0  0  0  0
 10 25  1  0  0  0  0
 11 12  2  0  0  0  0
 11 26  1  0  0  0  0
 12 27  1  0  0  0  0
 13 21  1  0  0  0  0
 13 25  2  0  0  0  0
 14 22  2  0  0  0  0
 14 30  1  0  0  0  0
 15 27  2  0  0  0  0
 15 28  1  0  0  0  0
 16 29  1  0  0  0  0
 17 29  1  0  0  0  0
 17 32  2  0  0  0  0
 17 33  1  0  0  0  0
 18 20  2  0  0  0  0
 18 38  1  0  0  0  0
 19 21  2  0  0  0  0
 19 39  1  0  0  0  0
 20 49  1  0  0  0  0
 21 40  1  0  0  0  0
 22 23  1  0  0  0  0
 22 53  1  0  0  0  0
 23 31  2  0  0  0  0
 23 61  1  0  0  0  0
 24 88  1  0  0  0  0
 25 89  1  0  0  0  0
 26 28  2  0  0  0  0
 26 88  1  0  0  0  0
 27 90  1  0  0  0  0
 28 91  1  0  0  0  0
 29 70  2  0  0  0  0
 30 65  1  0  0  0  0
 30 71  2  0  0  0  0
 31 71  1  0  0  0  0
 31 77  1  0  0  0  0
 32 72  1  0  0  0  0
 32 75  1  0  0  0  0
 33 76  1  0  0  0  0
 33 83  2  0  0  0  0
 34 50  1  0  0  0  0
 34 78  1  0  0  0  0
 34 84  2  0  0  0  0
 35 66  1  0  0  0  0
 35 73  1  0  0  0  0
 35 85  2  0  0  0  0
 36 67  1  0  0  0  0
 36 79  1  0  0  0  0
 36 86  2  0  0  0  0
 37 74  1  0  0  0  0
 37 80  1  0  0  0  0
 37 87  2  0  0  0  0
 38 41  1  0  0  0  0
 39 50  1  0  0  0  0
 40 73  1  0  0  0  0
 41 43  1  0  0  0  0
 42 46  1  0  0  0  0
 42 47  1  0  0  0  0
 43 49  1  0  0  0  0
 44 45  1  0  0  0  0
 44 51  1  0  0  0  0
 45 51  1  0  0  0  0
 46 52  1  0  0  0  0
 47 74  1  0  0  0  0
 48 52  1  0  0  0  0
 48 74  1  0  0  0  0
 49 78  1  0  0  0  0
 50 73  1  0  0  0  0
 51 62  1  0  0  0  0
 52 72  1  0  0  0  0
 54 67  1  0  0  0  0
 55 68  1  0  0  0  0
 56 68  1  0  0  0  0
 57 69  1  0  0  0  0
 58 69  1  0  0  0  0
 59 69  1  0  0  0  0
 60 81  1  0  0  0  0
 61 82  1  0  0  0  0
 62 82  1  0  0  0  0
 63 64  1  0  0  0  0
 63 77  1  0  0  0  0
 64 80  1  0  0  0  0
 65 68  1  0  0  0  0
 65 89  1  0  0  0  0
 66 69  1  0  0  0  0
 66 79  1  0  0  0  0
 67 81  1  0  0  0  0
 70 72  1  0  0  0  0
M  CHG  2  81   1  82   1
M  ISO  4  37 100  65 101  80 100  89 101
M  END
> <Batch ID>
0115

> <Smiles>
CNC(C)C(=O)NC(C(=O)N1Cc2cc([101O:1][101CH:1](c3cc(C)c(CNCC4CC4)c(NCC[100NH:0][100C:0](=O)N4CCCC(n5nc(-c6ccc(Oc7ccc(F)cc7F)cc6)c(C(N)=O)c5N)C4)n3)C(C)C)ccc2CC1C(=O)NC1CCCc2ccccc21)C(C)(C)C

> <Shape>
0.300

> <Color>
0.092

> <Negative vol penalty>
0.000

$$$$

  -OEChem-04052320103D

 87 96  0     1  0  0  0  0  0999 V2000
  -19.2734  -33.6758   17.9874 C   0  0  0  0  0  0  0  0  0  0  0  0
  -20.4353  -32.9968   17.6347 C   0  0  0  0  0  0  0  0  0  0  0  0
  -23.4988  -12.8197   23.5914 C   0  0  0  0  0  0  0  0  0  0  0  0
  -24.3897  -10.5973   23.2683 C   0  0  0  0  0  0  0  0  0  0  0  0
  -19.1300  -34.1866   19.2768 C   0  0  0  0  0  0  0  0  0  0  0  0
  -21.4550  -32.8291   18.5709 C   0  0  0  0  0  0  0  0  0  0  0  0
  -25.1894  -28.0068   19.1231 C   0  0  0  0  0  0  0  0  0  0  0  0
  -22.9678  -12.4282   24.8204 C   0  0  0  0  0  0  0  0  0  0  0  0
  -23.8587  -10.2058   24.4973 C   0  0  0  0  0  0  0  0  0  0  0  0
  -26.4925  -27.7746   18.6854 C   0  0  0  0  0  0  0  0  0  0  0  0
  -20.2839  -10.7043   25.9381 C   0  0  0  0  0  0  0  0  0  0  0  0
  -18.9741  -11.0859   26.2284 C   0  0  0  0  0  0  0  0  0  0  0  0
  -27.3309  -28.4413   20.8468 C   0  0  0  0  0  0  0  0  0  0  0  0
  -19.7566  -12.2954   28.1681 C   0  0  0  0  0  0  0  0  0  0  0  0
  -24.2097  -11.9042   22.8153 C   0  0  0  0  0  0  0  0  0  0  0  0
  -24.0504  -12.7957   20.4305 C   0  0  0  0  0  0  0  0  0  0  0  0
  -20.1444  -34.0167   20.2322 C   0  0  0  0  0  0  0  0  0  0  0  0
  -24.9474  -28.4691   20.4247 C   0  0  0  0  0  0  0  0  0  0  0  0
  -21.3256  -33.3393   19.8739 C   0  0  0  0  0  0  0  0  0  0  0  0
  -26.0235  -28.6761   21.2995 C   0  0  0  0  0  0  0  0  0  0  0  0
  -23.1478  -11.1213   25.2733 C   0  0  0  0  0  0  0  0  0  0  0  0
  -27.5637  -27.9946   19.5463 C   0  0  0  0  0  0  0  0  0  0  0  0
  -21.3301  -11.1181   26.7627 C   0  0  0  0  0  0  0  0  0  0  0  0
  -18.7104  -11.8815   27.3434 C   0  0  0  0  0  0  0  0  0  0  0  0
  -21.0664  -11.9137   27.8777 C   0  0  0  0  0  0  0  0  0  0  0  0
  -24.7580  -12.3079   21.5455 C   0  0  0  0  0  0  0  0  0  0  0  0
  -25.0191  -13.0331   19.4861 C   0  0  0  0  0  0  0  0  0  0  0  0
  -22.6434  -13.0146   20.2633 C   0  0  0  0  0  0  0  0  0  0  0  0
  -23.6381  -31.0847   21.6689 C   0  0  0  0  0  0  0  0  0  0  0  0
  -24.0258  -29.4790   24.4606 C   0  0  0  0  0  0  0  0  0  0  0  0
  -25.6940  -27.0696   26.2095 C   0  0  0  0  0  0  0  0  0  0  0  0
  -30.0240  -15.0385   18.0459 C   0  0  0  0  0  0  0  0  0  0  0  0
  -19.9638  -34.6276   21.5992 C   0  0  0  0  0  0  0  0  0  0  0  0
  -23.5342  -28.6892   20.8902 C   0  0  0  0  0  0  0  0  0  0  0  0
  -25.8160  -29.1527   22.7131 C   0  0  0  0  0  0  0  0  0  0  0  0
  -20.9339  -34.0812   22.6435 C   0  0  0  0  0  0  0  0  0  0  0  0
  -29.9092  -11.7433   19.3896 C   0  0  0  0  0  0  0  0  0  0  0  0
  -22.3532  -34.0440   22.0859 C   0  0  0  0  0  0  0  0  0  0  0  0
  -30.7131  -23.4111   17.1295 C   0  0  0  0  0  0  0  0  0  0  0  0
  -29.4568  -22.9084   19.2617 C   0  0  0  0  0  0  0  0  0  0  0  0
  -31.2512  -24.6990   17.7503 C   0  0  0  0  0  0  0  0  0  0  0  0
  -29.9953  -24.1962   19.8825 C   0  0  0  0  0  0  0  0  0  0  0  0
  -28.5034  -11.6392   19.9834 C   0  0  0  0  0  0  0  0  0  0  0  0
  -30.4953  -13.1421   19.5685 C   0  0  0  0  0  0  0  0  0  0  0  0
  -28.2410  -14.1341   19.6581 C   0  0  0  0  0  0  0  0  0  0  0  0
  -30.8240  -20.4103   16.6244 C   0  0  0  0  0  0  0  0  0  0  0  0
  -28.9244  -18.8431   18.1296 C   0  0  0  0  0  0  0  0  0  0  0  0
  -22.4436  -33.1155   20.8689 C   0  0  1  0  0  0  0  0  0  0  0  0
  -23.4367  -29.6509   22.0704 C   0  0  1  0  0  0  0  0  0  0  0  0
  -30.4091  -22.3513   18.1961 C   0  0  0  0  0  0  0  0  0  0  0  0
  -30.2986  -25.2559   18.8158 C   0  0  0  0  0  0  0  0  0  0  0  0
  -27.5862  -12.7574   19.4525 C   0  0  2  0  0  0  0  0  0  0  0  0
  -29.8273  -21.0986   17.5583 C   0  0  2  0  0  0  0  0  0  0  0  0
  -29.9475  -18.2244   17.1764 C   0  0  1  0  0  0  0  0  0  0  0  0
  -25.8143  -26.0124   28.4822 C   0  0  0  0  0  0  0  0  0  0  0  0
  -31.9482  -26.1420   20.4835 C   0  0  0  0  0  0  0  0  0  0  0  0
  -25.5064  -31.9280   25.5188 C   0  0  0  0  0  0  0  0  0  0  0  0
  -26.4031  -30.4998   27.3693 C   0  0  0  0  0  0  0  0  0  0  0  0
  -23.9445  -30.8646   27.1572 C   0  0  0  0  0  0  0  0  0  0  0  0
  -24.9794  -24.4059   25.1358 C   0  0  0  0  0  0  0  0  0  0  0  0
  -29.3969  -16.9343   16.5722 C   0  0  0  0  0  0  0  0  0  0  0  0
  -29.7884  -27.3671   20.1057 C   0  0  0  0  0  0  0  0  0  1  0  0
  -25.1249  -29.3746   25.4902 C   0  0  1  0  0  0  0  0  0  0  0  0
  -25.1968  -25.9408   27.0943 C   0  0  2  0  0  0  0  0  0  0  0  0
  -30.8815  -26.5143   19.4560 C   0  0  2  0  0  0  0  0  0  0  0  0
  -25.2491  -30.6596   26.3567 C   0  0  0  0  0  0  0  0  0  0  0  0
  -26.0745  -12.2389   21.3309 N   0  0  0  0  0  0  0  0  0  0  0  0
  -26.2019  -12.6863   20.0700 N   0  0  0  0  0  0  0  0  0  0  0  0
  -30.2912  -19.1533   16.0897 N   0  0  0  0  0  0  0  0  0  0  0  0
  -24.4161  -29.3596   23.1192 N   0  0  0  0  0  0  0  0  0  0  0  0
  -29.5775  -14.1558   19.0432 N   0  0  0  0  0  0  0  0  0  0  0  0
  -24.9660  -13.5025   18.2215 N   0  0  0  0  0  0  0  0  0  0  0  0
  -21.8587  -11.9661   19.7640 N   0  0  0  0  0  0  0  0  0  0  0  0
  -22.4771  -31.7314   21.2904 N   0  0  0  0  0  0  0  0  0  0  0  0
  -24.8540  -28.1621   26.2550 N   0  0  0  0  0  0  0  0  0  0  0  0
  -29.0890  -15.9641   17.5991 N   0  0  0  0  0  0  0  0  0  0  0  0
  -29.4650  -20.1355   18.6506 N   0  3  0  0  0  0  0  0  0  0  0  0
  -25.5421  -24.6213   26.4937 N   0  3  0  0  0  0  0  0  0  0  0  0
  -22.1007  -14.1130   20.5329 O   0  0  0  0  0  0  0  0  0  0  0  0
  -24.7634  -31.5689   21.7015 O   0  0  0  0  0  0  0  0  0  0  0  0
  -22.8627  -29.6526   24.8330 O   0  0  0  0  0  0  0  0  0  0  0  0
  -26.7265  -26.9916   25.5474 O   0  0  0  0  0  0  0  0  0  0  0  0
  -31.1695  -15.0007   17.5839 O   0  0  0  0  0  0  0  0  0  0  0  0
  -22.6300  -10.7389   26.4726 O   0  0  0  0  0  0  0  0  0  0  0  0
  -28.8367  -27.7694   19.1214 O   0  0  0  0  0  0  0  0  0  1  0  0
  -17.4528  -12.2493   27.6213 F   0  0  0  0  0  0  0  0  0  0  0  0
  -22.0674  -12.3153   28.6729 F   0  0  0  0  0  0  0  0  0  0  0  0
  1  2  1  0  0  0  0
  1  5  2  0  0  0  0
  2  6  2  0  0  0  0
  3  8  2  0  0  0  0
  3 15  1  0  0  0  0
  4  9  1  0  0  0  0
  4 15  2  0  0  0  0
  5 17  1  0  0  0  0
  6 19  1  0  0  0  0
  7 10  2  0  0  0  0
  7 18  1  0  0  0  0
  8 21  1  0  0  0  0
  9 21  2  0  0  0  0
 10 22  1  0  0  0  0
 11 12  2  0  0  0  0
 11 23  1  0  0  0  0
 12 24  1  0  0  0  0
 13 20  1  0  0  0  0
 13 22  2  0  0  0  0
 14 24  2  0  0  0  0
 14 25  1  0  0  0  0
 15 26  1  0  0  0  0
 16 26  1  0  0  0  0
 16 27  2  0  0  0  0
 16 28  1  0  0  0  0
 17 19  2  0  0  0  0
 17 33  1  0  0  0  0
 18 20  2  0  0  0  0
 18 34  1  0  0  0  0
 19 48  1  0  0  0  0
 20 35  1  0  0  0  0
 21 84  1  0  0  0  0
 22 85  1  0  0  0  0
 23 25  2  0  0  0  0
 23 84  1  0  0  0  0
 24 86  1  0  0  0  0
 25 87  1  0  0  0  0
 26 67  2  0  0  0  0
 27 68  1  0  0  0  0
 27 72  1  0  0  0  0
 28 73  1  0  0  0  0
 28 79  2  0  0  0  0
 29 49  1  0  0  0  0
 29 74  1  0  0  0  0
 29 80  2  0  0  0  0
 30 63  1  0  0  0  0
 30 70  1  0  0  0  0
 30 81  2  0  0  0  0
 31 64  1  0  0  0  0
 31 75  1  0  0  0  0
 31 82  2  0  0  0  0
 32 71  1  0  0  0  0
 32 76  1  0  0  0  0
 32 83  2  0  0  0  0
 33 36  1  0  0  0  0
 34 49  1  0  0  0  0
 35 70  1  0  0  0  0
 36 38  1  0  0  0  0
 37 43  1  0  0  0  0
 37 44  1  0  0  0  0
 38 48  1  0  0  0  0
 39 41  1  0  0  0  0
 39 50  1  0  0  0  0
 40 42  1  0  0  0  0
 40 50  1  0  0  0  0
 41 51  1  0  0  0  0
 42 51  1  0  0  0  0
 43 52  1  0  0  0  0
 44 71  1  0  0  0  0
 45 52  1  0  0  0  0
 45 71  1  0  0  0  0
 46 53  1  0  0  0  0
 46 69  1  0  0  0  0
 47 54  1  0  0  0  0
 47 77  1  0  0  0  0
 48 74  1  0  0  0  0
 49 70  1  0  0  0  0
 50 53  1  0  0  0  0
 51 65  1  0  0  0  0
 52 68  1  0  0  0  0
 53 77  1  0  0  0  0
 54 61  1  0  0  0  0
 54 69  1  0  0  0  0
 55 64  1  0  0  0  0
 56 65  1  0  0  0  0
 57 66  1  0  0  0  0
 58 66  1  0  0  0  0
 59 66  1  0  0  0  0
 60 78  1  0  0  0  0
 61 76  1  0  0  0  0
 62 65  1  0  0  0  0
 62 85  1  0  0  0  0
 63 66  1  0  0  0  0
 63 75  1  0  0  0  0
 64 78  1  0  0  0  0
 67 68  1  0  0  0  0
M  CHG  2  77   1  78   1
M  ISO  4  32 100  62 101  76 100  85 101
M  END
> <Batch ID>
0115

> <Smiles>
CNC(C)C(=O)NC(C(=O)N1Cc2cc([101O:1][101CH2:1]C(C)C3CCC(C4CNC(C[100NH:0][100C:0](=O)N5CCCC(n6nc(-c7ccc(Oc8ccc(F)cc8F)cc7)c(C(N)=O)c6N)C5)CN4)CC3)ccc2CC1C(=O)NC1CCCc2ccccc21)C(C)(C)C

> <Shape>
0.223

> <Color>
0.079

> <Negative vol penalty>
0.000

$$$$

  -OEChem-04052320103D

 84 92  0     1  0  0  0  0  0999 V2000
  -27.6605  -33.6141   26.3449 C   0  0  0  0  0  0  0  0  0  0  0  0
  -27.8973  -32.4420   25.6339 C   0  0  0  0  0  0  0  0  0  0  0  0
  -22.9363  -13.7985   22.1810 C   0  0  0  0  0  0  0  0  0  0  0  0
  -25.2081  -14.2569   21.4985 C   0  0  0  0  0  0  0  0  0  0  0  0
  -26.3578  -33.9614   26.7003 C   0  0  0  0  0  0  0  0  0  0  0  0
  -26.8315  -31.6159   25.2788 C   0  0  0  0  0  0  0  0  0  0  0  0
  -27.1280  -30.0155   20.4834 C   0  0  0  0  0  0  0  0  0  0  0  0
  -22.9496  -12.6205   21.4342 C   0  0  0  0  0  0  0  0  0  0  0  0
  -25.2214  -13.0789   20.7517 C   0  0  0  0  0  0  0  0  0  0  0  0
  -28.0153  -28.9747   20.2133 C   0  0  0  0  0  0  0  0  0  0  0  0
  -24.1574   -9.4790   21.7586 C   0  0  0  0  0  0  0  0  0  0  0  0
  -23.6414   -8.3281   22.3542 C   0  0  0  0  0  0  0  0  0  0  0  0
  -26.1782  -27.4115   20.2323 C   0  0  0  0  0  0  0  0  0  0  0  0
  -21.9940   -8.1565   20.5952 C   0  0  0  0  0  0  0  0  0  0  0  0
  -24.0655  -14.6168   22.2131 C   0  0  0  0  0  0  0  0  0  0  0  0
  -23.8471  -15.9598   24.3709 C   0  0  0  0  0  0  0  0  0  0  0  0
  -25.2745  -33.1440   26.3410 C   0  0  0  0  0  0  0  0  0  0  0  0
  -25.7582  -29.7601   20.6411 C   0  0  0  0  0  0  0  0  0  0  0  0
  -25.5132  -31.9519   25.6309 C   0  0  0  0  0  0  0  0  0  0  0  0
  -25.2751  -28.4512   20.5019 C   0  0  0  0  0  0  0  0  0  0  0  0
  -24.0921  -12.2607   20.7196 C   0  0  0  0  0  0  0  0  0  0  0  0
  -27.5409  -27.6720   20.0905 C   0  0  0  0  0  0  0  0  0  0  0  0
  -23.5917   -9.9688   20.5814 C   0  0  0  0  0  0  0  0  0  0  0  0
  -22.5597   -7.6668   21.7725 C   0  0  0  0  0  0  0  0  0  0  0  0
  -22.5100   -9.3075   19.9997 C   0  0  0  0  0  0  0  0  0  0  0  0
  -24.0522  -15.8341   22.9839 C   0  0  0  0  0  0  0  0  0  0  0  0
  -23.9285  -17.3100   24.6091 C   0  0  0  0  0  0  0  0  0  0  0  0
  -23.6047  -14.9466   25.3560 C   0  0  0  0  0  0  0  0  0  0  0  0
  -23.6695  -30.1100   23.0115 C   0  0  0  0  0  0  0  0  0  0  0  0
  -21.5340  -29.2090   20.7422 C   0  0  0  0  0  0  0  0  0  0  0  0
  -29.7151  -21.6922   20.7406 C   0  0  0  0  0  0  0  0  0  0  0  0
  -20.9452  -27.5796   17.8019 C   0  0  0  0  0  0  0  0  0  0  0  0
  -26.6483  -21.8012   21.7311 C   0  0  0  0  0  0  0  0  0  0  0  0
  -23.8889  -33.5369   26.7886 C   0  0  0  0  0  0  0  0  0  0  0  0
  -24.8104  -30.8977   20.9058 C   0  0  0  0  0  0  0  0  0  0  0  0
  -23.8110  -28.1271   20.6421 C   0  0  0  0  0  0  0  0  0  0  0  0
  -22.7772  -32.7972   26.0488 C   0  0  0  0  0  0  0  0  0  0  0  0
  -23.1810  -21.5368   22.4958 C   0  0  0  0  0  0  0  0  0  0  0  0
  -23.0833  -31.3044   25.9800 C   0  0  0  0  0  0  0  0  0  0  0  0
  -22.9926  -20.0566   22.8327 C   0  0  0  0  0  0  0  0  0  0  0  0
  -28.8340  -25.5496   17.7157 C   0  0  0  0  0  0  0  0  0  0  0  0
  -29.3470  -24.2417   18.3072 C   0  0  0  0  0  0  0  0  0  0  0  0
  -24.1978  -21.7352   21.3739 C   0  0  0  0  0  0  0  0  0  0  0  0
  -25.3179  -19.6143   21.9405 C   0  0  0  0  0  0  0  0  0  0  0  0
  -30.6345  -26.8003   18.9619 C   0  0  0  0  0  0  0  0  0  0  0  0
  -24.3809  -31.0423   25.2060 C   0  0  1  0  0  0  0  0  0  0  0  0
  -23.5057  -30.4492   21.5570 C   0  0  1  0  0  0  0  0  0  0  0  0
  -24.3431  -19.3671   23.1045 C   0  0  2  0  0  0  0  0  0  0  0  0
  -29.1541  -26.7353   18.6171 C   0  0  2  0  0  0  0  0  0  1  0  0
  -30.8429  -24.3008   18.6387 C   0  0  2  0  0  0  0  0  0  0  0  0
  -29.9904  -20.9960   23.1335 C   0  0  0  0  0  0  0  0  0  0  0  0
  -19.0930  -26.9810   16.2181 C   0  0  0  0  0  0  0  0  0  0  0  0
  -20.5895  -27.0407   22.6700 C   0  0  0  0  0  0  0  0  0  0  0  0
  -19.4593  -25.9150   20.7404 C   0  0  0  0  0  0  0  0  0  0  0  0
  -18.7559  -28.2063   21.4316 C   0  0  0  0  0  0  0  0  0  0  0  0
  -32.5273  -25.6051   20.0253 C   0  0  0  0  0  0  0  0  0  0  0  0
  -22.2033  -29.0778   15.5812 C   0  0  0  0  0  0  0  0  0  0  0  0
  -31.2773  -22.9935   19.2985 C   0  0  0  0  0  0  0  0  0  0  0  0
  -20.9755  -27.8909   20.2629 C   0  0  1  0  0  0  0  0  0  0  0  0
  -29.0957  -21.7099   22.1321 C   0  0  2  0  0  0  0  0  0  0  0  0
  -20.1778  -27.9911   16.5584 C   0  0  2  0  0  0  0  0  0  0  0  0
  -19.9730  -27.2687   21.2755 C   0  0  0  0  0  0  0  0  0  0  0  0
  -24.2489  -17.0106   22.3830 N   0  0  0  0  0  0  0  0  0  0  0  0
  -24.1678  -17.8885   23.3974 N   0  0  0  0  0  0  0  0  0  0  0  0
  -22.9249  -29.2726   20.9070 N   0  0  0  0  0  0  0  0  0  0  0  0
  -25.4568  -21.0582   21.6945 N   0  0  0  0  0  0  0  0  0  0  0  0
  -23.8180  -18.0470   25.7347 N   0  0  0  0  0  0  0  0  0  0  0  0
  -23.5522  -13.6092   24.9401 N   0  0  0  0  0  0  0  0  0  0  0  0
  -24.1505  -31.1519   23.7814 N   0  0  0  0  0  0  0  0  0  0  0  0
  -30.5437  -22.7947   20.5028 N   0  0  0  0  0  0  0  0  0  0  0  0
  -20.4111  -28.1430   18.9415 N   0  0  0  0  0  0  0  0  0  0  0  0
  -27.7950  -21.0838   22.0492 N   0  0  0  0  0  0  0  0  0  0  0  0
  -31.0930  -25.4844   19.5688 N   0  3  1  0  0  0  0  0  0  0  0  0
  -21.1002  -28.1007   15.3931 N   0  3  0  0  0  0  0  0  0  0  0  0
  -23.4233  -15.2205   26.5666 O   0  0  0  0  0  0  0  0  0  0  0  0
  -23.3796  -28.9868   23.4064 O   0  0  0  0  0  0  0  0  0  0  0  0
  -20.7652  -30.1498   20.9554 O   0  0  0  0  0  0  0  0  0  0  0  0
  -29.5314  -20.7791   19.9385 O   0  0  0  0  0  0  0  0  0  0  0  0
  -21.9187  -26.8302   17.7663 O   0  0  0  0  0  0  0  0  0  0  0  0
  -26.6864  -23.0150   21.5027 O   0  0  0  0  0  0  0  0  0  0  0  0
  -24.1056  -11.1111   19.9909 O   0  0  0  0  0  0  0  0  0  0  0  0
  -28.4050  -26.6542   19.8275 O   0  0  0  0  0  0  0  0  0  1  0  0
  -22.0653   -6.5607   22.3437 F   0  0  0  0  0  0  0  0  0  0  0  0
  -21.9631   -9.7725   18.8681 F   0  0  0  0  0  0  0  0  0  0  0  0
  1  2  1  0  0  0  0
  1  5  2  0  0  0  0
  2  6  2  0  0  0  0
  3  8  2  0  0  0  0
  3 15  1  0  0  0  0
  4  9  1  0  0  0  0
  4 15  2  0  0  0  0
  5 17  1  0  0  0  0
  6 19  1  0  0  0  0
  7 10  2  0  0  0  0
  7 18  1  0  0  0  0
  8 21  1  0  0  0  0
  9 21  2  0  0  0  0
 10 22  1  0  0  0  0
 11 12  2  0  0  0  0
 11 23  1  0  0  0  0
 12 24  1  0  0  0  0
 13 20  1  0  0  0  0
 13 22  2  0  0  0  0
 14 24  2  0  0  0  0
 14 25  1  0  0  0  0
 15 26  1  0  0  0  0
 16 26  1  0  0  0  0
 16 27  2  0  0  0  0
 16 28  1  0  0  0  0
 17 19  2  0  0  0  0
 17 34  1  0  0  0  0
 18 20  2  0  0  0  0
 18 35  1  0  0  0  0
 19 46  1  0  0  0  0
 20 36  1  0  0  0  0
 21 81  1  0  0  0  0
 22 82  1  0  0  0  0
 23 25  2  0  0  0  0
 23 81  1  0  0  0  0
 24 83  1  0  0  0  0
 25 84  1  0  0  0  0
 26 63  2  0  0  0  0
 27 64  1  0  0  0  0
 27 67  1  0  0  0  0
 28 68  1  0  0  0  0
 28 75  2  0  0  0  0
 29 47  1  0  0  0  0
 29 69  1  0  0  0  0
 29 76  2  0  0  0  0
 30 59  1  0  0  0  0
 30 65  1  0  0  0  0
 30 77  2  0  0  0  0
 31 60  1  0  0  0  0
 31 70  1  0  0  0  0
 31 78  2  0  0  0  0
 32 61  1  0  0  0  0
 32 71  1  0  0  0  0
 32 79  2  0  0  0  0
 33 66  1  0  0  0  0
 33 72  1  0  0  0  0
 33 80  2  0  0  0  0
 34 37  1  0  0  0  0
 35 47  1  0  0  0  0
 36 65  1  0  0  0  0
 37 39  1  0  0  0  0
 38 40  1  0  0  0  0
 38 43  1  0  0  0  0
 39 46  1  0  0  0  0
 40 48  1  0  0  0  0
 41 42  1  0  0  0  0
 41 49  1  0  0  0  0
 42 50  1  0  0  0  0
 43 66  1  0  0  0  0
 44 48  1  0  0  0  0
 44 66  1  0  0  0  0
 45 49  1  0  0  0  0
 45 73  1  0  0  0  0
 46 69  1  0  0  0  0
 47 65  1  0  0  0  0
 48 64  1  0  0  0  0
 49 82  1  0  0  0  0
 50 58  1  0  0  0  0
 50 73  1  0  0  0  0
 51 60  1  0  0  0  0
 52 61  1  0  0  0  0
 53 62  1  0  0  0  0
 54 62  1  0  0  0  0
 55 62  1  0  0  0  0
 56 73  1  0  0  0  0
 57 74  1  0  0  0  0
 58 70  1  0  0  0  0
 59 62  1  0  0  0  0
 59 71  1  0  0  0  0
 60 72  1  0  0  0  0
 61 74  1  0  0  0  0
 63 64  1  0  0  0  0
M  CHG  2  73   1  74   1
M  ISO  4  33 100  49 101  72 100  82 101
M  END
> <Batch ID>
0115

> <Smiles>
CNC(C)C(=O)NC(C(=O)N1Cc2cc([101O:1][101CH:1]3CCC(CNC(=O)C(C)[100NH:0][100C:0](=O)N4CCCC(n5nc(-c6ccc(Oc7ccc(F)cc7F)cc6)c(C(N)=O)c5N)C4)N(C)C3)ccc2CC1C(=O)NC1CCCc2ccccc21)C(C)(C)C

> <Shape>
0.287

> <Color>
0.090

> <Negative vol penalty>
0.000

$$$$

  -OEChem-04052320103D

 84 92  0     1  0  0  0  0  0999 V2000
  -28.6829  -23.7294   16.5496 C   0  0  0  0  0  0  0  0  0  0  0  0
  -28.8515  -23.3696   17.8829 C   0  0  0  0  0  0  0  0  0  0  0  0
  -23.1946   -9.8153   19.9317 C   0  0  0  0  0  0  0  0  0  0  0  0
  -23.5626  -10.0037   22.3121 C   0  0  0  0  0  0  0  0  0  0  0  0
  -28.4224  -17.9130   25.8750 C   0  0  0  0  0  0  0  0  0  0  0  0
  -28.9099  -25.0457   16.1499 C   0  0  0  0  0  0  0  0  0  0  0  0
  -29.2483  -24.3258   18.8171 C   0  0  0  0  0  0  0  0  0  0  0  0
  -26.5680  -24.0801   23.1067 C   0  0  0  0  0  0  0  0  0  0  0  0
  -22.4283   -8.6688   20.1409 C   0  0  0  0  0  0  0  0  0  0  0  0
  -22.7962   -8.8572   22.5213 C   0  0  0  0  0  0  0  0  0  0  0  0
  -26.9014  -23.0708   24.0089 C   0  0  0  0  0  0  0  0  0  0  0  0
  -23.2009   -5.5099   22.2698 C   0  0  0  0  0  0  0  0  0  0  0  0
  -23.6962   -4.5518   23.1543 C   0  0  0  0  0  0  0  0  0  0  0  0
  -28.6953  -16.6016   25.5022 C   0  0  0  0  0  0  0  0  0  0  0  0
  -28.1544  -24.6632   25.3179 C   0  0  0  0  0  0  0  0  0  0  0  0
  -21.7335   -4.8149   24.5384 C   0  0  0  0  0  0  0  0  0  0  0  0
  -23.7618  -10.4828   21.0173 C   0  0  0  0  0  0  0  0  0  0  0  0
  -29.4426  -18.8577   25.8709 C   0  0  0  0  0  0  0  0  0  0  0  0
  -24.0996  -12.9989   20.7668 C   0  0  0  0  0  0  0  0  0  0  0  0
  -29.3003  -26.0207   17.0815 C   0  0  0  0  0  0  0  0  0  0  0  0
  -27.0351  -25.3884   23.2978 C   0  0  0  0  0  0  0  0  0  0  0  0
  -29.4820  -25.6561   18.4292 C   0  0  0  0  0  0  0  0  0  0  0  0
  -27.8234  -25.6878   24.4181 C   0  0  0  0  0  0  0  0  0  0  0  0
  -22.2290   -8.1897   21.4357 C   0  0  0  0  0  0  0  0  0  0  0  0
  -27.6971  -23.3616   25.1131 C   0  0  0  0  0  0  0  0  0  0  0  0
  -21.9719   -6.1206   22.5197 C   0  0  0  0  0  0  0  0  0  0  0  0
  -22.9625   -4.2043   24.2886 C   0  0  0  0  0  0  0  0  0  0  0  0
  -21.2382   -5.7730   23.6539 C   0  0  0  0  0  0  0  0  0  0  0  0
  -24.5540  -11.6669   20.8018 C   0  0  0  0  0  0  0  0  0  0  0  0
  -30.7085  -18.4436   25.4889 C   0  0  0  0  0  0  0  0  0  0  0  0
  -29.9946  -16.2885   25.1364 C   0  0  0  0  0  0  0  0  0  0  0  0
  -25.2313  -13.7416   20.5340 C   0  0  0  0  0  0  0  0  0  0  0  0
  -29.1520  -20.2642   26.2724 C   0  0  0  0  0  0  0  0  0  0  0  0
  -22.7733  -13.5183   20.9303 C   0  0  0  0  0  0  0  0  0  0  0  0
  -28.9020  -27.3664   21.6528 C   0  0  0  0  0  0  0  0  0  0  0  0
  -28.0323  -29.4787   23.9559 C   0  0  0  0  0  0  0  0  0  0  0  0
  -26.9035  -29.9974   27.1345 C   0  0  0  0  0  0  0  0  0  0  0  0
  -31.0424  -12.7594   21.5912 C   0  0  0  0  0  0  0  0  0  0  0  0
  -29.5797  -27.4201   16.5936 C   0  0  0  0  0  0  0  0  0  0  0  0
  -26.6444  -26.4715   22.3299 C   0  0  0  0  0  0  0  0  0  0  0  0
  -28.3334  -27.0806   24.6796 C   0  0  0  0  0  0  0  0  0  0  0  0
  -29.6349  -28.4560   17.7136 C   0  0  0  0  0  0  0  0  0  0  0  0
  -29.5278  -13.4654   18.4473 C   0  0  0  0  0  0  0  0  0  0  0  0
  -30.4866  -27.9454   18.8715 C   0  0  0  0  0  0  0  0  0  0  0  0
  -28.0404  -13.2047   18.6910 C   0  0  0  0  0  0  0  0  0  0  0  0
  -30.4066  -12.4792   19.2134 C   0  0  0  0  0  0  0  0  0  0  0  0
  -28.6461  -12.1406   20.9045 C   0  0  0  0  0  0  0  0  0  0  0  0
  -29.8874  -26.6702   19.4768 C   0  0  1  0  0  0  0  0  0  0  0  0
  -27.6010  -27.6598   22.3450 C   0  0  1  0  0  0  0  0  0  0  0  0
  -27.7209  -13.1454   20.1969 C   0  0  2  0  0  0  0  0  0  0  0  0
  -31.8458  -19.4122   25.4675 C   0  0  0  0  0  0  0  0  0  0  0  0
  -26.3262  -31.8334   28.7449 C   0  0  0  0  0  0  0  0  0  0  0  0
  -31.0022  -29.9936   24.4296 C   0  0  0  0  0  0  0  0  0  0  0  0
  -30.3977  -31.0611   26.6121 C   0  0  0  0  0  0  0  0  0  0  0  0
  -29.5682  -32.0421   24.4738 C   0  0  0  0  0  0  0  0  0  0  0  0
  -24.0924  -29.0941   27.3368 C   0  0  0  0  0  0  0  0  0  0  0  0
  -28.1274  -21.0515   25.4795 C   0  0  0  0  0  0  0  0  0  1  0  0
  -31.5522  -14.4978   24.3665 C   0  0  0  0  0  0  0  0  0  0  0  0
  -31.5220  -13.0188   24.0123 C   0  0  0  0  0  0  0  0  0  0  0  0
  -28.5774  -29.8708   25.3079 C   0  0  1  0  0  0  0  0  0  0  0  0
  -25.7992  -30.8854   27.6789 C   0  0  2  0  0  0  0  0  0  0  0  0
  -29.8785  -30.7151   25.2002 C   0  0  0  0  0  0  0  0  0  0  0  0
  -25.8714  -11.5661   20.6066 N   0  0  0  0  0  0  0  0  0  0  0  0
  -31.0118  -17.1788   25.1202 N   0  0  0  0  0  0  0  0  0  0  0  0
  -26.2547  -12.8443   20.4467 N   0  0  0  0  0  0  0  0  0  0  0  0
  -27.9295  -28.1038   23.7011 N   0  0  0  0  0  0  0  0  0  0  0  0
  -30.0540  -12.4724   20.6353 N   0  0  0  0  0  0  0  0  0  0  0  0
  -25.4408  -15.0682   20.3973 N   0  0  0  0  0  0  0  0  0  0  0  0
  -21.7263  -12.6161   21.1628 N   0  0  0  0  0  0  0  0  0  0  0  0
  -30.2576  -14.9470   24.7631 N   0  0  0  0  0  0  0  0  0  0  0  0
  -28.7637  -26.9950   20.3290 N   0  0  0  0  0  0  0  0  0  0  0  0
  -27.4871  -30.5400   26.0093 N   0  0  0  0  0  0  0  0  0  0  0  0
  -30.6225  -12.7380   22.9156 N   0  0  0  0  0  0  0  0  0  0  0  0
  -24.7171  -30.0562   28.2809 N   0  3  0  0  0  0  0  0  0  0  0  0
  -29.7427  -20.7558   27.2313 O   0  0  0  0  0  0  0  0  0  0  0  0
  -22.5215  -14.7449   20.8556 O   0  0  0  0  0  0  0  0  0  0  0  0
  -29.9535  -27.4708   22.2734 O   0  0  0  0  0  0  0  0  0  0  0  0
  -27.7028  -30.3599   23.1580 O   0  0  0  0  0  0  0  0  0  0  0  0
  -27.2194  -28.9310   27.6575 O   0  0  0  0  0  0  0  0  0  0  0  0
  -32.2110  -13.0209   21.2867 O   0  0  0  0  0  0  0  0  0  0  0  0
  -21.4811   -7.0710   21.6402 O   0  0  0  0  0  0  0  0  0  0  0  0
  -28.0245  -22.3782   25.9949 O   0  0  0  0  0  0  0  0  0  1  0  0
  -23.4376   -3.2831   25.1370 F   0  0  0  0  0  0  0  0  0  0  0  0
  -20.0563   -6.3554   23.8986 F   0  0  0  0  0  0  0  0  0  0  0  0
  1  2  1  0  0  0  0
  1  6  2  0  0  0  0
  2  7  2  0  0  0  0
  3  9  2  0  0  0  0
  3 17  1  0  0  0  0
  4 10  1  0  0  0  0
  4 17  2  0  0  0  0
  5 14  2  0  0  0  0
  5 18  1  0  0  0  0
  6 20  1  0  0  0  0
  7 22  1  0  0  0  0
  8 11  2  0  0  0  0
  8 21  1  0  0  0  0
  9 24  1  0  0  0  0
 10 24  2  0  0  0  0
 11 25  1  0  0  0  0
 12 13  2  0  0  0  0
 12 26  1  0  0  0  0
 13 27  1  0  0  0  0
 14 31  1  0  0  0  0
 15 23  1  0  0  0  0
 15 25  2  0  0  0  0
 16 27  2  0  0  0  0
 16 28  1  0  0  0  0
 17 29  1  0  0  0  0
 18 30  2  0  0  0  0
 18 33  1  0  0  0  0
 19 29  1  0  0  0  0
 19 32  2  0  0  0  0
 19 34  1  0  0  0  0
 20 22  2  0  0  0  0
 20 39  1  0  0  0  0
 21 23  2  0  0  0  0
 21 40  1  0  0  0  0
 22 48  1  0  0  0  0
 23 41  1  0  0  0  0
 24 81  1  0  0  0  0
 25 82  1  0  0  0  0
 26 28  2  0  0  0  0
 26 81  1  0  0  0  0
 27 83  1  0  0  0  0
 28 84  1  0  0  0  0
 29 63  2  0  0  0  0
 30 51  1  0  0  0  0
 30 64  1  0  0  0  0
 31 64  2  0  0  0  0
 31 70  1  0  0  0  0
 32 65  1  0  0  0  0
 32 68  1  0  0  0  0
 33 57  1  0  0  0  0
 33 75  2  0  0  0  0
 34 69  1  0  0  0  0
 34 76  2  0  0  0  0
 35 49  1  0  0  0  0
 35 71  1  0  0  0  0
 35 77  2  0  0  0  0
 36 60  1  0  0  0  0
 36 66  1  0  0  0  0
 36 78  2  0  0  0  0
 37 61  1  0  0  0  0
 37 72  1  0  0  0  0
 37 79  2  0  0  0  0
 38 67  1  0  0  0  0
 38 73  1  0  0  0  0
 38 80  2  0  0  0  0
 39 42  1  0  0  0  0
 40 49  1  0  0  0  0
 41 66  1  0  0  0  0
 42 44  1  0  0  0  0
 43 45  1  0  0  0  0
 43 46  1  0  0  0  0
 44 48  1  0  0  0  0
 45 50  1  0  0  0  0
 46 67  1  0  0  0  0
 47 50  1  0  0  0  0
 47 67  1  0  0  0  0
 48 71  1  0  0  0  0
 49 66  1  0  0  0  0
 50 65  1  0  0  0  0
 52 61  1  0  0  0  0
 53 62  1  0  0  0  0
 54 62  1  0  0  0  0
 55 62  1  0  0  0  0
 56 74  1  0  0  0  0
 57 82  1  0  0  0  0
 58 59  1  0  0  0  0
 58 70  1  0  0  0  0
 59 73  1  0  0  0  0
 60 62  1  0  0  0  0
 60 72  1  0  0  0  0
 61 74  1  0  0  0  0
 63 65  1  0  0  0  0
M  CHG  1  74   1
M  ISO  4  38 100  57 101  73 100  82 101
M  END
> <Batch ID>
0115

> <Smiles>
CNC(C)C(=O)NC(C(=O)N1Cc2cc([101O:1][101CH2:1]C(=O)c3ccc(NCC[100NH:0][100C:0](=O)N4CCCC(n5nc(-c6ccc(Oc7ccc(F)cc7F)cc6)c(C(N)=O)c5N)C4)nc3C)ccc2CC1C(=O)NC1CCCc2ccccc21)C(C)(C)C

> <Shape>
0.225

> <Color>
0.178

> <Negative vol penalty>
0.000

$$$$

  -OEChem-04052320103D

 83 91  0     1  0  0  0  0  0999 V2000
  -17.1856  -21.7810   14.7869 C   0  0  0  0  0  0  0  0  0  0  0  0
  -18.1649  -21.6884   15.7708 C   0  0  0  0  0  0  0  0  0  0  0  0
  -23.0571   -9.8838   19.9564 C   0  0  0  0  0  0  0  0  0  0  0  0
  -23.8693   -9.8774   22.2318 C   0  0  0  0  0  0  0  0  0  0  0  0
  -15.8488  -21.5547   15.1121 C   0  0  0  0  0  0  0  0  0  0  0  0
  -17.8077  -21.3706   17.0807 C   0  0  0  0  0  0  0  0  0  0  0  0
  -20.8751  -17.9106   19.1457 C   0  0  0  0  0  0  0  0  0  0  0  0
  -22.3181   -8.7298   20.2169 C   0  0  0  0  0  0  0  0  0  0  0  0
  -23.1302   -8.7234   22.4923 C   0  0  0  0  0  0  0  0  0  0  0  0
  -22.1178  -18.3510   19.5990 C   0  0  0  0  0  0  0  0  0  0  0  0
  -19.9160   -7.9247   23.1641 C   0  0  0  0  0  0  0  0  0  0  0  0
  -19.1861   -7.8788   24.3518 C   0  0  0  0  0  0  0  0  0  0  0  0
  -29.2722  -16.9917   19.7915 C   0  0  0  0  0  0  0  0  0  0  0  0
  -28.8694  -17.6485   22.0698 C   0  0  0  0  0  0  0  0  0  0  0  0
  -21.2683  -18.4057   21.8561 C   0  0  0  0  0  0  0  0  0  0  0  0
  -20.4423   -5.9363   25.0488 C   0  0  0  0  0  0  0  0  0  0  0  0
  -28.5567  -18.1113   19.3989 C   0  0  0  0  0  0  0  0  0  0  0  0
  -23.8327  -10.4576   20.9638 C   0  0  0  0  0  0  0  0  0  0  0  0
  -29.4270  -16.7630   21.1543 C   0  0  0  0  0  0  0  0  0  0  0  0
  -24.1739  -12.9831   20.8501 C   0  0  0  0  0  0  0  0  0  0  0  0
  -15.4762  -21.2245   16.4246 C   0  0  0  0  0  0  0  0  0  0  0  0
  -19.8147  -17.7246   20.0442 C   0  0  0  0  0  0  0  0  0  0  0  0
  -16.4645  -21.1410   17.4240 C   0  0  0  0  0  0  0  0  0  0  0  0
  -20.0139  -17.9604   21.4120 C   0  0  0  0  0  0  0  0  0  0  0  0
  -22.3546   -8.1496   21.4848 C   0  0  0  0  0  0  0  0  0  0  0  0
  -22.3138  -18.6014   20.9540 C   0  0  0  0  0  0  0  0  0  0  0  0
  -20.9091   -6.9764   22.9187 C   0  0  0  0  0  0  0  0  0  0  0  0
  -19.4492   -6.8846   25.2941 C   0  0  0  0  0  0  0  0  0  0  0  0
  -21.1722   -5.9822   23.8611 C   0  0  0  0  0  0  0  0  0  0  0  0
  -24.5967  -11.6493   20.6952 C   0  0  0  0  0  0  0  0  0  0  0  0
  -28.1720  -18.7389   21.5753 C   0  0  0  0  0  0  0  0  0  0  0  0
  -25.2582  -13.7337   20.4661 C   0  0  0  0  0  0  0  0  0  0  0  0
  -30.1705  -15.6032   21.6192 C   0  0  0  0  0  0  0  0  0  0  0  0
  -22.9138  -13.4975   21.3009 C   0  0  0  0  0  0  0  0  0  0  0  0
  -30.7731  -14.6497   20.6596 C   0  0  0  0  0  0  0  0  0  0  0  0
  -16.9288  -19.0073   20.4047 C   0  0  0  0  0  0  0  0  0  0  0  0
  -16.6273  -16.7246   22.6896 C   0  0  0  0  0  0  0  0  0  0  0  0
  -18.1525  -14.6162   24.8976 C   0  0  0  0  0  0  0  0  0  0  0  0
  -14.0131  -21.0352   16.7380 C   0  0  0  0  0  0  0  0  0  0  0  0
  -18.4881  -17.2235   19.5429 C   0  0  0  0  0  0  0  0  0  0  0  0
  -18.9137  -17.7567   22.4202 C   0  0  0  0  0  0  0  0  0  0  0  0
  -13.7614  -20.3354   18.0712 C   0  0  0  0  0  0  0  0  0  0  0  0
  -29.5436  -12.4039   18.1493 C   0  0  0  0  0  0  0  0  0  0  0  0
  -14.6288  -20.9464   19.1670 C   0  0  0  0  0  0  0  0  0  0  0  0
  -28.1255  -12.0871   18.6229 C   0  0  0  0  0  0  0  0  0  0  0  0
  -30.4950  -12.5974   19.3256 C   0  0  0  0  0  0  0  0  0  0  0  0
  -28.6221  -13.3230   20.7797 C   0  0  0  0  0  0  0  0  0  0  0  0
  -16.1195  -20.7742   18.8511 C   0  0  1  0  0  0  0  0  0  0  0  0
  -17.3301  -17.5611   20.4769 C   0  0  1  0  0  0  0  0  0  0  0  0
  -27.6264  -13.1482   19.6198 C   0  0  2  0  0  0  0  0  0  0  0  0
  -28.0762  -21.1439   22.3497 C   0  0  0  0  0  0  0  0  0  0  0  0
  -18.3655  -12.7902   26.6057 C   0  0  0  0  0  0  0  0  0  0  0  0
  -15.8537  -18.9475   24.6313 C   0  0  0  0  0  0  0  0  0  0  0  0
  -16.2854  -17.3565   26.5156 C   0  0  0  0  0  0  0  0  0  0  0  0
  -14.4998  -16.8559   24.8471 C   0  0  0  0  0  0  0  0  0  0  0  0
  -18.4288  -12.5367   22.8099 C   0  0  0  0  0  0  0  0  0  0  0  0
  -25.4021  -18.4793   22.7975 C   0  0  0  0  0  0  0  0  0  0  0  0
  -23.8990  -18.6622   22.7258 C   0  0  0  0  0  0  0  0  0  1  0  0
  -27.5534  -19.7225   22.5416 C   0  0  1  0  0  0  0  0  0  0  0  0
  -16.9258  -16.6451   24.1673 C   0  0  1  0  0  0  0  0  0  0  0  0
  -17.9483  -13.1398   25.1857 C   0  0  2  0  0  0  0  0  0  0  0  0
  -15.9115  -17.4570   25.0213 C   0  0  0  0  0  0  0  0  0  0  0  0
  -28.0006  -18.9940   20.2588 N   0  0  0  0  0  0  0  0  0  0  0  0
  -25.8516  -11.5548   20.2475 N   0  0  0  0  0  0  0  0  0  0  0  0
  -26.2266  -12.8388   20.1177 N   0  0  0  0  0  0  0  0  0  0  0  0
  -29.9742  -13.5838   20.2700 N   0  0  0  0  0  0  0  0  0  0  0  0
  -17.6329  -17.2716   21.8801 N   0  0  0  0  0  0  0  0  0  0  0  0
  -25.4680  -15.0654   20.3957 N   0  0  0  0  0  0  0  0  0  0  0  0
  -21.9091  -12.5872   21.6561 N   0  0  0  0  0  0  0  0  0  0  0  0
  -16.5452  -19.4224   19.1437 N   0  0  0  0  0  0  0  0  0  0  0  0
  -16.9821  -15.2249   24.4965 N   0  0  0  0  0  0  0  0  0  0  0  0
  -18.7520  -12.3120   24.2424 N   0  3  0  0  0  0  0  0  0  0  0  0
  -26.0687  -19.7599   22.4510 N   0  3  0  0  0  0  0  0  0  0  0  0
  -30.3582  -15.3229   22.8068 O   0  0  0  0  0  0  0  0  0  0  0  0
  -22.6801  -14.7280   21.3705 O   0  0  0  0  0  0  0  0  0  0  0  0
  -31.9184  -14.9051   20.3111 O   0  0  0  0  0  0  0  0  0  0  0  0
  -16.9632  -19.6952   21.4182 O   0  0  0  0  0  0  0  0  0  0  0  0
  -15.5447  -16.3099   22.2681 O   0  0  0  0  0  0  0  0  0  0  0  0
  -19.2405  -15.1745   25.0199 O   0  0  0  0  0  0  0  0  0  0  0  0
  -21.6335   -7.0237   21.7394 O   0  0  0  0  0  0  0  0  0  0  0  0
  -23.5255  -19.0319   21.3991 O   0  0  0  0  0  0  0  0  0  1  0  0
  -18.7492   -6.8416   26.4353 F   0  0  0  0  0  0  0  0  0  0  0  0
  -22.1258   -5.0691   23.6314 F   0  0  0  0  0  0  0  0  0  0  0  0
  1  2  1  0  0  0  0
  1  5  2  0  0  0  0
  2  6  2  0  0  0  0
  3  8  2  0  0  0  0
  3 18  1  0  0  0  0
  4  9  1  0  0  0  0
  4 18  2  0  0  0  0
  5 21  1  0  0  0  0
  6 23  1  0  0  0  0
  7 10  2  0  0  0  0
  7 22  1  0  0  0  0
  8 25  1  0  0  0  0
  9 25  2  0  0  0  0
 10 26  1  0  0  0  0
 11 12  2  0  0  0  0
 11 27  1  0  0  0  0
 12 28  1  0  0  0  0
 13 17  2  0  0  0  0
 13 19  1  0  0  0  0
 14 19  2  0  0  0  0
 14 31  1  0  0  0  0
 15 24  1  0  0  0  0
 15 26  2  0  0  0  0
 16 28  2  0  0  0  0
 16 29  1  0  0  0  0
 17 63  1  0  0  0  0
 18 30  1  0  0  0  0
 19 33  1  0  0  0  0
 20 30  1  0  0  0  0
 20 32  2  0  0  0  0
 20 34  1  0  0  0  0
 21 23  2  0  0  0  0
 21 39  1  0  0  0  0
 22 24  2  0  0  0  0
 22 40  1  0  0  0  0
 23 48  1  0  0  0  0
 24 41  1  0  0  0  0
 25 80  1  0  0  0  0
 26 81  1  0  0  0  0
 27 29  2  0  0  0  0
 27 80  1  0  0  0  0
 28 82  1  0  0  0  0
 29 83  1  0  0  0  0
 30 64  2  0  0  0  0
 31 59  1  0  0  0  0
 31 63  2  0  0  0  0
 32 65  1  0  0  0  0
 32 68  1  0  0  0  0
 33 35  1  0  0  0  0
 33 74  2  0  0  0  0
 34 69  1  0  0  0  0
 34 75  2  0  0  0  0
 35 66  1  0  0  0  0
 35 76  2  0  0  0  0
 36 49  1  0  0  0  0
 36 70  1  0  0  0  0
 36 77  2  0  0  0  0
 37 60  1  0  0  0  0
 37 67  1  0  0  0  0
 37 78  2  0  0  0  0
 38 61  1  0  0  0  0
 38 71  1  0  0  0  0
 38 79  2  0  0  0  0
 39 42  1  0  0  0  0
 40 49  1  0  0  0  0
 41 67  1  0  0  0  0
 42 44  1  0  0  0  0
 43 45  1  0  0  0  0
 43 46  1  0  0  0  0
 44 48  1  0  0  0  0
 45 50  1  0  0  0  0
 46 66  1  0  0  0  0
 47 50  1  0  0  0  0
 47 66  1  0  0  0  0
 48 70  1  0  0  0  0
 49 67  1  0  0  0  0
 50 65  1  0  0  0  0
 51 59  1  0  0  0  0
 52 61  1  0  0  0  0
 53 62  1  0  0  0  0
 54 62  1  0  0  0  0
 55 62  1  0  0  0  0
 56 72  1  0  0  0  0
 57 58  1  0  0  0  0
 57 73  1  0  0  0  0
 58 81  1  0  0  0  0
 59 73  1  0  0  0  0
 60 62  1  0  0  0  0
 60 71  1  0  0  0  0
 61 72  1  0  0  0  0
 64 65  1  0  0  0  0
M  CHG  2  72   1  73   1
M  ISO  4  33 100  35 100  58 101  81 101
M  END
> <Batch ID>
0115

> <Smiles>
CNC(C)C(=O)NC(C(=O)N1Cc2cc([101O:1][101CH2:1]CNC(C)c3cc([100C:0](=O)[100C:0](=O)N4CCCC(n5nc(-c6ccc(Oc7ccc(F)cc7F)cc6)c(C(N)=O)c5N)C4)ccn3)ccc2CC1C(=O)NC1CCCc2ccccc21)C(C)(C)C

> <Shape>
0.192

> <Color>
0.186

> <Negative vol penalty>
0.000

$$$$

  -OEChem-04052320103D

 89 98  0     1  0  0  0  0  0999 V2000
  -17.1291  -30.2305   23.8525 C   0  0  0  0  0  0  0  0  0  0  0  0
  -18.0367  -29.9146   24.8585 C   0  0  0  0  0  0  0  0  0  0  0  0
  -25.2432  -14.3772   18.8343 C   0  0  0  0  0  0  0  0  0  0  0  0
  -24.5651  -14.4531   21.1520 C   0  0  0  0  0  0  0  0  0  0  0  0
  -17.2182  -29.6005   22.6119 C   0  0  0  0  0  0  0  0  0  0  0  0
  -19.0333  -28.9677   24.6247 C   0  0  0  0  0  0  0  0  0  0  0  0
  -25.7996  -27.4287   26.4035 C   0  0  0  0  0  0  0  0  0  0  0  0
  -25.4589  -13.0034   18.9424 C   0  0  0  0  0  0  0  0  0  0  0  0
  -24.7807  -13.0793   21.2601 C   0  0  0  0  0  0  0  0  0  0  0  0
  -26.5699  -26.3797   26.9035 C   0  0  0  0  0  0  0  0  0  0  0  0
  -23.1671  -10.2323   20.4166 C   0  0  0  0  0  0  0  0  0  0  0  0
  -22.1935   -9.4742   21.0669 C   0  0  0  0  0  0  0  0  0  0  0  0
  -26.6762  -25.4135   24.6957 C   0  0  0  0  0  0  0  0  0  0  0  0
  -23.8306   -8.7716   22.6989 C   0  0  0  0  0  0  0  0  0  0  0  0
  -24.7963  -15.1021   19.9391 C   0  0  0  0  0  0  0  0  0  0  0  0
  -23.3797  -17.1683   19.4578 C   0  0  0  0  0  0  0  0  0  0  0  0
  -18.2223  -28.6525   22.3596 C   0  0  0  0  0  0  0  0  0  0  0  0
  -25.4521  -27.4724   25.0457 C   0  0  0  0  0  0  0  0  0  0  0  0
  -19.1351  -28.3235   23.3800 C   0  0  0  0  0  0  0  0  0  0  0  0
  -25.9036  -26.4655   24.1805 C   0  0  0  0  0  0  0  0  0  0  0  0
  -25.2276  -12.3544   20.1553 C   0  0  0  0  0  0  0  0  0  0  0  0
  -27.0058  -25.3703   26.0502 C   0  0  0  0  0  0  0  0  0  0  0  0
  -24.4725  -10.2600   20.9074 C   0  0  0  0  0  0  0  0  0  0  0  0
  -22.5252   -8.7438   22.2080 C   0  0  0  0  0  0  0  0  0  0  0  0
  -24.8042   -9.5297   22.0485 C   0  0  0  0  0  0  0  0  0  0  0  0
  -24.5738  -16.5213   19.8282 C   0  0  0  0  0  0  0  0  0  0  0  0
  -23.6854  -18.5065   19.5043 C   0  0  0  0  0  0  0  0  0  0  0  0
  -22.1077  -16.6095   19.1035 C   0  0  0  0  0  0  0  0  0  0  0  0
  -22.7169  -27.4172   23.4274 C   0  0  0  0  0  0  0  0  0  0  0  0
  -24.6598  -27.9612   20.8874 C   0  0  0  0  0  0  0  0  0  0  0  0
  -27.7789  -27.7250   19.5228 C   0  0  0  0  0  0  0  0  0  0  0  0
  -32.1919  -22.6908   21.8541 C   0  0  0  0  0  0  0  0  0  0  0  0
  -28.5860  -21.5177   18.8331 C   0  0  0  0  0  0  0  0  0  0  0  0
  -18.2496  -27.9633   21.0184 C   0  0  0  0  0  0  0  0  0  0  0  0
  -24.6431  -28.6249   24.5168 C   0  0  0  0  0  0  0  0  0  0  0  0
  -25.5749  -26.4767   22.7107 C   0  0  0  0  0  0  0  0  0  0  0  0
  -19.5655  -27.2456   20.7290 C   0  0  0  0  0  0  0  0  0  0  0  0
  -32.1150  -23.0613   17.7754 C   0  0  0  0  0  0  0  0  0  0  0  0
  -30.7766  -23.4018   17.1225 C   0  0  0  0  0  0  0  0  0  0  0  0
  -26.5550  -21.6256   21.7084 C   0  0  0  0  0  0  0  0  0  0  0  0
  -20.0017  -26.4228   21.9371 C   0  0  0  0  0  0  0  0  0  0  0  0
  -25.6941  -20.3773   21.5197 C   0  0  0  0  0  0  0  0  0  0  0  0
  -31.9773  -21.9161   18.7808 C   0  0  0  0  0  0  0  0  0  0  0  0
  -31.4573  -20.5576   24.6899 C   0  0  0  0  0  0  0  0  0  0  0  0
  -28.0087  -21.3880   21.2962 C   0  0  0  0  0  0  0  0  0  0  0  0
  -29.6857  -23.6210   18.1666 C   0  0  0  0  0  0  0  0  0  0  0  0
  -27.3026  -19.6027   19.7377 C   0  0  0  0  0  0  0  0  0  0  0  0
  -30.5020  -21.3650   25.5465 C   0  0  0  0  0  0  0  0  0  0  0  0
  -32.4815  -22.7062   25.0085 C   0  0  0  0  0  0  0  0  0  0  0  0
  -20.2454  -27.3198   23.1567 C   0  0  1  0  0  0  0  0  0  0  0  0
  -23.9161  -28.2975   23.2162 C   0  0  1  0  0  0  0  0  0  0  0  0
  -25.8239  -19.8304   20.0873 C   0  0  1  0  0  0  0  0  0  0  0  0
  -32.2477  -21.6293   23.9609 C   0  0  2  0  0  0  0  0  0  0  0  0
  -30.8461  -22.1471   19.8025 C   0  0  1  0  0  0  0  0  0  0  0  0
  -29.0500  -28.2192   17.4162 C   0  0  0  0  0  0  0  0  0  0  0  0
  -30.7694  -24.0243   28.7987 C   0  0  0  0  0  0  0  0  0  0  0  0
  -23.3849  -25.5324   19.5512 C   0  0  0  0  0  0  0  0  0  0  0  0
  -25.2956  -25.5065   17.9336 C   0  0  0  0  0  0  0  0  0  0  0  0
  -23.7706  -27.4783   18.0283 C   0  0  0  0  0  0  0  0  0  0  0  0
  -29.6060  -29.5845   20.9238 C   0  0  0  0  0  0  0  0  0  0  0  0
  -31.2251  -23.2200   20.8281 C   0  0  0  0  0  0  0  0  0  0  0  0
  -30.5626  -23.7749   26.2758 C   0  0  0  0  0  0  0  0  0  0  0  0
  -28.5981  -24.6279   27.6532 C   0  0  0  0  0  0  0  0  0  1  0  0
  -25.4125  -27.0897   19.9112 C   0  0  1  0  0  0  0  0  0  0  0  0
  -28.6345  -28.7382   18.7840 C   0  0  2  0  0  0  0  0  0  0  0  0
  -29.8338  -23.7198   27.6234 C   0  0  2  0  0  0  0  0  0  0  0  0
  -24.4706  -26.4002   18.8841 C   0  0  0  0  0  0  0  0  0  0  0  0
  -25.5644  -17.3781   20.0905 N   0  0  0  0  0  0  0  0  0  0  0  0
  -24.9933  -18.5770   19.8846 N   0  0  0  0  0  0  0  0  0  0  0  0
  -24.7760  -27.6213   22.2428 N   0  0  0  0  0  0  0  0  0  0  0  0
  -28.0840  -20.8242   19.9436 N   0  0  0  0  0  0  0  0  0  0  0  0
  -29.5965  -22.4722   19.0735 N   0  0  0  0  0  0  0  0  0  0  0  0
  -22.9604  -19.6180   19.2565 N   0  0  0  0  0  0  0  0  0  0  0  0
  -21.9661  -15.2151   19.1070 N   0  0  0  0  0  0  0  0  0  0  0  0
  -21.5213  -27.9931   23.0420 N   0  0  0  0  0  0  0  0  0  0  0  0
  -26.4338  -27.9396   19.3087 N   0  0  0  0  0  0  0  0  0  0  0  0
  -31.3472  -22.5305   26.0090 N   0  3  1  0  0  0  0  0  0  0  0  0
  -29.8665  -29.0434   19.5650 N   0  3  0  0  0  0  0  0  0  0  0  0
  -21.1304  -17.3249   18.7771 O   0  0  0  0  0  0  0  0  0  0  0  0
  -22.8654  -26.2978   23.9033 O   0  0  0  0  0  0  0  0  0  0  0  0
  -23.9991  -28.9128   20.4637 O   0  0  0  0  0  0  0  0  0  0  0  0
  -28.2562  -26.8302   20.2171 O   0  0  0  0  0  0  0  0  0  0  0  0
  -33.4117  -22.7181   21.7658 O   0  0  0  0  0  0  0  0  0  0  0  0
  -28.1671  -21.2906   17.6907 O   0  0  0  0  0  0  0  0  0  0  0  0
  -25.4378  -11.0138   20.2610 O   0  0  0  0  0  0  0  0  0  0  0  0
  -27.7623  -24.3379   26.5390 O   0  0  0  0  0  0  0  0  0  1  0  0
  -31.4752  -22.1758   22.8970 O   0  0  0  0  0  0  0  0  0  0  0  0
  -21.5898   -8.0171   22.8333 F   0  0  0  0  0  0  0  0  0  0  0  0
  -26.0564   -9.5534   22.5254 F   0  0  0  0  0  0  0  0  0  0  0  0
  1  2  1  0  0  0  0
  1  5  2  0  0  0  0
  2  6  2  0  0  0  0
  3  8  2  0  0  0  0
  3 15  1  0  0  0  0
  4  9  1  0  0  0  0
  4 15  2  0  0  0  0
  5 17  1  0  0  0  0
  6 19  1  0  0  0  0
  7 10  2  0  0  0  0
  7 18  1  0  0  0  0
  8 21  1  0  0  0  0
  9 21  2  0  0  0  0
 10 22  1  0  0  0  0
 11 12  2  0  0  0  0
 11 23  1  0  0  0  0
 12 24  1  0  0  0  0
 13 20  1  0  0  0  0
 13 22  2  0  0  0  0
 14 24  2  0  0  0  0
 14 25  1  0  0  0  0
 15 26  1  0  0  0  0
 16 26  1  0  0  0  0
 16 27  2  0  0  0  0
 16 28  1  0  0  0  0
 17 19  2  0  0  0  0
 17 34  1  0  0  0  0
 18 20  2  0  0  0  0
 18 35  1  0  0  0  0
 19 50  1  0  0  0  0
 20 36  1  0  0  0  0
 21 85  1  0  0  0  0
 22 86  1  0  0  0  0
 23 25  2  0  0  0  0
 23 85  1  0  0  0  0
 24 88  1  0  0  0  0
 25 89  1  0  0  0  0
 26 68  2  0  0  0  0
 27 69  1  0  0  0  0
 27 73  1  0  0  0  0
 28 74  1  0  0  0  0
 28 79  2  0  0  0  0
 29 51  1  0  0  0  0
 29 75  1  0  0  0  0
 29 80  2  0  0  0  0
 30 64  1  0  0  0  0
 30 70  1  0  0  0  0
 30 81  2  0  0  0  0
 31 65  1  0  0  0  0
 31 76  1  0  0  0  0
 31 82  2  0  0  0  0
 32 61  1  0  0  0  0
 32 83  2  0  0  0  0
 32 87  1  0  0  0  0
 33 71  1  0  0  0  0
 33 72  1  0  0  0  0
 33 84  2  0  0  0  0
 34 37  1  0  0  0  0
 35 51  1  0  0  0  0
 36 70  1  0  0  0  0
 37 41  1  0  0  0  0
 38 39  1  0  0  0  0
 38 43  1  0  0  0  0
 39 46  1  0  0  0  0
 40 42  1  0  0  0  0
 40 45  1  0  0  0  0
 41 50  1  0  0  0  0
 42 52  1  0  0  0  0
 43 54  1  0  0  0  0
 44 48  1  0  0  0  0
 44 53  1  0  0  0  0
 45 71  1  0  0  0  0
 46 72  1  0  0  0  0
 47 52  1  0  0  0  0
 47 71  1  0  0  0  0
 48 77  1  0  0  0  0
 49 53  1  0  0  0  0
 49 77  1  0  0  0  0
 50 75  1  0  0  0  0
 51 70  1  0  0  0  0
 52 69  1  0  0  0  0
 53 87  1  0  0  0  0
 54 61  1  0  0  0  0
 54 72  1  0  0  0  0
 55 65  1  0  0  0  0
 56 66  1  0  0  0  0
 57 67  1  0  0  0  0
 58 67  1  0  0  0  0
 59 67  1  0  0  0  0
 60 78  1  0  0  0  0
 62 66  1  0  0  0  0
 62 77  1  0  0  0  0
 63 66  1  0  0  0  0
 63 86  1  0  0  0  0
 64 67  1  0  0  0  0
 64 76  1  0  0  0  0
 65 78  1  0  0  0  0
 68 69  1  0  0  0  0
M  CHG  2  77   1  78   1
M  ISO  4  33 100  63 101  72 100  86 101
M  END
> <Batch ID>
0115

> <Smiles>
CNC(C)C(=O)NC(C(=O)N1Cc2cc([101O:1][101CH2:1]C(C)CN3CCC(OC(=O)CC4CCCC[100N:0]4[100C:0](=O)N4CCCC(n5nc(-c6ccc(Oc7ccc(F)cc7F)cc6)c(C(N)=O)c5N)C4)C3)ccc2CC1C(=O)NC1CCCc2ccccc21)C(C)(C)C

> <Shape>
0.218

> <Color>
0.076

> <Negative vol penalty>
0.000

$$$$

  -OEChem-04052320103D

 87 95  0     1  0  0  0  0  0999 V2000
  -30.4708  -31.5280   25.2819 C   0  0  0  0  0  0  0  0  0  0  0  0
  -30.8124  -30.2103   24.9950 C   0  0  0  0  0  0  0  0  0  0  0  0
  -22.7006  -23.8463   24.0118 C   0  0  0  0  0  0  0  0  0  0  0  0
  -20.9694  -22.2951   24.6705 C   0  0  0  0  0  0  0  0  0  0  0  0
  -29.1695  -31.9745   25.0560 C   0  0  0  0  0  0  0  0  0  0  0  0
  -29.8525  -29.3380   24.4830 C   0  0  0  0  0  0  0  0  0  0  0  0
  -30.7607  -24.8222   20.4471 C   0  0  0  0  0  0  0  0  0  0  0  0
  -21.7917  -24.9002   24.1050 C   0  0  0  0  0  0  0  0  0  0  0  0
  -20.0605  -23.3491   24.7638 C   0  0  0  0  0  0  0  0  0  0  0  0
  -30.9305  -23.4470   20.6007 C   0  0  0  0  0  0  0  0  0  0  0  0
  -19.2911  -26.2044   22.2421 C   0  0  0  0  0  0  0  0  0  0  0  0
  -19.2771  -27.1405   21.2082 C   0  0  0  0  0  0  0  0  0  0  0  0
  -28.5805  -23.1146   20.1689 C   0  0  0  0  0  0  0  0  0  0  0  0
  -28.8608  -18.3858   21.8805 C   0  0  0  0  0  0  0  0  0  0  0  0
  -19.8218  -28.8891   22.7839 C   0  0  0  0  0  0  0  0  0  0  0  0
  -30.2352  -17.0944   19.9084 C   0  0  0  0  0  0  0  0  0  0  0  0
  -22.2894  -22.5437   24.2945 C   0  0  0  0  0  0  0  0  0  0  0  0
  -24.0610  -20.9572   25.2177 C   0  0  0  0  0  0  0  0  0  0  0  0
  -28.1956  -31.1099   24.5319 C   0  0  0  0  0  0  0  0  0  0  0  0
  -29.4953  -25.3559   20.1635 C   0  0  0  0  0  0  0  0  0  0  0  0
  -28.5366  -29.7730   24.2512 C   0  0  0  0  0  0  0  0  0  0  0  0
  -28.3978  -24.4968   20.0096 C   0  0  0  0  0  0  0  0  0  0  0  0
  -29.2248  -17.0561   22.0612 C   0  0  0  0  0  0  0  0  0  0  0  0
  -29.9253  -16.3909   21.0611 C   0  0  0  0  0  0  0  0  0  0  0  0
  -20.4717  -24.6517   24.4810 C   0  0  0  0  0  0  0  0  0  0  0  0
  -29.8398  -22.5932   20.4645 C   0  0  0  0  0  0  0  0  0  0  0  0
  -19.5703  -26.6106   23.5470 C   0  0  0  0  0  0  0  0  0  0  0  0
  -19.5425  -28.4828   21.4790 C   0  0  0  0  0  0  0  0  0  0  0  0
  -19.8357  -27.9529   23.8179 C   0  0  0  0  0  0  0  0  0  0  0  0
  -23.2277  -21.4545   24.1978 C   0  0  0  0  0  0  0  0  0  0  0  0
  -29.2185  -19.0002   20.6912 C   0  0  0  0  0  0  0  0  0  0  0  0
  -24.7542  -19.9305   24.6246 C   0  0  0  0  0  0  0  0  0  0  0  0
  -24.1963  -21.3852   26.5794 C   0  0  0  0  0  0  0  0  0  0  0  0
  -27.5204  -27.3560   21.6477 C   0  0  0  0  0  0  0  0  0  0  0  0
  -25.8119  -27.0886   18.9032 C   0  0  0  0  0  0  0  0  0  0  0  0
  -25.0615  -25.2547   16.1247 C   0  0  0  0  0  0  0  0  0  0  0  0
  -24.8493  -15.4247   21.5204 C   0  0  0  0  0  0  0  0  0  0  0  0
  -26.7901  -31.6253   24.3491 C   0  0  0  0  0  0  0  0  0  0  0  0
  -29.3338  -26.8393   19.9743 C   0  0  0  0  0  0  0  0  0  0  0  0
  -27.0223  -25.0177   19.6853 C   0  0  0  0  0  0  0  0  0  0  0  0
  -25.9283  -30.7396   23.4528 C   0  0  0  0  0  0  0  0  0  0  0  0
  -25.1194  -18.5774   19.7639 C   0  0  0  0  0  0  0  0  0  0  0  0
  -26.0806  -29.2736   23.8458 C   0  0  0  0  0  0  0  0  0  0  0  0
  -24.7166  -19.5697   20.8563 C   0  0  0  0  0  0  0  0  0  0  0  0
  -24.2964  -17.2954   19.8508 C   0  0  0  0  0  0  0  0  0  0  0  0
  -23.9472  -17.6079   22.2703 C   0  0  0  0  0  0  0  0  0  0  0  0
  -27.5297  -28.8033   23.6715 C   0  0  1  0  0  0  0  0  0  0  0  0
  -27.9021  -27.3175   20.1949 C   0  0  1  0  0  0  0  0  0  0  0  0
  -24.7588  -18.9160   22.2502 C   0  0  2  0  0  0  0  0  0  0  0  0
  -23.5997  -25.2772   14.0851 C   0  0  0  0  0  0  0  0  0  0  0  0
  -30.1767  -17.9397   24.8397 C   0  0  0  0  0  0  0  0  0  0  0  0
  -29.4677  -15.6952   25.6901 C   0  0  0  0  0  0  0  0  0  0  0  0
  -23.4071  -26.3308   20.6214 C   0  0  0  0  0  0  0  0  0  0  0  0
  -22.2930  -25.4606   18.5550 C   0  0  0  0  0  0  0  0  0  0  0  0
  -22.8887  -27.8770   18.7253 C   0  0  0  0  0  0  0  0  0  0  0  0
  -27.3976  -25.2260   14.3078 C   0  0  0  0  0  0  0  0  0  0  0  0
  -28.8547  -16.3654   23.3318 C   0  0  0  0  0  0  0  0  0  0  0  0
  -30.3391  -14.9672   21.2024 C   0  0  0  0  0  0  0  0  0  0  0  0
  -28.8421  -20.4344   20.4615 C   0  0  0  0  0  0  0  0  0  1  0  0
  -25.7448  -13.2925   20.6212 C   0  0  0  0  0  0  0  0  0  0  0  0
  -29.4900  -13.9826   20.3954 C   0  0  0  0  0  0  0  0  0  0  0  0
  -27.1607  -13.1304   20.1004 C   0  0  0  0  0  0  0  0  0  0  0  0
  -24.7239  -26.1674   18.4066 C   0  0  1  0  0  0  0  0  0  0  0  0
  -24.9598  -25.6408   14.6601 C   0  0  2  0  0  0  0  0  0  0  0  0
  -29.9138  -16.4816   24.4549 C   0  0  0  0  0  0  0  0  0  0  0  0
  -23.3536  -26.4490   19.0851 C   0  0  0  0  0  0  0  0  0  0  0  0
  -29.8987  -18.3866   19.6969 N   0  0  0  0  0  0  0  0  0  0  0  0
  -23.3765  -20.7977   23.0443 N   0  0  0  0  0  0  0  0  0  0  0  0
  -24.3114  -19.8774   23.3357 N   0  0  0  0  0  0  0  0  0  0  0  0
  -26.9143  -26.4762   19.5161 N   0  0  0  0  0  0  0  0  0  0  0  0
  -24.3941  -16.7138   21.1970 N   0  0  0  0  0  0  0  0  0  0  0  0
  -25.6932  -19.0769   25.0851 N   0  0  0  0  0  0  0  0  0  0  0  0
  -23.4082  -22.4551   27.0250 N   0  0  0  0  0  0  0  0  0  0  0  0
  -27.8148  -28.5514   22.2752 N   0  0  0  0  0  0  0  0  0  0  0  0
  -24.7095  -26.2987   16.9537 N   0  0  0  0  0  0  0  0  0  0  0  0
  -25.2476  -14.6389   20.4458 N   0  0  0  0  0  0  0  0  0  0  0  0
  -26.0083  -24.9403   13.8657 N   0  3  0  0  0  0  0  0  0  0  0  0
  -28.0823  -14.0154   20.8635 N   0  3  0  0  0  0  0  0  0  0  0  0
  -25.0044  -20.8457   27.3728 O   0  0  0  0  0  0  0  0  0  0  0  0
  -26.9961  -26.3744   22.1609 O   0  0  0  0  0  0  0  0  0  0  0  0
  -25.6916  -28.3062   18.7465 O   0  0  0  0  0  0  0  0  0  0  0  0
  -25.4141  -24.1374   16.4961 O   0  0  0  0  0  0  0  0  0  0  0  0
  -24.9022  -15.0065   22.6820 O   0  0  0  0  0  0  0  0  0  0  0  0
  -19.5846  -25.6799   24.5723 O   0  0  0  0  0  0  0  0  0  0  0  0
  -30.0026  -21.2505   20.6146 O   0  0  0  0  0  0  0  0  0  1  0  0
  -19.5306  -29.3814   20.4858 F   0  0  0  0  0  0  0  0  0  0  0  0
  -20.1059  -28.3490   25.0693 F   0  0  0  0  0  0  0  0  0  0  0  0
  1  2  1  0  0  0  0
  1  5  2  0  0  0  0
  2  6  2  0  0  0  0
  3  8  2  0  0  0  0
  3 17  1  0  0  0  0
  4  9  1  0  0  0  0
  4 17  2  0  0  0  0
  5 19  1  0  0  0  0
  6 21  1  0  0  0  0
  7 10  2  0  0  0  0
  7 20  1  0  0  0  0
  8 25  1  0  0  0  0
  9 25  2  0  0  0  0
 10 26  1  0  0  0  0
 11 12  2  0  0  0  0
 11 27  1  0  0  0  0
 12 28  1  0  0  0  0
 13 22  1  0  0  0  0
 13 26  2  0  0  0  0
 14 23  2  0  0  0  0
 14 31  1  0  0  0  0
 15 28  2  0  0  0  0
 15 29  1  0  0  0  0
 16 24  2  0  0  0  0
 16 67  1  0  0  0  0
 17 30  1  0  0  0  0
 18 30  1  0  0  0  0
 18 32  2  0  0  0  0
 18 33  1  0  0  0  0
 19 21  2  0  0  0  0
 19 38  1  0  0  0  0
 20 22  2  0  0  0  0
 20 39  1  0  0  0  0
 21 47  1  0  0  0  0
 22 40  1  0  0  0  0
 23 24  1  0  0  0  0
 23 57  1  0  0  0  0
 24 58  1  0  0  0  0
 25 84  1  0  0  0  0
 26 85  1  0  0  0  0
 27 29  2  0  0  0  0
 27 84  1  0  0  0  0
 28 86  1  0  0  0  0
 29 87  1  0  0  0  0
 30 68  2  0  0  0  0
 31 59  1  0  0  0  0
 31 67  2  0  0  0  0
 32 69  1  0  0  0  0
 32 72  1  0  0  0  0
 33 73  1  0  0  0  0
 33 79  2  0  0  0  0
 34 48  1  0  0  0  0
 34 74  1  0  0  0  0
 34 80  2  0  0  0  0
 35 63  1  0  0  0  0
 35 70  1  0  0  0  0
 35 81  2  0  0  0  0
 36 64  1  0  0  0  0
 36 75  1  0  0  0  0
 36 82  2  0  0  0  0
 37 71  1  0  0  0  0
 37 76  1  0  0  0  0
 37 83  2  0  0  0  0
 38 41  1  0  0  0  0
 39 48  1  0  0  0  0
 40 70  1  0  0  0  0
 41 43  1  0  0  0  0
 42 44  1  0  0  0  0
 42 45  1  0  0  0  0
 43 47  1  0  0  0  0
 44 49  1  0  0  0  0
 45 71  1  0  0  0  0
 46 49  1  0  0  0  0
 46 71  1  0  0  0  0
 47 74  1  0  0  0  0
 48 70  1  0  0  0  0
 49 69  1  0  0  0  0
 50 64  1  0  0  0  0
 51 65  1  0  0  0  0
 52 65  1  0  0  0  0
 53 66  1  0  0  0  0
 54 66  1  0  0  0  0
 55 66  1  0  0  0  0
 56 77  1  0  0  0  0
 57 65  1  0  0  0  0
 58 61  1  0  0  0  0
 59 85  1  0  0  0  0
 60 62  1  0  0  0  0
 60 76  1  0  0  0  0
 61 78  1  0  0  0  0
 62 78  1  0  0  0  0
 63 66  1  0  0  0  0
 63 75  1  0  0  0  0
 64 77  1  0  0  0  0
 68 69  1  0  0  0  0
M  CHG  2  77   1  78   1
M  ISO  4  37 100  59 101  76 100  85 101
M  END
> <Batch ID>
0115

> <Smiles>
CNC(C)C(=O)NC(C(=O)N1Cc2cc([101O:1][101CH2:1]c3cc(CC(C)C)c(CCNCC[100NH:0][100C:0](=O)N4CCCC(n5nc(-c6ccc(Oc7ccc(F)cc7F)cc6)c(C(N)=O)c5N)C4)cn3)ccc2CC1C(=O)NC1CCCc2ccccc21)C(C)(C)C

> <Shape>
0.217

> <Color>
0.043

> <Negative vol penalty>
0.000

$$$$

  -OEChem-04052320103D

 85 93  0     1  0  0  0  0  0999 V2000
  -23.7952  -27.0927   27.2913 C   0  0  0  0  0  0  0  0  0  0  0  0
  -24.9630  -26.6092   26.7101 C   0  0  0  0  0  0  0  0  0  0  0  0
  -23.0707   -9.8811   19.9358 C   0  0  0  0  0  0  0  0  0  0  0  0
  -23.8339   -9.8748   22.2281 C   0  0  0  0  0  0  0  0  0  0  0  0
  -22.5549  -26.7238   26.7720 C   0  0  0  0  0  0  0  0  0  0  0  0
  -24.8912  -25.7556   25.6097 C   0  0  0  0  0  0  0  0  0  0  0  0
  -28.4158  -24.0841   19.6014 C   0  0  0  0  0  0  0  0  0  0  0  0
  -22.3246   -8.7284   20.1810 C   0  0  0  0  0  0  0  0  0  0  0  0
  -23.0877   -8.7221   22.4733 C   0  0  0  0  0  0  0  0  0  0  0  0
  -28.9373  -22.9787   18.9307 C   0  0  0  0  0  0  0  0  0  0  0  0
  -19.3766   -7.9313   21.6325 C   0  0  0  0  0  0  0  0  0  0  0  0
  -18.0689   -7.8905   21.1489 C   0  0  0  0  0  0  0  0  0  0  0  0
  -26.7414  -22.4726   18.0698 C   0  0  0  0  0  0  0  0  0  0  0  0
  -18.6222   -5.9529   19.8161 C   0  0  0  0  0  0  0  0  0  0  0  0
  -28.3945  -18.7438   22.0125 C   0  0  0  0  0  0  0  0  0  0  0  0
  -23.8255  -10.4543   20.9593 C   0  0  0  0  0  0  0  0  0  0  0  0
  -24.1729  -12.9792   20.8516 C   0  0  0  0  0  0  0  0  0  0  0  0
  -22.4681  -25.8730   25.6587 C   0  0  0  0  0  0  0  0  0  0  0  0
  -27.0489  -24.3863   19.5200 C   0  0  0  0  0  0  0  0  0  0  0  0
  -23.6486  -25.3740   25.0759 C   0  0  0  0  0  0  0  0  0  0  0  0
  -26.2055  -23.5839   18.7383 C   0  0  0  0  0  0  0  0  0  0  0  0
  -29.0963  -18.3965   20.8694 C   0  0  0  0  0  0  0  0  0  0  0  0
  -27.0644  -18.7424   19.6300 C   0  0  0  0  0  0  0  0  0  0  0  0
  -28.4112  -18.3983   19.6595 C   0  0  0  0  0  0  0  0  0  0  0  0
  -22.3330   -8.1489   21.4498 C   0  0  0  0  0  0  0  0  0  0  0  0
  -28.0996  -22.1711   18.1671 C   0  0  0  0  0  0  0  0  0  0  0  0
  -20.3072   -6.9829   21.2079 C   0  0  0  0  0  0  0  0  0  0  0  0
  -17.6917   -6.9013   20.2408 C   0  0  0  0  0  0  0  0  0  0  0  0
  -19.9300   -5.9937   20.2997 C   0  0  0  0  0  0  0  0  0  0  0  0
  -24.5969  -11.6447   20.7065 C   0  0  0  0  0  0  0  0  0  0  0  0
  -26.4535  -19.0740   20.8286 C   0  0  0  0  0  0  0  0  0  0  0  0
  -25.2663  -13.7280   20.4905 C   0  0  0  0  0  0  0  0  0  0  0  0
  -22.9042  -13.4958   21.2749 C   0  0  0  0  0  0  0  0  0  0  0  0
  -24.6651  -24.5766   21.6141 C   0  0  0  0  0  0  0  0  0  0  0  0
  -29.6682  -18.9688   17.7650 C   0  0  0  0  0  0  0  0  0  0  0  0
  -23.0127  -25.6673   19.0446 C   0  0  0  0  0  0  0  0  0  0  0  0
  -22.6876  -25.7935   15.6497 C   0  0  0  0  0  0  0  0  0  0  0  0
  -30.7526  -14.7335   20.6761 C   0  0  0  0  0  0  0  0  0  0  0  0
  -21.1039  -25.4644   25.1620 C   0  0  0  0  0  0  0  0  0  0  0  0
  -26.5067  -25.5977   20.2278 C   0  0  0  0  0  0  0  0  0  0  0  0
  -24.7345  -23.8770   18.6021 C   0  0  0  0  0  0  0  0  0  0  0  0
  -21.1226  -24.8554   23.7624 C   0  0  0  0  0  0  0  0  0  0  0  0
  -29.6061  -12.3637   18.2790 C   0  0  0  0  0  0  0  0  0  0  0  0
  -22.2384  -23.8219   23.6447 C   0  0  0  0  0  0  0  0  0  0  0  0
  -28.1686  -12.0711   18.7125 C   0  0  0  0  0  0  0  0  0  0  0  0
  -30.5255  -12.5763   19.4796 C   0  0  0  0  0  0  0  0  0  0  0  0
  -28.6274  -13.3048   20.8726 C   0  0  0  0  0  0  0  0  0  0  0  0
  -23.6124  -24.4659   23.8658 C   0  0  1  0  0  0  0  0  0  0  0  0
  -25.0063  -25.5145   20.4908 C   0  0  1  0  0  0  0  0  0  0  0  0
  -27.6512  -13.1384   19.6955 C   0  0  2  0  0  0  0  0  0  0  0  0
  -26.3017  -18.7537   18.3475 C   0  0  0  0  0  0  0  0  0  0  0  0
  -25.0085  -19.4521   20.8595 C   0  0  0  0  0  0  0  0  0  0  0  0
  -30.3908  -18.5234   16.5157 C   0  0  0  0  0  0  0  0  0  0  0  0
  -21.2171  -26.7308   13.8451 C   0  0  0  0  0  0  0  0  0  0  0  0
  -20.9285  -23.5169   19.6294 C   0  0  0  0  0  0  0  0  0  0  0  0
  -20.0227  -23.8656   17.3216 C   0  0  0  0  0  0  0  0  0  0  0  0
  -19.9815  -25.7361   18.9715 C   0  0  0  0  0  0  0  0  0  0  0  0
  -24.9049  -27.3888   14.5106 C   0  0  0  0  0  0  0  0  0  0  0  0
  -30.5390  -18.0365   20.9602 C   0  0  0  0  0  0  0  0  0  0  0  0
  -29.7350  -20.4458   18.0994 C   0  0  0  0  0  0  0  0  0  1  0  0
  -30.8252  -16.8776   21.9237 C   0  0  0  0  0  0  0  0  0  0  0  0
  -22.1856  -25.0280   17.9554 C   0  0  1  0  0  0  0  0  0  0  0  0
  -22.4524  -26.9566   14.7029 C   0  0  2  0  0  0  0  0  0  0  0  0
  -20.8069  -24.5297   18.4734 C   0  0  0  0  0  0  0  0  0  0  0  0
  -27.0861  -19.0838   22.0233 N   0  0  0  0  0  0  0  0  0  0  0  0
  -25.8610  -11.5481   20.2859 N   0  0  0  0  0  0  0  0  0  0  0  0
  -29.0784  -18.0541   18.4747 N   0  0  0  0  0  0  0  0  0  0  0  0
  -26.2406  -12.8314   20.1635 N   0  0  0  0  0  0  0  0  0  0  0  0
  -24.2508  -25.0690   19.3182 N   0  0  0  0  0  0  0  0  0  0  0  0
  -29.9786  -13.6016   20.3716 N   0  0  0  0  0  0  0  0  0  0  0  0
  -25.4797  -15.0593   20.4239 N   0  0  0  0  0  0  0  0  0  0  0  0
  -21.8907  -12.5873   21.6091 N   0  0  0  0  0  0  0  0  0  0  0  0
  -24.0306  -25.1839   22.6809 N   0  0  0  0  0  0  0  0  0  0  0  0
  -22.1005  -26.0086   16.8786 N   0  0  0  0  0  0  0  0  0  0  0  0
  -30.1568  -15.6594   21.5237 N   0  0  0  0  0  0  0  0  0  0  0  0
  -23.6249  -27.1352   13.8005 N   0  3  0  0  0  0  0  0  0  0  0  0
  -22.6709  -14.7267   21.3388 O   0  0  0  0  0  0  0  0  0  0  0  0
  -24.9546  -23.3897   21.5192 O   0  0  0  0  0  0  0  0  0  0  0  0
  -22.5794  -26.6652   19.6261 O   0  0  0  0  0  0  0  0  0  0  0  0
  -23.3250  -24.7926   15.3298 O   0  0  0  0  0  0  0  0  0  0  0  0
  -31.8883  -14.9087   20.2217 O   0  0  0  0  0  0  0  0  0  0  0  0
  -21.6048   -7.0243   21.6895 O   0  0  0  0  0  0  0  0  0  0  0  0
  -28.6060  -21.0911   17.5120 O   0  0  0  0  0  0  0  0  0  1  0  0
  -16.4355   -6.8613   19.7776 F   0  0  0  0  0  0  0  0  0  0  0  0
  -20.8192   -5.0792   19.8890 F   0  0  0  0  0  0  0  0  0  0  0  0
  1  2  1  0  0  0  0
  1  5  2  0  0  0  0
  2  6  2  0  0  0  0
  3  8  2  0  0  0  0
  3 16  1  0  0  0  0
  4  9  1  0  0  0  0
  4 16  2  0  0  0  0
  5 18  1  0  0  0  0
  6 20  1  0  0  0  0
  7 10  2  0  0  0  0
  7 19  1  0  0  0  0
  8 25  1  0  0  0  0
  9 25  2  0  0  0  0
 10 26  1  0  0  0  0
 11 12  2  0  0  0  0
 11 27  1  0  0  0  0
 12 28  1  0  0  0  0
 13 21  1  0  0  0  0
 13 26  2  0  0  0  0
 14 28  2  0  0  0  0
 14 29  1  0  0  0  0
 15 22  2  0  0  0  0
 15 65  1  0  0  0  0
 16 30  1  0  0  0  0
 17 30  1  0  0  0  0
 17 32  2  0  0  0  0
 17 33  1  0  0  0  0
 18 20  2  0  0  0  0
 18 39  1  0  0  0  0
 19 21  2  0  0  0  0
 19 40  1  0  0  0  0
 20 48  1  0  0  0  0
 21 41  1  0  0  0  0
 22 24  1  0  0  0  0
 22 59  1  0  0  0  0
 23 24  2  0  0  0  0
 23 31  1  0  0  0  0
 23 51  1  0  0  0  0
 24 67  1  0  0  0  0
 25 82  1  0  0  0  0
 26 83  1  0  0  0  0
 27 29  2  0  0  0  0
 27 82  1  0  0  0  0
 28 84  1  0  0  0  0
 29 85  1  0  0  0  0
 30 66  2  0  0  0  0
 31 52  1  0  0  0  0
 31 65  2  0  0  0  0
 32 68  1  0  0  0  0
 32 71  1  0  0  0  0
 33 72  1  0  0  0  0
 33 77  2  0  0  0  0
 34 49  1  0  0  0  0
 34 73  1  0  0  0  0
 34 78  2  0  0  0  0
 35 53  1  0  0  0  0
 35 60  1  0  0  0  0
 35 67  2  0  0  0  0
 36 62  1  0  0  0  0
 36 69  1  0  0  0  0
 36 79  2  0  0  0  0
 37 63  1  0  0  0  0
 37 74  1  0  0  0  0
 37 80  2  0  0  0  0
 38 70  1  0  0  0  0
 38 75  1  0  0  0  0
 38 81  2  0  0  0  0
 39 42  1  0  0  0  0
 40 49  1  0  0  0  0
 41 69  1  0  0  0  0
 42 44  1  0  0  0  0
 43 45  1  0  0  0  0
 43 46  1  0  0  0  0
 44 48  1  0  0  0  0
 45 50  1  0  0  0  0
 46 70  1  0  0  0  0
 47 50  1  0  0  0  0
 47 70  1  0  0  0  0
 48 73  1  0  0  0  0
 49 69  1  0  0  0  0
 50 68  1  0  0  0  0
 54 63  1  0  0  0  0
 55 64  1  0  0  0  0
 56 64  1  0  0  0  0
 57 64  1  0  0  0  0
 58 76  1  0  0  0  0
 59 61  1  0  0  0  0
 60 83  1  0  0  0  0
 61 75  1  0  0  0  0
 62 64  1  0  0  0  0
 62 74  1  0  0  0  0
 63 76  1  0  0  0  0
 66 68  1  0  0  0  0
M  CHG  1  76   1
M  ISO  4  38 100  60 101  75 100  83 101
M  END
> <Batch ID>
0115

> <Smiles>
C=C(Nc1c(CC[100NH:0][100C:0](=O)N2CCCC(n3nc(-c4ccc(Oc5ccc(F)cc5F)cc4)c(C(N)=O)c3N)C2)cnc(C)c1C)[101CH2:1][101O:1]c1ccc2c(c1)CN(C(=O)C(NC(=O)C(C)NC)C(C)(C)C)C(C(=O)NC1CCCc3ccccc31)C2

> <Shape>
0.205

> <Color>
0.192

> <Negative vol penalty>
0.000

$$$$

  -OEChem-04052320103D

 86 94  0     1  0  0  0  0  0999 V2000
  -16.9381  -29.3439   24.4975 C   0  0  0  0  0  0  0  0  0  0  0  0
  -17.3385  -28.1568   23.8926 C   0  0  0  0  0  0  0  0  0  0  0  0
  -25.2714  -14.4629   22.1999 C   0  0  0  0  0  0  0  0  0  0  0  0
  -26.1803  -14.8237   19.9906 C   0  0  0  0  0  0  0  0  0  0  0  0
  -17.5573  -30.5444   24.1521 C   0  0  0  0  0  0  0  0  0  0  0  0
  -18.3576  -28.1697   22.9409 C   0  0  0  0  0  0  0  0  0  0  0  0
  -22.5657  -23.8222   21.9939 C   0  0  0  0  0  0  0  0  0  0  0  0
  -24.3736  -13.5314   21.6784 C   0  0  0  0  0  0  0  0  0  0  0  0
  -25.2825  -13.8922   19.4691 C   0  0  0  0  0  0  0  0  0  0  0  0
  -22.6513  -22.7861   21.0649 C   0  0  0  0  0  0  0  0  0  0  0  0
  -22.0854  -10.7930   20.9855 C   0  0  0  0  0  0  0  0  0  0  0  0
  -21.9203   -9.5934   21.6778 C   0  0  0  0  0  0  0  0  0  0  0  0
  -24.0308  -24.1736   19.6538 C   0  0  0  0  0  0  0  0  0  0  0  0
  -24.2662   -9.0986   21.3799 C   0  0  0  0  0  0  0  0  0  0  0  0
  -30.3548  -22.2552   17.3321 C   0  0  0  0  0  0  0  0  0  0  0  0
  -26.1748  -15.1090   21.3560 C   0  0  0  0  0  0  0  0  0  0  0  0
  -28.3972  -15.8217   22.3858 C   0  0  0  0  0  0  0  0  0  0  0  0
  -18.5912  -30.5707   23.2028 C   0  0  0  0  0  0  0  0  0  0  0  0
  -23.2040  -25.0475   21.7543 C   0  0  0  0  0  0  0  0  0  0  0  0
  -18.9903  -29.3719   22.5815 C   0  0  0  0  0  0  0  0  0  0  0  0
  -23.9539  -25.2227   20.5825 C   0  0  0  0  0  0  0  0  0  0  0  0
  -29.0037  -22.4396   17.6818 C   0  0  0  0  0  0  0  0  0  0  0  0
  -24.3792  -13.2461   20.3130 C   0  0  0  0  0  0  0  0  0  0  0  0
  -23.3816  -22.9627   19.8933 C   0  0  0  0  0  0  0  0  0  0  0  0
  -23.3409  -11.1454   20.4903 C   0  0  0  0  0  0  0  0  0  0  0  0
  -23.0107   -8.7462   21.8750 C   0  0  0  0  0  0  0  0  0  0  0  0
  -24.4313  -10.2982   20.6876 C   0  0  0  0  0  0  0  0  0  0  0  0
  -27.1021  -16.0717   21.8940 C   0  0  0  0  0  0  0  0  0  0  0  0
  -28.3010  -21.8420   16.6641 C   0  0  0  0  0  0  0  0  0  0  0  0
  -28.8600  -17.0544   22.7766 C   0  0  0  0  0  0  0  0  0  0  0  0
  -29.1176  -14.5857   22.4807 C   0  0  0  0  0  0  0  0  0  0  0  0
  -22.2295  -28.0512   21.3913 C   0  0  0  0  0  0  0  0  0  0  0  0
  -25.4136  -28.6702   21.3648 C   0  0  0  0  0  0  0  0  0  0  0  0
  -28.5821  -27.5304   20.8098 C   0  0  0  0  0  0  0  0  0  0  0  0
  -27.4962  -22.6396   21.1044 C   0  0  0  0  0  0  0  0  0  0  0  0
  -19.1982  -31.8992   22.8273 C   0  0  0  0  0  0  0  0  0  0  0  0
  -23.1241  -26.1459   22.7788 C   0  0  0  0  0  0  0  0  0  0  0  0
  -24.6746  -26.5119   20.2875 C   0  0  0  0  0  0  0  0  0  0  0  0
  -20.5257  -31.7740   22.0840 C   0  0  0  0  0  0  0  0  0  0  0  0
  -27.3285  -21.2886   24.3942 C   0  0  0  0  0  0  0  0  0  0  0  0
  -20.4230  -30.7253   20.9810 C   0  0  0  0  0  0  0  0  0  0  0  0
  -27.3683  -19.7758   24.1709 C   0  0  0  0  0  0  0  0  0  0  0  0
  -26.5389  -22.0004   23.2979 C   0  0  0  0  0  0  0  0  0  0  0  0
  -27.0195  -20.1871   21.6995 C   0  0  0  0  0  0  0  0  0  0  0  0
  -20.1091  -29.3417   21.5628 C   0  0  1  0  0  0  0  0  0  0  0  0
  -23.3882  -27.5296   22.1932 C   0  0  1  0  0  0  0  0  0  0  0  0
  -27.8519  -19.4314   22.7494 C   0  0  2  0  0  0  0  0  0  0  0  0
  -28.6051  -19.1921   14.8116 C   0  0  0  0  0  0  0  0  0  0  0  0
  -31.0908  -27.5585   20.7568 C   0  0  0  0  0  0  0  0  0  0  0  0
  -24.6111  -18.1113   17.1606 C   0  0  0  0  0  0  0  0  0  0  0  0
  -24.9797  -30.1358   18.7240 C   0  0  0  0  0  0  0  0  0  0  0  0
  -27.4504  -30.0224   18.3354 C   0  0  0  0  0  0  0  0  0  0  0  0
  -26.5547  -31.2709   20.3005 C   0  0  0  0  0  0  0  0  0  0  0  0
  -28.7677  -26.5222   23.5861 C   0  0  0  0  0  0  0  0  0  0  0  0
  -28.4696  -23.1209   18.8728 C   0  0  0  0  0  0  0  0  0  0  0  0
  -26.8233  -21.6907   16.4343 C   0  0  0  0  0  0  0  0  0  0  0  0
  -22.9784  -19.7578   18.1460 C   0  0  0  0  0  0  0  0  0  0  0  0
  -28.9944  -20.6402   14.5689 C   0  0  0  0  0  0  0  0  0  0  0  0
  -22.7822  -20.7402   19.2956 C   0  0  0  0  0  0  0  0  0  1  0  0
  -26.4796  -28.7438   20.2984 C   0  0  1  0  0  0  0  0  0  0  0  0
  -29.8517  -27.6423   21.6344 C   0  0  2  0  0  0  0  0  0  0  0  0
  -24.4520  -19.4407   17.8872 C   0  0  2  0  0  0  0  0  0  0  0  0
  -26.3510  -30.0195   19.4189 C   0  0  0  0  0  0  0  0  0  0  0  0
  -30.5040  -21.5923   16.1822 N   0  0  0  0  0  0  0  0  0  0  0  0
  -26.7637  -17.3619   21.9649 N   0  0  0  0  0  0  0  0  0  0  0  0
  -26.2465  -20.6423   17.2741 N   0  0  0  0  0  0  0  0  0  0  0  0
  -25.0315  -20.4923   17.0439 N   0  0  0  0  0  0  0  0  0  0  0  0
  -29.2375  -21.3548   15.8006 N   0  0  0  0  0  0  0  0  0  0  0  0
  -27.8530  -17.9336   22.5060 N   0  0  0  0  0  0  0  0  0  0  0  0
  -24.5611  -27.5581   21.3170 N   0  0  0  0  0  0  0  0  0  0  0  0
  -27.0486  -21.6321   21.9748 N   0  0  0  0  0  0  0  0  0  0  0  0
  -30.0260  -17.4612   23.3219 N   0  0  0  0  0  0  0  0  0  0  0  0
  -28.4941  -13.4129   22.0335 N   0  0  0  0  0  0  0  0  0  0  0  0
  -21.3001  -28.7522   22.1358 N   0  0  0  0  0  0  0  0  0  0  0  0
  -27.7582  -28.6212   20.9902 N   0  0  0  0  0  0  0  0  0  0  0  0
  -27.9693  -22.2040   19.8727 N   0  0  0  0  0  0  0  0  0  0  0  0
  -29.9138  -26.5453   22.6412 N   0  3  0  0  0  0  0  0  0  0  0  0
  -30.2735  -14.5206   22.9635 O   0  0  0  0  0  0  0  0  0  0  0  0
  -22.1829  -27.8351   20.1859 O   0  0  0  0  0  0  0  0  0  0  0  0
  -25.3445  -29.5629   22.2134 O   0  0  0  0  0  0  0  0  0  0  0  0
  -28.3467  -26.5730   20.0760 O   0  0  0  0  0  0  0  0  0  0  0  0
  -27.4807  -23.8381   21.4049 O   0  0  0  0  0  0  0  0  0  0  0  0
  -23.5034  -12.3371   19.8039 O   0  0  0  0  0  0  0  0  0  0  0  0
  -23.4662  -21.9534   18.9845 O   0  0  0  0  0  0  0  0  0  1  0  0
  -22.8523   -7.5950   22.5412 F   0  0  0  0  0  0  0  0  0  0  0  0
  -25.6402  -10.6319   20.2152 F   0  0  0  0  0  0  0  0  0  0  0  0
  1  2  1  0  0  0  0
  1  5  2  0  0  0  0
  2  6  2  0  0  0  0
  3  8  2  0  0  0  0
  3 16  1  0  0  0  0
  4  9  1  0  0  0  0
  4 16  2  0  0  0  0
  5 18  1  0  0  0  0
  6 20  1  0  0  0  0
  7 10  2  0  0  0  0
  7 19  1  0  0  0  0
  8 23  1  0  0  0  0
  9 23  2  0  0  0  0
 10 24  1  0  0  0  0
 11 12  2  0  0  0  0
 11 25  1  0  0  0  0
 12 26  1  0  0  0  0
 13 21  1  0  0  0  0
 13 24  2  0  0  0  0
 14 26  2  0  0  0  0
 14 27  1  0  0  0  0
 15 22  1  0  0  0  0
 15 64  2  0  0  0  0
 16 28  1  0  0  0  0
 17 28  1  0  0  0  0
 17 30  2  0  0  0  0
 17 31  1  0  0  0  0
 18 20  2  0  0  0  0
 18 36  1  0  0  0  0
 19 21  2  0  0  0  0
 19 37  1  0  0  0  0
 20 45  1  0  0  0  0
 21 38  1  0  0  0  0
 22 29  2  0  0  0  0
 22 55  1  0  0  0  0
 23 83  1  0  0  0  0
 24 84  1  0  0  0  0
 25 27  2  0  0  0  0
 25 83  1  0  0  0  0
 26 85  1  0  0  0  0
 27 86  1  0  0  0  0
 28 65  2  0  0  0  0
 29 56  1  0  0  0  0
 29 68  1  0  0  0  0
 30 69  1  0  0  0  0
 30 72  1  0  0  0  0
 31 73  1  0  0  0  0
 31 78  2  0  0  0  0
 32 46  1  0  0  0  0
 32 74  1  0  0  0  0
 32 79  2  0  0  0  0
 33 60  1  0  0  0  0
 33 70  1  0  0  0  0
 33 80  2  0  0  0  0
 34 61  1  0  0  0  0
 34 75  1  0  0  0  0
 34 81  2  0  0  0  0
 35 71  1  0  0  0  0
 35 76  1  0  0  0  0
 35 82  2  0  0  0  0
 36 39  1  0  0  0  0
 37 46  1  0  0  0  0
 38 70  1  0  0  0  0
 39 41  1  0  0  0  0
 40 42  1  0  0  0  0
 40 43  1  0  0  0  0
 41 45  1  0  0  0  0
 42 47  1  0  0  0  0
 43 71  1  0  0  0  0
 44 47  1  0  0  0  0
 44 71  1  0  0  0  0
 45 74  1  0  0  0  0
 46 70  1  0  0  0  0
 47 69  1  0  0  0  0
 48 58  1  0  0  0  0
 49 61  1  0  0  0  0
 50 62  1  0  0  0  0
 51 63  1  0  0  0  0
 52 63  1  0  0  0  0
 53 63  1  0  0  0  0
 54 77  1  0  0  0  0
 55 76  1  0  0  0  0
 56 66  1  0  0  0  0
 57 59  1  0  0  0  0
 57 62  1  0  0  0  0
 58 68  1  0  0  0  0
 59 84  1  0  0  0  0
 60 63  1  0  0  0  0
 60 75  1  0  0  0  0
 61 77  1  0  0  0  0
 62 67  1  0  0  0  0
 64 68  1  0  0  0  0
 65 69  1  0  0  0  0
 66 67  2  0  0  0  0
M  CHG  1  77   1
M  ISO  4  35 100  59 101  76 100  84 101
M  END
> <Batch ID>
0115

> <Smiles>
CCn1ncc(C[100NH:0][100C:0](=O)N2CCCC(n3nc(-c4ccc(Oc5ccc(F)cc5F)cc4)c(C(N)=O)c3N)C2)c1CNN=C(C)C[101CH2:1][101O:1]c1ccc2c(c1)CN(C(=O)C(NC(=O)C(C)NC)C(C)(C)C)C(C(=O)NC1CCCc3ccccc31)C2

> <Shape>
0.212

> <Color>
0.064

> <Negative vol penalty>
0.000

$$$$

  -OEChem-04052320103D

 81 89  0     1  0  0  0  0  0999 V2000
  -31.9566  -33.0567   23.6193 C   0  0  0  0  0  0  0  0  0  0  0  0
  -31.5947  -32.1005   22.6759 C   0  0  0  0  0  0  0  0  0  0  0  0
  -26.4931  -13.2355   21.4504 C   0  0  0  0  0  0  0  0  0  0  0  0
  -26.3349  -13.8049   19.1078 C   0  0  0  0  0  0  0  0  0  0  0  0
  -31.2225  -33.1845   24.7977 C   0  0  0  0  0  0  0  0  0  0  0  0
  -30.4989  -31.2707   22.9109 C   0  0  0  0  0  0  0  0  0  0  0  0
  -26.5591  -29.1085   18.7505 C   0  0  0  0  0  0  0  0  0  0  0  0
  -25.2076  -12.6958   21.4060 C   0  0  0  0  0  0  0  0  0  0  0  0
  -25.0495  -13.2651   19.0634 C   0  0  0  0  0  0  0  0  0  0  0  0
  -26.4706  -27.8839   18.0900 C   0  0  0  0  0  0  0  0  0  0  0  0
  -23.7408   -9.8387   20.3486 C   0  0  0  0  0  0  0  0  0  0  0  0
  -23.5352   -8.6026   20.9611 C   0  0  0  0  0  0  0  0  0  0  0  0
  -24.8751  -27.1212   19.7307 C   0  0  0  0  0  0  0  0  0  0  0  0
  -21.9020   -9.6037   22.4333 C   0  0  0  0  0  0  0  0  0  0  0  0
  -27.0567  -13.7901   20.3013 C   0  0  0  0  0  0  0  0  0  0  0  0
  -29.5974  -13.6774   20.1015 C   0  0  0  0  0  0  0  0  0  0  0  0
  -30.1114  -32.3624   25.0429 C   0  0  0  0  0  0  0  0  0  0  0  0
  -25.8133  -29.3451   19.9142 C   0  0  0  0  0  0  0  0  0  0  0  0
  -29.7500  -31.3867   24.0943 C   0  0  0  0  0  0  0  0  0  0  0  0
  -24.9540  -28.3506   20.4026 C   0  0  0  0  0  0  0  0  0  0  0  0
  -24.4859  -12.7106   20.2125 C   0  0  0  0  0  0  0  0  0  0  0  0
  -25.6307  -26.8889   18.5817 C   0  0  0  0  0  0  0  0  0  0  0  0
  -23.0270  -10.9574   20.7785 C   0  0  0  0  0  0  0  0  0  0  0  0
  -22.6158   -8.4850   22.0035 C   0  0  0  0  0  0  0  0  0  0  0  0
  -22.1076  -10.8399   21.8208 C   0  0  0  0  0  0  0  0  0  0  0  0
  -28.3843  -14.3483   20.3467 C   0  0  0  0  0  0  0  0  0  0  0  0
  -30.5623  -14.6403   20.2696 C   0  0  0  0  0  0  0  0  0  0  0  0
  -29.8311  -12.3064   19.7530 C   0  0  0  0  0  0  0  0  0  0  0  0
  -26.5271  -29.9939   22.9429 C   0  0  0  0  0  0  0  0  0  0  0  0
  -23.3155  -30.3609   23.2138 C   0  0  0  0  0  0  0  0  0  0  0  0
  -20.2043  -29.6216   22.0220 C   0  0  0  0  0  0  0  0  0  0  0  0
  -30.4875  -20.6103   19.8175 C   0  0  0  0  0  0  0  0  0  0  0  0
  -29.3772  -32.5058   26.3525 C   0  0  0  0  0  0  0  0  0  0  0  0
  -25.8997  -30.6811   20.5998 C   0  0  0  0  0  0  0  0  0  0  0  0
  -24.1168  -28.5619   21.6367 C   0  0  0  0  0  0  0  0  0  0  0  0
  -28.0034  -31.8402   26.3566 C   0  0  0  0  0  0  0  0  0  0  0  0
  -31.4338  -18.6904   22.6627 C   0  0  0  0  0  0  0  0  0  0  0  0
  -28.0878  -30.4379   25.7623 C   0  0  0  0  0  0  0  0  0  0  0  0
  -30.8690  -17.2994   22.3697 C   0  0  0  0  0  0  0  0  0  0  0  0
  -30.5076  -19.7938   22.1562 C   0  0  0  0  0  0  0  0  0  0  0  0
  -29.5699  -18.2937   20.4403 C   0  0  0  0  0  0  0  0  0  0  0  0
  -30.1614  -21.9383   15.1626 C   0  0  0  0  0  0  0  0  0  0  0  0
  -31.7749  -21.0876   16.7887 C   0  0  0  0  0  0  0  0  0  0  0  0
  -28.5528  -30.4847   24.3018 C   0  0  1  0  0  0  0  0  0  0  0  0
  -25.4840  -30.6279   22.0667 C   0  0  1  0  0  0  0  0  0  0  0  0
  -29.4567  -21.1337   16.2471 C   0  0  1  0  0  0  0  0  0  0  0  0
  -30.4957  -17.1476   20.8828 C   0  0  2  0  0  0  0  0  0  0  0  0
  -30.4115  -21.2814   17.4294 C   0  0  1  0  0  0  0  0  0  0  0  0
  -17.7712  -30.0370   22.4751 C   0  0  0  0  0  0  0  0  0  0  0  0
  -27.0706  -21.0499   15.4991 C   0  0  0  0  0  0  0  0  0  0  0  0
  -23.4094  -28.3734   25.5270 C   0  0  0  0  0  0  0  0  0  0  0  0
  -20.9296  -28.1074   25.3076 C   0  0  0  0  0  0  0  0  0  0  0  0
  -21.8967  -30.3308   25.8941 C   0  0  0  0  0  0  0  0  0  0  0  0
  -19.8209  -30.9361   19.3983 C   0  0  0  0  0  0  0  0  0  0  0  0
  -26.7345  -23.7221   17.2612 C   0  0  0  0  0  0  0  0  0  0  0  0
  -27.9492  -23.1754   16.5103 C   0  0  0  0  0  0  0  0  0  0  0  0
  -26.7027  -25.2448   17.2388 C   0  0  0  0  0  0  0  0  0  1  0  0
  -22.1588  -29.4473   23.5398 C   0  0  1  0  0  0  0  0  0  0  0  0
  -19.0059  -30.5029   21.7193 C   0  0  2  0  0  0  0  0  0  0  0  0
  -28.0403  -21.6383   16.5271 C   0  0  2  0  0  0  0  0  0  0  0  0
  -22.1158  -29.0597   25.0449 C   0  0  0  0  0  0  0  0  0  0  0  0
  -28.5599  -15.6377   20.6477 N   0  0  0  0  0  0  0  0  0  0  0  0
  -29.8946  -15.7847   20.5929 N   0  0  0  0  0  0  0  0  0  0  0  0
  -24.2409  -29.8827   22.2752 N   0  0  0  0  0  0  0  0  0  0  0  0
  -30.1935  -19.5923   20.7396 N   0  0  0  0  0  0  0  0  0  0  0  0
  -31.9084  -14.6111   20.1709 N   0  0  0  0  0  0  0  0  0  0  0  0
  -28.7271  -11.4531   19.6209 N   0  0  0  0  0  0  0  0  0  0  0  0
  -27.4628  -30.8827   23.4369 N   0  0  0  0  0  0  0  0  0  0  0  0
  -20.9575  -30.1234   23.0623 N   0  0  0  0  0  0  0  0  0  0  0  0
  -30.1637  -20.3354   18.4945 N   0  0  0  0  0  0  0  0  0  0  0  0
  -31.6234  -21.7089   15.4274 N   0  3  0  0  0  0  0  0  0  0  0  0
  -18.7009  -30.4793   20.2607 N   0  3  0  0  0  0  0  0  0  0  0  0
  -30.9858  -11.8476   19.5804 O   0  0  0  0  0  0  0  0  0  0  0  0
  -26.4852  -28.7879   23.1562 O   0  0  0  0  0  0  0  0  0  0  0  0
  -23.3913  -31.4613   23.7659 O   0  0  0  0  0  0  0  0  0  0  0  0
  -20.4458  -28.5891   21.4005 O   0  0  0  0  0  0  0  0  0  0  0  0
  -31.0055  -21.6824   20.1479 O   0  0  0  0  0  0  0  0  0  0  0  0
  -23.2316  -12.1838   20.1688 O   0  0  0  0  0  0  0  0  0  0  0  0
  -25.5429  -25.6925   17.9394 O   0  0  0  0  0  0  0  0  0  1  0  0
  -22.4174   -7.2975   22.5906 F   0  0  0  0  0  0  0  0  0  0  0  0
  -21.4180  -11.9108   22.2374 F   0  0  0  0  0  0  0  0  0  0  0  0
  1  2  1  0  0  0  0
  1  5  2  0  0  0  0
  2  6  2  0  0  0  0
  3  8  2  0  0  0  0
  3 15  1  0  0  0  0
  4  9  1  0  0  0  0
  4 15  2  0  0  0  0
  5 17  1  0  0  0  0
  6 19  1  0  0  0  0
  7 10  2  0  0  0  0
  7 18  1  0  0  0  0
  8 21  1  0  0  0  0
  9 21  2  0  0  0  0
 10 22  1  0  0  0  0
 11 12  2  0  0  0  0
 11 23  1  0  0  0  0
 12 24  1  0  0  0  0
 13 20  1  0  0  0  0
 13 22  2  0  0  0  0
 14 24  2  0  0  0  0
 14 25  1  0  0  0  0
 15 26  1  0  0  0  0
 16 26  1  0  0  0  0
 16 27  2  0  0  0  0
 16 28  1  0  0  0  0
 17 19  2  0  0  0  0
 17 33  1  0  0  0  0
 18 20  2  0  0  0  0
 18 34  1  0  0  0  0
 19 44  1  0  0  0  0
 20 35  1  0  0  0  0
 21 78  1  0  0  0  0
 22 79  1  0  0  0  0
 23 25  2  0  0  0  0
 23 78  1  0  0  0  0
 24 80  1  0  0  0  0
 25 81  1  0  0  0  0
 26 62  2  0  0  0  0
 27 63  1  0  0  0  0
 27 66  1  0  0  0  0
 28 67  1  0  0  0  0
 28 73  2  0  0  0  0
 29 45  1  0  0  0  0
 29 68  1  0  0  0  0
 29 74  2  0  0  0  0
 30 58  1  0  0  0  0
 30 64  1  0  0  0  0
 30 75  2  0  0  0  0
 31 59  1  0  0  0  0
 31 69  1  0  0  0  0
 31 76  2  0  0  0  0
 32 65  1  0  0  0  0
 32 70  1  0  0  0  0
 32 77  2  0  0  0  0
 33 36  1  0  0  0  0
 34 45  1  0  0  0  0
 35 64  1  0  0  0  0
 36 38  1  0  0  0  0
 37 39  1  0  0  0  0
 37 40  1  0  0  0  0
 38 44  1  0  0  0  0
 39 47  1  0  0  0  0
 40 65  1  0  0  0  0
 41 47  1  0  0  0  0
 41 65  1  0  0  0  0
 42 46  1  0  0  0  0
 42 71  1  0  0  0  0
 43 48  1  0  0  0  0
 43 71  1  0  0  0  0
 44 68  1  0  0  0  0
 45 64  1  0  0  0  0
 46 48  1  0  0  0  0
 46 60  1  0  0  0  0
 47 63  1  0  0  0  0
 48 70  1  0  0  0  0
 49 59  1  0  0  0  0
 50 60  1  0  0  0  0
 51 61  1  0  0  0  0
 52 61  1  0  0  0  0
 53 61  1  0  0  0  0
 54 72  1  0  0  0  0
 55 56  1  0  0  0  0
 55 57  1  0  0  0  0
 56 60  1  0  0  0  0
 57 79  1  0  0  0  0
 58 61  1  0  0  0  0
 58 69  1  0  0  0  0
 59 72  1  0  0  0  0
 62 63  1  0  0  0  0
M  CHG  2  71   1  72   1
M  ISO  4  32 100  57 101  70 100  79 101
M  END
> <Batch ID>
0115

> <Smiles>
CNC(C)C(=O)NC(C(=O)N1Cc2cc([101O:1][101CH2:1]CCC(C)C3CNCC3[100NH:0][100C:0](=O)N3CCCC(n4nc(-c5ccc(Oc6ccc(F)cc6F)cc5)c(C(N)=O)c4N)C3)ccc2CC1C(=O)NC1CCCc2ccccc21)C(C)(C)C

> <Shape>
0.264

> <Color>
0.077

> <Negative vol penalty>
0.000

$$$$

  -OEChem-04052320103D

 90 98  0     1  0  0  0  0  0999 V2000
  -20.4925  -17.9032   24.6486 C   0  0  0  0  0  0  0  0  0  0  0  0
  -20.7534  -18.5116   23.4250 C   0  0  0  0  0  0  0  0  0  0  0  0
  -26.4768  -13.0628   18.9926 C   0  0  0  0  0  0  0  0  0  0  0  0
  -26.3036  -12.8951   21.3965 C   0  0  0  0  0  0  0  0  0  0  0  0
  -19.7573  -18.5809   25.6201 C   0  0  0  0  0  0  0  0  0  0  0  0
  -20.2783  -19.7979   23.1719 C   0  0  0  0  0  0  0  0  0  0  0  0
  -23.7672  -22.7687   21.0162 C   0  0  0  0  0  0  0  0  0  0  0  0
  -25.2534  -12.4065   18.8586 C   0  0  0  0  0  0  0  0  0  0  0  0
  -25.0801  -12.2388   21.2626 C   0  0  0  0  0  0  0  0  0  0  0  0
  -23.9980  -22.5934   19.6524 C   0  0  0  0  0  0  0  0  0  0  0  0
  -23.9913   -9.1258   20.5175 C   0  0  0  0  0  0  0  0  0  0  0  0
  -23.7756   -7.9910   21.2993 C   0  0  0  0  0  0  0  0  0  0  0  0
  -22.6092  -24.5078   19.1775 C   0  0  0  0  0  0  0  0  0  0  0  0
  -21.8693   -9.0616   22.3273 C   0  0  0  0  0  0  0  0  0  0  0  0
  -27.0020  -13.3071   20.2616 C   0  0  0  0  0  0  0  0  0  0  0  0
  -29.5134  -13.5682   19.8982 C   0  0  0  0  0  0  0  0  0  0  0  0
  -19.2811  -19.8799   25.3825 C   0  0  0  0  0  0  0  0  0  0  0  0
  -22.9455  -23.8100   21.4709 C   0  0  0  0  0  0  0  0  0  0  0  0
  -19.5348  -20.4932   24.1407 C   0  0  0  0  0  0  0  0  0  0  0  0
  -22.3717  -24.6957   20.5477 C   0  0  0  0  0  0  0  0  0  0  0  0
  -24.5550  -11.9945   19.9936 C   0  0  0  0  0  0  0  0  0  0  0  0
  -23.4166  -23.4613   18.7327 C   0  0  0  0  0  0  0  0  0  0  0  0
  -23.1460  -10.2286   20.6407 C   0  0  0  0  0  0  0  0  0  0  0  0
  -22.7146   -7.9588   22.2042 C   0  0  0  0  0  0  0  0  0  0  0  0
  -22.0850  -10.1964   21.5455 C   0  0  0  0  0  0  0  0  0  0  0  0
  -28.2660  -13.9845   20.4006 C   0  0  0  0  0  0  0  0  0  0  0  0
  -30.3886  -14.5491   20.2961 C   0  0  0  0  0  0  0  0  0  0  0  0
  -29.8509  -12.3993   19.1395 C   0  0  0  0  0  0  0  0  0  0  0  0
  -20.2109  -23.9686   23.0835 C   0  0  0  0  0  0  0  0  0  0  0  0
  -20.8144  -27.1553   23.0284 C   0  0  0  0  0  0  0  0  0  0  0  0
  -22.3805  -29.7816   21.5129 C   0  0  0  0  0  0  0  0  0  0  0  0
  -29.6789  -20.3327   21.6734 C   0  0  0  0  0  0  0  0  0  0  0  0
  -18.4505  -20.5544   26.4454 C   0  0  0  0  0  0  0  0  0  0  0  0
  -22.7280  -24.0017   22.9469 C   0  0  0  0  0  0  0  0  0  0  0  0
  -21.4980  -25.8417   20.9857 C   0  0  0  0  0  0  0  0  0  0  0  0
  -18.3030  -22.0597   26.2392 C   0  0  0  0  0  0  0  0  0  0  0  0
  -31.0607  -17.7916   23.7494 C   0  0  0  0  0  0  0  0  0  0  0  0
  -17.9493  -22.3676   24.7876 C   0  0  0  0  0  0  0  0  0  0  0  0
  -30.6137  -16.4902   23.0813 C   0  0  0  0  0  0  0  0  0  0  0  0
  -28.0373  -22.4583   19.7835 C   0  0  0  0  0  0  0  0  0  0  0  0
  -29.5765  -21.3984   18.1248 C   0  0  0  0  0  0  0  0  0  0  0  0
  -29.9877  -18.8738   23.6514 C   0  0  0  0  0  0  0  0  0  0  0  0
  -28.0684  -23.7284   18.9344 C   0  0  0  0  0  0  0  0  0  0  0  0
  -29.0558  -17.8418   21.6166 C   0  0  0  0  0  0  0  0  0  0  0  0
  -19.0575  -21.8970   23.8380 C   0  0  1  0  0  0  0  0  0  0  0  0
  -21.4587  -24.7852   23.2670 C   0  0  1  0  0  0  0  0  0  0  0  0
  -30.1269  -16.7378   21.6408 C   0  0  2  0  0  0  0  0  0  0  0  0
  -29.3246  -21.6587   19.6094 C   0  0  2  0  0  0  0  0  0  0  0  0
  -29.5641  -22.7062   17.3048 C   0  0  1  0  0  0  0  0  0  0  0  0
  -29.8131  -22.3489   15.8323 C   0  0  0  0  0  0  0  0  0  0  0  0
  -22.6546  -32.2708   21.6739 C   0  0  0  0  0  0  0  0  0  0  0  0
  -29.9291  -29.2386   16.4353 C   0  0  0  0  0  0  0  0  0  0  0  0
  -31.5184  -27.6120   17.5319 C   0  0  0  0  0  0  0  0  0  0  0  0
  -18.0262  -27.5361   21.8493 C   0  0  0  0  0  0  0  0  0  0  0  0
  -18.7081  -29.8449   21.1619 C   0  0  0  0  0  0  0  0  0  0  0  0
  -18.6674  -29.2257   23.5780 C   0  0  0  0  0  0  0  0  0  0  0  0
  -24.4368  -25.5733   14.4926 C   0  0  0  0  0  0  0  0  0  0  0  0
  -23.9636  -23.1220   14.4822 C   0  0  0  0  0  0  0  0  0  0  0  0
  -25.3025  -29.5499   21.9220 C   0  0  0  0  0  0  0  0  0  0  0  0
  -26.7468  -25.0476   16.4641 C   0  0  0  0  0  0  0  0  0  0  0  0
  -25.9830  -23.9475   15.7058 C   0  0  0  0  0  0  0  0  0  0  0  0
  -28.9668  -25.7643   17.5196 C   0  0  0  0  0  0  0  0  0  0  0  0
  -23.6194  -24.4608   16.5843 C   0  0  0  0  0  0  0  0  0  1  0  0
  -20.4839  -28.2899   22.0891 C   0  0  1  0  0  0  0  0  0  0  0  0
  -23.2173  -30.9163   22.0757 C   0  0  2  0  0  0  0  0  0  0  0  0
  -28.2195  -24.6759   16.7406 C   0  0  1  0  0  0  0  0  0  0  0  0
  -30.0658  -27.9967   17.3013 C   0  0  0  0  0  0  0  0  0  0  0  0
  -18.9862  -28.7015   22.1609 C   0  0  0  0  0  0  0  0  0  0  0  0
  -24.5103  -24.2873   15.3355 C   0  0  0  0  0  0  0  0  0  0  0  0
  -28.3381  -15.1398   21.0670 N   0  0  0  0  0  0  0  0  0  0  0  0
  -29.6414  -15.4578   20.9861 N   0  0  0  0  0  0  0  0  0  0  0  0
  -21.3103  -25.9837   22.4390 N   0  0  0  0  0  0  0  0  0  0  0  0
  -29.5708  -19.0608   22.2596 N   0  0  0  0  0  0  0  0  0  0  0  0
  -28.2880  -23.4293   17.5086 N   0  0  2  0  0  0  0  0  0  0  0  0
  -31.7167  -14.7143   20.1197 N   0  0  0  0  0  0  0  0  0  0  0  0
  -28.8302  -11.4948   18.8165 N   0  0  0  0  0  0  0  0  0  0  0  0
  -20.1679  -22.8249   23.8579 N   0  0  0  0  0  0  0  0  0  0  0  0
  -21.4154  -29.3669   22.4062 N   0  0  0  0  0  0  0  0  0  0  0  0
  -29.2680  -20.4216   20.3490 N   0  0  0  0  0  0  0  0  0  0  0  0
  -24.6187  -30.8230   21.5775 N   0  3  0  0  0  0  0  0  0  0  0  0
  -29.3812  -26.8664   16.6166 N   0  3  0  0  0  0  0  0  0  0  0  0
  -31.0256  -12.1557   18.7734 O   0  0  0  0  0  0  0  0  0  0  0  0
  -19.3500  -24.3488   22.2986 O   0  0  0  0  0  0  0  0  0  0  0  0
  -20.6459  -27.3055   24.2411 O   0  0  0  0  0  0  0  0  0  0  0  0
  -22.5623  -29.3126   20.3915 O   0  0  0  0  0  0  0  0  0  0  0  0
  -30.1146  -21.3151   22.2834 O   0  0  0  0  0  0  0  0  0  0  0  0
  -23.3610  -11.3542   19.8632 O   0  0  0  0  0  0  0  0  0  0  0  0
  -23.6413  -23.2908   17.3915 O   0  0  0  0  0  0  0  0  0  1  0  0
  -22.5067   -6.8684   22.9538 F   0  0  0  0  0  0  0  0  0  0  0  0
  -21.2688  -11.2523   21.6674 F   0  0  0  0  0  0  0  0  0  0  0  0
  1  2  1  0  0  0  0
  1  5  2  0  0  0  0
  2  6  2  0  0  0  0
  3  8  2  0  0  0  0
  3 15  1  0  0  0  0
  4  9  1  0  0  0  0
  4 15  2  0  0  0  0
  5 17  1  0  0  0  0
  6 19  1  0  0  0  0
  7 10  2  0  0  0  0
  7 18  1  0  0  0  0
  8 21  1  0  0  0  0
  9 21  2  0  0  0  0
 10 22  1  0  0  0  0
 11 12  2  0  0  0  0
 11 23  1  0  0  0  0
 12 24  1  0  0  0  0
 13 20  1  0  0  0  0
 13 22  2  0  0  0  0
 14 24  2  0  0  0  0
 14 25  1  0  0  0  0
 15 26  1  0  0  0  0
 16 26  1  0  0  0  0
 16 27  2  0  0  0  0
 16 28  1  0  0  0  0
 17 19  2  0  0  0  0
 17 33  1  0  0  0  0
 18 20  2  0  0  0  0
 18 34  1  0  0  0  0
 19 45  1  0  0  0  0
 20 35  1  0  0  0  0
 21 87  1  0  0  0  0
 22 88  1  0  0  0  0
 23 25  2  0  0  0  0
 23 87  1  0  0  0  0
 24 89  1  0  0  0  0
 25 90  1  0  0  0  0
 26 70  2  0  0  0  0
 27 71  1  0  0  0  0
 27 75  1  0  0  0  0
 28 76  1  0  0  0  0
 28 82  2  0  0  0  0
 29 46  1  0  0  0  0
 29 77  1  0  0  0  0
 29 83  2  0  0  0  0
 30 64  1  0  0  0  0
 30 72  1  0  0  0  0
 30 84  2  0  0  0  0
 31 65  1  0  0  0  0
 31 78  1  0  0  0  0
 31 85  2  0  0  0  0
 32 73  1  0  0  0  0
 32 79  1  0  0  0  0
 32 86  2  0  0  0  0
 33 36  1  0  0  0  0
 34 46  1  0  0  0  0
 35 72  1  0  0  0  0
 36 38  1  0  0  0  0
 37 39  1  0  0  0  0
 37 42  1  0  0  0  0
 38 45  1  0  0  0  0
 39 47  1  0  0  0  0
 40 43  1  0  0  0  0
 40 48  1  0  0  0  0
 41 48  1  0  0  0  0
 41 49  1  0  0  0  0
 42 73  1  0  0  0  0
 43 74  1  0  0  0  0
 44 47  1  0  0  0  0
 44 73  1  0  0  0  0
 45 77  1  0  0  0  0
 46 72  1  0  0  0  0
 47 71  1  0  0  0  0
 48 79  1  0  0  0  0
 49 50  1  0  0  0  0
 49 74  1  0  0  0  0
 51 65  1  0  0  0  0
 52 67  1  0  0  0  0
 53 67  1  0  0  0  0
 54 68  1  0  0  0  0
 55 68  1  0  0  0  0
 56 68  1  0  0  0  0
 57 69  1  0  0  0  0
 58 69  1  0  0  0  0
 59 80  1  0  0  0  0
 60 61  1  0  0  0  0
 60 66  1  0  0  0  0
 61 69  1  0  0  0  0
 62 66  1  0  0  0  0
 62 81  1  0  0  0  0
 63 69  1  0  0  0  0
 63 88  1  0  0  0  0
 64 68  1  0  0  0  0
 64 78  1  0  0  0  0
 65 80  1  0  0  0  0
 66 74  1  0  0  0  0
 67 81  1  0  0  0  0
 70 71  1  0  0  0  0
M  CHG  2  80   1  81   1
M  ISO  4  32 100  63 101  79 100  88 101
M  END
> <Batch ID>
0115

> <Smiles>
CNC(C)C(=O)NC(C(=O)N1Cc2cc([101O:1][101CH2:1]C(C)(C)CCC(CNC(C)C)N3CCC([100NH:0][100C:0](=O)N4CCCC(n5nc(-c6ccc(Oc7ccc(F)cc7F)cc6)c(C(N)=O)c5N)C4)CC3C)ccc2CC1C(=O)NC1CCCc2ccccc21)C(C)(C)C

> <Shape>
0.255

> <Color>
0.062

> <Negative vol penalty>
0.000

$$$$

  -OEChem-04052320103D

 81 89  0     1  0  0  0  0  0999 V2000
  -17.5744  -28.3709   23.7340 C   0  0  0  0  0  0  0  0  0  0  0  0
  -18.9509  -28.5315   23.8562 C   0  0  0  0  0  0  0  0  0  0  0  0
  -29.9444  -21.0878   18.5744 C   0  0  0  0  0  0  0  0  0  0  0  0
  -30.6948  -21.2709   20.8636 C   0  0  0  0  0  0  0  0  0  0  0  0
  -17.0544  -27.5737   22.7152 C   0  0  0  0  0  0  0  0  0  0  0  0
  -19.8083  -27.8940   22.9601 C   0  0  0  0  0  0  0  0  0  0  0  0
  -23.4913  -30.9433   21.2920 C   0  0  0  0  0  0  0  0  0  0  0  0
  -29.9532  -19.6972   18.6828 C   0  0  0  0  0  0  0  0  0  0  0  0
  -30.7035  -19.8803   20.9720 C   0  0  0  0  0  0  0  0  0  0  0  0
  -24.5673  -31.1700   22.1491 C   0  0  0  0  0  0  0  0  0  0  0  0
  -30.5772  -16.3851   21.9649 C   0  0  0  0  0  0  0  0  0  0  0  0
  -30.0237  -15.8200   23.1137 C   0  0  0  0  0  0  0  0  0  0  0  0
  -25.8701  -29.5435   20.9340 C   0  0  0  0  0  0  0  0  0  0  0  0
  -27.8963  -16.8379   22.5895 C   0  0  0  0  0  0  0  0  0  0  0  0
  -30.3153  -21.8747   19.6648 C   0  0  0  0  0  0  0  0  0  0  0  0
  -29.2355  -24.1796   19.8353 C   0  0  0  0  0  0  0  0  0  0  0  0
  -17.9055  -26.9339   21.8003 C   0  0  0  0  0  0  0  0  0  0  0  0
  -23.5932  -30.0054   20.2544 C   0  0  0  0  0  0  0  0  0  0  0  0
  -19.2993  -27.0865   21.9289 C   0  0  0  0  0  0  0  0  0  0  0  0
  -24.7949  -29.3086   20.0635 C   0  0  0  0  0  0  0  0  0  0  0  0
  -30.3327  -19.0934   19.8816 C   0  0  0  0  0  0  0  0  0  0  0  0
  -25.7559  -30.4680   21.9720 C   0  0  0  0  0  0  0  0  0  0  0  0
  -29.7903  -17.1768   21.1284 C   0  0  0  0  0  0  0  0  0  0  0  0
  -28.6832  -16.0463   23.4260 C   0  0  0  0  0  0  0  0  0  0  0  0
  -28.4498  -17.4032   21.4406 C   0  0  0  0  0  0  0  0  0  0  0  0
  -30.3070  -23.3112   19.5533 C   0  0  0  0  0  0  0  0  0  0  0  0
  -29.7315  -25.4333   19.5733 C   0  0  0  0  0  0  0  0  0  0  0  0
  -27.9103  -23.8797   20.2932 C   0  0  0  0  0  0  0  0  0  0  0  0
  -22.0922  -27.3016   19.5193 C   0  0  0  0  0  0  0  0  0  0  0  0
  -29.7406  -31.1493   21.8390 C   0  0  0  0  0  0  0  0  0  0  0  0
  -23.8808  -27.4990   16.8203 C   0  0  0  0  0  0  0  0  0  0  0  0
  -26.6826  -28.6956   15.2825 C   0  0  0  0  0  0  0  0  0  0  0  0
  -33.8022  -29.2326   19.9471 C   0  0  0  0  0  0  0  0  0  0  0  0
  -17.2990  -26.0441   20.7443 C   0  0  0  0  0  0  0  0  0  0  0  0
  -22.4324  -29.7919   19.3220 C   0  0  0  0  0  0  0  0  0  0  0  0
  -24.9622  -28.3058   18.9523 C   0  0  0  0  0  0  0  0  0  0  0  0
  -18.2602  -25.7051   19.6080 C   0  0  0  0  0  0  0  0  0  0  0  0
  -34.0112  -26.8701   17.2916 C   0  0  0  0  0  0  0  0  0  0  0  0
  -19.6186  -25.2897   20.1638 C   0  0  0  0  0  0  0  0  0  0  0  0
  -32.9827  -25.8028   17.6698 C   0  0  0  0  0  0  0  0  0  0  0  0
  -29.5864  -31.7983   19.3722 C   0  0  0  0  0  0  0  0  0  0  0  0
  -30.0789  -30.3842   19.4249 C   0  0  0  0  0  0  0  0  0  0  0  0
  -34.7236  -27.4283   18.5216 C   0  0  0  0  0  0  0  0  0  0  0  0
  -32.8002  -26.8678   19.9570 C   0  0  0  0  0  0  0  0  0  0  0  0
  -20.2608  -26.4313   20.9612 C   0  0  1  0  0  0  0  0  0  0  0  0
  -22.4739  -28.4401   18.6160 C   0  0  1  0  0  0  0  0  0  0  0  0
  -32.0161  -26.3149   18.7546 C   0  0  2  0  0  0  0  0  0  0  0  0
  -30.4383  -31.3445   20.5339 C   0  0  0  0  0  0  0  0  0  0  0  0
  -27.8914  -28.6576   13.0837 C   0  0  0  0  0  0  0  0  0  0  0  0
  -24.8478  -24.6645   17.4037 C   0  0  0  0  0  0  0  0  0  0  0  0
  -26.7098  -25.0387   15.7724 C   0  0  0  0  0  0  0  0  0  0  0  0
  -24.3400  -25.1190   14.9974 C   0  0  0  0  0  0  0  0  0  0  0  0
  -26.4552  -31.6303   14.9748 C   0  0  0  0  0  0  0  0  0  0  0  0
  -31.8563  -31.8408   20.5929 C   0  0  0  0  0  0  0  0  0  0  0  0
  -32.7604  -30.9371   21.4198 C   0  0  0  0  0  0  0  0  0  0  0  0
  -28.3963  -32.3217   23.5714 C   0  0  0  0  0  0  0  0  0  0  0  0
  -26.9278  -31.9919   23.3720 C   0  0  0  0  0  0  0  0  0  1  0  0
  -25.2483  -27.0119   16.4060 C   0  0  1  0  0  0  0  0  0  0  0  0
  -26.8795  -29.3930   13.9486 C   0  0  2  0  0  0  0  0  0  0  0  0
  -25.2830  -25.4759   16.1671 C   0  0  0  0  0  0  0  0  0  0  0  0
  -31.4011  -23.9585   19.1434 N   0  0  0  0  0  0  0  0  0  0  0  0
  -31.0197  -25.2469   19.1658 N   0  0  0  0  0  0  0  0  0  0  0  0
  -23.7965  -28.1276   18.0708 N   0  0  0  0  0  0  0  0  0  0  0  0
  -33.7508  -27.8984   19.5109 N   0  0  0  0  0  0  0  0  0  0  0  0
  -29.1870  -26.6660   19.6539 N   0  0  0  0  0  0  0  0  0  0  0  0
  -27.5665  -22.5388   20.5123 N   0  0  0  0  0  0  0  0  0  0  0  0
  -20.8283  -27.4165   20.0658 N   0  0  0  0  0  0  0  0  0  0  0  0
  -29.1250  -32.2887   22.3311 N   0  0  0  0  0  0  0  0  0  0  0  0
  -25.6296  -27.8062   15.2433 N   0  0  0  0  0  0  0  0  0  0  0  0
  -32.8401  -29.5977   20.8808 N   0  0  0  0  0  0  0  0  0  0  0  0
  -27.3656  -30.7860   14.1591 N   0  3  0  0  0  0  0  0  0  0  0  0
  -27.0512  -24.7732   20.4860 O   0  0  0  0  0  0  0  0  0  0  0  0
  -22.8852  -26.3861   19.7054 O   0  0  0  0  0  0  0  0  0  0  0  0
  -29.7519  -30.0455   22.3711 O   0  0  0  0  0  0  0  0  0  0  0  0
  -22.9240  -27.3344   16.0593 O   0  0  0  0  0  0  0  0  0  0  0  0
  -27.3942  -28.9149   16.2602 O   0  0  0  0  0  0  0  0  0  0  0  0
  -34.6399  -30.0402   19.5311 O   0  0  0  0  0  0  0  0  0  0  0  0
  -30.3411  -17.7365   19.9878 O   0  0  0  0  0  0  0  0  0  0  0  0
  -26.8075  -30.6869   22.8076 O   0  0  0  0  0  0  0  0  0  1  0  0
  -28.1514  -15.5023   24.5284 F   0  0  0  0  0  0  0  0  0  0  0  0
  -27.6885  -18.1618   20.6402 F   0  0  0  0  0  0  0  0  0  0  0  0
  1  2  1  0  0  0  0
  1  5  2  0  0  0  0
  2  6  2  0  0  0  0
  3  8  2  0  0  0  0
  3 15  1  0  0  0  0
  4  9  1  0  0  0  0
  4 15  2  0  0  0  0
  5 17  1  0  0  0  0
  6 19  1  0  0  0  0
  7 10  2  0  0  0  0
  7 18  1  0  0  0  0
  8 21  1  0  0  0  0
  9 21  2  0  0  0  0
 10 22  1  0  0  0  0
 11 12  2  0  0  0  0
 11 23  1  0  0  0  0
 12 24  1  0  0  0  0
 13 20  1  0  0  0  0
 13 22  2  0  0  0  0
 14 24  2  0  0  0  0
 14 25  1  0  0  0  0
 15 26  1  0  0  0  0
 16 26  1  0  0  0  0
 16 27  2  0  0  0  0
 16 28  1  0  0  0  0
 17 19  2  0  0  0  0
 17 34  1  0  0  0  0
 18 20  2  0  0  0  0
 18 35  1  0  0  0  0
 19 45  1  0  0  0  0
 20 36  1  0  0  0  0
 21 78  1  0  0  0  0
 22 79  1  0  0  0  0
 23 25  2  0  0  0  0
 23 78  1  0  0  0  0
 24 80  1  0  0  0  0
 25 81  1  0  0  0  0
 26 61  2  0  0  0  0
 27 62  1  0  0  0  0
 27 65  1  0  0  0  0
 28 66  1  0  0  0  0
 28 72  2  0  0  0  0
 29 46  1  0  0  0  0
 29 67  1  0  0  0  0
 29 73  2  0  0  0  0
 30 48  1  0  0  0  0
 30 68  1  0  0  0  0
 30 74  2  0  0  0  0
 31 58  1  0  0  0  0
 31 63  1  0  0  0  0
 31 75  2  0  0  0  0
 32 59  1  0  0  0  0
 32 69  1  0  0  0  0
 32 76  2  0  0  0  0
 33 64  1  0  0  0  0
 33 70  1  0  0  0  0
 33 77  2  0  0  0  0
 34 37  1  0  0  0  0
 35 46  1  0  0  0  0
 36 63  1  0  0  0  0
 37 39  1  0  0  0  0
 38 40  1  0  0  0  0
 38 43  1  0  0  0  0
 39 45  1  0  0  0  0
 40 47  1  0  0  0  0
 41 42  1  0  0  0  0
 41 48  1  0  0  0  0
 42 48  1  0  0  0  0
 43 64  1  0  0  0  0
 44 47  1  0  0  0  0
 44 64  1  0  0  0  0
 45 67  1  0  0  0  0
 46 63  1  0  0  0  0
 47 62  1  0  0  0  0
 48 54  1  0  0  0  0
 49 59  1  0  0  0  0
 50 60  1  0  0  0  0
 51 60  1  0  0  0  0
 52 60  1  0  0  0  0
 53 71  1  0  0  0  0
 54 55  1  0  0  0  0
 55 70  1  0  0  0  0
 56 57  1  0  0  0  0
 56 68  1  0  0  0  0
 57 79  1  0  0  0  0
 58 60  1  0  0  0  0
 58 69  1  0  0  0  0
 59 71  1  0  0  0  0
 61 62  1  0  0  0  0
M  CHG  1  71   1
M  ISO  4  33 100  57 101  70 100  79 101
M  END
> <Batch ID>
0115

> <Smiles>
CNC(C)C(=O)NC(C(=O)N1Cc2cc([101O:1][101CH2:1]CNC(=O)C3(CC[100NH:0][100C:0](=O)N4CCCC(n5nc(-c6ccc(Oc7ccc(F)cc7F)cc6)c(C(N)=O)c5N)C4)CC3)ccc2CC1C(=O)NC1CCCc2ccccc21)C(C)(C)C

> <Shape>
0.208

> <Color>
0.057

> <Negative vol penalty>
0.000

$$$$

  -OEChem-04052320103D

 87 95  0     1  0  0  0  0  0999 V2000
  -28.9479  -18.2861   14.8764 C   0  0  0  0  0  0  0  0  0  0  0  0
  -29.0224  -17.1032   15.6031 C   0  0  0  0  0  0  0  0  0  0  0  0
  -26.6672  -29.4248   20.7715 C   0  0  0  0  0  0  0  0  0  0  0  0
  -27.2215  -28.1087   22.7203 C   0  0  0  0  0  0  0  0  0  0  0  0
  -28.0190  -19.2614   15.2332 C   0  0  0  0  0  0  0  0  0  0  0  0
  -28.1601  -16.8901   16.6792 C   0  0  0  0  0  0  0  0  0  0  0  0
  -28.2472  -12.4351   18.7647 C   0  0  0  0  0  0  0  0  0  0  0  0
  -25.5964  -29.9941   21.4605 C   0  0  0  0  0  0  0  0  0  0  0  0
  -26.1506  -28.6782   23.4094 C   0  0  0  0  0  0  0  0  0  0  0  0
  -29.3082  -11.9929   19.5537 C   0  0  0  0  0  0  0  0  0  0  0  0
  -22.4987  -31.5280   22.5899 C   0  0  0  0  0  0  0  0  0  0  0  0
  -21.2776  -31.6304   21.9236 C   0  0  0  0  0  0  0  0  0  0  0  0
  -27.9883  -12.3803   21.5353 C   0  0  0  0  0  0  0  0  0  0  0  0
  -30.2167  -19.0352   20.0280 C   0  0  0  0  0  0  0  0  0  0  0  0
  -21.2219  -29.2297   21.6569 C   0  0  0  0  0  0  0  0  0  0  0  0
  -29.0928  -19.8499   21.8008 C   0  0  0  0  0  0  0  0  0  0  0  0
  -27.4797  -28.4820   21.4014 C   0  0  0  0  0  0  0  0  0  0  0  0
  -29.9099  -28.3676   20.6340 C   0  0  0  0  0  0  0  0  0  0  0  0
  -27.1538  -19.0646   16.3220 C   0  0  0  0  0  0  0  0  0  0  0  0
  -27.0507  -12.8643   19.3567 C   0  0  0  0  0  0  0  0  0  0  0  0
  -27.1996  -17.8523   17.0400 C   0  0  0  0  0  0  0  0  0  0  0  0
  -26.9127  -12.8251   20.7516 C   0  0  0  0  0  0  0  0  0  0  0  0
  -29.4921  -20.1500   20.5172 C   0  0  0  0  0  0  0  0  0  0  0  0
  -25.3381  -29.6209   22.7794 C   0  0  0  0  0  0  0  0  0  0  0  0
  -29.1799  -11.9681   20.9393 C   0  0  0  0  0  0  0  0  0  0  0  0
  -23.0815  -30.2765   22.7897 C   0  0  0  0  0  0  0  0  0  0  0  0
  -20.6392  -30.4813   21.4571 C   0  0  0  0  0  0  0  0  0  0  0  0
  -22.4431  -29.1274   22.3232 C   0  0  0  0  0  0  0  0  0  0  0  0
  -28.5857  -27.8931   20.6899 C   0  0  0  0  0  0  0  0  0  0  0  0
  -30.2380  -18.0877   21.0276 C   0  0  0  0  0  0  0  0  0  0  0  0
  -30.5658  -27.4617   19.8367 C   0  0  0  0  0  0  0  0  0  0  0  0
  -30.4947  -29.5238   21.2478 C   0  0  0  0  0  0  0  0  0  0  0  0
  -25.4427  -15.6052   19.4330 C   0  0  0  0  0  0  0  0  0  0  0  0
  -23.2238  -13.8102   20.9748 C   0  0  0  0  0  0  0  0  0  0  0  0
  -22.5291  -11.0481   22.8549 C   0  0  0  0  0  0  0  0  0  0  0  0
  -29.5956  -21.7097   18.5415 C   0  0  0  0  0  0  0  0  0  0  0  0
  -26.1624  -20.1501   16.6596 C   0  0  0  0  0  0  0  0  0  0  0  0
  -25.9060  -13.3133   18.4904 C   0  0  0  0  0  0  0  0  0  0  0  0
  -25.6417  -13.2561   21.4352 C   0  0  0  0  0  0  0  0  0  0  0  0
  -25.6024  -20.0253   18.0728 C   0  0  0  0  0  0  0  0  0  0  0  0
  -29.8027  -24.4078   16.2276 C   0  0  0  0  0  0  0  0  0  0  0  0
  -25.1246  -18.6020   18.3187 C   0  0  0  0  0  0  0  0  0  0  0  0
  -29.6407  -25.6512   17.1050 C   0  0  0  0  0  0  0  0  0  0  0  0
  -28.9274  -23.2535   16.7125 C   0  0  0  0  0  0  0  0  0  0  0  0
  -28.9261  -24.1489   19.0076 C   0  0  0  0  0  0  0  0  0  0  0  0
  -26.2927  -17.6114   18.2333 C   0  0  1  0  0  0  0  0  0  0  0  0
  -24.9172  -14.2129   19.2256 C   0  0  1  0  0  0  0  0  0  0  0  0
  -29.8368  -25.3175   18.5969 C   0  0  2  0  0  0  0  0  0  0  0  0
  -28.2453  -16.8665   23.2720 C   0  0  0  0  0  0  0  0  0  0  0  0
  -20.6307   -9.8679   23.9953 C   0  0  0  0  0  0  0  0  0  0  0  0
  -33.2357  -17.6158   20.6199 C   0  0  0  0  0  0  0  0  0  0  0  0
  -23.2760  -15.8889   23.2078 C   0  0  0  0  0  0  0  0  0  0  0  0
  -22.1321  -14.2253   24.6884 C   0  0  0  0  0  0  0  0  0  0  0  0
  -20.9964  -15.0428   22.6233 C   0  0  0  0  0  0  0  0  0  0  0  0
  -22.8934   -8.6198   21.2027 C   0  0  0  0  0  0  0  0  0  0  0  0
  -31.8040  -12.1408   23.4035 C   0  0  0  0  0  0  0  0  0  0  0  0
  -29.3345  -17.9215   23.3624 C   0  0  0  0  0  0  0  0  0  0  0  0
  -32.6612  -12.9847   22.4722 C   0  0  0  0  0  0  0  0  0  0  0  0
  -32.9747  -15.2952   21.5767 C   0  0  0  0  0  0  0  0  0  0  0  0
  -30.3307  -12.1045   23.0161 C   0  0  0  0  0  0  0  0  0  1  0  0
  -30.8714  -16.7100   21.0487 C   0  0  2  0  0  0  0  0  0  0  0  0
  -22.9512  -13.4530   22.4160 C   0  0  1  0  0  0  0  0  0  0  0  0
  -21.4550   -9.9836   22.7225 C   0  0  2  0  0  0  0  0  0  0  0  0
  -32.3616  -16.7080   21.5014 C   0  0  2  0  0  0  0  0  0  0  0  0
  -22.3637  -14.6461   23.2214 C   0  0  0  0  0  0  0  0  0  0  0  0
  -28.4091  -26.7728   19.9843 N   0  0  0  0  0  0  0  0  0  0  0  0
  -29.5516  -18.5937   22.1004 N   0  0  0  0  0  0  0  0  0  0  0  0
  -29.6309  -26.5359   19.4773 N   0  0  0  0  0  0  0  0  0  0  0  0
  -24.5533  -13.6928   20.5452 N   0  0  0  0  0  0  0  0  0  0  0  0
  -29.1703  -22.9914   18.1328 N   0  0  0  0  0  0  0  0  0  0  0  0
  -31.8452  -27.3747   19.4150 N   0  0  0  0  0  0  0  0  0  0  0  0
  -29.6784  -30.3472   22.0351 N   0  0  0  0  0  0  0  0  0  0  0  0
  -29.2138  -21.3613   19.8367 N   0  0  0  0  0  0  0  0  0  0  0  0
  -25.7711  -16.2627   18.2629 N   0  0  0  0  0  0  0  0  0  0  0  0
  -22.0959  -12.2714   22.3890 N   0  0  0  0  0  0  0  0  0  0  0  0
  -30.7598  -16.0563   19.7012 N   0  3  0  0  0  0  0  0  0  0  0  0
  -22.0725   -8.6569   22.4403 N   0  3  0  0  0  0  0  0  0  0  0  0
  -32.1609  -14.3785   22.4222 N   0  3  0  0  0  0  0  0  0  0  0  0
  -31.7015  -29.8270   21.0891 O   0  0  0  0  0  0  0  0  0  0  0  0
  -25.5414  -16.0505   20.5704 O   0  0  0  0  0  0  0  0  0  0  0  0
  -22.2902  -14.1730   20.2547 O   0  0  0  0  0  0  0  0  0  0  0  0
  -23.6399  -10.8183   23.3281 O   0  0  0  0  0  0  0  0  0  0  0  0
  -30.2734  -20.9861   17.8074 O   0  0  0  0  0  0  0  0  0  0  0  0
  -24.2934  -30.1764   23.4522 O   0  0  0  0  0  0  0  0  0  0  0  0
  -30.2142  -11.5375   21.7118 O   0  0  0  0  0  0  0  0  0  1  0  0
  -19.4659  -30.5796   20.8185 F   0  0  0  0  0  0  0  0  0  0  0  0
  -22.9974  -27.9222   22.5132 F   0  0  0  0  0  0  0  0  0  0  0  0
  1  2  1  0  0  0  0
  1  5  2  0  0  0  0
  2  6  2  0  0  0  0
  3  8  2  0  0  0  0
  3 17  1  0  0  0  0
  4  9  1  0  0  0  0
  4 17  2  0  0  0  0
  5 19  1  0  0  0  0
  6 21  1  0  0  0  0
  7 10  2  0  0  0  0
  7 20  1  0  0  0  0
  8 24  1  0  0  0  0
  9 24  2  0  0  0  0
 10 25  1  0  0  0  0
 11 12  2  0  0  0  0
 11 26  1  0  0  0  0
 12 27  1  0  0  0  0
 13 22  1  0  0  0  0
 13 25  2  0  0  0  0
 14 23  1  0  0  0  0
 14 30  2  0  0  0  0
 15 27  2  0  0  0  0
 15 28  1  0  0  0  0
 16 23  2  0  0  0  0
 16 67  1  0  0  0  0
 17 29  1  0  0  0  0
 18 29  1  0  0  0  0
 18 31  2  0  0  0  0
 18 32  1  0  0  0  0
 19 21  2  0  0  0  0
 19 37  1  0  0  0  0
 20 22  2  0  0  0  0
 20 38  1  0  0  0  0
 21 46  1  0  0  0  0
 22 39  1  0  0  0  0
 23 73  1  0  0  0  0
 24 84  1  0  0  0  0
 25 85  1  0  0  0  0
 26 28  2  0  0  0  0
 26 84  1  0  0  0  0
 27 86  1  0  0  0  0
 28 87  1  0  0  0  0
 29 66  2  0  0  0  0
 30 61  1  0  0  0  0
 30 67  1  0  0  0  0
 31 68  1  0  0  0  0
 31 71  1  0  0  0  0
 32 72  1  0  0  0  0
 32 79  2  0  0  0  0
 33 47  1  0  0  0  0
 33 74  1  0  0  0  0
 33 80  2  0  0  0  0
 34 62  1  0  0  0  0
 34 69  1  0  0  0  0
 34 81  2  0  0  0  0
 35 63  1  0  0  0  0
 35 75  1  0  0  0  0
 35 82  2  0  0  0  0
 36 70  1  0  0  0  0
 36 73  1  0  0  0  0
 36 83  2  0  0  0  0
 37 40  1  0  0  0  0
 38 47  1  0  0  0  0
 39 69  1  0  0  0  0
 40 42  1  0  0  0  0
 41 43  1  0  0  0  0
 41 44  1  0  0  0  0
 42 46  1  0  0  0  0
 43 48  1  0  0  0  0
 44 70  1  0  0  0  0
 45 48  1  0  0  0  0
 45 70  1  0  0  0  0
 46 74  1  0  0  0  0
 47 69  1  0  0  0  0
 48 68  1  0  0  0  0
 49 57  1  0  0  0  0
 50 63  1  0  0  0  0
 51 64  1  0  0  0  0
 52 65  1  0  0  0  0
 53 65  1  0  0  0  0
 54 65  1  0  0  0  0
 55 77  1  0  0  0  0
 56 58  1  0  0  0  0
 56 60  1  0  0  0  0
 57 67  1  0  0  0  0
 58 78  1  0  0  0  0
 59 64  1  0  0  0  0
 59 78  1  0  0  0  0
 60 85  1  0  0  0  0
 61 64  1  0  0  0  0
 61 76  1  0  0  0  0
 62 65  1  0  0  0  0
 62 75  1  0  0  0  0
 63 77  1  0  0  0  0
 66 68  1  0  0  0  0
M  CHG  3  76   1  77   1  78   1
M  ISO  4  36 100  60 101  73 100  85 101
M  END
> <Batch ID>
0115

> <Smiles>
CCn1cc([100NH:0][100C:0](=O)N2CCCC(n3nc(-c4ccc(Oc5ccc(F)cc5F)cc4)c(C(N)=O)c3N)C2)cc1C(N)C(C)CNCC[101CH2:1][101O:1]c1ccc2c(c1)CN(C(=O)C(NC(=O)C(C)NC)C(C)(C)C)C(C(=O)NC1CCCc3ccccc31)C2

> <Shape>
0.269

> <Color>
0.062

> <Negative vol penalty>
0.000

$$$$

  -OEChem-04052320103D

 88 96  0     1  0  0  0  0  0999 V2000
  -27.9619  -33.6055   26.1722 C   0  0  0  0  0  0  0  0  0  0  0  0
  -28.1256  -32.3956   25.5054 C   0  0  0  0  0  0  0  0  0  0  0  0
  -21.8182  -14.6350   21.3930 C   0  0  0  0  0  0  0  0  0  0  0  0
  -22.0605  -14.7587   18.9924 C   0  0  0  0  0  0  0  0  0  0  0  0
  -26.6832  -34.0465   26.5103 C   0  0  0  0  0  0  0  0  0  0  0  0
  -27.0105  -31.6254   25.1771 C   0  0  0  0  0  0  0  0  0  0  0  0
  -27.2114  -29.8347   20.4444 C   0  0  0  0  0  0  0  0  0  0  0  0
  -20.5007  -15.0796   21.2830 C   0  0  0  0  0  0  0  0  0  0  0  0
  -20.7429  -15.2033   18.8823 C   0  0  0  0  0  0  0  0  0  0  0  0
  -28.0321  -28.7312   20.2155 C   0  0  0  0  0  0  0  0  0  0  0  0
  -18.8940  -18.0174   20.8229 C   0  0  0  0  0  0  0  0  0  0  0  0
  -18.4684  -19.0066   21.7094 C   0  0  0  0  0  0  0  0  0  0  0  0
  -26.1006  -27.2878   20.2854 C   0  0  0  0  0  0  0  0  0  0  0  0
  -31.6088  -22.5246   17.9201 C   0  0  0  0  0  0  0  0  0  0  0  0
  -32.2786  -20.7829   19.4545 C   0  0  0  0  0  0  0  0  0  0  0  0
  -16.7614  -17.5181   22.5507 C   0  0  0  0  0  0  0  0  0  0  0  0
  -22.5982  -14.4746   20.2477 C   0  0  0  0  0  0  0  0  0  0  0  0
  -24.4121  -12.6832   20.3375 C   0  0  0  0  0  0  0  0  0  0  0  0
  -25.5512  -33.2859   26.1774 C   0  0  0  0  0  0  0  0  0  0  0  0
  -25.8281  -29.6715   20.6067 C   0  0  0  0  0  0  0  0  0  0  0  0
  -25.7155  -32.0559   25.5121 C   0  0  0  0  0  0  0  0  0  0  0  0
  -25.2642  -28.3911   20.5137 C   0  0  0  0  0  0  0  0  0  0  0  0
  -32.5742  -21.9464   18.7442 C   0  0  0  0  0  0  0  0  0  0  0  0
  -30.3477  -21.9395   17.8064 C   0  0  0  0  0  0  0  0  0  0  0  0
  -31.0175  -20.1977   19.3408 C   0  0  0  0  0  0  0  0  0  0  0  0
  -30.0520  -20.7760   18.5167 C   0  0  0  0  0  0  0  0  0  0  0  0
  -19.9631  -15.3637   20.0277 C   0  0  0  0  0  0  0  0  0  0  0  0
  -27.4771  -27.4571   20.1388 C   0  0  0  0  0  0  0  0  0  0  0  0
  -18.2532  -16.7786   20.8002 C   0  0  0  0  0  0  0  0  0  0  0  0
  -17.4021  -18.7570   22.5734 C   0  0  0  0  0  0  0  0  0  0  0  0
  -17.1870  -16.5290   21.6641 C   0  0  0  0  0  0  0  0  0  0  0  0
  -23.9594  -14.0160   20.3607 C   0  0  0  0  0  0  0  0  0  0  0  0
  -25.7747  -12.7808   20.4792 C   0  0  0  0  0  0  0  0  0  0  0  0
  -23.6674  -11.4657   20.2001 C   0  0  0  0  0  0  0  0  0  0  0  0
  -23.7629  -30.2382   22.9556 C   0  0  0  0  0  0  0  0  0  0  0  0
  -21.5776  -29.3899   20.7134 C   0  0  0  0  0  0  0  0  0  0  0  0
  -20.8912  -27.6938   17.8326 C   0  0  0  0  0  0  0  0  0  0  0  0
  -29.6466  -16.8811   19.1362 C   0  0  0  0  0  0  0  0  0  0  0  0
  -24.1924  -33.7809   26.6055 C   0  0  0  0  0  0  0  0  0  0  0  0
  -24.9532  -30.8751   20.8264 C   0  0  0  0  0  0  0  0  0  0  0  0
  -23.7824  -28.1646   20.6607 C   0  0  0  0  0  0  0  0  0  0  0  0
  -23.0374  -33.0855   25.8895 C   0  0  0  0  0  0  0  0  0  0  0  0
  -29.1617  -15.5629   22.3765 C   0  0  0  0  0  0  0  0  0  0  0  0
  -23.2494  -31.5750   25.8764 C   0  0  0  0  0  0  0  0  0  0  0  0
  -27.7995  -14.8870   22.2274 C   0  0  0  0  0  0  0  0  0  0  0  0
  -29.2228  -16.9016   21.6385 C   0  0  0  0  0  0  0  0  0  0  0  0
  -27.4730  -16.1404   20.0632 C   0  0  0  0  0  0  0  0  0  0  0  0
  -24.5288  -31.2040   25.1169 C   0  0  1  0  0  0  0  0  0  0  0  0
  -23.6222  -30.5333   21.4890 C   0  0  1  0  0  0  0  0  0  0  0  0
  -27.4048  -14.7654   20.7454 C   0  0  2  0  0  0  0  0  0  0  0  0
  -33.9223  -22.5723   18.8664 C   0  0  0  0  0  0  0  0  0  0  0  0
  -28.7000  -20.1486   18.3941 C   0  0  0  0  0  0  0  0  0  0  0  0
  -19.0069  -27.1546   16.2654 C   0  0  0  0  0  0  0  0  0  0  0  0
  -34.3082  -17.2852   17.9686 C   0  0  0  0  0  0  0  0  0  0  0  0
  -33.0698  -16.0587   19.7681 C   0  0  0  0  0  0  0  0  0  0  0  0
  -20.4970  -27.3572   22.7160 C   0  0  0  0  0  0  0  0  0  0  0  0
  -19.3006  -26.2344   20.8249 C   0  0  0  0  0  0  0  0  0  0  0  0
  -18.7414  -28.5891   21.4295 C   0  0  0  0  0  0  0  0  0  0  0  0
  -22.2431  -29.0279   15.5630 C   0  0  0  0  0  0  0  0  0  0  0  0
  -29.3224  -22.5841   16.9079 C   0  0  0  0  0  0  0  0  0  0  0  0
  -30.7260  -18.9518   20.1119 C   0  0  0  0  0  0  0  0  0  0  0  0
  -28.2399  -23.3633   17.6629 C   0  0  0  0  0  0  0  0  0  0  0  0
  -28.7959  -24.5510   18.4497 C   0  0  0  0  0  0  0  0  0  0  0  0
  -31.8279  -17.6785   18.3090 C   0  0  0  0  0  0  0  0  0  0  0  0
  -27.6988  -25.2759   19.2175 C   0  0  0  0  0  0  0  0  0  1  0  0
  -20.9382  -28.0926   20.2807 C   0  0  1  0  0  0  0  0  0  0  0  0
  -20.1524  -28.1066   16.5723 C   0  0  2  0  0  0  0  0  0  0  0  0
  -33.1678  -17.3689   18.9858 C   0  0  0  0  0  0  0  0  0  0  0  0
  -19.8975  -27.5720   21.3119 C   0  0  0  0  0  0  0  0  0  0  0  0
  -24.9538  -14.8958   20.5059 N   0  0  0  0  0  0  0  0  0  0  0  0
  -26.0449  -14.1142   20.5753 N   0  0  0  0  0  0  0  0  0  0  0  0
  -22.9696  -29.3723   20.8805 N   0  0  0  0  0  0  0  0  0  0  0  0
  -28.7933  -16.7496   20.2417 N   0  0  0  0  0  0  0  0  0  0  0  0
  -26.7562  -11.8554   20.5299 N   0  0  0  0  0  0  0  0  0  0  0  0
  -22.2747  -11.5460   20.0644 N   0  0  0  0  0  0  0  0  0  0  0  0
  -24.3073  -31.2754   23.6885 N   0  0  0  0  0  0  0  0  0  0  0  0
  -20.3921  -28.3309   18.9490 N   0  0  0  0  0  0  0  0  0  0  0  0
  -30.7314  -17.7617   19.2634 N   0  0  0  0  0  0  0  0  0  0  0  0
  -21.0812  -28.1154   15.4069 N   0  3  0  0  0  0  0  0  0  0  0  0
  -24.2189  -10.3391   20.2141 O   0  0  0  0  0  0  0  0  0  0  0  0
  -23.4027  -29.1505   23.3902 O   0  0  0  0  0  0  0  0  0  0  0  0
  -20.8690  -30.3842   20.8895 O   0  0  0  0  0  0  0  0  0  0  0  0
  -21.8158  -26.8841   17.8278 O   0  0  0  0  0  0  0  0  0  0  0  0
  -29.4468  -16.2525   18.0888 O   0  0  0  0  0  0  0  0  0  0  0  0
  -18.6774  -15.7973   19.9199 O   0  0  0  0  0  0  0  0  0  0  0  0
  -28.2760  -26.3782   19.9161 O   0  0  0  0  0  0  0  0  0  1  0  0
  -16.9946  -19.7064   23.4258 F   0  0  0  0  0  0  0  0  0  0  0  0
  -16.5682  -15.3404   21.6477 F   0  0  0  0  0  0  0  0  0  0  0  0
  1  2  1  0  0  0  0
  1  5  2  0  0  0  0
  2  6  2  0  0  0  0
  3  8  2  0  0  0  0
  3 17  1  0  0  0  0
  4  9  1  0  0  0  0
  4 17  2  0  0  0  0
  5 19  1  0  0  0  0
  6 21  1  0  0  0  0
  7 10  2  0  0  0  0
  7 20  1  0  0  0  0
  8 27  1  0  0  0  0
  9 27  2  0  0  0  0
 10 28  1  0  0  0  0
 11 12  2  0  0  0  0
 11 29  1  0  0  0  0
 12 30  1  0  0  0  0
 13 22  1  0  0  0  0
 13 28  2  0  0  0  0
 14 23  2  0  0  0  0
 14 24  1  0  0  0  0
 15 23  1  0  0  0  0
 15 25  2  0  0  0  0
 16 30  2  0  0  0  0
 16 31  1  0  0  0  0
 17 32  1  0  0  0  0
 18 32  1  0  0  0  0
 18 33  2  0  0  0  0
 18 34  1  0  0  0  0
 19 21  2  0  0  0  0
 19 39  1  0  0  0  0
 20 22  2  0  0  0  0
 20 40  1  0  0  0  0
 21 48  1  0  0  0  0
 22 41  1  0  0  0  0
 23 51  1  0  0  0  0
 24 26  2  0  0  0  0
 24 60  1  0  0  0  0
 25 26  1  0  0  0  0
 25 61  1  0  0  0  0
 26 52  1  0  0  0  0
 27 85  1  0  0  0  0
 28 86  1  0  0  0  0
 29 31  2  0  0  0  0
 29 85  1  0  0  0  0
 30 87  1  0  0  0  0
 31 88  1  0  0  0  0
 32 70  2  0  0  0  0
 33 71  1  0  0  0  0
 33 74  1  0  0  0  0
 34 75  1  0  0  0  0
 34 80  2  0  0  0  0
 35 49  1  0  0  0  0
 35 76  1  0  0  0  0
 35 81  2  0  0  0  0
 36 66  1  0  0  0  0
 36 72  1  0  0  0  0
 36 82  2  0  0  0  0
 37 67  1  0  0  0  0
 37 77  1  0  0  0  0
 37 83  2  0  0  0  0
 38 73  1  0  0  0  0
 38 78  1  0  0  0  0
 38 84  2  0  0  0  0
 39 42  1  0  0  0  0
 40 49  1  0  0  0  0
 41 72  1  0  0  0  0
 42 44  1  0  0  0  0
 43 45  1  0  0  0  0
 43 46  1  0  0  0  0
 44 48  1  0  0  0  0
 45 50  1  0  0  0  0
 46 73  1  0  0  0  0
 47 50  1  0  0  0  0
 47 73  1  0  0  0  0
 48 76  1  0  0  0  0
 49 72  1  0  0  0  0
 50 71  1  0  0  0  0
 53 67  1  0  0  0  0
 54 68  1  0  0  0  0
 55 68  1  0  0  0  0
 56 69  1  0  0  0  0
 57 69  1  0  0  0  0
 58 69  1  0  0  0  0
 59 79  1  0  0  0  0
 60 62  1  0  0  0  0
 61 78  1  0  0  0  0
 62 63  1  0  0  0  0
 63 65  1  0  0  0  0
 64 68  1  0  0  0  0
 64 78  1  0  0  0  0
 65 86  1  0  0  0  0
 66 69  1  0  0  0  0
 66 77  1  0  0  0  0
 67 79  1  0  0  0  0
 70 71  1  0  0  0  0
M  CHG  1  79   1
M  ISO  4  38 100  65 101  78 100  86 101
M  END
> <Batch ID>
0115

> <Smiles>
CNC(C)C(=O)NC(C(=O)N1Cc2cc([101O:1][101CH2:1]CCCc3cc(C)cc(C[100N:0](CC(C)C)[100C:0](=O)N4CCCC(n5nc(-c6ccc(Oc7ccc(F)cc7F)cc6)c(C(N)=O)c5N)C4)c3C)ccc2CC1C(=O)NC1CCCc2ccccc21)C(C)(C)C

> <Shape>
0.259

> <Color>
0.090

> <Negative vol penalty>
0.000

$$$$

  -OEChem-04052320103D

 88 97  0     1  0  0  0  0  0999 V2000
  -29.9932  -35.7906   18.9596 C   0  0  0  0  0  0  0  0  0  0  0  0
  -30.0276  -34.4400   19.2915 C   0  0  0  0  0  0  0  0  0  0  0  0
  -24.5603   -9.6601   21.2189 C   0  0  0  0  0  0  0  0  0  0  0  0
  -25.0321  -10.6415   23.3756 C   0  0  0  0  0  0  0  0  0  0  0  0
  -29.0539  -36.6303   19.5568 C   0  0  0  0  0  0  0  0  0  0  0  0
  -29.1234  -33.9285   20.2216 C   0  0  0  0  0  0  0  0  0  0  0  0
  -27.0735  -29.5445   18.7305 C   0  0  0  0  0  0  0  0  0  0  0  0
  -24.3415   -8.4249   21.8288 C   0  0  0  0  0  0  0  0  0  0  0  0
  -24.8132   -9.4063   23.9855 C   0  0  0  0  0  0  0  0  0  0  0  0
  -27.8536  -28.3973   18.8687 C   0  0  0  0  0  0  0  0  0  0  0  0
  -21.8675   -6.9065   23.5629 C   0  0  0  0  0  0  0  0  0  0  0  0
  -20.7487   -6.1755   23.1636 C   0  0  0  0  0  0  0  0  0  0  0  0
  -26.6643  -27.8396   20.8920 C   0  0  0  0  0  0  0  0  0  0  0  0
  -26.7900  -19.9610   19.8008 C   0  0  0  0  0  0  0  0  0  0  0  0
  -22.1836   -4.3640   22.4589 C   0  0  0  0  0  0  0  0  0  0  0  0
  -29.0181  -21.5344   19.7251 C   0  0  0  0  0  0  0  0  0  0  0  0
  -24.9056  -10.7684   21.9922 C   0  0  0  0  0  0  0  0  0  0  0  0
  -24.1798  -13.0506   21.1135 C   0  0  0  0  0  0  0  0  0  0  0  0
  -28.1315  -36.1269   20.4876 C   0  0  0  0  0  0  0  0  0  0  0  0
  -26.0887  -29.8541   19.6795 C   0  0  0  0  0  0  0  0  0  0  0  0
  -28.1718  -34.7625   20.8329 C   0  0  0  0  0  0  0  0  0  0  0  0
  -25.8713  -28.9900   20.7622 C   0  0  0  0  0  0  0  0  0  0  0  0
  -26.6488  -21.3373   19.6623 C   0  0  0  0  0  0  0  0  0  0  0  0
  -27.7791  -22.1461   19.6229 C   0  0  0  0  0  0  0  0  0  0  0  0
  -24.4679   -8.2980   23.2121 C   0  0  0  0  0  0  0  0  0  0  0  0
  -27.6510  -27.5461   19.9511 C   0  0  0  0  0  0  0  0  0  0  0  0
  -23.1445   -6.3663   23.4101 C   0  0  0  0  0  0  0  0  0  0  0  0
  -20.9067   -4.9043   22.6117 C   0  0  0  0  0  0  0  0  0  0  0  0
  -23.3025   -5.0950   22.8581 C   0  0  0  0  0  0  0  0  0  0  0  0
  -25.1323  -12.0445   21.3627 C   0  0  0  0  0  0  0  0  0  0  0  0
  -28.0734  -19.4471   19.8948 C   0  0  0  0  0  0  0  0  0  0  0  0
  -24.8917  -14.0536   20.5022 C   0  0  0  0  0  0  0  0  0  0  0  0
  -22.7768  -13.0763   21.4082 C   0  0  0  0  0  0  0  0  0  0  0  0
  -25.5996  -32.2565   21.7027 C   0  0  0  0  0  0  0  0  0  0  0  0
  -22.7968  -30.7159   22.2444 C   0  0  0  0  0  0  0  0  0  0  0  0
  -21.0353  -27.7939   22.1694 C   0  0  0  0  0  0  0  0  0  0  0  0
  -29.3908  -17.3150   20.1490 C   0  0  0  0  0  0  0  0  0  0  0  0
  -27.1656  -37.0826   21.1421 C   0  0  0  0  0  0  0  0  0  0  0  0
  -25.2375  -31.0815   19.5017 C   0  0  0  0  0  0  0  0  0  0  0  0
  -24.8131  -29.2667   21.7976 C   0  0  0  0  0  0  0  0  0  0  0  0
  -25.9985  -36.3874   21.8384 C   0  0  0  0  0  0  0  0  0  0  0  0
  -29.6024  -14.0921   18.6505 C   0  0  0  0  0  0  0  0  0  0  0  0
  -23.2366  -22.2934   22.6060 C   0  0  0  0  0  0  0  0  0  0  0  0
  -26.4999  -35.2234   22.6871 C   0  0  0  0  0  0  0  0  0  0  0  0
  -28.3800  -13.3549   19.2020 C   0  0  0  0  0  0  0  0  0  0  0  0
  -23.2331  -23.7383   22.1406 C   0  0  0  0  0  0  0  0  0  0  0  0
  -30.2243  -15.0187   19.6938 C   0  0  0  0  0  0  0  0  0  0  0  0
  -28.0693  -15.2290   20.8687 C   0  0  0  0  0  0  0  0  0  0  0  0
  -24.4379  -21.6560   21.9266 C   0  0  0  0  0  0  0  0  0  0  0  0
  -27.1914  -34.1653   21.8189 C   0  0  1  0  0  0  0  0  0  0  0  0
  -24.6109  -31.5680   20.8048 C   0  0  1  0  0  0  0  0  0  0  0  0
  -27.3699  -14.3326   19.8339 C   0  0  2  0  0  0  0  0  0  0  0  0
  -23.7297  -23.6651   20.6933 C   0  0  0  0  0  0  0  0  0  0  0  0
  -24.3398  -24.9916   20.2402 C   0  0  0  0  0  0  0  0  0  0  0  0
  -22.6251  -23.2129   19.7300 C   0  0  0  0  0  0  0  0  0  0  0  0
  -18.7777  -26.8403   22.7088 C   0  0  0  0  0  0  0  0  0  0  0  0
  -23.4898  -30.7624   25.2155 C   0  0  0  0  0  0  0  0  0  0  0  0
  -21.7366  -29.0128   25.5806 C   0  0  0  0  0  0  0  0  0  0  0  0
  -21.0936  -31.2546   24.6954 C   0  0  0  0  0  0  0  0  0  0  0  0
  -20.5694  -27.0014   19.3562 C   0  0  0  0  0  0  0  0  0  0  0  0
  -27.6836  -23.6436   19.4744 C   0  0  0  0  0  0  0  0  0  0  0  0
  -25.2797  -21.9230   19.5575 C   0  0  0  0  0  0  0  0  0  0  0  0
  -29.0138  -24.3137   19.1234 C   0  0  0  0  0  0  0  0  0  0  0  0
  -28.8907  -25.8152   18.8914 C   0  0  0  0  0  0  0  0  0  1  0  0
  -22.3351  -29.6400   23.1974 C   0  0  1  0  0  0  0  0  0  0  0  0
  -19.6538  -27.4640   21.6336 C   0  0  2  0  0  0  0  0  0  0  0  0
  -22.1851  -30.1630   24.6539 C   0  0  0  0  0  0  0  0  0  0  0  0
  -29.1950  -20.2010   19.8605 N   0  0  0  0  0  0  0  0  0  0  0  0
  -26.3560  -12.3778   20.9439 N   0  0  0  0  0  0  0  0  0  0  0  0
  -26.1772  -13.6046   20.4252 N   0  0  0  0  0  0  0  0  0  0  0  0
  -24.0110  -30.4825   21.5832 N   0  0  0  0  0  0  0  0  0  0  0  0
  -29.2095  -15.9190   20.2454 N   0  0  0  0  0  0  0  0  0  0  0  0
  -24.5372  -15.2670   20.0285 N   0  0  0  0  0  0  0  0  0  0  0  0
  -22.2062  -11.9625   22.0391 N   0  0  0  0  0  0  0  0  0  0  0  0
  -28.2071  -18.0437   20.0373 N   0  0  0  0  0  0  0  0  0  0  0  0
  -26.2090  -33.3564   21.1297 N   0  0  0  0  0  0  0  0  0  0  0  0
  -21.1080  -29.0914   22.6302 N   0  0  0  0  0  0  0  0  0  0  0  0
  -24.8307  -22.6098   20.8106 N   0  3  2  0  0  0  0  0  0  0  0  0
  -19.7544  -26.5069   20.4957 N   0  3  0  0  0  0  0  0  0  0  0  0
  -22.0476  -14.0511   21.1058 O   0  0  0  0  0  0  0  0  0  0  0  0
  -25.7939  -31.8229   22.8322 O   0  0  0  0  0  0  0  0  0  0  0  0
  -22.1021  -31.7230   22.0869 O   0  0  0  0  0  0  0  0  0  0  0  0
  -21.9567  -26.9806   22.1816 O   0  0  0  0  0  0  0  0  0  0  0  0
  -30.5144  -17.8242   20.1371 O   0  0  0  0  0  0  0  0  0  0  0  0
  -24.2543   -7.0929   23.8076 O   0  0  0  0  0  0  0  0  0  0  0  0
  -28.4115  -26.4260   20.0887 O   0  0  0  0  0  0  0  0  0  1  0  0
  -19.8320   -4.2018   22.2298 F   0  0  0  0  0  0  0  0  0  0  0  0
  -24.5266   -4.5703   22.7099 F   0  0  0  0  0  0  0  0  0  0  0  0
  1  2  1  0  0  0  0
  1  5  2  0  0  0  0
  2  6  2  0  0  0  0
  3  8  2  0  0  0  0
  3 17  1  0  0  0  0
  4  9  1  0  0  0  0
  4 17  2  0  0  0  0
  5 19  1  0  0  0  0
  6 21  1  0  0  0  0
  7 10  2  0  0  0  0
  7 20  1  0  0  0  0
  8 25  1  0  0  0  0
  9 25  2  0  0  0  0
 10 26  1  0  0  0  0
 11 12  2  0  0  0  0
 11 27  1  0  0  0  0
 12 28  1  0  0  0  0
 13 22  1  0  0  0  0
 13 26  2  0  0  0  0
 14 23  1  0  0  0  0
 14 31  2  0  0  0  0
 15 28  2  0  0  0  0
 15 29  1  0  0  0  0
 16 24  1  0  0  0  0
 16 68  2  0  0  0  0
 17 30  1  0  0  0  0
 18 30  1  0  0  0  0
 18 32  2  0  0  0  0
 18 33  1  0  0  0  0
 19 21  2  0  0  0  0
 19 38  1  0  0  0  0
 20 22  2  0  0  0  0
 20 39  1  0  0  0  0
 21 50  1  0  0  0  0
 22 40  1  0  0  0  0
 23 24  2  0  0  0  0
 23 62  1  0  0  0  0
 24 61  1  0  0  0  0
 25 85  1  0  0  0  0
 26 86  1  0  0  0  0
 27 29  2  0  0  0  0
 27 85  1  0  0  0  0
 28 87  1  0  0  0  0
 29 88  1  0  0  0  0
 30 69  2  0  0  0  0
 31 68  1  0  0  0  0
 31 75  1  0  0  0  0
 32 70  1  0  0  0  0
 32 73  1  0  0  0  0
 33 74  1  0  0  0  0
 33 80  2  0  0  0  0
 34 51  1  0  0  0  0
 34 76  1  0  0  0  0
 34 81  2  0  0  0  0
 35 65  1  0  0  0  0
 35 71  1  0  0  0  0
 35 82  2  0  0  0  0
 36 66  1  0  0  0  0
 36 77  1  0  0  0  0
 36 83  2  0  0  0  0
 37 72  1  0  0  0  0
 37 75  1  0  0  0  0
 37 84  2  0  0  0  0
 38 41  1  0  0  0  0
 39 51  1  0  0  0  0
 40 71  1  0  0  0  0
 41 44  1  0  0  0  0
 42 45  1  0  0  0  0
 42 47  1  0  0  0  0
 43 46  1  0  0  0  0
 43 49  1  0  0  0  0
 44 50  1  0  0  0  0
 45 52  1  0  0  0  0
 46 53  1  0  0  0  0
 47 72  1  0  0  0  0
 48 52  1  0  0  0  0
 48 72  1  0  0  0  0
 49 78  1  0  0  0  0
 50 76  1  0  0  0  0
 51 71  1  0  0  0  0
 52 70  1  0  0  0  0
 53 54  1  0  0  0  0
 53 55  1  0  0  0  0
 53 78  1  0  0  0  0
 56 66  1  0  0  0  0
 57 67  1  0  0  0  0
 58 67  1  0  0  0  0
 59 67  1  0  0  0  0
 60 79  1  0  0  0  0
 61 63  1  0  0  0  0
 62 78  1  0  0  0  0
 63 64  1  0  0  0  0
 64 86  1  0  0  0  0
 65 67  1  0  0  0  0
 65 77  1  0  0  0  0
 66 79  1  0  0  0  0
 69 70  1  0  0  0  0
M  CHG  2  78   1  79   1
M  ISO  4  37 100  64 101  75 100  86 101
M  END
> <Batch ID>
0115

> <Smiles>
CNC(C)C(=O)NC(C(=O)N1Cc2cc([101O:1][101CH2:1]CCc3cnc([100NH:0][100C:0](=O)N4CCCC(n5nc(-c6ccc(Oc7ccc(F)cc7F)cc6)c(C(N)=O)c5N)C4)cc3CN3CCCC3(C)C)ccc2CC1C(=O)NC1CCCc2ccccc21)C(C)(C)C

> <Shape>
0.312

> <Color>
0.165

> <Negative vol penalty>
0.000

$$$$

  -OEChem-04052320103D

 83 91  0     1  0  0  0  0  0999 V2000
  -18.0002  -25.5788   32.9937 C   0  0  0  0  0  0  0  0  0  0  0  0
  -19.0080  -25.0079   32.2230 C   0  0  0  0  0  0  0  0  0  0  0  0
  -22.9933   -9.9071   19.9856 C   0  0  0  0  0  0  0  0  0  0  0  0
  -23.7645   -9.9330   22.2750 C   0  0  0  0  0  0  0  0  0  0  0  0
  -16.8264  -26.0226   32.3863 C   0  0  0  0  0  0  0  0  0  0  0  0
  -18.8420  -24.8796   30.8445 C   0  0  0  0  0  0  0  0  0  0  0  0
  -23.1868  -25.3471   26.5539 C   0  0  0  0  0  0  0  0  0  0  0  0
  -27.2269  -21.8968   22.9598 C   0  0  0  0  0  0  0  0  0  0  0  0
  -27.8447  -20.9793   22.1101 C   0  0  0  0  0  0  0  0  0  0  0  0
  -22.2337   -8.7685   20.2543 C   0  0  0  0  0  0  0  0  0  0  0  0
  -23.0048   -8.7944   22.5438 C   0  0  0  0  0  0  0  0  0  0  0  0
  -23.9257  -24.3905   25.8590 C   0  0  0  0  0  0  0  0  0  0  0  0
  -23.2438   -5.4614   22.0291 C   0  0  0  0  0  0  0  0  0  0  0  0
  -23.8476   -4.4366   22.7576 C   0  0  0  0  0  0  0  0  0  0  0  0
  -22.3597  -24.5192   24.0287 C   0  0  0  0  0  0  0  0  0  0  0  0
  -25.5177  -20.2689   23.4751 C   0  0  0  0  0  0  0  0  0  0  0  0
  -22.1574   -4.6579   24.4697 C   0  0  0  0  0  0  0  0  0  0  0  0
  -23.7587  -10.4893   20.9959 C   0  0  0  0  0  0  0  0  0  0  0  0
  -24.1373  -13.0073   20.8409 C   0  0  0  0  0  0  0  0  0  0  0  0
  -16.6499  -25.9085   30.9983 C   0  0  0  0  0  0  0  0  0  0  0  0
  -22.0209  -25.8898   25.9950 C   0  0  0  0  0  0  0  0  0  0  0  0
  -17.6641  -25.3211   30.2181 C   0  0  0  0  0  0  0  0  0  0  0  0
  -21.6092  -25.4844   24.7174 C   0  0  0  0  0  0  0  0  0  0  0  0
  -26.0634  -21.5417   23.6424 C   0  0  0  0  0  0  0  0  0  0  0  0
  -27.2989  -19.7065   21.9428 C   0  0  0  0  0  0  0  0  0  0  0  0
  -26.1354  -19.3514   22.6253 C   0  0  0  0  0  0  0  0  0  0  0  0
  -22.2394   -8.2122   21.5334 C   0  0  0  0  0  0  0  0  0  0  0  0
  -23.5106  -23.9743   24.5975 C   0  0  0  0  0  0  0  0  0  0  0  0
  -22.0968   -6.0846   22.5209 C   0  0  0  0  0  0  0  0  0  0  0  0
  -23.3044   -4.0348   23.9779 C   0  0  0  0  0  0  0  0  0  0  0  0
  -21.5536   -5.6828   23.7412 C   0  0  0  0  0  0  0  0  0  0  0  0
  -24.5440  -11.6651   20.7188 C   0  0  0  0  0  0  0  0  0  0  0  0
  -25.2386  -13.7356   20.4625 C   0  0  0  0  0  0  0  0  0  0  0  0
  -22.8766  -13.5474   21.2589 C   0  0  0  0  0  0  0  0  0  0  0  0
  -18.9471  -25.9155   26.8044 C   0  0  0  0  0  0  0  0  0  0  0  0
  -30.7580  -14.6101   20.7092 C   0  0  0  0  0  0  0  0  0  0  0  0
  -18.6979  -27.9241   24.2694 C   0  0  0  0  0  0  0  0  0  0  0  0
  -19.9777  -29.0131   21.2991 C   0  0  0  0  0  0  0  0  0  0  0  0
  -15.3441  -26.3594   30.3931 C   0  0  0  0  0  0  0  0  0  0  0  0
  -21.2498  -26.9404   26.7461 C   0  0  0  0  0  0  0  0  0  0  0  0
  -20.3759  -26.0512   24.0646 C   0  0  0  0  0  0  0  0  0  0  0  0
  -15.4018  -26.5287   28.8771 C   0  0  0  0  0  0  0  0  0  0  0  0
  -29.5471  -12.2984   18.2536 C   0  0  0  0  0  0  0  0  0  0  0  0
  -16.0836  -25.3268   28.2312 C   0  0  0  0  0  0  0  0  0  0  0  0
  -28.1144  -12.0147   18.7033 C   0  0  0  0  0  0  0  0  0  0  0  0
  -30.4764  -12.5032   19.4459 C   0  0  0  0  0  0  0  0  0  0  0  0
  -28.5910  -13.2844   20.8447 C   0  0  0  0  0  0  0  0  0  0  0  0
  -17.5315  -25.1872   28.7166 C   0  0  1  0  0  0  0  0  0  0  0  0
  -19.7952  -27.0481   26.2987 C   0  0  1  0  0  0  0  0  0  0  0  0
  -27.6132  -13.1018   19.6705 C   0  0  2  0  0  0  0  0  0  0  0  0
  -25.5328  -17.9946   22.4616 C   0  0  0  0  0  0  0  0  0  0  0  0
  -31.2276  -16.2139   22.5451 C   0  0  0  0  0  0  0  0  0  0  0  0
  -19.5328  -30.6392   19.4403 C   0  0  0  0  0  0  0  0  0  0  0  0
  -16.5159  -26.0862   23.1873 C   0  0  0  0  0  0  0  0  0  0  0  0
  -16.7863  -27.1931   20.9579 C   0  0  0  0  0  0  0  0  0  0  0  0
  -16.0449  -28.5288   22.9299 C   0  0  0  0  0  0  0  0  0  0  0  0
  -22.5167  -30.4511   21.7933 C   0  0  0  0  0  0  0  0  0  0  0  0
  -27.9774  -18.7415   21.0269 C   0  0  0  0  0  0  0  0  0  0  0  0
  -25.3988  -22.5290   24.5560 C   0  0  0  0  0  0  0  0  0  1  0  0
  -29.3613  -16.6694   20.8533 C   0  0  0  0  0  0  0  0  0  0  0  0
  -30.1494  -15.6257   21.6430 C   0  0  1  0  0  0  0  0  0  0  0  0
  -18.4472  -27.7532   22.7906 C   0  0  1  0  0  0  0  0  0  0  0  0
  -20.2399  -30.4104   20.7671 C   0  0  2  0  0  0  0  0  0  0  0  0
  -16.9708  -27.3780   22.4793 C   0  0  0  0  0  0  0  0  0  0  0  0
  -25.8053  -11.5450   20.2958 N   0  0  0  0  0  0  0  0  0  0  0  0
  -26.2005  -12.8211   20.1488 N   0  0  0  0  0  0  0  0  0  0  0  0
  -19.6522  -27.0710   24.8416 N   0  0  0  0  0  0  0  0  0  0  0  0
  -29.9540  -13.5274   20.3521 N   0  0  0  0  0  0  0  0  0  0  0  0
  -25.4683  -15.0628   20.3709 N   0  0  0  0  0  0  0  0  0  0  0  0
  -21.8530  -12.6579   21.6130 N   0  0  0  0  0  0  0  0  0  0  0  0
  -18.3841  -26.1448   28.0453 N   0  0  0  0  0  0  0  0  0  0  0  0
  -18.8970  -28.9869   22.1551 N   0  0  0  0  0  0  0  0  0  0  0  0
  -21.7010  -30.6215   20.5634 N   0  3  0  0  0  0  0  0  0  0  0  0
  -28.7252  -17.6740   21.7453 N   0  3  0  0  0  0  0  0  0  0  0  0
  -22.6589  -14.7821   21.3011 O   0  0  0  0  0  0  0  0  0  0  0  0
  -18.8122  -24.9088   26.1188 O   0  0  0  0  0  0  0  0  0  0  0  0
  -31.9126  -14.7772   20.3077 O   0  0  0  0  0  0  0  0  0  0  0  0
  -18.0752  -28.7876   24.8925 O   0  0  0  0  0  0  0  0  0  0  0  0
  -20.6608  -28.0412   20.9838 O   0  0  0  0  0  0  0  0  0  0  0  0
  -21.4981   -7.1013   21.7960 O   0  0  0  0  0  0  0  0  0  0  0  0
  -24.2296  -23.0403   23.9174 O   0  0  0  0  0  0  0  0  0  1  0  0
  -23.8835   -3.0496   24.6767 F   0  0  0  0  0  0  0  0  0  0  0  0
  -20.4512   -6.2769   24.2182 F   0  0  0  0  0  0  0  0  0  0  0  0
  1  2  1  0  0  0  0
  1  5  2  0  0  0  0
  2  6  2  0  0  0  0
  3 10  2  0  0  0  0
  3 18  1  0  0  0  0
  4 11  1  0  0  0  0
  4 18  2  0  0  0  0
  5 20  1  0  0  0  0
  6 22  1  0  0  0  0
  7 12  2  0  0  0  0
  7 21  1  0  0  0  0
  8  9  2  0  0  0  0
  8 24  1  0  0  0  0
  9 25  1  0  0  0  0
 10 27  1  0  0  0  0
 11 27  2  0  0  0  0
 12 28  1  0  0  0  0
 13 14  2  0  0  0  0
 13 29  1  0  0  0  0
 14 30  1  0  0  0  0
 15 23  1  0  0  0  0
 15 28  2  0  0  0  0
 16 24  2  0  0  0  0
 16 26  1  0  0  0  0
 17 30  2  0  0  0  0
 17 31  1  0  0  0  0
 18 32  1  0  0  0  0
 19 32  1  0  0  0  0
 19 33  2  0  0  0  0
 19 34  1  0  0  0  0
 20 22  2  0  0  0  0
 20 39  1  0  0  0  0
 21 23  2  0  0  0  0
 21 40  1  0  0  0  0
 22 48  1  0  0  0  0
 23 41  1  0  0  0  0
 24 59  1  0  0  0  0
 25 26  2  0  0  0  0
 25 58  1  0  0  0  0
 26 51  1  0  0  0  0
 27 80  1  0  0  0  0
 28 81  1  0  0  0  0
 29 31  2  0  0  0  0
 29 80  1  0  0  0  0
 30 82  1  0  0  0  0
 31 83  1  0  0  0  0
 32 65  2  0  0  0  0
 33 66  1  0  0  0  0
 33 69  1  0  0  0  0
 34 70  1  0  0  0  0
 34 75  2  0  0  0  0
 35 49  1  0  0  0  0
 35 71  1  0  0  0  0
 35 76  2  0  0  0  0
 36 61  1  0  0  0  0
 36 68  1  0  0  0  0
 36 77  2  0  0  0  0
 37 62  1  0  0  0  0
 37 67  1  0  0  0  0
 37 78  2  0  0  0  0
 38 63  1  0  0  0  0
 38 72  1  0  0  0  0
 38 79  2  0  0  0  0
 39 42  1  0  0  0  0
 40 49  1  0  0  0  0
 41 67  1  0  0  0  0
 42 44  1  0  0  0  0
 43 45  1  0  0  0  0
 43 46  1  0  0  0  0
 44 48  1  0  0  0  0
 45 50  1  0  0  0  0
 46 68  1  0  0  0  0
 47 50  1  0  0  0  0
 47 68  1  0  0  0  0
 48 71  1  0  0  0  0
 49 67  1  0  0  0  0
 50 66  1  0  0  0  0
 52 61  1  0  0  0  0
 53 63  1  0  0  0  0
 54 64  1  0  0  0  0
 55 64  1  0  0  0  0
 56 64  1  0  0  0  0
 57 73  1  0  0  0  0
 58 74  1  0  0  0  0
 59 81  1  0  0  0  0
 60 61  1  0  0  0  0
 60 74  1  0  0  0  0
 62 64  1  0  0  0  0
 62 72  1  0  0  0  0
 63 73  1  0  0  0  0
 65 66  1  0  0  0  0
M  CHG  2  73   1  74   1
M  ISO  4  36 100  59 101  61 100  81 101
M  END
> <Batch ID>
0115

> <Smiles>
CNC(C)C(=O)NC(C(=O)N1Cc2cc([101O:1][101CH2:1]c3ccc(CNC[100CH:0](C)[100C:0](=O)N4CCCC(n5nc(-c6ccc(Oc7ccc(F)cc7F)cc6)c(C(N)=O)c5N)C4)c(C)c3)ccc2CC1C(=O)NC1CCCc2ccccc21)C(C)(C)C

> <Shape>
0.247

> <Color>
0.196

> <Negative vol penalty>
0.000

$$$$

  -OEChem-04052320103D

 84 92  0     1  0  0  0  0  0999 V2000
  -25.0803  -33.2764   23.3383 C   0  0  0  0  0  0  0  0  0  0  0  0
  -25.0639  -32.2296   24.2545 C   0  0  0  0  0  0  0  0  0  0  0  0
  -24.3719  -11.6172   20.0080 C   0  0  0  0  0  0  0  0  0  0  0  0
  -25.3745  -12.1781   22.1334 C   0  0  0  0  0  0  0  0  0  0  0  0
  -24.9130  -33.0143   21.9792 C   0  0  0  0  0  0  0  0  0  0  0  0
  -24.8791  -30.9202   23.8122 C   0  0  0  0  0  0  0  0  0  0  0  0
  -26.7921  -24.1883   25.3415 C   0  0  0  0  0  0  0  0  0  0  0  0
  -24.5546  -10.2613   20.2797 C   0  0  0  0  0  0  0  0  0  0  0  0
  -25.5571  -10.8222   22.4051 C   0  0  0  0  0  0  0  0  0  0  0  0
  -26.2281  -22.9344   25.5723 C   0  0  0  0  0  0  0  0  0  0  0  0
  -23.0480   -7.8668   22.1316 C   0  0  0  0  0  0  0  0  0  0  0  0
  -21.9835   -7.0042   21.8704 C   0  0  0  0  0  0  0  0  0  0  0  0
  -26.0286  -22.5927   23.1927 C   0  0  0  0  0  0  0  0  0  0  0  0
  -23.3614   -5.7758   20.3117 C   0  0  0  0  0  0  0  0  0  0  0  0
  -24.7819  -12.5756   20.9348 C   0  0  0  0  0  0  0  0  0  0  0  0
  -23.4726  -14.7646   20.9756 C   0  0  0  0  0  0  0  0  0  0  0  0
  -24.7357  -31.7000   21.5190 C   0  0  0  0  0  0  0  0  0  0  0  0
  -26.9688  -24.6592   24.0325 C   0  0  0  0  0  0  0  0  0  0  0  0
  -24.7079  -30.6404   22.4457 C   0  0  0  0  0  0  0  0  0  0  0  0
  -26.5974  -23.8519   22.9479 C   0  0  0  0  0  0  0  0  0  0  0  0
  -25.1472   -9.8638   21.4782 C   0  0  0  0  0  0  0  0  0  0  0  0
  -25.8436  -22.1375   24.4979 C   0  0  0  0  0  0  0  0  0  0  0  0
  -24.2692   -7.6840   21.4828 C   0  0  0  0  0  0  0  0  0  0  0  0
  -22.1402   -5.9587   20.9605 C   0  0  0  0  0  0  0  0  0  0  0  0
  -24.4259   -6.6385   20.5729 C   0  0  0  0  0  0  0  0  0  0  0  0
  -24.5940  -13.9764   20.6545 C   0  0  0  0  0  0  0  0  0  0  0  0
  -23.7841  -16.0148   20.4997 C   0  0  0  0  0  0  0  0  0  0  0  0
  -22.2581  -14.3994   21.6444 C   0  0  0  0  0  0  0  0  0  0  0  0
  -25.8605  -27.1307   22.3690 C   0  0  0  0  0  0  0  0  0  0  0  0
  -27.3803  -18.8576   23.4507 C   0  0  0  0  0  0  0  0  0  0  0  0
  -27.9430  -26.0556   20.1262 C   0  0  0  0  0  0  0  0  0  0  0  0
  -29.7335  -23.4459   18.8494 C   0  0  0  0  0  0  0  0  0  0  0  0
  -28.9792  -18.7891   19.4201 C   0  0  0  0  0  0  0  0  0  0  0  0
  -24.5116  -31.4710   20.0452 C   0  0  0  0  0  0  0  0  0  0  0  0
  -27.6032  -26.0030   23.7998 C   0  0  0  0  0  0  0  0  0  0  0  0
  -26.7845  -24.3028   21.5230 C   0  0  0  0  0  0  0  0  0  0  0  0
  -24.6959  -30.0165   19.6199 C   0  0  0  0  0  0  0  0  0  0  0  0
  -26.3464  -18.1952   17.0980 C   0  0  0  0  0  0  0  0  0  0  0  0
  -25.8039  -15.9553   23.7736 C   0  0  0  0  0  0  0  0  0  0  0  0
  -23.9687  -29.0827   20.5822 C   0  0  0  0  0  0  0  0  0  0  0  0
  -27.1650  -16.4743   24.2030 C   0  0  0  0  0  0  0  0  0  0  0  0
  -25.4975  -17.1178   17.7751 C   0  0  0  0  0  0  0  0  0  0  0  0
  -27.8354  -17.9951   17.3712 C   0  0  0  0  0  0  0  0  0  0  0  0
  -27.3452  -16.8083   19.4748 C   0  0  0  0  0  0  0  0  0  0  0  0
  -24.8575  -16.6781   24.7055 C   0  0  0  0  0  0  0  0  0  0  0  0
  -24.5348  -29.2040   22.0022 C   0  0  1  0  0  0  0  0  0  0  0  0
  -27.2632  -26.5962   22.4360 C   0  0  1  0  0  0  0  0  0  0  0  0
  -26.9371  -17.9438   24.5461 C   0  0  2  0  0  0  0  0  0  0  0  0
  -25.8322  -17.0002   19.2743 C   0  0  2  0  0  0  0  0  0  0  0  0
  -31.3151  -22.8648   16.9897 C   0  0  0  0  0  0  0  0  0  0  0  0
  -23.5248  -18.9413   26.0023 C   0  0  0  0  0  0  0  0  0  0  0  0
  -25.6125  -26.0252   18.1571 C   0  0  0  0  0  0  0  0  0  0  0  0
  -26.9934  -24.5769   16.6526 C   0  0  0  0  0  0  0  0  0  0  0  0
  -27.7643  -26.8820   17.2136 C   0  0  0  0  0  0  0  0  0  0  0  0
  -31.8788  -22.7055   20.7491 C   0  0  0  0  0  0  0  0  0  0  0  0
  -29.2978  -20.2258   22.6546 C   0  0  0  0  0  0  0  0  0  0  0  0
  -30.0364  -19.4767   21.5575 C   0  0  0  0  0  0  0  0  0  0  0  0
  -25.7008  -20.2218   25.8999 C   0  0  0  0  0  0  0  0  0  1  0  0
  -27.8681  -25.0761   18.9799 C   0  0  1  0  0  0  0  0  0  0  0  0
  -31.1885  -23.3313   18.4316 C   0  0  2  0  0  0  0  0  0  0  0  0
  -25.0417  -18.8488   25.9680 C   0  0  2  0  0  0  0  0  0  0  0  0
  -27.0541  -25.6321   17.7776 C   0  0  0  0  0  0  0  0  0  0  0  0
  -25.5466  -14.6678   20.0233 N   0  0  0  0  0  0  0  0  0  0  0  0
  -25.0246  -15.9037   19.9438 N   0  0  0  0  0  0  0  0  0  0  0  0
  -27.4034  -25.6270   21.3473 N   0  0  0  0  0  0  0  0  0  0  0  0
  -28.0854  -17.8929   18.8110 N   0  0  0  0  0  0  0  0  0  0  0  0
  -23.1151  -17.1873   20.5065 N   0  0  0  0  0  0  0  0  0  0  0  0
  -22.1014  -13.0726   22.0676 N   0  0  0  0  0  0  0  0  0  0  0  0
  -25.7867  -28.4860   22.1102 N   0  0  0  0  0  0  0  0  0  0  0  0
  -28.6700  -19.3308   23.6000 N   0  0  0  0  0  0  0  0  0  0  0  0
  -29.2455  -24.7209   18.6559 N   0  0  0  0  0  0  0  0  0  0  0  0
  -29.1540  -18.6272   20.7890 N   0  0  0  0  0  0  0  0  0  0  0  0
  -25.4342  -18.0731   24.7513 N   0  3  2  0  0  0  0  0  0  0  0  0
  -31.9030  -22.3578   19.3050 N   0  3  0  0  0  0  0  0  0  0  0  0
  -21.3322  -15.2214   21.8456 O   0  0  0  0  0  0  0  0  0  0  0  0
  -24.9152  -26.3694   22.5379 O   0  0  0  0  0  0  0  0  0  0  0  0
  -26.6117  -19.1170   22.5322 O   0  0  0  0  0  0  0  0  0  0  0  0
  -28.4676  -27.1575   19.9468 O   0  0  0  0  0  0  0  0  0  0  0  0
  -29.0929  -22.4981   19.2987 O   0  0  0  0  0  0  0  0  0  0  0  0
  -29.5730  -19.6718   18.7915 O   0  0  0  0  0  0  0  0  0  0  0  0
  -25.3254   -8.5408   21.7438 O   0  0  0  0  0  0  0  0  0  0  0  0
  -25.2922  -20.9135   24.7205 O   0  0  0  0  0  0  0  0  0  1  0  0
  -21.1183   -5.1294   20.7109 F   0  0  0  0  0  0  0  0  0  0  0  0
  -25.5971   -6.4571   19.9474 F   0  0  0  0  0  0  0  0  0  0  0  0
  1  2  1  0  0  0  0
  1  5  2  0  0  0  0
  2  6  2  0  0  0  0
  3  8  2  0  0  0  0
  3 15  1  0  0  0  0
  4  9  1  0  0  0  0
  4 15  2  0  0  0  0
  5 17  1  0  0  0  0
  6 19  1  0  0  0  0
  7 10  2  0  0  0  0
  7 18  1  0  0  0  0
  8 21  1  0  0  0  0
  9 21  2  0  0  0  0
 10 22  1  0  0  0  0
 11 12  2  0  0  0  0
 11 23  1  0  0  0  0
 12 24  1  0  0  0  0
 13 20  1  0  0  0  0
 13 22  2  0  0  0  0
 14 24  2  0  0  0  0
 14 25  1  0  0  0  0
 15 26  1  0  0  0  0
 16 26  1  0  0  0  0
 16 27  2  0  0  0  0
 16 28  1  0  0  0  0
 17 19  2  0  0  0  0
 17 34  1  0  0  0  0
 18 20  2  0  0  0  0
 18 35  1  0  0  0  0
 19 46  1  0  0  0  0
 20 36  1  0  0  0  0
 21 81  1  0  0  0  0
 22 82  1  0  0  0  0
 23 25  2  0  0  0  0
 23 81  1  0  0  0  0
 24 83  1  0  0  0  0
 25 84  1  0  0  0  0
 26 63  2  0  0  0  0
 27 64  1  0  0  0  0
 27 67  1  0  0  0  0
 28 68  1  0  0  0  0
 28 75  2  0  0  0  0
 29 47  1  0  0  0  0
 29 69  1  0  0  0  0
 29 76  2  0  0  0  0
 30 48  1  0  0  0  0
 30 70  1  0  0  0  0
 30 77  2  0  0  0  0
 31 59  1  0  0  0  0
 31 65  1  0  0  0  0
 31 78  2  0  0  0  0
 32 60  1  0  0  0  0
 32 71  1  0  0  0  0
 32 79  2  0  0  0  0
 33 66  1  0  0  0  0
 33 72  1  0  0  0  0
 33 80  2  0  0  0  0
 34 37  1  0  0  0  0
 35 47  1  0  0  0  0
 36 65  1  0  0  0  0
 37 40  1  0  0  0  0
 38 42  1  0  0  0  0
 38 43  1  0  0  0  0
 39 41  1  0  0  0  0
 39 45  1  0  0  0  0
 40 46  1  0  0  0  0
 41 48  1  0  0  0  0
 42 49  1  0  0  0  0
 43 66  1  0  0  0  0
 44 49  1  0  0  0  0
 44 66  1  0  0  0  0
 45 73  1  0  0  0  0
 46 69  1  0  0  0  0
 47 65  1  0  0  0  0
 48 73  1  0  0  0  0
 49 64  1  0  0  0  0
 50 60  1  0  0  0  0
 51 61  1  0  0  0  0
 52 62  1  0  0  0  0
 53 62  1  0  0  0  0
 54 62  1  0  0  0  0
 55 74  1  0  0  0  0
 56 57  1  0  0  0  0
 56 70  1  0  0  0  0
 57 72  1  0  0  0  0
 58 61  1  0  0  0  0
 58 82  1  0  0  0  0
 59 62  1  0  0  0  0
 59 71  1  0  0  0  0
 60 74  1  0  0  0  0
 61 73  1  0  0  0  0
 63 64  1  0  0  0  0
M  CHG  2  73   1  74   1
M  ISO  4  33 100  58 101  72 100  82 101
M  END
> <Batch ID>
0115

> <Smiles>
CNC(C)C(=O)NC(C(=O)N1Cc2cc([101O:1][101CH2:1]C(C)N3CCCC3C(=O)NCC[100NH:0][100C:0](=O)N3CCCC(n4nc(-c5ccc(Oc6ccc(F)cc6F)cc5)c(C(N)=O)c4N)C3)ccc2CC1C(=O)NC1CCCc2ccccc21)C(C)(C)C

> <Shape>
0.206

> <Color>
0.079

> <Negative vol penalty>
0.000

$$$$

  -OEChem-04052320103D

 80 88  0     1  0  0  0  0  0999 V2000
  -31.7713  -34.3119   15.8539 C   0  0  0  0  0  0  0  0  0  0  0  0
  -31.4636  -33.1947   15.0840 C   0  0  0  0  0  0  0  0  0  0  0  0
  -23.3454  -10.1842   22.2175 C   0  0  0  0  0  0  0  0  0  0  0  0
  -23.5770   -9.5800   19.8897 C   0  0  0  0  0  0  0  0  0  0  0  0
  -32.8044  -34.2501   16.7882 C   0  0  0  0  0  0  0  0  0  0  0  0
  -32.1896  -32.0154   15.2472 C   0  0  0  0  0  0  0  0  0  0  0  0
  -28.9150  -25.8706   17.0937 C   0  0  0  0  0  0  0  0  0  0  0  0
  -22.6028   -9.0255   22.4444 C   0  0  0  0  0  0  0  0  0  0  0  0
  -22.8344   -8.4212   20.1167 C   0  0  0  0  0  0  0  0  0  0  0  0
  -28.3340  -24.6107   17.2394 C   0  0  0  0  0  0  0  0  0  0  0  0
  -19.4348   -7.9597   21.9425 C   0  0  0  0  0  0  0  0  0  0  0  0
  -18.2711   -8.0751   22.7028 C   0  0  0  0  0  0  0  0  0  0  0  0
  -30.5274  -23.5936   17.2925 C   0  0  0  0  0  0  0  0  0  0  0  0
  -19.1737   -6.5235   24.3198 C   0  0  0  0  0  0  0  0  0  0  0  0
  -23.8325  -10.4615   20.9401 C   0  0  0  0  0  0  0  0  0  0  0  0
  -24.1803  -12.9884   20.8998 C   0  0  0  0  0  0  0  0  0  0  0  0
  -33.5370  -33.0665   16.9698 C   0  0  0  0  0  0  0  0  0  0  0  0
  -30.3064  -25.9986   17.0623 C   0  0  0  0  0  0  0  0  0  0  0  0
  -33.2343  -31.9382   16.1839 C   0  0  0  0  0  0  0  0  0  0  0  0
  -31.1152  -24.8544   17.1593 C   0  0  0  0  0  0  0  0  0  0  0  0
  -22.3473   -8.1440   21.3941 C   0  0  0  0  0  0  0  0  0  0  0  0
  -29.1382  -23.4750   17.3383 C   0  0  0  0  0  0  0  0  0  0  0  0
  -20.4679   -7.1261   22.3708 C   0  0  0  0  0  0  0  0  0  0  0  0
  -18.1406   -7.3571   23.8915 C   0  0  0  0  0  0  0  0  0  0  0  0
  -20.3374   -6.4080   23.5595 C   0  0  0  0  0  0  0  0  0  0  0  0
  -24.5991  -11.6586   20.7049 C   0  0  0  0  0  0  0  0  0  0  0  0
  -25.2657  -13.7471   20.5356 C   0  0  0  0  0  0  0  0  0  0  0  0
  -22.9225  -13.4927   21.3681 C   0  0  0  0  0  0  0  0  0  0  0  0
  -33.2615  -28.2954   16.8026 C   0  0  0  0  0  0  0  0  0  0  0  0
  -30.7791  -14.6742   20.7161 C   0  0  0  0  0  0  0  0  0  0  0  0
  -33.9614  -26.1777   18.9087 C   0  0  0  0  0  0  0  0  0  0  0  0
  -34.1754  -23.9207   21.4577 C   0  0  0  0  0  0  0  0  0  0  0  0
  -34.6758  -33.0621   17.9586 C   0  0  0  0  0  0  0  0  0  0  0  0
  -30.9743  -27.3292   16.8451 C   0  0  0  0  0  0  0  0  0  0  0  0
  -32.6067  -25.0364   17.0859 C   0  0  0  0  0  0  0  0  0  0  0  0
  -35.1507  -31.6609   18.3345 C   0  0  0  0  0  0  0  0  0  0  0  0
  -29.5442  -12.4694   18.1756 C   0  0  0  0  0  0  0  0  0  0  0  0
  -35.3172  -30.8007   17.0858 C   0  0  0  0  0  0  0  0  0  0  0  0
  -28.1241  -12.1473   18.6391 C   0  0  0  0  0  0  0  0  0  0  0  0
  -29.1825  -19.7354   20.2115 C   0  0  0  0  0  0  0  0  0  0  0  0
  -30.2696  -18.9373   18.0662 C   0  0  0  0  0  0  0  0  0  0  0  0
  -28.5028  -20.8658   19.4427 C   0  0  0  0  0  0  0  0  0  0  0  0
  -29.5876  -20.0699   17.3026 C   0  0  0  0  0  0  0  0  0  0  0  0
  -30.4951  -12.6274   19.3580 C   0  0  0  0  0  0  0  0  0  0  0  0
  -28.6299  -13.3179   20.8297 C   0  0  0  0  0  0  0  0  0  0  0  0
  -33.9826  -30.6333   16.3493 C   0  0  1  0  0  0  0  0  0  0  0  0
  -32.3032  -27.4692   17.6091 C   0  0  1  0  0  0  0  0  0  0  0  0
  -27.6306  -13.1804   19.6674 C   0  0  2  0  0  0  0  0  0  0  0  0
  -29.4541  -18.5434   19.2960 C   0  0  0  0  0  0  0  0  0  0  0  0
  -29.3050  -21.2701   18.2066 C   0  0  0  0  0  0  0  0  0  1  0  0
  -31.2680  -16.1931   22.6179 C   0  0  0  0  0  0  0  0  0  0  0  0
  -35.7268  -23.1329   23.2661 C   0  0  0  0  0  0  0  0  0  0  0  0
  -35.6241  -24.6898   16.8290 C   0  0  0  0  0  0  0  0  0  0  0  0
  -36.4917  -23.2312   18.6696 C   0  0  0  0  0  0  0  0  0  0  0  0
  -36.9458  -25.6838   18.7050 C   0  0  0  0  0  0  0  0  0  0  0  0
  -32.2560  -24.6584   23.5862 C   0  0  0  0  0  0  0  0  0  0  0  0
  -29.3631  -16.7075   20.9871 C   0  0  0  0  0  0  0  0  0  0  0  0
  -30.1784  -15.6363   21.7098 C   0  0  1  0  0  0  0  0  0  0  0  0
  -34.6112  -24.8483   19.1985 C   0  0  1  0  0  0  0  0  0  0  0  0
  -34.5891  -24.0772   22.9099 C   0  0  2  0  0  0  0  0  0  0  0  0
  -35.8902  -24.6154   18.3457 C   0  0  0  0  0  0  0  0  0  0  0  0
  -25.8528  -11.5740   20.2520 N   0  0  0  0  0  0  0  0  0  0  0  0
  -26.2310  -12.8602   20.1591 N   0  0  0  0  0  0  0  0  0  0  0  0
  -33.0098  -26.2061   17.8820 N   0  0  0  0  0  0  0  0  0  0  0  0
  -29.9800  -13.6005   20.3228 N   0  0  0  0  0  0  0  0  0  0  0  0
  -25.4790  -15.0797   20.5039 N   0  0  0  0  0  0  0  0  0  0  0  0
  -21.9160  -12.5750   21.6987 N   0  0  0  0  0  0  0  0  0  0  0  0
  -33.1537  -29.6556   17.0213 N   0  0  0  0  0  0  0  0  0  0  0  0
  -34.8384  -24.8104   20.6391 N   0  0  0  0  0  0  0  0  0  0  0  0
  -30.2033  -17.5107   20.0597 N   0  3  0  0  0  0  0  0  0  0  0  0
  -33.4379  -23.7868   23.8106 N   0  3  0  0  0  0  0  0  0  0  0  0
  -22.6922  -14.7211   21.4743 O   0  0  0  0  0  0  0  0  0  0  0  0
  -34.0430  -27.7408   16.0389 O   0  0  0  0  0  0  0  0  0  0  0  0
  -31.9235  -14.8742   20.3006 O   0  0  0  0  0  0  0  0  0  0  0  0
  -34.2908  -27.1668   19.5694 O   0  0  0  0  0  0  0  0  0  0  0  0
  -33.3498  -23.0896   21.0862 O   0  0  0  0  0  0  0  0  0  0  0  0
  -21.6229   -7.0131   21.6152 O   0  0  0  0  0  0  0  0  0  0  0  0
  -28.5646  -22.2485   17.4849 O   0  0  0  0  0  0  0  0  0  1  0  0
  -17.0237   -7.4692   24.6223 F   0  0  0  0  0  0  0  0  0  0  0  0
  -21.3270   -5.6065   23.9767 F   0  0  0  0  0  0  0  0  0  0  0  0
  1  2  1  0  0  0  0
  1  5  2  0  0  0  0
  2  6  2  0  0  0  0
  3  8  2  0  0  0  0
  3 15  1  0  0  0  0
  4  9  1  0  0  0  0
  4 15  2  0  0  0  0
  5 17  1  0  0  0  0
  6 19  1  0  0  0  0
  7 10  2  0  0  0  0
  7 18  1  0  0  0  0
  8 21  1  0  0  0  0
  9 21  2  0  0  0  0
 10 22  1  0  0  0  0
 11 12  2  0  0  0  0
 11 23  1  0  0  0  0
 12 24  1  0  0  0  0
 13 20  1  0  0  0  0
 13 22  2  0  0  0  0
 14 24  2  0  0  0  0
 14 25  1  0  0  0  0
 15 26  1  0  0  0  0
 16 26  1  0  0  0  0
 16 27  2  0  0  0  0
 16 28  1  0  0  0  0
 17 19  2  0  0  0  0
 17 33  1  0  0  0  0
 18 20  2  0  0  0  0
 18 34  1  0  0  0  0
 19 46  1  0  0  0  0
 20 35  1  0  0  0  0
 21 77  1  0  0  0  0
 22 78  1  0  0  0  0
 23 25  2  0  0  0  0
 23 77  1  0  0  0  0
 24 79  1  0  0  0  0
 25 80  1  0  0  0  0
 26 62  2  0  0  0  0
 27 63  1  0  0  0  0
 27 66  1  0  0  0  0
 28 67  1  0  0  0  0
 28 72  2  0  0  0  0
 29 47  1  0  0  0  0
 29 68  1  0  0  0  0
 29 73  2  0  0  0  0
 30 58  1  0  0  0  0
 30 65  1  0  0  0  0
 30 74  2  0  0  0  0
 31 59  1  0  0  0  0
 31 64  1  0  0  0  0
 31 75  2  0  0  0  0
 32 60  1  0  0  0  0
 32 69  1  0  0  0  0
 32 76  2  0  0  0  0
 33 36  1  0  0  0  0
 34 47  1  0  0  0  0
 35 64  1  0  0  0  0
 36 38  1  0  0  0  0
 37 39  1  0  0  0  0
 37 44  1  0  0  0  0
 38 46  1  0  0  0  0
 39 48  1  0  0  0  0
 40 42  1  0  0  0  0
 40 49  1  0  0  0  0
 41 43  1  0  0  0  0
 41 49  1  0  0  0  0
 42 50  1  0  0  0  0
 43 50  1  0  0  0  0
 44 65  1  0  0  0  0
 45 48  1  0  0  0  0
 45 65  1  0  0  0  0
 46 68  1  0  0  0  0
 47 64  1  0  0  0  0
 48 63  1  0  0  0  0
 49 70  1  0  0  0  0
 50 78  1  0  0  0  0
 51 58  1  0  0  0  0
 52 60  1  0  0  0  0
 53 61  1  0  0  0  0
 54 61  1  0  0  0  0
 55 61  1  0  0  0  0
 56 71  1  0  0  0  0
 57 58  1  0  0  0  0
 57 70  1  0  0  0  0
 59 61  1  0  0  0  0
 59 69  1  0  0  0  0
 60 71  1  0  0  0  0
 62 63  1  0  0  0  0
M  CHG  2  70   1  71   1
M  ISO  4  30 100  50 101  58 100  78 101
M  END
> <Batch ID>
0115

> <Smiles>
CNC(C)C(=O)NC(C(=O)N1Cc2cc([101O:1][101CH:1]3CCC(NC[100CH:0](C)[100C:0](=O)N4CCCC(n5nc(-c6ccc(Oc7ccc(F)cc7F)cc6)c(C(N)=O)c5N)C4)CC3)ccc2CC1C(=O)NC1CCCc2ccccc21)C(C)(C)C

> <Shape>
0.217

> <Color>
0.191

> <Negative vol penalty>
0.000

$$$$

  -OEChem-04052320103D

 81 89  0     1  0  0  0  0  0999 V2000
  -23.0573  -23.2044   16.8281 C   0  0  0  0  0  0  0  0  0  0  0  0
  -23.8707  -22.0899   16.6564 C   0  0  0  0  0  0  0  0  0  0  0  0
  -22.2405  -27.7419   21.1241 C   0  0  0  0  0  0  0  0  0  0  0  0
  -23.3288  -27.0449   23.1654 C   0  0  0  0  0  0  0  0  0  0  0  0
  -22.2718  -23.3195   17.9730 C   0  0  0  0  0  0  0  0  0  0  0  0
  -23.8898  -21.0847   17.6239 C   0  0  0  0  0  0  0  0  0  0  0  0
  -26.4300  -17.0079   16.5609 C   0  0  0  0  0  0  0  0  0  0  0  0
  -21.0048  -27.7037   21.7698 C   0  0  0  0  0  0  0  0  0  0  0  0
  -22.0930  -27.0066   23.8112 C   0  0  0  0  0  0  0  0  0  0  0  0
  -27.8234  -16.9750   16.5285 C   0  0  0  0  0  0  0  0  0  0  0  0
  -19.2472  -29.6520   23.9024 C   0  0  0  0  0  0  0  0  0  0  0  0
  -18.3768  -30.7230   23.7003 C   0  0  0  0  0  0  0  0  0  0  0  0
  -27.8410  -15.8653   18.6703 C   0  0  0  0  0  0  0  0  0  0  0  0
  -16.7325  -29.2126   22.7773 C   0  0  0  0  0  0  0  0  0  0  0  0
  -23.4026  -27.4125   21.8219 C   0  0  0  0  0  0  0  0  0  0  0  0
  -25.5568  -28.5481   21.0623 C   0  0  0  0  0  0  0  0  0  0  0  0
  -22.2913  -22.3206   18.9604 C   0  0  0  0  0  0  0  0  0  0  0  0
  -25.7308  -16.4786   17.6551 C   0  0  0  0  0  0  0  0  0  0  0  0
  -23.0861  -21.1711   18.7751 C   0  0  0  0  0  0  0  0  0  0  0  0
  -26.4387  -15.8903   18.7130 C   0  0  0  0  0  0  0  0  0  0  0  0
  -20.9310  -27.3361   23.1133 C   0  0  0  0  0  0  0  0  0  0  0  0
  -28.5293  -16.4062   17.5846 C   0  0  0  0  0  0  0  0  0  0  0  0
  -18.8603  -28.3612   23.5418 C   0  0  0  0  0  0  0  0  0  0  0  0
  -17.1194  -30.5034   23.1378 C   0  0  0  0  0  0  0  0  0  0  0  0
  -17.6029  -28.1416   22.9793 C   0  0  0  0  0  0  0  0  0  0  0  0
  -24.6794  -27.4512   21.1553 C   0  0  0  0  0  0  0  0  0  0  0  0
  -26.6214  -28.0755   20.3344 C   0  0  0  0  0  0  0  0  0  0  0  0
  -25.4218  -29.8756   21.5871 C   0  0  0  0  0  0  0  0  0  0  0  0
  -31.5473  -19.5755   19.0169 C   0  0  0  0  0  0  0  0  0  0  0  0
  -23.7587  -17.6690   19.8454 C   0  0  0  0  0  0  0  0  0  0  0  0
  -23.4583  -14.5553   20.7038 C   0  0  0  0  0  0  0  0  0  0  0  0
  -24.7972  -11.4163   20.7345 C   0  0  0  0  0  0  0  0  0  0  0  0
  -30.3399  -24.3829   19.1502 C   0  0  0  0  0  0  0  0  0  0  0  0
  -21.4153  -22.4925   20.1763 C   0  0  0  0  0  0  0  0  0  0  0  0
  -24.2268  -16.4978   17.6625 C   0  0  0  0  0  0  0  0  0  0  0  0
  -25.7346  -15.2901   19.9015 C   0  0  0  0  0  0  0  0  0  0  0  0
  -21.8348  -21.6025   21.3418 C   0  0  0  0  0  0  0  0  0  0  0  0
  -32.5118  -22.5411   16.7800 C   0  0  0  0  0  0  0  0  0  0  0  0
  -27.1887  -23.7985   17.7087 C   0  0  0  0  0  0  0  0  0  0  0  0
  -22.0170  -20.1701   20.8626 C   0  0  0  0  0  0  0  0  0  0  0  0
  -32.5975  -21.1587   17.4209 C   0  0  0  0  0  0  0  0  0  0  0  0
  -26.3149  -24.7907   18.4754 C   0  0  0  0  0  0  0  0  0  0  0  0
  -32.2772  -23.6332   17.8183 C   0  0  0  0  0  0  0  0  0  0  0  0
  -28.2113  -23.1148   18.6176 C   0  0  0  0  0  0  0  0  0  0  0  0
  -31.1770  -22.0074   19.3220 C   0  0  0  0  0  0  0  0  0  0  0  0
  -28.1774  -25.0498   20.1582 C   0  0  0  0  0  0  0  0  0  0  0  0
  -23.1463  -20.0797   19.8284 C   0  0  1  0  0  0  0  0  0  0  0  0
  -31.3795  -20.8846   18.3054 C   0  0  2  0  0  0  0  0  0  0  0  0
  -23.6348  -16.3913   19.0645 C   0  0  1  0  0  0  0  0  0  0  0  0
  -27.1779  -25.7949   19.2597 C   0  0  2  0  0  0  0  0  0  0  0  0
  -24.3357   -9.0857   21.5423 C   0  0  0  0  0  0  0  0  0  0  0  0
  -24.1885  -15.3977   23.5441 C   0  0  0  0  0  0  0  0  0  0  0  0
  -24.6391  -12.9912   24.0674 C   0  0  0  0  0  0  0  0  0  0  0  0
  -22.3471  -13.7119   23.3968 C   0  0  0  0  0  0  0  0  0  0  0  0
  -24.8203  -10.3328   17.9805 C   0  0  0  0  0  0  0  0  0  0  0  0
  -31.8931  -17.1409   18.6487 C   0  0  0  0  0  0  0  0  0  0  0  0
  -30.5677  -16.4181   18.8096 C   0  0  0  0  0  0  0  0  0  1  0  0
  -24.1806  -13.6348   21.6577 C   0  0  1  0  0  0  0  0  0  0  0  0
  -24.2022  -10.0640   20.3856 C   0  0  2  0  0  0  0  0  0  0  0  0
  -23.8524  -13.9469   23.1451 C   0  0  0  0  0  0  0  0  0  0  0  0
  -25.1459  -26.3638   20.5358 N   0  0  0  0  0  0  0  0  0  0  0  0
  -26.3281  -26.7750   20.0465 N   0  0  0  0  0  0  0  0  0  0  0  0
  -24.2636  -15.3388   19.8652 N   0  0  0  0  0  0  0  0  0  0  0  0
  -31.1300  -23.3245   18.6717 N   0  0  0  0  0  0  0  0  0  0  0  0
  -28.9823  -24.1097   19.3753 N   0  0  0  0  0  0  0  0  0  0  0  0
  -27.7703  -28.6497   19.9188 N   0  0  0  0  0  0  0  0  0  0  0  0
  -24.2647  -30.1931   22.3115 N   0  0  0  0  0  0  0  0  0  0  0  0
  -23.1492  -18.7554   19.2472 N   0  0  0  0  0  0  0  0  0  0  0  0
  -31.7130  -18.4938   18.1731 N   0  0  0  0  0  0  0  0  0  0  0  0
  -23.8474  -12.2759   21.2447 N   0  0  0  0  0  0  0  0  0  0  0  0
  -24.8925   -9.4851   19.1984 N   0  3  0  0  0  0  0  0  0  0  0  0
  -26.2936  -30.7588   21.4046 O   0  0  0  0  0  0  0  0  0  0  0  0
  -31.5295  -19.5470   20.2419 O   0  0  0  0  0  0  0  0  0  0  0  0
  -24.3613  -17.6689   20.9124 O   0  0  0  0  0  0  0  0  0  0  0  0
  -22.2249  -14.5730   20.6978 O   0  0  0  0  0  0  0  0  0  0  0  0
  -25.9863  -11.6822   20.5742 O   0  0  0  0  0  0  0  0  0  0  0  0
  -30.8190  -25.5042   19.3602 O   0  0  0  0  0  0  0  0  0  0  0  0
  -19.7253  -27.2988   23.7438 O   0  0  0  0  0  0  0  0  0  0  0  0
  -29.8990  -16.3732   17.5556 O   0  0  0  0  0  0  0  0  0  1  0  0
  -16.2831  -31.5318   22.9452 F   0  0  0  0  0  0  0  0  0  0  0  0
  -17.2252  -26.9036   22.6320 F   0  0  0  0  0  0  0  0  0  0  0  0
  1  2  1  0  0  0  0
  1  5  2  0  0  0  0
  2  6  2  0  0  0  0
  3  8  2  0  0  0  0
  3 15  1  0  0  0  0
  4  9  1  0  0  0  0
  4 15  2  0  0  0  0
  5 17  1  0  0  0  0
  6 19  1  0  0  0  0
  7 10  2  0  0  0  0
  7 18  1  0  0  0  0
  8 21  1  0  0  0  0
  9 21  2  0  0  0  0
 10 22  1  0  0  0  0
 11 12  2  0  0  0  0
 11 23  1  0  0  0  0
 12 24  1  0  0  0  0
 13 20  1  0  0  0  0
 13 22  2  0  0  0  0
 14 24  2  0  0  0  0
 14 25  1  0  0  0  0
 15 26  1  0  0  0  0
 16 26  1  0  0  0  0
 16 27  2  0  0  0  0
 16 28  1  0  0  0  0
 17 19  2  0  0  0  0
 17 34  1  0  0  0  0
 18 20  2  0  0  0  0
 18 35  1  0  0  0  0
 19 47  1  0  0  0  0
 20 36  1  0  0  0  0
 21 78  1  0  0  0  0
 22 79  1  0  0  0  0
 23 25  2  0  0  0  0
 23 78  1  0  0  0  0
 24 80  1  0  0  0  0
 25 81  1  0  0  0  0
 26 61  2  0  0  0  0
 27 62  1  0  0  0  0
 27 66  1  0  0  0  0
 28 67  1  0  0  0  0
 28 72  2  0  0  0  0
 29 48  1  0  0  0  0
 29 69  1  0  0  0  0
 29 73  2  0  0  0  0
 30 49  1  0  0  0  0
 30 68  1  0  0  0  0
 30 74  2  0  0  0  0
 31 58  1  0  0  0  0
 31 63  1  0  0  0  0
 31 75  2  0  0  0  0
 32 59  1  0  0  0  0
 32 70  1  0  0  0  0
 32 76  2  0  0  0  0
 33 64  1  0  0  0  0
 33 65  1  0  0  0  0
 33 77  2  0  0  0  0
 34 37  1  0  0  0  0
 35 49  1  0  0  0  0
 36 63  1  0  0  0  0
 37 40  1  0  0  0  0
 38 41  1  0  0  0  0
 38 43  1  0  0  0  0
 39 42  1  0  0  0  0
 39 44  1  0  0  0  0
 40 47  1  0  0  0  0
 41 48  1  0  0  0  0
 42 50  1  0  0  0  0
 43 64  1  0  0  0  0
 44 65  1  0  0  0  0
 45 48  1  0  0  0  0
 45 64  1  0  0  0  0
 46 50  1  0  0  0  0
 46 65  1  0  0  0  0
 47 68  1  0  0  0  0
 49 63  1  0  0  0  0
 50 62  1  0  0  0  0
 51 59  1  0  0  0  0
 52 60  1  0  0  0  0
 53 60  1  0  0  0  0
 54 60  1  0  0  0  0
 55 71  1  0  0  0  0
 56 57  1  0  0  0  0
 56 69  1  0  0  0  0
 57 79  1  0  0  0  0
 58 60  1  0  0  0  0
 58 70  1  0  0  0  0
 59 71  1  0  0  0  0
 61 62  1  0  0  0  0
M  CHG  1  71   1
M  ISO  4  33 100  57 101  64 100  79 101
M  END
> <Batch ID>
0115

> <Smiles>
CNC(C)C(=O)NC(C(=O)N1Cc2cc([101O:1][101CH2:1]CNC(=O)C3CCC[100N:0]([100C:0](=O)N4CCCC(n5nc(-c6ccc(Oc7ccc(F)cc7F)cc6)c(C(N)=O)c5N)C4)C3)ccc2CC1C(=O)NC1CCCc2ccccc21)C(C)(C)C

> <Shape>
0.204

> <Color>
0.085

> <Negative vol penalty>
0.000

$$$$

  -OEChem-04052320103D

 85 93  0     1  0  0  0  0  0999 V2000
  -34.2466  -30.8559   11.8600 C   0  0  0  0  0  0  0  0  0  0  0  0
  -34.7198  -29.7791   12.6029 C   0  0  0  0  0  0  0  0  0  0  0  0
  -22.9733   -9.9201   19.9946 C   0  0  0  0  0  0  0  0  0  0  0  0
  -23.6932   -9.9782   22.3002 C   0  0  0  0  0  0  0  0  0  0  0  0
  -33.1328  -31.5695   12.3005 C   0  0  0  0  0  0  0  0  0  0  0  0
  -34.0801  -29.4160   13.7876 C   0  0  0  0  0  0  0  0  0  0  0  0
  -33.3817  -23.7512   16.0074 C   0  0  0  0  0  0  0  0  0  0  0  0
  -30.3419  -18.8775   23.0460 C   0  0  0  0  0  0  0  0  0  0  0  0
  -22.1903   -8.7984   20.2674 C   0  0  0  0  0  0  0  0  0  0  0  0
  -22.9102   -8.8565   22.5729 C   0  0  0  0  0  0  0  0  0  0  0  0
  -34.0820  -23.0292   16.9729 C   0  0  0  0  0  0  0  0  0  0  0  0
  -23.1090   -5.5111   22.1266 C   0  0  0  0  0  0  0  0  0  0  0  0
  -23.6804   -4.4914   22.8878 C   0  0  0  0  0  0  0  0  0  0  0  0
  -29.8375  -17.6448   22.6467 C   0  0  0  0  0  0  0  0  0  0  0  0
  -32.4576  -23.6837   18.6319 C   0  0  0  0  0  0  0  0  0  0  0  0
  -21.9557   -4.7709   24.5566 C   0  0  0  0  0  0  0  0  0  0  0  0
  -23.7248  -10.5099   21.0110 C   0  0  0  0  0  0  0  0  0  0  0  0
  -24.1457  -13.0185   20.8173 C   0  0  0  0  0  0  0  0  0  0  0  0
  -32.4733  -31.2090   13.4861 C   0  0  0  0  0  0  0  0  0  0  0  0
  -32.2182  -24.4551   16.3499 C   0  0  0  0  0  0  0  0  0  0  0  0
  -32.9573  -30.1263   14.2451 C   0  0  0  0  0  0  0  0  0  0  0  0
  -31.7430  -24.4118   17.6684 C   0  0  0  0  0  0  0  0  0  0  0  0
  -31.6239  -19.2551   22.6622 C   0  0  0  0  0  0  0  0  0  0  0  0
  -22.1587   -8.2666   21.5565 C   0  0  0  0  0  0  0  0  0  0  0  0
  -33.6215  -22.9977   18.2860 C   0  0  0  0  0  0  0  0  0  0  0  0
  -21.9611   -6.1607   22.5804 C   0  0  0  0  0  0  0  0  0  0  0  0
  -23.1037   -4.1213   24.1028 C   0  0  0  0  0  0  0  0  0  0  0  0
  -21.3844   -5.7906   23.7953 C   0  0  0  0  0  0  0  0  0  0  0  0
  -24.5343  -11.6683   20.7298 C   0  0  0  0  0  0  0  0  0  0  0  0
  -32.3551  -18.3711   21.8853 C   0  0  0  0  0  0  0  0  0  0  0  0
  -30.6486  -16.8330   21.8703 C   0  0  0  0  0  0  0  0  0  0  0  0
  -25.2664  -13.7228   20.4505 C   0  0  0  0  0  0  0  0  0  0  0  0
  -22.8845  -13.5854   21.1963 C   0  0  0  0  0  0  0  0  0  0  0  0
  -31.3514  -27.5129   16.3051 C   0  0  0  0  0  0  0  0  0  0  0  0
  -28.4602  -26.3019   17.1400 C   0  0  0  0  0  0  0  0  0  0  0  0
  -26.6862  -23.7562   18.5610 C   0  0  0  0  0  0  0  0  0  0  0  0
  -30.7581  -14.6090   20.6920 C   0  0  0  0  0  0  0  0  0  0  0  0
  -31.3018  -32.0398   13.9467 C   0  0  0  0  0  0  0  0  0  0  0  0
  -31.4596  -25.2073   15.2910 C   0  0  0  0  0  0  0  0  0  0  0  0
  -30.4879  -25.1338   18.0830 C   0  0  0  0  0  0  0  0  0  0  0  0
  -30.4550  -31.3575   15.0180 C   0  0  0  0  0  0  0  0  0  0  0  0
  -29.6117  -12.1546   18.3814 C   0  0  0  0  0  0  0  0  0  0  0  0
  -31.3460  -30.7595   16.1021 C   0  0  0  0  0  0  0  0  0  0  0  0
  -28.1566  -11.9204   18.7936 C   0  0  0  0  0  0  0  0  0  0  0  0
  -30.5124  -12.3945   19.5918 C   0  0  0  0  0  0  0  0  0  0  0  0
  -28.6048  -13.2200   20.9142 C   0  0  0  0  0  0  0  0  0  0  0  0
  -32.2755  -29.6864   15.5225 C   0  0  1  0  0  0  0  0  0  0  0  0
  -30.5707  -26.3082   15.8612 C   0  0  1  0  0  0  0  0  0  0  0  0
  -27.6477  -13.0381   19.7249 C   0  0  2  0  0  0  0  0  0  0  0  0
  -32.9541  -19.6944   25.3538 C   0  0  0  0  0  0  0  0  0  0  0  0
  -24.3416  -23.0687   19.1335 C   0  0  0  0  0  0  0  0  0  0  0  0
  -28.4740  -28.2318   19.5032 C   0  0  0  0  0  0  0  0  0  0  0  0
  -26.6397  -26.8742   20.5331 C   0  0  0  0  0  0  0  0  0  0  0  0
  -26.2675  -28.0152   18.3462 C   0  0  0  0  0  0  0  0  0  0  0  0
  -26.8394  -21.3648   16.8240 C   0  0  0  0  0  0  0  0  0  0  0  0
  -33.7443  -18.7257   21.4432 C   0  0  0  0  0  0  0  0  0  0  0  0
  -32.2091  -20.8016   24.6180 C   0  0  0  0  0  0  0  0  0  0  0  0
  -35.1306  -20.1465   19.9273 C   0  0  0  0  0  0  0  0  0  0  0  0
  -35.0220  -21.1428   18.7898 C   0  0  0  0  0  0  0  0  0  1  0  0
  -32.1710  -20.5734   23.0876 C   0  0  2  0  0  0  0  0  0  0  0  0
  -27.7704  -25.9845   18.4447 C   0  0  1  0  0  0  0  0  0  0  0  0
  -25.4511  -23.0065   18.0952 C   0  0  2  0  0  0  0  0  0  0  0  0
  -27.3127  -27.2643   19.1997 C   0  0  0  0  0  0  0  0  0  0  0  0
  -25.8027  -11.5211   20.3380 N   0  0  0  0  0  0  0  0  0  0  0  0
  -31.8989  -17.1655   21.4779 N   0  0  0  0  0  0  0  0  0  0  0  0
  -26.2208  -12.7880   20.1759 N   0  0  0  0  0  0  0  0  0  0  0  0
  -29.7849  -25.8605   17.0129 N   0  0  0  0  0  0  0  0  0  0  0  0
  -29.9700  -13.4694   20.4256 N   0  0  0  0  0  0  0  0  0  0  0  0
  -25.5186  -15.0443   20.3391 N   0  0  0  0  0  0  0  0  0  0  0  0
  -21.8396  -12.7184   21.5437 N   0  0  0  0  0  0  0  0  0  0  0  0
  -30.1252  -15.5790   21.4687 N   0  0  0  0  0  0  0  0  0  0  0  0
  -31.5514  -28.4514   15.3108 N   0  0  0  0  0  0  0  0  0  0  0  0
  -26.6872  -25.0627   18.1202 N   0  0  0  0  0  0  0  0  0  0  0  0
  -31.4104  -21.7342   22.4965 N   0  3  0  0  0  0  0  0  0  0  0  0
  -25.7786  -21.5748   17.8426 N   0  3  0  0  0  0  0  0  0  0  0  0
  -33.7684  -19.7304   20.3461 N   0  3  0  0  0  0  0  0  0  0  0  0
  -22.6850  -14.8238   21.2103 O   0  0  0  0  0  0  0  0  0  0  0  0
  -31.7419  -27.5862   17.4643 O   0  0  0  0  0  0  0  0  0  0  0  0
  -27.8439  -26.9124   16.2630 O   0  0  0  0  0  0  0  0  0  0  0  0
  -27.5607  -23.2359   19.2502 O   0  0  0  0  0  0  0  0  0  0  0  0
  -31.8998  -14.7287   20.2400 O   0  0  0  0  0  0  0  0  0  0  0  0
  -21.3946   -7.1723   21.8231 O   0  0  0  0  0  0  0  0  0  0  0  0
  -34.3035  -22.2943   19.2304 O   0  0  0  0  0  0  0  0  0  1  0  0
  -23.6516   -3.1411   24.8330 F   0  0  0  0  0  0  0  0  0  0  0  0
  -20.2809   -6.4103   24.2359 F   0  0  0  0  0  0  0  0  0  0  0  0
  1  2  1  0  0  0  0
  1  5  2  0  0  0  0
  2  6  2  0  0  0  0
  3  9  2  0  0  0  0
  3 17  1  0  0  0  0
  4 10  1  0  0  0  0
  4 17  2  0  0  0  0
  5 19  1  0  0  0  0
  6 21  1  0  0  0  0
  7 11  2  0  0  0  0
  7 20  1  0  0  0  0
  8 14  2  0  0  0  0
  8 23  1  0  0  0  0
  9 24  1  0  0  0  0
 10 24  2  0  0  0  0
 11 25  1  0  0  0  0
 12 13  2  0  0  0  0
 12 26  1  0  0  0  0
 13 27  1  0  0  0  0
 14 31  1  0  0  0  0
 15 22  1  0  0  0  0
 15 25  2  0  0  0  0
 16 27  2  0  0  0  0
 16 28  1  0  0  0  0
 17 29  1  0  0  0  0
 18 29  1  0  0  0  0
 18 32  2  0  0  0  0
 18 33  1  0  0  0  0
 19 21  2  0  0  0  0
 19 38  1  0  0  0  0
 20 22  2  0  0  0  0
 20 39  1  0  0  0  0
 21 47  1  0  0  0  0
 22 40  1  0  0  0  0
 23 30  2  0  0  0  0
 23 60  1  0  0  0  0
 24 82  1  0  0  0  0
 25 83  1  0  0  0  0
 26 28  2  0  0  0  0
 26 82  1  0  0  0  0
 27 84  1  0  0  0  0
 28 85  1  0  0  0  0
 29 64  2  0  0  0  0
 30 56  1  0  0  0  0
 30 65  1  0  0  0  0
 31 65  2  0  0  0  0
 31 71  1  0  0  0  0
 32 66  1  0  0  0  0
 32 69  1  0  0  0  0
 33 70  1  0  0  0  0
 33 77  2  0  0  0  0
 34 48  1  0  0  0  0
 34 72  1  0  0  0  0
 34 78  2  0  0  0  0
 35 61  1  0  0  0  0
 35 67  1  0  0  0  0
 35 79  2  0  0  0  0
 36 62  1  0  0  0  0
 36 73  1  0  0  0  0
 36 80  2  0  0  0  0
 37 68  1  0  0  0  0
 37 71  1  0  0  0  0
 37 81  2  0  0  0  0
 38 41  1  0  0  0  0
 39 48  1  0  0  0  0
 40 67  1  0  0  0  0
 41 43  1  0  0  0  0
 42 44  1  0  0  0  0
 42 45  1  0  0  0  0
 43 47  1  0  0  0  0
 44 49  1  0  0  0  0
 45 68  1  0  0  0  0
 46 49  1  0  0  0  0
 46 68  1  0  0  0  0
 47 72  1  0  0  0  0
 48 67  1  0  0  0  0
 49 66  1  0  0  0  0
 50 57  1  0  0  0  0
 51 62  1  0  0  0  0
 52 63  1  0  0  0  0
 53 63  1  0  0  0  0
 54 63  1  0  0  0  0
 55 75  1  0  0  0  0
 56 76  1  0  0  0  0
 57 60  1  0  0  0  0
 58 59  1  0  0  0  0
 58 76  1  0  0  0  0
 59 83  1  0  0  0  0
 60 74  1  0  0  0  0
 61 63  1  0  0  0  0
 61 73  1  0  0  0  0
 62 75  1  0  0  0  0
 64 66  1  0  0  0  0
M  CHG  3  74   1  75   1  76   1
M  ISO  4  37 100  59 101  71 100  83 101
M  END
> <Batch ID>
0115

> <Smiles>
CCC(N)c1ccc([100NH:0][100C:0](=O)N2CCCC(n3nc(-c4ccc(Oc5ccc(F)cc5F)cc4)c(C(N)=O)c3N)C2)nc1CNC[101CH2:1][101O:1]c1ccc2c(c1)CN(C(=O)C(NC(=O)C(C)NC)C(C)(C)C)C(C(=O)NC1CCCc3ccccc31)C2

> <Shape>
0.223

> <Color>
0.184

> <Negative vol penalty>
0.000

$$$$

  -OEChem-04052320103D

 84 92  0     1  0  0  0  0  0999 V2000
  -17.4307  -28.4412   22.9422 C   0  0  0  0  0  0  0  0  0  0  0  0
  -17.8397  -27.7400   21.8124 C   0  0  0  0  0  0  0  0  0  0  0  0
  -26.1400  -13.7065   21.7488 C   0  0  0  0  0  0  0  0  0  0  0  0
  -26.1737  -12.5190   19.6451 C   0  0  0  0  0  0  0  0  0  0  0  0
  -18.3777  -29.0541   23.7617 C   0  0  0  0  0  0  0  0  0  0  0  0
  -19.1960  -27.6521   21.5009 C   0  0  0  0  0  0  0  0  0  0  0  0
  -22.0819  -22.9031   18.9270 C   0  0  0  0  0  0  0  0  0  0  0  0
  -24.9551  -13.0578   22.0961 C   0  0  0  0  0  0  0  0  0  0  0  0
  -24.9887  -11.8702   19.9923 C   0  0  0  0  0  0  0  0  0  0  0  0
  -22.4695  -22.6409   17.6137 C   0  0  0  0  0  0  0  0  0  0  0  0
  -24.0501   -9.2810   21.9507 C   0  0  0  0  0  0  0  0  0  0  0  0
  -23.9743   -7.9071   21.7221 C   0  0  0  0  0  0  0  0  0  0  0  0
  -24.6764  -23.4830   18.1033 C   0  0  0  0  0  0  0  0  0  0  0  0
  -22.0904   -8.2561   20.2502 C   0  0  0  0  0  0  0  0  0  0  0  0
  -26.7493  -13.4372   20.5233 C   0  0  0  0  0  0  0  0  0  0  0  0
  -29.2872  -13.6770   20.4275 C   0  0  0  0  0  0  0  0  0  0  0  0
  -19.7470  -28.9655   23.4654 C   0  0  0  0  0  0  0  0  0  0  0  0
  -22.9869  -23.4683   19.8369 C   0  0  0  0  0  0  0  0  0  0  0  0
  -20.1622  -28.2654   22.3165 C   0  0  0  0  0  0  0  0  0  0  0  0
  -24.2985  -23.7491   19.4283 C   0  0  0  0  0  0  0  0  0  0  0  0
  -24.3794  -12.1396   21.2178 C   0  0  0  0  0  0  0  0  0  0  0  0
  -23.7661  -22.9335   17.2009 C   0  0  0  0  0  0  0  0  0  0  0  0
  -23.1461  -10.1424   21.3291 C   0  0  0  0  0  0  0  0  0  0  0  0
  -22.9944   -7.3946   20.8718 C   0  0  0  0  0  0  0  0  0  0  0  0
  -22.1663   -9.6300   20.4788 C   0  0  0  0  0  0  0  0  0  0  0  0
  -27.9731  -14.1074   20.1638 C   0  0  0  0  0  0  0  0  0  0  0  0
  -30.0843  -14.6560   19.8867 C   0  0  0  0  0  0  0  0  0  0  0  0
  -31.0126  -24.0190   14.4473 C   0  0  0  0  0  0  0  0  0  0  0  0
  -29.7464  -12.4975   21.1012 C   0  0  0  0  0  0  0  0  0  0  0  0
  -30.3483  -24.6647   15.4173 C   0  0  0  0  0  0  0  0  0  0  0  0
  -23.0966  -26.1714   21.5057 C   0  0  0  0  0  0  0  0  0  0  0  0
  -25.7259  -24.7979   22.8181 C   0  0  0  0  0  0  0  0  0  0  0  0
  -28.2709  -22.5437   22.5210 C   0  0  0  0  0  0  0  0  0  0  0  0
  -29.3805  -20.3071   18.8909 C   0  0  0  0  0  0  0  0  0  0  0  0
  -20.7302  -29.6843   24.3549 C   0  0  0  0  0  0  0  0  0  0  0  0
  -22.5611  -23.7204   21.2573 C   0  0  0  0  0  0  0  0  0  0  0  0
  -25.3143  -24.3377   20.3719 C   0  0  0  0  0  0  0  0  0  0  0  0
  -22.1738  -29.2275   24.1610 C   0  0  0  0  0  0  0  0  0  0  0  0
  -30.1607  -17.9410   16.4162 C   0  0  0  0  0  0  0  0  0  0  0  0
  -22.5145  -29.1502   22.6762 C   0  0  0  0  0  0  0  0  0  0  0  0
  -29.8135  -16.6327   17.1261 C   0  0  0  0  0  0  0  0  0  0  0  0
  -30.9510  -23.3190   17.4193 C   0  0  0  0  0  0  0  0  0  0  0  0
  -29.1390  -19.0407   16.7097 C   0  0  0  0  0  0  0  0  0  0  0  0
  -30.4397  -22.5191   18.6147 C   0  0  0  0  0  0  0  0  0  0  0  0
  -28.5620  -17.9689   18.8629 C   0  0  0  0  0  0  0  0  0  0  0  0
  -28.3025  -22.0821   17.4540 C   0  0  0  0  0  0  0  0  0  0  0  0
  -21.6261  -28.1267   21.9589 C   0  0  1  0  0  0  0  0  0  0  0  0
  -29.8011  -23.9484   16.6158 C   0  0  2  0  0  0  0  0  0  0  0  0
  -23.4130  -24.7740   21.9584 C   0  0  1  0  0  0  0  0  0  0  0  0
  -29.6023  -16.8613   18.6334 C   0  0  1  0  0  0  0  0  0  0  0  0
  -28.7776  -22.8656   16.2317 C   0  0  2  0  0  0  0  0  0  0  0  0
  -30.1097  -26.1447   15.3651 C   0  0  0  0  0  0  0  0  0  0  0  0
  -30.2845  -21.6741   23.7403 C   0  0  0  0  0  0  0  0  0  0  0  0
  -23.3797  -24.4257   14.4610 C   0  0  0  0  0  0  0  0  0  0  0  0
  -27.2619  -27.3296   22.0823 C   0  0  0  0  0  0  0  0  0  0  0  0
  -29.3894  -26.0588   22.4385 C   0  0  0  0  0  0  0  0  0  0  0  0
  -27.8076  -26.3968   24.3376 C   0  0  0  0  0  0  0  0  0  0  0  0
  -27.1676  -19.7994   22.6238 C   0  0  0  0  0  0  0  0  0  0  0  0
  -25.6158  -23.3178   14.1080 C   0  0  0  0  0  0  0  0  0  0  0  0
  -26.8204  -22.5943   14.7037 C   0  0  0  0  0  0  0  0  0  0  0  0
  -27.1995  -24.7810   22.4905 C   0  0  1  0  0  0  0  0  0  0  0  0
  -28.7984  -21.4883   23.4763 C   0  0  2  0  0  0  0  0  0  0  0  0
  -24.5874  -23.7928   15.1410 C   0  0  2  0  0  0  0  0  0  1  0  0
  -27.8951  -26.1322   22.8187 C   0  0  0  0  0  0  0  0  0  0  0  0
  -27.9333  -15.2695   19.5066 N   0  0  0  0  0  0  0  0  0  0  0  0
  -29.2324  -15.5777   19.3529 N   0  0  0  0  0  0  0  0  0  0  0  0
  -24.8480  -24.5719   21.7485 N   0  0  0  0  0  0  0  0  0  0  0  0
  -28.9415  -19.1947   18.1573 N   0  0  0  0  0  0  0  0  0  0  0  0
  -29.4380  -21.5341   18.2096 N   0  0  0  0  0  0  0  0  0  0  0  0
  -31.4239  -14.8099   19.8204 N   0  0  0  0  0  0  0  0  0  0  0  0
  -28.7933  -11.5965   21.5953 N   0  0  0  0  0  0  0  0  0  0  0  0
  -22.0876  -26.7814   22.2264 N   0  0  0  0  0  0  0  0  0  0  0  0
  -27.7610  -23.6333   23.1948 N   0  0  0  0  0  0  0  0  0  0  0  0
  -27.5832  -23.4992   15.6005 N   0  3  0  0  0  0  0  0  0  0  0  0
  -28.5883  -20.1259   22.9102 N   0  3  0  0  0  0  0  0  0  0  0  0
  -30.9655  -12.2581   21.2746 O   0  0  0  0  0  0  0  0  0  0  0  0
  -23.7226  -26.6606   20.5727 O   0  0  0  0  0  0  0  0  0  0  0  0
  -25.3673  -24.9971   23.9814 O   0  0  0  0  0  0  0  0  0  0  0  0
  -28.3109  -22.4159   21.2993 O   0  0  0  0  0  0  0  0  0  0  0  0
  -29.7051  -20.2117   20.0810 O   0  0  0  0  0  0  0  0  0  0  0  0
  -23.2232  -11.5063   21.5565 O   0  0  0  0  0  0  0  0  0  0  0  0
  -24.1492  -22.6775   15.9116 O   0  0  0  0  0  0  0  0  0  1  0  0
  -22.9227   -6.0754   20.6512 F   0  0  0  0  0  0  0  0  0  0  0  0
  -21.2958  -10.4527   19.8779 F   0  0  0  0  0  0  0  0  0  0  0  0
  1  2  1  0  0  0  0
  1  5  2  0  0  0  0
  2  6  2  0  0  0  0
  3  8  2  0  0  0  0
  3 15  1  0  0  0  0
  4  9  1  0  0  0  0
  4 15  2  0  0  0  0
  5 17  1  0  0  0  0
  6 19  1  0  0  0  0
  7 10  2  0  0  0  0
  7 18  1  0  0  0  0
  8 21  1  0  0  0  0
  9 21  2  0  0  0  0
 10 22  1  0  0  0  0
 11 12  2  0  0  0  0
 11 23  1  0  0  0  0
 12 24  1  0  0  0  0
 13 20  1  0  0  0  0
 13 22  2  0  0  0  0
 14 24  2  0  0  0  0
 14 25  1  0  0  0  0
 15 26  1  0  0  0  0
 16 26  1  0  0  0  0
 16 27  2  0  0  0  0
 16 29  1  0  0  0  0
 17 19  2  0  0  0  0
 17 35  1  0  0  0  0
 18 20  2  0  0  0  0
 18 36  1  0  0  0  0
 19 47  1  0  0  0  0
 20 37  1  0  0  0  0
 21 81  1  0  0  0  0
 22 82  1  0  0  0  0
 23 25  2  0  0  0  0
 23 81  1  0  0  0  0
 24 83  1  0  0  0  0
 25 84  1  0  0  0  0
 26 65  2  0  0  0  0
 27 66  1  0  0  0  0
 27 70  1  0  0  0  0
 28 30  2  0  0  0  0
 29 71  1  0  0  0  0
 29 76  2  0  0  0  0
 30 48  1  0  0  0  0
 30 52  1  0  0  0  0
 31 49  1  0  0  0  0
 31 72  1  0  0  0  0
 31 77  2  0  0  0  0
 32 61  1  0  0  0  0
 32 67  1  0  0  0  0
 32 78  2  0  0  0  0
 33 62  1  0  0  0  0
 33 73  1  0  0  0  0
 33 79  2  0  0  0  0
 34 68  1  0  0  0  0
 34 69  1  0  0  0  0
 34 80  2  0  0  0  0
 35 38  1  0  0  0  0
 36 49  1  0  0  0  0
 37 67  1  0  0  0  0
 38 40  1  0  0  0  0
 39 41  1  0  0  0  0
 39 43  1  0  0  0  0
 40 47  1  0  0  0  0
 41 50  1  0  0  0  0
 42 44  1  0  0  0  0
 42 48  1  0  0  0  0
 43 68  1  0  0  0  0
 44 69  1  0  0  0  0
 45 50  1  0  0  0  0
 45 68  1  0  0  0  0
 46 51  1  0  0  0  0
 46 69  1  0  0  0  0
 47 72  1  0  0  0  0
 48 51  1  0  0  0  0
 49 67  1  0  0  0  0
 50 66  1  0  0  0  0
 51 74  1  0  0  0  0
 53 62  1  0  0  0  0
 54 63  1  0  0  0  0
 55 64  1  0  0  0  0
 56 64  1  0  0  0  0
 57 64  1  0  0  0  0
 58 75  1  0  0  0  0
 59 60  1  0  0  0  0
 59 63  1  0  0  0  0
 60 74  1  0  0  0  0
 61 64  1  0  0  0  0
 61 73  1  0  0  0  0
 62 75  1  0  0  0  0
 63 82  1  0  0  0  0
 65 66  1  0  0  0  0
M  CHG  2  74   1  75   1
M  ISO  4  34 100  63 101  69 100  82 101
M  END
> <Batch ID>
0115

> <Smiles>
C=C(C)C1CC[100N:0]([100C:0](=O)N2CCCC(n3nc(-c4ccc(Oc5ccc(F)cc5F)cc4)c(C(N)=O)c3N)C2)CC1NCC[101CH:1](C)[101O:1]c1ccc2c(c1)CN(C(=O)C(NC(=O)C(C)NC)C(C)(C)C)C(C(=O)NC1CCCc3ccccc31)C2

> <Shape>
0.219

> <Color>
0.075

> <Negative vol penalty>
0.000

$$$$

  -OEChem-04052320103D

 87 96  0     1  0  0  0  0  0999 V2000
  -30.2616  -36.2397   23.8762 C   0  0  0  0  0  0  0  0  0  0  0  0
  -30.3451  -35.2816   22.8710 C   0  0  0  0  0  0  0  0  0  0  0  0
  -24.6938  -15.3243   22.3957 C   0  0  0  0  0  0  0  0  0  0  0  0
  -23.7014  -15.5056   20.2005 C   0  0  0  0  0  0  0  0  0  0  0  0
  -29.5207  -35.9774   25.0278 C   0  0  0  0  0  0  0  0  0  0  0  0
  -29.6885  -34.0602   23.0173 C   0  0  0  0  0  0  0  0  0  0  0  0
  -26.3539  -29.0188   19.1726 C   0  0  0  0  0  0  0  0  0  0  0  0
  -25.3437  -21.5434   17.4377 C   0  0  0  0  0  0  0  0  0  0  0  0
  -24.1807  -16.5772   22.7312 C   0  0  0  0  0  0  0  0  0  0  0  0
  -23.1882  -16.7585   20.5360 C   0  0  0  0  0  0  0  0  0  0  0  0
  -26.3666  -27.6407   18.9618 C   0  0  0  0  0  0  0  0  0  0  0  0
  -22.8281  -19.5698   24.2901 C   0  0  0  0  0  0  0  0  0  0  0  0
  -22.2212  -19.7090   25.5382 C   0  0  0  0  0  0  0  0  0  0  0  0
  -25.4395  -22.9296   17.4879 C   0  0  0  0  0  0  0  0  0  0  0  0
  -25.0508  -27.3290   20.9594 C   0  0  0  0  0  0  0  0  0  0  0  0
  -20.6033  -18.0172   24.9401 C   0  0  0  0  0  0  0  0  0  0  0  0
  -24.4542  -14.7885   21.1303 C   0  0  0  0  0  0  0  0  0  0  0  0
  -24.3615  -12.2448   20.9611 C   0  0  0  0  0  0  0  0  0  0  0  0
  -28.8468  -34.7559   25.1840 C   0  0  0  0  0  0  0  0  0  0  0  0
  -25.6976  -29.5624   20.2863 C   0  0  0  0  0  0  0  0  0  0  0  0
  -28.9390  -33.7808   24.1726 C   0  0  0  0  0  0  0  0  0  0  0  0
  -25.0290  -28.7145   21.1807 C   0  0  0  0  0  0  0  0  0  0  0  0
  -26.0990  -20.7678   18.3102 C   0  0  0  0  0  0  0  0  0  0  0  0
  -23.4279  -17.2943   21.8014 C   0  0  0  0  0  0  0  0  0  0  0  0
  -25.7175  -26.7954   19.8568 C   0  0  0  0  0  0  0  0  0  0  0  0
  -22.3226  -18.6544   23.3669 C   0  0  0  0  0  0  0  0  0  0  0  0
  -21.1088  -18.9327   25.8633 C   0  0  0  0  0  0  0  0  0  0  0  0
  -21.2103  -17.8781   23.6920 C   0  0  0  0  0  0  0  0  0  0  0  0
  -24.9845  -13.4946   20.7830 C   0  0  0  0  0  0  0  0  0  0  0  0
  -26.2984  -23.4869   18.4214 C   0  0  0  0  0  0  0  0  0  0  0  0
  -26.9285  -21.4219   19.2068 C   0  0  0  0  0  0  0  0  0  0  0  0
  -25.2694  -11.3362   20.4747 C   0  0  0  0  0  0  0  0  0  0  0  0
  -23.0770  -11.9331   21.5166 C   0  0  0  0  0  0  0  0  0  0  0  0
  -26.6044  -31.2574   22.8177 C   0  0  0  0  0  0  0  0  0  0  0  0
  -23.4132  -31.3909   23.3840 C   0  0  0  0  0  0  0  0  0  0  0  0
  -20.3287  -30.0048   22.9244 C   0  0  0  0  0  0  0  0  0  0  0  0
  -29.0854  -14.8702   18.6326 C   0  0  0  0  0  0  0  0  0  0  0  0
  -28.0971  -34.4994   26.4673 C   0  0  0  0  0  0  0  0  0  0  0  0
  -25.6704  -31.0531   20.4850 C   0  0  0  0  0  0  0  0  0  0  0  0
  -24.2927  -29.2496   22.3808 C   0  0  0  0  0  0  0  0  0  0  0  0
  -27.1234  -33.3269   26.3800 C   0  0  0  0  0  0  0  0  0  0  0  0
  -29.4411  -12.2705   21.0572 C   0  0  0  0  0  0  0  0  0  0  0  0
  -27.7921  -32.1258   25.7190 C   0  0  0  0  0  0  0  0  0  0  0  0
  -28.6336  -11.1034   20.5000 C   0  0  0  0  0  0  0  0  0  0  0  0
  -29.2958  -15.4832   15.0665 C   0  0  0  0  0  0  0  0  0  0  0  0
  -30.1150  -13.0415   19.9327 C   0  0  0  0  0  0  0  0  0  0  0  0
  -28.9588  -14.4462   16.1276 C   0  0  0  0  0  0  0  0  0  0  0  0
  -28.2678  -12.4713   18.3679 C   0  0  0  0  0  0  0  0  0  0  0  0
  -28.2205  -32.4535   24.2836 C   0  0  1  0  0  0  0  0  0  0  0  0
  -25.4074  -31.4583   21.9321 C   0  0  1  0  0  0  0  0  0  0  0  0
  -28.3898  -16.6532   15.4503 C   0  0  1  0  0  0  0  0  0  0  0  0
  -27.6264  -11.5436   19.4256 C   0  0  2  0  0  0  0  0  0  0  0  0
  -28.4466  -16.6374   16.9883 C   0  0  1  0  0  0  0  0  0  0  0  0
  -27.7606  -20.6404   20.1699 C   0  0  0  0  0  0  0  0  0  0  0  0
  -28.8434  -17.9700   14.8404 C   0  0  0  0  0  0  0  0  0  0  0  0
  -17.9165  -30.3181   23.5412 C   0  0  0  0  0  0  0  0  0  0  0  0
  -23.9913  -30.3169   26.1808 C   0  0  0  0  0  0  0  0  0  0  0  0
  -21.5595  -29.7610   26.3942 C   0  0  0  0  0  0  0  0  0  0  0  0
  -22.2734  -32.1324   26.0950 C   0  0  0  0  0  0  0  0  0  0  0  0
  -19.5251  -30.3166   20.0932 C   0  0  0  0  0  0  0  0  0  0  0  0
  -26.0008  -19.2716   18.2600 C   0  0  0  0  0  0  0  0  0  0  0  0
  -26.4246  -24.9717   18.5040 C   0  0  0  0  0  0  0  0  0  1  0  0
  -27.1545  -17.1524   17.6143 C   0  0  0  0  0  0  0  0  0  0  0  0
  -22.4249  -30.5362   24.1401 C   0  0  1  0  0  0  0  0  0  0  0  0
  -19.0003  -30.6160   22.5168 C   0  0  2  0  0  0  0  0  0  0  0  0
  -22.5777  -30.6761   25.6811 C   0  0  0  0  0  0  0  0  0  0  0  0
  -26.1947  -13.3929   20.2269 N   0  0  0  0  0  0  0  0  0  0  0  0
  -27.0480  -22.7663   19.2852 N   0  0  0  0  0  0  0  0  0  0  0  0
  -26.3394  -12.0684   20.0516 N   0  0  0  0  0  0  0  0  0  0  0  0
  -24.3002  -30.7137   22.5352 N   0  0  0  0  0  0  0  0  0  0  0  0
  -29.1527  -13.5012   18.9314 N   0  0  0  0  0  0  0  0  0  0  0  0
  -28.7116  -15.2341   17.3365 N   0  0  0  0  0  0  0  0  0  0  0  0
  -25.2488   -9.9903   20.3721 N   0  0  0  0  0  0  0  0  0  0  0  0
  -22.2711  -12.9869   21.9688 N   0  0  0  0  0  0  0  0  0  0  0  0
  -27.0785  -32.4199   23.3952 N   0  0  0  0  0  0  0  0  0  0  0  0
  -21.1042  -30.8960   23.6355 N   0  0  0  0  0  0  0  0  0  0  0  0
  -18.5633  -30.0739   21.1991 N   0  3  0  0  0  0  0  0  0  0  0  0
  -27.1846  -18.6297   17.6202 N   0  3  0  0  0  0  0  0  0  0  0  0
  -22.6631  -10.7539   21.6243 O   0  0  0  0  0  0  0  0  0  0  0  0
  -27.0631  -30.1309   22.9674 O   0  0  0  0  0  0  0  0  0  0  0  0
  -23.3941  -32.6150   23.5353 O   0  0  0  0  0  0  0  0  0  0  0  0
  -20.6452  -28.8508   22.6436 O   0  0  0  0  0  0  0  0  0  0  0  0
  -29.3554  -15.7290   19.4825 O   0  0  0  0  0  0  0  0  0  0  0  0
  -22.9268  -18.5168   22.1285 O   0  0  0  0  0  0  0  0  0  0  0  0
  -25.7290  -25.4404   19.6523 O   0  0  0  0  0  0  0  0  0  1  0  0
  -20.5270  -19.0654   27.0625 F   0  0  0  0  0  0  0  0  0  0  0  0
  -20.7208  -16.9961   22.8097 F   0  0  0  0  0  0  0  0  0  0  0  0
  1  2  1  0  0  0  0
  1  5  2  0  0  0  0
  2  6  2  0  0  0  0
  3  9  2  0  0  0  0
  3 17  1  0  0  0  0
  4 10  1  0  0  0  0
  4 17  2  0  0  0  0
  5 19  1  0  0  0  0
  6 21  1  0  0  0  0
  7 11  2  0  0  0  0
  7 20  1  0  0  0  0
  8 14  2  0  0  0  0
  8 23  1  0  0  0  0
  9 24  1  0  0  0  0
 10 24  2  0  0  0  0
 11 25  1  0  0  0  0
 12 13  2  0  0  0  0
 12 26  1  0  0  0  0
 13 27  1  0  0  0  0
 14 30  1  0  0  0  0
 15 22  1  0  0  0  0
 15 25  2  0  0  0  0
 16 27  2  0  0  0  0
 16 28  1  0  0  0  0
 17 29  1  0  0  0  0
 18 29  1  0  0  0  0
 18 32  2  0  0  0  0
 18 33  1  0  0  0  0
 19 21  2  0  0  0  0
 19 38  1  0  0  0  0
 20 22  2  0  0  0  0
 20 39  1  0  0  0  0
 21 49  1  0  0  0  0
 22 40  1  0  0  0  0
 23 31  2  0  0  0  0
 23 61  1  0  0  0  0
 24 84  1  0  0  0  0
 25 85  1  0  0  0  0
 26 28  2  0  0  0  0
 26 84  1  0  0  0  0
 27 86  1  0  0  0  0
 28 87  1  0  0  0  0
 29 67  2  0  0  0  0
 30 62  1  0  0  0  0
 30 68  2  0  0  0  0
 31 54  1  0  0  0  0
 31 68  1  0  0  0  0
 32 69  1  0  0  0  0
 32 73  1  0  0  0  0
 33 74  1  0  0  0  0
 33 79  2  0  0  0  0
 34 50  1  0  0  0  0
 34 75  1  0  0  0  0
 34 80  2  0  0  0  0
 35 64  1  0  0  0  0
 35 70  1  0  0  0  0
 35 81  2  0  0  0  0
 36 65  1  0  0  0  0
 36 76  1  0  0  0  0
 36 82  2  0  0  0  0
 37 71  1  0  0  0  0
 37 72  1  0  0  0  0
 37 83  2  0  0  0  0
 38 41  1  0  0  0  0
 39 50  1  0  0  0  0
 40 70  1  0  0  0  0
 41 43  1  0  0  0  0
 42 44  1  0  0  0  0
 42 46  1  0  0  0  0
 43 49  1  0  0  0  0
 44 52  1  0  0  0  0
 45 47  1  0  0  0  0
 45 51  1  0  0  0  0
 46 71  1  0  0  0  0
 47 72  1  0  0  0  0
 48 52  1  0  0  0  0
 48 71  1  0  0  0  0
 49 75  1  0  0  0  0
 50 70  1  0  0  0  0
 51 53  1  0  0  0  0
 51 55  1  0  0  0  0
 52 69  1  0  0  0  0
 53 63  1  0  0  0  0
 53 72  1  0  0  0  0
 56 65  1  0  0  0  0
 57 66  1  0  0  0  0
 58 66  1  0  0  0  0
 59 66  1  0  0  0  0
 60 77  1  0  0  0  0
 61 78  1  0  0  0  0
 62 85  1  0  0  0  0
 63 78  1  0  0  0  0
 64 66  1  0  0  0  0
 64 76  1  0  0  0  0
 65 77  1  0  0  0  0
 67 69  1  0  0  0  0
M  CHG  2  77   1  78   1
M  ISO  4  37 100  62 101  72 100  85 101
M  END
> <Batch ID>
0115

> <Smiles>
CNC(C)C(=O)NC(C(=O)N1Cc2cc([101O:1][101CH2:1]c3ccc(CNCC4C(C)CC[100N:0]4[100C:0](=O)N4CCCC(n5nc(-c6ccc(Oc7ccc(F)cc7F)cc6)c(C(N)=O)c5N)C4)c(C)n3)ccc2CC1C(=O)NC1CCCc2ccccc21)C(C)(C)C

> <Shape>
0.230

> <Color>
0.099

> <Negative vol penalty>
0.000

$$$$

  -OEChem-04052320103D

 82 90  0     1  0  0  0  0  0999 V2000
  -29.4357  -27.5414   31.1369 C   0  0  0  0  0  0  0  0  0  0  0  0
  -29.3578  -26.7203   30.0165 C   0  0  0  0  0  0  0  0  0  0  0  0
  -23.0751   -9.8675   19.9431 C   0  0  0  0  0  0  0  0  0  0  0  0
  -23.8357   -9.8790   22.2363 C   0  0  0  0  0  0  0  0  0  0  0  0
  -28.2916  -27.8012   31.8902 C   0  0  0  0  0  0  0  0  0  0  0  0
  -28.1359  -26.1577   29.6495 C   0  0  0  0  0  0  0  0  0  0  0  0
  -26.1428  -25.0734   23.9611 C   0  0  0  0  0  0  0  0  0  0  0  0
  -22.3319   -8.7144   20.1954 C   0  0  0  0  0  0  0  0  0  0  0  0
  -23.0925   -8.7259   22.4886 C   0  0  0  0  0  0  0  0  0  0  0  0
  -26.1252  -23.9206   23.1772 C   0  0  0  0  0  0  0  0  0  0  0  0
  -19.8649   -7.9276   23.0935 C   0  0  0  0  0  0  0  0  0  0  0  0
  -19.1083   -7.8894   24.2647 C   0  0  0  0  0  0  0  0  0  0  0  0
  -27.0439  -18.4479   20.0176 C   0  0  0  0  0  0  0  0  0  0  0  0
  -23.8502  -23.4986   23.8597 C   0  0  0  0  0  0  0  0  0  0  0  0
  -20.3510   -5.9539   25.0043 C   0  0  0  0  0  0  0  0  0  0  0  0
  -28.3113  -17.9691   19.7686 C   0  0  0  0  0  0  0  0  0  0  0  0
  -28.3825  -19.0676   21.7187 C   0  0  0  0  0  0  0  0  0  0  0  0
  -23.8271  -10.4498   20.9636 C   0  0  0  0  0  0  0  0  0  0  0  0
  -24.1676  -12.9749   20.8389 C   0  0  0  0  0  0  0  0  0  0  0  0
  -27.0532  -27.2492   31.5266 C   0  0  0  0  0  0  0  0  0  0  0  0
  -25.0161  -25.4422   24.7100 C   0  0  0  0  0  0  0  0  0  0  0  0
  -26.9744  -26.4093   30.3994 C   0  0  0  0  0  0  0  0  0  0  0  0
  -23.8553  -24.6579   24.6503 C   0  0  0  0  0  0  0  0  0  0  0  0
  -27.0890  -19.1427   21.2514 C   0  0  0  0  0  0  0  0  0  0  0  0
  -22.3405   -8.1437   21.4681 C   0  0  0  0  0  0  0  0  0  0  0  0
  -24.9798  -23.1314   23.1286 C   0  0  0  0  0  0  0  0  0  0  0  0
  -20.8645   -6.9789   22.8776 C   0  0  0  0  0  0  0  0  0  0  0  0
  -19.3514   -6.9026   25.2201 C   0  0  0  0  0  0  0  0  0  0  0  0
  -21.1075   -5.9921   23.8330 C   0  0  0  0  0  0  0  0  0  0  0  0
  -24.5955  -11.6406   20.7034 C   0  0  0  0  0  0  0  0  0  0  0  0
  -25.2592  -13.7243   20.4739 C   0  0  0  0  0  0  0  0  0  0  0  0
  -22.8970  -13.4908   21.2572 C   0  0  0  0  0  0  0  0  0  0  0  0
  -24.4078  -25.8252   27.8063 C   0  0  0  0  0  0  0  0  0  0  0  0
  -21.5535  -26.9112   26.7126 C   0  0  0  0  0  0  0  0  0  0  0  0
  -19.2285  -26.9385   24.2145 C   0  0  0  0  0  0  0  0  0  0  0  0
  -30.7425  -14.7464   20.6587 C   0  0  0  0  0  0  0  0  0  0  0  0
  -25.8532  -27.5206   32.3991 C   0  0  0  0  0  0  0  0  0  0  0  0
  -25.0422  -26.7031   25.5297 C   0  0  0  0  0  0  0  0  0  0  0  0
  -22.6124  -25.0212   25.4196 C   0  0  0  0  0  0  0  0  0  0  0  0
  -24.5237  -27.1879   31.7269 C   0  0  0  0  0  0  0  0  0  0  0  0
  -29.6054  -12.3571   18.2766 C   0  0  0  0  0  0  0  0  0  0  0  0
  -24.5931  -25.8207   31.0540 C   0  0  0  0  0  0  0  0  0  0  0  0
  -28.1682  -12.0634   18.7105 C   0  0  0  0  0  0  0  0  0  0  0  0
  -30.5228  -12.5805   19.4768 C   0  0  0  0  0  0  0  0  0  0  0  0
  -28.6211  -13.3131   20.8627 C   0  0  0  0  0  0  0  0  0  0  0  0
  -25.6622  -25.8004   29.9549 C   0  0  1  0  0  0  0  0  0  0  0  0
  -24.0120  -26.7057   26.6549 C   0  0  1  0  0  0  0  0  0  0  0  0
  -27.6467  -13.1359   19.6857 C   0  0  2  0  0  0  0  0  0  0  0  0
  -16.9817  -27.8880   23.6249 C   0  0  0  0  0  0  0  0  0  0  0  0
  -20.2159  -24.8914   28.5676 C   0  0  0  0  0  0  0  0  0  0  0  0
  -18.0980  -25.2074   27.2704 C   0  0  0  0  0  0  0  0  0  0  0  0
  -19.1085  -27.1325   28.4934 C   0  0  0  0  0  0  0  0  0  0  0  0
  -25.1991  -17.7713   23.1279 C   0  0  0  0  0  0  0  0  0  0  0  0
  -20.3227  -28.3786   21.8718 C   0  0  0  0  0  0  0  0  0  0  0  0
  -30.5245  -18.0490   20.9283 C   0  0  0  0  0  0  0  0  0  0  0  0
  -30.8076  -16.8993   21.8917 C   0  0  0  0  0  0  0  0  0  0  0  0
  -26.2000  -21.3234   22.1811 C   0  0  0  0  0  0  0  0  0  1  0  0
  -25.9320  -19.8376   21.9311 C   0  0  2  0  0  0  0  0  0  0  0  0
  -20.2214  -26.2784   26.3900 C   0  0  1  0  0  0  0  0  0  0  0  0
  -18.4880  -28.0793   23.5401 C   0  0  2  0  0  0  0  0  0  0  0  0
  -19.4349  -25.8693   27.6673 C   0  0  0  0  0  0  0  0  0  0  0  0
  -25.8602  -11.5446   20.2849 N   0  0  0  0  0  0  0  0  0  0  0  0
  -29.1167  -18.3522   20.8092 N   0  0  0  0  0  0  0  0  0  0  0  0
  -26.2365  -12.8282   20.1542 N   0  0  0  0  0  0  0  0  0  0  0  0
  -22.6895  -26.2599   26.2114 N   0  0  0  0  0  0  0  0  0  0  0  0
  -29.9720  -13.6104   20.3611 N   0  0  0  0  0  0  0  0  0  0  0  0
  -25.4689  -15.0557   20.3984 N   0  0  0  0  0  0  0  0  0  0  0  0
  -21.8856  -12.5817   21.5965 N   0  0  0  0  0  0  0  0  0  0  0  0
  -25.1748  -26.4617   28.7634 N   0  0  0  0  0  0  0  0  0  0  0  0
  -19.5169  -27.2250   25.5321 N   0  0  0  0  0  0  0  0  0  0  0  0
  -30.1431  -15.6765   21.4993 N   0  0  0  0  0  0  0  0  0  0  0  0
  -25.5773  -19.2002   23.2399 N   0  3  0  0  0  0  0  0  0  0  0  0
  -18.8705  -28.1669   22.1024 N   0  3  0  0  0  0  0  0  0  0  0  0
  -22.6601  -14.7214   21.3124 O   0  0  0  0  0  0  0  0  0  0  0  0
  -24.0431  -24.6555   27.8256 O   0  0  0  0  0  0  0  0  0  0  0  0
  -21.5846  -27.9491   27.3785 O   0  0  0  0  0  0  0  0  0  0  0  0
  -19.5186  -25.8960   23.6319 O   0  0  0  0  0  0  0  0  0  0  0  0
  -31.8782  -14.9217   20.2044 O   0  0  0  0  0  0  0  0  0  0  0  0
  -21.6153   -7.0186   21.7147 O   0  0  0  0  0  0  0  0  0  0  0  0
  -24.9600  -22.0054   22.3648 O   0  0  0  0  0  0  0  0  0  1  0  0
  -18.6258   -6.8669   26.3455 F   0  0  0  0  0  0  0  0  0  0  0  0
  -22.0672   -5.0787   23.6318 F   0  0  0  0  0  0  0  0  0  0  0  0
  1  2  1  0  0  0  0
  1  5  2  0  0  0  0
  2  6  2  0  0  0  0
  3  8  2  0  0  0  0
  3 18  1  0  0  0  0
  4  9  1  0  0  0  0
  4 18  2  0  0  0  0
  5 20  1  0  0  0  0
  6 22  1  0  0  0  0
  7 10  2  0  0  0  0
  7 21  1  0  0  0  0
  8 25  1  0  0  0  0
  9 25  2  0  0  0  0
 10 26  1  0  0  0  0
 11 12  2  0  0  0  0
 11 27  1  0  0  0  0
 12 28  1  0  0  0  0
 13 16  2  0  0  0  0
 13 24  1  0  0  0  0
 14 23  1  0  0  0  0
 14 26  2  0  0  0  0
 15 28  2  0  0  0  0
 15 29  1  0  0  0  0
 16 63  1  0  0  0  0
 17 24  2  0  0  0  0
 17 63  1  0  0  0  0
 18 30  1  0  0  0  0
 19 30  1  0  0  0  0
 19 31  2  0  0  0  0
 19 32  1  0  0  0  0
 20 22  2  0  0  0  0
 20 37  1  0  0  0  0
 21 23  2  0  0  0  0
 21 38  1  0  0  0  0
 22 46  1  0  0  0  0
 23 39  1  0  0  0  0
 24 58  1  0  0  0  0
 25 79  1  0  0  0  0
 26 80  1  0  0  0  0
 27 29  2  0  0  0  0
 27 79  1  0  0  0  0
 28 81  1  0  0  0  0
 29 82  1  0  0  0  0
 30 62  2  0  0  0  0
 31 64  1  0  0  0  0
 31 67  1  0  0  0  0
 32 68  1  0  0  0  0
 32 74  2  0  0  0  0
 33 47  1  0  0  0  0
 33 69  1  0  0  0  0
 33 75  2  0  0  0  0
 34 59  1  0  0  0  0
 34 65  1  0  0  0  0
 34 76  2  0  0  0  0
 35 60  1  0  0  0  0
 35 70  1  0  0  0  0
 35 77  2  0  0  0  0
 36 66  1  0  0  0  0
 36 71  1  0  0  0  0
 36 78  2  0  0  0  0
 37 40  1  0  0  0  0
 38 47  1  0  0  0  0
 39 65  1  0  0  0  0
 40 42  1  0  0  0  0
 41 43  1  0  0  0  0
 41 44  1  0  0  0  0
 42 46  1  0  0  0  0
 43 48  1  0  0  0  0
 44 66  1  0  0  0  0
 45 48  1  0  0  0  0
 45 66  1  0  0  0  0
 46 69  1  0  0  0  0
 47 65  1  0  0  0  0
 48 64  1  0  0  0  0
 49 60  1  0  0  0  0
 50 61  1  0  0  0  0
 51 61  1  0  0  0  0
 52 61  1  0  0  0  0
 53 72  1  0  0  0  0
 54 73  1  0  0  0  0
 55 56  1  0  0  0  0
 55 63  1  0  0  0  0
 56 71  1  0  0  0  0
 57 58  1  0  0  0  0
 57 80  1  0  0  0  0
 58 72  1  0  0  0  0
 59 61  1  0  0  0  0
 59 70  1  0  0  0  0
 60 73  1  0  0  0  0
 62 64  1  0  0  0  0
M  CHG  2  72   1  73   1
M  ISO  4  36 100  57 101  71 100  80 101
M  END
> <Batch ID>
0115

> <Smiles>
CNC(C)C(=O)NC(C(=O)N1Cc2cc([101O:1][101CH2:1]C(NC)c3ccn(CC[100NH:0][100C:0](=O)N4CCCC(n5nc(-c6ccc(Oc7ccc(F)cc7F)cc6)c(C(N)=O)c5N)C4)c3)ccc2CC1C(=O)NC1CCCc2ccccc21)C(C)(C)C

> <Shape>
0.219

> <Color>
0.191

> <Negative vol penalty>
0.000

$$$$

  -OEChem-04052320103D

 80 88  0     1  0  0  0  0  0999 V2000
  -21.3688  -21.2205   25.1565 C   0  0  0  0  0  0  0  0  0  0  0  0
  -22.6083  -21.2471   24.5253 C   0  0  0  0  0  0  0  0  0  0  0  0
  -24.2742  -13.3049   21.1439 C   0  0  0  0  0  0  0  0  0  0  0  0
  -26.6031  -13.0304   20.5623 C   0  0  0  0  0  0  0  0  0  0  0  0
  -20.4219  -22.2035   24.8723 C   0  0  0  0  0  0  0  0  0  0  0  0
  -22.9012  -22.2563   23.6087 C   0  0  0  0  0  0  0  0  0  0  0  0
  -28.3438  -24.8970   22.6545 C   0  0  0  0  0  0  0  0  0  0  0  0
  -23.9944  -12.0433   20.6188 C   0  0  0  0  0  0  0  0  0  0  0  0
  -26.3233  -11.7688   20.0373 C   0  0  0  0  0  0  0  0  0  0  0  0
  -29.3327  -24.6873   21.6944 C   0  0  0  0  0  0  0  0  0  0  0  0
  -24.3189   -8.8176   21.5793 C   0  0  0  0  0  0  0  0  0  0  0  0
  -23.5016   -7.9707   22.3278 C   0  0  0  0  0  0  0  0  0  0  0  0
  -28.4286  -26.4946   20.3770 C   0  0  0  0  0  0  0  0  0  0  0  0
  -21.9132   -7.8959   20.5088 C   0  0  0  0  0  0  0  0  0  0  0  0
  -31.6233  -20.5913   20.0700 C   0  0  0  0  0  0  0  0  0  0  0  0
  -32.3185  -22.5597   21.0035 C   0  0  0  0  0  0  0  0  0  0  0  0
  -25.5786  -13.7985   21.1156 C   0  0  0  0  0  0  0  0  0  0  0  0
  -26.2352  -15.4100   22.9809 C   0  0  0  0  0  0  0  0  0  0  0  0
  -20.7068  -23.2308   23.9590 C   0  0  0  0  0  0  0  0  0  0  0  0
  -27.3816  -25.9018   22.4776 C   0  0  0  0  0  0  0  0  0  0  0  0
  -21.9566  -23.2532   23.3110 C   0  0  0  0  0  0  0  0  0  0  0  0
  -27.4301  -26.7168   21.3376 C   0  0  0  0  0  0  0  0  0  0  0  0
  -25.0189  -11.2752   20.0656 C   0  0  0  0  0  0  0  0  0  0  0  0
  -29.3735  -25.4842   20.5541 C   0  0  0  0  0  0  0  0  0  0  0  0
  -23.9334   -9.2038   20.2956 C   0  0  0  0  0  0  0  0  0  0  0  0
  -22.2988   -7.5098   21.7926 C   0  0  0  0  0  0  0  0  0  0  0  0
  -22.7305   -8.7429   19.7603 C   0  0  0  0  0  0  0  0  0  0  0  0
  -25.8682  -15.1019   21.6572 C   0  0  0  0  0  0  0  0  0  0  0  0
  -30.9006  -21.2924   19.1299 C   0  0  0  0  0  0  0  0  0  0  0  0
  -31.5965  -23.2609   20.0630 C   0  0  0  0  0  0  0  0  0  0  0  0
  -26.3975  -16.7738   22.9837 C   0  0  0  0  0  0  0  0  0  0  0  0
  -26.4137  -14.5410   24.1073 C   0  0  0  0  0  0  0  0  0  0  0  0
  -24.2169  -25.9503   22.1841 C   0  0  0  0  0  0  0  0  0  0  0  0
  -24.6470  -29.1639   22.2833 C   0  0  0  0  0  0  0  0  0  0  0  0
  -26.7270  -31.8251   21.7947 C   0  0  0  0  0  0  0  0  0  0  0  0
  -27.7106  -20.7323   18.6875 C   0  0  0  0  0  0  0  0  0  0  0  0
  -19.6340  -24.2444   23.6486 C   0  0  0  0  0  0  0  0  0  0  0  0
  -26.3375  -26.1328   23.5353 C   0  0  0  0  0  0  0  0  0  0  0  0
  -26.4326  -27.8221   21.1100 C   0  0  0  0  0  0  0  0  0  0  0  0
  -20.1607  -25.4929   22.9456 C   0  0  0  0  0  0  0  0  0  0  0  0
  -24.8417  -20.7342   20.7960 C   0  0  0  0  0  0  0  0  0  0  0  0
  -21.0978  -25.1081   21.8051 C   0  0  0  0  0  0  0  0  0  0  0  0
  -24.8125  -19.3187   21.3753 C   0  0  0  0  0  0  0  0  0  0  0  0
  -25.3227  -20.7411   19.3467 C   0  0  0  0  0  0  0  0  0  0  0  0
  -26.5881  -18.6559   19.6999 C   0  0  0  0  0  0  0  0  0  0  0  0
  -22.3208  -24.3458   22.3293 C   0  0  1  0  0  0  0  0  0  0  0  0
  -25.0984  -26.8479   23.0057 C   0  0  1  0  0  0  0  0  0  0  0  0
  -26.1628  -18.6039   21.1773 C   0  0  2  0  0  0  0  0  0  0  0  0
  -32.6949  -25.3556   19.1978 C   0  0  0  0  0  0  0  0  0  0  0  0
  -26.7836  -34.3306   21.9228 C   0  0  0  0  0  0  0  0  0  0  0  0
  -23.0633  -29.3304   19.6806 C   0  0  0  0  0  0  0  0  0  0  0  0
  -23.9516  -31.6505   19.3698 C   0  0  0  0  0  0  0  0  0  0  0  0
  -22.5249  -31.1172   21.3454 C   0  0  0  0  0  0  0  0  0  0  0  0
  -28.8647  -31.7879   23.8411 C   0  0  0  0  0  0  0  0  0  0  0  0
  -30.1142  -20.5733   18.0903 C   0  0  0  0  0  0  0  0  0  0  0  0
  -31.5905  -24.7724   20.0701 C   0  0  1  0  0  0  0  0  0  1  0  0
  -24.8950  -30.2416   21.2556 C   0  0  1  0  0  0  0  0  0  0  0  0
  -27.0443  -33.0285   22.6640 C   0  0  2  0  0  0  0  0  0  0  0  0
  -23.6265  -30.5629   20.4159 C   0  0  0  0  0  0  0  0  0  0  0  0
  -32.3452  -21.2124   21.0237 N   0  0  0  0  0  0  0  0  0  0  0  0
  -25.8010  -16.1830   20.8759 N   0  0  0  0  0  0  0  0  0  0  0  0
  -30.8743  -22.6398   19.1095 N   0  0  0  0  0  0  0  0  0  0  0  0
  -26.1280  -17.1838   21.7111 N   0  0  0  0  0  0  0  0  0  0  0  0
  -25.4273  -28.0045   22.1700 N   0  0  0  0  0  0  0  0  0  0  0  0
  -26.6085  -20.0493   19.2278 N   0  0  0  0  0  0  0  0  0  0  0  0
  -26.7430  -17.6504   23.9504 N   0  0  0  0  0  0  0  0  0  0  0  0
  -26.2066  -13.1662   23.9300 N   0  0  0  0  0  0  0  0  0  0  0  0
  -23.2720  -25.2621   22.9209 N   0  0  0  0  0  0  0  0  0  0  0  0
  -25.4343  -31.3845   21.9846 N   0  0  0  0  0  0  0  0  0  0  0  0
  -28.8928  -20.0056   18.6163 N   0  0  0  0  0  0  0  0  0  0  0  0
  -28.4748  -33.0034   23.0812 N   0  3  0  0  0  0  0  0  0  0  0  0
  -26.7308  -14.9728   25.2415 O   0  0  0  0  0  0  0  0  0  0  0  0
  -24.3810  -25.8879   20.9713 O   0  0  0  0  0  0  0  0  0  0  0  0
  -23.7975  -29.3471   23.1587 O   0  0  0  0  0  0  0  0  0  0  0  0
  -27.5431  -31.3281   21.0216 O   0  0  0  0  0  0  0  0  0  0  0  0
  -27.6471  -21.9047   18.3023 O   0  0  0  0  0  0  0  0  0  0  0  0
  -24.7463  -10.0440   19.5534 O   0  0  0  0  0  0  0  0  0  0  0  0
  -30.3373  -25.2811   19.6150 O   0  0  0  0  0  0  0  0  0  1  0  0
  -21.5147   -6.6953   22.5109 F   0  0  0  0  0  0  0  0  0  0  0  0
  -22.3554   -9.1095   18.5272 F   0  0  0  0  0  0  0  0  0  0  0  0
  1  2  1  0  0  0  0
  1  5  2  0  0  0  0
  2  6  2  0  0  0  0
  3  8  2  0  0  0  0
  3 17  1  0  0  0  0
  4  9  1  0  0  0  0
  4 17  2  0  0  0  0
  5 19  1  0  0  0  0
  6 21  1  0  0  0  0
  7 10  2  0  0  0  0
  7 20  1  0  0  0  0
  8 23  1  0  0  0  0
  9 23  2  0  0  0  0
 10 24  1  0  0  0  0
 11 12  2  0  0  0  0
 11 25  1  0  0  0  0
 12 26  1  0  0  0  0
 13 22  1  0  0  0  0
 13 24  2  0  0  0  0
 14 26  2  0  0  0  0
 14 27  1  0  0  0  0
 15 29  2  0  0  0  0
 15 60  1  0  0  0  0
 16 30  1  0  0  0  0
 16 60  2  0  0  0  0
 17 28  1  0  0  0  0
 18 28  1  0  0  0  0
 18 31  2  0  0  0  0
 18 32  1  0  0  0  0
 19 21  2  0  0  0  0
 19 37  1  0  0  0  0
 20 22  2  0  0  0  0
 20 38  1  0  0  0  0
 21 46  1  0  0  0  0
 22 39  1  0  0  0  0
 23 77  1  0  0  0  0
 24 78  1  0  0  0  0
 25 27  2  0  0  0  0
 25 77  1  0  0  0  0
 26 79  1  0  0  0  0
 27 80  1  0  0  0  0
 28 61  2  0  0  0  0
 29 55  1  0  0  0  0
 29 62  1  0  0  0  0
 30 56  1  0  0  0  0
 30 62  2  0  0  0  0
 31 63  1  0  0  0  0
 31 66  1  0  0  0  0
 32 67  1  0  0  0  0
 32 72  2  0  0  0  0
 33 47  1  0  0  0  0
 33 68  1  0  0  0  0
 33 73  2  0  0  0  0
 34 57  1  0  0  0  0
 34 64  1  0  0  0  0
 34 74  2  0  0  0  0
 35 58  1  0  0  0  0
 35 69  1  0  0  0  0
 35 75  2  0  0  0  0
 36 65  1  0  0  0  0
 36 70  1  0  0  0  0
 36 76  2  0  0  0  0
 37 40  1  0  0  0  0
 38 47  1  0  0  0  0
 39 64  1  0  0  0  0
 40 42  1  0  0  0  0
 41 43  1  0  0  0  0
 41 44  1  0  0  0  0
 42 46  1  0  0  0  0
 43 48  1  0  0  0  0
 44 65  1  0  0  0  0
 45 48  1  0  0  0  0
 45 65  1  0  0  0  0
 46 68  1  0  0  0  0
 47 64  1  0  0  0  0
 48 63  1  0  0  0  0
 49 56  1  0  0  0  0
 50 58  1  0  0  0  0
 51 59  1  0  0  0  0
 52 59  1  0  0  0  0
 53 59  1  0  0  0  0
 54 71  1  0  0  0  0
 55 70  1  0  0  0  0
 56 78  1  0  0  0  0
 57 59  1  0  0  0  0
 57 69  1  0  0  0  0
 58 71  1  0  0  0  0
 61 63  1  0  0  0  0
M  CHG  1  71   1
M  ISO  4  36 100  56 101  70 100  78 101
M  END
> <Batch ID>
0115

> <Smiles>
CNC(C)C(=O)NC(C(=O)N1Cc2cc([101O:1][101CH:1](C)c3cncc(C[100NH:0][100C:0](=O)N4CCCC(n5nc(-c6ccc(Oc7ccc(F)cc7F)cc6)c(C(N)=O)c5N)C4)n3)ccc2CC1C(=O)NC1CCCc2ccccc21)C(C)(C)C

> <Shape>
0.192

> <Color>
0.061

> <Negative vol penalty>
0.000

$$$$

  -OEChem-04052320103D

 85 93  0     1  0  0  0  0  0999 V2000
  -19.0639  -22.7247   23.6791 C   0  0  0  0  0  0  0  0  0  0  0  0
  -20.3772  -22.2788   23.5701 C   0  0  0  0  0  0  0  0  0  0  0  0
  -26.1198  -12.7047   21.6030 C   0  0  0  0  0  0  0  0  0  0  0  0
  -25.1931  -13.3690   19.4729 C   0  0  0  0  0  0  0  0  0  0  0  0
  -18.6569  -23.8658   22.9891 C   0  0  0  0  0  0  0  0  0  0  0  0
  -21.2841  -22.9732   22.7702 C   0  0  0  0  0  0  0  0  0  0  0  0
  -28.2347  -24.6634   22.3852 C   0  0  0  0  0  0  0  0  0  0  0  0
  -25.1811  -11.6768   21.6909 C   0  0  0  0  0  0  0  0  0  0  0  0
  -24.2544  -12.3410   19.5608 C   0  0  0  0  0  0  0  0  0  0  0  0
  -29.3095  -24.6066   21.4989 C   0  0  0  0  0  0  0  0  0  0  0  0
  -24.7508   -8.5797   20.4041 C   0  0  0  0  0  0  0  0  0  0  0  0
  -25.2022   -7.3221   20.8044 C   0  0  0  0  0  0  0  0  0  0  0  0
  -28.5146  -26.6103   20.4161 C   0  0  0  0  0  0  0  0  0  0  0  0
  -23.7121   -7.3922   22.7049 C   0  0  0  0  0  0  0  0  0  0  0  0
  -27.2184  -23.7309   17.9091 C   0  0  0  0  0  0  0  0  0  0  0  0
  -26.1258  -13.5509   20.4940 C   0  0  0  0  0  0  0  0  0  0  0  0
  -28.3767  -14.5474   19.8245 C   0  0  0  0  0  0  0  0  0  0  0  0
  -19.5617  -24.5802   22.1881 C   0  0  0  0  0  0  0  0  0  0  0  0
  -27.2842  -25.6897   22.2865 C   0  0  0  0  0  0  0  0  0  0  0  0
  -20.8884  -24.1243   22.0679 C   0  0  0  0  0  0  0  0  0  0  0  0
  -27.4301  -26.6793   21.3039 C   0  0  0  0  0  0  0  0  0  0  0  0
  -26.5819  -22.5272   17.7015 C   0  0  0  0  0  0  0  0  0  0  0  0
  -27.1981  -21.9098   16.5852 C   0  0  0  0  0  0  0  0  0  0  0  0
  -24.2484  -11.4949   20.6698 C   0  0  0  0  0  0  0  0  0  0  0  0
  -29.4480  -25.5785   20.5124 C   0  0  0  0  0  0  0  0  0  0  0  0
  -23.7801   -9.2436   21.1542 C   0  0  0  0  0  0  0  0  0  0  0  0
  -24.6828   -6.7283   21.9547 C   0  0  0  0  0  0  0  0  0  0  0  0
  -23.2607   -8.6499   22.3046 C   0  0  0  0  0  0  0  0  0  0  0  0
  -27.0949  -14.6133   20.4029 C   0  0  0  0  0  0  0  0  0  0  0  0
  -28.1926  -22.7550   16.1447 C   0  0  0  0  0  0  0  0  0  0  0  0
  -28.8940  -15.8087   19.9918 C   0  0  0  0  0  0  0  0  0  0  0  0
  -29.0403  -13.4448   19.1925 C   0  0  0  0  0  0  0  0  0  0  0  0
  -24.1596  -25.8058   21.7146 C   0  0  0  0  0  0  0  0  0  0  0  0
  -24.5508  -28.9574   22.3753 C   0  0  0  0  0  0  0  0  0  0  0  0
  -26.6437  -31.6492   22.5205 C   0  0  0  0  0  0  0  0  0  0  0  0
  -26.3683  -21.1948   20.6717 C   0  0  0  0  0  0  0  0  0  0  0  0
  -19.0633  -25.7811   21.4238 C   0  0  0  0  0  0  0  0  0  0  0  0
  -26.1453  -25.7519   23.2670 C   0  0  0  0  0  0  0  0  0  0  0  0
  -26.4482  -27.8134   21.1686 C   0  0  0  0  0  0  0  0  0  0  0  0
  -20.1827  -26.6737   20.8943 C   0  0  0  0  0  0  0  0  0  0  0  0
  -28.6468  -19.6025   22.8965 C   0  0  0  0  0  0  0  0  0  0  0  0
  -21.2664  -25.8321   20.2277 C   0  0  0  0  0  0  0  0  0  0  0  0
  -28.6231  -18.1373   22.4575 C   0  0  0  0  0  0  0  0  0  0  0  0
  -27.2689  -20.2498   22.7771 C   0  0  0  0  0  0  0  0  0  0  0  0
  -26.6158  -18.6608   21.0100 C   0  0  0  0  0  0  0  0  0  0  0  0
  -21.9079  -24.8647   21.2297 C   0  0  1  0  0  0  0  0  0  0  0  0
  -24.9540  -26.5518   22.7491 C   0  0  1  0  0  0  0  0  0  0  0  0
  -27.9948  -17.9809   21.0597 C   0  0  2  0  0  0  0  0  0  0  0  0
  -26.8418  -20.6009   15.9995 C   0  0  0  0  0  0  0  0  0  0  0  0
  -28.4381  -22.5280   13.6463 C   0  0  0  0  0  0  0  0  0  0  0  0
  -30.0835  -21.3936   15.1829 C   0  0  0  0  0  0  0  0  0  0  0  0
  -26.6665  -34.0999   23.0598 C   0  0  0  0  0  0  0  0  0  0  0  0
  -31.9182  -23.6568   19.1498 C   0  0  0  0  0  0  0  0  0  0  0  0
  -23.2116  -29.5562   19.6998 C   0  0  0  0  0  0  0  0  0  0  0  0
  -24.1045  -31.8901   19.8544 C   0  0  0  0  0  0  0  0  0  0  0  0
  -22.5070  -31.0511   21.5768 C   0  0  0  0  0  0  0  0  0  0  0  0
  -28.5845  -31.2651   24.7216 C   0  0  0  0  0  0  0  0  0  0  0  0
  -25.4635  -21.9898   18.5019 C   0  0  0  0  0  0  0  0  0  0  0  0
  -30.5439  -24.7691   17.3530 C   0  0  0  0  0  0  0  0  0  0  0  0
  -29.1233  -25.0416   16.8376 C   0  0  0  0  0  0  0  0  0  0  0  0
  -29.1410  -22.6077   15.0204 C   0  0  0  0  0  0  0  0  0  0  0  0
  -24.8828  -30.1866   21.5642 C   0  0  1  0  0  0  0  0  0  0  0  0
  -26.8692  -32.6927   23.5997 C   0  0  2  0  0  0  0  0  0  0  0  0
  -30.6049  -24.3594   18.8297 C   0  0  2  0  0  0  0  0  0  1  0  0
  -23.6941  -30.6487   20.6749 C   0  0  0  0  0  0  0  0  0  0  0  0
  -26.8152  -15.8208   20.9006 N   0  0  0  0  0  0  0  0  0  0  0  0
  -28.1959  -23.8587   16.9571 N   0  0  0  0  0  0  0  0  0  0  0  0
  -27.9285  -16.5253   20.6355 N   0  0  0  0  0  0  0  0  0  0  0  0
  -25.3482  -27.8270   22.1470 N   0  0  0  0  0  0  0  0  0  0  0  0
  -26.7296  -20.0671   21.4274 N   0  0  0  0  0  0  0  0  0  0  0  0
  -30.0762  -16.3636   19.6497 N   0  0  0  0  0  0  0  0  0  0  0  0
  -28.3650  -12.2197   19.1051 N   0  0  0  0  0  0  0  0  0  0  0  0
  -22.8482  -25.5654   22.0778 N   0  0  0  0  0  0  0  0  0  0  0  0
  -25.3429  -31.1918   22.5161 N   0  0  0  0  0  0  0  0  0  0  0  0
  -25.8717  -20.9332   19.4006 N   0  0  0  0  0  0  0  0  0  0  0  0
  -28.2555  -32.5907   24.1372 N   0  3  0  0  0  0  0  0  0  0  0  0
  -30.2041  -13.5384   18.7339 O   0  0  0  0  0  0  0  0  0  0  0  0
  -24.6963  -25.4742   20.6641 O   0  0  0  0  0  0  0  0  0  0  0  0
  -23.6228  -29.0009   23.1869 O   0  0  0  0  0  0  0  0  0  0  0  0
  -27.5316  -31.2796   21.7553 O   0  0  0  0  0  0  0  0  0  0  0  0
  -26.4851  -22.3494   21.0963 O   0  0  0  0  0  0  0  0  0  0  0  0
  -23.3324  -10.4918   20.7551 O   0  0  0  0  0  0  0  0  0  0  0  0
  -30.4957  -25.5251   19.6456 O   0  0  0  0  0  0  0  0  0  1  0  0
  -25.1153   -5.5200   22.3382 F   0  0  0  0  0  0  0  0  0  0  0  0
  -22.3271   -9.2823   23.0286 F   0  0  0  0  0  0  0  0  0  0  0  0
  1  2  1  0  0  0  0
  1  5  2  0  0  0  0
  2  6  2  0  0  0  0
  3  8  2  0  0  0  0
  3 16  1  0  0  0  0
  4  9  1  0  0  0  0
  4 16  2  0  0  0  0
  5 18  1  0  0  0  0
  6 20  1  0  0  0  0
  7 10  2  0  0  0  0
  7 19  1  0  0  0  0
  8 24  1  0  0  0  0
  9 24  2  0  0  0  0
 10 25  1  0  0  0  0
 11 12  2  0  0  0  0
 11 26  1  0  0  0  0
 12 27  1  0  0  0  0
 13 21  1  0  0  0  0
 13 25  2  0  0  0  0
 14 27  2  0  0  0  0
 14 28  1  0  0  0  0
 15 22  2  0  0  0  0
 15 67  1  0  0  0  0
 16 29  1  0  0  0  0
 17 29  1  0  0  0  0
 17 31  2  0  0  0  0
 17 32  1  0  0  0  0
 18 20  2  0  0  0  0
 18 37  1  0  0  0  0
 19 21  2  0  0  0  0
 19 38  1  0  0  0  0
 20 46  1  0  0  0  0
 21 39  1  0  0  0  0
 22 23  1  0  0  0  0
 22 58  1  0  0  0  0
 23 30  2  0  0  0  0
 23 49  1  0  0  0  0
 24 82  1  0  0  0  0
 25 83  1  0  0  0  0
 26 28  2  0  0  0  0
 26 82  1  0  0  0  0
 27 84  1  0  0  0  0
 28 85  1  0  0  0  0
 29 66  2  0  0  0  0
 30 61  1  0  0  0  0
 30 67  1  0  0  0  0
 31 68  1  0  0  0  0
 31 71  1  0  0  0  0
 32 72  1  0  0  0  0
 32 77  2  0  0  0  0
 33 47  1  0  0  0  0
 33 73  1  0  0  0  0
 33 78  2  0  0  0  0
 34 62  1  0  0  0  0
 34 69  1  0  0  0  0
 34 79  2  0  0  0  0
 35 63  1  0  0  0  0
 35 74  1  0  0  0  0
 35 80  2  0  0  0  0
 36 70  1  0  0  0  0
 36 75  1  0  0  0  0
 36 81  2  0  0  0  0
 37 40  1  0  0  0  0
 38 47  1  0  0  0  0
 39 69  1  0  0  0  0
 40 42  1  0  0  0  0
 41 43  1  0  0  0  0
 41 44  1  0  0  0  0
 42 46  1  0  0  0  0
 43 48  1  0  0  0  0
 44 70  1  0  0  0  0
 45 48  1  0  0  0  0
 45 70  1  0  0  0  0
 46 73  1  0  0  0  0
 47 69  1  0  0  0  0
 48 68  1  0  0  0  0
 50 61  1  0  0  0  0
 51 61  1  0  0  0  0
 52 63  1  0  0  0  0
 53 64  1  0  0  0  0
 54 65  1  0  0  0  0
 55 65  1  0  0  0  0
 56 65  1  0  0  0  0
 57 76  1  0  0  0  0
 58 75  1  0  0  0  0
 59 60  1  0  0  0  0
 59 64  1  0  0  0  0
 60 67  1  0  0  0  0
 62 65  1  0  0  0  0
 62 74  1  0  0  0  0
 63 76  1  0  0  0  0
 64 83  1  0  0  0  0
 66 68  1  0  0  0  0
M  CHG  1  76   1
M  ISO  4  36 100  64 101  75 100  83 101
M  END
> <Batch ID>
0115

> <Smiles>
CNC(C)C(=O)NC(C(=O)N1Cc2cc([101O:1][101CH:1](C)CCn3cc(C[100NH:0][100C:0](=O)N4CCCC(n5nc(-c6ccc(Oc7ccc(F)cc7F)cc6)c(C(N)=O)c5N)C4)c(C)c3C(C)C)ccc2CC1C(=O)NC1CCCc2ccccc21)C(C)(C)C

> <Shape>
0.237

> <Color>
0.058

> <Negative vol penalty>
0.000

$$$$

  -OEChem-04052320103D

 85 93  0     1  0  0  0  0  0999 V2000
  -23.0127  -36.1293   22.1696 C   0  0  0  0  0  0  0  0  0  0  0  0
  -22.3301  -35.0051   21.7161 C   0  0  0  0  0  0  0  0  0  0  0  0
  -23.3625  -10.0250   22.2995 C   0  0  0  0  0  0  0  0  0  0  0  0
  -23.3512   -9.7454   19.8997 C   0  0  0  0  0  0  0  0  0  0  0  0
  -24.2999  -36.3964   21.7051 C   0  0  0  0  0  0  0  0  0  0  0  0
  -22.9339  -34.1479   20.7968 C   0  0  0  0  0  0  0  0  0  0  0  0
  -24.2722  -26.4650   21.2530 C   0  0  0  0  0  0  0  0  0  0  0  0
  -22.5642   -8.8894   22.4356 C   0  0  0  0  0  0  0  0  0  0  0  0
  -22.5529   -8.6097   20.0358 C   0  0  0  0  0  0  0  0  0  0  0  0
  -24.7046  -25.1390   21.2836 C   0  0  0  0  0  0  0  0  0  0  0  0
  -22.9749   -5.5337   22.3735 C   0  0  0  0  0  0  0  0  0  0  0  0
  -23.3253   -4.6091   23.3573 C   0  0  0  0  0  0  0  0  0  0  0  0
  -26.5077  -25.6807   19.7658 C   0  0  0  0  0  0  0  0  0  0  0  0
  -21.1803   -4.9292   24.4222 C   0  0  0  0  0  0  0  0  0  0  0  0
  -23.7560  -10.4531   21.0315 C   0  0  0  0  0  0  0  0  0  0  0  0
  -24.2722  -12.9365   21.3034 C   0  0  0  0  0  0  0  0  0  0  0  0
  -24.9235  -35.5368   20.7870 C   0  0  0  0  0  0  0  0  0  0  0  0
  -24.9659  -27.4083   20.4898 C   0  0  0  0  0  0  0  0  0  0  0  0
  -24.2301  -34.4045   20.3185 C   0  0  0  0  0  0  0  0  0  0  0  0
  -26.0866  -27.0129   19.7411 C   0  0  0  0  0  0  0  0  0  0  0  0
  -22.1594   -8.1817   21.3037 C   0  0  0  0  0  0  0  0  0  0  0  0
  -25.8194  -24.7478   20.5417 C   0  0  0  0  0  0  0  0  0  0  0  0
  -21.7272   -6.1562   22.4141 C   0  0  0  0  0  0  0  0  0  0  0  0
  -22.4280   -4.3068   24.3816 C   0  0  0  0  0  0  0  0  0  0  0  0
  -20.8300   -5.8539   23.4384 C   0  0  0  0  0  0  0  0  0  0  0  0
  -24.5803  -11.6264   20.8903 C   0  0  0  0  0  0  0  0  0  0  0  0
  -25.3720  -13.6771   20.9450 C   0  0  0  0  0  0  0  0  0  0  0  0
  -23.0969  -13.4390   21.9530 C   0  0  0  0  0  0  0  0  0  0  0  0
  -25.2461  -30.9796   19.3749 C   0  0  0  0  0  0  0  0  0  0  0  0
  -28.0993  -29.9852   19.9052 C   0  0  0  0  0  0  0  0  0  0  0  0
  -31.0352  -28.6372   21.0008 C   0  0  0  0  0  0  0  0  0  0  0  0
  -30.9050  -14.3417   20.6467 C   0  0  0  0  0  0  0  0  0  0  0  0
  -26.2977  -35.8925   20.2774 C   0  0  0  0  0  0  0  0  0  0  0  0
  -24.4995  -28.8344   20.3786 C   0  0  0  0  0  0  0  0  0  0  0  0
  -26.7812  -28.0546   18.9072 C   0  0  0  0  0  0  0  0  0  0  0  0
  -27.0114  -34.7318   19.5891 C   0  0  0  0  0  0  0  0  0  0  0  0
  -29.3396  -12.4863   18.0422 C   0  0  0  0  0  0  0  0  0  0  0  0
  -26.0724  -34.0319   18.6118 C   0  0  0  0  0  0  0  0  0  0  0  0
  -27.9394  -12.2002   18.5876 C   0  0  0  0  0  0  0  0  0  0  0  0
  -30.3952  -12.4390   19.1447 C   0  0  0  0  0  0  0  0  0  0  0  0
  -28.7151  -13.0157   20.8530 C   0  0  0  0  0  0  0  0  0  0  0  0
  -31.7884  -18.7015   22.0213 C   0  0  0  0  0  0  0  0  0  0  0  0
  -29.1084  -19.1393   21.0590 C   0  0  0  0  0  0  0  0  0  0  0  0
  -24.8610  -33.4375   19.3403 C   0  0  1  0  0  0  0  0  0  0  0  0
  -25.6581  -29.8408   20.2609 C   0  0  1  0  0  0  0  0  0  0  0  0
  -27.6089  -13.1075   19.7879 C   0  0  2  0  0  0  0  0  0  0  0  0
  -29.9861  -20.2822   21.5885 C   0  0  2  0  0  0  0  0  0  0  0  0
  -30.9539  -17.5338   21.4930 C   0  0  1  0  0  0  0  0  0  0  0  0
  -33.4740  -29.1709   21.2554 C   0  0  0  0  0  0  0  0  0  0  0  0
  -27.8027  -22.0424   22.6188 C   0  0  0  0  0  0  0  0  0  0  0  0
  -33.7396  -20.6981   21.5043 C   0  0  0  0  0  0  0  0  0  0  0  0
  -32.1158  -21.1769   23.3698 C   0  0  0  0  0  0  0  0  0  0  0  0
  -28.4953  -29.5883   16.9069 C   0  0  0  0  0  0  0  0  0  0  0  0
  -30.9252  -29.1830   17.3534 C   0  0  0  0  0  0  0  0  0  0  0  0
  -29.9065  -31.3893   17.9166 C   0  0  0  0  0  0  0  0  0  0  0  0
  -30.9225  -28.2945   23.9383 C   0  0  0  0  0  0  0  0  0  0  0  0
  -29.5498  -21.5743   20.8838 C   0  0  0  0  0  0  0  0  0  0  0  0
  -31.2661  -16.2310   22.2150 C   0  0  0  0  0  0  0  0  0  0  0  0
  -27.6347  -23.2174   20.3987 C   0  0  0  0  0  0  0  0  0  1  0  0
  -29.3512  -29.3700   19.3330 C   0  0  1  0  0  0  0  0  0  0  0  0
  -32.1093  -29.1792   21.9265 C   0  0  2  0  0  0  0  0  0  0  0  0
  -28.0683  -21.9304   21.1131 C   0  0  2  0  0  0  0  0  0  0  0  0
  -32.3009  -21.0379   21.8658 C   0  0  0  0  0  0  0  0  0  0  0  0
  -29.6496  -29.8668   17.8902 C   0  0  0  0  0  0  0  0  0  0  0  0
  -25.7816  -11.5367   20.3135 N   0  0  0  0  0  0  0  0  0  0  0  0
  -26.2381  -12.7999   20.3615 N   0  0  0  0  0  0  0  0  0  0  0  0
  -26.8962  -29.3103   19.6653 N   0  0  0  0  0  0  0  0  0  0  0  0
  -30.0228  -13.3223   20.2523 N   0  0  0  0  0  0  0  0  0  0  0  0
  -31.4190  -19.9749   21.3754 N   0  0  1  0  0  0  0  0  0  0  0  0
  -25.6730  -14.9866   21.0752 N   0  0  0  0  0  0  0  0  0  0  0  0
  -22.0389  -13.8994   21.1574 N   0  0  0  0  0  0  0  0  0  0  0  0
  -25.2271  -32.2072   20.0088 N   0  0  0  0  0  0  0  0  0  0  0  0
  -30.4160  -29.6447   20.2917 N   0  0  0  0  0  0  0  0  0  0  0  0
  -30.4721  -15.1376   21.7002 N   0  0  0  0  0  0  0  0  0  0  0  0
  -29.5099  -17.8588   21.7069 N   0  3  0  0  0  0  0  0  0  0  0  0
  -32.1897  -28.3548   23.1654 N   0  3  0  0  0  0  0  0  0  0  0  0
  -22.9948  -13.4937   23.2020 O   0  0  0  0  0  0  0  0  0  0  0  0
  -24.9672  -30.7619   18.2016 O   0  0  0  0  0  0  0  0  0  0  0  0
  -28.1821  -31.0385   20.5431 O   0  0  0  0  0  0  0  0  0  0  0  0
  -30.7742  -27.4394   20.9127 O   0  0  0  0  0  0  0  0  0  0  0  0
  -31.9952  -14.5320   20.0970 O   0  0  0  0  0  0  0  0  0  0  0  0
  -21.3805   -7.0733   21.4362 O   0  0  0  0  0  0  0  0  0  0  0  0
  -26.2389  -23.4527   20.5797 O   0  0  0  0  0  0  0  0  0  1  0  0
  -22.7640   -3.4177   25.3254 F   0  0  0  0  0  0  0  0  0  0  0  0
  -19.6294   -6.4478   23.4819 F   0  0  0  0  0  0  0  0  0  0  0  0
  1  2  1  0  0  0  0
  1  5  2  0  0  0  0
  2  6  2  0  0  0  0
  3  8  2  0  0  0  0
  3 15  1  0  0  0  0
  4  9  1  0  0  0  0
  4 15  2  0  0  0  0
  5 17  1  0  0  0  0
  6 19  1  0  0  0  0
  7 10  2  0  0  0  0
  7 18  1  0  0  0  0
  8 21  1  0  0  0  0
  9 21  2  0  0  0  0
 10 22  1  0  0  0  0
 11 12  2  0  0  0  0
 11 23  1  0  0  0  0
 12 24  1  0  0  0  0
 13 20  1  0  0  0  0
 13 22  2  0  0  0  0
 14 24  2  0  0  0  0
 14 25  1  0  0  0  0
 15 26  1  0  0  0  0
 16 26  1  0  0  0  0
 16 27  2  0  0  0  0
 16 28  1  0  0  0  0
 17 19  2  0  0  0  0
 17 33  1  0  0  0  0
 18 20  2  0  0  0  0
 18 34  1  0  0  0  0
 19 44  1  0  0  0  0
 20 35  1  0  0  0  0
 21 82  1  0  0  0  0
 22 83  1  0  0  0  0
 23 25  2  0  0  0  0
 23 82  1  0  0  0  0
 24 84  1  0  0  0  0
 25 85  1  0  0  0  0
 26 65  2  0  0  0  0
 27 66  1  0  0  0  0
 27 70  1  0  0  0  0
 28 71  1  0  0  0  0
 28 77  2  0  0  0  0
 29 45  1  0  0  0  0
 29 72  1  0  0  0  0
 29 78  2  0  0  0  0
 30 60  1  0  0  0  0
 30 67  1  0  0  0  0
 30 79  2  0  0  0  0
 31 61  1  0  0  0  0
 31 73  1  0  0  0  0
 31 80  2  0  0  0  0
 32 68  1  0  0  0  0
 32 74  1  0  0  0  0
 32 81  2  0  0  0  0
 33 36  1  0  0  0  0
 34 45  1  0  0  0  0
 35 67  1  0  0  0  0
 36 38  1  0  0  0  0
 37 39  1  0  0  0  0
 37 40  1  0  0  0  0
 38 44  1  0  0  0  0
 39 46  1  0  0  0  0
 40 68  1  0  0  0  0
 41 46  1  0  0  0  0
 41 68  1  0  0  0  0
 42 48  1  0  0  0  0
 42 69  1  0  0  0  0
 43 47  1  0  0  0  0
 43 75  1  0  0  0  0
 44 72  1  0  0  0  0
 45 67  1  0  0  0  0
 46 66  1  0  0  0  0
 47 57  1  0  0  0  0
 47 69  1  0  0  0  0
 48 58  1  0  0  0  0
 48 75  1  0  0  0  0
 49 61  1  0  0  0  0
 50 62  1  0  0  0  0
 51 63  1  0  0  0  0
 52 63  1  0  0  0  0
 53 64  1  0  0  0  0
 54 64  1  0  0  0  0
 55 64  1  0  0  0  0
 56 76  1  0  0  0  0
 57 62  1  0  0  0  0
 58 74  1  0  0  0  0
 59 62  1  0  0  0  0
 59 83  1  0  0  0  0
 60 64  1  0  0  0  0
 60 73  1  0  0  0  0
 61 76  1  0  0  0  0
 63 69  1  0  0  0  0
 65 66  1  0  0  0  0
M  CHG  2  75   1  76   1
M  ISO  4  32 100  59 101  74 100  83 101
M  END
> <Batch ID>
0115

> <Smiles>
CNC(C)C(=O)NC(C(=O)N1Cc2cc([101O:1][101CH2:1]C(C)CC3CNC(C[100NH:0][100C:0](=O)N4CCCC(n5nc(-c6ccc(Oc7ccc(F)cc7F)cc6)c(C(N)=O)c5N)C4)CN3C(C)C)ccc2CC1C(=O)NC1CCCc2ccccc21)C(C)(C)C

> <Shape>
0.273

> <Color>
0.170

> <Negative vol penalty>
0.000

$$$$

  -OEChem-04052320103D

 83 91  0     1  0  0  0  0  0999 V2000
  -34.9355  -13.2510   20.2311 C   0  0  0  0  0  0  0  0  0  0  0  0
  -34.0217  -14.2613   19.9486 C   0  0  0  0  0  0  0  0  0  0  0  0
  -25.9455  -29.6900   21.1468 C   0  0  0  0  0  0  0  0  0  0  0  0
  -23.6003  -29.4066   20.6397 C   0  0  0  0  0  0  0  0  0  0  0  0
  -34.5821  -11.9172   20.0316 C   0  0  0  0  0  0  0  0  0  0  0  0
  -32.7542  -13.9382   19.4653 C   0  0  0  0  0  0  0  0  0  0  0  0
  -29.0751  -16.5535   21.7609 C   0  0  0  0  0  0  0  0  0  0  0  0
  -25.7303  -31.0478   21.3828 C   0  0  0  0  0  0  0  0  0  0  0  0
  -23.3852  -30.7644   20.8759 C   0  0  0  0  0  0  0  0  0  0  0  0
  -28.8849  -17.8741   21.3562 C   0  0  0  0  0  0  0  0  0  0  0  0
  -24.4977  -32.9791   23.8695 C   0  0  0  0  0  0  0  0  0  0  0  0
  -25.0827  -33.5404   25.0046 C   0  0  0  0  0  0  0  0  0  0  0  0
  -27.0272  -17.1793   19.9831 C   0  0  0  0  0  0  0  0  0  0  0  0
  -26.3161  -35.0787   23.6084 C   0  0  0  0  0  0  0  0  0  0  0  0
  -24.8804  -28.8694   20.7752 C   0  0  0  0  0  0  0  0  0  0  0  0
  -25.9566  -26.8964   19.5681 C   0  0  0  0  0  0  0  0  0  0  0  0
  -33.3063  -11.5771   19.5548 C   0  0  0  0  0  0  0  0  0  0  0  0
  -28.2483  -15.5327   21.2705 C   0  0  0  0  0  0  0  0  0  0  0  0
  -32.3838  -12.5986   19.2580 C   0  0  0  0  0  0  0  0  0  0  0  0
  -27.2074  -15.8470   20.3851 C   0  0  0  0  0  0  0  0  0  0  0  0
  -24.4502  -31.5850   21.2474 C   0  0  0  0  0  0  0  0  0  0  0  0
  -27.8627  -18.1867   20.4649 C   0  0  0  0  0  0  0  0  0  0  0  0
  -24.8220  -33.4676   22.6038 C   0  0  0  0  0  0  0  0  0  0  0  0
  -25.9918  -34.5901   24.8741 C   0  0  0  0  0  0  0  0  0  0  0  0
  -25.7312  -34.5174   22.4733 C   0  0  0  0  0  0  0  0  0  0  0  0
  -25.1021  -27.4669   20.5306 C   0  0  0  0  0  0  0  0  0  0  0  0
  -25.8103  -25.5415   19.7391 C   0  0  0  0  0  0  0  0  0  0  0  0
  -26.8066  -27.5343   18.6057 C   0  0  0  0  0  0  0  0  0  0  0  0
  -28.7126  -12.9056   19.5423 C   0  0  0  0  0  0  0  0  0  0  0  0
  -28.1918  -22.7773   23.6464 C   0  0  0  0  0  0  0  0  0  0  0  0
  -25.5764  -12.3928   20.1932 C   0  0  0  0  0  0  0  0  0  0  0  0
  -22.5403  -13.7039   21.0357 C   0  0  0  0  0  0  0  0  0  0  0  0
  -24.1572  -22.1758   24.4071 C   0  0  0  0  0  0  0  0  0  0  0  0
  -32.9863  -10.1237   19.3102 C   0  0  0  0  0  0  0  0  0  0  0  0
  -28.4496  -14.1171   21.7375 C   0  0  0  0  0  0  0  0  0  0  0  0
  -26.2794  -14.7908   19.8452 C   0  0  0  0  0  0  0  0  0  0  0  0
  -31.4936   -9.8471   19.1505 C   0  0  0  0  0  0  0  0  0  0  0  0
  -22.6332  -22.2720   21.1908 C   0  0  0  0  0  0  0  0  0  0  0  0
  -30.8609  -10.8622   18.2038 C   0  0  0  0  0  0  0  0  0  0  0  0
  -23.1702  -23.5628   20.5700 C   0  0  0  0  0  0  0  0  0  0  0  0
  -28.7549  -21.5568   19.5651 C   0  0  0  0  0  0  0  0  0  0  0  0
  -27.9884  -21.0095   21.9061 C   0  0  0  0  0  0  0  0  0  0  0  0
  -22.3890  -22.4260   22.6904 C   0  0  0  0  0  0  0  0  0  0  0  0
  -24.0847  -24.2082   22.8385 C   0  0  0  0  0  0  0  0  0  0  0  0
  -29.5898  -22.7019   20.1127 C   0  0  0  0  0  0  0  0  0  0  0  0
  -30.9907  -12.2869   18.7559 C   0  0  1  0  0  0  0  0  0  0  0  0
  -27.8730  -13.0829   20.7757 C   0  0  1  0  0  0  0  0  0  0  0  0
  -28.8290  -22.1614   22.4445 C   0  0  1  0  0  0  0  0  0  0  0  0
  -24.3994  -24.0851   21.3378 C   0  0  2  0  0  0  0  0  0  0  0  0
  -28.5604  -20.4528   20.6023 C   0  0  1  0  0  0  0  0  0  1  0  0
  -20.1570  -13.0412   21.4578 C   0  0  0  0  0  0  0  0  0  0  0  0
  -25.3991  -22.4665   27.4085 C   0  0  0  0  0  0  0  0  0  0  0  0
  -25.1318  -12.0883   17.1900 C   0  0  0  0  0  0  0  0  0  0  0  0
  -22.6784  -12.3813   17.5940 C   0  0  0  0  0  0  0  0  0  0  0  0
  -23.8839  -10.4436   18.6014 C   0  0  0  0  0  0  0  0  0  0  0  0
  -22.6378  -14.6914   23.8240 C   0  0  0  0  0  0  0  0  0  0  0  0
  -27.5057  -22.3156   25.9913 C   0  0  0  0  0  0  0  0  0  0  0  0
  -24.2723  -12.7632   19.5292 C   0  0  1  0  0  0  0  0  0  0  0  0
  -21.5207  -13.2922   22.0823 C   0  0  2  0  0  0  0  0  0  0  0  0
  -25.9990  -22.0597   26.0665 C   0  0  2  0  0  0  0  0  0  0  0  0
  -24.0101  -11.9389   18.2371 C   0  0  0  0  0  0  0  0  0  0  0  0
  -24.4604  -26.5494   21.2589 N   0  0  0  0  0  0  0  0  0  0  0  0
  -24.9118  -25.3887   20.7538 N   0  0  0  0  0  0  0  0  0  0  0  0
  -26.5207  -13.4206   20.3267 N   0  0  0  0  0  0  0  0  0  0  0  0
  -23.5935  -22.9229   23.3598 N   0  0  0  0  0  0  0  0  0  0  0  0
  -26.3637  -24.4778   19.1189 N   0  0  0  0  0  0  0  0  0  0  0  0
  -26.8370  -28.9349   18.5655 N   0  0  0  0  0  0  0  0  0  0  0  0
  -30.0134  -12.5160   19.7984 N   0  0  0  0  0  0  0  0  0  0  0  0
  -28.0882  -21.9235   24.7280 N   0  0  0  0  0  0  0  0  0  0  0  0
  -23.2394  -12.6195   20.5495 N   0  0  0  0  0  0  0  0  0  0  0  0
  -25.3012  -22.7149   24.9828 N   0  0  0  0  0  0  0  0  0  0  0  0
  -28.9682  -23.2033   21.3759 N   0  3  0  0  0  0  0  0  0  0  0  0
  -21.3765  -14.3591   23.1128 N   0  3  0  0  0  0  0  0  0  0  0  0
  -27.5056  -26.8815   17.7941 O   0  0  0  0  0  0  0  0  0  0  0  0
  -28.2166  -13.1060   18.4398 O   0  0  0  0  0  0  0  0  0  0  0  0
  -27.8202  -23.9442   23.6021 O   0  0  0  0  0  0  0  0  0  0  0  0
  -25.7481  -11.2360   20.5857 O   0  0  0  0  0  0  0  0  0  0  0  0
  -22.6980  -14.8703   20.6820 O   0  0  0  0  0  0  0  0  0  0  0  0
  -23.6796  -21.1047   24.7966 O   0  0  0  0  0  0  0  0  0  0  0  0
  -24.2399  -32.9098   21.4779 O   0  0  0  0  0  0  0  0  0  0  0  0
  -27.6753  -19.4748   20.0678 O   0  0  0  0  0  0  0  0  0  1  0  0
  -26.5522  -35.1300   25.9643 F   0  0  0  0  0  0  0  0  0  0  0  0
  -26.0457  -34.9917   21.2601 F   0  0  0  0  0  0  0  0  0  0  0  0
  1  2  1  0  0  0  0
  1  5  2  0  0  0  0
  2  6  2  0  0  0  0
  3  8  2  0  0  0  0
  3 15  1  0  0  0  0
  4  9  1  0  0  0  0
  4 15  2  0  0  0  0
  5 17  1  0  0  0  0
  6 19  1  0  0  0  0
  7 10  2  0  0  0  0
  7 18  1  0  0  0  0
  8 21  1  0  0  0  0
  9 21  2  0  0  0  0
 10 22  1  0  0  0  0
 11 12  2  0  0  0  0
 11 23  1  0  0  0  0
 12 24  1  0  0  0  0
 13 20  1  0  0  0  0
 13 22  2  0  0  0  0
 14 24  2  0  0  0  0
 14 25  1  0  0  0  0
 15 26  1  0  0  0  0
 16 26  1  0  0  0  0
 16 27  2  0  0  0  0
 16 28  1  0  0  0  0
 17 19  2  0  0  0  0
 17 34  1  0  0  0  0
 18 20  2  0  0  0  0
 18 35  1  0  0  0  0
 19 46  1  0  0  0  0
 20 36  1  0  0  0  0
 21 80  1  0  0  0  0
 22 81  1  0  0  0  0
 23 25  2  0  0  0  0
 23 80  1  0  0  0  0
 24 82  1  0  0  0  0
 25 83  1  0  0  0  0
 26 62  2  0  0  0  0
 27 63  1  0  0  0  0
 27 66  1  0  0  0  0
 28 67  1  0  0  0  0
 28 74  2  0  0  0  0
 29 47  1  0  0  0  0
 29 68  1  0  0  0  0
 29 75  2  0  0  0  0
 30 48  1  0  0  0  0
 30 69  1  0  0  0  0
 30 76  2  0  0  0  0
 31 58  1  0  0  0  0
 31 64  1  0  0  0  0
 31 77  2  0  0  0  0
 32 59  1  0  0  0  0
 32 70  1  0  0  0  0
 32 78  2  0  0  0  0
 33 65  1  0  0  0  0
 33 71  1  0  0  0  0
 33 79  2  0  0  0  0
 34 37  1  0  0  0  0
 35 47  1  0  0  0  0
 36 64  1  0  0  0  0
 37 39  1  0  0  0  0
 38 40  1  0  0  0  0
 38 43  1  0  0  0  0
 39 46  1  0  0  0  0
 40 49  1  0  0  0  0
 41 45  1  0  0  0  0
 41 50  1  0  0  0  0
 42 48  1  0  0  0  0
 42 50  1  0  0  0  0
 43 65  1  0  0  0  0
 44 49  1  0  0  0  0
 44 65  1  0  0  0  0
 45 72  1  0  0  0  0
 46 68  1  0  0  0  0
 47 64  1  0  0  0  0
 48 72  1  0  0  0  0
 49 63  1  0  0  0  0
 50 81  1  0  0  0  0
 51 59  1  0  0  0  0
 52 60  1  0  0  0  0
 53 61  1  0  0  0  0
 54 61  1  0  0  0  0
 55 61  1  0  0  0  0
 56 73  1  0  0  0  0
 57 60  1  0  0  0  0
 57 69  1  0  0  0  0
 58 61  1  0  0  0  0
 58 70  1  0  0  0  0
 59 73  1  0  0  0  0
 60 71  1  0  0  0  0
 62 63  1  0  0  0  0
M  CHG  2  72   1  73   1
M  ISO  4  33 100  50 101  71 100  81 101
M  END
> <Batch ID>
0115

> <Smiles>
CNC(C)C(=O)NC(C(=O)N1Cc2cc([101O:1][101CH:1]3CCNC(C(=O)NCC(C)[100NH:0][100C:0](=O)N4CCCC(n5nc(-c6ccc(Oc7ccc(F)cc7F)cc6)c(C(N)=O)c5N)C4)C3)ccc2CC1C(=O)NC1CCCc2ccccc21)C(C)(C)C

> <Shape>
0.240

> <Color>
0.049

> <Negative vol penalty>
0.000

$$$$

  -OEChem-04052320103D

 81 89  0     1  0  0  0  0  0999 V2000
  -16.9196  -28.0180   24.4156 C   0  0  0  0  0  0  0  0  0  0  0  0
  -17.7829  -27.1286   23.7839 C   0  0  0  0  0  0  0  0  0  0  0  0
  -22.8966  -10.1276   19.9535 C   0  0  0  0  0  0  0  0  0  0  0  0
  -23.8121   -9.8674   22.1741 C   0  0  0  0  0  0  0  0  0  0  0  0
  -16.9988  -29.3817   24.1363 C   0  0  0  0  0  0  0  0  0  0  0  0
  -18.7251  -27.6022   22.8716 C   0  0  0  0  0  0  0  0  0  0  0  0
  -23.2980  -25.5357   23.5523 C   0  0  0  0  0  0  0  0  0  0  0  0
  -22.0936   -9.0046   20.1530 C   0  0  0  0  0  0  0  0  0  0  0  0
  -23.0091   -8.7445   22.3737 C   0  0  0  0  0  0  0  0  0  0  0  0
  -23.4906  -24.2423   23.0688 C   0  0  0  0  0  0  0  0  0  0  0  0
  -19.7828   -8.0964   23.1429 C   0  0  0  0  0  0  0  0  0  0  0  0
  -19.1078   -7.9920   24.3591 C   0  0  0  0  0  0  0  0  0  0  0  0
  -24.5948  -25.1412   21.1215 C   0  0  0  0  0  0  0  0  0  0  0  0
  -20.2598   -5.9191   24.8206 C   0  0  0  0  0  0  0  0  0  0  0  0
  -23.7559  -10.5590   20.9641 C   0  0  0  0  0  0  0  0  0  0  0  0
  -24.2630  -13.0576   21.0486 C   0  0  0  0  0  0  0  0  0  0  0  0
  -17.9489  -29.8734   23.2274 C   0  0  0  0  0  0  0  0  0  0  0  0
  -23.7434  -26.6439   22.8176 C   0  0  0  0  0  0  0  0  0  0  0  0
  -18.8162  -28.9736   22.5789 C   0  0  0  0  0  0  0  0  0  0  0  0
  -24.4088  -26.4475   21.5991 C   0  0  0  0  0  0  0  0  0  0  0  0
  -22.1498   -8.3131   21.3631 C   0  0  0  0  0  0  0  0  0  0  0  0
  -24.1365  -24.0450   21.8518 C   0  0  0  0  0  0  0  0  0  0  0  0
  -20.6963   -7.1120   22.7655 C   0  0  0  0  0  0  0  0  0  0  0  0
  -19.3464   -6.9034   25.1980 C   0  0  0  0  0  0  0  0  0  0  0  0
  -20.9348   -6.0234   23.6044 C   0  0  0  0  0  0  0  0  0  0  0  0
  -24.5861  -11.7185   20.7584 C   0  0  0  0  0  0  0  0  0  0  0  0
  -25.3767  -13.7686   20.6737 C   0  0  0  0  0  0  0  0  0  0  0  0
  -23.0634  -13.6095   21.6074 C   0  0  0  0  0  0  0  0  0  0  0  0
  -22.3342  -29.1504   21.4628 C   0  0  0  0  0  0  0  0  0  0  0  0
  -25.3927  -30.0787   20.9097 C   0  0  0  0  0  0  0  0  0  0  0  0
  -28.6646  -29.1901   20.5200 C   0  0  0  0  0  0  0  0  0  0  0  0
  -30.9178  -14.4196   20.5397 C   0  0  0  0  0  0  0  0  0  0  0  0
  -17.9652  -31.3503   22.9221 C   0  0  0  0  0  0  0  0  0  0  0  0
  -23.5517  -28.0314   23.3658 C   0  0  0  0  0  0  0  0  0  0  0  0
  -24.9241  -27.6029   20.7818 C   0  0  0  0  0  0  0  0  0  0  0  0
  -19.2412  -31.8141   22.2244 C   0  0  0  0  0  0  0  0  0  0  0  0
  -29.4549  -12.3504   18.0387 C   0  0  0  0  0  0  0  0  0  0  0  0
  -19.5986  -30.8689   21.0817 C   0  0  0  0  0  0  0  0  0  0  0  0
  -28.0340  -12.1072   18.5503 C   0  0  0  0  0  0  0  0  0  0  0  0
  -27.1632  -20.7659   19.9284 C   0  0  0  0  0  0  0  0  0  0  0  0
  -30.4661  -12.3974   19.1820 C   0  0  0  0  0  0  0  0  0  0  0  0
  -28.7203  -13.1100   20.7688 C   0  0  0  0  0  0  0  0  0  0  0  0
  -26.4356  -20.8316   22.1595 C   0  0  0  0  0  0  0  0  0  0  0  0
  -19.8683  -29.4518   21.6018 C   0  0  1  0  0  0  0  0  0  0  0  0
  -23.5893  -29.1103   22.2879 C   0  0  1  0  0  0  0  0  0  0  0  0
  -25.9471  -21.1328   20.7524 C   0  0  1  0  0  0  0  0  0  0  0  0
  -27.6572  -13.1103   19.6571 C   0  0  2  0  0  0  0  0  0  0  0  0
  -27.6550  -19.5268   20.6588 C   0  0  1  0  0  0  0  0  0  0  0  0
  -30.9268  -30.1646   20.0401 C   0  0  0  0  0  0  0  0  0  0  0  0
  -24.6393  -30.3723   17.9675 C   0  0  0  0  0  0  0  0  0  0  0  0
  -27.0816  -30.4080   17.4177 C   0  0  0  0  0  0  0  0  0  0  0  0
  -26.1026  -32.1951   18.8567 C   0  0  0  0  0  0  0  0  0  0  0  0
  -29.7440  -28.2597   23.1139 C   0  0  0  0  0  0  0  0  0  0  0  0
  -25.4755  -22.5616   20.5624 C   0  0  0  0  0  0  0  0  0  1  0  0
  -29.1395  -19.2716   20.4846 C   0  0  0  0  0  0  0  0  0  0  0  0
  -31.2182  -16.4335   21.9585 C   0  0  0  0  0  0  0  0  0  0  0  0
  -30.9505  -17.6784   21.1333 C   0  0  0  0  0  0  0  0  0  0  0  0
  -26.3899  -29.8657   19.7965 C   0  0  1  0  0  0  0  0  0  0  0  0
  -29.9397  -29.7531   21.1214 C   0  0  2  0  0  0  0  0  0  0  0  0
  -26.0420  -30.6884   18.5238 C   0  0  0  0  0  0  0  0  0  0  0  0
  -25.8092  -11.5842   20.2389 N   0  0  0  0  0  0  0  0  0  0  0  0
  -26.2645  -12.8480   20.1997 N   0  0  0  0  0  0  0  0  0  0  0  0
  -24.7069  -28.9405   21.3571 N   0  0  0  0  0  0  0  0  0  0  0  0
  -30.0509  -13.3689   20.1968 N   0  0  0  0  0  0  0  0  0  0  0  0
  -25.6734  -15.0851   20.7063 N   0  0  0  0  0  0  0  0  0  0  0  0
  -22.0166  -12.7374   21.9360 N   0  0  0  0  0  0  0  0  0  0  0  0
  -21.1851  -29.3739   22.1970 N   0  0  0  0  0  0  0  0  0  0  0  0
  -27.7017  -30.1641   20.3609 N   0  0  0  0  0  0  0  0  0  0  0  0
  -30.4443  -15.2993   21.5055 N   0  0  0  0  0  0  0  0  0  0  0  0
  -30.5942  -28.7366   21.9929 N   0  3  0  0  0  0  0  0  0  0  0  0
  -29.5201  -18.0726   21.2654 N   0  3  0  0  0  0  0  0  0  0  0  0
  -22.9177  -14.8414   21.7940 O   0  0  0  0  0  0  0  0  0  0  0  0
  -22.4033  -28.9917   20.2496 O   0  0  0  0  0  0  0  0  0  0  0  0
  -25.2335  -31.2118   21.3703 O   0  0  0  0  0  0  0  0  0  0  0  0
  -28.5370  -28.0056   20.2180 O   0  0  0  0  0  0  0  0  0  0  0  0
  -32.0290  -14.5662   20.0195 O   0  0  0  0  0  0  0  0  0  0  0  0
  -27.3556  -19.7336   22.0501 O   0  0  0  0  0  0  0  0  0  0  0  0
  -21.3662   -7.2175   21.5582 O   0  0  0  0  0  0  0  0  0  0  0  0
  -24.3252  -22.7837   21.3772 O   0  0  0  0  0  0  0  0  0  1  0  0
  -18.6992   -6.8041   26.3665 F   0  0  0  0  0  0  0  0  0  0  0  0
  -21.8121   -5.0753   23.2478 F   0  0  0  0  0  0  0  0  0  0  0  0
  1  2  1  0  0  0  0
  1  5  2  0  0  0  0
  2  6  2  0  0  0  0
  3  8  2  0  0  0  0
  3 15  1  0  0  0  0
  4  9  1  0  0  0  0
  4 15  2  0  0  0  0
  5 17  1  0  0  0  0
  6 19  1  0  0  0  0
  7 10  2  0  0  0  0
  7 18  1  0  0  0  0
  8 21  1  0  0  0  0
  9 21  2  0  0  0  0
 10 22  1  0  0  0  0
 11 12  2  0  0  0  0
 11 23  1  0  0  0  0
 12 24  1  0  0  0  0
 13 20  1  0  0  0  0
 13 22  2  0  0  0  0
 14 24  2  0  0  0  0
 14 25  1  0  0  0  0
 15 26  1  0  0  0  0
 16 26  1  0  0  0  0
 16 27  2  0  0  0  0
 16 28  1  0  0  0  0
 17 19  2  0  0  0  0
 17 33  1  0  0  0  0
 18 20  2  0  0  0  0
 18 34  1  0  0  0  0
 19 44  1  0  0  0  0
 20 35  1  0  0  0  0
 21 78  1  0  0  0  0
 22 79  1  0  0  0  0
 23 25  2  0  0  0  0
 23 78  1  0  0  0  0
 24 80  1  0  0  0  0
 25 81  1  0  0  0  0
 26 61  2  0  0  0  0
 27 62  1  0  0  0  0
 27 65  1  0  0  0  0
 28 66  1  0  0  0  0
 28 72  2  0  0  0  0
 29 45  1  0  0  0  0
 29 67  1  0  0  0  0
 29 73  2  0  0  0  0
 30 58  1  0  0  0  0
 30 63  1  0  0  0  0
 30 74  2  0  0  0  0
 31 59  1  0  0  0  0
 31 68  1  0  0  0  0
 31 75  2  0  0  0  0
 32 64  1  0  0  0  0
 32 69  1  0  0  0  0
 32 76  2  0  0  0  0
 33 36  1  0  0  0  0
 34 45  1  0  0  0  0
 35 63  1  0  0  0  0
 36 38  1  0  0  0  0
 37 39  1  0  0  0  0
 37 41  1  0  0  0  0
 38 44  1  0  0  0  0
 39 47  1  0  0  0  0
 40 46  1  0  0  0  0
 40 48  1  0  0  0  0
 41 64  1  0  0  0  0
 42 47  1  0  0  0  0
 42 64  1  0  0  0  0
 43 46  1  0  0  0  0
 43 77  1  0  0  0  0
 44 67  1  0  0  0  0
 45 63  1  0  0  0  0
 46 54  1  0  0  0  0
 47 62  1  0  0  0  0
 48 55  1  0  0  0  0
 48 77  1  0  0  0  0
 49 59  1  0  0  0  0
 50 60  1  0  0  0  0
 51 60  1  0  0  0  0
 52 60  1  0  0  0  0
 53 70  1  0  0  0  0
 54 79  1  0  0  0  0
 55 71  1  0  0  0  0
 56 57  1  0  0  0  0
 56 69  1  0  0  0  0
 57 71  1  0  0  0  0
 58 60  1  0  0  0  0
 58 68  1  0  0  0  0
 59 70  1  0  0  0  0
 61 62  1  0  0  0  0
M  CHG  2  70   1  71   1
M  ISO  4  32 100  54 101  69 100  79 101
M  END
> <Batch ID>
0115

> <Smiles>
CNC(C)C(=O)NC(C(=O)N1Cc2cc([101O:1][101CH2:1]C3COC(CNCC[100NH:0][100C:0](=O)N4CCCC(n5nc(-c6ccc(Oc7ccc(F)cc7F)cc6)c(C(N)=O)c5N)C4)C3)ccc2CC1C(=O)NC1CCCc2ccccc21)C(C)(C)C

> <Shape>
0.320

> <Color>
0.212

> <Negative vol penalty>
0.000

$$$$

  -OEChem-04052320103D

 87 95  0     1  0  0  0  0  0999 V2000
  -17.2275  -31.4003   24.4814 C   0  0  0  0  0  0  0  0  0  0  0  0
  -18.3640  -31.9551   23.9019 C   0  0  0  0  0  0  0  0  0  0  0  0
  -26.2704  -12.6328   21.6235 C   0  0  0  0  0  0  0  0  0  0  0  0
  -25.9531  -13.8674   19.5712 C   0  0  0  0  0  0  0  0  0  0  0  0
  -17.2689  -30.1036   24.9920 C   0  0  0  0  0  0  0  0  0  0  0  0
  -19.5431  -31.2137   23.8336 C   0  0  0  0  0  0  0  0  0  0  0  0
  -25.3002  -30.2518   19.6806 C   0  0  0  0  0  0  0  0  0  0  0  0
  -24.9464  -12.1976   21.5664 C   0  0  0  0  0  0  0  0  0  0  0  0
  -24.6291  -13.4322   19.5140 C   0  0  0  0  0  0  0  0  0  0  0  0
  -26.6923  -30.2414   19.7551 C   0  0  0  0  0  0  0  0  0  0  0  0
  -21.0626  -12.9387   19.0178 C   0  0  0  0  0  0  0  0  0  0  0  0
  -20.0830  -13.8817   18.7070 C   0  0  0  0  0  0  0  0  0  0  0  0
  -26.6243  -27.9823   20.5985 C   0  0  0  0  0  0  0  0  0  0  0  0
  -20.7007  -15.1664   20.6576 C   0  0  0  0  0  0  0  0  0  0  0  0
  -26.7737  -13.4677   20.6259 C   0  0  0  0  0  0  0  0  0  0  0  0
  -29.2692  -13.2850   20.1291 C   0  0  0  0  0  0  0  0  0  0  0  0
  -18.4463  -29.3425   24.9213 C   0  0  0  0  0  0  0  0  0  0  0  0
  -24.5579  -29.1295   20.0755 C   0  0  0  0  0  0  0  0  0  0  0  0
  -19.6007  -29.9061   24.3449 C   0  0  0  0  0  0  0  0  0  0  0  0
  -25.2230  -27.9801   20.5256 C   0  0  0  0  0  0  0  0  0  0  0  0
  -24.1257  -12.5973   20.5117 C   0  0  0  0  0  0  0  0  0  0  0  0
  -27.3545  -29.1076   20.2168 C   0  0  0  0  0  0  0  0  0  0  0  0
  -21.8612  -13.1094   20.1487 C   0  0  0  0  0  0  0  0  0  0  0  0
  -19.9021  -14.9956   19.5268 C   0  0  0  0  0  0  0  0  0  0  0  0
  -21.6803  -14.2233   20.9685 C   0  0  0  0  0  0  0  0  0  0  0  0
  -28.1412  -13.9180   20.6846 C   0  0  0  0  0  0  0  0  0  0  0  0
  -31.0292  -23.0115   18.5757 C   0  0  0  0  0  0  0  0  0  0  0  0
  -30.3627  -22.4580   17.5026 C   0  0  0  0  0  0  0  0  0  0  0  0
  -30.3204  -14.1052   20.4590 C   0  0  0  0  0  0  0  0  0  0  0  0
  -30.4521  -21.1051   19.4937 C   0  0  0  0  0  0  0  0  0  0  0  0
  -29.3589  -12.0648   19.3817 C   0  0  0  0  0  0  0  0  0  0  0  0
  -22.3806  -28.5563   22.3193 C   0  0  0  0  0  0  0  0  0  0  0  0
  -22.1906  -25.6716   20.8480 C   0  0  0  0  0  0  0  0  0  0  0  0
  -23.6912  -23.3137   18.8896 C   0  0  0  0  0  0  0  0  0  0  0  0
  -30.7131  -19.9351   21.7094 C   0  0  0  0  0  0  0  0  0  0  0  0
  -18.4562  -27.9623   25.5293 C   0  0  0  0  0  0  0  0  0  0  0  0
  -23.0580  -29.1471   19.9639 C   0  0  0  0  0  0  0  0  0  0  0  0
  -24.4733  -26.7421   20.9424 C   0  0  0  0  0  0  0  0  0  0  0  0
  -19.6387  -27.1075   25.0807 C   0  0  0  0  0  0  0  0  0  0  0  0
  -31.7218  -17.2360   23.8009 C   0  0  0  0  0  0  0  0  0  0  0  0
  -20.9357  -27.9065   25.1605 C   0  0  0  0  0  0  0  0  0  0  0  0
  -31.0256  -16.0202   23.1849 C   0  0  0  0  0  0  0  0  0  0  0  0
  -30.8497  -18.4879   23.7248 C   0  0  0  0  0  0  0  0  0  0  0  0
  -29.6467  -17.5953   21.7690 C   0  0  0  0  0  0  0  0  0  0  0  0
  -20.8915  -29.1245   24.2299 C   0  0  1  0  0  0  0  0  0  0  0  0
  -22.3788  -28.1319   20.8779 C   0  0  1  0  0  0  0  0  0  0  0  0
  -30.5124  -16.3247   21.7639 C   0  0  2  0  0  0  0  0  0  0  0  0
  -23.3021  -21.0451   17.8900 C   0  0  0  0  0  0  0  0  0  0  0  0
  -29.1085  -24.8231   14.6787 C   0  0  0  0  0  0  0  0  0  0  0  0
  -27.9593  -24.1690   16.8036 C   0  0  0  0  0  0  0  0  0  0  0  0
  -30.4043  -27.2085   21.6658 C   0  0  0  0  0  0  0  0  0  0  0  0
  -29.6149  -28.6773   18.1249 C   0  0  0  0  0  0  0  0  0  0  0  0
  -22.6802  -24.3896   23.5732 C   0  0  0  0  0  0  0  0  0  0  0  0
  -23.2231  -22.2502   22.3915 C   0  0  0  0  0  0  0  0  0  0  0  0
  -20.9463  -23.2472   22.1792 C   0  0  0  0  0  0  0  0  0  0  0  0
  -23.9593  -24.3548   16.1322 C   0  0  0  0  0  0  0  0  0  0  0  0
  -31.6896  -24.3583   18.6061 C   0  0  0  0  0  0  0  0  0  0  0  0
  -30.1194  -23.0005   16.1512 C   0  0  0  0  0  0  0  0  0  0  0  0
  -31.5705  -26.6961   19.4774 C   0  0  0  0  0  0  0  0  0  0  0  0
  -22.8950  -24.3452   21.0007 C   0  0  1  0  0  0  0  0  0  0  0  0
  -23.1949  -22.5471   17.6770 C   0  0  2  0  0  0  0  0  0  0  0  0
  -29.3159  -24.3311   16.1134 C   0  0  0  0  0  0  0  0  0  0  0  0
  -30.7049  -27.7068   20.2435 C   0  0  1  0  0  0  0  0  0  0  0  0
  -29.3966  -28.1065   19.5216 C   0  0  1  0  0  0  0  0  0  1  0  0
  -22.4505  -23.5819   22.2802 C   0  0  0  0  0  0  0  0  0  0  0  0
  -28.4470  -15.0527   21.3193 N   0  0  0  0  0  0  0  0  0  0  0  0
  -31.0811  -22.2374   19.7185 N   0  0  0  0  0  0  0  0  0  0  0  0
  -29.7792  -15.1391   21.1648 N   0  0  0  0  0  0  0  0  0  0  0  0
  -23.0076  -26.8107   20.8211 N   0  0  0  0  0  0  0  0  0  0  0  0
  -30.4040  -18.7157   22.3485 N   0  0  0  0  0  0  0  0  0  0  0  0
  -31.6456  -14.0355   20.2114 N   0  0  0  0  0  0  0  0  0  0  0  0
  -28.1818  -11.3461   19.1322 N   0  0  0  0  0  0  0  0  0  0  0  0
  -30.2659  -20.0249   20.3916 N   0  0  0  0  0  0  0  0  0  0  0  0
  -21.1192  -28.7215   22.8587 N   0  0  0  0  0  0  0  0  0  0  0  0
  -22.6642  -23.6151   19.7589 N   0  0  0  0  0  0  0  0  0  0  0  0
  -23.9942  -22.9091   16.4725 N   0  3  0  0  0  0  0  0  0  0  0  0
  -30.9147  -25.3708   19.3750 N   0  3  0  0  0  0  0  0  0  0  0  0
  -30.4526  -11.6163   18.9620 O   0  0  0  0  0  0  0  0  0  0  0  0
  -23.4474  -28.7202   22.8996 O   0  0  0  0  0  0  0  0  0  0  0  0
  -20.9613  -25.6956   20.7489 O   0  0  0  0  0  0  0  0  0  0  0  0
  -24.8725  -23.6120   19.0514 O   0  0  0  0  0  0  0  0  0  0  0  0
  -31.3528  -20.8227   22.2794 O   0  0  0  0  0  0  0  0  0  0  0  0
  -22.8338  -12.1727   20.4555 O   0  0  0  0  0  0  0  0  0  0  0  0
  -28.7132  -29.0950   20.2911 O   0  0  0  0  0  0  0  0  0  1  0  0
  -18.9624  -15.9019   19.2273 F   0  0  0  0  0  0  0  0  0  0  0  0
  -22.4452  -14.3934   22.0556 F   0  0  0  0  0  0  0  0  0  0  0  0
  -29.7747  -20.9046   17.9298 S   0  0  0  0  0  0  0  0  0  0  0  0
  1  2  1  0  0  0  0
  1  5  2  0  0  0  0
  2  6  2  0  0  0  0
  3  8  2  0  0  0  0
  3 15  1  0  0  0  0
  4  9  1  0  0  0  0
  4 15  2  0  0  0  0
  5 17  1  0  0  0  0
  6 19  1  0  0  0  0
  7 10  2  0  0  0  0
  7 18  1  0  0  0  0
  8 21  1  0  0  0  0
  9 21  2  0  0  0  0
 10 22  1  0  0  0  0
 11 12  2  0  0  0  0
 11 23  1  0  0  0  0
 12 24  1  0  0  0  0
 13 20  1  0  0  0  0
 13 22  2  0  0  0  0
 14 24  2  0  0  0  0
 14 25  1  0  0  0  0
 15 26  1  0  0  0  0
 16 26  1  0  0  0  0
 16 29  2  0  0  0  0
 16 31  1  0  0  0  0
 17 19  2  0  0  0  0
 17 36  1  0  0  0  0
 18 20  2  0  0  0  0
 18 37  1  0  0  0  0
 19 45  1  0  0  0  0
 20 38  1  0  0  0  0
 21 83  1  0  0  0  0
 22 84  1  0  0  0  0
 23 25  2  0  0  0  0
 23 83  1  0  0  0  0
 24 85  1  0  0  0  0
 25 86  1  0  0  0  0
 26 66  2  0  0  0  0
 27 28  2  0  0  0  0
 27 57  1  0  0  0  0
 27 67  1  0  0  0  0
 28 58  1  0  0  0  0
 28 87  1  0  0  0  0
 29 68  1  0  0  0  0
 29 71  1  0  0  0  0
 30 67  2  0  0  0  0
 30 73  1  0  0  0  0
 30 87  1  0  0  0  0
 31 72  1  0  0  0  0
 31 78  2  0  0  0  0
 32 46  1  0  0  0  0
 32 74  1  0  0  0  0
 32 79  2  0  0  0  0
 33 60  1  0  0  0  0
 33 69  1  0  0  0  0
 33 80  2  0  0  0  0
 34 61  1  0  0  0  0
 34 75  1  0  0  0  0
 34 81  2  0  0  0  0
 35 70  1  0  0  0  0
 35 73  1  0  0  0  0
 35 82  2  0  0  0  0
 36 39  1  0  0  0  0
 37 46  1  0  0  0  0
 38 69  1  0  0  0  0
 39 41  1  0  0  0  0
 40 42  1  0  0  0  0
 40 43  1  0  0  0  0
 41 45  1  0  0  0  0
 42 47  1  0  0  0  0
 43 70  1  0  0  0  0
 44 47  1  0  0  0  0
 44 70  1  0  0  0  0
 45 74  1  0  0  0  0
 46 69  1  0  0  0  0
 47 68  1  0  0  0  0
 48 61  1  0  0  0  0
 49 62  1  0  0  0  0
 50 62  1  0  0  0  0
 51 63  1  0  0  0  0
 52 64  1  0  0  0  0
 53 65  1  0  0  0  0
 54 65  1  0  0  0  0
 55 65  1  0  0  0  0
 56 76  1  0  0  0  0
 57 77  1  0  0  0  0
 58 62  1  0  0  0  0
 59 63  1  0  0  0  0
 59 77  1  0  0  0  0
 60 65  1  0  0  0  0
 60 75  1  0  0  0  0
 61 76  1  0  0  0  0
 63 64  1  0  0  0  0
 64 84  1  0  0  0  0
 66 68  1  0  0  0  0
M  CHG  2  76   1  77   1
M  ISO  4  35 100  64 101  73 100  84 101
M  END
> <Batch ID>
0115

> <Smiles>
CNC(C)C(=O)NC(C(=O)N1Cc2cc([101O:1][101CH:1](C)C(C)CNCc3nc([100NH:0][100C:0](=O)N4CCCC(n5nc(-c6ccc(Oc7ccc(F)cc7F)cc6)c(C(N)=O)c5N)C4)sc3CC(C)C)ccc2CC1C(=O)NC1CCCc2ccccc21)C(C)(C)C

> <Shape>
0.265

> <Color>
0.061

> <Negative vol penalty>
0.000

$$$$

  -OEChem-04052320103D

 86 94  0     1  0  0  0  0  0999 V2000
  -23.5088  -21.7478   19.4617 C   0  0  0  0  0  0  0  0  0  0  0  0
  -24.6461  -21.8294   20.2588 C   0  0  0  0  0  0  0  0  0  0  0  0
  -22.9846   -9.8431   20.0916 C   0  0  0  0  0  0  0  0  0  0  0  0
  -23.6431  -10.0943   22.4026 C   0  0  0  0  0  0  0  0  0  0  0  0
  -23.2308  -22.7566   18.5404 C   0  0  0  0  0  0  0  0  0  0  0  0
  -25.5066  -22.9196   20.1343 C   0  0  0  0  0  0  0  0  0  0  0  0
  -26.9387  -24.7864   24.6186 C   0  0  0  0  0  0  0  0  0  0  0  0
  -22.2011   -8.7413   20.4346 C   0  0  0  0  0  0  0  0  0  0  0  0
  -22.8595   -8.9925   22.7456 C   0  0  0  0  0  0  0  0  0  0  0  0
  -27.9303  -24.0919   25.3101 C   0  0  0  0  0  0  0  0  0  0  0  0
  -23.0890   -5.6234   22.5789 C   0  0  0  0  0  0  0  0  0  0  0  0
  -23.6458   -4.6736   23.4352 C   0  0  0  0  0  0  0  0  0  0  0  0
  -29.5727  -25.6818   24.5397 C   0  0  0  0  0  0  0  0  0  0  0  0
  -29.7329  -17.8117   22.2813 C   0  0  0  0  0  0  0  0  0  0  0  0
  -21.8761   -5.0745   25.0305 C   0  0  0  0  0  0  0  0  0  0  0  0
  -32.2651  -18.4929   21.5267 C   0  0  0  0  0  0  0  0  0  0  0  0
  -23.7057  -10.5196   21.0756 C   0  0  0  0  0  0  0  0  0  0  0  0
  -31.5090  -19.4318   22.2097 C   0  0  0  0  0  0  0  0  0  0  0  0
  -24.1173  -13.0073   20.6888 C   0  0  0  0  0  0  0  0  0  0  0  0
  -24.0832  -23.8645   18.4113 C   0  0  0  0  0  0  0  0  0  0  0  0
  -27.2591  -25.9296   23.8723 C   0  0  0  0  0  0  0  0  0  0  0  0
  -25.2405  -23.9435   19.2094 C   0  0  0  0  0  0  0  0  0  0  0  0
  -28.5830  -26.3905   23.8417 C   0  0  0  0  0  0  0  0  0  0  0  0
  -30.2198  -19.0769   22.5907 C   0  0  0  0  0  0  0  0  0  0  0  0
  -22.1385   -8.3160   21.7616 C   0  0  0  0  0  0  0  0  0  0  0  0
  -29.2480  -24.5379   25.2684 C   0  0  0  0  0  0  0  0  0  0  0  0
  -21.9258   -6.2989   22.9483 C   0  0  0  0  0  0  0  0  0  0  0  0
  -23.0394   -4.3991   24.6610 C   0  0  0  0  0  0  0  0  0  0  0  0
  -21.3194   -6.0244   24.1741 C   0  0  0  0  0  0  0  0  0  0  0  0
  -24.5157  -11.6574   20.7218 C   0  0  0  0  0  0  0  0  0  0  0  0
  -30.5684  -16.9454   21.5949 C   0  0  0  0  0  0  0  0  0  0  0  0
  -25.2432  -13.6881   20.2949 C   0  0  0  0  0  0  0  0  0  0  0  0
  -32.0827  -20.7541   22.5095 C   0  0  0  0  0  0  0  0  0  0  0  0
  -33.1715  -20.9713   23.2646 C   0  0  0  0  0  0  0  0  0  0  0  0
  -22.8433  -13.5933   20.9877 C   0  0  0  0  0  0  0  0  0  0  0  0
  -27.0773  -26.7268   20.8007 C   0  0  0  0  0  0  0  0  0  0  0  0
  -27.9988  -29.6352   21.9028 C   0  0  0  0  0  0  0  0  0  0  0  0
  -29.5579  -31.4505   24.3360 C   0  0  0  0  0  0  0  0  0  0  0  0
  -30.7216  -14.6338   20.6051 C   0  0  0  0  0  0  0  0  0  0  0  0
  -23.7663  -24.9067   17.3682 C   0  0  0  0  0  0  0  0  0  0  0  0
  -26.1734  -26.6828   23.1538 C   0  0  0  0  0  0  0  0  0  0  0  0
  -28.9756  -27.6240   23.0718 C   0  0  0  0  0  0  0  0  0  0  0  0
  -24.5303  -26.2140   17.5616 C   0  0  0  0  0  0  0  0  0  0  0  0
  -29.6505  -11.9907   18.4736 C   0  0  0  0  0  0  0  0  0  0  0  0
  -26.0052  -25.9352   17.8332 C   0  0  0  0  0  0  0  0  0  0  0  0
  -28.1863  -11.7794   18.8658 C   0  0  0  0  0  0  0  0  0  0  0  0
  -30.5175  -12.3353   19.6832 C   0  0  0  0  0  0  0  0  0  0  0  0
  -28.5711  -13.2508   20.8842 C   0  0  0  0  0  0  0  0  0  0  0  0
  -26.1850  -25.1226   19.1211 C   0  0  1  0  0  0  0  0  0  0  0  0
  -26.6995  -27.5398   22.0065 C   0  0  1  0  0  0  0  0  0  0  0  0
  -27.6467  -12.9652   19.6893 C   0  0  2  0  0  0  0  0  0  0  0  0
  -29.3344  -20.0262   23.3307 C   0  0  0  0  0  0  0  0  0  0  0  0
  -35.1327  -22.4623   22.9747 C   0  0  0  0  0  0  0  0  0  0  0  0
  -30.1868  -33.8035   24.9406 C   0  0  0  0  0  0  0  0  0  0  0  0
  -32.3522  -22.4304   27.2485 C   0  0  0  0  0  0  0  0  0  0  0  0
  -30.2669  -29.5503   19.8636 C   0  0  0  0  0  0  0  0  0  0  0  0
  -31.3792  -31.4033   21.1276 C   0  0  0  0  0  0  0  0  0  0  0  0
  -29.1443  -31.7743   20.0834 C   0  0  0  0  0  0  0  0  0  0  0  0
  -27.9357  -31.3717   26.8101 C   0  0  0  0  0  0  0  0  0  0  0  0
  -33.6870  -22.6037   25.0774 C   0  0  0  0  0  0  0  0  0  0  0  0
  -31.5362  -23.9028   25.3972 C   0  0  0  0  0  0  0  0  0  1  0  0
  -33.7214  -22.3514   23.5550 C   0  0  2  0  0  0  0  0  0  0  0  0
  -29.3243  -30.3171   22.1417 C   0  0  1  0  0  0  0  0  0  0  0  0
  -29.1413  -32.7077   25.0779 C   0  0  2  0  0  0  0  0  0  0  0  0
  -32.2852  -22.6032   25.7305 C   0  0  2  0  0  0  0  0  0  0  0  0
  -30.0219  -30.7369   20.8171 C   0  0  0  0  0  0  0  0  0  0  0  0
  -31.8265  -17.2544   21.2083 N   0  0  0  0  0  0  0  0  0  0  0  0
  -25.7948  -11.4888   20.3762 N   0  0  0  0  0  0  0  0  0  0  0  0
  -26.2099  -12.7415   20.1223 N   0  0  0  0  0  0  0  0  0  0  0  0
  -27.8793  -28.3224   22.3805 N   0  0  0  0  0  0  0  0  0  0  0  0
  -29.9473  -13.4702   20.4124 N   0  0  0  0  0  0  0  0  0  0  0  0
  -25.4908  -14.9981   20.0827 N   0  0  0  0  0  0  0  0  0  0  0  0
  -21.7945  -12.7493   21.3775 N   0  0  0  0  0  0  0  0  0  0  0  0
  -30.0629  -15.6588   21.2835 N   0  0  0  0  0  0  0  0  0  0  0  0
  -26.0404  -25.9755   20.2813 N   0  0  0  0  0  0  0  0  0  0  0  0
  -29.0553  -31.4247   23.0523 N   0  0  0  0  0  0  0  0  0  0  0  0
  -28.9540  -32.4158   26.5273 N   0  3  0  0  0  0  0  0  0  0  0  0
  -22.6365  -14.8271   20.8954 O   0  0  0  0  0  0  0  0  0  0  0  0
  -28.2243  -26.7786   20.3723 O   0  0  0  0  0  0  0  0  0  0  0  0
  -27.1000  -30.2473   21.3204 O   0  0  0  0  0  0  0  0  0  0  0  0
  -30.2622  -30.5803   24.8432 O   0  0  0  0  0  0  0  0  0  0  0  0
  -31.8741  -14.7252   20.1745 O   0  0  0  0  0  0  0  0  0  0  0  0
  -21.3738   -7.2410   22.0967 O   0  0  0  0  0  0  0  0  0  0  0  0
  -30.2179  -23.8615   25.9419 O   0  0  0  0  0  0  0  0  0  1  0  0
  -23.5733   -3.4859   25.4826 F   0  0  0  0  0  0  0  0  0  0  0  0
  -20.2011   -6.6692   24.5340 F   0  0  0  0  0  0  0  0  0  0  0  0
  1  2  1  0  0  0  0
  1  5  2  0  0  0  0
  2  6  2  0  0  0  0
  3  8  2  0  0  0  0
  3 17  1  0  0  0  0
  4  9  1  0  0  0  0
  4 17  2  0  0  0  0
  5 20  1  0  0  0  0
  6 22  1  0  0  0  0
  7 10  2  0  0  0  0
  7 21  1  0  0  0  0
  8 25  1  0  0  0  0
  9 25  2  0  0  0  0
 10 26  1  0  0  0  0
 11 12  2  0  0  0  0
 11 27  1  0  0  0  0
 12 28  1  0  0  0  0
 13 23  1  0  0  0  0
 13 26  2  0  0  0  0
 14 24  1  0  0  0  0
 14 31  2  0  0  0  0
 15 28  2  0  0  0  0
 15 29  1  0  0  0  0
 16 18  1  0  0  0  0
 16 67  2  0  0  0  0
 17 30  1  0  0  0  0
 18 24  2  0  0  0  0
 18 33  1  0  0  0  0
 19 30  1  0  0  0  0
 19 32  2  0  0  0  0
 19 35  1  0  0  0  0
 20 22  2  0  0  0  0
 20 40  1  0  0  0  0
 21 23  2  0  0  0  0
 21 41  1  0  0  0  0
 22 49  1  0  0  0  0
 23 42  1  0  0  0  0
 24 52  1  0  0  0  0
 25 83  1  0  0  0  0
 26 84  1  0  0  0  0
 27 29  2  0  0  0  0
 27 83  1  0  0  0  0
 28 85  1  0  0  0  0
 29 86  1  0  0  0  0
 30 68  2  0  0  0  0
 31 67  1  0  0  0  0
 31 74  1  0  0  0  0
 32 69  1  0  0  0  0
 32 72  1  0  0  0  0
 33 34  2  0  0  0  0
 34 62  1  0  0  0  0
 35 73  1  0  0  0  0
 35 78  2  0  0  0  0
 36 50  1  0  0  0  0
 36 75  1  0  0  0  0
 36 79  2  0  0  0  0
 37 63  1  0  0  0  0
 37 70  1  0  0  0  0
 37 80  2  0  0  0  0
 38 64  1  0  0  0  0
 38 76  1  0  0  0  0
 38 81  2  0  0  0  0
 39 71  1  0  0  0  0
 39 74  1  0  0  0  0
 39 82  2  0  0  0  0
 40 43  1  0  0  0  0
 41 50  1  0  0  0  0
 42 70  1  0  0  0  0
 43 45  1  0  0  0  0
 44 46  1  0  0  0  0
 44 47  1  0  0  0  0
 45 49  1  0  0  0  0
 46 51  1  0  0  0  0
 47 71  1  0  0  0  0
 48 51  1  0  0  0  0
 48 71  1  0  0  0  0
 49 75  1  0  0  0  0
 50 70  1  0  0  0  0
 51 69  1  0  0  0  0
 53 62  1  0  0  0  0
 54 64  1  0  0  0  0
 55 65  1  0  0  0  0
 56 66  1  0  0  0  0
 57 66  1  0  0  0  0
 58 66  1  0  0  0  0
 59 77  1  0  0  0  0
 60 62  1  0  0  0  0
 60 65  1  0  0  0  0
 61 65  1  0  0  0  0
 61 84  1  0  0  0  0
 63 66  1  0  0  0  0
 63 76  1  0  0  0  0
 64 77  1  0  0  0  0
 68 69  1  0  0  0  0
M  CHG  1  77   1
M  ISO  4  39 100  61 101  74 100  84 101
M  END
> <Batch ID>
0115

> <Smiles>
CNC(C)C(=O)NC(C(=O)N1Cc2cc([101O:1][101CH2:1]C(C)CC(C)C=Cc3cnc([100NH:0][100C:0](=O)N4CCCC(n5nc(-c6ccc(Oc7ccc(F)cc7F)cc6)c(C(N)=O)c5N)C4)cc3C)ccc2CC1C(=O)NC1CCCc2ccccc21)C(C)(C)C

> <Shape>
0.228

> <Color>
0.201

> <Negative vol penalty>
0.000

$$$$

  -OEChem-04052320103D

 86 94  0     1  0  0  0  0  0999 V2000
  -24.5832  -10.6587   20.9609 C   0  0  0  0  0  0  0  0  0  0  0  0
  -24.1616  -11.6200   21.8739 C   0  0  0  0  0  0  0  0  0  0  0  0
  -30.1741  -24.2196   19.9899 C   0  0  0  0  0  0  0  0  0  0  0  0
  -28.0124  -23.8802   18.9655 C   0  0  0  0  0  0  0  0  0  0  0  0
  -25.5503  -10.9795   20.0092 C   0  0  0  0  0  0  0  0  0  0  0  0
  -24.7077  -12.9025   21.8363 C   0  0  0  0  0  0  0  0  0  0  0  0
  -22.9731  -19.7465   23.0475 C   0  0  0  0  0  0  0  0  0  0  0  0
  -30.3310  -22.8394   20.1160 C   0  0  0  0  0  0  0  0  0  0  0  0
  -28.1694  -22.4999   19.0917 C   0  0  0  0  0  0  0  0  0  0  0  0
  -23.4167  -20.8604   23.7590 C   0  0  0  0  0  0  0  0  0  0  0  0
  -31.1431  -19.4159   21.0348 C   0  0  0  0  0  0  0  0  0  0  0  0
  -31.6208  -18.9244   22.2496 C   0  0  0  0  0  0  0  0  0  0  0  0
  -25.0231  -21.3238   22.0201 C   0  0  0  0  0  0  0  0  0  0  0  0
  -29.7225  -19.8927   23.3880 C   0  0  0  0  0  0  0  0  0  0  0  0
  -29.0147  -24.7400   19.4147 C   0  0  0  0  0  0  0  0  0  0  0  0
  -29.2408  -26.9701   18.1967 C   0  0  0  0  0  0  0  0  0  0  0  0
  -26.1014  -12.2694   19.9537 C   0  0  0  0  0  0  0  0  0  0  0  0
  -23.5596  -19.4061   21.8200 C   0  0  0  0  0  0  0  0  0  0  0  0
  -25.6840  -13.2405   20.8838 C   0  0  0  0  0  0  0  0  0  0  0  0
  -24.5834  -20.2066   21.2937 C   0  0  0  0  0  0  0  0  0  0  0  0
  -29.3287  -21.9795   19.6669 C   0  0  0  0  0  0  0  0  0  0  0  0
  -24.4438  -21.6476   23.2467 C   0  0  0  0  0  0  0  0  0  0  0  0
  -29.9551  -20.1460   20.9966 C   0  0  0  0  0  0  0  0  0  0  0  0
  -30.9106  -19.1627   23.4262 C   0  0  0  0  0  0  0  0  0  0  0  0
  -29.2448  -20.3843   22.1732 C   0  0  0  0  0  0  0  0  0  0  0  0
  -28.8518  -26.1657   19.2846 C   0  0  0  0  0  0  0  0  0  0  0  0
  -28.8684  -28.2414   18.5592 C   0  0  0  0  0  0  0  0  0  0  0  0
  -29.8813  -26.6010   16.9682 C   0  0  0  0  0  0  0  0  0  0  0  0
  -25.1742  -16.8967   20.7249 C   0  0  0  0  0  0  0  0  0  0  0  0
  -24.9540  -18.4789   17.9017 C   0  0  0  0  0  0  0  0  0  0  0  0
  -24.5533  -21.4485   16.2683 C   0  0  0  0  0  0  0  0  0  0  0  0
  -24.6971  -30.3589   22.2966 C   0  0  0  0  0  0  0  0  0  0  0  0
  -27.1784  -12.5555   18.9374 C   0  0  0  0  0  0  0  0  0  0  0  0
  -23.0514  -18.2168   21.0520 C   0  0  0  0  0  0  0  0  0  0  0  0
  -25.2324  -19.8957   19.9706 C   0  0  0  0  0  0  0  0  0  0  0  0
  -27.4348  -14.0453   18.7246 C   0  0  0  0  0  0  0  0  0  0  0  0
  -28.1990  -30.9903   22.4175 C   0  0  0  0  0  0  0  0  0  0  0  0
  -27.5415  -14.7653   20.0651 C   0  0  0  0  0  0  0  0  0  0  0  0
  -28.7985  -29.8980   21.5302 C   0  0  0  0  0  0  0  0  0  0  0  0
  -21.1338  -25.9811   20.5066 C   0  0  0  0  0  0  0  0  0  0  0  0
  -26.9972  -30.4785   23.2085 C   0  0  0  0  0  0  0  0  0  0  0  0
  -26.5415  -28.7560   21.5058 C   0  0  0  0  0  0  0  0  0  0  0  0
  -20.8639  -27.4529   20.7864 C   0  0  0  0  0  0  0  0  0  0  0  0
  -21.3245  -27.0923   23.2291 C   0  0  0  0  0  0  0  0  0  0  0  0
  -26.2347  -14.6499   20.8590 C   0  0  1  0  0  0  0  0  0  0  0  0
  -24.0703  -17.6677   20.0581 C   0  0  1  0  0  0  0  0  0  0  0  0
  -20.8233  -25.1088   21.7303 C   0  0  2  0  0  0  0  0  0  0  0  0
  -27.7219  -29.2399   20.6463 C   0  0  2  0  0  0  0  0  0  0  0  0
  -21.5817  -25.6104   22.9699 C   0  0  1  0  0  0  0  0  0  0  0  0
  -24.4544  -22.4298   13.9608 C   0  0  0  0  0  0  0  0  0  0  0  0
  -20.8431  -22.7712   22.6461 C   0  0  0  0  0  0  0  0  0  0  0  0
  -20.2874  -23.1684   20.2301 C   0  0  0  0  0  0  0  0  0  0  0  0
  -27.9857  -18.2272   17.6673 C   0  0  0  0  0  0  0  0  0  0  0  0
  -27.9264  -19.9994   15.8998 C   0  0  0  0  0  0  0  0  0  0  0  0
  -26.7386  -17.8363   15.5351 C   0  0  0  0  0  0  0  0  0  0  0  0
  -21.7908  -22.4282   16.6777 C   0  0  0  0  0  0  0  0  0  0  0  0
  -25.1208  -25.1354   23.9023 C   0  0  0  0  0  0  0  0  0  0  0  0
  -22.4457  -30.1247   21.2789 C   0  0  0  0  0  0  0  0  0  0  0  0
  -21.5363  -29.3696   22.2304 C   0  0  0  0  0  0  0  0  0  0  0  0
  -25.3944  -23.8265   23.1782 C   0  0  0  0  0  0  0  0  0  1  0  0
  -23.6322  -25.3789   24.0945 C   0  0  0  0  0  0  0  0  0  0  0  0
  -25.7956  -19.5057   17.1831 C   0  0  1  0  0  0  0  0  0  0  0  0
  -23.6516  -21.8501   15.1150 C   0  0  2  0  0  0  0  0  0  0  0  0
  -21.1166  -23.6403   21.4214 C   0  0  0  0  0  0  0  0  0  0  0  0
  -27.1009  -18.8972   16.5972 C   0  0  0  0  0  0  0  0  0  0  0  0
  -28.2765  -26.8673   20.2649 N   0  0  0  0  0  0  0  0  0  0  0  0
  -28.3014  -28.1259   19.7943 N   0  0  0  0  0  0  0  0  0  0  0  0
  -24.7050  -18.7189   19.2604 N   0  0  0  0  0  0  0  0  0  0  0  0
  -26.0129  -29.8677   22.3118 N   0  0  0  0  0  0  0  0  0  0  0  0
  -28.9740  -29.4358   17.9389 N   0  0  0  0  0  0  0  0  0  0  0  0
  -30.1942  -25.2512   16.7571 N   0  0  0  0  0  0  0  0  0  0  0  0
  -25.2458  -15.5711   20.3414 N   0  0  0  0  0  0  0  0  0  0  0  0
  -24.9251  -20.1231   16.1883 N   0  0  0  0  0  0  0  0  0  0  0  0
  -23.8296  -29.7279   21.4133 N   0  0  0  0  0  0  0  0  0  0  0  0
  -21.6628  -27.8906   21.9890 N   0  3  2  0  0  0  0  0  0  0  0  0
  -22.6642  -22.8732   15.5614 N   0  3  0  0  0  0  0  0  0  0  0  0
  -30.1827  -27.4455   16.0910 O   0  0  0  0  0  0  0  0  0  0  0  0
  -25.9078  -17.4630   21.5267 O   0  0  0  0  0  0  0  0  0  0  0  0
  -24.5271  -17.5037   17.2785 O   0  0  0  0  0  0  0  0  0  0  0  0
  -24.8967  -22.2331   17.1498 O   0  0  0  0  0  0  0  0  0  0  0  0
  -24.3243  -31.2942   23.0129 O   0  0  0  0  0  0  0  0  0  0  0  0
  -29.4817  -20.6326   19.7896 O   0  0  0  0  0  0  0  0  0  0  0  0
  -24.8792  -22.7350   23.9394 O   0  0  0  0  0  0  0  0  0  1  0  0
  -22.9843  -25.4279   22.8305 O   0  0  0  0  0  0  0  0  0  0  0  0
  -31.3687  -18.6893   24.5924 F   0  0  0  0  0  0  0  0  0  0  0  0
  -28.1023  -21.0840   22.1426 F   0  0  0  0  0  0  0  0  0  0  0  0
  1  2  1  0  0  0  0
  1  5  2  0  0  0  0
  2  6  2  0  0  0  0
  3  8  2  0  0  0  0
  3 15  1  0  0  0  0
  4  9  1  0  0  0  0
  4 15  2  0  0  0  0
  5 17  1  0  0  0  0
  6 19  1  0  0  0  0
  7 10  2  0  0  0  0
  7 18  1  0  0  0  0
  8 21  1  0  0  0  0
  9 21  2  0  0  0  0
 10 22  1  0  0  0  0
 11 12  2  0  0  0  0
 11 23  1  0  0  0  0
 12 24  1  0  0  0  0
 13 20  1  0  0  0  0
 13 22  2  0  0  0  0
 14 24  2  0  0  0  0
 14 25  1  0  0  0  0
 15 26  1  0  0  0  0
 16 26  1  0  0  0  0
 16 27  2  0  0  0  0
 16 28  1  0  0  0  0
 17 19  2  0  0  0  0
 17 33  1  0  0  0  0
 18 20  2  0  0  0  0
 18 34  1  0  0  0  0
 19 45  1  0  0  0  0
 20 35  1  0  0  0  0
 21 82  1  0  0  0  0
 22 83  1  0  0  0  0
 23 25  2  0  0  0  0
 23 82  1  0  0  0  0
 24 85  1  0  0  0  0
 25 86  1  0  0  0  0
 26 66  2  0  0  0  0
 27 67  1  0  0  0  0
 27 70  1  0  0  0  0
 28 71  1  0  0  0  0
 28 77  2  0  0  0  0
 29 46  1  0  0  0  0
 29 72  1  0  0  0  0
 29 78  2  0  0  0  0
 30 62  1  0  0  0  0
 30 68  1  0  0  0  0
 30 79  2  0  0  0  0
 31 63  1  0  0  0  0
 31 73  1  0  0  0  0
 31 80  2  0  0  0  0
 32 69  1  0  0  0  0
 32 74  1  0  0  0  0
 32 81  2  0  0  0  0
 33 36  1  0  0  0  0
 34 46  1  0  0  0  0
 35 68  1  0  0  0  0
 36 38  1  0  0  0  0
 37 39  1  0  0  0  0
 37 41  1  0  0  0  0
 38 45  1  0  0  0  0
 39 48  1  0  0  0  0
 40 43  1  0  0  0  0
 40 47  1  0  0  0  0
 41 69  1  0  0  0  0
 42 48  1  0  0  0  0
 42 69  1  0  0  0  0
 43 75  1  0  0  0  0
 44 49  1  0  0  0  0
 44 75  1  0  0  0  0
 45 72  1  0  0  0  0
 46 68  1  0  0  0  0
 47 49  1  0  0  0  0
 47 64  1  0  0  0  0
 48 67  1  0  0  0  0
 49 84  1  0  0  0  0
 50 63  1  0  0  0  0
 51 64  1  0  0  0  0
 52 64  1  0  0  0  0
 53 65  1  0  0  0  0
 54 65  1  0  0  0  0
 55 65  1  0  0  0  0
 56 76  1  0  0  0  0
 57 60  1  0  0  0  0
 57 61  1  0  0  0  0
 58 59  1  0  0  0  0
 58 74  1  0  0  0  0
 59 75  1  0  0  0  0
 60 83  1  0  0  0  0
 61 84  1  0  0  0  0
 62 65  1  0  0  0  0
 62 73  1  0  0  0  0
 63 76  1  0  0  0  0
 66 67  1  0  0  0  0
M  CHG  2  75   1  76   1
M  ISO  4  32 100  60 101  74 100  83 101
M  END
> <Batch ID>
0115

> <Smiles>
CNC(C)C(=O)NC(C(=O)N1Cc2cc([101O:1][101CH2:1]CCOC3CN(CC[100NH:0][100C:0](=O)N4CCCC(n5nc(-c6ccc(Oc7ccc(F)cc7F)cc6)c(C(N)=O)c5N)C4)CCC3C(C)C)ccc2CC1C(=O)NC1CCCc2ccccc21)C(C)(C)C

> <Shape>
0.200

> <Color>
0.065

> <Negative vol penalty>
0.000

$$$$

  -OEChem-04052320103D

 90 99  0     1  0  0  0  0  0999 V2000
  -23.3382  -37.7848   21.0641 C   0  0  0  0  0  0  0  0  0  0  0  0
  -24.3814  -36.9983   21.5423 C   0  0  0  0  0  0  0  0  0  0  0  0
  -23.2907  -14.1850   23.8026 C   0  0  0  0  0  0  0  0  0  0  0  0
  -24.3361  -12.0292   24.1134 C   0  0  0  0  0  0  0  0  0  0  0  0
  -22.0222  -37.3376   21.1747 C   0  0  0  0  0  0  0  0  0  0  0  0
  -24.1091  -35.7646   22.1324 C   0  0  0  0  0  0  0  0  0  0  0  0
  -26.9237  -29.6855   19.4841 C   0  0  0  0  0  0  0  0  0  0  0  0
  -22.7032  -14.0819   25.0635 C   0  0  0  0  0  0  0  0  0  0  0  0
  -23.7487  -11.9261   25.3743 C   0  0  0  0  0  0  0  0  0  0  0  0
  -27.5921  -28.5034   19.1646 C   0  0  0  0  0  0  0  0  0  0  0  0
  -20.0611  -12.5012   26.4582 C   0  0  0  0  0  0  0  0  0  0  0  0
  -18.7138  -12.8429   26.5744 C   0  0  0  0  0  0  0  0  0  0  0  0
  -26.3288  -27.3201   20.8534 C   0  0  0  0  0  0  0  0  0  0  0  0
  -19.2881  -14.5653   28.1683 C   0  0  0  0  0  0  0  0  0  0  0  0
  -24.1071  -13.1586   23.3275 C   0  0  0  0  0  0  0  0  0  0  0  0
  -24.0543  -13.3942   20.7880 C   0  0  0  0  0  0  0  0  0  0  0  0
  -21.7344  -36.0934   21.7577 C   0  0  0  0  0  0  0  0  0  0  0  0
  -25.9433  -29.6860   20.4801 C   0  0  0  0  0  0  0  0  0  0  0  0
  -22.7880  -35.3009   22.2521 C   0  0  0  0  0  0  0  0  0  0  0  0
  -25.6472  -28.4984   21.1692 C   0  0  0  0  0  0  0  0  0  0  0  0
  -22.9322  -12.9525   25.8494 C   0  0  0  0  0  0  0  0  0  0  0  0
  -27.2955  -27.3237   19.8478 C   0  0  0  0  0  0  0  0  0  0  0  0
  -21.0220  -13.1916   27.1970 C   0  0  0  0  0  0  0  0  0  0  0  0
  -18.3273  -13.8749   27.4295 C   0  0  0  0  0  0  0  0  0  0  0  0
  -20.6355  -14.2236   28.0520 C   0  0  0  0  0  0  0  0  0  0  0  0
  -24.7138  -13.2643   22.0249 C   0  0  0  0  0  0  0  0  0  0  0  0
  -25.0679  -13.4554   19.8632 C   0  0  0  0  0  0  0  0  0  0  0  0
  -22.6509  -13.4543   20.5006 C   0  0  0  0  0  0  0  0  0  0  0  0
  -23.4066  -31.6617   22.4136 C   0  0  0  0  0  0  0  0  0  0  0  0
  -22.1377  -28.9359   21.8052 C   0  0  0  0  0  0  0  0  0  0  0  0
  -30.0753  -18.5465   23.8385 C   0  0  0  0  0  0  0  0  0  0  0  0
  -20.0126  -26.3513   21.1415 C   0  0  0  0  0  0  0  0  0  0  0  0
  -30.8027  -15.1428   20.2047 C   0  0  0  0  0  0  0  0  0  0  0  0
  -20.2927  -35.6735   21.8978 C   0  0  0  0  0  0  0  0  0  0  0  0
  -25.2416  -30.9491   20.8997 C   0  0  0  0  0  0  0  0  0  0  0  0
  -24.6097  -28.5538   22.2570 C   0  0  0  0  0  0  0  0  0  0  0  0
  -20.1176  -34.1870   22.1977 C   0  0  0  0  0  0  0  0  0  0  0  0
  -29.5610  -11.9839   19.1294 C   0  0  0  0  0  0  0  0  0  0  0  0
  -21.0748  -33.7488   23.3016 C   0  0  0  0  0  0  0  0  0  0  0  0
  -29.5156  -23.1407   20.3514 C   0  0  0  0  0  0  0  0  0  0  0  0
  -29.7358  -22.6048   17.8875 C   0  0  0  0  0  0  0  0  0  0  0  0
  -28.1184  -11.9656   19.6379 C   0  0  0  0  0  0  0  0  0  0  0  0
  -30.9950  -22.8129   20.5578 C   0  0  0  0  0  0  0  0  0  0  0  0
  -31.2156  -22.2750   18.0885 C   0  0  0  0  0  0  0  0  0  0  0  0
  -30.7173  -18.1529   18.9353 C   0  0  0  0  0  0  0  0  0  0  0  0
  -30.4965  -12.6864   20.1109 C   0  0  0  0  0  0  0  0  0  0  0  0
  -28.6343  -14.0269   21.0104 C   0  0  0  0  0  0  0  0  0  0  0  0
  -31.4218  -19.4842   18.7134 C   0  0  0  0  0  0  0  0  0  0  0  0
  -31.2653  -19.9907   21.1657 C   0  0  0  0  0  0  0  0  0  0  0  0
  -22.5348  -33.9457   22.8761 C   0  0  1  0  0  0  0  0  0  0  0  0
  -23.7752  -30.7182   21.3066 C   0  0  1  0  0  0  0  0  0  0  0  0
  -29.2343  -23.6214   18.9216 C   0  0  0  0  0  0  0  0  0  0  0  0
  -27.6436  -13.3781   20.0286 C   0  0  2  0  0  0  0  0  0  0  0  0
  -30.9541  -17.6152   20.3491 C   0  0  1  0  0  0  0  0  0  0  0  0
  -30.5545  -18.6597   21.4028 C   0  0  1  0  0  0  0  0  0  0  0  0
  -31.5462  -21.8402   19.5159 C   0  0  0  0  0  0  0  0  0  0  0  0
  -30.5401  -17.9383   25.1201 C   0  0  0  0  0  0  0  0  0  0  0  0
  -17.9732  -25.1976   22.0400 C   0  0  0  0  0  0  0  0  0  0  0  0
  -27.4652  -24.3321   17.2926 C   0  0  0  0  0  0  0  0  0  0  0  0
  -23.8447  -27.5960   23.9487 C   0  0  0  0  0  0  0  0  0  0  0  0
  -22.0763  -25.8359   24.1562 C   0  0  0  0  0  0  0  0  0  0  0  0
  -21.5364  -28.2127   24.6874 C   0  0  0  0  0  0  0  0  0  0  0  0
  -18.4488  -26.9666   18.7053 C   0  0  0  0  0  0  0  0  0  0  0  0
  -27.2376  -24.9495   19.7166 C   0  0  0  0  0  0  0  0  0  1  0  0
  -21.8777  -27.5279   22.2777 C   0  0  1  0  0  0  0  0  0  0  0  0
  -18.4968  -26.2771   21.1055 C   0  0  2  0  0  0  0  0  0  0  0  0
  -27.7436  -23.8945   18.7290 C   0  0  2  0  0  0  0  0  0  0  0  0
  -22.3461  -27.2984   23.7424 C   0  0  0  0  0  0  0  0  0  0  0  0
  -26.0435  -13.2438   21.9006 N   0  0  0  0  0  0  0  0  0  0  0  0
  -26.2278  -13.3616   20.5746 N   0  0  0  0  0  0  0  0  0  0  0  0
  -23.4679  -29.3729   21.8210 N   0  0  0  0  0  0  0  0  0  0  0  0
  -29.9901  -14.0213   20.4391 N   0  0  0  0  0  0  0  0  0  0  0  0
  -25.0714  -13.5796   18.5189 N   0  0  0  0  0  0  0  0  0  0  0  0
  -21.9675  -12.2559   20.2536 N   0  0  0  0  0  0  0  0  0  0  0  0
  -22.9461  -32.8891   21.9768 N   0  0  0  0  0  0  0  0  0  0  0  0
  -30.8310  -18.1866   22.7400 N   0  0  0  0  0  0  0  0  0  0  0  0
  -20.4568  -27.2798   22.0589 N   0  0  0  0  0  0  0  0  0  0  0  0
  -30.2439  -16.3706   20.5379 N   0  0  0  0  0  0  0  0  0  0  0  0
  -30.9739  -20.4712   19.7628 N   0  3  1  0  0  0  0  0  0  0  0  0
  -18.0257  -25.9724   19.7248 N   0  3  0  0  0  0  0  0  0  0  0  0
  -22.0249  -14.5401   20.4479 O   0  0  0  0  0  0  0  0  0  0  0  0
  -23.5292  -31.3031   23.5790 O   0  0  0  0  0  0  0  0  0  0  0  0
  -21.1885  -29.6334   21.4368 O   0  0  0  0  0  0  0  0  0  0  0  0
  -29.1002  -19.2887   23.8407 O   0  0  0  0  0  0  0  0  0  0  0  0
  -20.7307  -25.6526   20.4297 O   0  0  0  0  0  0  0  0  0  0  0  0
  -31.9397  -15.0568   19.7285 O   0  0  0  0  0  0  0  0  0  0  0  0
  -22.3593  -12.8517   27.0799 O   0  0  0  0  0  0  0  0  0  0  0  0
  -27.9486  -26.1723   19.5278 O   0  0  0  0  0  0  0  0  0  1  0  0
  -17.0335  -14.2040   27.5399 F   0  0  0  0  0  0  0  0  0  0  0  0
  -21.5541  -14.8913   28.7635 F   0  0  0  0  0  0  0  0  0  0  0  0
  1  2  1  0  0  0  0
  1  5  2  0  0  0  0
  2  6  2  0  0  0  0
  3  8  2  0  0  0  0
  3 15  1  0  0  0  0
  4  9  1  0  0  0  0
  4 15  2  0  0  0  0
  5 17  1  0  0  0  0
  6 19  1  0  0  0  0
  7 10  2  0  0  0  0
  7 18  1  0  0  0  0
  8 21  1  0  0  0  0
  9 21  2  0  0  0  0
 10 22  1  0  0  0  0
 11 12  2  0  0  0  0
 11 23  1  0  0  0  0
 12 24  1  0  0  0  0
 13 20  1  0  0  0  0
 13 22  2  0  0  0  0
 14 24  2  0  0  0  0
 14 25  1  0  0  0  0
 15 26  1  0  0  0  0
 16 26  1  0  0  0  0
 16 27  2  0  0  0  0
 16 28  1  0  0  0  0
 17 19  2  0  0  0  0
 17 34  1  0  0  0  0
 18 20  2  0  0  0  0
 18 35  1  0  0  0  0
 19 50  1  0  0  0  0
 20 36  1  0  0  0  0
 21 87  1  0  0  0  0
 22 88  1  0  0  0  0
 23 25  2  0  0  0  0
 23 87  1  0  0  0  0
 24 89  1  0  0  0  0
 25 90  1  0  0  0  0
 26 69  2  0  0  0  0
 27 70  1  0  0  0  0
 27 73  1  0  0  0  0
 28 74  1  0  0  0  0
 28 81  2  0  0  0  0
 29 51  1  0  0  0  0
 29 75  1  0  0  0  0
 29 82  2  0  0  0  0
 30 65  1  0  0  0  0
 30 71  1  0  0  0  0
 30 83  2  0  0  0  0
 31 57  1  0  0  0  0
 31 76  1  0  0  0  0
 31 84  2  0  0  0  0
 32 66  1  0  0  0  0
 32 77  1  0  0  0  0
 32 85  2  0  0  0  0
 33 72  1  0  0  0  0
 33 78  1  0  0  0  0
 33 86  2  0  0  0  0
 34 37  1  0  0  0  0
 35 51  1  0  0  0  0
 36 71  1  0  0  0  0
 37 39  1  0  0  0  0
 38 42  1  0  0  0  0
 38 46  1  0  0  0  0
 39 50  1  0  0  0  0
 40 43  1  0  0  0  0
 40 52  1  0  0  0  0
 41 44  1  0  0  0  0
 41 52  1  0  0  0  0
 42 53  1  0  0  0  0
 43 56  1  0  0  0  0
 44 56  1  0  0  0  0
 45 48  1  0  0  0  0
 45 54  1  0  0  0  0
 46 72  1  0  0  0  0
 47 53  1  0  0  0  0
 47 72  1  0  0  0  0
 48 79  1  0  0  0  0
 49 55  1  0  0  0  0
 49 79  1  0  0  0  0
 50 75  1  0  0  0  0
 51 71  1  0  0  0  0
 52 67  1  0  0  0  0
 53 70  1  0  0  0  0
 54 55  1  0  0  0  0
 54 78  1  0  0  0  0
 55 76  1  0  0  0  0
 56 79  1  0  0  0  0
 58 66  1  0  0  0  0
 59 67  1  0  0  0  0
 60 68  1  0  0  0  0
 61 68  1  0  0  0  0
 62 68  1  0  0  0  0
 63 80  1  0  0  0  0
 64 67  1  0  0  0  0
 64 88  1  0  0  0  0
 65 68  1  0  0  0  0
 65 77  1  0  0  0  0
 66 80  1  0  0  0  0
 69 70  1  0  0  0  0
M  CHG  2  79   1  80   1
M  ISO  4  33 100  64 101  78 100  88 101
M  END
> <Batch ID>
0115

> <Smiles>
CNC(C)C(=O)NC(C(=O)N1Cc2cc([101O:1][101CH2:1]C(C)C3CCC(N4CCC([100NH:0][100C:0](=O)N5CCCC(n6nc(-c7ccc(Oc8ccc(F)cc8F)cc7)c(C(N)=O)c6N)C5)C(NC(C)=O)C4)CC3)ccc2CC1C(=O)NC1CCCc2ccccc21)C(C)(C)C

> <Shape>
0.252

> <Color>
0.097

> <Negative vol penalty>
0.000

$$$$

  -OEChem-04052320103D

 83 91  0     1  0  0  0  0  0999 V2000
  -24.9142  -34.2242   14.8867 C   0  0  0  0  0  0  0  0  0  0  0  0
  -25.5838  -33.0951   15.3474 C   0  0  0  0  0  0  0  0  0  0  0  0
  -24.3697   -9.8424   21.7614 C   0  0  0  0  0  0  0  0  0  0  0  0
  -22.4425  -10.8087   20.6709 C   0  0  0  0  0  0  0  0  0  0  0  0
  -24.5430  -35.2268   15.7816 C   0  0  0  0  0  0  0  0  0  0  0  0
  -25.8836  -32.9686   16.7033 C   0  0  0  0  0  0  0  0  0  0  0  0
  -24.8535  -28.3463   18.4975 C   0  0  0  0  0  0  0  0  0  0  0  0
  -23.6954   -8.6267   21.8758 C   0  0  0  0  0  0  0  0  0  0  0  0
  -21.7682   -9.5930   20.7853 C   0  0  0  0  0  0  0  0  0  0  0  0
  -25.7665  -27.3331   18.2084 C   0  0  0  0  0  0  0  0  0  0  0  0
  -22.9424   -5.9991   19.8855 C   0  0  0  0  0  0  0  0  0  0  0  0
  -23.6399   -4.8373   19.5548 C   0  0  0  0  0  0  0  0  0  0  0  0
  -26.7200  -27.5720   20.4113 C   0  0  0  0  0  0  0  0  0  0  0  0
  -27.8900  -22.6375   22.9683 C   0  0  0  0  0  0  0  0  0  0  0  0
  -23.3115   -4.0017   21.7979 C   0  0  0  0  0  0  0  0  0  0  0  0
  -26.5364  -21.9794   21.2937 C   0  0  0  0  0  0  0  0  0  0  0  0
  -23.7432  -10.9334   21.1590 C   0  0  0  0  0  0  0  0  0  0  0  0
  -25.2545  -12.6129   19.9744 C   0  0  0  0  0  0  0  0  0  0  0  0
  -24.8299  -35.1080   17.1507 C   0  0  0  0  0  0  0  0  0  0  0  0
  -24.8740  -28.9886   19.7439 C   0  0  0  0  0  0  0  0  0  0  0  0
  -25.5171  -33.9711   17.6173 C   0  0  0  0  0  0  0  0  0  0  0  0
  -25.8045  -28.5913   20.7147 C   0  0  0  0  0  0  0  0  0  0  0  0
  -27.7966  -22.4643   21.5653 C   0  0  0  0  0  0  0  0  0  0  0  0
  -22.3947   -8.5020   21.3877 C   0  0  0  0  0  0  0  0  0  0  0  0
  -26.7018  -26.9477   19.1643 C   0  0  0  0  0  0  0  0  0  0  0  0
  -22.4295   -6.1622   21.1724 C   0  0  0  0  0  0  0  0  0  0  0  0
  -23.8244   -3.8386   20.5110 C   0  0  0  0  0  0  0  0  0  0  0  0
  -22.6141   -5.1635   22.1286 C   0  0  0  0  0  0  0  0  0  0  0  0
  -24.4390  -12.1896   21.0410 C   0  0  0  0  0  0  0  0  0  0  0  0
  -26.6839  -22.2529   23.5113 C   0  0  0  0  0  0  0  0  0  0  0  0
  -25.6753  -13.8679   20.3410 C   0  0  0  0  0  0  0  0  0  0  0  0
  -25.6006  -11.9324   18.7608 C   0  0  0  0  0  0  0  0  0  0  0  0
  -25.3653  -31.9729   20.7216 C   0  0  0  0  0  0  0  0  0  0  0  0
  -24.5437  -30.7481   23.6108 C   0  0  0  0  0  0  0  0  0  0  0  0
  -24.3017  -28.0106   25.6342 C   0  0  0  0  0  0  0  0  0  0  0  0
  -24.3916  -18.8841   22.2474 C   0  0  0  0  0  0  0  0  0  0  0  0
  -24.4506  -36.2396   18.0727 C   0  0  0  0  0  0  0  0  0  0  0  0
  -23.8651  -30.0614   20.0497 C   0  0  0  0  0  0  0  0  0  0  0  0
  -25.8550  -29.2354   22.0752 C   0  0  0  0  0  0  0  0  0  0  0  0
  -24.4738  -35.8555   19.5500 C   0  0  0  0  0  0  0  0  0  0  0  0
  -25.3451  -16.3153   24.7327 C   0  0  0  0  0  0  0  0  0  0  0  0
  -25.7517  -35.0922   19.8831 C   0  0  0  0  0  0  0  0  0  0  0  0
  -25.1977  -15.0412   23.9069 C   0  0  0  0  0  0  0  0  0  0  0  0
  -24.3305  -17.3836   24.3274 C   0  0  0  0  0  0  0  0  0  0  0  0
  -24.2082  -16.4248   22.0425 C   0  0  0  0  0  0  0  0  0  0  0  0
  -25.8382  -33.7859   19.0845 C   0  0  1  0  0  0  0  0  0  0  0  0
  -24.3107  -30.9997   21.1670 C   0  0  1  0  0  0  0  0  0  0  0  0
  -25.2548  -15.3607   22.4057 C   0  0  2  0  0  0  0  0  0  0  0  0
  -26.2425  -22.2326   24.9213 C   0  0  0  0  0  0  0  0  0  0  0  0
  -23.6307  -27.3290   27.9543 C   0  0  0  0  0  0  0  0  0  0  0  0
  -30.2096  -23.3016   21.1565 C   0  0  0  0  0  0  0  0  0  0  0  0
  -29.2686  -21.4400   19.8172 C   0  0  0  0  0  0  0  0  0  0  0  0
  -27.1506  -31.9000   24.7004 C   0  0  0  0  0  0  0  0  0  0  0  0
  -26.8905  -30.4144   26.6988 C   0  0  0  0  0  0  0  0  0  0  0  0
  -25.1792  -32.1641   26.2164 C   0  0  0  0  0  0  0  0  0  0  0  0
  -22.1708  -26.2254   24.6186 C   0  0  0  0  0  0  0  0  0  0  0  0
  -28.4049  -23.7751   19.4563 C   0  0  0  0  0  0  0  0  0  0  0  0
  -28.0494  -25.1660   19.9799 C   0  0  0  0  0  0  0  0  0  1  0  0
  -24.4566  -21.3549   22.6223 C   0  0  0  0  0  0  0  0  0  0  0  0
  -25.2944  -30.1061   24.7524 C   0  0  1  0  0  0  0  0  0  0  0  0
  -23.1730  -27.5055   26.5148 C   0  0  2  0  0  0  0  0  0  0  0  0
  -28.8993  -22.7631   20.5334 C   0  0  0  0  0  0  0  0  0  0  0  0
  -26.1292  -31.1351   25.5658 C   0  0  0  0  0  0  0  0  0  0  0  0
  -24.3460  -13.1017   22.0124 N   0  0  0  0  0  0  0  0  0  0  0  0
  -25.8689  -21.8545   22.4841 N   0  0  0  0  0  0  0  0  0  0  0  0
  -25.1087  -14.1105   21.5576 N   0  0  0  0  0  0  0  0  0  0  0  0
  -24.8518  -30.2838   22.3241 N   0  0  0  0  0  0  0  0  0  0  0  0
  -24.3448  -17.6256   22.8759 N   0  0  0  0  0  0  0  0  0  0  0  0
  -26.4711  -14.7765   19.7381 N   0  0  0  0  0  0  0  0  0  0  0  0
  -25.0813  -10.6490   18.5429 N   0  0  0  0  0  0  0  0  0  0  0  0
  -24.9781  -32.7789   19.6681 N   0  0  0  0  0  0  0  0  0  0  0  0
  -24.3003  -29.3863   25.5411 N   0  0  0  0  0  0  0  0  0  0  0  0
  -24.4172  -19.9818   23.1005 N   0  0  0  0  0  0  0  0  0  0  0  0
  -22.6744  -26.1927   26.0158 N   0  3  0  0  0  0  0  0  0  0  0  0
  -26.3614  -12.4406   17.9027 O   0  0  0  0  0  0  0  0  0  0  0  0
  -26.4494  -31.9923   21.2926 O   0  0  0  0  0  0  0  0  0  0  0  0
  -23.7095  -31.6240   23.8523 O   0  0  0  0  0  0  0  0  0  0  0  0
  -25.1064  -27.2600   25.0869 O   0  0  0  0  0  0  0  0  0  0  0  0
  -24.4011  -19.0164   21.0189 O   0  0  0  0  0  0  0  0  0  0  0  0
  -21.7366   -7.3158   21.4990 O   0  0  0  0  0  0  0  0  0  0  0  0
  -27.5945  -25.9595   18.8845 O   0  0  0  0  0  0  0  0  0  1  0  0
  -24.4930   -2.7223   20.1928 F   0  0  0  0  0  0  0  0  0  0  0  0
  -22.1226   -5.3140   23.3662 F   0  0  0  0  0  0  0  0  0  0  0  0
  1  2  1  0  0  0  0
  1  5  2  0  0  0  0
  2  6  2  0  0  0  0
  3  8  2  0  0  0  0
  3 17  1  0  0  0  0
  4  9  1  0  0  0  0
  4 17  2  0  0  0  0
  5 19  1  0  0  0  0
  6 21  1  0  0  0  0
  7 10  2  0  0  0  0
  7 20  1  0  0  0  0
  8 24  1  0  0  0  0
  9 24  2  0  0  0  0
 10 25  1  0  0  0  0
 11 12  2  0  0  0  0
 11 26  1  0  0  0  0
 12 27  1  0  0  0  0
 13 22  1  0  0  0  0
 13 25  2  0  0  0  0
 14 23  1  0  0  0  0
 14 30  2  0  0  0  0
 15 27  2  0  0  0  0
 15 28  1  0  0  0  0
 16 23  2  0  0  0  0
 16 65  1  0  0  0  0
 17 29  1  0  0  0  0
 18 29  1  0  0  0  0
 18 31  2  0  0  0  0
 18 32  1  0  0  0  0
 19 21  2  0  0  0  0
 19 37  1  0  0  0  0
 20 22  2  0  0  0  0
 20 38  1  0  0  0  0
 21 46  1  0  0  0  0
 22 39  1  0  0  0  0
 23 62  1  0  0  0  0
 24 80  1  0  0  0  0
 25 81  1  0  0  0  0
 26 28  2  0  0  0  0
 26 80  1  0  0  0  0
 27 82  1  0  0  0  0
 28 83  1  0  0  0  0
 29 64  2  0  0  0  0
 30 49  1  0  0  0  0
 30 65  1  0  0  0  0
 31 66  1  0  0  0  0
 31 69  1  0  0  0  0
 32 70  1  0  0  0  0
 32 75  2  0  0  0  0
 33 47  1  0  0  0  0
 33 71  1  0  0  0  0
 33 76  2  0  0  0  0
 34 60  1  0  0  0  0
 34 67  1  0  0  0  0
 34 77  2  0  0  0  0
 35 61  1  0  0  0  0
 35 72  1  0  0  0  0
 35 78  2  0  0  0  0
 36 68  1  0  0  0  0
 36 73  1  0  0  0  0
 36 79  2  0  0  0  0
 37 40  1  0  0  0  0
 38 47  1  0  0  0  0
 39 67  1  0  0  0  0
 40 42  1  0  0  0  0
 41 43  1  0  0  0  0
 41 44  1  0  0  0  0
 42 46  1  0  0  0  0
 43 48  1  0  0  0  0
 44 68  1  0  0  0  0
 45 48  1  0  0  0  0
 45 68  1  0  0  0  0
 46 71  1  0  0  0  0
 47 67  1  0  0  0  0
 48 66  1  0  0  0  0
 50 61  1  0  0  0  0
 51 62  1  0  0  0  0
 52 62  1  0  0  0  0
 53 63  1  0  0  0  0
 54 63  1  0  0  0  0
 55 63  1  0  0  0  0
 56 74  1  0  0  0  0
 57 58  1  0  0  0  0
 57 62  1  0  0  0  0
 58 81  1  0  0  0  0
 59 65  1  0  0  0  0
 59 73  1  0  0  0  0
 60 63  1  0  0  0  0
 60 72  1  0  0  0  0
 61 74  1  0  0  0  0
 64 66  1  0  0  0  0
M  CHG  1  74   1
M  ISO  4  36 100  58 101  73 100  81 101
M  END
> <Batch ID>
0115

> <Smiles>
CNC(C)C(=O)NC(C(=O)N1Cc2cc([101O:1][101CH2:1]CC(C)(C)c3cc(C)n(C[100NH:0][100C:0](=O)N4CCCC(n5nc(-c6ccc(Oc7ccc(F)cc7F)cc6)c(C(N)=O)c5N)C4)c3)ccc2CC1C(=O)NC1CCCc2ccccc21)C(C)(C)C

> <Shape>
0.219

> <Color>
0.112

> <Negative vol penalty>
0.000

$$$$

  -OEChem-04052320103D

 89 97  0     1  0  0  0  0  0999 V2000
  -18.0619  -24.5887   23.9520 C   0  0  0  0  0  0  0  0  0  0  0  0
  -19.4124  -24.2545   23.9544 C   0  0  0  0  0  0  0  0  0  0  0  0
  -26.3741  -14.1982   22.0416 C   0  0  0  0  0  0  0  0  0  0  0  0
  -26.0151  -13.1726   19.8838 C   0  0  0  0  0  0  0  0  0  0  0  0
  -17.6441  -25.7932   23.3874 C   0  0  0  0  0  0  0  0  0  0  0  0
  -20.3457  -25.1240   23.3912 C   0  0  0  0  0  0  0  0  0  0  0  0
  -26.0799  -26.1105   25.3020 C   0  0  0  0  0  0  0  0  0  0  0  0
  -25.1851  -13.6363   22.5065 C   0  0  0  0  0  0  0  0  0  0  0  0
  -24.8261  -12.6107   20.3487 C   0  0  0  0  0  0  0  0  0  0  0  0
  -27.3100  -25.6140   24.8730 C   0  0  0  0  0  0  0  0  0  0  0  0
  -21.8786  -10.6106   21.0769 C   0  0  0  0  0  0  0  0  0  0  0  0
  -21.6325   -9.2710   20.7763 C   0  0  0  0  0  0  0  0  0  0  0  0
  -27.6203  -27.5787   23.5082 C   0  0  0  0  0  0  0  0  0  0  0  0
  -23.6457   -8.6372   21.9521 C   0  0  0  0  0  0  0  0  0  0  0  0
  -26.7891  -13.9664   20.7302 C   0  0  0  0  0  0  0  0  0  0  0  0
  -29.3043  -13.9799   20.3044 C   0  0  0  0  0  0  0  0  0  0  0  0
  -18.5738  -26.6823   22.8256 C   0  0  0  0  0  0  0  0  0  0  0  0
  -25.6050  -27.3419   24.8281 C   0  0  0  0  0  0  0  0  0  0  0  0
  -19.9397  -26.3409   22.8173 C   0  0  0  0  0  0  0  0  0  0  0  0
  -26.3850  -28.0899   23.9346 C   0  0  0  0  0  0  0  0  0  0  0  0
  -24.4111  -12.8426   21.6601 C   0  0  0  0  0  0  0  0  0  0  0  0
  -28.0791  -26.3468   23.9738 C   0  0  0  0  0  0  0  0  0  0  0  0
  -23.0084  -10.9636   21.8151 C   0  0  0  0  0  0  0  0  0  0  0  0
  -22.5160   -8.2843   21.2139 C   0  0  0  0  0  0  0  0  0  0  0  0
  -23.8918   -9.9769   22.2527 C   0  0  0  0  0  0  0  0  0  0  0  0
  -28.0170  -14.5469   20.2493 C   0  0  0  0  0  0  0  0  0  0  0  0
  -30.1188  -14.9196   19.7213 C   0  0  0  0  0  0  0  0  0  0  0  0
  -29.7262  -12.7165   20.8352 C   0  0  0  0  0  0  0  0  0  0  0  0
  -23.0718  -28.2730   23.1488 C   0  0  0  0  0  0  0  0  0  0  0  0
  -24.2161  -31.2373   23.8012 C   0  0  0  0  0  0  0  0  0  0  0  0
  -25.2548  -27.3485   18.1798 C   0  0  0  0  0  0  0  0  0  0  0  0
  -26.8897  -33.1971   24.6124 C   0  0  0  0  0  0  0  0  0  0  0  0
  -29.4415  -20.7577   19.1269 C   0  0  0  0  0  0  0  0  0  0  0  0
  -18.0694  -27.9510   22.1847 C   0  0  0  0  0  0  0  0  0  0  0  0
  -24.2881  -27.8761   25.3211 C   0  0  0  0  0  0  0  0  0  0  0  0
  -25.9295  -29.4268   23.4116 C   0  0  0  0  0  0  0  0  0  0  0  0
  -19.1632  -28.9882   21.9436 C   0  0  0  0  0  0  0  0  0  0  0  0
  -29.9486  -18.3503   16.4853 C   0  0  0  0  0  0  0  0  0  0  0  0
  -20.3881  -28.3351   21.3114 C   0  0  0  0  0  0  0  0  0  0  0  0
  -29.6387  -17.0273   17.1850 C   0  0  0  0  0  0  0  0  0  0  0  0
  -27.0728  -23.2549   18.0072 C   0  0  0  0  0  0  0  0  0  0  0  0
  -29.0562  -19.4865   16.9873 C   0  0  0  0  0  0  0  0  0  0  0  0
  -27.9796  -22.1026   17.5865 C   0  0  0  0  0  0  0  0  0  0  0  0
  -29.9167  -23.1917   18.6739 C   0  0  0  0  0  0  0  0  0  0  0  0
  -28.7641  -18.3365   19.1574 C   0  0  0  0  0  0  0  0  0  0  0  0
  -20.9852  -27.2692   22.2382 C   0  0  1  0  0  0  0  0  0  0  0  0
  -23.6679  -28.9012   24.3767 C   0  0  1  0  0  0  0  0  0  0  0  0
  -29.0486  -24.3725   19.1363 C   0  0  2  0  0  0  0  0  0  0  0  0
  -29.6838  -17.1877   18.7150 C   0  0  1  0  0  0  0  0  0  0  0  0
  -27.8657  -24.5522   18.1683 C   0  0  2  0  0  0  0  0  0  0  0  0
  -27.5221  -35.5875   25.0405 C   0  0  0  0  0  0  0  0  0  0  0  0
  -30.4754  -25.9963   17.8763 C   0  0  0  0  0  0  0  0  0  0  0  0
  -21.7300  -27.9910   17.3510 C   0  0  0  0  0  0  0  0  0  0  0  0
  -23.4482  -29.8149   17.0921 C   0  0  0  0  0  0  0  0  0  0  0  0
  -24.1258  -31.7957   20.8028 C   0  0  0  0  0  0  0  0  0  0  0  0
  -25.6192  -33.7665   21.1955 C   0  0  0  0  0  0  0  0  0  0  0  0
  -23.3554  -33.6914   22.2407 C   0  0  0  0  0  0  0  0  0  0  0  0
  -27.7411  -32.5971   27.3826 C   0  0  0  0  0  0  0  0  0  0  0  0
  -26.1270  -26.2571   17.6122 C   0  0  0  0  0  0  0  0  0  0  0  0
  -30.5894  -25.1300   21.6755 C   0  0  0  0  0  0  0  0  0  0  0  0
  -31.0628  -25.4636   20.2602 C   0  0  0  0  0  0  0  0  0  0  0  0
  -29.7078  -26.2341   22.2444 C   0  0  0  0  0  0  0  0  0  1  0  0
  -25.1806  -32.1832   23.1273 C   0  0  1  0  0  0  0  0  0  0  0  0
  -27.0640  -34.2781   25.6638 C   0  0  2  0  0  0  0  0  0  0  0  0
  -29.9120  -25.6311   19.2515 C   0  0  2  0  0  0  0  0  0  0  0  0
  -23.0993  -28.5011   17.7761 C   0  0  0  0  0  0  0  0  0  0  0  0
  -24.5782  -32.8331   21.8498 C   0  0  0  0  0  0  0  0  0  0  0  0
  -28.0092  -15.7536   19.6765 N   0  0  0  0  0  0  0  0  0  0  0  0
  -29.3017  -15.9524   19.3665 N   0  0  0  0  0  0  0  0  0  0  0  0
  -24.6320  -29.9035   23.9184 N   0  0  0  0  0  0  0  0  0  0  0  0
  -29.1012  -19.5752   18.4529 N   0  0  0  0  0  0  0  0  0  0  0  0
  -29.1236  -21.9676   18.4872 N   0  0  0  0  0  0  0  0  0  0  0  0
  -31.4470  -14.9551   19.4827 N   0  0  0  0  0  0  0  0  0  0  0  0
  -28.7596  -11.8721   21.3982 N   0  0  0  0  0  0  0  0  0  0  0  0
  -21.7519  -27.8915   23.2962 N   0  0  0  0  0  0  0  0  0  0  0  0
  -25.5928  -33.1412   24.1475 N   0  0  0  0  0  0  0  0  0  0  0  0
  -24.0978  -27.5164   17.4338 N   0  0  0  0  0  0  0  0  0  0  0  0
  -26.9401  -25.6042   18.6712 N   0  3  0  0  0  0  0  0  0  0  0  0
  -28.0760  -33.8593   26.6745 N   0  3  0  0  0  0  0  0  0  0  0  0
  -30.9272  -12.3545   20.8258 O   0  0  0  0  0  0  0  0  0  0  0  0
  -23.7582  -28.1453   22.1416 O   0  0  0  0  0  0  0  0  0  0  0  0
  -23.1366  -31.6676   24.2149 O   0  0  0  0  0  0  0  0  0  0  0  0
  -25.5505  -27.9957   19.1807 O   0  0  0  0  0  0  0  0  0  0  0  0
  -27.8126  -32.4769   24.2381 O   0  0  0  0  0  0  0  0  0  0  0  0
  -29.9982  -20.7370   20.2318 O   0  0  0  0  0  0  0  0  0  0  0  0
  -23.2509  -12.2939   22.1134 O   0  0  0  0  0  0  0  0  0  0  0  0
  -29.2887  -25.8606   23.5499 O   0  0  0  0  0  0  0  0  0  1  0  0
  -22.2787   -6.9977   20.9264 F   0  0  0  0  0  0  0  0  0  0  0  0
  -24.9782  -10.3098   22.9633 F   0  0  0  0  0  0  0  0  0  0  0  0
  1  2  1  0  0  0  0
  1  5  2  0  0  0  0
  2  6  2  0  0  0  0
  3  8  2  0  0  0  0
  3 15  1  0  0  0  0
  4  9  1  0  0  0  0
  4 15  2  0  0  0  0
  5 17  1  0  0  0  0
  6 19  1  0  0  0  0
  7 10  2  0  0  0  0
  7 18  1  0  0  0  0
  8 21  1  0  0  0  0
  9 21  2  0  0  0  0
 10 22  1  0  0  0  0
 11 12  2  0  0  0  0
 11 23  1  0  0  0  0
 12 24  1  0  0  0  0
 13 20  1  0  0  0  0
 13 22  2  0  0  0  0
 14 24  2  0  0  0  0
 14 25  1  0  0  0  0
 15 26  1  0  0  0  0
 16 26  1  0  0  0  0
 16 27  2  0  0  0  0
 16 28  1  0  0  0  0
 17 19  2  0  0  0  0
 17 34  1  0  0  0  0
 18 20  2  0  0  0  0
 18 35  1  0  0  0  0
 19 46  1  0  0  0  0
 20 36  1  0  0  0  0
 21 86  1  0  0  0  0
 22 87  1  0  0  0  0
 23 25  2  0  0  0  0
 23 86  1  0  0  0  0
 24 88  1  0  0  0  0
 25 89  1  0  0  0  0
 26 68  2  0  0  0  0
 27 69  1  0  0  0  0
 27 73  1  0  0  0  0
 28 74  1  0  0  0  0
 28 80  2  0  0  0  0
 29 47  1  0  0  0  0
 29 75  1  0  0  0  0
 29 81  2  0  0  0  0
 30 63  1  0  0  0  0
 30 70  1  0  0  0  0
 30 82  2  0  0  0  0
 31 59  1  0  0  0  0
 31 77  1  0  0  0  0
 31 83  2  0  0  0  0
 32 64  1  0  0  0  0
 32 76  1  0  0  0  0
 32 84  2  0  0  0  0
 33 71  1  0  0  0  0
 33 72  1  0  0  0  0
 33 85  2  0  0  0  0
 34 37  1  0  0  0  0
 35 47  1  0  0  0  0
 36 70  1  0  0  0  0
 37 39  1  0  0  0  0
 38 40  1  0  0  0  0
 38 42  1  0  0  0  0
 39 46  1  0  0  0  0
 40 49  1  0  0  0  0
 41 43  1  0  0  0  0
 41 50  1  0  0  0  0
 42 71  1  0  0  0  0
 43 72  1  0  0  0  0
 44 48  1  0  0  0  0
 44 72  1  0  0  0  0
 45 49  1  0  0  0  0
 45 71  1  0  0  0  0
 46 75  1  0  0  0  0
 47 70  1  0  0  0  0
 48 50  1  0  0  0  0
 48 65  1  0  0  0  0
 49 69  1  0  0  0  0
 50 78  1  0  0  0  0
 51 64  1  0  0  0  0
 52 65  1  0  0  0  0
 53 66  1  0  0  0  0
 54 66  1  0  0  0  0
 55 67  1  0  0  0  0
 56 67  1  0  0  0  0
 57 67  1  0  0  0  0
 58 79  1  0  0  0  0
 59 78  1  0  0  0  0
 60 61  1  0  0  0  0
 60 62  1  0  0  0  0
 61 65  1  0  0  0  0
 62 87  1  0  0  0  0
 63 67  1  0  0  0  0
 63 76  1  0  0  0  0
 64 79  1  0  0  0  0
 66 77  1  0  0  0  0
 68 69  1  0  0  0  0
M  CHG  2  78   1  79   1
M  ISO  4  33 100  62 101  72 100  87 101
M  END
> <Batch ID>
0115

> <Smiles>
CNC(C)C(=O)NC(C(=O)N1Cc2cc([101O:1][101CH2:1]CCC(C)C3C[100N:0]([100C:0](=O)N4CCCC(n5nc(-c6ccc(Oc7ccc(F)cc7F)cc6)c(C(N)=O)c5N)C4)CCC3NCC(=O)NC(C)C)ccc2CC1C(=O)NC1CCCc2ccccc21)C(C)(C)C

> <Shape>
0.308

> <Color>
0.080

> <Negative vol penalty>
0.000

$$$$

  -OEChem-04052320103D

 85 94  0     1  0  0  0  0  0999 V2000
  -27.6185  -21.3626    8.1604 C   0  0  0  0  0  0  0  0  0  0  0  0
  -28.2408  -20.9847    9.3458 C   0  0  0  0  0  0  0  0  0  0  0  0
  -23.2044  -10.2445   22.1641 C   0  0  0  0  0  0  0  0  0  0  0  0
  -23.8419   -9.5269   19.9470 C   0  0  0  0  0  0  0  0  0  0  0  0
  -26.5505  -22.2583    8.1898 C   0  0  0  0  0  0  0  0  0  0  0  0
  -27.7960  -21.5033   10.5615 C   0  0  0  0  0  0  0  0  0  0  0  0
  -27.6735  -18.6267   15.9667 C   0  0  0  0  0  0  0  0  0  0  0  0
  -22.4772   -9.0667   22.3362 C   0  0  0  0  0  0  0  0  0  0  0  0
  -23.1148   -8.3491   20.1191 C   0  0  0  0  0  0  0  0  0  0  0  0
  -28.5370  -18.6493   17.0610 C   0  0  0  0  0  0  0  0  0  0  0  0
  -20.1580   -6.4093   23.2213 C   0  0  0  0  0  0  0  0  0  0  0  0
  -18.8811   -6.5085   23.7738 C   0  0  0  0  0  0  0  0  0  0  0  0
  -27.1435  -20.3103   18.1186 C   0  0  0  0  0  0  0  0  0  0  0  0
  -18.1987   -7.9279   21.9416 C   0  0  0  0  0  0  0  0  0  0  0  0
  -23.8867  -10.4747   20.9694 C   0  0  0  0  0  0  0  0  0  0  0  0
  -24.1436  -13.0090   20.8332 C   0  0  0  0  0  0  0  0  0  0  0  0
  -26.0861  -22.7806    9.4072 C   0  0  0  0  0  0  0  0  0  0  0  0
  -26.5425  -19.4551   15.9352 C   0  0  0  0  0  0  0  0  0  0  0  0
  -26.7216  -22.4078   10.6071 C   0  0  0  0  0  0  0  0  0  0  0  0
  -26.2658  -20.2945   17.0238 C   0  0  0  0  0  0  0  0  0  0  0  0
  -22.4325   -8.1189   21.3137 C   0  0  0  0  0  0  0  0  0  0  0  0
  -28.2736  -19.4933   18.1359 C   0  0  0  0  0  0  0  0  0  0  0  0
  -20.4553   -7.0695   22.0290 C   0  0  0  0  0  0  0  0  0  0  0  0
  -17.9014   -7.2678   23.1339 C   0  0  0  0  0  0  0  0  0  0  0  0
  -19.4756   -7.8287   21.3892 C   0  0  0  0  0  0  0  0  0  0  0  0
  -24.6375  -11.6914   20.7908 C   0  0  0  0  0  0  0  0  0  0  0  0
  -25.2460  -13.7963   20.6065 C   0  0  0  0  0  0  0  0  0  0  0  0
  -22.8079  -13.4793   21.0574 C   0  0  0  0  0  0  0  0  0  0  0  0
  -25.5464  -21.8211   14.0607 C   0  0  0  0  0  0  0  0  0  0  0  0
  -22.8622  -21.6020   15.8688 C   0  0  0  0  0  0  0  0  0  0  0  0
  -22.0678  -21.1448   19.3584 C   0  0  0  0  0  0  0  0  0  0  0  0
  -31.1109  -12.9426   21.4581 C   0  0  0  0  0  0  0  0  0  0  0  0
  -24.9589  -23.7823    9.3846 C   0  0  0  0  0  0  0  0  0  0  0  0
  -25.6064  -19.3994   14.7592 C   0  0  0  0  0  0  0  0  0  0  0  0
  -25.0540  -21.1885   17.0480 C   0  0  0  0  0  0  0  0  0  0  0  0
  -24.3068  -23.9964   10.7481 C   0  0  0  0  0  0  0  0  0  0  0  0
  -29.4880  -13.7521   18.3942 C   0  0  0  0  0  0  0  0  0  0  0  0
  -30.3643  -15.7375   27.1152 C   0  0  0  0  0  0  0  0  0  0  0  0
  -25.3707  -24.1785   11.8260 C   0  0  0  0  0  0  0  0  0  0  0  0
  -29.2792  -17.5888   21.3600 C   0  0  0  0  0  0  0  0  0  0  0  0
  -28.8096  -19.4952   22.9573 C   0  0  0  0  0  0  0  0  0  0  0  0
  -28.0163  -13.4347   18.6648 C   0  0  0  0  0  0  0  0  0  0  0  0
  -30.0191  -16.8418   22.4697 C   0  0  0  0  0  0  0  0  0  0  0  0
  -29.5495  -18.7476   24.0665 C   0  0  0  0  0  0  0  0  0  0  0  0
  -29.9825  -14.5667   26.2292 C   0  0  0  0  0  0  0  0  0  0  0  0
  -30.4166  -12.7575   19.0874 C   0  0  0  0  0  0  0  0  0  0  0  0
  -28.7153  -12.2845   20.8066 C   0  0  0  0  0  0  0  0  0  0  0  0
  -29.9049  -16.9300   26.3063 C   0  0  0  0  0  0  0  0  0  0  0  0
  -26.2520  -22.9295   11.9478 C   0  0  1  0  0  0  0  0  0  0  0  0
  -24.7626  -20.6612   14.6068 C   0  0  1  0  0  0  0  0  0  0  0  0
  -29.3332  -19.1094   21.5663 C   0  0  0  0  0  0  0  0  0  0  0  0
  -27.7415  -13.2934   20.1740 C   0  0  2  0  0  0  0  0  0  0  0  0
  -29.4846  -17.2393   23.8429 C   0  0  0  0  0  0  0  0  0  0  0  0
  -30.2925  -15.0334   24.8071 C   0  0  2  0  0  0  0  0  0  0  0  0
  -20.0410  -20.1497   20.4535 C   0  0  0  0  0  0  0  0  0  0  0  0
  -21.8716  -24.4852   15.9939 C   0  0  0  0  0  0  0  0  0  0  0  0
  -20.9103  -23.9836   18.2506 C   0  0  0  0  0  0  0  0  0  0  0  0
  -20.0824  -22.7557   16.2432 C   0  0  0  0  0  0  0  0  0  0  0  0
  -23.7009  -19.2014   20.8801 C   0  0  0  0  0  0  0  0  0  0  0  0
  -28.5433  -19.8293   20.4748 C   0  0  0  0  0  0  0  0  0  1  0  0
  -31.6501  -14.5644   24.3037 C   0  0  0  0  0  0  0  0  0  0  0  0
  -31.6511  -13.1000   23.8753 C   0  0  0  0  0  0  0  0  0  0  0  0
  -22.3833  -22.2355   17.1527 C   0  0  1  0  0  0  0  0  0  0  0  0
  -21.4717  -19.9047   19.9999 C   0  0  2  0  0  0  0  0  0  0  0  0
  -21.3396  -23.3609   16.9049 C   0  0  0  0  0  0  0  0  0  0  0  0
  -25.9513  -11.6405   20.5557 N   0  0  0  0  0  0  0  0  0  0  0  0
  -26.2923  -12.9359   20.4481 N   0  0  0  0  0  0  0  0  0  0  0  0
  -24.1723  -21.1027   15.8720 N   0  0  0  0  0  0  0  0  0  0  0  0
  -30.1047  -12.6718   20.5162 N   0  0  0  0  0  0  0  0  0  0  0  0
  -25.4127  -15.1337   20.5292 N   0  0  0  0  0  0  0  0  0  0  0  0
  -21.7947  -12.5353   21.2735 N   0  0  0  0  0  0  0  0  0  0  0  0
  -25.5592  -21.8916   12.6807 N   0  0  0  0  0  0  0  0  0  0  0  0
  -21.8977  -21.1440   17.9901 N   0  0  0  0  0  0  0  0  0  0  0  0
  -30.7295  -12.8448   22.7907 N   0  0  0  0  0  0  0  0  0  0  0  0
  -30.3003  -16.5582   24.8957 N   0  3  2  0  0  0  0  0  0  0  0  0
  -22.2773  -19.4966   21.1854 N   0  3  0  0  0  0  0  0  0  0  0  0
  -22.5183  -14.6997   21.0494 O   0  0  0  0  0  0  0  0  0  0  0  0
  -26.0974  -22.5956   14.8341 O   0  0  0  0  0  0  0  0  0  0  0  0
  -22.0993  -21.5455   14.9011 O   0  0  0  0  0  0  0  0  0  0  0  0
  -22.6252  -22.0277   20.0068 O   0  0  0  0  0  0  0  0  0  0  0  0
  -32.2624  -13.2540   21.1355 O   0  0  0  0  0  0  0  0  0  0  0  0
  -21.7233   -6.9694   21.4814 O   0  0  0  0  0  0  0  0  0  0  0  0
  -29.1152  -19.5178   19.2051 O   0  0  0  0  0  0  0  0  0  1  0  0
  -16.6748   -7.3617   23.6638 F   0  0  0  0  0  0  0  0  0  0  0  0
  -19.7550   -8.4642   20.2429 F   0  0  0  0  0  0  0  0  0  0  0  0
  1  2  1  0  0  0  0
  1  5  2  0  0  0  0
  2  6  2  0  0  0  0
  3  8  2  0  0  0  0
  3 15  1  0  0  0  0
  4  9  1  0  0  0  0
  4 15  2  0  0  0  0
  5 17  1  0  0  0  0
  6 19  1  0  0  0  0
  7 10  2  0  0  0  0
  7 18  1  0  0  0  0
  8 21  1  0  0  0  0
  9 21  2  0  0  0  0
 10 22  1  0  0  0  0
 11 12  2  0  0  0  0
 11 23  1  0  0  0  0
 12 24  1  0  0  0  0
 13 20  1  0  0  0  0
 13 22  2  0  0  0  0
 14 24  2  0  0  0  0
 14 25  1  0  0  0  0
 15 26  1  0  0  0  0
 16 26  1  0  0  0  0
 16 27  2  0  0  0  0
 16 28  1  0  0  0  0
 17 19  2  0  0  0  0
 17 33  1  0  0  0  0
 18 20  2  0  0  0  0
 18 34  1  0  0  0  0
 19 49  1  0  0  0  0
 20 35  1  0  0  0  0
 21 82  1  0  0  0  0
 22 83  1  0  0  0  0
 23 25  2  0  0  0  0
 23 82  1  0  0  0  0
 24 84  1  0  0  0  0
 25 85  1  0  0  0  0
 26 66  2  0  0  0  0
 27 67  1  0  0  0  0
 27 70  1  0  0  0  0
 28 71  1  0  0  0  0
 28 77  2  0  0  0  0
 29 50  1  0  0  0  0
 29 72  1  0  0  0  0
 29 78  2  0  0  0  0
 30 63  1  0  0  0  0
 30 68  1  0  0  0  0
 30 79  2  0  0  0  0
 31 64  1  0  0  0  0
 31 73  1  0  0  0  0
 31 80  2  0  0  0  0
 32 69  1  0  0  0  0
 32 74  1  0  0  0  0
 32 81  2  0  0  0  0
 33 36  1  0  0  0  0
 34 50  1  0  0  0  0
 35 68  1  0  0  0  0
 36 39  1  0  0  0  0
 37 42  1  0  0  0  0
 37 46  1  0  0  0  0
 38 45  1  0  0  0  0
 38 48  1  0  0  0  0
 39 49  1  0  0  0  0
 40 43  1  0  0  0  0
 40 51  1  0  0  0  0
 41 44  1  0  0  0  0
 41 51  1  0  0  0  0
 42 52  1  0  0  0  0
 43 53  1  0  0  0  0
 44 53  1  0  0  0  0
 45 54  1  0  0  0  0
 46 69  1  0  0  0  0
 47 52  1  0  0  0  0
 47 69  1  0  0  0  0
 48 75  1  0  0  0  0
 49 72  1  0  0  0  0
 50 68  1  0  0  0  0
 51 60  1  0  0  0  0
 52 67  1  0  0  0  0
 53 75  1  0  0  0  0
 54 61  1  0  0  0  0
 54 75  1  0  0  0  0
 55 64  1  0  0  0  0
 56 65  1  0  0  0  0
 57 65  1  0  0  0  0
 58 65  1  0  0  0  0
 59 76  1  0  0  0  0
 60 83  1  0  0  0  0
 61 62  1  0  0  0  0
 62 74  1  0  0  0  0
 63 65  1  0  0  0  0
 63 73  1  0  0  0  0
 64 76  1  0  0  0  0
 66 67  1  0  0  0  0
M  CHG  2  75   1  76   1
M  ISO  4  32 100  60 101  74 100  83 101
M  END
> <Batch ID>
0115

> <Smiles>
CNC(C)C(=O)NC(C(=O)N1Cc2cc([101O:1][101CH2:1]C3CCC(N4CCCC4CC[100NH:0][100C:0](=O)N4CCCC(n5nc(-c6ccc(Oc7ccc(F)cc7F)cc6)c(C(N)=O)c5N)C4)CC3)ccc2CC1C(=O)NC1CCCc2ccccc21)C(C)(C)C

> <Shape>
0.157

> <Color>
0.175

> <Negative vol penalty>
0.000

$$$$

  -OEChem-04052320103D

 81 89  0     1  0  0  0  0  0999 V2000
  -28.6939  -21.9862   27.2137 C   0  0  0  0  0  0  0  0  0  0  0  0
  -28.1716  -23.0742   26.5217 C   0  0  0  0  0  0  0  0  0  0  0  0
  -29.8195  -17.4644   21.4058 C   0  0  0  0  0  0  0  0  0  0  0  0
  -31.4342  -18.2440   19.7866 C   0  0  0  0  0  0  0  0  0  0  0  0
  -28.4120  -20.6893   26.7866 C   0  0  0  0  0  0  0  0  0  0  0  0
  -27.3679  -22.8658   25.4014 C   0  0  0  0  0  0  0  0  0  0  0  0
  -23.2436  -25.8045   25.3954 C   0  0  0  0  0  0  0  0  0  0  0  0
  -25.1906  -29.4036   19.4380 C   0  0  0  0  0  0  0  0  0  0  0  0
  -24.6941  -29.9938   20.6002 C   0  0  0  0  0  0  0  0  0  0  0  0
  -30.1775  -16.1453   21.1277 C   0  0  0  0  0  0  0  0  0  0  0  0
  -31.7922  -16.9249   19.5084 C   0  0  0  0  0  0  0  0  0  0  0  0
  -23.4113  -27.1362   25.0184 C   0  0  0  0  0  0  0  0  0  0  0  0
  -29.5503  -13.8474   18.7296 C   0  0  0  0  0  0  0  0  0  0  0  0
  -28.5225  -12.9197   18.5605 C   0  0  0  0  0  0  0  0  0  0  0  0
  -22.5869  -26.6096   22.8134 C   0  0  0  0  0  0  0  0  0  0  0  0
  -27.1706  -28.7098   20.6361 C   0  0  0  0  0  0  0  0  0  0  0  0
  -29.3824  -11.6294   20.4132 C   0  0  0  0  0  0  0  0  0  0  0  0
  -30.4479  -18.5138   20.7352 C   0  0  0  0  0  0  0  0  0  0  0  0
  -30.6432  -20.7245   21.9931 C   0  0  0  0  0  0  0  0  0  0  0  0
  -27.5966  -20.4648   25.6662 C   0  0  0  0  0  0  0  0  0  0  0  0
  -22.7558  -24.8615   24.4793 C   0  0  0  0  0  0  0  0  0  0  0  0
  -27.0759  -21.5647   24.9580 C   0  0  0  0  0  0  0  0  0  0  0  0
  -22.4115  -25.2671   23.1819 C   0  0  0  0  0  0  0  0  0  0  0  0
  -26.4288  -28.7615   19.4560 C   0  0  0  0  0  0  0  0  0  0  0  0
  -25.4359  -29.9421   21.7803 C   0  0  0  0  0  0  0  0  0  0  0  0
  -26.6741  -29.3001   21.7983 C   0  0  0  0  0  0  0  0  0  0  0  0
  -31.1638  -15.8755   20.1790 C   0  0  0  0  0  0  0  0  0  0  0  0
  -23.0856  -27.5384   23.7264 C   0  0  0  0  0  0  0  0  0  0  0  0
  -30.4942  -13.6661   19.7404 C   0  0  0  0  0  0  0  0  0  0  0  0
  -28.4386  -11.8107   19.4023 C   0  0  0  0  0  0  0  0  0  0  0  0
  -30.4103  -12.5571   20.5823 C   0  0  0  0  0  0  0  0  0  0  0  0
  -30.0782  -19.8767   21.0217 C   0  0  0  0  0  0  0  0  0  0  0  0
  -29.9486  -21.9027   21.8664 C   0  0  0  0  0  0  0  0  0  0  0  0
  -31.7014  -20.4700   22.9264 C   0  0  0  0  0  0  0  0  0  0  0  0
  -23.9041  -22.2010   23.1727 C   0  0  0  0  0  0  0  0  0  0  0  0
  -20.9088  -21.9733   21.9485 C   0  0  0  0  0  0  0  0  0  0  0  0
  -18.0272  -23.5532   21.0284 C   0  0  0  0  0  0  0  0  0  0  0  0
  -27.8561  -25.8785   18.7421 C   0  0  0  0  0  0  0  0  0  0  0  0
  -27.3585  -19.0457   25.2143 C   0  0  0  0  0  0  0  0  0  0  0  0
  -22.5555  -23.4342   24.9095 C   0  0  0  0  0  0  0  0  0  0  0  0
  -21.8649  -24.2978   22.1669 C   0  0  0  0  0  0  0  0  0  0  0  0
  -26.1919  -18.9043   24.2400 C   0  0  0  0  0  0  0  0  0  0  0  0
  -25.7454  -22.9861   19.2682 C   0  0  0  0  0  0  0  0  0  0  0  0
  -26.2723  -19.9709   23.1525 C   0  0  0  0  0  0  0  0  0  0  0  0
  -26.7420  -21.9852   19.8557 C   0  0  0  0  0  0  0  0  0  0  0  0
  -26.3951  -23.8420   18.1848 C   0  0  0  0  0  0  0  0  0  0  0  0
  -28.6186  -23.5675   19.2117 C   0  0  0  0  0  0  0  0  0  0  0  0
  -26.1797  -21.3790   23.7529 C   0  0  1  0  0  0  0  0  0  0  0  0
  -22.5361  -22.4547   23.7401 C   0  0  1  0  0  0  0  0  0  0  0  0
  -28.0286  -22.6874   20.3286 C   0  0  2  0  0  0  0  0  0  0  0  0
  -27.4861  -29.2325   23.0501 C   0  0  0  0  0  0  0  0  0  0  0  0
  -15.7708  -23.1082   20.0244 C   0  0  0  0  0  0  0  0  0  0  0  0
  -22.1905  -21.7061   19.1925 C   0  0  0  0  0  0  0  0  0  0  0  0
  -19.9582  -22.2191   18.1815 C   0  0  0  0  0  0  0  0  0  0  0  0
  -20.2482  -20.1821   19.5919 C   0  0  0  0  0  0  0  0  0  0  0  0
  -16.6296  -24.5316   23.4467 C   0  0  0  0  0  0  0  0  0  0  0  0
  -24.8784  -30.5890   23.0250 C   0  0  0  0  0  0  0  0  0  0  0  0
  -26.9596  -28.1310   18.2131 C   0  0  0  0  0  0  0  0  0  0  0  0
  -24.2933  -29.5694   23.9961 C   0  0  0  0  0  0  0  0  0  1  0  0
  -20.2278  -22.4586   20.6917 C   0  0  1  0  0  0  0  0  0  0  0  0
  -16.5699  -23.2363   21.3119 C   0  0  2  0  0  0  0  0  0  0  0  0
  -20.6683  -21.6596   19.4327 C   0  0  0  0  0  0  0  0  0  0  0  0
  -29.0999  -20.4660   20.3291 N   0  0  0  0  0  0  0  0  0  0  0  0
  -29.0447  -21.6968   20.8660 N   0  0  0  0  0  0  0  0  0  0  0  0
  -21.6931  -22.9121   22.6336 N   0  0  0  0  0  0  0  0  0  0  0  0
  -27.6036  -24.4971   18.7049 N   0  0  0  0  0  0  0  0  0  0  0  0
  -30.0289  -23.0843   22.5143 N   0  0  0  0  0  0  0  0  0  0  0  0
  -32.3063  -19.2057   22.9221 N   0  0  0  0  0  0  0  0  0  0  0  0
  -24.8080  -21.6963   24.0879 N   0  0  0  0  0  0  0  0  0  0  0  0
  -18.7944  -22.4097   20.9591 N   0  0  0  0  0  0  0  0  0  0  0  0
  -26.8474  -26.6895   18.2367 N   0  0  0  0  0  0  0  0  0  0  0  0
  -15.9572  -24.3132   22.1401 N   0  3  0  0  0  0  0  0  0  0  0  0
  -32.0876  -21.3326   23.7512 O   0  0  0  0  0  0  0  0  0  0  0  0
  -24.1229  -22.4438   21.9916 O   0  0  0  0  0  0  0  0  0  0  0  0
  -20.7450  -20.8063   22.3130 O   0  0  0  0  0  0  0  0  0  0  0  0
  -18.4426  -24.7003   20.8792 O   0  0  0  0  0  0  0  0  0  0  0  0
  -28.9017  -26.3547   19.1973 O   0  0  0  0  0  0  0  0  0  0  0  0
  -31.5135  -14.5885   19.9075 O   0  0  0  0  0  0  0  0  0  0  0  0
  -23.2489  -28.8376   23.3557 O   0  0  0  0  0  0  0  0  0  1  0  0
  -27.4506  -10.9207   19.2408 F   0  0  0  0  0  0  0  0  0  0  0  0
  -31.3135  -12.3781   21.5559 F   0  0  0  0  0  0  0  0  0  0  0  0
  1  2  1  0  0  0  0
  1  5  2  0  0  0  0
  2  6  2  0  0  0  0
  3 10  2  0  0  0  0
  3 18  1  0  0  0  0
  4 11  1  0  0  0  0
  4 18  2  0  0  0  0
  5 20  1  0  0  0  0
  6 22  1  0  0  0  0
  7 12  2  0  0  0  0
  7 21  1  0  0  0  0
  8  9  2  0  0  0  0
  8 24  1  0  0  0  0
  9 25  1  0  0  0  0
 10 27  1  0  0  0  0
 11 27  2  0  0  0  0
 12 28  1  0  0  0  0
 13 14  2  0  0  0  0
 13 29  1  0  0  0  0
 14 30  1  0  0  0  0
 15 23  1  0  0  0  0
 15 28  2  0  0  0  0
 16 24  2  0  0  0  0
 16 26  1  0  0  0  0
 17 30  2  0  0  0  0
 17 31  1  0  0  0  0
 18 32  1  0  0  0  0
 19 32  1  0  0  0  0
 19 33  2  0  0  0  0
 19 34  1  0  0  0  0
 20 22  2  0  0  0  0
 20 39  1  0  0  0  0
 21 23  2  0  0  0  0
 21 40  1  0  0  0  0
 22 48  1  0  0  0  0
 23 41  1  0  0  0  0
 24 58  1  0  0  0  0
 25 26  2  0  0  0  0
 25 57  1  0  0  0  0
 26 51  1  0  0  0  0
 27 78  1  0  0  0  0
 28 79  1  0  0  0  0
 29 31  2  0  0  0  0
 29 78  1  0  0  0  0
 30 80  1  0  0  0  0
 31 81  1  0  0  0  0
 32 63  2  0  0  0  0
 33 64  1  0  0  0  0
 33 67  1  0  0  0  0
 34 68  1  0  0  0  0
 34 73  2  0  0  0  0
 35 49  1  0  0  0  0
 35 69  1  0  0  0  0
 35 74  2  0  0  0  0
 36 60  1  0  0  0  0
 36 65  1  0  0  0  0
 36 75  2  0  0  0  0
 37 61  1  0  0  0  0
 37 70  1  0  0  0  0
 37 76  2  0  0  0  0
 38 66  1  0  0  0  0
 38 71  1  0  0  0  0
 38 77  2  0  0  0  0
 39 42  1  0  0  0  0
 40 49  1  0  0  0  0
 41 65  1  0  0  0  0
 42 44  1  0  0  0  0
 43 45  1  0  0  0  0
 43 46  1  0  0  0  0
 44 48  1  0  0  0  0
 45 50  1  0  0  0  0
 46 66  1  0  0  0  0
 47 50  1  0  0  0  0
 47 66  1  0  0  0  0
 48 69  1  0  0  0  0
 49 65  1  0  0  0  0
 50 64  1  0  0  0  0
 52 61  1  0  0  0  0
 53 62  1  0  0  0  0
 54 62  1  0  0  0  0
 55 62  1  0  0  0  0
 56 72  1  0  0  0  0
 57 59  1  0  0  0  0
 58 71  1  0  0  0  0
 59 79  1  0  0  0  0
 60 62  1  0  0  0  0
 60 70  1  0  0  0  0
 61 72  1  0  0  0  0
 63 64  1  0  0  0  0
M  CHG  1  72   1
M  ISO  4  38 100  59 101  71 100  79 101
M  END
> <Batch ID>
0115

> <Smiles>
CNC(C)C(=O)NC(C(=O)N1Cc2cc([101O:1][101CH2:1]Cc3ccc(C[100NH:0][100C:0](=O)N4CCCC(n5nc(-c6ccc(Oc7ccc(F)cc7F)cc6)c(C(N)=O)c5N)C4)cc3C)ccc2CC1C(=O)NC1CCCc2ccccc21)C(C)(C)C

> <Shape>
0.160

> <Color>
0.084

> <Negative vol penalty>
0.000

$$$$
