
  -OEChem-04052320133D

 84 92  0     1  0  0  0  0  0999 V2000
  -32.0707  -31.1242   16.9304 C   0  0  0  0  0  0  0  0  0  0  0  0
  -31.7245  -29.7772   16.8944 C   0  0  0  0  0  0  0  0  0  0  0  0
  -23.0350   -9.9062   19.9400 C   0  0  0  0  0  0  0  0  0  0  0  0
  -23.7991   -9.8973   22.2320 C   0  0  0  0  0  0  0  0  0  0  0  0
  -33.1847  -31.5372   17.6599 C   0  0  0  0  0  0  0  0  0  0  0  0
  -32.4930  -28.8423   17.5870 C   0  0  0  0  0  0  0  0  0  0  0  0
  -29.6622  -25.5248   20.1611 C   0  0  0  0  0  0  0  0  0  0  0  0
  -29.1061  -19.7392   20.0500 C   0  0  0  0  0  0  0  0  0  0  0  0
  -22.2970   -8.7475   20.1815 C   0  0  0  0  0  0  0  0  0  0  0  0
  -23.0611   -8.7386   22.4735 C   0  0  0  0  0  0  0  0  0  0  0  0
  -29.0732  -24.4913   19.4340 C   0  0  0  0  0  0  0  0  0  0  0  0
  -23.3666   -5.4229   21.8875 C   0  0  0  0  0  0  0  0  0  0  0  0
  -23.9883   -4.3945   22.5957 C   0  0  0  0  0  0  0  0  0  0  0  0
  -29.2865  -18.7071   20.9640 C   0  0  0  0  0  0  0  0  0  0  0  0
  -30.8229  -22.9952   20.1548 C   0  0  0  0  0  0  0  0  0  0  0  0
  -22.2892   -4.5456   24.3067 C   0  0  0  0  0  0  0  0  0  0  0  0
  -23.7861  -10.4811   20.9652 C   0  0  0  0  0  0  0  0  0  0  0  0
  -24.1158  -13.0088   20.8660 C   0  0  0  0  0  0  0  0  0  0  0  0
  -33.9617  -30.6081   18.3697 C   0  0  0  0  0  0  0  0  0  0  0  0
  -30.8440  -25.3037   20.8829 C   0  0  0  0  0  0  0  0  0  0  0  0
  -33.6194  -29.2431   18.3256 C   0  0  0  0  0  0  0  0  0  0  0  0
  -31.4235  -24.0269   20.8923 C   0  0  0  0  0  0  0  0  0  0  0  0
  -30.1436  -20.0913   19.1938 C   0  0  0  0  0  0  0  0  0  0  0  0
  -22.3100   -8.1637   21.4483 C   0  0  0  0  0  0  0  0  0  0  0  0
  -29.6551  -23.2270   19.4284 C   0  0  0  0  0  0  0  0  0  0  0  0
  -22.2063   -6.0127   22.3890 C   0  0  0  0  0  0  0  0  0  0  0  0
  -23.4496   -3.9558   23.8052 C   0  0  0  0  0  0  0  0  0  0  0  0
  -21.6676   -5.5741   23.5985 C   0  0  0  0  0  0  0  0  0  0  0  0
  -24.5491  -11.6778   20.7162 C   0  0  0  0  0  0  0  0  0  0  0  0
  -30.5134  -18.0636   20.9819 C   0  0  0  0  0  0  0  0  0  0  0  0
  -31.3322  -19.3860   19.2910 C   0  0  0  0  0  0  0  0  0  0  0  0
  -25.2037  -13.7665   20.5071 C   0  0  0  0  0  0  0  0  0  0  0  0
  -22.8437  -13.5150   21.2916 C   0  0  0  0  0  0  0  0  0  0  0  0
  -33.7981  -26.4707   20.7617 C   0  0  0  0  0  0  0  0  0  0  0  0
  -34.1936  -24.6908   23.4446 C   0  0  0  0  0  0  0  0  0  0  0  0
  -33.1849  -22.0331   25.3330 C   0  0  0  0  0  0  0  0  0  0  0  0
  -30.6829  -14.8098   20.6941 C   0  0  0  0  0  0  0  0  0  0  0  0
  -35.1845  -31.0959   19.1055 C   0  0  0  0  0  0  0  0  0  0  0  0
  -31.4522  -26.4222   21.6838 C   0  0  0  0  0  0  0  0  0  0  0  0
  -32.6809  -23.7324   21.6673 C   0  0  0  0  0  0  0  0  0  0  0  0
  -35.7279  -30.0904   20.1174 C   0  0  0  0  0  0  0  0  0  0  0  0
  -29.5522  -12.4402   18.2893 C   0  0  0  0  0  0  0  0  0  0  0  0
  -35.8041  -28.6983   19.4985 C   0  0  0  0  0  0  0  0  0  0  0  0
  -28.1169  -12.1361   18.7223 C   0  0  0  0  0  0  0  0  0  0  0  0
  -30.4705  -12.6552   19.4904 C   0  0  0  0  0  0  0  0  0  0  0  0
  -28.5679  -13.3655   20.8866 C   0  0  0  0  0  0  0  0  0  0  0  0
  -34.4137  -28.2020   19.0841 C   0  0  1  0  0  0  0  0  0  0  0  0
  -32.9371  -26.2158   21.9665 C   0  0  1  0  0  0  0  0  0  0  0  0
  -27.5924  -13.1963   19.7093 C   0  0  2  0  0  0  0  0  0  0  0  0
  -29.3857  -20.7178   16.8751 C   0  0  0  0  0  0  0  0  0  0  0  0
  -33.7243  -20.8064   27.4548 C   0  0  0  0  0  0  0  0  0  0  0  0
  -32.6364  -17.3953   17.3565 C   0  0  0  0  0  0  0  0  0  0  0  0
  -34.5717  -18.9734   17.1898 C   0  0  0  0  0  0  0  0  0  0  0  0
  -36.6037  -23.4047   22.0855 C   0  0  0  0  0  0  0  0  0  0  0  0
  -36.5110  -21.5832   23.8006 C   0  0  0  0  0  0  0  0  0  0  0  0
  -36.9330  -23.9383   24.5065 C   0  0  0  0  0  0  0  0  0  0  0  0
  -30.5143  -22.5991   26.4760 C   0  0  0  0  0  0  0  0  0  0  0  0
  -32.4798  -19.7184   18.3948 C   0  0  0  0  0  0  0  0  0  0  0  0
  -30.7409  -16.9501   21.9491 C   0  0  0  0  0  0  0  0  0  0  0  0
  -29.9540  -21.2133   18.1988 C   0  0  1  0  0  0  0  0  0  1  0  0
  -34.6201  -23.2717   23.7329 C   0  0  1  0  0  0  0  0  0  0  0  0
  -32.8896  -21.9058   26.8166 C   0  0  2  0  0  0  0  0  0  0  0  0
  -33.3995  -18.5187   18.0629 C   0  0  0  0  0  0  0  0  0  0  0  0
  -36.1443  -23.0552   23.5151 C   0  0  0  0  0  0  0  0  0  0  0  0
  -25.8136  -11.5915   20.2948 N   0  0  0  0  0  0  0  0  0  0  0  0
  -31.5446  -18.3776   20.1660 N   0  0  0  0  0  0  0  0  0  0  0  0
  -26.1842  -12.8778   20.1767 N   0  0  0  0  0  0  0  0  0  0  0  0
  -33.2413  -24.8604   22.4297 N   0  0  0  0  0  0  0  0  0  0  0  0
  -29.9167  -13.6736   20.3860 N   0  0  0  0  0  0  0  0  0  0  0  0
  -25.4077  -15.0995   20.4450 N   0  0  0  0  0  0  0  0  0  0  0  0
  -21.8367  -12.5983   21.6230 N   0  0  0  0  0  0  0  0  0  0  0  0
  -33.6746  -27.7448   20.2413 N   0  0  0  0  0  0  0  0  0  0  0  0
  -34.1617  -22.9744   25.0856 N   0  0  0  0  0  0  0  0  0  0  0  0
  -30.0810  -15.7286   21.5451 N   0  0  0  0  0  0  0  0  0  0  0  0
  -31.4497  -21.5882   27.0328 N   0  3  0  0  0  0  0  0  0  0  0  0
  -22.6017  -14.7440   21.3598 O   0  0  0  0  0  0  0  0  0  0  0  0
  -34.5222  -25.5780   20.3368 O   0  0  0  0  0  0  0  0  0  0  0  0
  -34.6818  -25.6142   24.1009 O   0  0  0  0  0  0  0  0  0  0  0  0
  -32.6096  -21.3617   24.4794 O   0  0  0  0  0  0  0  0  0  0  0  0
  -31.8172  -14.9945   20.2400 O   0  0  0  0  0  0  0  0  0  0  0  0
  -21.5899   -7.0331   21.6844 O   0  0  0  0  0  0  0  0  0  0  0  0
  -29.0826  -22.2166   18.7190 O   0  0  0  0  0  0  0  0  0  1  0  0
  -24.0458   -2.9671   24.4844 F   0  0  0  0  0  0  0  0  0  0  0  0
  -20.5524   -6.1361   24.0848 F   0  0  0  0  0  0  0  0  0  0  0  0
  1  2  1  0  0  0  0
  1  5  2  0  0  0  0
  2  6  2  0  0  0  0
  3  9  2  0  0  0  0
  3 17  1  0  0  0  0
  4 10  1  0  0  0  0
  4 17  2  0  0  0  0
  5 19  1  0  0  0  0
  6 21  1  0  0  0  0
  7 11  2  0  0  0  0
  7 20  1  0  0  0  0
  8 14  2  0  0  0  0
  8 23  1  0  0  0  0
  9 24  1  0  0  0  0
 10 24  2  0  0  0  0
 11 25  1  0  0  0  0
 12 13  2  0  0  0  0
 12 26  1  0  0  0  0
 13 27  1  0  0  0  0
 14 30  1  0  0  0  0
 15 22  1  0  0  0  0
 15 25  2  0  0  0  0
 16 27  2  0  0  0  0
 16 28  1  0  0  0  0
 17 29  1  0  0  0  0
 18 29  1  0  0  0  0
 18 32  2  0  0  0  0
 18 33  1  0  0  0  0
 19 21  2  0  0  0  0
 19 38  1  0  0  0  0
 20 22  2  0  0  0  0
 20 39  1  0  0  0  0
 21 47  1  0  0  0  0
 22 40  1  0  0  0  0
 23 31  2  0  0  0  0
 23 60  1  0  0  0  0
 24 81  1  0  0  0  0
 25 82  1  0  0  0  0
 26 28  2  0  0  0  0
 26 81  1  0  0  0  0
 27 83  1  0  0  0  0
 28 84  1  0  0  0  0
 29 65  2  0  0  0  0
 30 59  1  0  0  0  0
 30 66  2  0  0  0  0
 31 58  1  0  0  0  0
 31 66  1  0  0  0  0
 32 67  1  0  0  0  0
 32 70  1  0  0  0  0
 33 71  1  0  0  0  0
 33 76  2  0  0  0  0
 34 48  1  0  0  0  0
 34 72  1  0  0  0  0
 34 77  2  0  0  0  0
 35 61  1  0  0  0  0
 35 68  1  0  0  0  0
 35 78  2  0  0  0  0
 36 62  1  0  0  0  0
 36 73  1  0  0  0  0
 36 79  2  0  0  0  0
 37 69  1  0  0  0  0
 37 74  1  0  0  0  0
 37 80  2  0  0  0  0
 38 41  1  0  0  0  0
 39 48  1  0  0  0  0
 40 68  1  0  0  0  0
 41 43  1  0  0  0  0
 42 44  1  0  0  0  0
 42 45  1  0  0  0  0
 43 47  1  0  0  0  0
 44 49  1  0  0  0  0
 45 69  1  0  0  0  0
 46 49  1  0  0  0  0
 46 69  1  0  0  0  0
 47 72  1  0  0  0  0
 48 68  1  0  0  0  0
 49 67  1  0  0  0  0
 50 60  1  0  0  0  0
 51 62  1  0  0  0  0
 52 63  1  0  0  0  0
 53 63  1  0  0  0  0
 54 64  1  0  0  0  0
 55 64  1  0  0  0  0
 56 64  1  0  0  0  0
 57 75  1  0  0  0  0
 58 63  1  0  0  0  0
 59 74  1  0  0  0  0
 60 82  1  0  0  0  0
 61 64  1  0  0  0  0
 61 73  1  0  0  0  0
 62 75  1  0  0  0  0
 65 67  1  0  0  0  0
M  CHG  1  75   1
M  ISO  4  37 100  60 101  74 100  82 101
M  END
> <Batch ID>
0116

> <Smiles>
CNC(C)C(=O)NC(C(=O)N1Cc2cc([101O:1][101CH:1](C)c3ccc(C[100NH:0][100C:0](=O)N4CCCC(n5nc(-c6ccc(Oc7ccc(F)cc7F)cc6)c(C(N)=O)c5N)C4)nc3CC(C)C)ccc2CC1C(=O)NC1CCCc2ccccc21)C(C)(C)C

> <Shape>
0.230

> <Color>
0.212

> <Negative vol penalty>
0.000

$$$$

  -OEChem-04052320133D

 83 90  0     1  0  0  0  0  0999 V2000
  -27.0006  -35.6142   21.9144 C   0  0  0  0  0  0  0  0  0  0  0  0
  -27.3948  -34.2803   21.9386 C   0  0  0  0  0  0  0  0  0  0  0  0
  -26.8468  -12.4694   20.7085 C   0  0  0  0  0  0  0  0  0  0  0  0
  -25.3943  -14.3878   20.4923 C   0  0  0  0  0  0  0  0  0  0  0  0
  -25.7163  -35.9680   22.3257 C   0  0  0  0  0  0  0  0  0  0  0  0
  -26.5051  -33.2993   22.3751 C   0  0  0  0  0  0  0  0  0  0  0  0
  -26.4806  -29.2228   19.3707 C   0  0  0  0  0  0  0  0  0  0  0  0
  -25.7954  -11.7350   21.2568 C   0  0  0  0  0  0  0  0  0  0  0  0
  -24.3428  -13.6535   21.0406 C   0  0  0  0  0  0  0  0  0  0  0  0
  -27.5340  -28.3206   19.5131 C   0  0  0  0  0  0  0  0  0  0  0  0
  -23.0539  -10.0982   20.1441 C   0  0  0  0  0  0  0  0  0  0  0  0
  -22.8575   -8.7989   19.6764 C   0  0  0  0  0  0  0  0  0  0  0  0
  -26.1204  -26.8898   20.8450 C   0  0  0  0  0  0  0  0  0  0  0  0
  -23.1992   -7.9432   21.9098 C   0  0  0  0  0  0  0  0  0  0  0  0
  -26.6463  -13.7958   20.3262 C   0  0  0  0  0  0  0  0  0  0  0  0
  -28.0760  -14.6622   18.3993 C   0  0  0  0  0  0  0  0  0  0  0  0
  -24.8071  -34.9898   22.7583 C   0  0  0  0  0  0  0  0  0  0  0  0
  -25.2405  -28.9701   19.9745 C   0  0  0  0  0  0  0  0  0  0  0  0
  -25.2078  -33.6405   22.7939 C   0  0  0  0  0  0  0  0  0  0  0  0
  -25.0522  -27.7892   20.7066 C   0  0  0  0  0  0  0  0  0  0  0  0
  -24.5433  -12.3270   21.4229 C   0  0  0  0  0  0  0  0  0  0  0  0
  -27.3548  -27.1553   20.2527 C   0  0  0  0  0  0  0  0  0  0  0  0
  -23.3230  -10.3201   21.4947 C   0  0  0  0  0  0  0  0  0  0  0  0
  -22.9301   -7.7214   20.5592 C   0  0  0  0  0  0  0  0  0  0  0  0
  -23.3956   -9.2426   22.3775 C   0  0  0  0  0  0  0  0  0  0  0  0
  -27.7323  -14.5551   19.7603 C   0  0  0  0  0  0  0  0  0  0  0  0
  -29.1712  -15.4910   18.3860 C   0  0  0  0  0  0  0  0  0  0  0  0
  -27.4603  -14.0660   17.2499 C   0  0  0  0  0  0  0  0  0  0  0  0
  -23.4808  -30.4318   22.1815 C   0  0  0  0  0  0  0  0  0  0  0  0
  -21.3084  -28.1535   21.3992 C   0  0  0  0  0  0  0  0  0  0  0  0
  -20.6977  -25.0552   20.1051 C   0  0  0  0  0  0  0  0  0  0  0  0
  -31.1266  -19.7247   22.1415 C   0  0  0  0  0  0  0  0  0  0  0  0
  -23.4454  -35.4258   23.2381 C   0  0  0  0  0  0  0  0  0  0  0  0
  -24.1062  -29.9405   19.7892 C   0  0  0  0  0  0  0  0  0  0  0  0
  -23.7342  -27.4614   21.3578 C   0  0  0  0  0  0  0  0  0  0  0  0
  -22.4379  -34.2828   23.3321 C   0  0  0  0  0  0  0  0  0  0  0  0
  -32.8935  -16.8210   21.0817 C   0  0  0  0  0  0  0  0  0  0  0  0
  -23.0617  -33.0772   24.0278 C   0  0  0  0  0  0  0  0  0  0  0  0
  -31.8021  -15.9207   20.5001 C   0  0  0  0  0  0  0  0  0  0  0  0
  -32.3937  -17.6017   22.2953 C   0  0  0  0  0  0  0  0  0  0  0  0
  -30.0693  -17.4779   21.4856 C   0  0  0  0  0  0  0  0  0  0  0  0
  -24.2630  -32.5447   23.2374 C   0  0  1  0  0  0  0  0  0  0  0  0
  -23.0419  -29.8302   20.8765 C   0  0  1  0  0  0  0  0  0  0  0  0
  -30.5092  -16.7123   20.2260 C   0  0  2  0  0  0  0  0  0  0  0  0
  -18.8260  -23.4522   19.6314 C   0  0  0  0  0  0  0  0  0  0  0  0
  -30.9442  -21.4962   17.7180 C   0  0  0  0  0  0  0  0  0  0  0  0
  -28.7938  -20.3413   18.2585 C   0  0  0  0  0  0  0  0  0  0  0  0
  -29.8913  -27.0174   22.1196 C   0  0  0  0  0  0  0  0  0  0  0  0
  -21.1603  -27.4536   24.3653 C   0  0  0  0  0  0  0  0  0  0  0  0
  -20.0554  -25.2985   23.7303 C   0  0  0  0  0  0  0  0  0  0  0  0
  -18.9550  -27.4701   23.1860 C   0  0  0  0  0  0  0  0  0  0  0  0
  -21.2589  -25.0778   17.1993 C   0  0  0  0  0  0  0  0  0  0  0  0
  -27.1691  -23.4226   22.4578 C   0  0  0  0  0  0  0  0  0  0  0  0
  -29.7348  -21.7674   21.9192 C   0  0  0  0  0  0  0  0  0  0  0  0
  -29.2897  -24.5513   21.8022 C   0  0  0  0  0  0  0  0  0  0  0  0
  -21.0018  -26.7572   21.8842 C   0  0  1  0  0  0  0  0  0  0  0  0
  -19.6903  -24.5738   19.0766 C   0  0  2  0  0  0  0  0  0  0  0  0
  -29.9366  -21.1936   18.8283 C   0  0  0  0  0  0  0  0  0  0  0  0
  -28.7412  -22.3025   20.8842 C   0  0  2  0  0  0  0  0  0  0  0  0
  -28.8273  -26.0026   21.7221 C   0  0  2  0  0  0  0  0  0  1  0  0
  -29.3804  -22.4781   19.4911 C   0  0  2  0  0  0  0  0  0  0  0  0
  -20.3187  -26.7517   23.2809 C   0  0  0  0  0  0  0  0  0  0  0  0
  -28.5435  -15.2594   20.5540 N   0  0  0  0  0  0  0  0  0  0  0  0
  -29.4079  -15.8169   19.6891 N   0  0  0  0  0  0  0  0  0  0  0  0
  -22.6577  -28.4445   21.1529 N   0  0  0  0  0  0  0  0  0  0  0  0
  -31.1663  -18.3314   21.9682 N   0  0  0  0  0  0  0  0  0  0  0  0
  -29.9453  -15.9654   17.3869 N   0  0  0  0  0  0  0  0  0  0  0  0
  -26.3436  -13.2412   17.4425 N   0  0  0  0  0  0  0  0  0  0  0  0
  -23.8162  -31.7698   22.0997 N   0  0  0  0  0  0  0  0  0  0  0  0
  -20.2151  -26.1230   20.8319 N   0  0  0  0  0  0  0  0  0  0  0  0
  -29.9275  -20.3392   21.8018 N   0  0  0  0  0  0  0  0  0  0  0  0
  -20.3909  -24.0703   17.8615 N   0  3  0  0  0  0  0  0  0  0  0  0
  -28.2097  -23.6235   21.3836 N   0  3  1  0  0  0  0  0  0  0  0  0
  -27.8978  -14.2457   16.0881 O   0  0  0  0  0  0  0  0  0  0  0  0
  -23.5115  -29.7341   23.1885 O   0  0  0  0  0  0  0  0  0  0  0  0
  -20.3840  -28.9542   21.2376 O   0  0  0  0  0  0  0  0  0  0  0  0
  -21.8009  -24.5336   20.2518 O   0  0  0  0  0  0  0  0  0  0  0  0
  -32.0902  -20.3738   22.5623 O   0  0  0  0  0  0  0  0  0  0  0  0
  -28.4433  -23.1014   18.6076 O   0  0  0  0  0  0  0  0  0  0  0  0
  -23.5170  -11.6107   21.9577 O   0  0  0  0  0  0  0  0  0  0  0  0
  -28.3815  -26.2733   20.3938 O   0  0  0  0  0  0  0  0  0  1  0  0
  -22.7400   -6.4738   20.1102 F   0  0  0  0  0  0  0  0  0  0  0  0
  -23.6527   -9.4496   23.6764 F   0  0  0  0  0  0  0  0  0  0  0  0
  1  2  1  0  0  0  0
  1  5  2  0  0  0  0
  2  6  2  0  0  0  0
  3  8  2  0  0  0  0
  3 15  1  0  0  0  0
  4  9  1  0  0  0  0
  4 15  2  0  0  0  0
  5 17  1  0  0  0  0
  6 19  1  0  0  0  0
  7 10  2  0  0  0  0
  7 18  1  0  0  0  0
  8 21  1  0  0  0  0
  9 21  2  0  0  0  0
 10 22  1  0  0  0  0
 11 12  2  0  0  0  0
 11 23  1  0  0  0  0
 12 24  1  0  0  0  0
 13 20  1  0  0  0  0
 13 22  2  0  0  0  0
 14 24  2  0  0  0  0
 14 25  1  0  0  0  0
 15 26  1  0  0  0  0
 16 26  1  0  0  0  0
 16 27  2  0  0  0  0
 16 28  1  0  0  0  0
 17 19  2  0  0  0  0
 17 33  1  0  0  0  0
 18 20  2  0  0  0  0
 18 34  1  0  0  0  0
 19 42  1  0  0  0  0
 20 35  1  0  0  0  0
 21 80  1  0  0  0  0
 22 81  1  0  0  0  0
 23 25  2  0  0  0  0
 23 80  1  0  0  0  0
 24 82  1  0  0  0  0
 25 83  1  0  0  0  0
 26 63  2  0  0  0  0
 27 64  1  0  0  0  0
 27 67  1  0  0  0  0
 28 68  1  0  0  0  0
 28 74  2  0  0  0  0
 29 43  1  0  0  0  0
 29 69  1  0  0  0  0
 29 75  2  0  0  0  0
 30 56  1  0  0  0  0
 30 65  1  0  0  0  0
 30 76  2  0  0  0  0
 31 57  1  0  0  0  0
 31 70  1  0  0  0  0
 31 77  2  0  0  0  0
 32 66  1  0  0  0  0
 32 71  1  0  0  0  0
 32 78  2  0  0  0  0
 33 36  1  0  0  0  0
 34 43  1  0  0  0  0
 35 65  1  0  0  0  0
 36 38  1  0  0  0  0
 37 39  1  0  0  0  0
 37 40  1  0  0  0  0
 38 42  1  0  0  0  0
 39 44  1  0  0  0  0
 40 66  1  0  0  0  0
 41 44  1  0  0  0  0
 41 66  1  0  0  0  0
 42 69  1  0  0  0  0
 43 65  1  0  0  0  0
 44 64  1  0  0  0  0
 45 57  1  0  0  0  0
 46 58  1  0  0  0  0
 47 58  1  0  0  0  0
 48 60  1  0  0  0  0
 49 62  1  0  0  0  0
 50 62  1  0  0  0  0
 51 62  1  0  0  0  0
 52 72  1  0  0  0  0
 53 73  1  0  0  0  0
 54 59  1  0  0  0  0
 54 71  1  0  0  0  0
 55 60  1  0  0  0  0
 55 73  1  0  0  0  0
 56 62  1  0  0  0  0
 56 70  1  0  0  0  0
 57 72  1  0  0  0  0
 58 61  1  0  0  0  0
 59 61  1  0  0  0  0
 59 73  1  0  0  0  0
 60 81  1  0  0  0  0
 61 79  1  0  0  0  0
 63 64  1  0  0  0  0
M  CHG  2  72   1  73   1
M  ISO  4  32 100  60 101  71 100  81 101
M  END
> <Batch ID>
0116

> <Smiles>
CNC(C)C(=O)NC(C(=O)N1Cc2cc([101O:1][101CH:1](C)CN(C)C(C[100NH:0][100C:0](=O)N3CCCC(n4nc(-c5ccc(Oc6ccc(F)cc6F)cc5)c(C(N)=O)c4N)C3)C(O)C(C)C)ccc2CC1C(=O)NC1CCCc2ccccc21)C(C)(C)C

> <Shape>
0.299

> <Color>
0.083

> <Negative vol penalty>
0.000

$$$$

  -OEChem-04052320133D

 87 95  0     1  0  0  0  0  0999 V2000
  -26.7097  -19.5493   15.0954 C   0  0  0  0  0  0  0  0  0  0  0  0
  -27.3428  -18.4213   15.6049 C   0  0  0  0  0  0  0  0  0  0  0  0
  -22.7267  -29.1332   19.6031 C   0  0  0  0  0  0  0  0  0  0  0  0
  -22.6308  -27.5859   21.4561 C   0  0  0  0  0  0  0  0  0  0  0  0
  -25.5517  -20.0286   15.7040 C   0  0  0  0  0  0  0  0  0  0  0  0
  -26.8115  -17.7652   16.7158 C   0  0  0  0  0  0  0  0  0  0  0  0
  -28.9141  -13.5119   18.0166 C   0  0  0  0  0  0  0  0  0  0  0  0
  -28.1436  -20.0340   22.6455 C   0  0  0  0  0  0  0  0  0  0  0  0
  -21.3468  -29.3188   19.6867 C   0  0  0  0  0  0  0  0  0  0  0  0
  -21.2509  -27.7716   21.5398 C   0  0  0  0  0  0  0  0  0  0  0  0
  -30.1760  -13.4440   18.6055 C   0  0  0  0  0  0  0  0  0  0  0  0
  -17.7540  -28.1133   22.4742 C   0  0  0  0  0  0  0  0  0  0  0  0
  -17.1996  -28.2998   23.7405 C   0  0  0  0  0  0  0  0  0  0  0  0
  -27.7838  -21.1560   21.9072 C   0  0  0  0  0  0  0  0  0  0  0  0
  -29.1466  -13.0526   20.7517 C   0  0  0  0  0  0  0  0  0  0  0  0
  -18.5638  -30.2700   24.0477 C   0  0  0  0  0  0  0  0  0  0  0  0
  -23.3687  -28.2667   20.4877 C   0  0  0  0  0  0  0  0  0  0  0  0
  -25.7930  -28.8093   21.0673 C   0  0  0  0  0  0  0  0  0  0  0  0
  -25.0136  -19.3848   16.8304 C   0  0  0  0  0  0  0  0  0  0  0  0
  -27.7568  -13.3612   18.7939 C   0  0  0  0  0  0  0  0  0  0  0  0
  -25.6302  -18.2195   17.3296 C   0  0  0  0  0  0  0  0  0  0  0  0
  -27.8713  -13.1164   20.1698 C   0  0  0  0  0  0  0  0  0  0  0  0
  -29.0285  -19.1076   22.1052 C   0  0  0  0  0  0  0  0  0  0  0  0
  -20.6089  -28.6380   20.6550 C   0  0  0  0  0  0  0  0  0  0  0  0
  -30.2923  -13.2172   19.9738 C   0  0  0  0  0  0  0  0  0  0  0  0
  -18.7134  -29.0052   21.9947 C   0  0  0  0  0  0  0  0  0  0  0  0
  -17.6044  -29.3781   24.5272 C   0  0  0  0  0  0  0  0  0  0  0  0
  -19.1183  -30.0835   22.7814 C   0  0  0  0  0  0  0  0  0  0  0  0
  -24.7940  -28.0741   20.4015 C   0  0  0  0  0  0  0  0  0  0  0  0
  -29.5215  -19.3473   20.8327 C   0  0  0  0  0  0  0  0  0  0  0  0
  -28.3327  -21.3041   20.6436 C   0  0  0  0  0  0  0  0  0  0  0  0
  -26.9722  -28.2393   20.6535 C   0  0  0  0  0  0  0  0  0  0  0  0
  -25.6665  -29.9090   21.9785 C   0  0  0  0  0  0  0  0  0  0  0  0
  -25.2662  -15.2093   19.4905 C   0  0  0  0  0  0  0  0  0  0  0  0
  -24.1724  -12.5213   20.9398 C   0  0  0  0  0  0  0  0  0  0  0  0
  -24.8886   -9.5214   22.4008 C   0  0  0  0  0  0  0  0  0  0  0  0
  -28.3844  -22.8015   18.6184 C   0  0  0  0  0  0  0  0  0  0  0  0
  -23.7536  -19.9416   17.4451 C   0  0  0  0  0  0  0  0  0  0  0  0
  -26.4036  -13.4105   18.1390 C   0  0  0  0  0  0  0  0  0  0  0  0
  -26.6602  -12.9277   21.0452 C   0  0  0  0  0  0  0  0  0  0  0  0
  -23.5189  -19.4489   18.8693 C   0  0  0  0  0  0  0  0  0  0  0  0
  -28.9032  -25.9019   16.9465 C   0  0  0  0  0  0  0  0  0  0  0  0
  -23.6619  -17.9353   18.9258 C   0  0  0  0  0  0  0  0  0  0  0  0
  -28.0039  -26.8790   17.7072 C   0  0  0  0  0  0  0  0  0  0  0  0
  -28.2649  -24.5192   16.8267 C   0  0  0  0  0  0  0  0  0  0  0  0
  -26.9231  -24.9047   18.8566 C   0  0  0  0  0  0  0  0  0  0  0  0
  -25.0876  -17.5073   18.5555 C   0  0  1  0  0  0  0  0  0  0  0  0
  -25.2808  -13.7551   19.1126 C   0  0  1  0  0  0  0  0  0  0  0  0
  -27.5518  -26.2930   19.0591 C   0  0  2  0  0  0  0  0  0  0  0  0
  -29.4170  -17.9028   22.8899 C   0  0  0  0  0  0  0  0  0  0  0  0
  -30.2633  -18.3042   18.6755 C   0  0  0  0  0  0  0  0  0  0  0  0
  -23.7894   -7.5651   23.5242 C   0  0  0  0  0  0  0  0  0  0  0  0
  -33.1651  -14.6094   23.6259 C   0  0  0  0  0  0  0  0  0  0  0  0
  -23.7940  -14.1883   23.4671 C   0  0  0  0  0  0  0  0  0  0  0  0
  -23.6204  -12.0544   24.7649 C   0  0  0  0  0  0  0  0  0  0  0  0
  -21.9422  -12.5754   22.9944 C   0  0  0  0  0  0  0  0  0  0  0  0
  -25.8729   -7.6374   20.3414 C   0  0  0  0  0  0  0  0  0  0  0  0
  -31.9704  -18.6937   20.4948 C   0  0  0  0  0  0  0  0  0  0  0  0
  -32.9405  -17.5223   20.3552 C   0  0  0  0  0  0  0  0  0  0  0  0
  -33.4246  -15.2107   21.1681 C   0  0  0  0  0  0  0  0  0  0  0  0
  -31.6251  -13.5697   21.9117 C   0  0  0  0  0  0  0  0  0  1  0  0
  -30.4903  -18.3689   20.1918 C   0  0  1  0  0  0  0  0  0  0  0  0
  -24.2921  -11.9281   22.3228 C   0  0  1  0  0  0  0  0  0  0  0  0
  -24.2912   -8.1391   22.2084 C   0  0  2  0  0  0  0  0  0  0  0  0
  -33.0292  -14.1267   22.1775 C   0  0  2  0  0  0  0  0  0  0  0  0
  -23.4352  -12.6920   23.3714 C   0  0  0  0  0  0  0  0  0  0  0  0
  -25.2948  -27.1107   19.6236 N   0  0  0  0  0  0  0  0  0  0  0  0
  -29.1953  -20.4255   20.0853 N   0  0  0  0  0  0  0  0  0  0  0  0
  -26.6214  -27.2366   19.7980 N   0  0  0  0  0  0  0  0  0  0  0  0
  -25.3591  -12.9908   20.3591 N   0  0  0  0  0  0  0  0  0  0  0  0
  -27.8659  -24.0260   18.1467 N   0  0  0  0  0  0  0  0  0  0  0  0
  -28.2644  -28.5030   20.9414 N   0  0  0  0  0  0  0  0  0  0  0  0
  -24.3812  -30.3695   22.2955 N   0  0  0  0  0  0  0  0  0  0  0  0
  -27.9597  -22.4508   19.8995 N   0  0  0  0  0  0  0  0  0  0  0  0
  -25.1275  -16.0682   18.4169 N   0  0  0  0  0  0  0  0  0  0  0  0
  -23.9555  -10.5147   22.1914 N   0  0  0  0  0  0  0  0  0  0  0  0
  -25.3106   -7.2078   21.6477 N   0  3  0  0  0  0  0  0  0  0  0  0
  -32.5708  -16.4169   21.2817 N   0  3  0  0  0  0  0  0  0  0  0  0
  -26.6642  -30.4774   22.4834 O   0  0  0  0  0  0  0  0  0  0  0  0
  -25.3714  -15.5284   20.6689 O   0  0  0  0  0  0  0  0  0  0  0  0
  -23.0680  -12.5598   20.3918 O   0  0  0  0  0  0  0  0  0  0  0  0
  -26.0644   -9.7017   22.7099 O   0  0  0  0  0  0  0  0  0  0  0  0
  -29.1704  -22.1280   17.9472 O   0  0  0  0  0  0  0  0  0  0  0  0
  -19.2624  -28.8191   20.7371 O   0  0  0  0  0  0  0  0  0  0  0  0
  -31.5228  -13.1511   20.5513 O   0  0  0  0  0  0  0  0  0  1  0  0
  -17.0707  -29.5580   25.7425 F   0  0  0  0  0  0  0  0  0  0  0  0
  -20.0387  -30.9443   22.3257 F   0  0  0  0  0  0  0  0  0  0  0  0
  1  2  1  0  0  0  0
  1  5  2  0  0  0  0
  2  6  2  0  0  0  0
  3  9  2  0  0  0  0
  3 17  1  0  0  0  0
  4 10  1  0  0  0  0
  4 17  2  0  0  0  0
  5 19  1  0  0  0  0
  6 21  1  0  0  0  0
  7 11  2  0  0  0  0
  7 20  1  0  0  0  0
  8 14  2  0  0  0  0
  8 23  1  0  0  0  0
  9 24  1  0  0  0  0
 10 24  2  0  0  0  0
 11 25  1  0  0  0  0
 12 13  2  0  0  0  0
 12 26  1  0  0  0  0
 13 27  1  0  0  0  0
 14 31  1  0  0  0  0
 15 22  1  0  0  0  0
 15 25  2  0  0  0  0
 16 27  2  0  0  0  0
 16 28  1  0  0  0  0
 17 29  1  0  0  0  0
 18 29  1  0  0  0  0
 18 32  2  0  0  0  0
 18 33  1  0  0  0  0
 19 21  2  0  0  0  0
 19 38  1  0  0  0  0
 20 22  2  0  0  0  0
 20 39  1  0  0  0  0
 21 47  1  0  0  0  0
 22 40  1  0  0  0  0
 23 30  2  0  0  0  0
 23 50  1  0  0  0  0
 24 84  1  0  0  0  0
 25 85  1  0  0  0  0
 26 28  2  0  0  0  0
 26 84  1  0  0  0  0
 27 86  1  0  0  0  0
 28 87  1  0  0  0  0
 29 67  2  0  0  0  0
 30 62  1  0  0  0  0
 30 68  1  0  0  0  0
 31 68  2  0  0  0  0
 31 74  1  0  0  0  0
 32 69  1  0  0  0  0
 32 72  1  0  0  0  0
 33 73  1  0  0  0  0
 33 79  2  0  0  0  0
 34 48  1  0  0  0  0
 34 75  1  0  0  0  0
 34 80  2  0  0  0  0
 35 63  1  0  0  0  0
 35 70  1  0  0  0  0
 35 81  2  0  0  0  0
 36 64  1  0  0  0  0
 36 76  1  0  0  0  0
 36 82  2  0  0  0  0
 37 71  1  0  0  0  0
 37 74  1  0  0  0  0
 37 83  2  0  0  0  0
 38 41  1  0  0  0  0
 39 48  1  0  0  0  0
 40 70  1  0  0  0  0
 41 43  1  0  0  0  0
 42 44  1  0  0  0  0
 42 45  1  0  0  0  0
 43 47  1  0  0  0  0
 44 49  1  0  0  0  0
 45 71  1  0  0  0  0
 46 49  1  0  0  0  0
 46 71  1  0  0  0  0
 47 75  1  0  0  0  0
 48 70  1  0  0  0  0
 49 69  1  0  0  0  0
 51 62  1  0  0  0  0
 52 64  1  0  0  0  0
 53 65  1  0  0  0  0
 54 66  1  0  0  0  0
 55 66  1  0  0  0  0
 56 66  1  0  0  0  0
 57 77  1  0  0  0  0
 58 59  1  0  0  0  0
 58 62  1  0  0  0  0
 59 78  1  0  0  0  0
 60 65  1  0  0  0  0
 60 78  1  0  0  0  0
 61 65  1  0  0  0  0
 61 85  1  0  0  0  0
 63 66  1  0  0  0  0
 63 76  1  0  0  0  0
 64 77  1  0  0  0  0
 67 69  1  0  0  0  0
M  CHG  2  77   1  78   1
M  ISO  4  37 100  61 101  74 100  85 101
M  END
> <Batch ID>
0116

> <Smiles>
CNC(C)C(=O)NC(C(=O)N1Cc2cc([101O:1][101CH2:1]C(C)CNCCC(C)c3nc([100NH:0][100C:0](=O)N4CCCC(n5nc(-c6ccc(Oc7ccc(F)cc7F)cc6)c(C(N)=O)c5N)C4)ccc3C)ccc2CC1C(=O)NC1CCCc2ccccc21)C(C)(C)C

> <Shape>
0.286

> <Color>
0.083

> <Negative vol penalty>
0.000

$$$$

  -OEChem-04052320133D

 83 91  0     1  0  0  0  0  0999 V2000
  -29.2898  -36.0984   25.9136 C   0  0  0  0  0  0  0  0  0  0  0  0
  -29.2543  -34.9988   25.0621 C   0  0  0  0  0  0  0  0  0  0  0  0
  -22.8318  -10.1169   20.1022 C   0  0  0  0  0  0  0  0  0  0  0  0
  -24.6588   -8.9353   21.1524 C   0  0  0  0  0  0  0  0  0  0  0  0
  -28.1826  -36.4021   26.7047 C   0  0  0  0  0  0  0  0  0  0  0  0
  -28.1119  -34.2015   25.0020 C   0  0  0  0  0  0  0  0  0  0  0  0
  -25.8698  -31.3471   20.0694 C   0  0  0  0  0  0  0  0  0  0  0  0
  -21.9389   -9.1536   20.5715 C   0  0  0  0  0  0  0  0  0  0  0  0
  -23.7659   -7.9720   21.6218 C   0  0  0  0  0  0  0  0  0  0  0  0
  -25.9730  -30.0316   19.6191 C   0  0  0  0  0  0  0  0  0  0  0  0
  -22.1370   -5.2759   20.3934 C   0  0  0  0  0  0  0  0  0  0  0  0
  -22.5003   -3.9358   20.2601 C   0  0  0  0  0  0  0  0  0  0  0  0
  -23.8555  -29.5177   20.6541 C   0  0  0  0  0  0  0  0  0  0  0  0
  -22.3819   -3.6651   22.6580 C   0  0  0  0  0  0  0  0  0  0  0  0
  -24.1918  -10.0077   20.3926 C   0  0  0  0  0  0  0  0  0  0  0  0
  -25.3668  -11.3454   18.5657 C   0  0  0  0  0  0  0  0  0  0  0  0
  -27.0225  -35.6137   26.6472 C   0  0  0  0  0  0  0  0  0  0  0  0
  -24.7621  -31.7556   20.8259 C   0  0  0  0  0  0  0  0  0  0  0  0
  -26.9886  -34.4941   25.7941 C   0  0  0  0  0  0  0  0  0  0  0  0
  -23.7394  -30.8395   21.1106 C   0  0  0  0  0  0  0  0  0  0  0  0
  -22.4059   -8.0811   21.3314 C   0  0  0  0  0  0  0  0  0  0  0  0
  -24.9672  -29.1159   19.9140 C   0  0  0  0  0  0  0  0  0  0  0  0
  -21.8962   -5.8106   21.6591 C   0  0  0  0  0  0  0  0  0  0  0  0
  -22.6227   -3.1304   21.3923 C   0  0  0  0  0  0  0  0  0  0  0  0
  -22.0187   -5.0052   22.7913 C   0  0  0  0  0  0  0  0  0  0  0  0
  -25.1147  -11.0022   19.9075 C   0  0  0  0  0  0  0  0  0  0  0  0
  -26.3165  -12.3352   18.6371 C   0  0  0  0  0  0  0  0  0  0  0  0
  -24.7938  -10.8169   17.3624 C   0  0  0  0  0  0  0  0  0  0  0  0
  -24.3491  -32.8894   23.7666 C   0  0  0  0  0  0  0  0  0  0  0  0
  -21.2808  -33.2489   22.7774 C   0  0  0  0  0  0  0  0  0  0  0  0
  -18.7895  -32.2844   20.6536 C   0  0  0  0  0  0  0  0  0  0  0  0
  -28.3245  -16.8850   20.6932 C   0  0  0  0  0  0  0  0  0  0  0  0
  -25.8680  -35.9537   27.5561 C   0  0  0  0  0  0  0  0  0  0  0  0
  -24.6529  -33.1850   21.2814 C   0  0  0  0  0  0  0  0  0  0  0  0
  -22.5199  -31.2331   21.9020 C   0  0  0  0  0  0  0  0  0  0  0  0
  -24.5589  -35.2777   27.1569 C   0  0  0  0  0  0  0  0  0  0  0  0
  -29.1068  -13.9637   22.5169 C   0  0  0  0  0  0  0  0  0  0  0  0
  -24.7906  -33.7999   26.8583 C   0  0  0  0  0  0  0  0  0  0  0  0
  -28.1457  -12.9519   21.8944 C   0  0  0  0  0  0  0  0  0  0  0  0
  -29.8518  -19.2757   19.4845 C   0  0  0  0  0  0  0  0  0  0  0  0
  -28.5876  -19.8180   21.5981 C   0  0  0  0  0  0  0  0  0  0  0  0
  -28.4568  -15.3365   22.6997 C   0  0  0  0  0  0  0  0  0  0  0  0
  -26.8924  -14.8701   20.8401 C   0  0  0  0  0  0  0  0  0  0  0  0
  -30.0617  -20.7636   19.2360 C   0  0  0  0  0  0  0  0  0  0  0  0
  -28.8028  -21.3032   21.3381 C   0  0  0  0  0  0  0  0  0  0  0  0
  -25.7585  -33.6198   25.6826 C   0  0  1  0  0  0  0  0  0  0  0  0
  -23.7282  -33.3605   22.4820 C   0  0  1  0  0  0  0  0  0  0  0  0
  -27.5395  -13.4991   20.5905 C   0  0  2  0  0  0  0  0  0  0  0  0
  -29.6978  -18.9716   20.9751 C   0  0  0  0  0  0  0  0  0  0  0  0
  -16.3808  -32.7319   20.1104 C   0  0  0  0  0  0  0  0  0  0  0  0
  -20.4326  -31.6575   25.2387 C   0  0  0  0  0  0  0  0  0  0  0  0
  -18.1949  -31.3244   24.1662 C   0  0  0  0  0  0  0  0  0  0  0  0
  -18.9812  -33.6265   24.7184 C   0  0  0  0  0  0  0  0  0  0  0  0
  -30.5710  -16.8012   21.7053 C   0  0  0  0  0  0  0  0  0  0  0  0
  -19.4513  -33.1579   17.9044 C   0  0  0  0  0  0  0  0  0  0  0  0
  -27.7046  -25.1494   19.4271 C   0  0  0  0  0  0  0  0  0  0  0  0
  -27.6479  -23.6453   19.6971 C   0  0  0  0  0  0  0  0  0  0  0  0
  -26.3241  -25.7898   19.5546 C   0  0  0  0  0  0  0  0  0  0  0  0
  -29.0202  -23.0090   19.5332 C   0  0  0  0  0  0  0  0  0  0  0  0
  -26.3796  -27.2941   19.3292 C   0  0  0  0  0  0  0  0  0  1  0  0
  -20.0445  -32.3825   22.7913 C   0  0  1  0  0  0  0  0  0  0  0  0
  -17.8261  -33.0889   19.7998 C   0  0  2  0  0  0  0  0  0  0  0  0
  -19.4371  -32.2395   24.2154 C   0  0  0  0  0  0  0  0  0  0  0  0
  -25.8454  -11.7158   20.7683 N   0  0  0  0  0  0  0  0  0  0  0  0
  -26.5660  -12.5173   19.9655 N   0  0  0  0  0  0  0  0  0  0  0  0
  -22.4622  -32.6404   22.3304 N   0  0  0  0  0  0  0  0  0  0  0  0
  -27.8498  -15.7998   21.4444 N   0  0  0  0  0  0  0  0  0  0  0  0
  -26.9542  -13.0587   17.6924 N   0  0  0  0  0  0  0  0  0  0  0  0
  -23.8315   -9.8036   17.4696 N   0  0  0  0  0  0  0  0  0  0  0  0
  -25.0791  -33.8590   24.4273 N   0  0  0  0  0  0  0  0  0  0  0  0
  -19.1328  -32.9565   21.8076 N   0  0  0  0  0  0  0  0  0  0  0  0
  -29.4459  -17.5674   21.1884 N   0  0  0  0  0  0  0  0  0  0  0  0
  -28.9246  -21.5423   19.8525 N   0  3  0  0  0  0  0  0  0  0  0  0
  -18.0741  -32.8285   18.3536 N   0  3  0  0  0  0  0  0  0  0  0  0
  -25.1372  -11.2195   16.2251 O   0  0  0  0  0  0  0  0  0  0  0  0
  -24.1773  -31.7324   24.1320 O   0  0  0  0  0  0  0  0  0  0  0  0
  -21.1996  -34.4243   23.1427 O   0  0  0  0  0  0  0  0  0  0  0  0
  -19.1941  -31.1696   20.3310 O   0  0  0  0  0  0  0  0  0  0  0  0
  -27.7725  -17.2317   19.6409 O   0  0  0  0  0  0  0  0  0  0  0  0
  -21.5349   -7.1411   21.7898 O   0  0  0  0  0  0  0  0  0  0  0  0
  -25.0657  -27.8312   19.4763 O   0  0  0  0  0  0  0  0  0  1  0  0
  -22.9701   -1.8432   21.2640 F   0  0  0  0  0  0  0  0  0  0  0  0
  -21.7875   -5.5130   24.0097 F   0  0  0  0  0  0  0  0  0  0  0  0
  1  2  1  0  0  0  0
  1  5  2  0  0  0  0
  2  6  2  0  0  0  0
  3  8  2  0  0  0  0
  3 15  1  0  0  0  0
  4  9  1  0  0  0  0
  4 15  2  0  0  0  0
  5 17  1  0  0  0  0
  6 19  1  0  0  0  0
  7 10  2  0  0  0  0
  7 18  1  0  0  0  0
  8 21  1  0  0  0  0
  9 21  2  0  0  0  0
 10 22  1  0  0  0  0
 11 12  2  0  0  0  0
 11 23  1  0  0  0  0
 12 24  1  0  0  0  0
 13 20  1  0  0  0  0
 13 22  2  0  0  0  0
 14 24  2  0  0  0  0
 14 25  1  0  0  0  0
 15 26  1  0  0  0  0
 16 26  1  0  0  0  0
 16 27  2  0  0  0  0
 16 28  1  0  0  0  0
 17 19  2  0  0  0  0
 17 33  1  0  0  0  0
 18 20  2  0  0  0  0
 18 34  1  0  0  0  0
 19 46  1  0  0  0  0
 20 35  1  0  0  0  0
 21 80  1  0  0  0  0
 22 81  1  0  0  0  0
 23 25  2  0  0  0  0
 23 80  1  0  0  0  0
 24 82  1  0  0  0  0
 25 83  1  0  0  0  0
 26 64  2  0  0  0  0
 27 65  1  0  0  0  0
 27 68  1  0  0  0  0
 28 69  1  0  0  0  0
 28 75  2  0  0  0  0
 29 47  1  0  0  0  0
 29 70  1  0  0  0  0
 29 76  2  0  0  0  0
 30 61  1  0  0  0  0
 30 66  1  0  0  0  0
 30 77  2  0  0  0  0
 31 62  1  0  0  0  0
 31 71  1  0  0  0  0
 31 78  2  0  0  0  0
 32 67  1  0  0  0  0
 32 72  1  0  0  0  0
 32 79  2  0  0  0  0
 33 36  1  0  0  0  0
 34 47  1  0  0  0  0
 35 66  1  0  0  0  0
 36 38  1  0  0  0  0
 37 39  1  0  0  0  0
 37 42  1  0  0  0  0
 38 46  1  0  0  0  0
 39 48  1  0  0  0  0
 40 44  1  0  0  0  0
 40 49  1  0  0  0  0
 41 45  1  0  0  0  0
 41 49  1  0  0  0  0
 42 67  1  0  0  0  0
 43 48  1  0  0  0  0
 43 67  1  0  0  0  0
 44 73  1  0  0  0  0
 45 73  1  0  0  0  0
 46 70  1  0  0  0  0
 47 66  1  0  0  0  0
 48 65  1  0  0  0  0
 49 72  1  0  0  0  0
 50 62  1  0  0  0  0
 51 63  1  0  0  0  0
 52 63  1  0  0  0  0
 53 63  1  0  0  0  0
 54 72  1  0  0  0  0
 55 74  1  0  0  0  0
 56 57  1  0  0  0  0
 56 58  1  0  0  0  0
 57 59  1  0  0  0  0
 58 60  1  0  0  0  0
 59 73  1  0  0  0  0
 60 81  1  0  0  0  0
 61 63  1  0  0  0  0
 61 71  1  0  0  0  0
 62 74  1  0  0  0  0
 64 65  1  0  0  0  0
M  CHG  2  73   1  74   1
M  ISO  4  32 100  60 101  72 100  81 101
M  END
> <Batch ID>
0116

> <Smiles>
CNC(C)C(=O)NC(C(=O)N1Cc2cc([101O:1][101CH2:1]CCCCN3CCC([100N:0](C)[100C:0](=O)N4CCCC(n5nc(-c6ccc(Oc7ccc(F)cc7F)cc6)c(C(N)=O)c5N)C4)CC3)ccc2CC1C(=O)NC1CCCc2ccccc21)C(C)(C)C

> <Shape>
0.269

> <Color>
0.091

> <Negative vol penalty>
0.000

$$$$

  -OEChem-04052320133D

 81 89  0     1  0  0  0  0  0999 V2000
  -23.2597  -10.7343   20.5451 C   0  0  0  0  0  0  0  0  0  0  0  0
  -24.5268  -10.9583   21.0740 C   0  0  0  0  0  0  0  0  0  0  0  0
  -22.4835  -28.8714   20.7630 C   0  0  0  0  0  0  0  0  0  0  0  0
  -23.5006  -27.9635   22.7575 C   0  0  0  0  0  0  0  0  0  0  0  0
  -22.7222  -11.6312   19.6228 C   0  0  0  0  0  0  0  0  0  0  0  0
  -25.2576  -12.0786   20.6801 C   0  0  0  0  0  0  0  0  0  0  0  0
  -30.0150  -16.8079   23.1936 C   0  0  0  0  0  0  0  0  0  0  0  0
  -21.2556  -28.9413   21.4209 C   0  0  0  0  0  0  0  0  0  0  0  0
  -22.2727  -28.0334   23.4155 C   0  0  0  0  0  0  0  0  0  0  0  0
  -31.2591  -17.3540   22.8810 C   0  0  0  0  0  0  0  0  0  0  0  0
  -19.7416  -30.9725   23.6603 C   0  0  0  0  0  0  0  0  0  0  0  0
  -18.9952  -32.1422   23.5173 C   0  0  0  0  0  0  0  0  0  0  0  0
  -30.1970  -18.8770   21.3410 C   0  0  0  0  0  0  0  0  0  0  0  0
  -17.1860  -30.8689   22.5463 C   0  0  0  0  0  0  0  0  0  0  0  0
  -23.6061  -28.3825   21.4312 C   0  0  0  0  0  0  0  0  0  0  0  0
  -25.8688  -29.3048   20.6984 C   0  0  0  0  0  0  0  0  0  0  0  0
  -23.4427  -12.7682   19.2246 C   0  0  0  0  0  0  0  0  0  0  0  0
  -28.8517  -17.2857   22.5731 C   0  0  0  0  0  0  0  0  0  0  0  0
  -24.7297  -12.9908   19.7506 C   0  0  0  0  0  0  0  0  0  0  0  0
  -28.9390  -18.3370   21.6494 C   0  0  0  0  0  0  0  0  0  0  0  0
  -21.1502  -28.5223   22.7471 C   0  0  0  0  0  0  0  0  0  0  0  0
  -31.3506  -18.3867   21.9524 C   0  0  0  0  0  0  0  0  0  0  0  0
  -19.2102  -29.7511   23.2462 C   0  0  0  0  0  0  0  0  0  0  0  0
  -17.7174  -32.0904   22.9603 C   0  0  0  0  0  0  0  0  0  0  0  0
  -17.9324  -29.6993   22.6893 C   0  0  0  0  0  0  0  0  0  0  0  0
  -24.8747  -28.3095   20.7520 C   0  0  0  0  0  0  0  0  0  0  0  0
  -26.8688  -28.7507   19.9372 C   0  0  0  0  0  0  0  0  0  0  0  0
  -35.2384  -19.8823   20.9820 C   0  0  0  0  0  0  0  0  0  0  0  0
  -25.8867  -30.6133   21.2843 C   0  0  0  0  0  0  0  0  0  0  0  0
  -34.7773  -21.0234   20.4390 C   0  0  0  0  0  0  0  0  0  0  0  0
  -26.6360  -16.0165   20.6802 C   0  0  0  0  0  0  0  0  0  0  0  0
  -25.1976  -18.8956   21.0854 C   0  0  0  0  0  0  0  0  0  0  0  0
  -25.5107  -22.2116   21.8289 C   0  0  0  0  0  0  0  0  0  0  0  0
  -30.1619  -24.5470   18.7408 C   0  0  0  0  0  0  0  0  0  0  0  0
  -22.8396  -13.6841   18.1892 C   0  0  0  0  0  0  0  0  0  0  0  0
  -27.5143  -16.7041   22.9411 C   0  0  0  0  0  0  0  0  0  0  0  0
  -27.7179  -18.8995   20.9703 C   0  0  0  0  0  0  0  0  0  0  0  0
  -23.5248  -15.0457   18.1072 C   0  0  0  0  0  0  0  0  0  0  0  0
  -26.9234  -24.5458   17.1253 C   0  0  0  0  0  0  0  0  0  0  0  0
  -25.0410  -14.8796   18.0829 C   0  0  0  0  0  0  0  0  0  0  0  0
  -26.1822  -25.6158   17.9289 C   0  0  0  0  0  0  0  0  0  0  0  0
  -27.8408  -23.7183   18.0208 C   0  0  0  0  0  0  0  0  0  0  0  0
  -28.0864  -25.5890   19.6062 C   0  0  0  0  0  0  0  0  0  0  0  0
  -33.9726  -21.5956   18.2315 C   0  0  0  0  0  0  0  0  0  0  0  0
  -32.5741  -21.7626   19.7702 C   0  0  0  0  0  0  0  0  0  0  0  0
  -25.5430  -14.2079   19.3667 C   0  0  1  0  0  0  0  0  0  0  0  0
  -26.4529  -16.9199   21.8667 C   0  0  1  0  0  0  0  0  0  0  0  0
  -32.4826  -21.9999   18.2473 C   0  0  0  0  0  0  0  0  0  0  0  0
  -27.1594  -26.4744   18.7536 C   0  0  2  0  0  0  0  0  0  0  0  0
  -35.2769  -22.4082   20.7107 C   0  0  0  0  0  0  0  0  0  0  0  0
  -24.1637  -24.3180   22.0434 C   0  0  0  0  0  0  0  0  0  0  0  0
  -25.0595  -19.1140   18.0451 C   0  0  0  0  0  0  0  0  0  0  0  0
  -24.6066  -21.5619   18.3112 C   0  0  0  0  0  0  0  0  0  0  0  0
  -23.0051  -19.8907   19.2412 C   0  0  0  0  0  0  0  0  0  0  0  0
  -26.2222  -22.5133   24.6857 C   0  0  0  0  0  0  0  0  0  0  0  0
  -34.7485  -18.4840   20.7203 C   0  0  0  0  0  0  0  0  0  0  0  0
  -32.1493  -23.4044   17.7913 C   0  0  0  0  0  0  0  0  0  0  0  0
  -33.6959  -18.0571   21.7360 C   0  0  0  0  0  0  0  0  0  1  0  0
  -25.2432  -20.2237   20.3691 C   0  0  1  0  0  0  0  0  0  0  0  0
  -24.7318  -23.1102   22.7724 C   0  0  2  0  0  0  0  0  0  0  0  0
  -24.5020  -20.1859   19.0028 C   0  0  0  0  0  0  0  0  0  0  0  0
  -25.2123  -27.2066   20.0784 N   0  0  0  0  0  0  0  0  0  0  0  0
  -26.4298  -27.5057   19.5942 N   0  0  0  0  0  0  0  0  0  0  0  0
  -26.4338  -18.2932   21.3589 N   0  0  0  0  0  0  0  0  0  0  0  0
  -28.7581  -24.5939   18.7638 N   0  0  0  0  0  0  0  0  0  0  0  0
  -28.0719  -29.2118   19.5345 N   0  0  0  0  0  0  0  0  0  0  0  0
  -24.7773  -31.0239   22.0360 N   0  0  0  0  0  0  0  0  0  0  0  0
  -25.5750  -15.1600   20.4561 N   0  0  0  0  0  0  0  0  0  0  0  0
  -24.7187  -21.2111   21.3063 N   0  0  0  0  0  0  0  0  0  0  0  0
  -30.7190  -23.5714   17.9232 N   0  0  0  0  0  0  0  0  0  0  0  0
  -33.7217  -20.8766   19.4955 N   0  3  0  0  0  0  0  0  0  0  0  0
  -25.6137  -23.5963   23.8710 N   0  3  0  0  0  0  0  0  0  0  0  0
  -26.8506  -31.4013   21.1317 O   0  0  0  0  0  0  0  0  0  0  0  0
  -27.6631  -16.0920   20.0161 O   0  0  0  0  0  0  0  0  0  0  0  0
  -24.1056  -18.4139   21.3973 O   0  0  0  0  0  0  0  0  0  0  0  0
  -26.7015  -22.3824   21.5776 O   0  0  0  0  0  0  0  0  0  0  0  0
  -30.8672  -25.3212   19.3966 O   0  0  0  0  0  0  0  0  0  0  0  0
  -19.9522  -28.5906   23.3895 O   0  0  0  0  0  0  0  0  0  0  0  0
  -32.5638  -18.9210   21.6450 O   0  0  0  0  0  0  0  0  0  1  0  0
  -17.0001  -33.2134   22.8245 F   0  0  0  0  0  0  0  0  0  0  0  0
  -17.4161  -28.5286   22.2908 F   0  0  0  0  0  0  0  0  0  0  0  0
  1  2  1  0  0  0  0
  1  5  2  0  0  0  0
  2  6  2  0  0  0  0
  3  8  2  0  0  0  0
  3 15  1  0  0  0  0
  4  9  1  0  0  0  0
  4 15  2  0  0  0  0
  5 17  1  0  0  0  0
  6 19  1  0  0  0  0
  7 10  2  0  0  0  0
  7 18  1  0  0  0  0
  8 21  1  0  0  0  0
  9 21  2  0  0  0  0
 10 22  1  0  0  0  0
 11 12  2  0  0  0  0
 11 23  1  0  0  0  0
 12 24  1  0  0  0  0
 13 20  1  0  0  0  0
 13 22  2  0  0  0  0
 14 24  2  0  0  0  0
 14 25  1  0  0  0  0
 15 26  1  0  0  0  0
 16 26  1  0  0  0  0
 16 27  2  0  0  0  0
 16 29  1  0  0  0  0
 17 19  2  0  0  0  0
 17 35  1  0  0  0  0
 18 20  2  0  0  0  0
 18 36  1  0  0  0  0
 19 46  1  0  0  0  0
 20 37  1  0  0  0  0
 21 78  1  0  0  0  0
 22 79  1  0  0  0  0
 23 25  2  0  0  0  0
 23 78  1  0  0  0  0
 24 80  1  0  0  0  0
 25 81  1  0  0  0  0
 26 62  2  0  0  0  0
 27 63  1  0  0  0  0
 27 66  1  0  0  0  0
 28 30  2  0  0  0  0
 28 56  1  0  0  0  0
 29 67  1  0  0  0  0
 29 73  2  0  0  0  0
 30 50  1  0  0  0  0
 30 71  1  0  0  0  0
 31 47  1  0  0  0  0
 31 68  1  0  0  0  0
 31 74  2  0  0  0  0
 32 59  1  0  0  0  0
 32 64  1  0  0  0  0
 32 75  2  0  0  0  0
 33 60  1  0  0  0  0
 33 69  1  0  0  0  0
 33 76  2  0  0  0  0
 34 65  1  0  0  0  0
 34 70  1  0  0  0  0
 34 77  2  0  0  0  0
 35 38  1  0  0  0  0
 36 47  1  0  0  0  0
 37 64  1  0  0  0  0
 38 40  1  0  0  0  0
 39 41  1  0  0  0  0
 39 42  1  0  0  0  0
 40 46  1  0  0  0  0
 41 49  1  0  0  0  0
 42 65  1  0  0  0  0
 43 49  1  0  0  0  0
 43 65  1  0  0  0  0
 44 48  1  0  0  0  0
 44 71  1  0  0  0  0
 45 48  1  0  0  0  0
 45 71  1  0  0  0  0
 46 68  1  0  0  0  0
 47 64  1  0  0  0  0
 48 57  1  0  0  0  0
 49 63  1  0  0  0  0
 51 60  1  0  0  0  0
 52 61  1  0  0  0  0
 53 61  1  0  0  0  0
 54 61  1  0  0  0  0
 55 72  1  0  0  0  0
 56 58  1  0  0  0  0
 57 70  1  0  0  0  0
 58 79  1  0  0  0  0
 59 61  1  0  0  0  0
 59 69  1  0  0  0  0
 60 72  1  0  0  0  0
 62 63  1  0  0  0  0
M  CHG  2  71   1  72   1
M  ISO  4  34 100  58 101  70 100  79 101
M  END
> <Batch ID>
0116

> <Smiles>
CNC(C)C(=O)NC(C(=O)N1Cc2cc([101O:1][101CH2:1]CC=C(C)N3CC(C[100NH:0][100C:0](=O)N4CCCC(n5nc(-c6ccc(Oc7ccc(F)cc7F)cc6)c(C(N)=O)c5N)C4)C3)ccc2CC1C(=O)NC1CCCc2ccccc21)C(C)(C)C

> <Shape>
0.210

> <Color>
0.058

> <Negative vol penalty>
0.000

$$$$

  -OEChem-04052320133D

 84 93  0     1  0  0  0  0  0999 V2000
  -26.4281  -30.8199   24.7169 C   0  0  0  0  0  0  0  0  0  0  0  0
  -26.8204  -30.1012   25.8416 C   0  0  0  0  0  0  0  0  0  0  0  0
  -23.1659   -9.8471   19.9197 C   0  0  0  0  0  0  0  0  0  0  0  0
  -23.8367   -9.9059   22.2400 C   0  0  0  0  0  0  0  0  0  0  0  0
  -25.9250  -30.1491   23.6029 C   0  0  0  0  0  0  0  0  0  0  0  0
  -26.7088  -28.7113   25.8534 C   0  0  0  0  0  0  0  0  0  0  0  0
  -32.1577  -23.2672   27.1570 C   0  0  0  0  0  0  0  0  0  0  0  0
  -22.4407   -8.6800   20.1589 C   0  0  0  0  0  0  0  0  0  0  0  0
  -23.1114   -8.7387   22.4792 C   0  0  0  0  0  0  0  0  0  0  0  0
  -33.0655  -22.2095   27.2150 C   0  0  0  0  0  0  0  0  0  0  0  0
  -19.8824   -7.8713   22.9706 C   0  0  0  0  0  0  0  0  0  0  0  0
  -19.0821   -7.8299   24.1123 C   0  0  0  0  0  0  0  0  0  0  0  0
  -31.6001  -20.8624   25.8417 C   0  0  0  0  0  0  0  0  0  0  0  0
  -20.3400   -5.9342   24.9252 C   0  0  0  0  0  0  0  0  0  0  0  0
  -23.8641  -10.4601   20.9602 C   0  0  0  0  0  0  0  0  0  0  0  0
  -24.1501  -12.9908   20.8144 C   0  0  0  0  0  0  0  0  0  0  0  0
  -25.8163  -28.7496   23.5974 C   0  0  0  0  0  0  0  0  0  0  0  0
  -30.9733  -23.1317   26.4274 C   0  0  0  0  0  0  0  0  0  0  0  0
  -26.2026  -28.0213   24.7387 C   0  0  0  0  0  0  0  0  0  0  0  0
  -30.6928  -21.9228   25.7696 C   0  0  0  0  0  0  0  0  0  0  0  0
  -22.4134   -8.1257   21.4386 C   0  0  0  0  0  0  0  0  0  0  0  0
  -32.7872  -21.0101   26.5592 C   0  0  0  0  0  0  0  0  0  0  0  0
  -20.9114   -6.9441   22.8061 C   0  0  0  0  0  0  0  0  0  0  0  0
  -19.3110   -6.8614   25.0896 C   0  0  0  0  0  0  0  0  0  0  0  0
  -21.1402   -5.9755   23.7835 C   0  0  0  0  0  0  0  0  0  0  0  0
  -24.6139  -11.6655   20.7136 C   0  0  0  0  0  0  0  0  0  0  0  0
  -25.2373  -13.7613   20.4814 C   0  0  0  0  0  0  0  0  0  0  0  0
  -22.8525  -13.4815   21.1766 C   0  0  0  0  0  0  0  0  0  0  0  0
  -35.0310  -17.1386   23.7288 C   0  0  0  0  0  0  0  0  0  0  0  0
  -27.7791  -24.7215   25.2675 C   0  0  0  0  0  0  0  0  0  0  0  0
  -28.8832  -23.1110   22.9016 C   0  0  0  0  0  0  0  0  0  0  0  0
  -30.6466  -21.5665   20.4232 C   0  0  0  0  0  0  0  0  0  0  0  0
  -30.5569  -14.9471   20.9735 C   0  0  0  0  0  0  0  0  0  0  0  0
  -25.2224  -28.0724   22.3877 C   0  0  0  0  0  0  0  0  0  0  0  0
  -29.9382  -24.2230   26.3883 C   0  0  0  0  0  0  0  0  0  0  0  0
  -29.3903  -21.8102   25.0255 C   0  0  0  0  0  0  0  0  0  0  0  0
  -25.4868  -26.5697   22.3398 C   0  0  0  0  0  0  0  0  0  0  0  0
  -29.6992  -12.4721   18.4763 C   0  0  0  0  0  0  0  0  0  0  0  0
  -25.2013  -25.9339   23.6966 C   0  0  0  0  0  0  0  0  0  0  0  0
  -28.2508  -12.1519   18.8504 C   0  0  0  0  0  0  0  0  0  0  0  0
  -34.0885  -17.6830   27.2455 C   0  0  0  0  0  0  0  0  0  0  0  0
  -33.5566  -16.7201   19.7106 C   0  0  0  0  0  0  0  0  0  0  0  0
  -33.3587  -16.1545   22.1671 C   0  0  0  0  0  0  0  0  0  0  0  0
  -30.5523  -12.7066   19.7194 C   0  0  0  0  0  0  0  0  0  0  0  0
  -35.1534  -17.4015   26.1950 C   0  0  0  0  0  0  0  0  0  0  0  0
  -28.5856  -13.4454   21.0078 C   0  0  0  0  0  0  0  0  0  0  0  0
  -33.1666  -18.2004   25.0926 C   0  0  0  0  0  0  0  0  0  0  0  0
  -34.3986  -17.9359   20.0687 C   0  0  0  0  0  0  0  0  0  0  0  0
  -26.1201  -26.5108   24.7804 C   0  0  1  0  0  0  0  0  0  0  0  0
  -34.2057  -17.3782   22.5074 C   0  0  2  0  0  0  0  0  0  0  0  0
  -29.2037  -24.3100   25.0384 C   0  0  1  0  0  0  0  0  0  0  0  0
  -27.6664  -13.2201   19.7935 C   0  0  2  0  0  0  0  0  0  0  0  0
  -32.6038  -16.3441   20.8484 C   0  0  2  0  0  0  0  0  0  0  0  0
  -33.1530  -18.6636   26.5436 C   0  0  2  0  0  0  0  0  0  1  0  0
  -30.5258  -20.9936   17.9830 C   0  0  0  0  0  0  0  0  0  0  0  0
  -26.9053  -20.8752   23.5282 C   0  0  0  0  0  0  0  0  0  0  0  0
  -27.5496  -19.7949   21.3634 C   0  0  0  0  0  0  0  0  0  0  0  0
  -26.4944  -22.0553   21.3618 C   0  0  0  0  0  0  0  0  0  0  0  0
  -33.0732  -23.1471   19.8131 C   0  0  0  0  0  0  0  0  0  0  0  0
  -28.8828  -21.8030   22.1517 C   0  0  1  0  0  0  0  0  0  0  0  0
  -31.0000  -22.0061   19.0139 C   0  0  2  0  0  0  0  0  0  0  0  0
  -27.4777  -21.1379   22.1210 C   0  0  0  0  0  0  0  0  0  0  0  0
  -25.8959  -11.5944   20.3453 N   0  0  0  0  0  0  0  0  0  0  0  0
  -26.2468  -12.8848   20.2117 N   0  0  0  0  0  0  0  0  0  0  0  0
  -34.4693  -17.5593   24.9213 N   0  0  0  0  0  0  0  0  0  0  0  0
  -29.1295  -23.0506   24.2786 N   0  0  0  0  0  0  0  0  0  0  0  0
  -29.9509  -13.7474   20.5651 N   0  0  0  0  0  0  0  0  0  0  0  0
  -25.4186  -15.0963   20.3960 N   0  0  0  0  0  0  0  0  0  0  0  0
  -21.8503  -12.5530   21.4891 N   0  0  0  0  0  0  0  0  0  0  0  0
  -27.4416  -25.9284   24.6853 N   0  0  0  0  0  0  0  0  0  0  0  0
  -29.4378  -22.0883   20.8330 N   0  0  0  0  0  0  0  0  0  0  0  0
  -31.8528  -15.1537   20.5168 N   0  0  0  0  0  0  0  0  0  0  0  0
  -35.1136  -17.6795   21.3546 N   0  3  0  0  0  0  0  0  0  0  0  0
  -32.4755  -22.1626   18.8748 N   0  3  0  0  0  0  0  0  0  0  0  0
  -22.5850  -14.7067   21.2059 O   0  0  0  0  0  0  0  0  0  0  0  0
  -36.1372  -16.6036   23.6388 O   0  0  0  0  0  0  0  0  0  0  0  0
  -27.0389  -23.9974   25.9228 O   0  0  0  0  0  0  0  0  0  0  0  0
  -28.6658  -24.1588   22.2867 O   0  0  0  0  0  0  0  0  0  0  0  0
  -31.3687  -20.8306   21.0922 O   0  0  0  0  0  0  0  0  0  0  0  0
  -29.9833  -15.7761   21.6883 O   0  0  0  0  0  0  0  0  0  0  0  0
  -21.7055   -6.9869   21.6725 O   0  0  0  0  0  0  0  0  0  0  0  0
  -33.6799  -19.9831   26.6162 O   0  0  0  0  0  0  0  0  0  1  0  0
  -18.5434   -6.8227   26.1867 F   0  0  0  0  0  0  0  0  0  0  0  0
  -22.1281   -5.0828   23.6316 F   0  0  0  0  0  0  0  0  0  0  0  0
  1  2  1  0  0  0  0
  1  5  2  0  0  0  0
  2  6  2  0  0  0  0
  3  8  2  0  0  0  0
  3 15  1  0  0  0  0
  4  9  1  0  0  0  0
  4 15  2  0  0  0  0
  5 17  1  0  0  0  0
  6 19  1  0  0  0  0
  7 10  2  0  0  0  0
  7 18  1  0  0  0  0
  8 21  1  0  0  0  0
  9 21  2  0  0  0  0
 10 22  1  0  0  0  0
 11 12  2  0  0  0  0
 11 23  1  0  0  0  0
 12 24  1  0  0  0  0
 13 20  1  0  0  0  0
 13 22  2  0  0  0  0
 14 24  2  0  0  0  0
 14 25  1  0  0  0  0
 15 26  1  0  0  0  0
 16 26  1  0  0  0  0
 16 27  2  0  0  0  0
 16 28  1  0  0  0  0
 17 19  2  0  0  0  0
 17 34  1  0  0  0  0
 18 20  2  0  0  0  0
 18 35  1  0  0  0  0
 19 49  1  0  0  0  0
 20 36  1  0  0  0  0
 21 81  1  0  0  0  0
 22 82  1  0  0  0  0
 23 25  2  0  0  0  0
 23 81  1  0  0  0  0
 24 83  1  0  0  0  0
 25 84  1  0  0  0  0
 26 63  2  0  0  0  0
 27 64  1  0  0  0  0
 27 68  1  0  0  0  0
 28 69  1  0  0  0  0
 28 75  2  0  0  0  0
 29 50  1  0  0  0  0
 29 65  1  0  0  0  0
 29 76  2  0  0  0  0
 30 51  1  0  0  0  0
 30 70  1  0  0  0  0
 30 77  2  0  0  0  0
 31 60  1  0  0  0  0
 31 66  1  0  0  0  0
 31 78  2  0  0  0  0
 32 61  1  0  0  0  0
 32 71  1  0  0  0  0
 32 79  2  0  0  0  0
 33 67  1  0  0  0  0
 33 72  1  0  0  0  0
 33 80  2  0  0  0  0
 34 37  1  0  0  0  0
 35 51  1  0  0  0  0
 36 66  1  0  0  0  0
 37 39  1  0  0  0  0
 38 40  1  0  0  0  0
 38 44  1  0  0  0  0
 39 49  1  0  0  0  0
 40 52  1  0  0  0  0
 41 45  1  0  0  0  0
 41 54  1  0  0  0  0
 42 48  1  0  0  0  0
 42 53  1  0  0  0  0
 43 50  1  0  0  0  0
 43 53  1  0  0  0  0
 44 67  1  0  0  0  0
 45 65  1  0  0  0  0
 46 52  1  0  0  0  0
 46 67  1  0  0  0  0
 47 54  1  0  0  0  0
 47 65  1  0  0  0  0
 48 73  1  0  0  0  0
 49 70  1  0  0  0  0
 50 73  1  0  0  0  0
 51 66  1  0  0  0  0
 52 64  1  0  0  0  0
 53 72  1  0  0  0  0
 54 82  1  0  0  0  0
 55 61  1  0  0  0  0
 56 62  1  0  0  0  0
 57 62  1  0  0  0  0
 58 62  1  0  0  0  0
 59 74  1  0  0  0  0
 60 62  1  0  0  0  0
 60 71  1  0  0  0  0
 61 74  1  0  0  0  0
 63 64  1  0  0  0  0
M  CHG  2  73   1  74   1
M  ISO  4  33 100  54 101  72 100  82 101
M  END
> <Batch ID>
0116

> <Smiles>
CNC(C)C(=O)NC(C(=O)N1Cc2cc([101O:1][101CH:1]3CCN(C(=O)C4CC([100NH:0][100C:0](=O)N5CCCC(n6nc(-c7ccc(Oc8ccc(F)cc8F)cc7)c(C(N)=O)c6N)C5)CCN4)C3)ccc2CC1C(=O)NC1CCCc2ccccc21)C(C)(C)C

> <Shape>
0.210

> <Color>
0.164

> <Negative vol penalty>
0.000

$$$$

  -OEChem-04052320133D

 85 93  0     1  0  0  0  0  0999 V2000
  -26.8059  -21.0257   23.6061 C   0  0  0  0  0  0  0  0  0  0  0  0
  -26.5277  -20.1877   22.5322 C   0  0  0  0  0  0  0  0  0  0  0  0
  -23.0829  -29.2743   19.8502 C   0  0  0  0  0  0  0  0  0  0  0  0
  -23.2674  -28.4348   22.1082 C   0  0  0  0  0  0  0  0  0  0  0  0
  -26.9374  -20.4915   24.8862 C   0  0  0  0  0  0  0  0  0  0  0  0
  -26.3692  -18.8170   22.7398 C   0  0  0  0  0  0  0  0  0  0  0  0
  -24.8761  -16.1327   18.8968 C   0  0  0  0  0  0  0  0  0  0  0  0
  -21.8808  -29.8996   20.1809 C   0  0  0  0  0  0  0  0  0  0  0  0
  -22.0652  -29.0602   22.4389 C   0  0  0  0  0  0  0  0  0  0  0  0
  -25.7002  -15.8517   17.8080 C   0  0  0  0  0  0  0  0  0  0  0  0
  -18.7601  -28.4863   22.0170 C   0  0  0  0  0  0  0  0  0  0  0  0
  -30.4520  -17.5575   17.2423 C   0  0  0  0  0  0  0  0  0  0  0  0
  -17.8296  -27.7535   22.7538 C   0  0  0  0  0  0  0  0  0  0  0  0
  -30.4249  -18.8226   17.8185 C   0  0  0  0  0  0  0  0  0  0  0  0
  -26.0334  -13.6140   18.6452 C   0  0  0  0  0  0  0  0  0  0  0  0
  -17.9305  -29.4001   24.5189 C   0  0  0  0  0  0  0  0  0  0  0  0
  -23.7762  -28.5418   20.8139 C   0  0  0  0  0  0  0  0  0  0  0  0
  -26.3133  -28.4377   20.5689 C   0  0  0  0  0  0  0  0  0  0  0  0
  -26.7926  -19.1119   25.1068 C   0  0  0  0  0  0  0  0  0  0  0  0
  -24.6327  -15.1582   19.8754 C   0  0  0  0  0  0  0  0  0  0  0  0
  -26.4745  -18.2620   24.0280 C   0  0  0  0  0  0  0  0  0  0  0  0
  -25.2037  -13.8843   19.7441 C   0  0  0  0  0  0  0  0  0  0  0  0
  -21.3719  -29.7926   21.4752 C   0  0  0  0  0  0  0  0  0  0  0  0
  -26.2813  -14.5932   17.6835 C   0  0  0  0  0  0  0  0  0  0  0  0
  -19.2758  -29.6760   22.5312 C   0  0  0  0  0  0  0  0  0  0  0  0
  -30.2934  -16.4316   18.0426 C   0  0  0  0  0  0  0  0  0  0  0  0
  -17.4148  -28.2104   24.0047 C   0  0  0  0  0  0  0  0  0  0  0  0
  -18.8610  -30.1329   23.7822 C   0  0  0  0  0  0  0  0  0  0  0  0
  -25.0178  -27.8952   20.4728 C   0  0  0  0  0  0  0  0  0  0  0  0
  -30.2377  -18.9073   19.1887 C   0  0  0  0  0  0  0  0  0  0  0  0
  -30.1123  -16.6233   19.4029 C   0  0  0  0  0  0  0  0  0  0  0  0
  -27.1399  -27.4329   20.1287 C   0  0  0  0  0  0  0  0  0  0  0  0
  -26.7321  -29.7340   21.0161 C   0  0  0  0  0  0  0  0  0  0  0  0
  -25.2028  -14.9190   22.9934 C   0  0  0  0  0  0  0  0  0  0  0  0
  -23.4733  -12.1900   22.7044 C   0  0  0  0  0  0  0  0  0  0  0  0
  -22.3465   -9.6733   20.6936 C   0  0  0  0  0  0  0  0  0  0  0  0
  -28.6824  -22.1826   20.1677 C   0  0  0  0  0  0  0  0  0  0  0  0
  -26.9375  -18.5883   26.5139 C   0  0  0  0  0  0  0  0  0  0  0  0
  -23.7199  -15.4685   21.0299 C   0  0  0  0  0  0  0  0  0  0  0  0
  -24.9578  -12.7968   20.7567 C   0  0  0  0  0  0  0  0  0  0  0  0
  -27.1925  -17.0854   26.5657 C   0  0  0  0  0  0  0  0  0  0  0  0
  -26.0699  -23.0597   17.8218 C   0  0  0  0  0  0  0  0  0  0  0  0
  -26.1792  -16.3561   25.6962 C   0  0  0  0  0  0  0  0  0  0  0  0
  -25.6707  -24.4508   18.3174 C   0  0  0  0  0  0  0  0  0  0  0  0
  -26.4030  -22.1324   18.9869 C   0  0  0  0  0  0  0  0  0  0  0  0
  -27.0591  -24.0407   20.4016 C   0  0  0  0  0  0  0  0  0  0  0  0
  -26.3281  -16.7640   24.2250 C   0  0  1  0  0  0  0  0  0  0  0  0
  -23.9541  -14.5647   22.2365 C   0  0  1  0  0  0  0  0  0  0  0  0
  -26.7320  -25.0322   19.2702 C   0  0  2  0  0  0  0  0  0  0  0  0
  -28.5670  -15.4433   21.0070 C   0  0  0  0  0  0  0  0  0  0  0  0
  -31.0618  -15.3397   21.3535 C   0  0  0  0  0  0  0  0  0  0  0  0
  -20.9844   -7.5664   20.7505 C   0  0  0  0  0  0  0  0  0  0  0  0
  -25.8022  -10.7229   24.0211 C   0  0  0  0  0  0  0  0  0  0  0  0
  -24.8205   -8.5713   23.1994 C   0  0  0  0  0  0  0  0  0  0  0  0
  -23.5387   -9.9954   24.7967 C   0  0  0  0  0  0  0  0  0  0  0  0
  -20.3724  -10.7600   18.7750 C   0  0  0  0  0  0  0  0  0  0  0  0
  -30.2029  -20.2491   19.8406 C   0  0  0  0  0  0  0  0  0  0  0  0
  -29.2994  -13.6724   15.9072 C   0  0  0  0  0  0  0  0  0  0  0  0
  -28.1295  -13.3646   16.8286 C   0  0  0  0  0  0  0  0  0  1  0  0
  -29.8590  -15.0663   16.1445 C   0  0  0  0  0  0  0  0  0  0  0  0
  -29.9380  -15.4469   20.3066 C   0  0  0  0  0  0  0  0  0  0  0  0
  -23.7955  -10.7476   22.3967 C   0  0  1  0  0  0  0  0  0  0  0  0
  -20.9656   -9.0687   20.5146 C   0  0  2  0  0  0  0  0  0  0  0  0
  -24.4956  -10.0302   23.5852 C   0  0  0  0  0  0  0  0  0  0  0  0
  -25.0164  -26.6430   20.0079 N   0  0  0  0  0  0  0  0  0  0  0  0
  -30.0802  -17.8364   19.9987 N   0  0  0  0  0  0  0  0  0  0  0  0
  -26.3211  -26.3904   19.8079 N   0  0  0  0  0  0  0  0  0  0  0  0
  -24.0630  -13.1509   21.8710 N   0  0  0  0  0  0  0  0  0  0  0  0
  -27.4324  -22.7362   19.8447 N   0  0  0  0  0  0  0  0  0  0  0  0
  -28.4799  -27.3483   19.9886 N   0  0  0  0  0  0  0  0  0  0  0  0
  -25.7527  -30.6452   21.4341 N   0  0  0  0  0  0  0  0  0  0  0  0
  -25.2233  -16.2162   23.4691 N   0  0  0  0  0  0  0  0  0  0  0  0
  -22.5416  -10.1291   21.9803 N   0  0  0  0  0  0  0  0  0  0  0  0
  -28.9556  -20.9418   19.6051 N   0  0  0  0  0  0  0  0  0  0  0  0
  -20.4645   -9.3214   19.1341 N   0  3  0  0  0  0  0  0  0  0  0  0
  -27.9378  -30.0798   21.0287 O   0  0  0  0  0  0  0  0  0  0  0  0
  -26.0819  -14.0774   23.1365 O   0  0  0  0  0  0  0  0  0  0  0  0
  -22.7202  -12.4540   23.6451 O   0  0  0  0  0  0  0  0  0  0  0  0
  -23.1710   -9.7318   19.7841 O   0  0  0  0  0  0  0  0  0  0  0  0
  -29.4977  -22.7545   20.8994 O   0  0  0  0  0  0  0  0  0  0  0  0
  -20.1989  -30.4028   21.7982 O   0  0  0  0  0  0  0  0  0  0  0  0
  -27.0867  -14.3166   16.6220 O   0  0  0  0  0  0  0  0  0  1  0  0
  -30.3183  -15.1800   17.4846 O   0  0  0  0  0  0  0  0  0  0  0  0
  -16.5201  -27.5074   24.7114 F   0  0  0  0  0  0  0  0  0  0  0  0
  -19.3521  -31.2757   24.2808 F   0  0  0  0  0  0  0  0  0  0  0  0
  1  2  1  0  0  0  0
  1  5  2  0  0  0  0
  2  6  2  0  0  0  0
  3  8  2  0  0  0  0
  3 17  1  0  0  0  0
  4  9  1  0  0  0  0
  4 17  2  0  0  0  0
  5 19  1  0  0  0  0
  6 21  1  0  0  0  0
  7 10  2  0  0  0  0
  7 20  1  0  0  0  0
  8 23  1  0  0  0  0
  9 23  2  0  0  0  0
 10 24  1  0  0  0  0
 11 13  2  0  0  0  0
 11 25  1  0  0  0  0
 12 14  2  0  0  0  0
 12 26  1  0  0  0  0
 13 27  1  0  0  0  0
 14 30  1  0  0  0  0
 15 22  1  0  0  0  0
 15 24  2  0  0  0  0
 16 27  2  0  0  0  0
 16 28  1  0  0  0  0
 17 29  1  0  0  0  0
 18 29  1  0  0  0  0
 18 32  2  0  0  0  0
 18 33  1  0  0  0  0
 19 21  2  0  0  0  0
 19 38  1  0  0  0  0
 20 22  2  0  0  0  0
 20 39  1  0  0  0  0
 21 47  1  0  0  0  0
 22 40  1  0  0  0  0
 23 81  1  0  0  0  0
 24 82  1  0  0  0  0
 25 28  2  0  0  0  0
 25 81  1  0  0  0  0
 26 31  2  0  0  0  0
 26 83  1  0  0  0  0
 27 84  1  0  0  0  0
 28 85  1  0  0  0  0
 29 65  2  0  0  0  0
 30 57  1  0  0  0  0
 30 66  2  0  0  0  0
 31 61  1  0  0  0  0
 31 66  1  0  0  0  0
 32 67  1  0  0  0  0
 32 70  1  0  0  0  0
 33 71  1  0  0  0  0
 33 76  2  0  0  0  0
 34 48  1  0  0  0  0
 34 72  1  0  0  0  0
 34 77  2  0  0  0  0
 35 62  1  0  0  0  0
 35 68  1  0  0  0  0
 35 78  2  0  0  0  0
 36 63  1  0  0  0  0
 36 73  1  0  0  0  0
 36 79  2  0  0  0  0
 37 69  1  0  0  0  0
 37 74  1  0  0  0  0
 37 80  2  0  0  0  0
 38 41  1  0  0  0  0
 39 48  1  0  0  0  0
 40 68  1  0  0  0  0
 41 43  1  0  0  0  0
 42 44  1  0  0  0  0
 42 45  1  0  0  0  0
 43 47  1  0  0  0  0
 44 49  1  0  0  0  0
 45 69  1  0  0  0  0
 46 49  1  0  0  0  0
 46 69  1  0  0  0  0
 47 72  1  0  0  0  0
 48 68  1  0  0  0  0
 49 67  1  0  0  0  0
 50 61  1  0  0  0  0
 51 61  1  0  0  0  0
 52 63  1  0  0  0  0
 53 64  1  0  0  0  0
 54 64  1  0  0  0  0
 55 64  1  0  0  0  0
 56 75  1  0  0  0  0
 57 74  1  0  0  0  0
 58 59  1  0  0  0  0
 58 60  1  0  0  0  0
 59 82  1  0  0  0  0
 60 83  1  0  0  0  0
 62 64  1  0  0  0  0
 62 73  1  0  0  0  0
 63 75  1  0  0  0  0
 65 67  1  0  0  0  0
M  CHG  1  75   1
M  ISO  4  37 100  59 101  74 100  82 101
M  END
> <Batch ID>
0116

> <Smiles>
CNC(C)C(=O)NC(C(=O)N1Cc2cc([101O:1][101CH2:1]CCOc3ccc(C[100NH:0][100C:0](=O)N4CCCC(n5nc(-c6ccc(Oc7ccc(F)cc7F)cc6)c(C(N)=O)c5N)C4)nc3C(C)C)ccc2CC1C(=O)NC1CCCc2ccccc21)C(C)(C)C

> <Shape>
0.246

> <Color>
0.051

> <Negative vol penalty>
0.000

$$$$

  -OEChem-04052320133D

 82 91  0     1  0  0  0  0  0999 V2000
  -25.9471  -38.0011   24.0610 C   0  0  0  0  0  0  0  0  0  0  0  0
  -26.6565  -37.2532   23.1267 C   0  0  0  0  0  0  0  0  0  0  0  0
  -26.2778  -13.4054   21.4033 C   0  0  0  0  0  0  0  0  0  0  0  0
  -27.2783  -13.0139   19.2393 C   0  0  0  0  0  0  0  0  0  0  0  0
  -25.2823  -37.3601   25.1055 C   0  0  0  0  0  0  0  0  0  0  0  0
  -26.7024  -35.8639   23.2371 C   0  0  0  0  0  0  0  0  0  0  0  0
  -27.0243  -29.9509   19.2061 C   0  0  0  0  0  0  0  0  0  0  0  0
  -25.8232  -12.0871   21.4316 C   0  0  0  0  0  0  0  0  0  0  0  0
  -26.8236  -11.6955   19.2676 C   0  0  0  0  0  0  0  0  0  0  0  0
  -27.7701  -28.7811   19.0675 C   0  0  0  0  0  0  0  0  0  0  0  0
  -23.2916  -10.2964   20.0867 C   0  0  0  0  0  0  0  0  0  0  0  0
  -21.9760  -10.0739   20.4933 C   0  0  0  0  0  0  0  0  0  0  0  0
  -26.5178  -27.7766   20.8680 C   0  0  0  0  0  0  0  0  0  0  0  0
  -31.0992  -22.7326   18.6897 C   0  0  0  0  0  0  0  0  0  0  0  0
  -30.8193  -24.8739   19.7483 C   0  0  0  0  0  0  0  0  0  0  0  0
  -22.7715   -8.7051   22.3183 C   0  0  0  0  0  0  0  0  0  0  0  0
  -27.0054  -13.8689   20.3071 C   0  0  0  0  0  0  0  0  0  0  0  0
  -28.7055  -15.7166   20.7578 C   0  0  0  0  0  0  0  0  0  0  0  0
  -25.3120  -35.9616   25.2232 C   0  0  0  0  0  0  0  0  0  0  0  0
  -26.0253  -30.0463   20.1856 C   0  0  0  0  0  0  0  0  0  0  0  0
  -26.0384  -35.2037   24.2850 C   0  0  0  0  0  0  0  0  0  0  0  0
  -25.7590  -28.9478   21.0153 C   0  0  0  0  0  0  0  0  0  0  0  0
  -31.4180  -23.6195   19.7119 C   0  0  0  0  0  0  0  0  0  0  0  0
  -26.0961  -11.2321   20.3638 C   0  0  0  0  0  0  0  0  0  0  0  0
  -27.5188  -27.6948   19.9004 C   0  0  0  0  0  0  0  0  0  0  0  0
  -24.3472   -9.7231   20.7958 C   0  0  0  0  0  0  0  0  0  0  0  0
  -21.7160   -9.2783   21.6091 C   0  0  0  0  0  0  0  0  0  0  0  0
  -24.0871   -8.9275   21.9116 C   0  0  0  0  0  0  0  0  0  0  0  0
  -27.4748  -15.2308   20.2769 C   0  0  0  0  0  0  0  0  0  0  0  0
  -30.1828  -23.1448   17.7357 C   0  0  0  0  0  0  0  0  0  0  0  0
  -29.9156  -25.1904   18.7468 C   0  0  0  0  0  0  0  0  0  0  0  0
  -28.6686  -17.0643   20.4959 C   0  0  0  0  0  0  0  0  0  0  0  0
  -29.7856  -15.0124   21.3850 C   0  0  0  0  0  0  0  0  0  0  0  0
  -25.5513  -31.8854   22.7344 C   0  0  0  0  0  0  0  0  0  0  0  0
  -22.6964  -30.3482   22.8284 C   0  0  0  0  0  0  0  0  0  0  0  0
  -20.8603  -27.5937   21.9989 C   0  0  0  0  0  0  0  0  0  0  0  0
  -27.5438  -21.3285   17.0759 C   0  0  0  0  0  0  0  0  0  0  0  0
  -24.6172  -35.3169   26.3964 C   0  0  0  0  0  0  0  0  0  0  0  0
  -25.2116  -31.3057   20.3045 C   0  0  0  0  0  0  0  0  0  0  0  0
  -24.6838  -28.9921   22.0690 C   0  0  0  0  0  0  0  0  0  0  0  0
  -24.4043  -33.8147   26.2278 C   0  0  0  0  0  0  0  0  0  0  0  0
  -24.8484  -20.0245   19.0023 C   0  0  0  0  0  0  0  0  0  0  0  0
  -32.1569  -21.9653   21.5534 C   0  0  0  0  0  0  0  0  0  0  0  0
  -31.9848  -23.2980   22.2126 C   0  0  0  0  0  0  0  0  0  0  0  0
  -25.6822  -33.1469   25.7300 C   0  0  0  0  0  0  0  0  0  0  0  0
  -25.3907  -18.6989   19.5398 C   0  0  0  0  0  0  0  0  0  0  0  0
  -25.3463  -20.3053   17.5863 C   0  0  0  0  0  0  0  0  0  0  0  0
  -27.3533  -18.9246   17.9599 C   0  0  0  0  0  0  0  0  0  0  0  0
  -32.3962  -23.2268   20.7646 C   0  0  0  0  0  0  0  0  0  0  0  0
  -26.0911  -33.6930   24.3567 C   0  0  1  0  0  0  0  0  0  0  0  0
  -24.5668  -31.4730   21.6770 C   0  0  1  0  0  0  0  0  0  0  0  0
  -26.9237  -18.6248   19.4062 C   0  0  2  0  0  0  0  0  0  0  0  0
  -18.5658  -26.6081   22.2459 C   0  0  0  0  0  0  0  0  0  0  0  0
  -23.3183  -29.6336   25.7289 C   0  0  0  0  0  0  0  0  0  0  0  0
  -21.5110  -27.9046   25.6174 C   0  0  0  0  0  0  0  0  0  0  0  0
  -20.9493  -30.3152   25.3073 C   0  0  0  0  0  0  0  0  0  0  0  0
  -20.4417  -27.5396   19.0696 C   0  0  0  0  0  0  0  0  0  0  0  0
  -29.8158  -22.2189   16.6243 C   0  0  0  0  0  0  0  0  0  0  0  0
  -29.2502  -26.5352   18.7543 C   0  0  0  0  0  0  0  0  0  1  0  0
  -22.1834  -29.0846   23.4758 C   0  0  1  0  0  0  0  0  0  0  0  0
  -19.4839  -27.4511   21.3747 C   0  0  2  0  0  0  0  0  0  0  0  0
  -22.0121  -29.2340   25.0139 C   0  0  0  0  0  0  0  0  0  0  0  0
  -26.7117  -16.1918   19.7497 N   0  0  0  0  0  0  0  0  0  0  0  0
  -29.5806  -24.3552   17.7379 N   0  0  0  0  0  0  0  0  0  0  0  0
  -27.4647  -17.2950   19.8978 N   0  0  0  0  0  0  0  0  0  0  0  0
  -23.9196  -30.2479   22.1505 N   0  0  0  0  0  0  0  0  0  0  0  0
  -26.8076  -20.2210   17.5281 N   0  0  0  0  0  0  0  0  0  0  0  0
  -29.5487  -18.0629   20.7213 N   0  0  0  0  0  0  0  0  0  0  0  0
  -29.6594  -13.6299   21.5776 N   0  0  0  0  0  0  0  0  0  0  0  0
  -25.2734  -33.1076   23.3160 N   0  0  0  0  0  0  0  0  0  0  0  0
  -20.9562  -28.7332   22.7693 N   0  0  0  0  0  0  0  0  0  0  0  0
  -28.9237  -21.1669   17.0581 N   0  0  0  0  0  0  0  0  0  0  0  0
  -19.5866  -26.8038   20.0362 N   0  3  0  0  0  0  0  0  0  0  0  0
  -30.8247  -15.5948   21.7783 O   0  0  0  0  0  0  0  0  0  0  0  0
  -26.4926  -31.1484   23.0039 O   0  0  0  0  0  0  0  0  0  0  0  0
  -22.0327  -31.3844   22.9148 O   0  0  0  0  0  0  0  0  0  0  0  0
  -21.7592  -26.7740   21.8238 O   0  0  0  0  0  0  0  0  0  0  0  0
  -27.0110  -22.3851   16.7197 O   0  0  0  0  0  0  0  0  0  0  0  0
  -25.6528   -9.9455   20.3913 O   0  0  0  0  0  0  0  0  0  0  0  0
  -28.2458  -26.5520   19.7677 O   0  0  0  0  0  0  0  0  0  1  0  0
  -20.4526   -9.0661   22.0004 F   0  0  0  0  0  0  0  0  0  0  0  0
  -25.0971   -8.3751   22.5975 F   0  0  0  0  0  0  0  0  0  0  0  0
  1  2  1  0  0  0  0
  1  5  2  0  0  0  0
  2  6  2  0  0  0  0
  3  8  2  0  0  0  0
  3 17  1  0  0  0  0
  4  9  1  0  0  0  0
  4 17  2  0  0  0  0
  5 19  1  0  0  0  0
  6 21  1  0  0  0  0
  7 10  2  0  0  0  0
  7 20  1  0  0  0  0
  8 24  1  0  0  0  0
  9 24  2  0  0  0  0
 10 25  1  0  0  0  0
 11 12  2  0  0  0  0
 11 26  1  0  0  0  0
 12 27  1  0  0  0  0
 13 22  1  0  0  0  0
 13 25  2  0  0  0  0
 14 23  1  0  0  0  0
 14 30  2  0  0  0  0
 15 23  2  0  0  0  0
 15 31  1  0  0  0  0
 16 27  2  0  0  0  0
 16 28  1  0  0  0  0
 17 29  1  0  0  0  0
 18 29  1  0  0  0  0
 18 32  2  0  0  0  0
 18 33  1  0  0  0  0
 19 21  2  0  0  0  0
 19 38  1  0  0  0  0
 20 22  2  0  0  0  0
 20 39  1  0  0  0  0
 21 50  1  0  0  0  0
 22 40  1  0  0  0  0
 23 49  1  0  0  0  0
 24 79  1  0  0  0  0
 25 80  1  0  0  0  0
 26 28  2  0  0  0  0
 26 79  1  0  0  0  0
 27 81  1  0  0  0  0
 28 82  1  0  0  0  0
 29 63  2  0  0  0  0
 30 58  1  0  0  0  0
 30 64  1  0  0  0  0
 31 59  1  0  0  0  0
 31 64  2  0  0  0  0
 32 65  1  0  0  0  0
 32 68  1  0  0  0  0
 33 69  1  0  0  0  0
 33 74  2  0  0  0  0
 34 51  1  0  0  0  0
 34 70  1  0  0  0  0
 34 75  2  0  0  0  0
 35 60  1  0  0  0  0
 35 66  1  0  0  0  0
 35 76  2  0  0  0  0
 36 61  1  0  0  0  0
 36 71  1  0  0  0  0
 36 77  2  0  0  0  0
 37 67  1  0  0  0  0
 37 72  1  0  0  0  0
 37 78  2  0  0  0  0
 38 41  1  0  0  0  0
 39 51  1  0  0  0  0
 40 66  1  0  0  0  0
 41 45  1  0  0  0  0
 42 46  1  0  0  0  0
 42 47  1  0  0  0  0
 43 44  1  0  0  0  0
 43 49  1  0  0  0  0
 44 49  1  0  0  0  0
 45 50  1  0  0  0  0
 46 52  1  0  0  0  0
 47 67  1  0  0  0  0
 48 52  1  0  0  0  0
 48 67  1  0  0  0  0
 50 70  1  0  0  0  0
 51 66  1  0  0  0  0
 52 65  1  0  0  0  0
 53 61  1  0  0  0  0
 54 62  1  0  0  0  0
 55 62  1  0  0  0  0
 56 62  1  0  0  0  0
 57 73  1  0  0  0  0
 58 72  1  0  0  0  0
 59 80  1  0  0  0  0
 60 62  1  0  0  0  0
 60 71  1  0  0  0  0
 61 73  1  0  0  0  0
 63 65  1  0  0  0  0
M  CHG  1  73   1
M  ISO  4  37 100  59 101  72 100  80 101
M  END
> <Batch ID>
0116

> <Smiles>
CNC(C)C(=O)NC(C(=O)N1Cc2cc([101O:1][101CH2:1]c3cc(C4CC4)cc(C[100NH:0][100C:0](=O)N4CCCC(n5nc(-c6ccc(Oc7ccc(F)cc7F)cc6)c(C(N)=O)c5N)C4)n3)ccc2CC1C(=O)NC1CCCc2ccccc21)C(C)(C)C

> <Shape>
0.336

> <Color>
0.086

> <Negative vol penalty>
0.000

$$$$

  -OEChem-04052320133D

 89 98  0     1  0  0  0  0  0999 V2000
  -28.6274  -38.3615   21.8542 C   0  0  0  0  0  0  0  0  0  0  0  0
  -29.0692  -37.1220   21.4027 C   0  0  0  0  0  0  0  0  0  0  0  0
  -22.2625   -9.9142   20.8555 C   0  0  0  0  0  0  0  0  0  0  0  0
  -23.2648   -9.4186   22.9972 C   0  0  0  0  0  0  0  0  0  0  0  0
  -27.6702  -38.4332   22.8654 C   0  0  0  0  0  0  0  0  0  0  0  0
  -28.5548  -35.9533   21.9631 C   0  0  0  0  0  0  0  0  0  0  0  0
  -27.5165  -30.6427   19.0952 C   0  0  0  0  0  0  0  0  0  0  0  0
  -22.1613   -8.5492   20.5870 C   0  0  0  0  0  0  0  0  0  0  0  0
  -23.1635   -8.0536   22.7287 C   0  0  0  0  0  0  0  0  0  0  0  0
  -28.2516  -29.4608   19.0146 C   0  0  0  0  0  0  0  0  0  0  0  0
  -20.7647   -5.6743   22.7980 C   0  0  0  0  0  0  0  0  0  0  0  0
  -20.2868   -4.8488   23.8158 C   0  0  0  0  0  0  0  0  0  0  0  0
  -26.9462  -28.5330   20.8186 C   0  0  0  0  0  0  0  0  0  0  0  0
  -29.2856  -22.1692   20.2366 C   0  0  0  0  0  0  0  0  0  0  0  0
  -31.1522  -21.8637   18.7336 C   0  0  0  0  0  0  0  0  0  0  0  0
  -22.3589   -3.6069   23.7814 C   0  0  0  0  0  0  0  0  0  0  0  0
  -22.8143  -10.3489   22.0606 C   0  0  0  0  0  0  0  0  0  0  0  0
  -21.9640  -12.5737   22.9743 C   0  0  0  0  0  0  0  0  0  0  0  0
  -27.1367  -37.2647   23.4317 C   0  0  0  0  0  0  0  0  0  0  0  0
  -26.4962  -30.7828   20.0470 C   0  0  0  0  0  0  0  0  0  0  0  0
  -27.5906  -36.0094   22.9838 C   0  0  0  0  0  0  0  0  0  0  0  0
  -26.1979  -29.7167   20.9075 C   0  0  0  0  0  0  0  0  0  0  0  0
  -30.4912  -22.6214   19.7003 C   0  0  0  0  0  0  0  0  0  0  0  0
  -28.7411  -20.9592   19.8064 C   0  0  0  0  0  0  0  0  0  0  0  0
  -30.6078  -20.6537   18.3033 C   0  0  0  0  0  0  0  0  0  0  0  0
  -29.4022  -20.2015   18.8397 C   0  0  0  0  0  0  0  0  0  0  0  0
  -22.6118   -7.6189   21.5236 C   0  0  0  0  0  0  0  0  0  0  0  0
  -27.9684  -28.4068   19.8783 C   0  0  0  0  0  0  0  0  0  0  0  0
  -22.0396   -5.4660   22.2719 C   0  0  0  0  0  0  0  0  0  0  0  0
  -21.0839   -3.8152   24.3075 C   0  0  0  0  0  0  0  0  0  0  0  0
  -22.8367   -4.4323   22.7636 C   0  0  0  0  0  0  0  0  0  0  0  0
  -22.9196  -11.7588   22.3383 C   0  0  0  0  0  0  0  0  0  0  0  0
  -22.5369  -13.8218   22.9959 C   0  0  0  0  0  0  0  0  0  0  0  0
  -20.6738  -12.2329   23.4987 C   0  0  0  0  0  0  0  0  0  0  0  0
  -25.9846  -32.7143   22.5191 C   0  0  0  0  0  0  0  0  0  0  0  0
  -23.1106  -31.2123   22.5986 C   0  0  0  0  0  0  0  0  0  0  0  0
  -21.2623  -28.4508   21.8213 C   0  0  0  0  0  0  0  0  0  0  0  0
  -25.6643  -16.7374   19.0274 C   0  0  0  0  0  0  0  0  0  0  0  0
  -26.1387  -37.3928   24.5552 C   0  0  0  0  0  0  0  0  0  0  0  0
  -25.6947  -32.0544   20.1033 C   0  0  0  0  0  0  0  0  0  0  0  0
  -25.0991  -29.8092   21.9334 C   0  0  0  0  0  0  0  0  0  0  0  0
  -25.3691  -36.1047   24.8360 C   0  0  0  0  0  0  0  0  0  0  0  0
  -27.2453  -15.3848   22.1097 C   0  0  0  0  0  0  0  0  0  0  0  0
  -26.3219  -34.9148   24.8911 C   0  0  0  0  0  0  0  0  0  0  0  0
  -26.2322  -14.2384   22.2106 C   0  0  0  0  0  0  0  0  0  0  0  0
  -26.7224  -16.5734   21.3050 C   0  0  0  0  0  0  0  0  0  0  0  0
  -29.1973  -17.7355   19.0864 C   0  0  0  0  0  0  0  0  0  0  0  0
  -28.1952  -16.6343   18.7243 C   0  0  0  0  0  0  0  0  0  0  0  0
  -24.5315  -15.5217   20.8424 C   0  0  0  0  0  0  0  0  0  0  0  0
  -28.1602  -18.8702   17.1310 C   0  0  0  0  0  0  0  0  0  0  0  0
  -27.0383  -34.7190   23.5495 C   0  0  1  0  0  0  0  0  0  0  0  0
  -25.0201  -32.2762   21.4535 C   0  0  1  0  0  0  0  0  0  0  0  0
  -24.7892  -14.7669   22.1613 C   0  0  1  0  0  0  0  0  0  0  0  0
  -26.8113  -18.1504   17.3322 C   0  0  1  0  0  0  0  0  0  0  0  0
  -27.4490  -20.5003   20.4004 C   0  0  0  0  0  0  0  0  0  0  0  0
  -31.3386  -19.8633   17.2669 C   0  0  0  0  0  0  0  0  0  0  0  0
  -26.3878  -17.4788   16.0214 C   0  0  0  0  0  0  0  0  0  0  0  0
  -18.9513  -27.4993   22.0479 C   0  0  0  0  0  0  0  0  0  0  0  0
  -23.6566  -30.5921   25.5358 C   0  0  0  0  0  0  0  0  0  0  0  0
  -21.8323  -28.8800   25.4413 C   0  0  0  0  0  0  0  0  0  0  0  0
  -21.3062  -31.2843   25.0352 C   0  0  0  0  0  0  0  0  0  0  0  0
  -20.9112  -28.2996   18.8865 C   0  0  0  0  0  0  0  0  0  0  0  0
  -31.0726  -23.9156   20.1604 C   0  0  0  0  0  0  0  0  0  0  0  0
  -30.0378  -27.3550   19.3609 C   0  0  0  0  0  0  0  0  0  1  0  0
  -30.8590  -26.2503   19.9970 C   0  0  0  0  0  0  0  0  0  0  0  0
  -22.5680  -29.9776   23.2767 C   0  0  1  0  0  0  0  0  0  0  0  0
  -19.8992  -28.3016   21.1700 C   0  0  2  0  0  0  0  0  0  0  0  0
  -22.3628  -30.1821   24.8043 C   0  0  0  0  0  0  0  0  0  0  0  0
  -24.0163  -12.4326   21.9815 N   0  0  0  0  0  0  0  0  0  0  0  0
  -23.7533  -13.6841   22.3947 N   0  0  0  0  0  0  0  0  0  0  0  0
  -28.8595  -18.9949   18.4111 N   0  0  3  0  0  0  0  0  0  0  0  0
  -24.3479  -31.0753   21.9536 N   0  0  0  0  0  0  0  0  0  0  0  0
  -25.7331  -16.1678   20.3067 N   0  0  0  0  0  0  0  0  0  0  0  0
  -26.8641  -17.1910   18.4533 N   0  0  0  0  0  0  0  0  0  0  0  0
  -22.1137  -15.0127   23.4704 N   0  0  0  0  0  0  0  0  0  0  0  0
  -20.2396  -10.9045   23.3937 N   0  0  0  0  0  0  0  0  0  0  0  0
  -26.1568  -34.0833   22.5938 N   0  0  0  0  0  0  0  0  0  0  0  0
  -21.3536  -29.6152   22.5540 N   0  0  0  0  0  0  0  0  0  0  0  0
  -20.0254  -27.6072   19.8575 N   0  3  0  0  0  0  0  0  0  0  0  0
  -19.9213  -13.0846   24.0295 O   0  0  0  0  0  0  0  0  0  0  0  0
  -26.5310  -31.8726   23.2225 O   0  0  0  0  0  0  0  0  0  0  0  0
  -22.4572  -32.2580   22.6336 O   0  0  0  0  0  0  0  0  0  0  0  0
  -22.1554  -27.6158   21.6957 O   0  0  0  0  0  0  0  0  0  0  0  0
  -24.5838  -16.8171   18.4288 O   0  0  0  0  0  0  0  0  0  0  0  0
  -22.5129   -6.2868   21.2620 O   0  0  0  0  0  0  0  0  0  0  0  0
  -28.6898  -27.2444   19.8017 O   0  0  0  0  0  0  0  0  0  1  0  0
  -30.3412  -24.9923   19.5870 O   0  0  0  0  0  0  0  0  0  0  0  0
  -20.6254   -3.0236   25.2860 F   0  0  0  0  0  0  0  0  0  0  0  0
  -24.0629   -4.2281   22.2629 F   0  0  0  0  0  0  0  0  0  0  0  0
  1  2  1  0  0  0  0
  1  5  2  0  0  0  0
  2  6  2  0  0  0  0
  3  8  2  0  0  0  0
  3 17  1  0  0  0  0
  4  9  1  0  0  0  0
  4 17  2  0  0  0  0
  5 19  1  0  0  0  0
  6 21  1  0  0  0  0
  7 10  2  0  0  0  0
  7 20  1  0  0  0  0
  8 27  1  0  0  0  0
  9 27  2  0  0  0  0
 10 28  1  0  0  0  0
 11 12  2  0  0  0  0
 11 29  1  0  0  0  0
 12 30  1  0  0  0  0
 13 22  1  0  0  0  0
 13 28  2  0  0  0  0
 14 23  1  0  0  0  0
 14 24  2  0  0  0  0
 15 23  2  0  0  0  0
 15 25  1  0  0  0  0
 16 30  2  0  0  0  0
 16 31  1  0  0  0  0
 17 32  1  0  0  0  0
 18 32  1  0  0  0  0
 18 33  2  0  0  0  0
 18 34  1  0  0  0  0
 19 21  2  0  0  0  0
 19 39  1  0  0  0  0
 20 22  2  0  0  0  0
 20 40  1  0  0  0  0
 21 51  1  0  0  0  0
 22 41  1  0  0  0  0
 23 63  1  0  0  0  0
 24 26  1  0  0  0  0
 24 55  1  0  0  0  0
 25 26  2  0  0  0  0
 25 56  1  0  0  0  0
 26 71  1  0  0  0  0
 27 85  1  0  0  0  0
 28 86  1  0  0  0  0
 29 31  2  0  0  0  0
 29 85  1  0  0  0  0
 30 88  1  0  0  0  0
 31 89  1  0  0  0  0
 32 69  2  0  0  0  0
 33 70  1  0  0  0  0
 33 75  1  0  0  0  0
 34 76  1  0  0  0  0
 34 80  2  0  0  0  0
 35 52  1  0  0  0  0
 35 77  1  0  0  0  0
 35 81  2  0  0  0  0
 36 66  1  0  0  0  0
 36 72  1  0  0  0  0
 36 82  2  0  0  0  0
 37 67  1  0  0  0  0
 37 78  1  0  0  0  0
 37 83  2  0  0  0  0
 38 73  1  0  0  0  0
 38 74  1  0  0  0  0
 38 84  2  0  0  0  0
 39 42  1  0  0  0  0
 40 52  1  0  0  0  0
 41 72  1  0  0  0  0
 42 44  1  0  0  0  0
 43 45  1  0  0  0  0
 43 46  1  0  0  0  0
 44 51  1  0  0  0  0
 45 53  1  0  0  0  0
 46 73  1  0  0  0  0
 47 48  1  0  0  0  0
 47 71  1  0  0  0  0
 48 74  1  0  0  0  0
 49 53  1  0  0  0  0
 49 73  1  0  0  0  0
 50 54  1  0  0  0  0
 50 71  1  0  0  0  0
 51 77  1  0  0  0  0
 52 72  1  0  0  0  0
 53 70  1  0  0  0  0
 54 57  1  0  0  0  0
 54 74  1  0  0  0  0
 58 67  1  0  0  0  0
 59 68  1  0  0  0  0
 60 68  1  0  0  0  0
 61 68  1  0  0  0  0
 62 79  1  0  0  0  0
 63 87  1  0  0  0  0
 64 65  1  0  0  0  0
 64 86  1  0  0  0  0
 65 87  1  0  0  0  0
 66 68  1  0  0  0  0
 66 78  1  0  0  0  0
 67 79  1  0  0  0  0
 69 70  1  0  0  0  0
M  CHG  1  79   1
M  ISO  4  38 100  64 101  74 100  86 101
M  END
> <Batch ID>
0116

> <Smiles>
CNC(C)C(=O)NC(C(=O)N1Cc2cc([101O:1][101CH2:1]COCc3cc(C)c(N4CC[100N:0]([100C:0](=O)N5CCCC(n6nc(-c7ccc(Oc8ccc(F)cc8F)cc7)c(C(N)=O)c6N)C5)C(C)C4)c(C)c3)ccc2CC1C(=O)NC1CCCc2ccccc21)C(C)(C)C

> <Shape>
0.314

> <Color>
0.084

> <Negative vol penalty>
0.000

$$$$

  -OEChem-04052320133D

 91 99  0     1  0  0  0  0  0999 V2000
  -23.1530  -22.9217   15.6836 C   0  0  0  0  0  0  0  0  0  0  0  0
  -24.1518  -22.4028   16.5012 C   0  0  0  0  0  0  0  0  0  0  0  0
  -23.1284  -29.0838   21.9512 C   0  0  0  0  0  0  0  0  0  0  0  0
  -23.4844  -26.7629   22.5202 C   0  0  0  0  0  0  0  0  0  0  0  0
  -21.8576  -22.4114   15.7580 C   0  0  0  0  0  0  0  0  0  0  0  0
  -23.8555  -21.3739   17.3945 C   0  0  0  0  0  0  0  0  0  0  0  0
  -27.3426  -17.7019   17.3542 C   0  0  0  0  0  0  0  0  0  0  0  0
  -22.0064  -29.1147   22.7793 C   0  0  0  0  0  0  0  0  0  0  0  0
  -22.3625  -26.7938   23.3484 C   0  0  0  0  0  0  0  0  0  0  0  0
  -28.5316  -17.9454   18.0403 C   0  0  0  0  0  0  0  0  0  0  0  0
  -18.8385  -29.7032   24.4650 C   0  0  0  0  0  0  0  0  0  0  0  0
  -17.6852  -30.3152   23.9744 C   0  0  0  0  0  0  0  0  0  0  0  0
  -27.7175  -16.6437   19.9010 C   0  0  0  0  0  0  0  0  0  0  0  0
  -17.6228  -28.7341   22.1487 C   0  0  0  0  0  0  0  0  0  0  0  0
  -31.5966  -20.5537   20.4784 C   0  0  0  0  0  0  0  0  0  0  0  0
  -23.8674  -27.9078   21.8216 C   0  0  0  0  0  0  0  0  0  0  0  0
  -26.3560  -28.1667   21.3241 C   0  0  0  0  0  0  0  0  0  0  0  0
  -21.5475  -21.3692   16.6458 C   0  0  0  0  0  0  0  0  0  0  0  0
  -26.3260  -16.9352   17.9418 C   0  0  0  0  0  0  0  0  0  0  0  0
  -22.5545  -20.8501   17.4818 C   0  0  0  0  0  0  0  0  0  0  0  0
  -26.5176  -16.3898   19.2193 C   0  0  0  0  0  0  0  0  0  0  0  0
  -31.2077  -21.8631   20.3007 C   0  0  0  0  0  0  0  0  0  0  0  0
  -30.1498  -22.1171   21.2081 C   0  0  0  0  0  0  0  0  0  0  0  0
  -21.6235  -27.9698   23.4779 C   0  0  0  0  0  0  0  0  0  0  0  0
  -28.7181  -17.4187   19.3150 C   0  0  0  0  0  0  0  0  0  0  0  0
  -19.3841  -28.6067   23.7975 C   0  0  0  0  0  0  0  0  0  0  0  0
  -17.0773  -29.8306   22.8162 C   0  0  0  0  0  0  0  0  0  0  0  0
  -18.7763  -28.1221   22.6393 C   0  0  0  0  0  0  0  0  0  0  0  0
  -25.0262  -27.8751   20.9659 C   0  0  0  0  0  0  0  0  0  0  0  0
  -29.9246  -20.9552   21.9129 C   0  0  0  0  0  0  0  0  0  0  0  0
  -27.0704  -27.9910   20.1643 C   0  0  0  0  0  0  0  0  0  0  0  0
  -26.8971  -28.5610   22.5919 C   0  0  0  0  0  0  0  0  0  0  0  0
  -23.3148  -17.4831   18.8001 C   0  0  0  0  0  0  0  0  0  0  0  0
  -23.3214  -14.2986   19.4176 C   0  0  0  0  0  0  0  0  0  0  0  0
  -25.1197  -11.4958   20.1639 C   0  0  0  0  0  0  0  0  0  0  0  0
  -28.2338  -25.0565   15.5621 C   0  0  0  0  0  0  0  0  0  0  0  0
  -20.1222  -20.8824   16.7242 C   0  0  0  0  0  0  0  0  0  0  0  0
  -25.0600  -16.6594   17.1778 C   0  0  0  0  0  0  0  0  0  0  0  0
  -25.4653  -15.5433   19.8861 C   0  0  0  0  0  0  0  0  0  0  0  0
  -19.9761  -19.5371   17.4307 C   0  0  0  0  0  0  0  0  0  0  0  0
  -25.5036  -27.3359   15.3996 C   0  0  0  0  0  0  0  0  0  0  0  0
  -20.7826  -19.5237   18.7254 C   0  0  0  0  0  0  0  0  0  0  0  0
  -25.2420  -27.6982   16.8626 C   0  0  0  0  0  0  0  0  0  0  0  0
  -25.9169  -25.8740   15.2455 C   0  0  0  0  0  0  0  0  0  0  0  0
  -26.7961  -25.8235   17.5473 C   0  0  0  0  0  0  0  0  0  0  0  0
  -22.2779  -19.7169   18.4459 C   0  0  1  0  0  0  0  0  0  0  0  0
  -23.8853  -16.2941   18.0799 C   0  0  1  0  0  0  0  0  0  0  0  0
  -26.4304  -27.3025   17.7594 C   0  0  2  0  0  0  0  0  0  0  0  0
  -28.9430  -20.6609   22.9784 C   0  0  0  0  0  0  0  0  0  0  0  0
  -27.9045  -23.2769   21.1278 C   0  0  0  0  0  0  0  0  0  0  0  0
  -24.8438   -9.0488   20.6469 C   0  0  0  0  0  0  0  0  0  0  0  0
  -30.5714  -26.1755   22.1683 C   0  0  0  0  0  0  0  0  0  0  0  0
  -27.7686  -25.2631   24.7483 C   0  0  0  0  0  0  0  0  0  0  0  0
  -22.3215  -14.9672   22.2218 C   0  0  0  0  0  0  0  0  0  0  0  0
  -22.9680  -12.6540   22.9283 C   0  0  0  0  0  0  0  0  0  0  0  0
  -21.2278  -12.9789   21.1708 C   0  0  0  0  0  0  0  0  0  0  0  0
  -26.7597  -10.7301   17.8223 C   0  0  0  0  0  0  0  0  0  0  0  0
  -31.7930  -22.8171   19.3376 C   0  0  0  0  0  0  0  0  0  0  0  0
  -30.9173  -18.5899   21.9562 C   0  0  0  0  0  0  0  0  0  0  0  0
  -30.5415  -24.2767   16.0373 C   0  0  0  0  0  0  0  0  0  0  0  0
  -31.4942  -24.0760   17.2011 C   0  0  0  0  0  0  0  0  0  0  0  0
  -29.8047  -17.7008   21.4116 C   0  0  0  0  0  0  0  0  0  1  0  0
  -29.4208  -23.3920   21.3706 C   0  0  1  0  0  0  0  0  0  0  0  0
  -23.6506  -13.4428   20.6169 C   0  0  1  0  0  0  0  0  0  0  0  0
  -25.0960  -10.0971   19.5744 C   0  0  2  0  0  0  0  0  0  0  0  0
  -29.3370  -25.4825   22.7349 C   0  0  2  0  0  0  0  0  0  0  0  0
  -28.9922  -25.9533   24.1556 C   0  0  2  0  0  0  0  0  0  0  0  0
  -22.5612  -13.5283   21.7229 C   0  0  0  0  0  0  0  0  0  0  0  0
  -24.9005  -27.5398   19.6791 N   0  0  0  0  0  0  0  0  0  0  0  0
  -30.8100  -20.0118   21.4611 N   0  0  0  0  0  0  0  0  0  0  0  0
  -26.1605  -27.6197   19.2186 N   0  0  0  0  0  0  0  0  0  0  0  0
  -24.2423  -15.3073   19.1011 N   0  0  0  0  0  0  0  0  0  0  0  0
  -27.0495  -25.5641   16.1213 N   0  0  0  0  0  0  0  0  0  0  0  0
  -28.3819  -28.1196   19.8713 N   0  0  0  0  0  0  0  0  0  0  0  0
  -26.0228  -28.6942   23.6792 N   0  0  0  0  0  0  0  0  0  0  0  0
  -22.8649  -18.4857   17.9624 N   0  0  0  0  0  0  0  0  0  0  0  0
  -23.8794  -12.0954   20.1064 N   0  0  0  0  0  0  0  0  0  0  0  0
  -29.2603  -24.7958   16.4616 N   0  0  0  0  0  0  0  0  0  0  0  0
  -26.3967   -9.7909   18.9145 N   0  3  0  0  0  0  0  0  0  0  0  0
  -30.9336  -23.0749   18.1418 N   0  3  0  0  0  0  0  0  0  0  0  0
  -29.5963  -24.0273   22.7278 N   0  3  0  0  0  0  0  0  0  0  0  0
  -28.1173  -28.8044   22.7519 O   0  0  0  0  0  0  0  0  0  0  0  0
  -23.2838  -17.4897   20.0252 O   0  0  0  0  0  0  0  0  0  0  0  0
  -22.2888  -14.0756   18.7807 O   0  0  0  0  0  0  0  0  0  0  0  0
  -26.1360  -12.0041   20.6322 O   0  0  0  0  0  0  0  0  0  0  0  0
  -28.3684  -24.8558   14.3502 O   0  0  0  0  0  0  0  0  0  0  0  0
  -30.1074  -25.7511   25.0210 O   0  0  0  0  0  0  0  0  0  0  0  0
  -20.5288  -27.9997   24.2863 O   0  0  0  0  0  0  0  0  0  0  0  0
  -29.8774  -17.6554   19.9871 O   0  0  0  0  0  0  0  0  0  1  0  0
  -15.9688  -30.4175   22.3460 F   0  0  0  0  0  0  0  0  0  0  0  0
  -19.2951  -27.0682   21.9943 F   0  0  0  0  0  0  0  0  0  0  0  0
  1  2  1  0  0  0  0
  1  5  2  0  0  0  0
  2  6  2  0  0  0  0
  3  8  2  0  0  0  0
  3 16  1  0  0  0  0
  4  9  1  0  0  0  0
  4 16  2  0  0  0  0
  5 18  1  0  0  0  0
  6 20  1  0  0  0  0
  7 10  2  0  0  0  0
  7 19  1  0  0  0  0
  8 24  1  0  0  0  0
  9 24  2  0  0  0  0
 10 25  1  0  0  0  0
 11 12  2  0  0  0  0
 11 26  1  0  0  0  0
 12 27  1  0  0  0  0
 13 21  1  0  0  0  0
 13 25  2  0  0  0  0
 14 27  2  0  0  0  0
 14 28  1  0  0  0  0
 15 22  2  0  0  0  0
 15 70  1  0  0  0  0
 16 29  1  0  0  0  0
 17 29  1  0  0  0  0
 17 31  2  0  0  0  0
 17 32  1  0  0  0  0
 18 20  2  0  0  0  0
 18 37  1  0  0  0  0
 19 21  2  0  0  0  0
 19 38  1  0  0  0  0
 20 46  1  0  0  0  0
 21 39  1  0  0  0  0
 22 23  1  0  0  0  0
 22 58  1  0  0  0  0
 23 30  2  0  0  0  0
 23 63  1  0  0  0  0
 24 88  1  0  0  0  0
 25 89  1  0  0  0  0
 26 28  2  0  0  0  0
 26 88  1  0  0  0  0
 27 90  1  0  0  0  0
 28 91  1  0  0  0  0
 29 69  2  0  0  0  0
 30 49  1  0  0  0  0
 30 70  1  0  0  0  0
 31 71  1  0  0  0  0
 31 74  1  0  0  0  0
 32 75  1  0  0  0  0
 32 82  2  0  0  0  0
 33 47  1  0  0  0  0
 33 76  1  0  0  0  0
 33 83  2  0  0  0  0
 34 64  1  0  0  0  0
 34 72  1  0  0  0  0
 34 84  2  0  0  0  0
 35 65  1  0  0  0  0
 35 77  1  0  0  0  0
 35 85  2  0  0  0  0
 36 73  1  0  0  0  0
 36 78  1  0  0  0  0
 36 86  2  0  0  0  0
 37 40  1  0  0  0  0
 38 47  1  0  0  0  0
 39 72  1  0  0  0  0
 40 42  1  0  0  0  0
 41 43  1  0  0  0  0
 41 44  1  0  0  0  0
 42 46  1  0  0  0  0
 43 48  1  0  0  0  0
 44 73  1  0  0  0  0
 45 48  1  0  0  0  0
 45 73  1  0  0  0  0
 46 76  1  0  0  0  0
 47 72  1  0  0  0  0
 48 71  1  0  0  0  0
 50 63  1  0  0  0  0
 51 65  1  0  0  0  0
 52 66  1  0  0  0  0
 53 67  1  0  0  0  0
 54 68  1  0  0  0  0
 55 68  1  0  0  0  0
 56 68  1  0  0  0  0
 57 79  1  0  0  0  0
 58 80  1  0  0  0  0
 59 62  1  0  0  0  0
 59 70  1  0  0  0  0
 60 61  1  0  0  0  0
 60 78  1  0  0  0  0
 61 80  1  0  0  0  0
 62 89  1  0  0  0  0
 63 81  1  0  0  0  0
 64 68  1  0  0  0  0
 64 77  1  0  0  0  0
 65 79  1  0  0  0  0
 66 67  1  0  0  0  0
 66 81  1  0  0  0  0
 67 87  1  0  0  0  0
 69 71  1  0  0  0  0
M  CHG  3  79   1  80   1  81   1
M  ISO  4  36 100  62 101  78 100  89 101
M  END
> <Batch ID>
0116

> <Smiles>
CNC(C)C(=O)NC(C(=O)N1Cc2cc([101O:1][101CH2:1]Cn3cc(CNCC[100NH:0][100C:0](=O)N4CCCC(n5nc(-c6ccc(Oc7ccc(F)cc7F)cc6)c(C(N)=O)c5N)C4)c(C(C)NC(C)C(C)O)c3C)ccc2CC1C(=O)NC1CCCc2ccccc21)C(C)(C)C

> <Shape>
0.215

> <Color>
0.061

> <Negative vol penalty>
0.000

$$$$

  -OEChem-04052320133D

 87 95  0     1  0  0  0  0  0999 V2000
  -20.2078  -35.7512   17.1718 C   0  0  0  0  0  0  0  0  0  0  0  0
  -20.6270  -34.4657   16.8442 C   0  0  0  0  0  0  0  0  0  0  0  0
  -25.0523   -7.4006   21.7191 C   0  0  0  0  0  0  0  0  0  0  0  0
  -25.4072   -8.1943   23.9733 C   0  0  0  0  0  0  0  0  0  0  0  0
  -20.9694  -36.5313   18.0409 C   0  0  0  0  0  0  0  0  0  0  0  0
  -21.8087  -33.9600   17.3847 C   0  0  0  0  0  0  0  0  0  0  0  0
  -24.7600  -27.8144   19.5842 C   0  0  0  0  0  0  0  0  0  0  0  0
  -25.6907   -6.2028   22.0403 C   0  0  0  0  0  0  0  0  0  0  0  0
  -26.0456   -6.9964   24.2945 C   0  0  0  0  0  0  0  0  0  0  0  0
  -25.9062  -27.0427   19.3981 C   0  0  0  0  0  0  0  0  0  0  0  0
  -26.9073   -2.7928   22.3674 C   0  0  0  0  0  0  0  0  0  0  0  0
  -26.3110   -1.6058   21.9422 C   0  0  0  0  0  0  0  0  0  0  0  0
  -27.0995  -28.4515   20.9507 C   0  0  0  0  0  0  0  0  0  0  0  0
  -24.3340   -2.1397   23.2241 C   0  0  0  0  0  0  0  0  0  0  0  0
  -24.9106   -8.3964   22.6856 C   0  0  0  0  0  0  0  0  0  0  0  0
  -22.8788   -9.9236   22.4688 C   0  0  0  0  0  0  0  0  0  0  0  0
  -22.1560  -36.0312   18.6000 C   0  0  0  0  0  0  0  0  0  0  0  0
  -24.7781  -28.9188   20.4482 C   0  0  0  0  0  0  0  0  0  0  0  0
  -22.5876  -34.7346   18.2611 C   0  0  0  0  0  0  0  0  0  0  0  0
  -25.9515  -29.2341   21.1480 C   0  0  0  0  0  0  0  0  0  0  0  0
  -26.1874   -6.0007   23.3280 C   0  0  0  0  0  0  0  0  0  0  0  0
  -27.0769  -27.3630   20.0792 C   0  0  0  0  0  0  0  0  0  0  0  0
  -26.2171   -3.6533   23.2211 C   0  0  0  0  0  0  0  0  0  0  0  0
  -25.0243   -1.2792   22.3705 C   0  0  0  0  0  0  0  0  0  0  0  0
  -24.9304   -3.3268   23.6494 C   0  0  0  0  0  0  0  0  0  0  0  0
  -24.2517   -9.6342   22.3543 C   0  0  0  0  0  0  0  0  0  0  0  0
  -22.7635  -11.2204   22.0312 C   0  0  0  0  0  0  0  0  0  0  0  0
  -21.8037   -9.0944   22.9296 C   0  0  0  0  0  0  0  0  0  0  0  0
  -24.3339  -32.0469   20.0995 C   0  0  0  0  0  0  0  0  0  0  0  0
  -28.9400  -20.3754   20.2244 C   0  0  0  0  0  0  0  0  0  0  0  0
  -24.5578  -32.0448   23.3356 C   0  0  0  0  0  0  0  0  0  0  0  0
  -25.6960  -30.5040   26.1600 C   0  0  0  0  0  0  0  0  0  0  0  0
  -26.3258  -15.7579   21.9290 C   0  0  0  0  0  0  0  0  0  0  0  0
  -22.9703  -36.9291   19.4975 C   0  0  0  0  0  0  0  0  0  0  0  0
  -23.5258  -29.7251   20.6584 C   0  0  0  0  0  0  0  0  0  0  0  0
  -26.0174  -30.3974   22.1024 C   0  0  0  0  0  0  0  0  0  0  0  0
  -24.0153  -36.1810   20.3212 C   0  0  0  0  0  0  0  0  0  0  0  0
  -24.8101  -14.3852   19.0902 C   0  0  0  0  0  0  0  0  0  0  0  0
  -24.7859  -35.2007   19.4426 C   0  0  0  0  0  0  0  0  0  0  0  0
  -24.3517  -13.0254   19.6172 C   0  0  0  0  0  0  0  0  0  0  0  0
  -26.1997  -14.7605   19.6075 C   0  0  0  0  0  0  0  0  0  0  0  0
  -26.7271  -19.3158   20.8832 C   0  0  0  0  0  0  0  0  0  0  0  0
  -26.5174  -18.2124   21.9143 C   0  0  0  0  0  0  0  0  0  0  0  0
  -25.8687  -13.3447   21.6087 C   0  0  0  0  0  0  0  0  0  0  0  0
  -28.4937  -17.9816   19.7957 C   0  0  0  0  0  0  0  0  0  0  0  0
  -23.8508  -34.1415   18.8465 C   0  0  1  0  0  0  0  0  0  0  0  0
  -23.8022  -31.1357   21.1695 C   0  0  1  0  0  0  0  0  0  0  0  0
  -24.4515  -12.9650   21.1519 C   0  0  2  0  0  0  0  0  0  0  0  0
  -28.3215  -16.8640   20.8297 C   0  0  1  0  0  0  0  0  0  0  0  0
  -30.5912  -15.6825   23.7335 C   0  0  0  0  0  0  0  0  0  0  0  0
  -25.7568  -30.7604   28.6556 C   0  0  0  0  0  0  0  0  0  0  0  0
  -30.8600  -25.0808   22.1046 C   0  0  0  0  0  0  0  0  0  0  0  0
  -26.7285  -34.1716   23.0618 C   0  0  0  0  0  0  0  0  0  0  0  0
  -27.3949  -33.6964   25.4279 C   0  0  0  0  0  0  0  0  0  0  0  0
  -25.1110  -34.5661   24.9279 C   0  0  0  0  0  0  0  0  0  0  0  0
  -24.2022  -27.9825   26.5717 C   0  0  0  0  0  0  0  0  0  0  0  0
  -28.4137  -21.6953   20.7289 C   0  0  0  0  0  0  0  0  0  0  0  0
  -29.3960  -16.9390   21.9227 C   0  0  0  0  0  0  0  0  0  0  0  0
  -29.5101  -15.6160   22.6667 C   0  0  0  0  0  0  0  0  0  0  0  0
  -29.4496  -22.7831   20.5488 C   0  0  0  0  0  0  0  0  0  0  0  0
  -29.1015  -26.5195   20.9987 C   0  0  0  0  0  0  0  0  0  1  0  0
  -25.6865  -32.1781   24.3292 C   0  0  1  0  0  0  0  0  0  0  0  0
  -25.0085  -30.1687   27.4712 C   0  0  2  0  0  0  0  0  0  0  0  0
  -29.8814  -25.2105   20.9487 C   0  0  2  0  0  0  0  0  0  0  0  0
  -26.2298  -33.6322   24.4173 C   0  0  0  0  0  0  0  0  0  0  0  0
  -24.9580  -10.6643   21.8809 N   0  0  0  0  0  0  0  0  0  0  0  0
  -24.0253  -11.6136   21.6941 N   0  0  0  0  0  0  0  0  0  0  0  0
  -24.7687  -31.1592   22.2693 N   0  0  0  0  0  0  0  0  0  0  0  0
  -28.0835  -19.2801   20.3301 N   0  0  0  0  0  0  0  0  0  0  0  0
  -26.2564  -14.6500   21.0714 N   0  0  0  0  0  0  0  0  0  0  0  0
  -26.9659  -16.9060   21.4274 N   0  0  0  0  0  0  0  0  0  0  0  0
  -21.7071  -12.0514   21.9058 N   0  0  0  0  0  0  0  0  0  0  0  0
  -22.0976   -7.7877   23.3425 N   0  0  0  0  0  0  0  0  0  0  0  0
  -23.5271  -33.1378   19.8376 N   0  0  0  0  0  0  0  0  0  0  0  0
  -25.1823  -31.6510   25.5927 N   0  0  0  0  0  0  0  0  0  0  0  0
  -24.9329  -28.6915   27.6535 N   0  3  0  0  0  0  0  0  0  0  0  0
  -28.9152  -24.0818   21.0300 N   0  3  0  0  0  0  0  0  0  0  0  0
  -20.6152   -9.4946   22.9583 O   0  0  0  0  0  0  0  0  0  0  0  0
  -25.3980  -31.7808   19.5532 O   0  0  0  0  0  0  0  0  0  0  0  0
  -30.0793  -20.3206   19.7544 O   0  0  0  0  0  0  0  0  0  0  0  0
  -23.5242  -32.6969   23.5034 O   0  0  0  0  0  0  0  0  0  0  0  0
  -26.6009  -29.8192   25.6882 O   0  0  0  0  0  0  0  0  0  0  0  0
  -25.8450  -15.7299   23.0686 O   0  0  0  0  0  0  0  0  0  0  0  0
  -26.8102   -4.8318   23.6418 O   0  0  0  0  0  0  0  0  0  0  0  0
  -28.2048  -26.6068   19.8976 O   0  0  0  0  0  0  0  0  0  1  0  0
  -24.4511   -0.1400   21.9608 F   0  0  0  0  0  0  0  0  0  0  0  0
  -24.2618   -4.1500   24.4686 F   0  0  0  0  0  0  0  0  0  0  0  0
  1  2  1  0  0  0  0
  1  5  2  0  0  0  0
  2  6  2  0  0  0  0
  3  8  2  0  0  0  0
  3 15  1  0  0  0  0
  4  9  1  0  0  0  0
  4 15  2  0  0  0  0
  5 17  1  0  0  0  0
  6 19  1  0  0  0  0
  7 10  2  0  0  0  0
  7 18  1  0  0  0  0
  8 21  1  0  0  0  0
  9 21  2  0  0  0  0
 10 22  1  0  0  0  0
 11 12  2  0  0  0  0
 11 23  1  0  0  0  0
 12 24  1  0  0  0  0
 13 20  1  0  0  0  0
 13 22  2  0  0  0  0
 14 24  2  0  0  0  0
 14 25  1  0  0  0  0
 15 26  1  0  0  0  0
 16 26  1  0  0  0  0
 16 27  2  0  0  0  0
 16 28  1  0  0  0  0
 17 19  2  0  0  0  0
 17 34  1  0  0  0  0
 18 20  2  0  0  0  0
 18 35  1  0  0  0  0
 19 46  1  0  0  0  0
 20 36  1  0  0  0  0
 21 84  1  0  0  0  0
 22 85  1  0  0  0  0
 23 25  2  0  0  0  0
 23 84  1  0  0  0  0
 24 86  1  0  0  0  0
 25 87  1  0  0  0  0
 26 66  2  0  0  0  0
 27 67  1  0  0  0  0
 27 72  1  0  0  0  0
 28 73  1  0  0  0  0
 28 78  2  0  0  0  0
 29 47  1  0  0  0  0
 29 74  1  0  0  0  0
 29 79  2  0  0  0  0
 30 57  1  0  0  0  0
 30 69  1  0  0  0  0
 30 80  2  0  0  0  0
 31 62  1  0  0  0  0
 31 68  1  0  0  0  0
 31 81  2  0  0  0  0
 32 63  1  0  0  0  0
 32 75  1  0  0  0  0
 32 82  2  0  0  0  0
 33 70  1  0  0  0  0
 33 71  1  0  0  0  0
 33 83  2  0  0  0  0
 34 37  1  0  0  0  0
 35 47  1  0  0  0  0
 36 68  1  0  0  0  0
 37 39  1  0  0  0  0
 38 40  1  0  0  0  0
 38 41  1  0  0  0  0
 39 46  1  0  0  0  0
 40 48  1  0  0  0  0
 41 70  1  0  0  0  0
 42 43  1  0  0  0  0
 42 69  1  0  0  0  0
 43 71  1  0  0  0  0
 44 48  1  0  0  0  0
 44 70  1  0  0  0  0
 45 49  1  0  0  0  0
 45 69  1  0  0  0  0
 46 74  1  0  0  0  0
 47 68  1  0  0  0  0
 48 67  1  0  0  0  0
 49 58  1  0  0  0  0
 49 71  1  0  0  0  0
 50 59  1  0  0  0  0
 51 63  1  0  0  0  0
 52 64  1  0  0  0  0
 53 65  1  0  0  0  0
 54 65  1  0  0  0  0
 55 65  1  0  0  0  0
 56 76  1  0  0  0  0
 57 60  1  0  0  0  0
 58 59  1  0  0  0  0
 60 77  1  0  0  0  0
 61 64  1  0  0  0  0
 61 85  1  0  0  0  0
 62 65  1  0  0  0  0
 62 75  1  0  0  0  0
 63 76  1  0  0  0  0
 64 77  1  0  0  0  0
 66 67  1  0  0  0  0
M  CHG  2  76   1  77   1
M  ISO  4  33 100  61 101  71 100  85 101
M  END
> <Batch ID>
0116

> <Smiles>
CCCC1CN(C(=O)CCNC(C)[101CH2:1][101O:1]c2ccc3c(c2)CN(C(=O)C(NC(=O)C(C)NC)C(C)(C)C)C(C(=O)NC2CCCc4ccccc42)C3)CC[100N:0]1[100C:0](=O)N1CCCC(n2nc(-c3ccc(Oc4ccc(F)cc4F)cc3)c(C(N)=O)c2N)C1

> <Shape>
0.263

> <Color>
0.092

> <Negative vol penalty>
0.000

$$$$

  -OEChem-04052320133D

 80 88  0     1  0  0  0  0  0999 V2000
  -17.6652  -26.1526   22.5132 C   0  0  0  0  0  0  0  0  0  0  0  0
  -18.9792  -25.6956   22.5143 C   0  0  0  0  0  0  0  0  0  0  0  0
  -24.5279  -12.6321   21.4300 C   0  0  0  0  0  0  0  0  0  0  0  0
  -26.6636  -12.7263   20.3045 C   0  0  0  0  0  0  0  0  0  0  0  0
  -17.3827  -27.4578   22.1125 C   0  0  0  0  0  0  0  0  0  0  0  0
  -20.0114  -26.5432   22.1137 C   0  0  0  0  0  0  0  0  0  0  0  0
  -25.7132  -26.7095   24.3425 C   0  0  0  0  0  0  0  0  0  0  0  0
  -29.8624  -23.3658   21.0244 C   0  0  0  0  0  0  0  0  0  0  0  0
  -24.4656  -11.2583   21.1969 C   0  0  0  0  0  0  0  0  0  0  0  0
  -26.6014  -11.3524   20.0714 C   0  0  0  0  0  0  0  0  0  0  0  0
  -26.9136  -26.1639   23.8896 C   0  0  0  0  0  0  0  0  0  0  0  0
  -25.7938   -8.4445   22.5203 C   0  0  0  0  0  0  0  0  0  0  0  0
  -25.4013   -7.6247   23.5783 C   0  0  0  0  0  0  0  0  0  0  0  0
  -29.1114  -22.2388   20.7095 C   0  0  0  0  0  0  0  0  0  0  0  0
  -27.4607  -28.2613   22.8311 C   0  0  0  0  0  0  0  0  0  0  0  0
  -23.5223   -6.8435   22.2758 C   0  0  0  0  0  0  0  0  0  0  0  0
  -28.4601  -24.6384   19.5854 C   0  0  0  0  0  0  0  0  0  0  0  0
  -25.6269  -13.3661   20.9837 C   0  0  0  0  0  0  0  0  0  0  0  0
  -26.2517  -15.4341   22.3405 C   0  0  0  0  0  0  0  0  0  0  0  0
  -18.4131  -28.3249   21.7160 C   0  0  0  0  0  0  0  0  0  0  0  0
  -25.3720  -28.0340   24.0333 C   0  0  0  0  0  0  0  0  0  0  0  0
  -19.7423  -27.8608   21.7060 C   0  0  0  0  0  0  0  0  0  0  0  0
  -26.2566  -28.8222   23.2834 C   0  0  0  0  0  0  0  0  0  0  0  0
  -29.5371  -24.5923   20.4559 C   0  0  0  0  0  0  0  0  0  0  0  0
  -25.5023  -10.6184   20.5177 C   0  0  0  0  0  0  0  0  0  0  0  0
  -27.7863  -26.9389   23.1314 C   0  0  0  0  0  0  0  0  0  0  0  0
  -25.0506   -8.4639   21.3401 C   0  0  0  0  0  0  0  0  0  0  0  0
  -24.2656   -6.8241   23.4561 C   0  0  0  0  0  0  0  0  0  0  0  0
  -23.9148   -7.6634   21.2178 C   0  0  0  0  0  0  0  0  0  0  0  0
  -25.6915  -14.7854   21.2237 C   0  0  0  0  0  0  0  0  0  0  0  0
  -28.0533  -22.3903   19.8279 C   0  0  0  0  0  0  0  0  0  0  0  0
  -26.0624  -16.7715   22.0914 C   0  0  0  0  0  0  0  0  0  0  0  0
  -26.8865  -14.8775   23.4994 C   0  0  0  0  0  0  0  0  0  0  0  0
  -23.0136  -29.4242   22.4180 C   0  0  0  0  0  0  0  0  0  0  0  0
  -24.3832  -32.1478   23.5265 C   0  0  0  0  0  0  0  0  0  0  0  0
  -27.1780  -33.7150   24.7012 C   0  0  0  0  0  0  0  0  0  0  0  0
  -26.1961  -21.1534   18.6586 C   0  0  0  0  0  0  0  0  0  0  0  0
  -18.0537  -29.7123   21.2460 C   0  0  0  0  0  0  0  0  0  0  0  0
  -24.0856  -28.6161   24.5519 C   0  0  0  0  0  0  0  0  0  0  0  0
  -25.9464  -30.2558   22.9414 C   0  0  0  0  0  0  0  0  0  0  0  0
  -19.2451  -30.6652   21.1934 C   0  0  0  0  0  0  0  0  0  0  0  0
  -23.2865  -19.1036   18.5591 C   0  0  0  0  0  0  0  0  0  0  0  0
  -20.4361  -29.9940   20.5169 C   0  0  0  0  0  0  0  0  0  0  0  0
  -23.6989  -17.8508   19.3353 C   0  0  0  0  0  0  0  0  0  0  0  0
  -24.4405  -19.6612   17.7278 C   0  0  0  0  0  0  0  0  0  0  0  0
  -26.0942  -18.6523   19.2498 C   0  0  0  0  0  0  0  0  0  0  0  0
  -20.8920  -28.7580   21.3019 C   0  0  1  0  0  0  0  0  0  0  0  0
  -23.6039  -29.8164   23.7429 C   0  0  1  0  0  0  0  0  0  0  0  0
  -24.9833  -18.0916   20.1526 C   0  0  2  0  0  0  0  0  0  0  0  0
  -31.0161  -26.4042   19.5279 C   0  0  0  0  0  0  0  0  0  0  0  0
  -27.9982  -35.9522   25.4881 C   0  0  0  0  0  0  0  0  0  0  0  0
  -24.4850  -33.1240   20.6374 C   0  0  0  0  0  0  0  0  0  0  0  0
  -26.1264  -34.8714   21.3590 C   0  0  0  0  0  0  0  0  0  0  0  0
  -23.8178  -34.8652   22.3040 C   0  0  0  0  0  0  0  0  0  0  0  0
  -27.8407  -32.6577   27.3848 C   0  0  0  0  0  0  0  0  0  0  0  0
  -29.4774  -26.9170   21.4594 C   0  0  0  0  0  0  0  0  0  1  0  0
  -30.3387  -25.8429   20.7812 C   0  0  1  0  0  0  0  0  0  0  0  0
  -25.4584  -33.0832   23.0284 C   0  0  1  0  0  0  0  0  0  0  0  0
  -27.3971  -34.6179   25.9016 C   0  0  2  0  0  0  0  0  0  0  0  0
  -24.9771  -33.9584   21.8368 C   0  0  0  0  0  0  0  0  0  0  0  0
  -27.7071  -23.5651   19.2556 N   0  0  0  0  0  0  0  0  0  0  0  0
  -25.1843  -15.6403   20.3316 N   0  0  0  0  0  0  0  0  0  0  0  0
  -25.4249  -16.8399   20.8876 N   0  0  0  0  0  0  0  0  0  0  0  0
  -24.6735  -30.7775   23.4661 N   0  0  0  0  0  0  0  0  0  0  0  0
  -25.6214  -19.8679   18.5690 N   0  0  0  0  0  0  0  0  0  0  0  0
  -26.3807  -17.8839   22.7869 N   0  0  0  0  0  0  0  0  0  0  0  0
  -26.9978  -13.4837   23.5956 N   0  0  0  0  0  0  0  0  0  0  0  0
  -27.2946  -21.2356   19.5137 N   0  0  0  0  0  0  0  0  0  0  0  0
  -21.6596  -29.1521   22.4638 N   0  0  0  0  0  0  0  0  0  0  0  0
  -25.9048  -33.8467   24.1886 N   0  0  0  0  0  0  0  0  0  0  0  0
  -28.3191  -33.9691   26.8764 N   0  3  0  0  0  0  0  0  0  0  0  0
  -27.3268  -15.5943   24.4299 O   0  0  0  0  0  0  0  0  0  0  0  0
  -23.7330  -29.3738   21.4272 O   0  0  0  0  0  0  0  0  0  0  0  0
  -23.3275  -32.6161   23.9600 O   0  0  0  0  0  0  0  0  0  0  0  0
  -28.0504  -32.9702   24.2598 O   0  0  0  0  0  0  0  0  0  0  0  0
  -25.7302  -22.1167   18.0447 O   0  0  0  0  0  0  0  0  0  0  0  0
  -25.4420   -9.2778   20.2903 O   0  0  0  0  0  0  0  0  0  0  0  0
  -28.9583  -26.4085   22.6875 O   0  0  0  0  0  0  0  0  0  1  0  0
  -23.8897   -6.0357   24.4716 F   0  0  0  0  0  0  0  0  0  0  0  0
  -23.1974   -7.6769   20.0860 F   0  0  0  0  0  0  0  0  0  0  0  0
  1  2  1  0  0  0  0
  1  5  2  0  0  0  0
  2  6  2  0  0  0  0
  3  9  2  0  0  0  0
  3 18  1  0  0  0  0
  4 10  1  0  0  0  0
  4 18  2  0  0  0  0
  5 20  1  0  0  0  0
  6 22  1  0  0  0  0
  7 11  2  0  0  0  0
  7 21  1  0  0  0  0
  8 14  2  0  0  0  0
  8 24  1  0  0  0  0
  9 25  1  0  0  0  0
 10 25  2  0  0  0  0
 11 26  1  0  0  0  0
 12 13  2  0  0  0  0
 12 27  1  0  0  0  0
 13 28  1  0  0  0  0
 14 31  1  0  0  0  0
 15 23  1  0  0  0  0
 15 26  2  0  0  0  0
 16 28  2  0  0  0  0
 16 29  1  0  0  0  0
 17 24  2  0  0  0  0
 17 61  1  0  0  0  0
 18 30  1  0  0  0  0
 19 30  1  0  0  0  0
 19 32  2  0  0  0  0
 19 33  1  0  0  0  0
 20 22  2  0  0  0  0
 20 38  1  0  0  0  0
 21 23  2  0  0  0  0
 21 39  1  0  0  0  0
 22 47  1  0  0  0  0
 23 40  1  0  0  0  0
 24 57  1  0  0  0  0
 25 77  1  0  0  0  0
 26 78  1  0  0  0  0
 27 29  2  0  0  0  0
 27 77  1  0  0  0  0
 28 79  1  0  0  0  0
 29 80  1  0  0  0  0
 30 62  2  0  0  0  0
 31 61  2  0  0  0  0
 31 68  1  0  0  0  0
 32 63  1  0  0  0  0
 32 66  1  0  0  0  0
 33 67  1  0  0  0  0
 33 72  2  0  0  0  0
 34 48  1  0  0  0  0
 34 69  1  0  0  0  0
 34 73  2  0  0  0  0
 35 58  1  0  0  0  0
 35 64  1  0  0  0  0
 35 74  2  0  0  0  0
 36 59  1  0  0  0  0
 36 70  1  0  0  0  0
 36 75  2  0  0  0  0
 37 65  1  0  0  0  0
 37 68  1  0  0  0  0
 37 76  2  0  0  0  0
 38 41  1  0  0  0  0
 39 48  1  0  0  0  0
 40 64  1  0  0  0  0
 41 43  1  0  0  0  0
 42 44  1  0  0  0  0
 42 45  1  0  0  0  0
 43 47  1  0  0  0  0
 44 49  1  0  0  0  0
 45 65  1  0  0  0  0
 46 49  1  0  0  0  0
 46 65  1  0  0  0  0
 47 69  1  0  0  0  0
 48 64  1  0  0  0  0
 49 63  1  0  0  0  0
 50 57  1  0  0  0  0
 51 59  1  0  0  0  0
 52 60  1  0  0  0  0
 53 60  1  0  0  0  0
 54 60  1  0  0  0  0
 55 71  1  0  0  0  0
 56 57  1  0  0  0  0
 56 78  1  0  0  0  0
 58 60  1  0  0  0  0
 58 70  1  0  0  0  0
 59 71  1  0  0  0  0
 62 63  1  0  0  0  0
M  CHG  1  71   1
M  ISO  4  37 100  56 101  68 100  78 101
M  END
> <Batch ID>
0116

> <Smiles>
CNC(C)C(=O)NC(C(=O)N1Cc2cc([101O:1][101CH2:1]C(C)c3ccc([100NH:0][100C:0](=O)N4CCCC(n5nc(-c6ccc(Oc7ccc(F)cc7F)cc6)c(C(N)=O)c5N)C4)nc3)ccc2CC1C(=O)NC1CCCc2ccccc21)C(C)(C)C

> <Shape>
0.241

> <Color>
0.085

> <Negative vol penalty>
0.000

$$$$

  -OEChem-04052320133D

 83 91  0     1  0  0  0  0  0999 V2000
  -18.6119  -30.0116   26.7070 C   0  0  0  0  0  0  0  0  0  0  0  0
  -19.9860  -29.7943   26.7151 C   0  0  0  0  0  0  0  0  0  0  0  0
  -25.3807  -22.4669   19.2563 C   0  0  0  0  0  0  0  0  0  0  0  0
  -26.4171  -11.9083   21.5104 C   0  0  0  0  0  0  0  0  0  0  0  0
  -25.9888  -12.9194   19.3583 C   0  0  0  0  0  0  0  0  0  0  0  0
  -17.8671  -29.7147   25.5663 C   0  0  0  0  0  0  0  0  0  0  0  0
  -20.6159  -29.2789   25.5829 C   0  0  0  0  0  0  0  0  0  0  0  0
  -26.8142  -29.6070   22.0065 C   0  0  0  0  0  0  0  0  0  0  0  0
  -25.2204  -11.1982   21.4150 C   0  0  0  0  0  0  0  0  0  0  0  0
  -24.7921  -12.2093   19.2629 C   0  0  0  0  0  0  0  0  0  0  0  0
  -27.8012  -28.7729   21.4833 C   0  0  0  0  0  0  0  0  0  0  0  0
  -24.0847   -8.4312   19.8380 C   0  0  0  0  0  0  0  0  0  0  0  0
  -24.1048   -7.0784   20.1771 C   0  0  0  0  0  0  0  0  0  0  0  0
  -26.2866  -21.4080   19.5115 C   0  0  0  0  0  0  0  0  0  0  0  0
  -26.4252  -28.3717   19.5430 C   0  0  0  0  0  0  0  0  0  0  0  0
  -22.4745   -7.4891   21.9123 C   0  0  0  0  0  0  0  0  0  0  0  0
  -26.1015  -23.4995   18.6983 C   0  0  0  0  0  0  0  0  0  0  0  0
  -26.8013  -12.7690   20.4821 C   0  0  0  0  0  0  0  0  0  0  0  0
  -29.3077  -13.0926   20.1344 C   0  0  0  0  0  0  0  0  0  0  0  0
  -18.4897  -29.2045   24.4163 C   0  0  0  0  0  0  0  0  0  0  0  0
  -25.6186  -29.8214   21.3057 C   0  0  0  0  0  0  0  0  0  0  0  0
  -19.8786  -28.9736   24.4262 C   0  0  0  0  0  0  0  0  0  0  0  0
  -25.4257  -29.2109   20.0582 C   0  0  0  0  0  0  0  0  0  0  0  0
  -24.4078  -11.3487   20.2912 C   0  0  0  0  0  0  0  0  0  0  0  0
  -27.6057  -28.1528   20.2527 C   0  0  0  0  0  0  0  0  0  0  0  0
  -23.2595   -9.3130   20.5360 C   0  0  0  0  0  0  0  0  0  0  0  0
  -23.2997   -6.6073   21.2142 C   0  0  0  0  0  0  0  0  0  0  0  0
  -22.4545   -8.8420   21.5731 C   0  0  0  0  0  0  0  0  0  0  0  0
  -28.0372  -13.5032   20.5804 C   0  0  0  0  0  0  0  0  0  0  0  0
  -27.5336  -21.8258   19.1017 C   0  0  0  0  0  0  0  0  0  0  0  0
  -30.1393  -14.1365   20.4584 C   0  0  0  0  0  0  0  0  0  0  0  0
  -29.7011  -11.8762   19.4851 C   0  0  0  0  0  0  0  0  0  0  0  0
  -22.5459  -29.2489   21.8841 C   0  0  0  0  0  0  0  0  0  0  0  0
  -22.1210  -30.8924   19.1200 C   0  0  0  0  0  0  0  0  0  0  0  0
  -23.4193  -31.9375   16.1419 C   0  0  0  0  0  0  0  0  0  0  0  0
  -29.1950  -19.9864   21.3177 C   0  0  0  0  0  0  0  0  0  0  0  0
  -17.6359  -28.8544   23.2233 C   0  0  0  0  0  0  0  0  0  0  0  0
  -24.5749  -30.7452   21.8713 C   0  0  0  0  0  0  0  0  0  0  0  0
  -24.1685  -29.4245   19.2568 C   0  0  0  0  0  0  0  0  0  0  0  0
  -18.4355  -28.6631   21.9371 C   0  0  0  0  0  0  0  0  0  0  0  0
  -30.6309  -17.6878   23.6267 C   0  0  0  0  0  0  0  0  0  0  0  0
  -19.6569  -27.7860   22.1933 C   0  0  0  0  0  0  0  0  0  0  0  0
  -30.2436  -16.3176   23.0675 C   0  0  0  0  0  0  0  0  0  0  0  0
  -29.5212  -18.7162   23.4193 C   0  0  0  0  0  0  0  0  0  0  0  0
  -28.6641  -17.4780   21.4683 C   0  0  0  0  0  0  0  0  0  0  0  0
  -20.6018  -28.4391   23.2092 C   0  0  1  0  0  0  0  0  0  0  0  0
  -23.1799  -30.4848   21.3113 C   0  0  1  0  0  0  0  0  0  0  0  0
  -29.7741  -16.4216   21.6040 C   0  0  2  0  0  0  0  0  0  0  0  0
  -30.7090  -26.0121   17.1356 C   0  0  0  0  0  0  0  0  0  0  0  0
  -22.8202  -33.2336   14.0782 C   0  0  0  0  0  0  0  0  0  0  0  0
  -20.4898  -28.5210   18.1070 C   0  0  0  0  0  0  0  0  0  0  0  0
  -20.7318  -29.4343   15.7885 C   0  0  0  0  0  0  0  0  0  0  0  0
  -19.5403  -30.7621   17.5321 C   0  0  0  0  0  0  0  0  0  0  0  0
  -29.1751  -24.5797   20.4376 C   0  0  0  0  0  0  0  0  0  0  0  0
  -25.5383  -33.9415   16.6448 C   0  0  0  0  0  0  0  0  0  0  0  0
  -28.8298  -21.1179   19.1393 C   0  0  0  0  0  0  0  0  0  0  0  0
  -30.5516  -25.4968   18.5615 C   0  0  0  0  0  0  0  0  0  0  0  0
  -28.5295  -23.9460   18.0497 C   0  0  0  0  0  0  0  0  0  0  0  0
  -28.1323  -26.2661   18.9040 C   0  0  0  0  0  0  0  0  0  1  0  0
  -22.0543  -30.5251   17.6572 C   0  0  1  0  0  0  0  0  0  0  0  0
  -23.4299  -33.2987   15.4699 C   0  0  2  0  0  0  0  0  0  0  0  0
  -20.7270  -29.8048   17.2870 C   0  0  0  0  0  0  0  0  0  0  0  0
  -29.1132  -25.0643   18.9699 C   0  0  1  0  0  0  0  0  0  0  0  0
  -28.0552  -14.7136   21.1449 N   0  0  0  0  0  0  0  0  0  0  0  0
  -27.4091  -23.0987   18.6094 N   0  0  0  0  0  0  0  0  0  0  0  0
  -29.3473  -15.0724   21.0559 N   0  0  0  0  0  0  0  0  0  0  0  0
  -23.1750  -30.3315   19.8551 N   0  0  0  0  0  0  0  0  0  0  0  0
  -29.1228  -18.7666   22.0105 N   0  0  0  0  0  0  0  0  0  0  0  0
  -31.4635  -14.3361   20.2879 N   0  0  0  0  0  0  0  0  0  0  0  0
  -28.7199  -10.9092   19.2269 N   0  0  0  0  0  0  0  0  0  0  0  0
  -21.3753  -29.4873   22.5787 N   0  0  0  0  0  0  0  0  0  0  0  0
  -22.2919  -31.7586   16.9153 N   0  0  0  0  0  0  0  0  0  0  0  0
  -28.8050  -19.9451   19.9847 N   0  0  0  0  0  0  0  0  0  0  0  0
  -24.8261  -33.8054   15.3481 N   0  3  0  0  0  0  0  0  0  0  0  0
  -30.8903  -11.6465   19.1589 O   0  0  0  0  0  0  0  0  0  0  0  0
  -23.0785  -28.1594   21.7077 O   0  0  0  0  0  0  0  0  0  0  0  0
  -21.2734  -31.6547   19.5913 O   0  0  0  0  0  0  0  0  0  0  0  0
  -24.3191  -31.1138   15.9924 O   0  0  0  0  0  0  0  0  0  0  0  0
  -29.5836  -21.0335   21.8464 O   0  0  0  0  0  0  0  0  0  0  0  0
  -23.2401  -10.6557   20.1976 O   0  0  0  0  0  0  0  0  0  0  0  0
  -28.5672  -27.3376   19.7401 O   0  0  0  0  0  0  0  0  0  1  0  0
  -23.3180   -5.3079   21.5387 F   0  0  0  0  0  0  0  0  0  0  0  0
  -21.6588   -9.6841   22.2466 F   0  0  0  0  0  0  0  0  0  0  0  0
  1  2  1  0  0  0  0
  1  6  2  0  0  0  0
  2  7  2  0  0  0  0
  3 14  1  0  0  0  0
  3 17  2  0  0  0  0
  4  9  2  0  0  0  0
  4 18  1  0  0  0  0
  5 10  1  0  0  0  0
  5 18  2  0  0  0  0
  6 20  1  0  0  0  0
  7 22  1  0  0  0  0
  8 11  2  0  0  0  0
  8 21  1  0  0  0  0
  9 24  1  0  0  0  0
 10 24  2  0  0  0  0
 11 25  1  0  0  0  0
 12 13  2  0  0  0  0
 12 26  1  0  0  0  0
 13 27  1  0  0  0  0
 14 30  2  0  0  0  0
 15 23  1  0  0  0  0
 15 25  2  0  0  0  0
 16 27  2  0  0  0  0
 16 28  1  0  0  0  0
 17 65  1  0  0  0  0
 18 29  1  0  0  0  0
 19 29  1  0  0  0  0
 19 31  2  0  0  0  0
 19 32  1  0  0  0  0
 20 22  2  0  0  0  0
 20 37  1  0  0  0  0
 21 23  2  0  0  0  0
 21 38  1  0  0  0  0
 22 46  1  0  0  0  0
 23 39  1  0  0  0  0
 24 80  1  0  0  0  0
 25 81  1  0  0  0  0
 26 28  2  0  0  0  0
 26 80  1  0  0  0  0
 27 82  1  0  0  0  0
 28 83  1  0  0  0  0
 29 64  2  0  0  0  0
 30 56  1  0  0  0  0
 30 65  1  0  0  0  0
 31 66  1  0  0  0  0
 31 69  1  0  0  0  0
 32 70  1  0  0  0  0
 32 75  2  0  0  0  0
 33 47  1  0  0  0  0
 33 71  1  0  0  0  0
 33 76  2  0  0  0  0
 34 60  1  0  0  0  0
 34 67  1  0  0  0  0
 34 77  2  0  0  0  0
 35 61  1  0  0  0  0
 35 72  1  0  0  0  0
 35 78  2  0  0  0  0
 36 68  1  0  0  0  0
 36 73  1  0  0  0  0
 36 79  2  0  0  0  0
 37 40  1  0  0  0  0
 38 47  1  0  0  0  0
 39 67  1  0  0  0  0
 40 42  1  0  0  0  0
 41 43  1  0  0  0  0
 41 44  1  0  0  0  0
 42 46  1  0  0  0  0
 43 48  1  0  0  0  0
 44 68  1  0  0  0  0
 45 48  1  0  0  0  0
 45 68  1  0  0  0  0
 46 71  1  0  0  0  0
 47 67  1  0  0  0  0
 48 66  1  0  0  0  0
 49 57  1  0  0  0  0
 50 61  1  0  0  0  0
 51 62  1  0  0  0  0
 52 62  1  0  0  0  0
 53 62  1  0  0  0  0
 54 63  1  0  0  0  0
 55 74  1  0  0  0  0
 56 73  1  0  0  0  0
 57 63  1  0  0  0  0
 58 63  1  0  0  0  0
 58 65  1  0  0  0  0
 59 63  1  0  0  0  0
 59 81  1  0  0  0  0
 60 62  1  0  0  0  0
 60 72  1  0  0  0  0
 61 74  1  0  0  0  0
 64 66  1  0  0  0  0
M  CHG  1  74   1
M  ISO  4  36 100  59 101  73 100  81 101
M  END
> <Batch ID>
0116

> <Smiles>
CCC(C)(Cn1cccc1C[100NH:0][100C:0](=O)N1CCCC(n2nc(-c3ccc(Oc4ccc(F)cc4F)cc3)c(C(N)=O)c2N)C1)[101CH2:1][101O:1]c1ccc2c(c1)CN(C(=O)C(NC(=O)C(C)NC)C(C)(C)C)C(C(=O)NC1CCCc3ccccc31)C2

> <Shape>
0.305

> <Color>
0.088

> <Negative vol penalty>
0.000

$$$$

  -OEChem-04052320133D

 86 94  0     1  0  0  0  0  0999 V2000
  -29.7871  -31.7458   19.2424 C   0  0  0  0  0  0  0  0  0  0  0  0
  -30.8889  -30.9194   19.4387 C   0  0  0  0  0  0  0  0  0  0  0  0
  -23.0173   -9.8900   19.9716 C   0  0  0  0  0  0  0  0  0  0  0  0
  -23.6501   -9.9676   22.3019 C   0  0  0  0  0  0  0  0  0  0  0  0
  -28.7561  -31.7657   20.1807 C   0  0  0  0  0  0  0  0  0  0  0  0
  -30.9607  -30.1131   20.5741 C   0  0  0  0  0  0  0  0  0  0  0  0
  -33.4446  -23.7600   22.7616 C   0  0  0  0  0  0  0  0  0  0  0  0
  -22.2228   -8.7718   20.2245 C   0  0  0  0  0  0  0  0  0  0  0  0
  -22.8556   -8.8494   22.5549 C   0  0  0  0  0  0  0  0  0  0  0  0
  -34.2382  -23.2002   23.7619 C   0  0  0  0  0  0  0  0  0  0  0  0
  -23.0657   -5.4998   22.1458 C   0  0  0  0  0  0  0  0  0  0  0  0
  -23.6063   -4.4863   22.9369 C   0  0  0  0  0  0  0  0  0  0  0  0
  -32.3608  -23.2583   25.2756 C   0  0  0  0  0  0  0  0  0  0  0  0
  -21.8206   -4.7827   24.5371 C   0  0  0  0  0  0  0  0  0  0  0  0
  -23.7310  -10.4879   21.0103 C   0  0  0  0  0  0  0  0  0  0  0  0
  -24.1630  -12.9941   20.8105 C   0  0  0  0  0  0  0  0  0  0  0  0
  -28.8108  -30.9520   21.3234 C   0  0  0  0  0  0  0  0  0  0  0  0
  -32.1038  -24.0837   23.0145 C   0  0  0  0  0  0  0  0  0  0  0  0
  -29.9301  -30.1230   21.5292 C   0  0  0  0  0  0  0  0  0  0  0  0
  -31.5516  -23.8197   24.2760 C   0  0  0  0  0  0  0  0  0  0  0  0
  -22.1419   -8.2515   21.5162 C   0  0  0  0  0  0  0  0  0  0  0  0
  -33.6972  -22.9520   25.0200 C   0  0  0  0  0  0  0  0  0  0  0  0
  -21.9025   -6.1550   22.5503 C   0  0  0  0  0  0  0  0  0  0  0  0
  -22.9838   -4.1277   24.1325 C   0  0  0  0  0  0  0  0  0  0  0  0
  -21.2800   -5.7964   23.7459 C   0  0  0  0  0  0  0  0  0  0  0  0
  -24.5524  -11.6427   20.7495 C   0  0  0  0  0  0  0  0  0  0  0  0
  -25.2978  -13.6937   20.4799 C   0  0  0  0  0  0  0  0  0  0  0  0
  -22.8893  -13.5660   21.1368 C   0  0  0  0  0  0  0  0  0  0  0  0
  -30.4054  -26.7705   23.0083 C   0  0  0  0  0  0  0  0  0  0  0  0
  -30.4126  -17.5108   21.7235 C   0  0  0  0  0  0  0  0  0  0  0  0
  -27.9219  -24.7424   23.4999 C   0  0  0  0  0  0  0  0  0  0  0  0
  -26.3833  -21.8486   25.0085 C   0  0  0  0  0  0  0  0  0  0  0  0
  -30.7670  -14.5441   20.9054 C   0  0  0  0  0  0  0  0  0  0  0  0
  -27.6944  -31.0428   22.3333 C   0  0  0  0  0  0  0  0  0  0  0  0
  -31.2537  -24.6623   21.9168 C   0  0  0  0  0  0  0  0  0  0  0  0
  -30.1121  -24.1302   24.5923 C   0  0  0  0  0  0  0  0  0  0  0  0
  -27.6714  -29.8800   23.3221 C   0  0  0  0  0  0  0  0  0  0  0  0
  -29.7006  -12.1432   18.5699 C   0  0  0  0  0  0  0  0  0  0  0  0
  -29.0721  -29.6119   23.8634 C   0  0  0  0  0  0  0  0  0  0  0  0
  -28.2421  -11.8839   18.9397 C   0  0  0  0  0  0  0  0  0  0  0  0
  -31.1556  -15.1996   24.4356 C   0  0  0  0  0  0  0  0  0  0  0  0
  -30.5512  -12.3328   19.8192 C   0  0  0  0  0  0  0  0  0  0  0  0
  -30.2627  -14.5252   23.4026 C   0  0  0  0  0  0  0  0  0  0  0  0
  -28.6086  -13.2115   21.0816 C   0  0  0  0  0  0  0  0  0  0  0  0
  -30.0328  -29.2155   22.7359 C   0  0  1  0  0  0  0  0  0  0  0  0
  -30.0422  -25.4279   22.4398 C   0  0  1  0  0  0  0  0  0  0  0  0
  -31.2530  -16.4771   22.4053 C   0  0  1  0  0  0  0  0  0  0  0  0
  -27.7041  -12.9997   19.8502 C   0  0  2  0  0  0  0  0  0  0  0  0
  -31.2064  -16.6307   23.9214 C   0  0  2  0  0  0  0  0  0  0  0  0
  -24.0939  -20.8693   24.6970 C   0  0  0  0  0  0  0  0  0  0  0  0
  -36.8555  -22.1197   26.0299 C   0  0  0  0  0  0  0  0  0  0  0  0
  -27.1840  -26.4342   25.9296 C   0  0  0  0  0  0  0  0  0  0  0  0
  -25.7349  -24.5496   26.7146 C   0  0  0  0  0  0  0  0  0  0  0  0
  -25.2373  -25.6851   24.5499 C   0  0  0  0  0  0  0  0  0  0  0  0
  -30.5098  -19.7179   20.5826 C   0  0  0  0  0  0  0  0  0  0  0  0
  -27.4878  -19.1967   24.2968 C   0  0  0  0  0  0  0  0  0  0  0  0
  -33.9663  -19.5294   25.7355 C   0  0  0  0  0  0  0  0  0  0  0  0
  -33.7780  -18.1294   26.3280 C   0  0  0  0  0  0  0  0  0  0  0  0
  -35.2972  -20.1452   26.1847 C   0  0  0  0  0  0  0  0  0  0  0  0
  -32.4746  -17.4626   25.9059 C   0  0  0  0  0  0  0  0  0  0  0  0
  -27.2444  -24.1566   24.7151 C   0  0  1  0  0  0  0  0  0  0  0  0
  -25.5605  -20.7855   24.3034 C   0  0  2  0  0  0  0  0  0  0  0  0
  -35.5226  -21.5351   25.5824 C   0  0  1  0  0  0  0  0  0  1  0  0
  -26.3778  -25.2022   25.4722 C   0  0  0  0  0  0  0  0  0  0  0  0
  -25.8344  -11.4904   20.4070 N   0  0  0  0  0  0  0  0  0  0  0  0
  -26.2603  -12.7553   20.2496 N   0  0  0  0  0  0  0  0  0  0  0  0
  -29.3233  -24.7007   23.4879 N   0  0  0  0  0  0  0  0  0  0  0  0
  -30.0122  -13.3849   20.6825 N   0  0  0  0  0  0  0  0  0  0  0  0
  -30.6176  -15.1827   22.1407 N   0  0  0  0  0  0  0  0  0  0  0  0
  -25.5561  -15.0138   20.3665 N   0  0  0  0  0  0  0  0  0  0  0  0
  -21.8307  -12.7034   21.4522 N   0  0  0  0  0  0  0  0  0  0  0  0
  -29.8200  -27.8364   22.3520 N   0  0  0  0  0  0  0  0  0  0  0  0
  -31.1244  -18.6049   21.2701 N   0  0  0  0  0  0  0  0  0  0  0  0
  -26.5016  -22.9917   24.2465 N   0  0  0  0  0  0  0  0  0  0  0  0
  -32.4105  -17.3226   24.4225 N   0  3  0  0  0  0  0  0  0  0  0  0
  -26.0634  -19.4263   24.6507 N   0  3  0  0  0  0  0  0  0  0  0  0
  -22.6914  -14.8047   21.1324 O   0  0  0  0  0  0  0  0  0  0  0  0
  -31.1595  -26.8346   23.9721 O   0  0  0  0  0  0  0  0  0  0  0  0
  -29.2054  -17.3314   21.6135 O   0  0  0  0  0  0  0  0  0  0  0  0
  -27.2328  -25.2131   22.5914 O   0  0  0  0  0  0  0  0  0  0  0  0
  -26.8692  -21.6831   26.1252 O   0  0  0  0  0  0  0  0  0  0  0  0
  -31.5518  -14.9770   20.0515 O   0  0  0  0  0  0  0  0  0  0  0  0
  -21.3666   -7.1605   21.7634 O   0  0  0  0  0  0  0  0  0  0  0  0
  -34.4745  -22.4030   26.0043 O   0  0  0  0  0  0  0  0  0  1  0  0
  -23.5023   -3.1532   24.8914 F   0  0  0  0  0  0  0  0  0  0  0  0
  -20.1617   -6.4213   24.1392 F   0  0  0  0  0  0  0  0  0  0  0  0
  1  2  1  0  0  0  0
  1  5  2  0  0  0  0
  2  6  2  0  0  0  0
  3  8  2  0  0  0  0
  3 15  1  0  0  0  0
  4  9  1  0  0  0  0
  4 15  2  0  0  0  0
  5 17  1  0  0  0  0
  6 19  1  0  0  0  0
  7 10  2  0  0  0  0
  7 18  1  0  0  0  0
  8 21  1  0  0  0  0
  9 21  2  0  0  0  0
 10 22  1  0  0  0  0
 11 12  2  0  0  0  0
 11 23  1  0  0  0  0
 12 24  1  0  0  0  0
 13 20  1  0  0  0  0
 13 22  2  0  0  0  0
 14 24  2  0  0  0  0
 14 25  1  0  0  0  0
 15 26  1  0  0  0  0
 16 26  1  0  0  0  0
 16 27  2  0  0  0  0
 16 28  1  0  0  0  0
 17 19  2  0  0  0  0
 17 34  1  0  0  0  0
 18 20  2  0  0  0  0
 18 35  1  0  0  0  0
 19 45  1  0  0  0  0
 20 36  1  0  0  0  0
 21 83  1  0  0  0  0
 22 84  1  0  0  0  0
 23 25  2  0  0  0  0
 23 83  1  0  0  0  0
 24 85  1  0  0  0  0
 25 86  1  0  0  0  0
 26 65  2  0  0  0  0
 27 66  1  0  0  0  0
 27 70  1  0  0  0  0
 28 71  1  0  0  0  0
 28 77  2  0  0  0  0
 29 46  1  0  0  0  0
 29 72  1  0  0  0  0
 29 78  2  0  0  0  0
 30 47  1  0  0  0  0
 30 73  1  0  0  0  0
 30 79  2  0  0  0  0
 31 61  1  0  0  0  0
 31 67  1  0  0  0  0
 31 80  2  0  0  0  0
 32 62  1  0  0  0  0
 32 74  1  0  0  0  0
 32 81  2  0  0  0  0
 33 68  1  0  0  0  0
 33 69  1  0  0  0  0
 33 82  2  0  0  0  0
 34 37  1  0  0  0  0
 35 46  1  0  0  0  0
 36 67  1  0  0  0  0
 37 39  1  0  0  0  0
 38 40  1  0  0  0  0
 38 42  1  0  0  0  0
 39 45  1  0  0  0  0
 40 48  1  0  0  0  0
 41 43  1  0  0  0  0
 41 49  1  0  0  0  0
 42 68  1  0  0  0  0
 43 69  1  0  0  0  0
 44 48  1  0  0  0  0
 44 68  1  0  0  0  0
 45 72  1  0  0  0  0
 46 67  1  0  0  0  0
 47 49  1  0  0  0  0
 47 69  1  0  0  0  0
 48 66  1  0  0  0  0
 49 75  1  0  0  0  0
 50 62  1  0  0  0  0
 51 63  1  0  0  0  0
 52 64  1  0  0  0  0
 53 64  1  0  0  0  0
 54 64  1  0  0  0  0
 55 73  1  0  0  0  0
 56 76  1  0  0  0  0
 57 58  1  0  0  0  0
 57 59  1  0  0  0  0
 58 60  1  0  0  0  0
 59 63  1  0  0  0  0
 60 75  1  0  0  0  0
 61 64  1  0  0  0  0
 61 74  1  0  0  0  0
 62 76  1  0  0  0  0
 63 84  1  0  0  0  0
 65 66  1  0  0  0  0
M  CHG  2  75   1  76   1
M  ISO  4  33 100  63 101  69 100  84 101
M  END
> <Batch ID>
0116

> <Smiles>
CNC(=O)C1C(NCCCC[101CH:1](C)[101O:1]c2ccc3c(c2)CN(C(=O)C(NC(=O)C(C)NC)C(C)(C)C)C(C(=O)NC2CCCc4ccccc42)C3)CC[100N:0]1[100C:0](=O)N1CCCC(n2nc(-c3ccc(Oc4ccc(F)cc4F)cc3)c(C(N)=O)c2N)C1

> <Shape>
0.206

> <Color>
0.191

> <Negative vol penalty>
0.000

$$$$

  -OEChem-04052320133D

 86 95  0     1  0  0  0  0  0999 V2000
  -29.3021  -31.6122   26.0688 C   0  0  0  0  0  0  0  0  0  0  0  0
  -29.0332  -30.4544   25.3460 C   0  0  0  0  0  0  0  0  0  0  0  0
  -23.3931  -10.2094   22.5135 C   0  0  0  0  0  0  0  0  0  0  0  0
  -21.5796  -10.7851   21.0245 C   0  0  0  0  0  0  0  0  0  0  0  0
  -28.2529  -32.4220   26.5016 C   0  0  0  0  0  0  0  0  0  0  0  0
  -27.7146  -30.1050   25.0565 C   0  0  0  0  0  0  0  0  0  0  0  0
  -27.1085  -28.6187   20.2535 C   0  0  0  0  0  0  0  0  0  0  0  0
  -23.1237   -8.8549   22.3179 C   0  0  0  0  0  0  0  0  0  0  0  0
  -21.3103   -9.4305   20.8289 C   0  0  0  0  0  0  0  0  0  0  0  0
  -27.5146  -27.3244   19.9315 C   0  0  0  0  0  0  0  0  0  0  0  0
  -20.8914   -6.5738   23.4302 C   0  0  0  0  0  0  0  0  0  0  0  0
  -20.8690   -5.7492   24.5550 C   0  0  0  0  0  0  0  0  0  0  0  0
  -28.5781  -21.4499   17.8463 C   0  0  0  0  0  0  0  0  0  0  0  0
  -25.2238  -26.5797   20.0625 C   0  0  0  0  0  0  0  0  0  0  0  0
  -22.6600   -4.4247   23.6195 C   0  0  0  0  0  0  0  0  0  0  0  0
  -28.2553  -22.7864   17.7629 C   0  0  0  0  0  0  0  0  0  0  0  0
  -29.0747  -22.4232   19.8150 C   0  0  0  0  0  0  0  0  0  0  0  0
  -22.6210  -11.1746   21.8668 C   0  0  0  0  0  0  0  0  0  0  0  0
  -22.8689  -13.2792   23.2869 C   0  0  0  0  0  0  0  0  0  0  0  0
  -26.9213  -32.0875   26.2089 C   0  0  0  0  0  0  0  0  0  0  0  0
  -25.7562  -28.9015   20.4936 C   0  0  0  0  0  0  0  0  0  0  0  0
  -26.6465  -30.9104   25.4869 C   0  0  0  0  0  0  0  0  0  0  0  0
  -29.0966  -21.2201   19.1445 C   0  0  0  0  0  0  0  0  0  0  0  0
  -24.8029  -27.8789   20.3849 C   0  0  0  0  0  0  0  0  0  0  0  0
  -22.0824   -8.4655   21.4756 C   0  0  0  0  0  0  0  0  0  0  0  0
  -26.5725  -26.3041   19.8388 C   0  0  0  0  0  0  0  0  0  0  0  0
  -21.7979   -6.3238   22.4000 C   0  0  0  0  0  0  0  0  0  0  0  0
  -21.7534   -4.6747   24.6497 C   0  0  0  0  0  0  0  0  0  0  0  0
  -22.6823   -5.2492   22.4947 C   0  0  0  0  0  0  0  0  0  0  0  0
  -22.8984  -12.5740   22.0689 C   0  0  0  0  0  0  0  0  0  0  0  0
  -23.2042  -14.5669   22.9463 C   0  0  0  0  0  0  0  0  0  0  0  0
  -22.5657  -12.8121   24.6081 C   0  0  0  0  0  0  0  0  0  0  0  0
  -24.0956  -29.9688   22.9850 C   0  0  0  0  0  0  0  0  0  0  0  0
  -21.6545  -30.0003   20.8491 C   0  0  0  0  0  0  0  0  0  0  0  0
  -20.4360  -27.8619   18.2110 C   0  0  0  0  0  0  0  0  0  0  0  0
  -26.3210  -16.9015   18.3981 C   0  0  0  0  0  0  0  0  0  0  0  0
  -25.8181  -32.9690   26.7386 C   0  0  0  0  0  0  0  0  0  0  0  0
  -25.3311  -30.3083   20.8137 C   0  0  0  0  0  0  0  0  0  0  0  0
  -23.3363  -28.1345   20.6133 C   0  0  0  0  0  0  0  0  0  0  0  0
  -24.4687  -32.7254   26.0678 C   0  0  0  0  0  0  0  0  0  0  0  0
  -22.9626  -17.6605   19.3046 C   0  0  0  0  0  0  0  0  0  0  0  0
  -30.7170  -19.1974   18.9366 C   0  0  0  0  0  0  0  0  0  0  0  0
  -24.1771  -31.2306   25.9822 C   0  0  0  0  0  0  0  0  0  0  0  0
  -22.5627  -16.5066   20.2258 C   0  0  0  0  0  0  0  0  0  0  0  0
  -30.7424  -17.8090   19.5606 C   0  0  0  0  0  0  0  0  0  0  0  0
  -28.5033  -18.8042   19.7280 C   0  0  0  0  0  0  0  0  0  0  0  0
  -23.8710  -17.1891   18.1713 C   0  0  0  0  0  0  0  0  0  0  0  0
  -24.6685  -15.2917   19.5270 C   0  0  0  0  0  0  0  0  0  0  0  0
  -29.5857  -19.8979   19.6942 C   0  0  2  0  0  0  0  0  0  0  0  0
  -25.2307  -30.5108   25.1318 C   0  0  1  0  0  0  0  0  0  0  0  0
  -23.9926  -30.3768   21.5426 C   0  0  1  0  0  0  0  0  0  0  0  0
  -23.7976  -15.7279   20.7176 C   0  0  2  0  0  0  0  0  0  0  0  0
  -29.2608  -17.4554   19.8075 C   0  0  1  0  0  0  0  0  0  0  0  0
  -19.1231  -28.4082   16.1433 C   0  0  0  0  0  0  0  0  0  0  0  0
  -29.8832  -15.5097   21.2618 C   0  0  0  0  0  0  0  0  0  0  0  0
  -29.5130  -17.7738   22.2818 C   0  0  0  0  0  0  0  0  0  0  0  0
  -19.2239  -29.3164   22.5621 C   0  0  0  0  0  0  0  0  0  0  0  0
  -18.1968  -28.2368   20.5501 C   0  0  0  0  0  0  0  0  0  0  0  0
  -18.7157  -30.6767   20.5260 C   0  0  0  0  0  0  0  0  0  0  0  0
  -22.4497  -26.5882   16.4555 C   0  0  0  0  0  0  0  0  0  0  0  0
  -28.7460  -16.4911   18.7297 C   0  0  0  0  0  0  0  0  0  0  0  0
  -28.3623  -24.8220   19.3022 C   0  0  0  0  0  0  0  0  0  1  0  0
  -20.6091  -29.0056   20.4056 C   0  0  1  0  0  0  0  0  0  0  0  0
  -20.5034  -28.1314   16.7186 C   0  0  2  0  0  0  0  0  0  0  0  0
  -29.0861  -16.8058   21.1858 C   0  0  0  0  0  0  0  0  0  0  0  0
  -19.2118  -29.3004   21.0205 C   0  0  0  0  0  0  0  0  0  0  0  0
  -23.2263  -13.3493   21.0320 N   0  0  0  0  0  0  0  0  0  0  0  0
  -28.5612  -23.3680   18.9656 N   0  0  0  0  0  0  0  0  0  0  0  0
  -23.4059  -14.5552   21.5975 N   0  0  0  0  0  0  0  0  0  0  0  0
  -22.9711  -29.5251   20.9299 N   0  0  0  0  0  0  0  0  0  0  0  0
  -25.0236  -16.4592   18.7050 N   0  0  0  0  0  0  0  0  0  0  0  0
  -23.3431  -15.6967   23.6720 N   0  0  0  0  0  0  0  0  0  0  0  0
  -22.2417  -11.4595   24.7806 N   0  0  0  0  0  0  0  0  0  0  0  0
  -24.9803  -30.7313   23.7236 N   0  0  0  0  0  0  0  0  0  0  0  0
  -20.6332  -29.0111   18.9469 N   0  0  0  0  0  0  0  0  0  0  0  0
  -27.3565  -16.1569   18.9495 N   0  0  0  0  0  0  0  0  0  0  0  0
  -21.0829  -26.9578   16.0059 N   0  3  0  0  0  0  0  0  0  0  0  0
  -22.5655  -13.5752   25.6037 O   0  0  0  0  0  0  0  0  0  0  0  0
  -23.4213  -29.0325   23.3977 O   0  0  0  0  0  0  0  0  0  0  0  0
  -21.3165  -31.1582   21.1073 O   0  0  0  0  0  0  0  0  0  0  0  0
  -20.2255  -26.7444   18.6772 O   0  0  0  0  0  0  0  0  0  0  0  0
  -26.5402  -17.8900   17.6898 O   0  0  0  0  0  0  0  0  0  0  0  0
  -21.8194   -7.1438   21.2843 O   0  0  0  0  0  0  0  0  0  0  0  0
  -26.9662  -25.0397   19.5252 O   0  0  0  0  0  0  0  0  0  1  0  0
  -21.7329   -3.8838   25.7306 F   0  0  0  0  0  0  0  0  0  0  0  0
  -23.5563   -5.0048   21.5087 F   0  0  0  0  0  0  0  0  0  0  0  0
  1  2  1  0  0  0  0
  1  5  2  0  0  0  0
  2  6  2  0  0  0  0
  3  8  2  0  0  0  0
  3 18  1  0  0  0  0
  4  9  1  0  0  0  0
  4 18  2  0  0  0  0
  5 20  1  0  0  0  0
  6 22  1  0  0  0  0
  7 10  2  0  0  0  0
  7 21  1  0  0  0  0
  8 25  1  0  0  0  0
  9 25  2  0  0  0  0
 10 26  1  0  0  0  0
 11 12  2  0  0  0  0
 11 27  1  0  0  0  0
 12 28  1  0  0  0  0
 13 16  2  0  0  0  0
 13 23  1  0  0  0  0
 14 24  1  0  0  0  0
 14 26  2  0  0  0  0
 15 28  2  0  0  0  0
 15 29  1  0  0  0  0
 16 68  1  0  0  0  0
 17 23  2  0  0  0  0
 17 68  1  0  0  0  0
 18 30  1  0  0  0  0
 19 30  1  0  0  0  0
 19 31  2  0  0  0  0
 19 32  1  0  0  0  0
 20 22  2  0  0  0  0
 20 37  1  0  0  0  0
 21 24  2  0  0  0  0
 21 38  1  0  0  0  0
 22 50  1  0  0  0  0
 23 49  1  0  0  0  0
 24 39  1  0  0  0  0
 25 83  1  0  0  0  0
 26 84  1  0  0  0  0
 27 29  2  0  0  0  0
 27 83  1  0  0  0  0
 28 85  1  0  0  0  0
 29 86  1  0  0  0  0
 30 67  2  0  0  0  0
 31 69  1  0  0  0  0
 31 72  1  0  0  0  0
 32 73  1  0  0  0  0
 32 78  2  0  0  0  0
 33 51  1  0  0  0  0
 33 74  1  0  0  0  0
 33 79  2  0  0  0  0
 34 63  1  0  0  0  0
 34 70  1  0  0  0  0
 34 80  2  0  0  0  0
 35 64  1  0  0  0  0
 35 75  1  0  0  0  0
 35 81  2  0  0  0  0
 36 71  1  0  0  0  0
 36 76  1  0  0  0  0
 36 82  2  0  0  0  0
 37 40  1  0  0  0  0
 38 51  1  0  0  0  0
 39 70  1  0  0  0  0
 40 43  1  0  0  0  0
 41 44  1  0  0  0  0
 41 47  1  0  0  0  0
 42 45  1  0  0  0  0
 42 49  1  0  0  0  0
 43 50  1  0  0  0  0
 44 52  1  0  0  0  0
 45 53  1  0  0  0  0
 46 49  1  0  0  0  0
 46 53  1  0  0  0  0
 47 71  1  0  0  0  0
 48 52  1  0  0  0  0
 48 71  1  0  0  0  0
 50 74  1  0  0  0  0
 51 70  1  0  0  0  0
 52 69  1  0  0  0  0
 53 61  1  0  0  0  0
 53 65  1  0  0  0  0
 54 64  1  0  0  0  0
 55 65  1  0  0  0  0
 56 65  1  0  0  0  0
 57 66  1  0  0  0  0
 58 66  1  0  0  0  0
 59 66  1  0  0  0  0
 60 77  1  0  0  0  0
 61 76  1  0  0  0  0
 62 68  1  0  0  0  0
 62 84  1  0  0  0  0
 63 66  1  0  0  0  0
 63 75  1  0  0  0  0
 64 77  1  0  0  0  0
 67 69  1  0  0  0  0
M  CHG  1  77   1
M  ISO  4  36 100  62 101  76 100  84 101
M  END
> <Batch ID>
0116

> <Smiles>
CNC(C)C(=O)NC(C(=O)N1Cc2cc([101O:1][101CH2:1]n3ccc(C4CCC(C[100NH:0][100C:0](=O)N5CCCC(n6nc(-c7ccc(Oc8ccc(F)cc8F)cc7)c(C(N)=O)c6N)C5)(C(C)C)C4)c3)ccc2CC1C(=O)NC1CCCc2ccccc21)C(C)(C)C

> <Shape>
0.304

> <Color>
0.080

> <Negative vol penalty>
0.000

$$$$

  -OEChem-04052320133D

 85 93  0     1  0  0  0  0  0999 V2000
  -24.6983  -18.0961   22.2651 C   0  0  0  0  0  0  0  0  0  0  0  0
  -25.4381  -19.2089   22.6489 C   0  0  0  0  0  0  0  0  0  0  0  0
  -26.1138  -13.0701   21.0074 C   0  0  0  0  0  0  0  0  0  0  0  0
  -26.3650  -12.9414   18.6079 C   0  0  0  0  0  0  0  0  0  0  0  0
  -23.6687  -18.2347   21.3367 C   0  0  0  0  0  0  0  0  0  0  0  0
  -25.1408  -20.4626   22.1135 C   0  0  0  0  0  0  0  0  0  0  0  0
  -27.9150  -25.8388   22.8396 C   0  0  0  0  0  0  0  0  0  0  0  0
  -31.4075  -25.5407   17.9359 C   0  0  0  0  0  0  0  0  0  0  0  0
  -24.9559  -12.2964   20.9276 C   0  0  0  0  0  0  0  0  0  0  0  0
  -25.2071  -12.1677   18.5281 C   0  0  0  0  0  0  0  0  0  0  0  0
  -28.9175  -26.5732   22.2076 C   0  0  0  0  0  0  0  0  0  0  0  0
  -24.1629   -9.0291   20.5686 C   0  0  0  0  0  0  0  0  0  0  0  0
  -24.0133   -7.9896   21.4865 C   0  0  0  0  0  0  0  0  0  0  0  0
  -31.2383  -24.1924   17.6413 C   0  0  0  0  0  0  0  0  0  0  0  0
  -27.2386  -27.8076   20.9922 C   0  0  0  0  0  0  0  0  0  0  0  0
  -21.9847   -9.0099   22.3116 C   0  0  0  0  0  0  0  0  0  0  0  0
  -26.8183  -13.3926   19.8475 C   0  0  0  0  0  0  0  0  0  0  0  0
  -29.3347  -13.7324   20.0919 C   0  0  0  0  0  0  0  0  0  0  0  0
  -23.3675  -19.4889   20.7807 C   0  0  0  0  0  0  0  0  0  0  0  0
  -26.5649  -26.0762   22.5441 C   0  0  0  0  0  0  0  0  0  0  0  0
  -24.0899  -20.6271   21.1931 C   0  0  0  0  0  0  0  0  0  0  0  0
  -26.2209  -27.0766   21.6238 C   0  0  0  0  0  0  0  0  0  0  0  0
  -30.4081  -26.4494   17.6061 C   0  0  0  0  0  0  0  0  0  0  0  0
  -24.5025  -11.8453   19.6880 C   0  0  0  0  0  0  0  0  0  0  0  0
  -28.5795  -27.5558   21.2816 C   0  0  0  0  0  0  0  0  0  0  0  0
  -23.2234  -10.0592   20.5223 C   0  0  0  0  0  0  0  0  0  0  0  0
  -22.9243   -7.9799   22.3580 C   0  0  0  0  0  0  0  0  0  0  0  0
  -22.1343  -10.0495   21.3937 C   0  0  0  0  0  0  0  0  0  0  0  0
  -28.0142  -14.1922   19.9291 C   0  0  0  0  0  0  0  0  0  0  0  0
  -30.0606  -23.8068   17.0213 C   0  0  0  0  0  0  0  0  0  0  0  0
  -29.2677  -25.9628   16.9875 C   0  0  0  0  0  0  0  0  0  0  0  0
  -30.0965  -14.8752   20.1095 C   0  0  0  0  0  0  0  0  0  0  0  0
  -29.8287  -12.3922   20.2159 C   0  0  0  0  0  0  0  0  0  0  0  0
  -24.2015  -24.3470   21.3082 C   0  0  0  0  0  0  0  0  0  0  0  0
  -22.4232  -26.9534   22.0605 C   0  0  0  0  0  0  0  0  0  0  0  0
  -22.3163  -30.3085   22.6759 C   0  0  0  0  0  0  0  0  0  0  0  0
  -29.2144  -20.2266   17.7770 C   0  0  0  0  0  0  0  0  0  0  0  0
  -22.2377  -19.5833   19.7858 C   0  0  0  0  0  0  0  0  0  0  0  0
  -25.4945  -25.2938   23.2544 C   0  0  0  0  0  0  0  0  0  0  0  0
  -24.7855  -27.3842   21.2866 C   0  0  0  0  0  0  0  0  0  0  0  0
  -22.2882  -20.8568   18.9479 C   0  0  0  0  0  0  0  0  0  0  0  0
  -29.8629  -19.5138   21.2654 C   0  0  0  0  0  0  0  0  0  0  0  0
  -22.4679  -22.0670   19.8521 C   0  0  0  0  0  0  0  0  0  0  0  0
  -29.5837  -18.0110   21.3258 C   0  0  0  0  0  0  0  0  0  0  0  0
  -28.8910  -20.2193   20.3242 C   0  0  0  0  0  0  0  0  0  0  0  0
  -28.5834  -18.1645   18.9986 C   0  0  0  0  0  0  0  0  0  0  0  0
  -23.8046  -21.9955   20.6011 C   0  0  1  0  0  0  0  0  0  0  0  0
  -24.1712  -25.2669   22.4958 C   0  0  1  0  0  0  0  0  0  0  0  0
  -29.5472  -17.3908   19.9165 C   0  0  2  0  0  0  0  0  0  0  0  0
  -31.1842  -28.6639   16.7209 C   0  0  0  0  0  0  0  0  0  0  0  0
  -26.8470  -26.5661   17.3482 C   0  0  0  0  0  0  0  0  0  0  0  0
  -27.9146  -26.9308   15.0938 C   0  0  0  0  0  0  0  0  0  0  0  0
  -20.7144  -32.1606   23.2248 C   0  0  0  0  0  0  0  0  0  0  0  0
  -21.4692  -26.9839   19.1624 C   0  0  0  0  0  0  0  0  0  0  0  0
  -20.6681  -29.3282   19.5238 C   0  0  0  0  0  0  0  0  0  0  0  0
  -19.6876  -27.4582   20.8521 C   0  0  0  0  0  0  0  0  0  0  0  0
  -23.6739  -30.8786   25.2432 C   0  0  0  0  0  0  0  0  0  0  0  0
  -29.8450  -22.3673   16.6922 C   0  0  0  0  0  0  0  0  0  0  0  0
  -31.4425  -28.1709   19.1822 C   0  0  0  0  0  0  0  0  0  0  0  0
  -30.8095  -27.6231   20.4579 C   0  0  0  0  0  0  0  0  0  1  0  0
  -30.5877  -27.9237   17.9241 C   0  0  2  0  0  0  0  0  0  0  0  0
  -28.1600  -26.8922   16.6132 C   0  0  0  0  0  0  0  0  0  0  0  0
  -22.0432  -28.2299   21.3496 C   0  0  1  0  0  0  0  0  0  0  0  0
  -21.6586  -31.1086   23.7858 C   0  0  2  0  0  0  0  0  0  0  0  0
  -20.9942  -27.9932   20.2267 C   0  0  0  0  0  0  0  0  0  0  0  0
  -27.9378  -15.5233   19.8493 N   0  0  0  0  0  0  0  0  0  0  0  0
  -29.0675  -24.6603   16.6856 N   0  0  0  0  0  0  0  0  0  0  0  0
  -29.2199  -15.9097   19.9624 N   0  0  0  0  0  0  0  0  0  0  0  0
  -23.7755  -26.5877   22.0027 N   0  0  0  0  0  0  0  0  0  0  0  0
  -28.9183  -19.5925   18.9951 N   0  0  0  0  0  0  0  0  0  0  0  0
  -31.4238  -15.0860   20.2365 N   0  0  0  0  0  0  0  0  0  0  0  0
  -28.9094  -11.3350   20.1771 N   0  0  0  0  0  0  0  0  0  0  0  0
  -23.8445  -23.0436   21.5969 N   0  0  0  0  0  0  0  0  0  0  0  0
  -21.6095  -29.1607   22.3859 N   0  0  0  0  0  0  0  0  0  0  0  0
  -29.5142  -21.5808   17.8597 N   0  0  0  0  0  0  0  0  0  0  0  0
  -22.6917  -31.7963   24.6108 N   0  3  0  0  0  0  0  0  0  0  0  0
  -31.0475  -12.1405   20.3735 O   0  0  0  0  0  0  0  0  0  0  0  0
  -24.5235  -24.7873   20.2109 O   0  0  0  0  0  0  0  0  0  0  0  0
  -21.5534  -26.3085   22.6515 O   0  0  0  0  0  0  0  0  0  0  0  0
  -23.3514  -30.6679   22.1192 O   0  0  0  0  0  0  0  0  0  0  0  0
  -29.2169  -19.6286   16.6956 O   0  0  0  0  0  0  0  0  0  0  0  0
  -23.3728  -11.0901   19.6099 O   0  0  0  0  0  0  0  0  0  0  0  0
  -29.5561  -28.2736   20.6627 O   0  0  0  0  0  0  0  0  0  1  0  0
  -22.7800   -6.9808   23.2383 F   0  0  0  0  0  0  0  0  0  0  0  0
  -21.2278  -11.0357   21.3530 F   0  0  0  0  0  0  0  0  0  0  0  0
  1  2  1  0  0  0  0
  1  5  2  0  0  0  0
  2  6  2  0  0  0  0
  3  9  2  0  0  0  0
  3 17  1  0  0  0  0
  4 10  1  0  0  0  0
  4 17  2  0  0  0  0
  5 19  1  0  0  0  0
  6 21  1  0  0  0  0
  7 11  2  0  0  0  0
  7 20  1  0  0  0  0
  8 14  2  0  0  0  0
  8 23  1  0  0  0  0
  9 24  1  0  0  0  0
 10 24  2  0  0  0  0
 11 25  1  0  0  0  0
 12 13  2  0  0  0  0
 12 26  1  0  0  0  0
 13 27  1  0  0  0  0
 14 30  1  0  0  0  0
 15 22  1  0  0  0  0
 15 25  2  0  0  0  0
 16 27  2  0  0  0  0
 16 28  1  0  0  0  0
 17 29  1  0  0  0  0
 18 29  1  0  0  0  0
 18 32  2  0  0  0  0
 18 33  1  0  0  0  0
 19 21  2  0  0  0  0
 19 38  1  0  0  0  0
 20 22  2  0  0  0  0
 20 39  1  0  0  0  0
 21 47  1  0  0  0  0
 22 40  1  0  0  0  0
 23 31  2  0  0  0  0
 23 61  1  0  0  0  0
 24 82  1  0  0  0  0
 25 83  1  0  0  0  0
 26 28  2  0  0  0  0
 26 82  1  0  0  0  0
 27 84  1  0  0  0  0
 28 85  1  0  0  0  0
 29 66  2  0  0  0  0
 30 58  1  0  0  0  0
 30 67  2  0  0  0  0
 31 62  1  0  0  0  0
 31 67  1  0  0  0  0
 32 68  1  0  0  0  0
 32 71  1  0  0  0  0
 33 72  1  0  0  0  0
 33 77  2  0  0  0  0
 34 48  1  0  0  0  0
 34 73  1  0  0  0  0
 34 78  2  0  0  0  0
 35 63  1  0  0  0  0
 35 69  1  0  0  0  0
 35 79  2  0  0  0  0
 36 64  1  0  0  0  0
 36 74  1  0  0  0  0
 36 80  2  0  0  0  0
 37 70  1  0  0  0  0
 37 75  1  0  0  0  0
 37 81  2  0  0  0  0
 38 41  1  0  0  0  0
 39 48  1  0  0  0  0
 40 69  1  0  0  0  0
 41 43  1  0  0  0  0
 42 44  1  0  0  0  0
 42 45  1  0  0  0  0
 43 47  1  0  0  0  0
 44 49  1  0  0  0  0
 45 70  1  0  0  0  0
 46 49  1  0  0  0  0
 46 70  1  0  0  0  0
 47 73  1  0  0  0  0
 48 69  1  0  0  0  0
 49 68  1  0  0  0  0
 50 61  1  0  0  0  0
 51 62  1  0  0  0  0
 52 62  1  0  0  0  0
 53 64  1  0  0  0  0
 54 65  1  0  0  0  0
 55 65  1  0  0  0  0
 56 65  1  0  0  0  0
 57 76  1  0  0  0  0
 58 75  1  0  0  0  0
 59 60  1  0  0  0  0
 59 61  1  0  0  0  0
 60 83  1  0  0  0  0
 63 65  1  0  0  0  0
 63 74  1  0  0  0  0
 64 76  1  0  0  0  0
 66 68  1  0  0  0  0
M  CHG  1  76   1
M  ISO  4  37 100  60 101  75 100  83 101
M  END
> <Batch ID>
0116

> <Smiles>
CNC(C)C(=O)NC(C(=O)N1Cc2cc([101O:1][101CH2:1]CC(C)c3ccc(C[100NH:0][100C:0](=O)N4CCCC(n5nc(-c6ccc(Oc7ccc(F)cc7F)cc6)c(C(N)=O)c5N)C4)nc3C(C)C)ccc2CC1C(=O)NC1CCCc2ccccc21)C(C)(C)C

> <Shape>
0.248

> <Color>
0.055

> <Negative vol penalty>
0.000

$$$$

  -OEChem-04052320133D

 82 90  0     1  0  0  0  0  0999 V2000
  -25.4254  -19.4976   17.8805 C   0  0  0  0  0  0  0  0  0  0  0  0
  -24.8251  -20.6856   18.2851 C   0  0  0  0  0  0  0  0  0  0  0  0
  -22.3419  -16.7703   20.8441 C   0  0  0  0  0  0  0  0  0  0  0  0
  -24.1693  -18.1849   21.5487 C   0  0  0  0  0  0  0  0  0  0  0  0
  -26.7127  -19.1850   18.3154 C   0  0  0  0  0  0  0  0  0  0  0  0
  -25.5114  -21.5613   19.1258 C   0  0  0  0  0  0  0  0  0  0  0  0
  -25.2340  -27.6791   19.0865 C   0  0  0  0  0  0  0  0  0  0  0  0
  -23.2530  -15.7947   20.4396 C   0  0  0  0  0  0  0  0  0  0  0  0
  -25.0805  -17.2093   21.1442 C   0  0  0  0  0  0  0  0  0  0  0  0
  -24.5179  -28.5905   19.8612 C   0  0  0  0  0  0  0  0  0  0  0  0
  -25.1424  -13.3959   21.8917 C   0  0  0  0  0  0  0  0  0  0  0  0
  -24.8765  -12.0735   22.2469 C   0  0  0  0  0  0  0  0  0  0  0  0
  -26.4363  -28.8680   21.2971 C   0  0  0  0  0  0  0  0  0  0  0  0
  -24.8197  -11.4576   19.9114 C   0  0  0  0  0  0  0  0  0  0  0  0
  -20.2954  -28.9645   23.0982 C   0  0  0  0  0  0  0  0  0  0  0  0
  -22.5967  -28.2246   24.2313 C   0  0  0  0  0  0  0  0  0  0  0  0
  -22.8000  -17.9655   21.3986 C   0  0  0  0  0  0  0  0  0  0  0  0
  -21.2656  -19.1092   23.0853 C   0  0  0  0  0  0  0  0  0  0  0  0
  -27.4188  -20.0618   19.1541 C   0  0  0  0  0  0  0  0  0  0  0  0
  -26.5553  -27.3464   19.4182 C   0  0  0  0  0  0  0  0  0  0  0  0
  -26.8088  -21.2595   19.5734 C   0  0  0  0  0  0  0  0  0  0  0  0
  -27.1678  -27.9540   20.5235 C   0  0  0  0  0  0  0  0  0  0  0  0
  -24.6223  -16.0142   20.5897 C   0  0  0  0  0  0  0  0  0  0  0  0
  -25.1180  -29.1830   20.9684 C   0  0  0  0  0  0  0  0  0  0  0  0
  -25.2469  -13.7491   20.5463 C   0  0  0  0  0  0  0  0  0  0  0  0
  -24.7151  -11.1043   21.2568 C   0  0  0  0  0  0  0  0  0  0  0  0
  -25.0855  -12.7800   19.5562 C   0  0  0  0  0  0  0  0  0  0  0  0
  -21.8594  -18.9739   21.8161 C   0  0  0  0  0  0  0  0  0  0  0  0
  -20.4850  -27.6758   23.5465 C   0  0  0  0  0  0  0  0  0  0  0  0
  -22.4075  -29.5130   23.7823 C   0  0  0  0  0  0  0  0  0  0  0  0
  -20.4566  -20.2131   22.9700 C   0  0  0  0  0  0  0  0  0  0  0  0
  -21.4305  -18.3086   24.2632 C   0  0  0  0  0  0  0  0  0  0  0  0
  -28.0512  -24.6710   20.2596 C   0  0  0  0  0  0  0  0  0  0  0  0
  -30.6917  -26.5437   20.0529 C   0  0  0  0  0  0  0  0  0  0  0  0
  -32.0332  -29.6804   20.1426 C   0  0  0  0  0  0  0  0  0  0  0  0
  -19.5860  -25.4505   21.2502 C   0  0  0  0  0  0  0  0  0  0  0  0
  -28.7897  -19.6586   19.6364 C   0  0  0  0  0  0  0  0  0  0  0  0
  -27.3230  -26.3816   18.5568 C   0  0  0  0  0  0  0  0  0  0  0  0
  -28.5906  -27.6462   20.9102 C   0  0  0  0  0  0  0  0  0  0  0  0
  -29.5936  -20.8160   20.2234 C   0  0  0  0  0  0  0  0  0  0  0  0
  -19.0375  -22.8430   18.8887 C   0  0  0  0  0  0  0  0  0  0  0  0
  -28.7341  -21.6286   21.1866 C   0  0  0  0  0  0  0  0  0  0  0  0
  -19.6790  -21.6173   19.5416 C   0  0  0  0  0  0  0  0  0  0  0  0
  -19.8300  -24.1160   19.1775 C   0  0  0  0  0  0  0  0  0  0  0  0
  -20.7274  -23.1497   21.2596 C   0  0  0  0  0  0  0  0  0  0  0  0
  -27.5305  -22.2466   20.4649 C   0  0  1  0  0  0  0  0  0  0  0  0
  -28.4921  -25.7282   19.2872 C   0  0  1  0  0  0  0  0  0  0  0  0
  -19.9331  -21.8503   21.0430 C   0  0  2  0  0  0  0  0  0  0  0  0
  -22.7314  -31.2970   26.2447 C   0  0  0  0  0  0  0  0  0  0  0  0
  -34.2255  -30.8907   19.9801 C   0  0  0  0  0  0  0  0  0  0  0  0
  -31.3858  -25.6623   22.8904 C   0  0  0  0  0  0  0  0  0  0  0  0
  -32.9949  -27.5762   23.0168 C   0  0  0  0  0  0  0  0  0  0  0  0
  -33.3342  -25.7732   21.3266 C   0  0  0  0  0  0  0  0  0  0  0  0
  -31.1543  -31.1918   17.7546 C   0  0  0  0  0  0  0  0  0  0  0  0
  -19.4044  -26.6611   23.4091 C   0  0  0  0  0  0  0  0  0  0  0  0
  -23.8986  -30.8092   25.3947 C   0  0  0  0  0  0  0  0  0  0  0  0
  -24.7550  -30.1468   23.1120 C   0  0  0  0  0  0  0  0  0  1  0  0
  -23.5124  -30.5509   23.9233 C   0  0  1  0  0  0  0  0  0  0  0  0
  -31.4511  -27.4303   21.0101 C   0  0  1  0  0  0  0  0  0  0  0  0
  -33.0102  -30.3849   19.2186 C   0  0  2  0  0  0  0  0  0  0  0  0
  -32.2640  -26.6151   22.0551 C   0  0  0  0  0  0  0  0  0  0  0  0
  -21.6389  -27.2828   24.1213 N   0  0  0  0  0  0  0  0  0  0  0  0
  -21.2534  -29.9061   23.2078 N   0  0  0  0  0  0  0  0  0  0  0  0
  -21.4614  -19.9165   20.9575 N   0  0  0  0  0  0  0  0  0  0  0  0
  -20.6088  -20.6546   21.6885 N   0  0  0  0  0  0  0  0  0  0  0  0
  -29.2976  -26.6917   20.0404 N   0  0  0  0  0  0  0  0  0  0  0  0
  -20.0351  -24.2789   20.6188 N   0  0  0  0  0  0  0  0  0  0  0  0
  -19.6369  -20.8395   23.8407 N   0  0  0  0  0  0  0  0  0  0  0  0
  -22.3003  -17.2109   24.2086 N   0  0  0  0  0  0  0  0  0  0  0  0
  -27.9386  -23.4097   19.7065 N   0  0  0  0  0  0  0  0  0  0  0  0
  -32.2610  -28.3212   20.1861 N   0  0  0  0  0  0  0  0  0  0  0  0
  -19.8144  -25.5216   22.6190 N   0  0  0  0  0  0  0  0  0  0  0  0
  -32.3521  -31.5475   18.5582 N   0  3  0  0  0  0  0  0  0  0  0  0
  -20.8121  -18.5494   25.3276 O   0  0  0  0  0  0  0  0  0  0  0  0
  -27.8308  -24.9766   21.4256 O   0  0  0  0  0  0  0  0  0  0  0  0
  -31.3132  -25.7541   19.3375 O   0  0  0  0  0  0  0  0  0  0  0  0
  -31.1581  -30.2768   20.7663 O   0  0  0  0  0  0  0  0  0  0  0  0
  -19.0185  -26.3631   20.6403 O   0  0  0  0  0  0  0  0  0  0  0  0
  -25.5117  -15.0623   20.1953 O   0  0  0  0  0  0  0  0  0  0  0  0
  -24.4211  -30.0725   21.7266 O   0  0  0  0  0  0  0  0  0  1  0  0
  -24.4613   -9.8342   21.5981 F   0  0  0  0  0  0  0  0  0  0  0  0
  -25.1860  -13.1131   18.2621 F   0  0  0  0  0  0  0  0  0  0  0  0
  1  2  1  0  0  0  0
  1  5  2  0  0  0  0
  2  6  2  0  0  0  0
  3  8  2  0  0  0  0
  3 17  1  0  0  0  0
  4  9  1  0  0  0  0
  4 17  2  0  0  0  0
  5 19  1  0  0  0  0
  6 21  1  0  0  0  0
  7 10  2  0  0  0  0
  7 20  1  0  0  0  0
  8 23  1  0  0  0  0
  9 23  2  0  0  0  0
 10 24  1  0  0  0  0
 11 12  2  0  0  0  0
 11 25  1  0  0  0  0
 12 26  1  0  0  0  0
 13 22  1  0  0  0  0
 13 24  2  0  0  0  0
 14 26  2  0  0  0  0
 14 27  1  0  0  0  0
 15 29  2  0  0  0  0
 15 63  1  0  0  0  0
 16 30  1  0  0  0  0
 16 62  2  0  0  0  0
 17 28  1  0  0  0  0
 18 28  1  0  0  0  0
 18 31  2  0  0  0  0
 18 32  1  0  0  0  0
 19 21  2  0  0  0  0
 19 37  1  0  0  0  0
 20 22  2  0  0  0  0
 20 38  1  0  0  0  0
 21 46  1  0  0  0  0
 22 39  1  0  0  0  0
 23 79  1  0  0  0  0
 24 80  1  0  0  0  0
 25 27  2  0  0  0  0
 25 79  1  0  0  0  0
 26 81  1  0  0  0  0
 27 82  1  0  0  0  0
 28 64  2  0  0  0  0
 29 55  1  0  0  0  0
 29 62  1  0  0  0  0
 30 58  1  0  0  0  0
 30 63  2  0  0  0  0
 31 65  1  0  0  0  0
 31 68  1  0  0  0  0
 32 69  1  0  0  0  0
 32 74  2  0  0  0  0
 33 47  1  0  0  0  0
 33 70  1  0  0  0  0
 33 75  2  0  0  0  0
 34 59  1  0  0  0  0
 34 66  1  0  0  0  0
 34 76  2  0  0  0  0
 35 60  1  0  0  0  0
 35 71  1  0  0  0  0
 35 77  2  0  0  0  0
 36 67  1  0  0  0  0
 36 72  1  0  0  0  0
 36 78  2  0  0  0  0
 37 40  1  0  0  0  0
 38 47  1  0  0  0  0
 39 66  1  0  0  0  0
 40 42  1  0  0  0  0
 41 43  1  0  0  0  0
 41 44  1  0  0  0  0
 42 46  1  0  0  0  0
 43 48  1  0  0  0  0
 44 67  1  0  0  0  0
 45 48  1  0  0  0  0
 45 67  1  0  0  0  0
 46 70  1  0  0  0  0
 47 66  1  0  0  0  0
 48 65  1  0  0  0  0
 49 56  1  0  0  0  0
 50 60  1  0  0  0  0
 51 61  1  0  0  0  0
 52 61  1  0  0  0  0
 53 61  1  0  0  0  0
 54 73  1  0  0  0  0
 55 72  1  0  0  0  0
 56 58  1  0  0  0  0
 57 58  1  0  0  0  0
 57 80  1  0  0  0  0
 59 61  1  0  0  0  0
 59 71  1  0  0  0  0
 60 73  1  0  0  0  0
 64 65  1  0  0  0  0
M  CHG  1  73   1
M  ISO  4  36 100  57 101  72 100  80 101
M  END
> <Batch ID>
0116

> <Smiles>
CCC(c1cnc(C[100NH:0][100C:0](=O)N2CCCC(n3nc(-c4ccc(Oc5ccc(F)cc5F)cc4)c(C(N)=O)c3N)C2)cn1)[101CH2:1][101O:1]c1ccc2c(c1)CN(C(=O)C(NC(=O)C(C)NC)C(C)(C)C)C(C(=O)NC1CCCc3ccccc31)C2

> <Shape>
0.212

> <Color>
0.063

> <Negative vol penalty>
0.000

$$$$

  -OEChem-04052320133D

 85 93  0     1  0  0  0  0  0999 V2000
  -22.5387   -7.5612   21.5061 C   0  0  0  0  0  0  0  0  0  0  0  0
  -23.3894   -8.4276   20.8270 C   0  0  0  0  0  0  0  0  0  0  0  0
  -23.2349  -30.3023   20.5133 C   0  0  0  0  0  0  0  0  0  0  0  0
  -23.0199  -28.6997   22.3085 C   0  0  0  0  0  0  0  0  0  0  0  0
  -21.3492   -8.0405   22.0530 C   0  0  0  0  0  0  0  0  0  0  0  0
  -23.0504   -9.7736   20.6935 C   0  0  0  0  0  0  0  0  0  0  0  0
  -26.9519  -12.8620   21.6344 C   0  0  0  0  0  0  0  0  0  0  0  0
  -31.6403  -21.7245   21.0274 C   0  0  0  0  0  0  0  0  0  0  0  0
  -22.1078  -30.9777   20.9812 C   0  0  0  0  0  0  0  0  0  0  0  0
  -21.8927  -29.3752   22.7764 C   0  0  0  0  0  0  0  0  0  0  0  0
  -27.9045  -13.0095   20.6272 C   0  0  0  0  0  0  0  0  0  0  0  0
  -18.6141  -29.5992   21.9819 C   0  0  0  0  0  0  0  0  0  0  0  0
  -17.5035  -28.8354   22.3409 C   0  0  0  0  0  0  0  0  0  0  0  0
  -32.0113  -20.6937   20.1713 C   0  0  0  0  0  0  0  0  0  0  0  0
  -26.8862  -15.0978   19.9781 C   0  0  0  0  0  0  0  0  0  0  0  0
  -17.6343  -29.7033   24.5919 C   0  0  0  0  0  0  0  0  0  0  0  0
  -23.6910  -29.1632   21.1769 C   0  0  0  0  0  0  0  0  0  0  0  0
  -26.1954  -28.6929   21.0581 C   0  0  0  0  0  0  0  0  0  0  0  0
  -21.0001   -9.3950   21.9345 C   0  0  0  0  0  0  0  0  0  0  0  0
  -25.9510  -13.8276   21.8143 C   0  0  0  0  0  0  0  0  0  0  0  0
  -21.8544  -10.2711   21.2382 C   0  0  0  0  0  0  0  0  0  0  0  0
  -25.9235  -14.9615   20.9900 C   0  0  0  0  0  0  0  0  0  0  0  0
  -30.4750  -22.4413   20.7794 C   0  0  0  0  0  0  0  0  0  0  0  0
  -21.4367  -30.5142   22.1128 C   0  0  0  0  0  0  0  0  0  0  0  0
  -27.8700  -14.1261   19.7970 C   0  0  0  0  0  0  0  0  0  0  0  0
  -19.2349  -30.4149   22.9280 C   0  0  0  0  0  0  0  0  0  0  0  0
  -17.0136  -28.8875   23.6459 C   0  0  0  0  0  0  0  0  0  0  0  0
  -18.7450  -30.4670   24.2329 C   0  0  0  0  0  0  0  0  0  0  0  0
  -24.8549  -28.4648   20.6937 C   0  0  0  0  0  0  0  0  0  0  0  0
  -31.1892  -20.4213   19.0897 C   0  0  0  0  0  0  0  0  0  0  0  0
  -29.7218  -22.0909   19.6705 C   0  0  0  0  0  0  0  0  0  0  0  0
  -26.9107  -27.7764   20.3268 C   0  0  0  0  0  0  0  0  0  0  0  0
  -26.7449  -29.6477   21.9757 C   0  0  0  0  0  0  0  0  0  0  0  0
  -22.7766  -13.8255   21.6493 C   0  0  0  0  0  0  0  0  0  0  0  0
  -23.1063  -16.8601   22.7470 C   0  0  0  0  0  0  0  0  0  0  0  0
  -25.0760  -19.6292   23.0617 C   0  0  0  0  0  0  0  0  0  0  0  0
  -27.6409  -22.6213   18.3534 C   0  0  0  0  0  0  0  0  0  0  0  0
  -19.6811   -9.8570   22.5015 C   0  0  0  0  0  0  0  0  0  0  0  0
  -24.9467  -13.6671   22.9226 C   0  0  0  0  0  0  0  0  0  0  0  0
  -24.8819  -16.0368   21.1549 C   0  0  0  0  0  0  0  0  0  0  0  0
  -19.5754  -11.3736   22.6401 C   0  0  0  0  0  0  0  0  0  0  0  0
  -25.4852  -24.7732   16.5096 C   0  0  0  0  0  0  0  0  0  0  0  0
  -20.0584  -12.0609   21.3669 C   0  0  0  0  0  0  0  0  0  0  0  0
  -25.2393  -25.9442   17.4638 C   0  0  0  0  0  0  0  0  0  0  0  0
  -25.5686  -23.4423   17.2549 C   0  0  0  0  0  0  0  0  0  0  0  0
  -26.2845  -24.5821   19.3183 C   0  0  0  0  0  0  0  0  0  0  0  0
  -21.5335  -11.7430   21.0939 C   0  0  1  0  0  0  0  0  0  0  0  0
  -23.6633  -14.4569   22.6850 C   0  0  1  0  0  0  0  0  0  0  0  0
  -26.2577  -25.9519   18.6207 C   0  0  2  0  0  0  0  0  0  0  0  0
  -30.0806  -23.5459   21.6998 C   0  0  0  0  0  0  0  0  0  0  0  0
  -25.0570  -21.9668   23.9743 C   0  0  0  0  0  0  0  0  0  0  0  0
  -31.5707  -15.1221   18.9910 C   0  0  0  0  0  0  0  0  0  0  0  0
  -30.4002  -17.3568   16.0230 C   0  0  0  0  0  0  0  0  0  0  0  0
  -21.4067  -17.7674   20.3810 C   0  0  0  0  0  0  0  0  0  0  0  0
  -22.2051  -20.1043   20.7931 C   0  0  0  0  0  0  0  0  0  0  0  0
  -20.8835  -18.9131   22.5416 C   0  0  0  0  0  0  0  0  0  0  0  0
  -27.3005  -19.0443   24.9241 C   0  0  0  0  0  0  0  0  0  0  0  0
  -31.5587  -19.3158   18.1451 C   0  0  0  0  0  0  0  0  0  0  0  0
  -29.1546  -15.6051   18.4486 C   0  0  0  0  0  0  0  0  0  1  0  0
  -23.2745  -18.2165   22.1060 C   0  0  1  0  0  0  0  0  0  0  0  0
  -25.3915  -20.5104   24.2568 C   0  0  2  0  0  0  0  0  0  0  0  0
  -30.5960  -15.6299   17.9168 C   0  0  1  0  0  0  0  0  0  0  0  0
  -31.0399  -17.0018   17.3607 C   0  0  2  0  0  0  0  0  0  0  0  0
  -21.9611  -18.7293   21.4508 C   0  0  0  0  0  0  0  0  0  0  0  0
  -24.7237  -27.4807   19.8002 N   0  0  0  0  0  0  0  0  0  0  0  0
  -30.0500  -21.0957   18.8163 N   0  0  0  0  0  0  0  0  0  0  0  0
  -25.9911  -27.0823   19.5970 N   0  0  0  0  0  0  0  0  0  0  0  0
  -23.9180  -15.8312   22.2486 N   0  0  0  0  0  0  0  0  0  0  0  0
  -26.5560  -23.5231   18.3335 N   0  0  0  0  0  0  0  0  0  0  0  0
  -28.2304  -27.5046   20.2432 N   0  0  0  0  0  0  0  0  0  0  0  0
  -25.8682  -30.5141   22.6431 N   0  0  0  0  0  0  0  0  0  0  0  0
  -28.5324  -22.8148   19.4080 N   0  0  0  0  0  0  0  0  0  0  0  0
  -22.3884  -12.5344   21.9524 N   0  0  0  0  0  0  0  0  0  0  0  0
  -23.8077  -19.0943   23.1422 N   0  0  0  0  0  0  0  0  0  0  0  0
  -26.8388  -20.4187   24.6003 N   0  3  0  0  0  0  0  0  0  0  0  0
  -30.7283  -18.0968   18.3225 N   0  3  0  0  0  0  0  0  0  0  0  0
  -27.9781  -29.7413   22.1850 O   0  0  0  0  0  0  0  0  0  0  0  0
  -22.4663  -14.4631   20.6498 O   0  0  0  0  0  0  0  0  0  0  0  0
  -22.2901  -16.7202   23.6613 O   0  0  0  0  0  0  0  0  0  0  0  0
  -25.8734  -19.4378   22.1462 O   0  0  0  0  0  0  0  0  0  0  0  0
  -27.7843  -21.7594   17.4824 O   0  0  0  0  0  0  0  0  0  0  0  0
  -20.3369  -31.1731   22.5698 O   0  0  0  0  0  0  0  0  0  0  0  0
  -28.7983  -14.2721   18.8127 O   0  0  0  0  0  0  0  0  0  1  0  0
  -15.9461  -28.1553   23.9901 F   0  0  0  0  0  0  0  0  0  0  0  0
  -19.3364  -31.2497   25.1458 F   0  0  0  0  0  0  0  0  0  0  0  0
  1  2  1  0  0  0  0
  1  5  2  0  0  0  0
  2  6  2  0  0  0  0
  3  9  2  0  0  0  0
  3 17  1  0  0  0  0
  4 10  1  0  0  0  0
  4 17  2  0  0  0  0
  5 19  1  0  0  0  0
  6 21  1  0  0  0  0
  7 11  2  0  0  0  0
  7 20  1  0  0  0  0
  8 14  2  0  0  0  0
  8 23  1  0  0  0  0
  9 24  1  0  0  0  0
 10 24  2  0  0  0  0
 11 25  1  0  0  0  0
 12 13  2  0  0  0  0
 12 26  1  0  0  0  0
 13 27  1  0  0  0  0
 14 30  1  0  0  0  0
 15 22  1  0  0  0  0
 15 25  2  0  0  0  0
 16 27  2  0  0  0  0
 16 28  1  0  0  0  0
 17 29  1  0  0  0  0
 18 29  1  0  0  0  0
 18 32  2  0  0  0  0
 18 33  1  0  0  0  0
 19 21  2  0  0  0  0
 19 38  1  0  0  0  0
 20 22  2  0  0  0  0
 20 39  1  0  0  0  0
 21 47  1  0  0  0  0
 22 40  1  0  0  0  0
 23 31  2  0  0  0  0
 23 50  1  0  0  0  0
 24 82  1  0  0  0  0
 25 83  1  0  0  0  0
 26 28  2  0  0  0  0
 26 82  1  0  0  0  0
 27 84  1  0  0  0  0
 28 85  1  0  0  0  0
 29 65  2  0  0  0  0
 30 58  1  0  0  0  0
 30 66  2  0  0  0  0
 31 66  1  0  0  0  0
 31 72  1  0  0  0  0
 32 67  1  0  0  0  0
 32 70  1  0  0  0  0
 33 71  1  0  0  0  0
 33 77  2  0  0  0  0
 34 48  1  0  0  0  0
 34 73  1  0  0  0  0
 34 78  2  0  0  0  0
 35 60  1  0  0  0  0
 35 68  1  0  0  0  0
 35 79  2  0  0  0  0
 36 61  1  0  0  0  0
 36 74  1  0  0  0  0
 36 80  2  0  0  0  0
 37 69  1  0  0  0  0
 37 72  1  0  0  0  0
 37 81  2  0  0  0  0
 38 41  1  0  0  0  0
 39 48  1  0  0  0  0
 40 68  1  0  0  0  0
 41 43  1  0  0  0  0
 42 44  1  0  0  0  0
 42 45  1  0  0  0  0
 43 47  1  0  0  0  0
 44 49  1  0  0  0  0
 45 69  1  0  0  0  0
 46 49  1  0  0  0  0
 46 69  1  0  0  0  0
 47 73  1  0  0  0  0
 48 68  1  0  0  0  0
 49 67  1  0  0  0  0
 51 61  1  0  0  0  0
 52 62  1  0  0  0  0
 53 63  1  0  0  0  0
 54 64  1  0  0  0  0
 55 64  1  0  0  0  0
 56 64  1  0  0  0  0
 57 75  1  0  0  0  0
 58 76  1  0  0  0  0
 59 62  1  0  0  0  0
 59 83  1  0  0  0  0
 60 64  1  0  0  0  0
 60 74  1  0  0  0  0
 61 75  1  0  0  0  0
 62 63  1  0  0  0  0
 63 76  1  0  0  0  0
 65 67  1  0  0  0  0
M  CHG  2  75   1  76   1
M  ISO  4  37 100  59 101  72 100  83 101
M  END
> <Batch ID>
0116

> <Smiles>
CNC(C)C(=O)NC(C(=O)N1Cc2cc([101O:1][101CH2:1]C(C)C(C)NCc3ccc(C)c([100NH:0][100C:0](=O)N4CCCC(n5nc(-c6ccc(Oc7ccc(F)cc7F)cc6)c(C(N)=O)c5N)C4)n3)ccc2CC1C(=O)NC1CCCc2ccccc21)C(C)(C)C

> <Shape>
0.233

> <Color>
0.083

> <Negative vol penalty>
0.000

$$$$

  -OEChem-04052320133D

 91 99  0     1  0  0  0  0  0999 V2000
  -16.5497  -30.0687   23.4494 C   0  0  0  0  0  0  0  0  0  0  0  0
  -17.5236  -30.4165   22.5188 C   0  0  0  0  0  0  0  0  0  0  0  0
  -22.8516  -10.3918   21.9022 C   0  0  0  0  0  0  0  0  0  0  0  0
  -24.5134   -9.3775   20.4716 C   0  0  0  0  0  0  0  0  0  0  0  0
  -16.9081  -29.3798   24.6074 C   0  0  0  0  0  0  0  0  0  0  0  0
  -18.8566  -30.0763   22.7461 C   0  0  0  0  0  0  0  0  0  0  0  0
  -24.8167  -28.2051   19.2401 C   0  0  0  0  0  0  0  0  0  0  0  0
  -30.5468  -19.0014   21.3775 C   0  0  0  0  0  0  0  0  0  0  0  0
  -22.1194   -9.2046   21.8934 C   0  0  0  0  0  0  0  0  0  0  0  0
  -23.7811   -8.1903   20.4627 C   0  0  0  0  0  0  0  0  0  0  0  0
  -26.1599  -28.5629   19.1317 C   0  0  0  0  0  0  0  0  0  0  0  0
  -22.2440   -6.1897   23.4190 C   0  0  0  0  0  0  0  0  0  0  0  0
  -21.7426   -5.7282   24.6361 C   0  0  0  0  0  0  0  0  0  0  0  0
  -30.4627  -17.9772   20.4408 C   0  0  0  0  0  0  0  0  0  0  0  0
  -26.6506  -27.3029   21.1294 C   0  0  0  0  0  0  0  0  0  0  0  0
  -19.4946   -5.8630   23.7612 C   0  0  0  0  0  0  0  0  0  0  0  0
  -24.0486  -10.4782   21.1913 C   0  0  0  0  0  0  0  0  0  0  0  0
  -25.8141  -12.0747   22.1087 C   0  0  0  0  0  0  0  0  0  0  0  0
  -18.2448  -29.0225   24.8444 C   0  0  0  0  0  0  0  0  0  0  0  0
  -24.3779  -27.4010   20.3019 C   0  0  0  0  0  0  0  0  0  0  0  0
  -19.2334  -29.3831   23.9089 C   0  0  0  0  0  0  0  0  0  0  0  0
  -25.3019  -26.9341   21.2476 C   0  0  0  0  0  0  0  0  0  0  0  0
  -30.3090  -20.3145   20.9868 C   0  0  0  0  0  0  0  0  0  0  0  0
  -22.5841   -8.1039   21.1737 C   0  0  0  0  0  0  0  0  0  0  0  0
  -27.0765  -28.1142   20.0780 C   0  0  0  0  0  0  0  0  0  0  0  0
  -21.3707   -6.4879   22.3730 C   0  0  0  0  0  0  0  0  0  0  0  0
  -20.3680   -5.5648   24.8072 C   0  0  0  0  0  0  0  0  0  0  0  0
  -19.9960   -6.3245   22.5441 C   0  0  0  0  0  0  0  0  0  0  0  0
  -24.8051  -11.7045   21.1995 C   0  0  0  0  0  0  0  0  0  0  0  0
  -30.1399  -18.3159   19.1367 C   0  0  0  0  0  0  0  0  0  0  0  0
  -29.9933  -20.5486   19.6581 C   0  0  0  0  0  0  0  0  0  0  0  0
  -26.2143  -13.3199   21.6893 C   0  0  0  0  0  0  0  0  0  0  0  0
  -26.3426  -11.3572   23.2319 C   0  0  0  0  0  0  0  0  0  0  0  0
  -22.3425  -27.7841   22.7132 C   0  0  0  0  0  0  0  0  0  0  0  0
  -22.9649  -24.6421   23.2259 C   0  0  0  0  0  0  0  0  0  0  0  0
  -25.0996  -22.0092   22.8292 C   0  0  0  0  0  0  0  0  0  0  0  0
  -27.6383  -16.8582   17.6152 C   0  0  0  0  0  0  0  0  0  0  0  0
  -18.5908  -28.3195   26.1331 C   0  0  0  0  0  0  0  0  0  0  0  0
  -22.9303  -27.0018   20.3897 C   0  0  0  0  0  0  0  0  0  0  0  0
  -24.8851  -26.0520   22.3951 C   0  0  0  0  0  0  0  0  0  0  0  0
  -19.9709  -27.6673   26.1196 C   0  0  0  0  0  0  0  0  0  0  0  0
  -24.1663  -16.4681   18.3009 C   0  0  0  0  0  0  0  0  0  0  0  0
  -21.0113  -28.6311   25.5580 C   0  0  0  0  0  0  0  0  0  0  0  0
  -24.1060  -15.2215   19.1855 C   0  0  0  0  0  0  0  0  0  0  0  0
  -25.2457  -16.3466   17.2275 C   0  0  0  0  0  0  0  0  0  0  0  0
  -26.5301  -14.7706   18.6204 C   0  0  0  0  0  0  0  0  0  0  0  0
  -20.6864  -29.0100   24.1080 C   0  0  1  0  0  0  0  0  0  0  0  0
  -22.5051  -26.6025   21.7994 C   0  0  1  0  0  0  0  0  0  0  0  0
  -25.4941  -14.8692   19.7532 C   0  0  2  0  0  0  0  0  0  0  0  0
  -31.8089  -21.5626   22.5824 C   0  0  0  0  0  0  0  0  0  0  0  0
  -29.3613  -21.2780   23.1146 C   0  0  0  0  0  0  0  0  0  0  0  0
  -25.3518  -19.5760   23.3893 C   0  0  0  0  0  0  0  0  0  0  0  0
  -23.6690  -25.3796   26.1017 C   0  0  0  0  0  0  0  0  0  0  0  0
  -24.7938  -23.1538   26.3235 C   0  0  0  0  0  0  0  0  0  0  0  0
  -22.3456  -23.2715   25.8595 C   0  0  0  0  0  0  0  0  0  0  0  0
  -30.9147  -28.6630   17.1707 C   0  0  0  0  0  0  0  0  0  0  0  0
  -31.1525  -29.3532   19.5601 C   0  0  0  0  0  0  0  0  0  0  0  0
  -25.1903  -21.2417   19.9723 C   0  0  0  0  0  0  0  0  0  0  0  0
  -30.0407  -17.2425   18.1050 C   0  0  0  0  0  0  0  0  0  0  0  0
  -29.7214  -23.5819   17.6017 C   0  0  0  0  0  0  0  0  0  0  0  0
  -30.4769  -24.5256   18.5217 C   0  0  0  0  0  0  0  0  0  0  0  0
  -30.7560  -26.9518   19.0457 C   0  0  0  0  0  0  0  0  0  0  0  0
  -30.0777  -22.1293   17.8833 C   0  0  0  0  0  0  0  0  0  0  0  0
  -28.8998  -28.6841   18.6614 C   0  0  0  0  0  0  0  0  0  1  0  0
  -30.3968  -21.4192   21.9819 C   0  0  0  0  0  0  0  0  0  0  0  0
  -23.9840  -23.8715   24.0299 C   0  0  1  0  0  0  0  0  0  0  0  0
  -24.8655  -20.5845   22.3601 C   0  0  2  0  0  0  0  0  0  0  0  0
  -23.7059  -23.9373   25.5582 C   0  0  0  0  0  0  0  0  0  0  0  0
  -30.4158  -28.3929   18.6023 C   0  0  0  0  0  0  0  0  0  0  0  0
  -24.5782  -12.6389   20.2725 N   0  0  0  0  0  0  0  0  0  0  0  0
  -29.9022  -19.5797   18.7197 N   0  0  0  0  0  0  0  0  0  0  0  0
  -25.4501  -13.6087   20.5971 N   0  0  0  0  0  0  0  0  0  0  0  0
  -23.4577  -25.6943   22.4412 N   0  0  0  0  0  0  0  0  0  0  0  0
  -26.5376  -16.0128   17.8319 N   0  0  0  0  0  0  0  0  0  0  0  0
  -27.1416  -14.1850   22.1519 N   0  0  0  0  0  0  0  0  0  0  0  0
  -25.8181  -10.0903   23.5222 N   0  0  0  0  0  0  0  0  0  0  0  0
  -21.0623  -27.9395   23.2095 N   0  0  0  0  0  0  0  0  0  0  0  0
  -23.9977  -22.5192   23.4828 N   0  0  0  0  0  0  0  0  0  0  0  0
  -28.8234  -16.4721   18.2294 N   0  0  0  0  0  0  0  0  0  0  0  0
  -25.5875  -20.3354   21.0804 N   0  3  0  0  0  0  0  0  0  0  0  0
  -30.1267  -25.9299   18.1740 N   0  3  0  0  0  0  0  0  0  0  0  0
  -27.2414  -11.8325   23.9665 O   0  0  0  0  0  0  0  0  0  0  0  0
  -23.3075  -28.5009   22.9516 O   0  0  0  0  0  0  0  0  0  0  0  0
  -21.7763  -24.3178   23.2862 O   0  0  0  0  0  0  0  0  0  0  0  0
  -26.1556  -22.6083   22.6385 O   0  0  0  0  0  0  0  0  0  0  0  0
  -27.5686  -17.8840   16.9299 O   0  0  0  0  0  0  0  0  0  0  0  0
  -21.8700   -6.9452   21.1650 O   0  0  0  0  0  0  0  0  0  0  0  0
  -28.3880  -28.4626   19.9749 O   0  0  0  0  0  0  0  0  0  1  0  0
  -29.7527  -21.8296   19.2337 O   0  0  0  0  0  0  0  0  0  0  0  0
  -19.8868   -5.1202   25.9755 F   0  0  0  0  0  0  0  0  0  0  0  0
  -19.1522   -6.6082   21.5425 F   0  0  0  0  0  0  0  0  0  0  0  0
  1  2  1  0  0  0  0
  1  5  2  0  0  0  0
  2  6  2  0  0  0  0
  3  9  2  0  0  0  0
  3 17  1  0  0  0  0
  4 10  1  0  0  0  0
  4 17  2  0  0  0  0
  5 19  1  0  0  0  0
  6 21  1  0  0  0  0
  7 11  2  0  0  0  0
  7 20  1  0  0  0  0
  8 14  2  0  0  0  0
  8 23  1  0  0  0  0
  9 24  1  0  0  0  0
 10 24  2  0  0  0  0
 11 25  1  0  0  0  0
 12 13  2  0  0  0  0
 12 26  1  0  0  0  0
 13 27  1  0  0  0  0
 14 30  1  0  0  0  0
 15 22  1  0  0  0  0
 15 25  2  0  0  0  0
 16 27  2  0  0  0  0
 16 28  1  0  0  0  0
 17 29  1  0  0  0  0
 18 29  1  0  0  0  0
 18 32  2  0  0  0  0
 18 33  1  0  0  0  0
 19 21  2  0  0  0  0
 19 38  1  0  0  0  0
 20 22  2  0  0  0  0
 20 39  1  0  0  0  0
 21 47  1  0  0  0  0
 22 40  1  0  0  0  0
 23 31  2  0  0  0  0
 23 65  1  0  0  0  0
 24 87  1  0  0  0  0
 25 88  1  0  0  0  0
 26 28  2  0  0  0  0
 26 87  1  0  0  0  0
 27 90  1  0  0  0  0
 28 91  1  0  0  0  0
 29 70  2  0  0  0  0
 30 59  1  0  0  0  0
 30 71  2  0  0  0  0
 31 71  1  0  0  0  0
 31 89  1  0  0  0  0
 32 72  1  0  0  0  0
 32 75  1  0  0  0  0
 33 76  1  0  0  0  0
 33 82  2  0  0  0  0
 34 48  1  0  0  0  0
 34 77  1  0  0  0  0
 34 83  2  0  0  0  0
 35 66  1  0  0  0  0
 35 73  1  0  0  0  0
 35 84  2  0  0  0  0
 36 67  1  0  0  0  0
 36 78  1  0  0  0  0
 36 85  2  0  0  0  0
 37 74  1  0  0  0  0
 37 79  1  0  0  0  0
 37 86  2  0  0  0  0
 38 41  1  0  0  0  0
 39 48  1  0  0  0  0
 40 73  1  0  0  0  0
 41 43  1  0  0  0  0
 42 44  1  0  0  0  0
 42 45  1  0  0  0  0
 43 47  1  0  0  0  0
 44 49  1  0  0  0  0
 45 74  1  0  0  0  0
 46 49  1  0  0  0  0
 46 74  1  0  0  0  0
 47 77  1  0  0  0  0
 48 73  1  0  0  0  0
 49 72  1  0  0  0  0
 50 65  1  0  0  0  0
 51 65  1  0  0  0  0
 52 67  1  0  0  0  0
 53 68  1  0  0  0  0
 54 68  1  0  0  0  0
 55 68  1  0  0  0  0
 56 69  1  0  0  0  0
 57 69  1  0  0  0  0
 58 80  1  0  0  0  0
 59 79  1  0  0  0  0
 60 61  1  0  0  0  0
 60 63  1  0  0  0  0
 61 81  1  0  0  0  0
 62 69  1  0  0  0  0
 62 81  1  0  0  0  0
 63 89  1  0  0  0  0
 64 69  1  0  0  0  0
 64 88  1  0  0  0  0
 66 68  1  0  0  0  0
 66 78  1  0  0  0  0
 67 80  1  0  0  0  0
 70 72  1  0  0  0  0
M  CHG  2  80   1  81   1
M  ISO  4  37 100  64 101  79 100  88 101
M  END
> <Batch ID>
0116

> <Smiles>
CNC(C)C(=O)NC(C(=O)N1Cc2cc([101O:1][101CH2:1]C(C)(C)CNCCCOc3nc(C[100NH:0][100C:0](=O)N4CCCC(n5nc(-c6ccc(Oc7ccc(F)cc7F)cc6)c(C(N)=O)c5N)C4)ccc3C(C)C)ccc2CC1C(=O)NC1CCCc2ccccc21)C(C)(C)C

> <Shape>
0.238

> <Color>
0.105

> <Negative vol penalty>
0.000

$$$$

  -OEChem-04052320133D

 86 94  0     1  0  0  0  0  0999 V2000
  -32.3286  -13.9029   20.6814 C   0  0  0  0  0  0  0  0  0  0  0  0
  -31.5656  -15.0074   21.0464 C   0  0  0  0  0  0  0  0  0  0  0  0
  -26.7451  -28.3747   21.5003 C   0  0  0  0  0  0  0  0  0  0  0  0
  -25.3809  -29.1796   19.6760 C   0  0  0  0  0  0  0  0  0  0  0  0
  -31.7257  -12.8218   20.0398 C   0  0  0  0  0  0  0  0  0  0  0  0
  -30.1993  -15.0320   20.7689 C   0  0  0  0  0  0  0  0  0  0  0  0
  -25.7957  -17.5801   24.1779 C   0  0  0  0  0  0  0  0  0  0  0  0
  -19.7349  -23.0734   23.2575 C   0  0  0  0  0  0  0  0  0  0  0  0
  -21.6937  -23.8150   22.0532 C   0  0  0  0  0  0  0  0  0  0  0  0
  -20.2342  -21.7711   23.2677 C   0  0  0  0  0  0  0  0  0  0  0  0
  -22.1930  -22.5126   22.0635 C   0  0  0  0  0  0  0  0  0  0  0  0
  -27.6503  -27.8362   20.5859 C   0  0  0  0  0  0  0  0  0  0  0  0
  -26.2862  -28.6411   18.7615 C   0  0  0  0  0  0  0  0  0  0  0  0
  -25.1338  -18.8042   24.0930 C   0  0  0  0  0  0  0  0  0  0  0  0
  -27.8714  -25.0955   18.6201 C   0  0  0  0  0  0  0  0  0  0  0  0
  -28.3384  -23.8027   18.8564 C   0  0  0  0  0  0  0  0  0  0  0  0
  -23.3343  -17.7409   22.8886 C   0  0  0  0  0  0  0  0  0  0  0  0
  -30.6016  -24.6408   18.9686 C   0  0  0  0  0  0  0  0  0  0  0  0
  -25.6104  -29.0464   21.0454 C   0  0  0  0  0  0  0  0  0  0  0  0
  -24.6947  -30.8959   22.5449 C   0  0  0  0  0  0  0  0  0  0  0  0
  -30.3495  -12.8291   19.7630 C   0  0  0  0  0  0  0  0  0  0  0  0
  -25.2360  -16.4273   23.6083 C   0  0  0  0  0  0  0  0  0  0  0  0
  -29.5776  -13.9506   20.1217 C   0  0  0  0  0  0  0  0  0  0  0  0
  -23.9899  -16.5029   22.9699 C   0  0  0  0  0  0  0  0  0  0  0  0
  -20.4646  -24.0954   22.6502 C   0  0  0  0  0  0  0  0  0  0  0  0
  -21.4632  -21.4906   22.6707 C   0  0  0  0  0  0  0  0  0  0  0  0
  -27.4209  -27.9694   19.2165 C   0  0  0  0  0  0  0  0  0  0  0  0
  -23.9043  -18.8853   23.4458 C   0  0  0  0  0  0  0  0  0  0  0  0
  -28.7694  -26.1611   18.5579 C   0  0  0  0  0  0  0  0  0  0  0  0
  -29.7036  -23.5753   19.0307 C   0  0  0  0  0  0  0  0  0  0  0  0
  -30.1345  -25.9337   18.7322 C   0  0  0  0  0  0  0  0  0  0  0  0
  -24.6747  -29.6025   21.9895 C   0  0  0  0  0  0  0  0  0  0  0  0
  -23.6016  -30.9296   23.3759 C   0  0  0  0  0  0  0  0  0  0  0  0
  -25.6186  -31.9708   22.3288 C   0  0  0  0  0  0  0  0  0  0  0  0
  -26.1108  -14.4066   21.3159 C   0  0  0  0  0  0  0  0  0  0  0  0
  -23.4839  -12.7729   22.2919 C   0  0  0  0  0  0  0  0  0  0  0  0
  -20.4348  -12.8381   23.8235 C   0  0  0  0  0  0  0  0  0  0  0  0
  -18.4638  -28.0564   23.5318 C   0  0  0  0  0  0  0  0  0  0  0  0
  -29.7512  -11.6575   19.0252 C   0  0  0  0  0  0  0  0  0  0  0  0
  -25.9500  -15.1092   23.7317 C   0  0  0  0  0  0  0  0  0  0  0  0
  -23.3367  -15.2907   22.3596 C   0  0  0  0  0  0  0  0  0  0  0  0
  -28.2277  -11.6022   19.1033 C   0  0  0  0  0  0  0  0  0  0  0  0
  -20.8375  -28.1072   26.0595 C   0  0  0  0  0  0  0  0  0  0  0  0
  -27.6283  -12.9759   18.8195 C   0  0  0  0  0  0  0  0  0  0  0  0
  -22.1004  -28.6180   25.3675 C   0  0  0  0  0  0  0  0  0  0  0  0
  -20.0811  -27.1342   25.1629 C   0  0  0  0  0  0  0  0  0  0  0  0
  -20.9642  -28.2236   23.1247 C   0  0  0  0  0  0  0  0  0  0  0  0
  -28.0880  -14.0041   19.8601 C   0  0  1  0  0  0  0  0  0  0  0  0
  -25.5300  -14.1002   22.6673 C   0  0  1  0  0  0  0  0  0  0  0  0
  -21.7700  -29.2155   23.9885 C   0  0  2  0  0  0  0  0  0  0  0  0
  -18.5066  -11.3540   24.4375 C   0  0  0  0  0  0  0  0  0  0  0  0
  -20.0209  -29.6163   20.7261 C   0  0  0  0  0  0  0  0  0  0  0  0
  -21.1320  -27.5641   19.8499 C   0  0  0  0  0  0  0  0  0  0  0  0
  -17.6508  -25.1933   21.5453 C   0  0  0  0  0  0  0  0  0  0  0  0
  -22.5442  -12.7970   19.3891 C   0  0  0  0  0  0  0  0  0  0  0  0
  -20.2564  -12.1799   20.1974 C   0  0  0  0  0  0  0  0  0  0  0  0
  -22.1744  -10.6333   20.5873 C   0  0  0  0  0  0  0  0  0  0  0  0
  -16.7381  -28.3129   21.7900 C   0  0  0  0  0  0  0  0  0  0  0  0
  -20.7996  -13.3639   26.7131 C   0  0  0  0  0  0  0  0  0  0  0  0
  -19.9315  -25.4881   22.6388 C   0  0  0  0  0  0  0  0  0  0  0  0
  -22.0005  -20.0897   22.6837 C   0  0  0  0  0  0  0  0  0  1  0  0
  -22.0214  -12.7779   21.9174 C   0  0  1  0  0  0  0  0  0  0  0  0
  -19.8273  -11.9523   24.8963 C   0  0  2  0  0  0  0  0  0  0  0  0
  -20.2655  -28.1209   20.9833 C   0  0  0  0  0  0  0  0  0  0  0  0
  -19.0455  -25.8298   21.4072 C   0  0  2  0  0  0  0  0  0  0  0  0
  -18.9194  -27.3597   21.1418 C   0  0  1  0  0  0  0  0  0  0  0  0
  -21.7621  -12.1204   20.5325 C   0  0  0  0  0  0  0  0  0  0  0  0
  -23.6503  -28.8676   22.4306 N   0  0  0  0  0  0  0  0  0  0  0  0
  -23.0164  -29.7020   23.2721 N   0  0  0  0  0  0  0  0  0  0  0  0
  -24.0771  -14.0260   22.5009 N   0  0  0  0  0  0  0  0  0  0  0  0
  -19.7887  -27.7326   23.8601 N   0  0  0  0  0  0  0  0  0  0  0  0
  -23.0937  -31.8892   24.1782 N   0  0  0  0  0  0  0  0  0  0  0  0
  -26.6850  -31.7672   21.4425 N   0  0  0  0  0  0  0  0  0  0  0  0
  -27.3507  -13.8383   21.0943 N   0  0  0  0  0  0  0  0  0  0  0  0
  -21.3147  -12.1406   23.0232 N   0  0  0  0  0  0  0  0  0  0  0  0
  -18.1050  -27.9938   22.1769 N   0  0  0  0  0  0  0  0  0  0  0  0
  -19.5810  -12.7379   26.1385 N   0  3  0  0  0  0  0  0  0  0  0  0
  -25.5112  -33.0734   22.9172 O   0  0  0  0  0  0  0  0  0  0  0  0
  -25.4799  -15.1056   20.5315 O   0  0  0  0  0  0  0  0  0  0  0  0
  -24.0762  -11.6965   22.4022 O   0  0  0  0  0  0  0  0  0  0  0  0
  -20.1539  -14.0287   23.7049 O   0  0  0  0  0  0  0  0  0  0  0  0
  -17.6433  -28.3765   24.4016 O   0  0  0  0  0  0  0  0  0  0  0  0
  -28.3040  -27.4442   18.3239 O   0  0  0  0  0  0  0  0  0  0  0  0
  -23.2565  -20.0791   23.3610 O   0  0  0  0  0  0  0  0  0  1  0  0
  -30.1518  -22.3339   19.2593 F   0  0  0  0  0  0  0  0  0  0  0  0
  -31.0020  -26.9536   18.6747 F   0  0  0  0  0  0  0  0  0  0  0  0
  1  2  1  0  0  0  0
  1  5  2  0  0  0  0
  2  6  2  0  0  0  0
  3 12  2  0  0  0  0
  3 19  1  0  0  0  0
  4 13  1  0  0  0  0
  4 19  2  0  0  0  0
  5 21  1  0  0  0  0
  6 23  1  0  0  0  0
  7 14  2  0  0  0  0
  7 22  1  0  0  0  0
  8 10  2  0  0  0  0
  8 25  1  0  0  0  0
  9 11  1  0  0  0  0
  9 25  2  0  0  0  0
 10 26  1  0  0  0  0
 11 26  2  0  0  0  0
 12 27  1  0  0  0  0
 13 27  2  0  0  0  0
 14 28  1  0  0  0  0
 15 16  2  0  0  0  0
 15 29  1  0  0  0  0
 16 30  1  0  0  0  0
 17 24  1  0  0  0  0
 17 28  2  0  0  0  0
 18 30  2  0  0  0  0
 18 31  1  0  0  0  0
 19 32  1  0  0  0  0
 20 32  1  0  0  0  0
 20 33  2  0  0  0  0
 20 34  1  0  0  0  0
 21 23  2  0  0  0  0
 21 39  1  0  0  0  0
 22 24  2  0  0  0  0
 22 40  1  0  0  0  0
 23 48  1  0  0  0  0
 24 41  1  0  0  0  0
 25 60  1  0  0  0  0
 26 61  1  0  0  0  0
 27 83  1  0  0  0  0
 28 84  1  0  0  0  0
 29 31  2  0  0  0  0
 29 83  1  0  0  0  0
 30 85  1  0  0  0  0
 31 86  1  0  0  0  0
 32 68  2  0  0  0  0
 33 69  1  0  0  0  0
 33 72  1  0  0  0  0
 34 73  1  0  0  0  0
 34 78  2  0  0  0  0
 35 49  1  0  0  0  0
 35 74  1  0  0  0  0
 35 79  2  0  0  0  0
 36 62  1  0  0  0  0
 36 70  1  0  0  0  0
 36 80  2  0  0  0  0
 37 63  1  0  0  0  0
 37 75  1  0  0  0  0
 37 81  2  0  0  0  0
 38 71  1  0  0  0  0
 38 76  1  0  0  0  0
 38 82  2  0  0  0  0
 39 42  1  0  0  0  0
 40 49  1  0  0  0  0
 41 70  1  0  0  0  0
 42 44  1  0  0  0  0
 43 45  1  0  0  0  0
 43 46  1  0  0  0  0
 44 48  1  0  0  0  0
 45 50  1  0  0  0  0
 46 71  1  0  0  0  0
 47 50  1  0  0  0  0
 47 71  1  0  0  0  0
 48 74  1  0  0  0  0
 49 70  1  0  0  0  0
 50 69  1  0  0  0  0
 51 63  1  0  0  0  0
 52 64  1  0  0  0  0
 53 64  1  0  0  0  0
 54 65  1  0  0  0  0
 55 67  1  0  0  0  0
 56 67  1  0  0  0  0
 57 67  1  0  0  0  0
 58 76  1  0  0  0  0
 59 77  1  0  0  0  0
 60 65  1  0  0  0  0
 61 84  1  0  0  0  0
 62 67  1  0  0  0  0
 62 75  1  0  0  0  0
 63 77  1  0  0  0  0
 64 66  1  0  0  0  0
 65 66  1  0  0  0  0
 66 76  1  0  0  0  0
 68 69  1  0  0  0  0
M  CHG  1  77   1
M  ISO  4  38 100  61 101  76 100  84 101
M  END
> <Batch ID>
0116

> <Smiles>
CNC(C)C(=O)NC(C(=O)N1Cc2cc([101O:1][101CH2:1]c3ccc(CC(C)C(C(C)C)[100N:0](C)[100C:0](=O)N4CCCC(n5nc(-c6ccc(Oc7ccc(F)cc7F)cc6)c(C(N)=O)c5N)C4)cc3)ccc2CC1C(=O)NC1CCCc2ccccc21)C(C)(C)C

> <Shape>
0.276

> <Color>
0.079

> <Negative vol penalty>
0.000

$$$$

  -OEChem-04052320133D

 88 96  0     1  0  0  0  0  0999 V2000
  -29.4699  -22.8833   18.7349 C   0  0  0  0  0  0  0  0  0  0  0  0
  -28.2407  -23.1091   19.3460 C   0  0  0  0  0  0  0  0  0  0  0  0
  -26.5454  -12.7599   20.6685 C   0  0  0  0  0  0  0  0  0  0  0  0
  -24.8766  -14.3068   19.8566 C   0  0  0  0  0  0  0  0  0  0  0  0
  -30.5851  -23.6268   19.1189 C   0  0  0  0  0  0  0  0  0  0  0  0
  -28.1262  -24.0780   20.3423 C   0  0  0  0  0  0  0  0  0  0  0  0
  -24.0164  -26.9803   19.7667 C   0  0  0  0  0  0  0  0  0  0  0  0
  -25.7080  -11.6903   20.3518 C   0  0  0  0  0  0  0  0  0  0  0  0
  -24.0392  -13.2372   19.5399 C   0  0  0  0  0  0  0  0  0  0  0  0
  -22.7941  -26.4390   20.1627 C   0  0  0  0  0  0  0  0  0  0  0  0
  -23.0011  -10.1672   21.6849 C   0  0  0  0  0  0  0  0  0  0  0  0
  -22.8630   -9.1511   22.6305 C   0  0  0  0  0  0  0  0  0  0  0  0
  -22.9235  -27.6750   22.2302 C   0  0  0  0  0  0  0  0  0  0  0  0
  -22.9967  -21.8981   22.7592 C   0  0  0  0  0  0  0  0  0  0  0  0
  -23.7237   -7.5516   21.0375 C   0  0  0  0  0  0  0  0  0  0  0  0
  -21.2379  -21.0847   23.9058 C   0  0  0  0  0  0  0  0  0  0  0  0
  -26.1296  -14.0682   20.4210 C   0  0  0  0  0  0  0  0  0  0  0  0
  -27.9566  -15.7755   19.9161 C   0  0  0  0  0  0  0  0  0  0  0  0
  -30.4821  -24.6120   20.1136 C   0  0  0  0  0  0  0  0  0  0  0  0
  -24.7078  -27.8661   20.6056 C   0  0  0  0  0  0  0  0  0  0  0  0
  -29.2414  -24.8345   20.7409 C   0  0  0  0  0  0  0  0  0  0  0  0
  -24.1531  -28.2282   21.8414 C   0  0  0  0  0  0  0  0  0  0  0  0
  -21.6077  -21.6268   22.6947 C   0  0  0  0  0  0  0  0  0  0  0  0
  -24.4549  -11.9289   19.7875 C   0  0  0  0  0  0  0  0  0  0  0  0
  -22.2489  -26.7841   21.3959 C   0  0  0  0  0  0  0  0  0  0  0  0
  -23.5004   -9.8754   20.4155 C   0  0  0  0  0  0  0  0  0  0  0  0
  -23.2243   -7.8434   22.3068 C   0  0  0  0  0  0  0  0  0  0  0  0
  -23.8618   -8.5676   20.0919 C   0  0  0  0  0  0  0  0  0  0  0  0
  -26.9939  -15.1735   20.7484 C   0  0  0  0  0  0  0  0  0  0  0  0
  -23.4335  -21.5134   24.0076 C   0  0  0  0  0  0  0  0  0  0  0  0
  -28.5032  -16.7715   20.6879 C   0  0  0  0  0  0  0  0  0  0  0  0
  -28.3239  -15.4624   18.5660 C   0  0  0  0  0  0  0  0  0  0  0  0
  -27.5329  -27.8325   22.0622 C   0  0  0  0  0  0  0  0  0  0  0  0
  -26.7243  -30.8727   22.8532 C   0  0  0  0  0  0  0  0  0  0  0  0
  -24.2577  -33.1766   23.3582 C   0  0  0  0  0  0  0  0  0  0  0  0
  -26.4493  -19.8990   25.3625 C   0  0  0  0  0  0  0  0  0  0  0  0
  -31.7257  -25.3576   20.5284 C   0  0  0  0  0  0  0  0  0  0  0  0
  -26.0124  -28.4620   20.1523 C   0  0  0  0  0  0  0  0  0  0  0  0
  -24.8457  -29.1906   22.7701 C   0  0  0  0  0  0  0  0  0  0  0  0
  -31.4375  -26.6250   21.3290 C   0  0  0  0  0  0  0  0  0  0  0  0
  -29.3999  -17.9097   25.2477 C   0  0  0  0  0  0  0  0  0  0  0  0
  -30.4047  -26.3461   22.4164 C   0  0  0  0  0  0  0  0  0  0  0  0
  -29.2047  -17.0372   24.0065 C   0  0  0  0  0  0  0  0  0  0  0  0
  -28.0835  -18.1445   25.9852 C   0  0  0  0  0  0  0  0  0  0  0  0
  -26.7982  -17.8104   23.9090 C   0  0  0  0  0  0  0  0  0  0  0  0
  -29.0717  -25.8938   21.8082 C   0  0  1  0  0  0  0  0  0  0  0  0
  -26.8777  -28.9548   21.3080 C   0  0  1  0  0  0  0  0  0  0  0  0
  -28.0888  -17.5920   23.1009 C   0  0  2  0  0  0  0  0  0  0  0  0
  -25.0467  -24.1271   24.3463 C   0  0  0  0  0  0  0  0  0  0  0  0
  -23.9033  -35.5668   24.0351 C   0  0  0  0  0  0  0  0  0  0  0  0
  -18.5167  -24.9926   22.4912 C   0  0  0  0  0  0  0  0  0  0  0  0
  -22.0023  -19.0247   26.1037 C   0  0  0  0  0  0  0  0  0  0  0  0
  -21.5090  -21.3433   26.9909 C   0  0  0  0  0  0  0  0  0  0  0  0
  -27.2629  -30.1261   25.7622 C   0  0  0  0  0  0  0  0  0  0  0  0
  -26.0102  -32.1822   26.4490 C   0  0  0  0  0  0  0  0  0  0  0  0
  -28.0949  -32.3881   25.0945 C   0  0  0  0  0  0  0  0  0  0  0  0
  -22.9938  -33.8445   20.7667 C   0  0  0  0  0  0  0  0  0  0  0  0
  -25.6343  -22.7530   24.0486 C   0  0  0  0  0  0  0  0  0  0  0  0
  -19.4859  -22.7734   21.8430 C   0  0  0  0  0  0  0  0  0  0  0  0
  -20.7315  -24.9555   21.2975 C   0  0  0  0  0  0  0  0  0  1  0  0
  -20.6984  -21.8844   21.5159 C   0  0  2  0  0  0  0  0  0  0  0  0
  -24.7859  -21.5753   24.5995 C   0  0  2  0  0  0  0  0  0  0  0  0
  -25.9874  -31.5187   24.0015 C   0  0  1  0  0  0  0  0  0  0  0  0
  -24.0999  -34.6062   22.8727 C   0  0  2  0  0  0  0  0  0  0  0  0
  -19.8218  -24.2134   22.2858 C   0  0  1  0  0  0  0  0  0  0  0  0
  -22.3765  -20.5071   26.0481 C   0  0  0  0  0  0  0  0  0  0  0  0
  -26.8265  -31.5341   25.3104 C   0  0  0  0  0  0  0  0  0  0  0  0
  -26.9303  -15.7397   21.9565 N   0  0  0  0  0  0  0  0  0  0  0  0
  -22.3559  -21.0202   24.6958 N   0  0  0  0  0  0  0  0  0  0  0  0
  -27.8600  -16.7079   21.8889 N   0  0  0  0  0  0  0  0  0  0  0  0
  -26.1218  -29.7415   22.2847 N   0  0  0  0  0  0  0  0  0  0  0  0
  -27.0681  -18.6722   25.0706 N   0  0  0  0  0  0  0  0  0  0  0  0
  -29.4665  -17.6868   20.4496 N   0  0  0  0  0  0  0  0  0  0  0  0
  -27.6621  -14.4087   17.9209 N   0  0  0  0  0  0  0  0  0  0  0  0
  -28.3443  -27.0296   21.2835 N   0  0  0  0  0  0  0  0  0  0  0  0
  -25.5832  -32.8406   23.5352 N   0  0  0  0  0  0  0  0  0  0  0  0
  -25.5032  -20.3299   24.4406 N   0  0  0  0  0  0  0  0  0  0  0  0
  -22.9226  -34.7184   21.9660 N   0  3  0  0  0  0  0  0  0  0  0  0
  -29.2239  -16.0875   17.9556 O   0  0  0  0  0  0  0  0  0  0  0  0
  -27.3193  -27.7053   23.2622 O   0  0  0  0  0  0  0  0  0  0  0  0
  -27.7915  -31.3583   22.4699 O   0  0  0  0  0  0  0  0  0  0  0  0
  -23.3006  -32.4334   23.5636 O   0  0  0  0  0  0  0  0  0  0  0  0
  -26.7238  -20.5637   26.3674 O   0  0  0  0  0  0  0  0  0  0  0  0
  -20.2281  -20.6186   21.0447 O   0  0  0  0  0  0  0  0  0  0  0  0
  -23.6376  -10.8854   19.4781 O   0  0  0  0  0  0  0  0  0  0  0  0
  -21.0563  -26.2567   21.7851 O   0  0  0  0  0  0  0  0  0  1  0  0
  -23.0931   -6.8680   23.2155 F   0  0  0  0  0  0  0  0  0  0  0  0
  -24.3432   -8.2815   18.8744 F   0  0  0  0  0  0  0  0  0  0  0  0
  1  2  1  0  0  0  0
  1  5  2  0  0  0  0
  2  6  2  0  0  0  0
  3  8  2  0  0  0  0
  3 17  1  0  0  0  0
  4  9  1  0  0  0  0
  4 17  2  0  0  0  0
  5 19  1  0  0  0  0
  6 21  1  0  0  0  0
  7 10  2  0  0  0  0
  7 20  1  0  0  0  0
  8 24  1  0  0  0  0
  9 24  2  0  0  0  0
 10 25  1  0  0  0  0
 11 12  2  0  0  0  0
 11 26  1  0  0  0  0
 12 27  1  0  0  0  0
 13 22  1  0  0  0  0
 13 25  2  0  0  0  0
 14 23  1  0  0  0  0
 14 30  2  0  0  0  0
 15 27  2  0  0  0  0
 15 28  1  0  0  0  0
 16 23  2  0  0  0  0
 16 69  1  0  0  0  0
 17 29  1  0  0  0  0
 18 29  1  0  0  0  0
 18 31  2  0  0  0  0
 18 32  1  0  0  0  0
 19 21  2  0  0  0  0
 19 37  1  0  0  0  0
 20 22  2  0  0  0  0
 20 38  1  0  0  0  0
 21 46  1  0  0  0  0
 22 39  1  0  0  0  0
 23 61  1  0  0  0  0
 24 85  1  0  0  0  0
 25 86  1  0  0  0  0
 26 28  2  0  0  0  0
 26 85  1  0  0  0  0
 27 87  1  0  0  0  0
 28 88  1  0  0  0  0
 29 68  2  0  0  0  0
 30 62  1  0  0  0  0
 30 69  1  0  0  0  0
 31 70  1  0  0  0  0
 31 73  1  0  0  0  0
 32 74  1  0  0  0  0
 32 79  2  0  0  0  0
 33 47  1  0  0  0  0
 33 75  1  0  0  0  0
 33 80  2  0  0  0  0
 34 63  1  0  0  0  0
 34 71  1  0  0  0  0
 34 81  2  0  0  0  0
 35 64  1  0  0  0  0
 35 76  1  0  0  0  0
 35 82  2  0  0  0  0
 36 72  1  0  0  0  0
 36 77  1  0  0  0  0
 36 83  2  0  0  0  0
 37 40  1  0  0  0  0
 38 47  1  0  0  0  0
 39 71  1  0  0  0  0
 40 42  1  0  0  0  0
 41 43  1  0  0  0  0
 41 44  1  0  0  0  0
 42 46  1  0  0  0  0
 43 48  1  0  0  0  0
 44 72  1  0  0  0  0
 45 48  1  0  0  0  0
 45 72  1  0  0  0  0
 46 75  1  0  0  0  0
 47 71  1  0  0  0  0
 48 70  1  0  0  0  0
 49 58  1  0  0  0  0
 50 64  1  0  0  0  0
 51 65  1  0  0  0  0
 52 66  1  0  0  0  0
 53 66  1  0  0  0  0
 54 67  1  0  0  0  0
 55 67  1  0  0  0  0
 56 67  1  0  0  0  0
 57 78  1  0  0  0  0
 58 62  1  0  0  0  0
 59 61  1  0  0  0  0
 59 65  1  0  0  0  0
 60 65  1  0  0  0  0
 60 86  1  0  0  0  0
 61 84  1  0  0  0  0
 62 77  1  0  0  0  0
 63 67  1  0  0  0  0
 63 76  1  0  0  0  0
 64 78  1  0  0  0  0
 66 69  1  0  0  0  0
 68 70  1  0  0  0  0
M  CHG  1  78   1
M  ISO  4  36 100  60 101  77 100  86 101
M  END
> <Batch ID>
0116

> <Smiles>
CCC([100NH:0][100C:0](=O)N1CCCC(n2nc(-c3ccc(Oc4ccc(F)cc4F)cc3)c(C(N)=O)c2N)C1)c1cc(C(O)CC(C)[101CH2:1][101O:1]c2ccc3c(c2)CN(C(=O)C(NC(=O)C(C)NC)C(C)(C)C)C(C(=O)NC2CCCc4ccccc42)C3)cn1C(C)C

> <Shape>
0.236

> <Color>
0.069

> <Negative vol penalty>
0.000

$$$$

  -OEChem-04052320132D

  0  0  0     0  0  0  0  0  0999 V2000
M  END
$$$$

  -OEChem-04052320133D

 83 91  0     1  0  0  0  0  0999 V2000
  -35.7289  -29.8732   16.6883 C   0  0  0  0  0  0  0  0  0  0  0  0
  -35.1334  -29.3063   17.8106 C   0  0  0  0  0  0  0  0  0  0  0  0
  -23.1293   -9.8772   19.9812 C   0  0  0  0  0  0  0  0  0  0  0  0
  -23.7909   -9.9951   22.3018 C   0  0  0  0  0  0  0  0  0  0  0  0
  -35.3373  -29.4677   15.4130 C   0  0  0  0  0  0  0  0  0  0  0  0
  -34.1452  -28.3344   17.6582 C   0  0  0  0  0  0  0  0  0  0  0  0
  -31.5770  -22.4407   20.8181 C   0  0  0  0  0  0  0  0  0  0  0  0
  -22.3943   -8.7224   20.2494 C   0  0  0  0  0  0  0  0  0  0  0  0
  -23.0559   -8.8404   22.5701 C   0  0  0  0  0  0  0  0  0  0  0  0
  -30.3757  -21.8992   21.2735 C   0  0  0  0  0  0  0  0  0  0  0  0
  -23.4242   -5.5035   22.1692 C   0  0  0  0  0  0  0  0  0  0  0  0
  -24.0252   -4.5209   22.9557 C   0  0  0  0  0  0  0  0  0  0  0  0
  -29.8358  -21.2197   19.0227 C   0  0  0  0  0  0  0  0  0  0  0  0
  -22.2503   -4.7359   24.5807 C   0  0  0  0  0  0  0  0  0  0  0  0
  -23.8276  -10.5135   21.0074 C   0  0  0  0  0  0  0  0  0  0  0  0
  -24.1331  -13.0371   20.7929 C   0  0  0  0  0  0  0  0  0  0  0  0
  -34.3507  -28.4834   15.2451 C   0  0  0  0  0  0  0  0  0  0  0  0
  -31.9123  -22.3853   19.4577 C   0  0  0  0  0  0  0  0  0  0  0  0
  -33.7392  -27.9163   16.3795 C   0  0  0  0  0  0  0  0  0  0  0  0
  -31.0431  -21.7590   18.5531 C   0  0  0  0  0  0  0  0  0  0  0  0
  -22.3576   -8.2040   21.5438 C   0  0  0  0  0  0  0  0  0  0  0  0
  -29.5035  -21.2912   20.3754 C   0  0  0  0  0  0  0  0  0  0  0  0
  -22.2362   -6.1025   22.5884 C   0  0  0  0  0  0  0  0  0  0  0  0
  -23.4383   -4.1370   24.1615 C   0  0  0  0  0  0  0  0  0  0  0  0
  -21.6492   -5.7187   23.7941 C   0  0  0  0  0  0  0  0  0  0  0  0
  -24.5875  -11.7061   20.7309 C   0  0  0  0  0  0  0  0  0  0  0  0
  -25.2274  -13.7900   20.4436 C   0  0  0  0  0  0  0  0  0  0  0  0
  -22.8378  -13.5471   21.1358 C   0  0  0  0  0  0  0  0  0  0  0  0
  -32.4582  -24.5471   17.1922 C   0  0  0  0  0  0  0  0  0  0  0  0
  -33.2564  -21.9373   15.4389 C   0  0  0  0  0  0  0  0  0  0  0  0
  -31.9812  -18.5964   14.9593 C   0  0  0  0  0  0  0  0  0  0  0  0
  -30.8940  -13.9881   20.9618 C   0  0  0  0  0  0  0  0  0  0  0  0
  -33.9270  -28.1115   13.8462 C   0  0  0  0  0  0  0  0  0  0  0  0
  -33.2242  -22.9504   18.9866 C   0  0  0  0  0  0  0  0  0  0  0  0
  -31.3658  -21.6555   17.0855 C   0  0  0  0  0  0  0  0  0  0  0  0
  -33.1385  -26.8063   13.7753 C   0  0  0  0  0  0  0  0  0  0  0  0
  -29.4284  -12.9293   18.0025 C   0  0  0  0  0  0  0  0  0  0  0  0
  -32.0610  -26.7743   14.8546 C   0  0  0  0  0  0  0  0  0  0  0  0
  -27.9825  -12.6293   18.3953 C   0  0  0  0  0  0  0  0  0  0  0  0
  -31.7480  -15.9030   23.8277 C   0  0  0  0  0  0  0  0  0  0  0  0
  -30.3949  -12.4570   19.0821 C   0  0  0  0  0  0  0  0  0  0  0  0
  -28.6792  -12.7530   20.8399 C   0  0  0  0  0  0  0  0  0  0  0  0
  -31.6786  -17.3714   24.2061 C   0  0  0  0  0  0  0  0  0  0  0  0
  -32.6812  -26.8414   16.2555 C   0  0  1  0  0  0  0  0  0  0  0  0
  -33.2276  -23.2938   17.5001 C   0  0  1  0  0  0  0  0  0  0  0  0
  -27.6556  -13.2122   19.7813 C   0  0  2  0  0  0  0  0  0  0  0  0
  -30.9003  -15.8356   22.5666 C   0  0  2  0  0  0  0  0  0  0  0  0
  -29.7047  -16.7118   22.9204 C   0  0  2  0  0  0  0  0  0  0  0  0
  -33.1540  -16.4843   14.2806 C   0  0  0  0  0  0  0  0  0  0  0  0
  -25.7896  -19.5618   21.5964 C   0  0  0  0  0  0  0  0  0  0  0  0
  -32.3853  -22.7033   12.6168 C   0  0  0  0  0  0  0  0  0  0  0  0
  -31.9525  -20.2787   12.1673 C   0  0  0  0  0  0  0  0  0  0  0  0
  -34.2598  -21.0509   12.7175 C   0  0  0  0  0  0  0  0  0  0  0  0
  -30.0270  -13.6742   23.3186 C   0  0  0  0  0  0  0  0  0  0  0  0
  -31.0169  -17.1534   17.3565 C   0  0  0  0  0  0  0  0  0  0  0  0
  -27.7606  -18.1203   22.1721 C   0  0  0  0  0  0  0  0  0  0  0  0
  -27.8103  -19.6442   20.0988 C   0  0  0  0  0  0  0  0  0  1  0  0
  -32.5077  -20.9840   14.5391 C   0  0  1  0  0  0  0  0  0  0  0  0
  -32.6143  -17.3040   15.4423 C   0  0  2  0  0  0  0  0  0  0  0  0
  -28.9735  -17.2947   21.7266 C   0  0  2  0  0  0  0  0  0  0  0  0
  -26.9580  -18.7560   21.0147 C   0  0  2  0  0  0  0  0  0  0  0  0
  -32.7634  -21.2675   13.0318 C   0  0  0  0  0  0  0  0  0  0  0  0
  -25.8703  -11.6154   20.3702 N   0  0  0  0  0  0  0  0  0  0  0  0
  -26.2314  -12.8990   20.2025 N   0  0  0  0  0  0  0  0  0  0  0  0
  -32.6575  -22.2286   16.6727 N   0  0  0  0  0  0  0  0  0  0  0  0
  -30.0516  -13.0256   20.3858 N   0  0  0  0  0  0  0  0  0  0  0  0
  -25.4190  -15.1208   20.3220 N   0  0  0  0  0  0  0  0  0  0  0  0
  -21.8274  -12.6350   21.4695 N   0  0  0  0  0  0  0  0  0  0  0  0
  -33.2221  -25.5526   16.6310 N   0  0  0  0  0  0  0  0  0  0  0  0
  -32.8821  -19.6402   14.9663 N   0  0  0  0  0  0  0  0  0  0  0  0
  -30.5246  -14.4955   22.2166 N   0  0  0  0  0  0  0  0  0  0  0  0
  -30.3224  -17.8208   23.7364 N   0  3  0  0  0  0  0  0  0  0  0  0
  -31.6127  -16.4786   16.1747 N   0  3  0  0  0  0  0  0  0  0  0  0
  -22.5793  -14.7746   21.1301 O   0  0  0  0  0  0  0  0  0  0  0  0
  -31.2599  -24.5976   17.4437 O   0  0  0  0  0  0  0  0  0  0  0  0
  -34.3365  -22.4006   15.0640 O   0  0  0  0  0  0  0  0  0  0  0  0
  -30.8061  -18.6716   14.6074 O   0  0  0  0  0  0  0  0  0  0  0  0
  -31.9241  -14.3685   20.3907 O   0  0  0  0  0  0  0  0  0  0  0  0
  -28.5342  -16.2284   20.8909 O   0  0  0  0  0  0  0  0  0  0  0  0
  -21.6403   -7.0774   21.8060 O   0  0  0  0  0  0  0  0  0  0  0  0
  -28.3300  -20.7624   20.8171 O   0  0  0  0  0  0  0  0  0  1  0  0
  -24.0147   -3.1923   24.9160 F   0  0  0  0  0  0  0  0  0  0  0  0
  -20.5074   -6.2896   24.2015 F   0  0  0  0  0  0  0  0  0  0  0  0
  1  2  1  0  0  0  0
  1  5  2  0  0  0  0
  2  6  2  0  0  0  0
  3  8  2  0  0  0  0
  3 15  1  0  0  0  0
  4  9  1  0  0  0  0
  4 15  2  0  0  0  0
  5 17  1  0  0  0  0
  6 19  1  0  0  0  0
  7 10  2  0  0  0  0
  7 18  1  0  0  0  0
  8 21  1  0  0  0  0
  9 21  2  0  0  0  0
 10 22  1  0  0  0  0
 11 12  2  0  0  0  0
 11 23  1  0  0  0  0
 12 24  1  0  0  0  0
 13 20  1  0  0  0  0
 13 22  2  0  0  0  0
 14 24  2  0  0  0  0
 14 25  1  0  0  0  0
 15 26  1  0  0  0  0
 16 26  1  0  0  0  0
 16 27  2  0  0  0  0
 16 28  1  0  0  0  0
 17 19  2  0  0  0  0
 17 33  1  0  0  0  0
 18 20  2  0  0  0  0
 18 34  1  0  0  0  0
 19 44  1  0  0  0  0
 20 35  1  0  0  0  0
 21 80  1  0  0  0  0
 22 81  1  0  0  0  0
 23 25  2  0  0  0  0
 23 80  1  0  0  0  0
 24 82  1  0  0  0  0
 25 83  1  0  0  0  0
 26 63  2  0  0  0  0
 27 64  1  0  0  0  0
 27 67  1  0  0  0  0
 28 68  1  0  0  0  0
 28 74  2  0  0  0  0
 29 45  1  0  0  0  0
 29 69  1  0  0  0  0
 29 75  2  0  0  0  0
 30 58  1  0  0  0  0
 30 65  1  0  0  0  0
 30 76  2  0  0  0  0
 31 59  1  0  0  0  0
 31 70  1  0  0  0  0
 31 77  2  0  0  0  0
 32 66  1  0  0  0  0
 32 71  1  0  0  0  0
 32 78  2  0  0  0  0
 33 36  1  0  0  0  0
 34 45  1  0  0  0  0
 35 65  1  0  0  0  0
 36 38  1  0  0  0  0
 37 39  1  0  0  0  0
 37 41  1  0  0  0  0
 38 44  1  0  0  0  0
 39 46  1  0  0  0  0
 40 43  1  0  0  0  0
 40 47  1  0  0  0  0
 41 66  1  0  0  0  0
 42 46  1  0  0  0  0
 42 66  1  0  0  0  0
 43 72  1  0  0  0  0
 44 69  1  0  0  0  0
 45 65  1  0  0  0  0
 46 64  1  0  0  0  0
 47 48  1  0  0  0  0
 47 71  1  0  0  0  0
 48 60  1  0  0  0  0
 48 72  1  0  0  0  0
 49 59  1  0  0  0  0
 50 61  1  0  0  0  0
 51 62  1  0  0  0  0
 52 62  1  0  0  0  0
 53 62  1  0  0  0  0
 54 71  1  0  0  0  0
 55 73  1  0  0  0  0
 56 60  1  0  0  0  0
 56 61  1  0  0  0  0
 57 61  1  0  0  0  0
 57 81  1  0  0  0  0
 58 62  1  0  0  0  0
 58 70  1  0  0  0  0
 59 73  1  0  0  0  0
 60 79  1  0  0  0  0
 63 64  1  0  0  0  0
M  CHG  2  72   1  73   1
M  ISO  4  32 100  57 101  71 100  81 101
M  END
> <Batch ID>
0116

> <Smiles>
CNC(C)C(=O)NC(C(=O)N1Cc2cc([101O:1][101CH2:1]C(C)CC(O)C3NCCC3[100N:0](C)[100C:0](=O)N3CCCC(n4nc(-c5ccc(Oc6ccc(F)cc6F)cc5)c(C(N)=O)c4N)C3)ccc2CC1C(=O)NC1CCCc2ccccc21)C(C)(C)C

> <Shape>
0.224

> <Color>
0.191

> <Negative vol penalty>
0.000

$$$$

  -OEChem-04052320133D

 87 95  0     1  0  0  0  0  0999 V2000
  -27.4066  -34.2641   25.5681 C   0  0  0  0  0  0  0  0  0  0  0  0
  -27.7013  -33.0550   24.9464 C   0  0  0  0  0  0  0  0  0  0  0  0
  -21.0534  -13.3894   22.2865 C   0  0  0  0  0  0  0  0  0  0  0  0
  -20.0783  -13.7474   20.1051 C   0  0  0  0  0  0  0  0  0  0  0  0
  -26.1181  -34.5072   26.0419 C   0  0  0  0  0  0  0  0  0  0  0  0
  -26.7077  -32.0877   24.7990 C   0  0  0  0  0  0  0  0  0  0  0  0
  -26.6718  -30.0287   20.1726 C   0  0  0  0  0  0  0  0  0  0  0  0
  -21.1922  -12.0311   22.0015 C   0  0  0  0  0  0  0  0  0  0  0  0
  -20.2172  -12.3891   19.8201 C   0  0  0  0  0  0  0  0  0  0  0  0
  -27.6408  -29.0650   19.8970 C   0  0  0  0  0  0  0  0  0  0  0  0
  -23.2986  -10.0580   20.2399 C   0  0  0  0  0  0  0  0  0  0  0  0
  -24.5106   -9.4483   20.5637 C   0  0  0  0  0  0  0  0  0  0  0  0
  -26.0124  -27.3269   20.2799 C   0  0  0  0  0  0  0  0  0  0  0  0
  -23.3500   -7.9217   22.0333 C   0  0  0  0  0  0  0  0  0  0  0  0
  -20.4964  -14.2476   21.3383 C   0  0  0  0  0  0  0  0  0  0  0  0
  -19.6095  -16.2279   22.6797 C   0  0  0  0  0  0  0  0  0  0  0  0
  -25.1058  -33.5463   25.8917 C   0  0  0  0  0  0  0  0  0  0  0  0
  -25.3664  -29.6479   20.5151 C   0  0  0  0  0  0  0  0  0  0  0  0
  -25.4048  -32.3176   25.2725 C   0  0  0  0  0  0  0  0  0  0  0  0
  -25.0280  -28.2878   20.5569 C   0  0  0  0  0  0  0  0  0  0  0  0
  -20.7741  -11.5309   20.7683 C   0  0  0  0  0  0  0  0  0  0  0  0
  -27.3120  -27.7138   19.9535 C   0  0  0  0  0  0  0  0  0  0  0  0
  -22.1123   -9.5996   20.8129 C   0  0  0  0  0  0  0  0  0  0  0  0
  -24.5363   -8.3801   21.4604 C   0  0  0  0  0  0  0  0  0  0  0  0
  -22.1380   -8.5315   21.7095 C   0  0  0  0  0  0  0  0  0  0  0  0
  -20.3522  -15.6508   21.6323 C   0  0  0  0  0  0  0  0  0  0  0  0
  -19.7930  -17.5804   22.5261 C   0  0  0  0  0  0  0  0  0  0  0  0
  -18.8241  -15.5978   23.7004 C   0  0  0  0  0  0  0  0  0  0  0  0
  -23.5185  -30.0238   23.0740 C   0  0  0  0  0  0  0  0  0  0  0  0
  -21.2716  -28.6664   21.1685 C   0  0  0  0  0  0  0  0  0  0  0  0
  -21.1236  -25.9577   18.7898 C   0  0  0  0  0  0  0  0  0  0  0  0
  -24.1271  -20.8455   19.9952 C   0  0  0  0  0  0  0  0  0  0  0  0
  -23.7399  -33.8354   26.4622 C   0  0  0  0  0  0  0  0  0  0  0  0
  -24.3258  -30.7003   20.7834 C   0  0  0  0  0  0  0  0  0  0  0  0
  -23.6356  -27.8272   20.8997 C   0  0  0  0  0  0  0  0  0  0  0  0
  -22.6496  -32.9080   25.9320 C   0  0  0  0  0  0  0  0  0  0  0  0
  -20.6623  -20.8846   19.1768 C   0  0  0  0  0  0  0  0  0  0  0  0
  -23.1194  -31.4571   25.9668 C   0  0  0  0  0  0  0  0  0  0  0  0
  -20.1229  -19.5997   19.8078 C   0  0  0  0  0  0  0  0  0  0  0  0
  -27.4596  -18.8430   20.7417 C   0  0  0  0  0  0  0  0  0  0  0  0
  -22.0716  -20.6920   18.6212 C   0  0  0  0  0  0  0  0  0  0  0  0
  -29.8069  -20.4289   20.7555 C   0  0  0  0  0  0  0  0  0  0  0  0
  -22.5085  -18.8636   20.2150 C   0  0  0  0  0  0  0  0  0  0  0  0
  -27.8558  -18.2984   22.1095 C   0  0  0  0  0  0  0  0  0  0  0  0
  -30.1428  -19.3367   21.7845 C   0  0  0  0  0  0  0  0  0  0  0  0
  -24.3478  -31.2534   25.0718 C   0  0  1  0  0  0  0  0  0  0  0  0
  -23.1604  -30.1877   21.6240 C   0  0  1  0  0  0  0  0  0  0  0  0
  -21.1117  -19.0236   20.8391 C   0  0  2  0  0  0  0  0  0  0  0  0
  -27.3374  -20.3798   20.6228 C   0  0  1  0  0  0  0  0  0  0  0  0
  -19.6130  -25.5983   16.8184 C   0  0  0  0  0  0  0  0  0  0  0  0
  -30.4133  -25.7298   21.3793 C   0  0  0  0  0  0  0  0  0  0  0  0
  -30.2000  -19.4416   24.8361 C   0  0  0  0  0  0  0  0  0  0  0  0
  -30.3429  -17.2252   23.6355 C   0  0  0  0  0  0  0  0  0  0  0  0
  -19.5678  -27.0697   23.1326 C   0  0  0  0  0  0  0  0  0  0  0  0
  -19.1011  -25.4371   21.2928 C   0  0  0  0  0  0  0  0  0  0  0  0
  -18.3639  -27.8097   21.0693 C   0  0  0  0  0  0  0  0  0  0  0  0
  -23.4154  -25.6445   16.9435 C   0  0  0  0  0  0  0  0  0  0  0  0
  -26.1372  -20.8650   21.4506 C   0  0  0  0  0  0  0  0  0  0  0  0
  -29.4113  -23.4407   21.1658 C   0  0  0  0  0  0  0  0  0  0  0  0
  -28.5769  -22.4540   20.3474 C   0  0  0  0  0  0  0  0  0  0  0  0
  -28.1284  -25.5150   20.3468 C   0  0  0  0  0  0  0  0  0  1  0  0
  -20.8232  -27.2533   20.8840 C   0  0  1  0  0  0  0  0  0  0  0  0
  -20.9791  -26.0780   17.2834 C   0  0  2  0  0  0  0  0  0  0  0  0
  -29.4961  -24.8435   20.5285 C   0  0  1  0  0  0  0  0  0  0  0  0
  -29.4611  -18.4086   24.0006 C   0  0  0  0  0  0  0  0  0  0  0  0
  -19.4908  -26.8983   21.6024 C   0  0  0  0  0  0  0  0  0  0  0  0
  -20.9619  -16.5620   20.8695 N   0  0  0  0  0  0  0  0  0  0  0  0
  -20.6026  -17.7255   21.4381 N   0  0  0  0  0  0  0  0  0  0  0  0
  -22.6550  -28.8940   21.1601 N   0  0  0  0  0  0  0  0  0  0  0  0
  -22.9600  -20.1447   19.6495 N   0  0  0  0  0  0  0  0  0  0  0  0
  -28.5481  -21.1446   21.0100 N   0  0  2  0  0  0  0  0  0  0  0  0
  -19.3392  -18.6478   23.2168 N   0  0  0  0  0  0  0  0  0  0  0  0
  -17.4674  -15.3555   23.4453 N   0  0  0  0  0  0  0  0  0  0  0  0
  -23.9541  -31.1864   23.6808 N   0  0  0  0  0  0  0  0  0  0  0  0
  -20.7712  -27.1261   19.4316 N   0  0  0  0  0  0  0  0  0  0  0  0
  -24.9097  -20.2605   20.9831 N   0  0  0  0  0  0  0  0  0  0  0  0
  -28.9952  -19.0679   22.7282 N   0  3  2  0  0  0  0  0  0  0  0  0
  -22.0218  -25.2644   16.5964 N   0  3  0  0  0  0  0  0  0  0  0  0
  -19.3070  -15.2746   24.8120 O   0  0  0  0  0  0  0  0  0  0  0  0
  -23.4065  -28.9244   23.6035 O   0  0  0  0  0  0  0  0  0  0  0  0
  -20.4252  -29.5378   21.3830 O   0  0  0  0  0  0  0  0  0  0  0  0
  -21.5069  -24.9289   19.3421 O   0  0  0  0  0  0  0  0  0  0  0  0
  -24.4453  -21.9162   19.4666 O   0  0  0  0  0  0  0  0  0  0  0  0
  -20.9097  -10.2055   20.4898 O   0  0  0  0  0  0  0  0  0  0  0  0
  -28.2631  -26.7640   19.6836 O   0  0  0  0  0  0  0  0  0  1  0  0
  -25.7001   -7.7937   21.7700 F   0  0  0  0  0  0  0  0  0  0  0  0
  -21.0014   -8.0859   22.2623 F   0  0  0  0  0  0  0  0  0  0  0  0
  1  2  1  0  0  0  0
  1  5  2  0  0  0  0
  2  6  2  0  0  0  0
  3  8  2  0  0  0  0
  3 15  1  0  0  0  0
  4  9  1  0  0  0  0
  4 15  2  0  0  0  0
  5 17  1  0  0  0  0
  6 19  1  0  0  0  0
  7 10  2  0  0  0  0
  7 18  1  0  0  0  0
  8 21  1  0  0  0  0
  9 21  2  0  0  0  0
 10 22  1  0  0  0  0
 11 12  2  0  0  0  0
 11 23  1  0  0  0  0
 12 24  1  0  0  0  0
 13 20  1  0  0  0  0
 13 22  2  0  0  0  0
 14 24  2  0  0  0  0
 14 25  1  0  0  0  0
 15 26  1  0  0  0  0
 16 26  1  0  0  0  0
 16 27  2  0  0  0  0
 16 28  1  0  0  0  0
 17 19  2  0  0  0  0
 17 33  1  0  0  0  0
 18 20  2  0  0  0  0
 18 34  1  0  0  0  0
 19 46  1  0  0  0  0
 20 35  1  0  0  0  0
 21 84  1  0  0  0  0
 22 85  1  0  0  0  0
 23 25  2  0  0  0  0
 23 84  1  0  0  0  0
 24 86  1  0  0  0  0
 25 87  1  0  0  0  0
 26 67  2  0  0  0  0
 27 68  1  0  0  0  0
 27 72  1  0  0  0  0
 28 73  1  0  0  0  0
 28 79  2  0  0  0  0
 29 47  1  0  0  0  0
 29 74  1  0  0  0  0
 29 80  2  0  0  0  0
 30 62  1  0  0  0  0
 30 69  1  0  0  0  0
 30 81  2  0  0  0  0
 31 63  1  0  0  0  0
 31 75  1  0  0  0  0
 31 82  2  0  0  0  0
 32 70  1  0  0  0  0
 32 76  1  0  0  0  0
 32 83  2  0  0  0  0
 33 36  1  0  0  0  0
 34 47  1  0  0  0  0
 35 69  1  0  0  0  0
 36 38  1  0  0  0  0
 37 39  1  0  0  0  0
 37 41  1  0  0  0  0
 38 46  1  0  0  0  0
 39 48  1  0  0  0  0
 40 44  1  0  0  0  0
 40 49  1  0  0  0  0
 41 70  1  0  0  0  0
 42 45  1  0  0  0  0
 42 71  1  0  0  0  0
 43 48  1  0  0  0  0
 43 70  1  0  0  0  0
 44 77  1  0  0  0  0
 45 77  1  0  0  0  0
 46 74  1  0  0  0  0
 47 69  1  0  0  0  0
 48 68  1  0  0  0  0
 49 58  1  0  0  0  0
 49 71  1  0  0  0  0
 50 63  1  0  0  0  0
 51 64  1  0  0  0  0
 52 65  1  0  0  0  0
 53 65  1  0  0  0  0
 54 66  1  0  0  0  0
 55 66  1  0  0  0  0
 56 66  1  0  0  0  0
 57 78  1  0  0  0  0
 58 76  1  0  0  0  0
 59 60  1  0  0  0  0
 59 64  1  0  0  0  0
 60 71  1  0  0  0  0
 61 64  1  0  0  0  0
 61 85  1  0  0  0  0
 62 66  1  0  0  0  0
 62 75  1  0  0  0  0
 63 78  1  0  0  0  0
 65 77  1  0  0  0  0
 67 68  1  0  0  0  0
M  CHG  2  77   1  78   1
M  ISO  4  32 100  61 101  76 100  85 101
M  END
> <Batch ID>
0116

> <Smiles>
CNC(C)C(=O)NC(C(=O)N1Cc2cc([101O:1][101CH2:1]C(C)CCN3CCN(C(C)C)CCC3C[100NH:0][100C:0](=O)N3CCCC(n4nc(-c5ccc(Oc6ccc(F)cc6F)cc5)c(C(N)=O)c4N)C3)ccc2CC1C(=O)NC1CCCc2ccccc21)C(C)(C)C

> <Shape>
0.234

> <Color>
0.068

> <Negative vol penalty>
0.000

$$$$

  -OEChem-04052320133D

 87 95  0     1  0  0  0  0  0999 V2000
  -31.0295  -24.6229   17.5974 C   0  0  0  0  0  0  0  0  0  0  0  0
  -30.0968  -23.6784   18.0137 C   0  0  0  0  0  0  0  0  0  0  0  0
  -26.6673  -12.8173   21.5540 C   0  0  0  0  0  0  0  0  0  0  0  0
  -25.9452  -14.1498   19.6724 C   0  0  0  0  0  0  0  0  0  0  0  0
  -31.1096  -25.8547   18.2456 C   0  0  0  0  0  0  0  0  0  0  0  0
  -29.2443  -23.9648   19.0794 C   0  0  0  0  0  0  0  0  0  0  0  0
  -23.4366  -22.1376   19.7416 C   0  0  0  0  0  0  0  0  0  0  0  0
  -25.3879  -12.2718   21.6587 C   0  0  0  0  0  0  0  0  0  0  0  0
  -24.6657  -13.6042   19.7771 C   0  0  0  0  0  0  0  0  0  0  0  0
  -22.8585  -21.0914   20.4592 C   0  0  0  0  0  0  0  0  0  0  0  0
  -23.5592   -9.8926   20.1003 C   0  0  0  0  0  0  0  0  0  0  0  0
  -23.4554   -8.5137   20.2831 C   0  0  0  0  0  0  0  0  0  0  0  0
  -22.3996  -22.6033   22.2820 C   0  0  0  0  0  0  0  0  0  0  0  0
  -22.3040   -8.8777   22.3756 C   0  0  0  0  0  0  0  0  0  0  0  0
  -26.9460  -13.7564   20.5609 C   0  0  0  0  0  0  0  0  0  0  0  0
  -29.4710  -13.6285   20.2205 C   0  0  0  0  0  0  0  0  0  0  0  0
  -30.2511  -26.1600   19.3135 C   0  0  0  0  0  0  0  0  0  0  0  0
  -23.5105  -23.4243   20.2941 C   0  0  0  0  0  0  0  0  0  0  0  0
  -29.3138  -25.2013   19.7434 C   0  0  0  0  0  0  0  0  0  0  0  0
  -22.9769  -23.6647   21.5683 C   0  0  0  0  0  0  0  0  0  0  0  0
  -24.3871  -12.6652   20.7703 C   0  0  0  0  0  0  0  0  0  0  0  0
  -22.3425  -21.3235   21.7308 C   0  0  0  0  0  0  0  0  0  0  0  0
  -23.0354  -10.7641   21.0553 C   0  0  0  0  0  0  0  0  0  0  0  0
  -22.8278   -8.0062   21.4207 C   0  0  0  0  0  0  0  0  0  0  0  0
  -22.4078  -10.2566   22.1929 C   0  0  0  0  0  0  0  0  0  0  0  0
  -28.2673  -14.3207   20.4525 C   0  0  0  0  0  0  0  0  0  0  0  0
  -30.4331  -14.6085   20.2044 C   0  0  0  0  0  0  0  0  0  0  0  0
  -29.6989  -12.2250   20.0359 C   0  0  0  0  0  0  0  0  0  0  0  0
  -25.8772  -25.3924   21.0873 C   0  0  0  0  0  0  0  0  0  0  0  0
  -23.4443  -27.4596   21.6616 C   0  0  0  0  0  0  0  0  0  0  0  0
  -23.9712  -15.5233   23.8506 C   0  0  0  0  0  0  0  0  0  0  0  0
  -20.1467  -27.9162   22.4128 C   0  0  0  0  0  0  0  0  0  0  0  0
  -27.2052  -18.7666   21.4101 C   0  0  0  0  0  0  0  0  0  0  0  0
  -30.4070  -27.4867   20.0137 C   0  0  0  0  0  0  0  0  0  0  0  0
  -24.1132  -24.5480   19.4963 C   0  0  0  0  0  0  0  0  0  0  0  0
  -23.0132  -25.0323   22.1982 C   0  0  0  0  0  0  0  0  0  0  0  0
  -29.2143  -27.8556   20.8922 C   0  0  0  0  0  0  0  0  0  0  0  0
  -29.2992  -18.5207   18.5978 C   0  0  0  0  0  0  0  0  0  0  0  0
  -28.7958  -26.6665   21.7511 C   0  0  0  0  0  0  0  0  0  0  0  0
  -30.5526  -17.8128   19.1050 C   0  0  0  0  0  0  0  0  0  0  0  0
  -28.7682  -19.4971   19.6372 C   0  0  0  0  0  0  0  0  0  0  0  0
  -27.9721  -19.3694   23.7450 C   0  0  0  0  0  0  0  0  0  0  0  0
  -29.6681  -18.1218   21.4940 C   0  0  0  0  0  0  0  0  0  0  0  0
  -27.2805  -20.4481   24.5683 C   0  0  0  0  0  0  0  0  0  0  0  0
  -25.0900  -19.3110   24.2101 C   0  0  0  0  0  0  0  0  0  0  0  0
  -28.3550  -25.4844   20.8794 C   0  0  1  0  0  0  0  0  0  0  0  0
  -24.5973  -25.7049   20.3650 C   0  0  1  0  0  0  0  0  0  0  0  0
  -30.3770  -17.1787   20.4960 C   0  0  1  0  0  0  0  0  0  0  0  0
  -25.7773  -18.2321   23.3718 C   0  0  2  0  0  0  0  0  0  0  0  0
  -18.4586  -29.7193   22.8558 C   0  0  0  0  0  0  0  0  0  0  0  0
  -24.6149  -27.8671   24.4497 C   0  0  0  0  0  0  0  0  0  0  0  0
  -22.4346  -28.8859   25.1402 C   0  0  0  0  0  0  0  0  0  0  0  0
  -23.7971  -29.9569   23.3460 C   0  0  0  0  0  0  0  0  0  0  0  0
  -25.3838  -20.8788   26.1262 C   0  0  0  0  0  0  0  0  0  0  0  0
  -18.4912  -27.0952   20.1010 C   0  0  0  0  0  0  0  0  0  0  0  0
  -22.6954  -15.1335   24.5809 C   0  0  0  0  0  0  0  0  0  0  0  0
  -26.0052  -16.9329   24.1504 C   0  0  0  0  0  0  0  0  0  0  0  0
  -19.9982  -18.6919   22.4979 C   0  0  0  0  0  0  0  0  0  0  0  0
  -21.7883  -16.3108   24.9012 C   0  0  0  0  0  0  0  0  0  0  0  0
  -20.4247  -18.1138   23.8389 C   0  0  0  0  0  0  0  0  0  0  0  0
  -21.1508  -19.2660   21.6832 C   0  0  0  0  0  0  0  0  0  1  0  0
  -22.5844  -27.7931   22.8567 C   0  0  1  0  0  0  0  0  0  0  0  0
  -19.0909  -28.8211   21.8040 C   0  0  2  0  0  0  0  0  0  0  0  0
  -23.3586  -28.5994   23.9374 C   0  0  0  0  0  0  0  0  0  0  0  0
  -28.4459  -15.6387   20.5752 N   0  0  0  0  0  0  0  0  0  0  0  0
  -29.7730  -15.7825   20.4197 N   0  0  0  0  0  0  0  0  0  0  0  0
  -23.6184  -26.0970   21.3810 N   0  0  0  0  0  0  0  0  0  0  0  0
  -28.5182  -18.8333   20.9156 N   0  0  0  0  0  0  0  0  0  0  0  0
  -27.0448  -18.7240   22.8043 N   0  0  0  0  0  0  0  0  0  0  0  0
  -31.7709  -14.5721   20.0273 N   0  0  0  0  0  0  0  0  0  0  0  0
  -29.6482  -11.7053   18.7353 N   0  0  0  0  0  0  0  0  0  0  0  0
  -27.0176  -25.7023   20.3711 N   0  0  0  0  0  0  0  0  0  0  0  0
  -24.7558  -16.4152   24.5915 N   0  0  0  0  0  0  0  0  0  0  0  0
  -21.4051  -28.4743   22.3337 N   0  0  0  0  0  0  0  0  0  0  0  0
  -26.0512  -19.8763   25.2257 N   0  3  2  0  0  0  0  0  0  0  0  0
  -18.0140  -28.0081   21.1714 N   0  3  0  0  0  0  0  0  0  0  0  0
  -21.3653  -16.9772   23.6443 N   0  3  0  0  0  0  0  0  0  0  0  0
  -29.9242  -11.4519   20.9977 O   0  0  0  0  0  0  0  0  0  0  0  0
  -25.8335  -24.9073   22.2118 O   0  0  0  0  0  0  0  0  0  0  0  0
  -23.9374  -28.3745   20.9971 O   0  0  0  0  0  0  0  0  0  0  0  0
  -24.2709  -15.0891   22.7418 O   0  0  0  0  0  0  0  0  0  0  0  0
  -19.8812  -26.8250   22.9122 O   0  0  0  0  0  0  0  0  0  0  0  0
  -26.2312  -18.7293   20.6475 O   0  0  0  0  0  0  0  0  0  0  0  0
  -23.1386  -12.1328   20.8720 O   0  0  0  0  0  0  0  0  0  0  0  0
  -21.7743  -20.2968   22.4386 O   0  0  0  0  0  0  0  0  0  1  0  0
  -22.7268   -6.6820   21.5953 F   0  0  0  0  0  0  0  0  0  0  0  0
  -21.9016  -11.0889   23.1132 F   0  0  0  0  0  0  0  0  0  0  0  0
  1  2  1  0  0  0  0
  1  5  2  0  0  0  0
  2  6  2  0  0  0  0
  3  8  2  0  0  0  0
  3 15  1  0  0  0  0
  4  9  1  0  0  0  0
  4 15  2  0  0  0  0
  5 17  1  0  0  0  0
  6 19  1  0  0  0  0
  7 10  2  0  0  0  0
  7 18  1  0  0  0  0
  8 21  1  0  0  0  0
  9 21  2  0  0  0  0
 10 22  1  0  0  0  0
 11 12  2  0  0  0  0
 11 23  1  0  0  0  0
 12 24  1  0  0  0  0
 13 20  1  0  0  0  0
 13 22  2  0  0  0  0
 14 24  2  0  0  0  0
 14 25  1  0  0  0  0
 15 26  1  0  0  0  0
 16 26  1  0  0  0  0
 16 27  2  0  0  0  0
 16 28  1  0  0  0  0
 17 19  2  0  0  0  0
 17 34  1  0  0  0  0
 18 20  2  0  0  0  0
 18 35  1  0  0  0  0
 19 46  1  0  0  0  0
 20 36  1  0  0  0  0
 21 84  1  0  0  0  0
 22 85  1  0  0  0  0
 23 25  2  0  0  0  0
 23 84  1  0  0  0  0
 24 86  1  0  0  0  0
 25 87  1  0  0  0  0
 26 65  2  0  0  0  0
 27 66  1  0  0  0  0
 27 70  1  0  0  0  0
 28 71  1  0  0  0  0
 28 78  2  0  0  0  0
 29 47  1  0  0  0  0
 29 72  1  0  0  0  0
 29 79  2  0  0  0  0
 30 62  1  0  0  0  0
 30 67  1  0  0  0  0
 30 80  2  0  0  0  0
 31 56  1  0  0  0  0
 31 73  1  0  0  0  0
 31 81  2  0  0  0  0
 32 63  1  0  0  0  0
 32 74  1  0  0  0  0
 32 82  2  0  0  0  0
 33 68  1  0  0  0  0
 33 69  1  0  0  0  0
 33 83  2  0  0  0  0
 34 37  1  0  0  0  0
 35 47  1  0  0  0  0
 36 67  1  0  0  0  0
 37 39  1  0  0  0  0
 38 40  1  0  0  0  0
 38 41  1  0  0  0  0
 39 46  1  0  0  0  0
 40 48  1  0  0  0  0
 41 68  1  0  0  0  0
 42 44  1  0  0  0  0
 42 69  1  0  0  0  0
 43 48  1  0  0  0  0
 43 68  1  0  0  0  0
 44 75  1  0  0  0  0
 45 49  1  0  0  0  0
 45 75  1  0  0  0  0
 46 72  1  0  0  0  0
 47 67  1  0  0  0  0
 48 66  1  0  0  0  0
 49 57  1  0  0  0  0
 49 69  1  0  0  0  0
 50 63  1  0  0  0  0
 51 64  1  0  0  0  0
 52 64  1  0  0  0  0
 53 64  1  0  0  0  0
 54 75  1  0  0  0  0
 55 76  1  0  0  0  0
 56 59  1  0  0  0  0
 57 73  1  0  0  0  0
 58 60  1  0  0  0  0
 58 61  1  0  0  0  0
 59 77  1  0  0  0  0
 60 77  1  0  0  0  0
 61 85  1  0  0  0  0
 62 64  1  0  0  0  0
 62 74  1  0  0  0  0
 63 76  1  0  0  0  0
 65 66  1  0  0  0  0
M  CHG  3  75   1  76   1  77   1
M  ISO  4  33 100  61 101  69 100  85 101
M  END
> <Batch ID>
0116

> <Smiles>
CNC(C)C(=O)NC(C(=O)N1Cc2cc([101O:1][101CH2:1]CCNCCC(=O)NCC3CN(C)CC[100N:0]3[100C:0](=O)N3CCCC(n4nc(-c5ccc(Oc6ccc(F)cc6F)cc5)c(C(N)=O)c4N)C3)ccc2CC1C(=O)NC1CCCc2ccccc21)C(C)(C)C

> <Shape>
0.259

> <Color>
0.053

> <Negative vol penalty>
0.000

$$$$

  -OEChem-04052320133D

 86 94  0     1  0  0  0  0  0999 V2000
  -22.7831  -20.0892   23.6832 C   0  0  0  0  0  0  0  0  0  0  0  0
  -23.5782  -20.8970   22.8765 C   0  0  0  0  0  0  0  0  0  0  0  0
  -25.2662  -13.2794   21.7682 C   0  0  0  0  0  0  0  0  0  0  0  0
  -25.9374  -12.7925   19.4989 C   0  0  0  0  0  0  0  0  0  0  0  0
  -21.5185  -20.5266   24.0750 C   0  0  0  0  0  0  0  0  0  0  0  0
  -23.1087  -22.1423   22.4603 C   0  0  0  0  0  0  0  0  0  0  0  0
  -26.5996  -25.7835   22.9083 C   0  0  0  0  0  0  0  0  0  0  0  0
  -24.8909  -11.9474   21.9430 C   0  0  0  0  0  0  0  0  0  0  0  0
  -25.5622  -11.4604   19.6737 C   0  0  0  0  0  0  0  0  0  0  0  0
  -27.5914  -25.8385   21.9301 C   0  0  0  0  0  0  0  0  0  0  0  0
  -23.4213   -8.7529   22.8699 C   0  0  0  0  0  0  0  0  0  0  0  0
  -22.1998   -8.4981   23.4931 C   0  0  0  0  0  0  0  0  0  0  0  0
  -26.4014  -27.6269   20.8326 C   0  0  0  0  0  0  0  0  0  0  0  0
  -30.8609  -24.2853   21.0081 C   0  0  0  0  0  0  0  0  0  0  0  0
  -29.3852  -24.2866   19.1089 C   0  0  0  0  0  0  0  0  0  0  0  0
  -21.0549   -9.7104   21.7448 C   0  0  0  0  0  0  0  0  0  0  0  0
  -25.7893  -13.7020   20.5461 C   0  0  0  0  0  0  0  0  0  0  0  0
  -27.4399  -15.6457   20.6164 C   0  0  0  0  0  0  0  0  0  0  0  0
  -21.0372  -21.7820   23.6713 C   0  0  0  0  0  0  0  0  0  0  0  0
  -25.4938  -26.6438   22.8499 C   0  0  0  0  0  0  0  0  0  0  0  0
  -21.8360  -22.5963   22.8460 C   0  0  0  0  0  0  0  0  0  0  0  0
  -25.3981  -27.5825   21.8127 C   0  0  0  0  0  0  0  0  0  0  0  0
  -30.0150  -24.9703   20.1430 C   0  0  0  0  0  0  0  0  0  0  0  0
  -25.0390  -11.0379   20.8958 C   0  0  0  0  0  0  0  0  0  0  0  0
  -27.4910  -26.7583   20.8904 C   0  0  0  0  0  0  0  0  0  0  0  0
  -23.4597   -9.4865   21.6841 C   0  0  0  0  0  0  0  0  0  0  0  0
  -21.0165   -8.9768   22.9306 C   0  0  0  0  0  0  0  0  0  0  0  0
  -22.2765   -9.9653   21.1216 C   0  0  0  0  0  0  0  0  0  0  0  0
  -26.1766  -15.0779   20.3647 C   0  0  0  0  0  0  0  0  0  0  0  0
  -31.0424  -22.9278   20.7980 C   0  0  0  0  0  0  0  0  0  0  0  0
  -29.6329  -22.9291   18.9838 C   0  0  0  0  0  0  0  0  0  0  0  0
  -27.2924  -16.9711   20.2875 C   0  0  0  0  0  0  0  0  0  0  0  0
  -28.6396  -15.0302   21.1038 C   0  0  0  0  0  0  0  0  0  0  0  0
  -22.3533  -26.2441   22.5649 C   0  0  0  0  0  0  0  0  0  0  0  0
  -22.2950  -29.4527   23.0379 C   0  0  0  0  0  0  0  0  0  0  0  0
  -23.9403  -32.4375   22.8623 C   0  0  0  0  0  0  0  0  0  0  0  0
  -25.4286  -20.9545   16.8517 C   0  0  0  0  0  0  0  0  0  0  0  0
  -19.6447  -22.1916   24.0811 C   0  0  0  0  0  0  0  0  0  0  0  0
  -24.4459  -26.5900   23.9277 C   0  0  0  0  0  0  0  0  0  0  0  0
  -24.2413  -28.5421   21.7158 C   0  0  0  0  0  0  0  0  0  0  0  0
  -19.3722  -23.6834   23.9057 C   0  0  0  0  0  0  0  0  0  0  0  0
  -23.1372  -19.6632   19.2514 C   0  0  0  0  0  0  0  0  0  0  0  0
  -19.8576  -24.1577   22.5396 C   0  0  0  0  0  0  0  0  0  0  0  0
  -23.8249  -18.3993   19.7707 C   0  0  0  0  0  0  0  0  0  0  0  0
  -23.3937  -19.8733   17.7607 C   0  0  0  0  0  0  0  0  0  0  0  0
  -25.5037  -18.6065   17.8899 C   0  0  0  0  0  0  0  0  0  0  0  0
  -21.3719  -23.9641   22.3944 C   0  0  1  0  0  0  0  0  0  0  0  0
  -23.1038  -27.1647   23.4853 C   0  0  1  0  0  0  0  0  0  0  0  0
  -25.3202  -18.3823   19.4006 C   0  0  2  0  0  0  0  0  0  0  0  0
  -30.7689  -27.2933   19.5276 C   0  0  0  0  0  0  0  0  0  0  0  0
  -23.6203  -34.8909   23.2816 C   0  0  0  0  0  0  0  0  0  0  0  0
  -31.4470  -22.2297   23.1844 C   0  0  0  0  0  0  0  0  0  0  0  0
  -33.3967  -22.7262   21.6716 C   0  0  0  0  0  0  0  0  0  0  0  0
  -32.0814  -20.6360   21.3845 C   0  0  0  0  0  0  0  0  0  0  0  0
  -20.6578  -29.6751   20.4727 C   0  0  0  0  0  0  0  0  0  0  0  0
  -21.1799  -32.1234   20.4343 C   0  0  0  0  0  0  0  0  0  0  0  0
  -19.8858  -31.1555   22.3346 C   0  0  0  0  0  0  0  0  0  0  0  0
  -26.0955  -32.4904   24.8899 C   0  0  0  0  0  0  0  0  0  0  0  0
  -28.1070  -22.9002   17.0098 C   0  0  0  0  0  0  0  0  0  0  0  0
  -27.5533  -21.9102   15.9964 C   0  0  0  0  0  0  0  0  0  0  0  0
  -29.7810  -26.4524   20.3262 C   0  0  1  0  0  0  0  0  0  1  0  0
  -22.3589  -30.6667   22.1428 C   0  0  1  0  0  0  0  0  0  0  0  0
  -24.0878  -33.5670   23.8658 C   0  0  2  0  0  0  0  0  0  0  0  0
  -31.9434  -22.1606   21.7072 C   0  0  0  0  0  0  0  0  0  0  0  0
  -21.0415  -30.8859   21.3466 C   0  0  0  0  0  0  0  0  0  0  0  0
  -25.2916  -15.9696   19.9111 N   0  0  0  0  0  0  0  0  0  0  0  0
  -30.4480  -22.2296   19.8046 N   0  0  0  0  0  0  0  0  0  0  0  0
  -25.9999  -17.1111   19.8752 N   0  0  0  0  0  0  0  0  0  0  0  0
  -23.2392  -28.4463   22.7901 N   0  0  0  0  0  0  0  0  0  0  0  0
  -24.8306  -19.8479   17.4770 N   0  0  0  0  0  0  0  0  0  0  0  0
  -28.1434  -18.0187   20.3137 N   0  0  0  0  0  0  0  0  0  0  0  0
  -28.6173  -13.6588   21.3922 N   0  0  0  0  0  0  0  0  0  0  0  0
  -28.9842  -22.2461   17.9252 N   0  0  0  0  0  0  0  0  0  0  0  0
  -22.0848  -25.0020   23.1077 N   0  0  0  0  0  0  0  0  0  0  0  0
  -22.7325  -31.7866   22.9998 N   0  0  0  0  0  0  0  0  0  0  0  0
  -26.7956  -20.8511   16.6250 N   0  0  0  0  0  0  0  0  0  0  0  0
  -25.5129  -33.7118   24.2769 N   0  3  0  0  0  0  0  0  0  0  0  0
  -29.6953  -15.6804   21.2939 O   0  0  0  0  0  0  0  0  0  0  0  0
  -22.0397  -26.6325   21.4458 O   0  0  0  0  0  0  0  0  0  0  0  0
  -21.4434  -29.4026   23.9290 O   0  0  0  0  0  0  0  0  0  0  0  0
  -24.8080  -32.1627   22.0364 O   0  0  0  0  0  0  0  0  0  0  0  0
  -24.7925  -21.9622   16.5249 O   0  0  0  0  0  0  0  0  0  0  0  0
  -24.6732   -9.7380   21.0661 O   0  0  0  0  0  0  0  0  0  0  0  0
  -28.4573  -26.8136   19.9339 O   0  0  0  0  0  0  0  0  0  1  0  0
  -19.8434   -8.7307   23.5284 F   0  0  0  0  0  0  0  0  0  0  0  0
  -22.3069  -10.6696   19.9820 F   0  0  0  0  0  0  0  0  0  0  0  0
  1  2  1  0  0  0  0
  1  5  2  0  0  0  0
  2  6  2  0  0  0  0
  3  8  2  0  0  0  0
  3 17  1  0  0  0  0
  4  9  1  0  0  0  0
  4 17  2  0  0  0  0
  5 19  1  0  0  0  0
  6 21  1  0  0  0  0
  7 10  2  0  0  0  0
  7 20  1  0  0  0  0
  8 24  1  0  0  0  0
  9 24  2  0  0  0  0
 10 25  1  0  0  0  0
 11 12  2  0  0  0  0
 11 26  1  0  0  0  0
 12 27  1  0  0  0  0
 13 22  1  0  0  0  0
 13 25  2  0  0  0  0
 14 23  2  0  0  0  0
 14 30  1  0  0  0  0
 15 23  1  0  0  0  0
 15 31  2  0  0  0  0
 16 27  2  0  0  0  0
 16 28  1  0  0  0  0
 17 29  1  0  0  0  0
 18 29  1  0  0  0  0
 18 32  2  0  0  0  0
 18 33  1  0  0  0  0
 19 21  2  0  0  0  0
 19 38  1  0  0  0  0
 20 22  2  0  0  0  0
 20 39  1  0  0  0  0
 21 47  1  0  0  0  0
 22 40  1  0  0  0  0
 23 61  1  0  0  0  0
 24 83  1  0  0  0  0
 25 84  1  0  0  0  0
 26 28  2  0  0  0  0
 26 83  1  0  0  0  0
 27 85  1  0  0  0  0
 28 86  1  0  0  0  0
 29 66  2  0  0  0  0
 30 64  1  0  0  0  0
 30 67  2  0  0  0  0
 31 67  1  0  0  0  0
 31 73  1  0  0  0  0
 32 68  1  0  0  0  0
 32 71  1  0  0  0  0
 33 72  1  0  0  0  0
 33 78  2  0  0  0  0
 34 48  1  0  0  0  0
 34 74  1  0  0  0  0
 34 79  2  0  0  0  0
 35 62  1  0  0  0  0
 35 69  1  0  0  0  0
 35 80  2  0  0  0  0
 36 63  1  0  0  0  0
 36 75  1  0  0  0  0
 36 81  2  0  0  0  0
 37 70  1  0  0  0  0
 37 76  1  0  0  0  0
 37 82  2  0  0  0  0
 38 41  1  0  0  0  0
 39 48  1  0  0  0  0
 40 69  1  0  0  0  0
 41 43  1  0  0  0  0
 42 44  1  0  0  0  0
 42 45  1  0  0  0  0
 43 47  1  0  0  0  0
 44 49  1  0  0  0  0
 45 70  1  0  0  0  0
 46 49  1  0  0  0  0
 46 70  1  0  0  0  0
 47 74  1  0  0  0  0
 48 69  1  0  0  0  0
 49 68  1  0  0  0  0
 50 61  1  0  0  0  0
 51 63  1  0  0  0  0
 52 64  1  0  0  0  0
 53 64  1  0  0  0  0
 54 64  1  0  0  0  0
 55 65  1  0  0  0  0
 56 65  1  0  0  0  0
 57 65  1  0  0  0  0
 58 77  1  0  0  0  0
 59 60  1  0  0  0  0
 59 73  1  0  0  0  0
 60 76  1  0  0  0  0
 61 84  1  0  0  0  0
 62 65  1  0  0  0  0
 62 75  1  0  0  0  0
 63 77  1  0  0  0  0
 66 68  1  0  0  0  0
M  CHG  1  77   1
M  ISO  4  37 100  61 101  76 100  84 101
M  END
> <Batch ID>
0116

> <Smiles>
CNC(C)C(=O)NC(C(=O)N1Cc2cc([101O:1][101CH:1](C)c3cc(NCC[100NH:0][100C:0](=O)N4CCCC(n5nc(-c6ccc(Oc7ccc(F)cc7F)cc6)c(C(N)=O)c5N)C4)nc(C(C)(C)C)c3)ccc2CC1C(=O)NC1CCCc2ccccc21)C(C)(C)C

> <Shape>
0.217

> <Color>
0.065

> <Negative vol penalty>
0.000

$$$$

  -OEChem-04052320133D

 87 95  0     1  0  0  0  0  0999 V2000
  -17.2392  -30.2472   24.0191 C   0  0  0  0  0  0  0  0  0  0  0  0
  -18.6037  -30.5022   24.1114 C   0  0  0  0  0  0  0  0  0  0  0  0
  -24.4498  -14.3603   21.2375 C   0  0  0  0  0  0  0  0  0  0  0  0
  -26.4721  -14.0775   19.9461 C   0  0  0  0  0  0  0  0  0  0  0  0
  -16.7901  -29.0696   23.4230 C   0  0  0  0  0  0  0  0  0  0  0  0
  -19.5200  -29.5791   23.6086 C   0  0  0  0  0  0  0  0  0  0  0  0
  -25.9628  -29.2361   20.4960 C   0  0  0  0  0  0  0  0  0  0  0  0
  -23.9894  -13.1229   20.7874 C   0  0  0  0  0  0  0  0  0  0  0  0
  -26.0117  -12.8401   19.4961 C   0  0  0  0  0  0  0  0  0  0  0  0
  -27.1956  -28.6009   20.6390 C   0  0  0  0  0  0  0  0  0  0  0  0
  -22.4406   -9.8761   20.2633 C   0  0  0  0  0  0  0  0  0  0  0  0
  -21.8753   -9.0137   21.2026 C   0  0  0  0  0  0  0  0  0  0  0  0
  -26.3023  -26.6374   19.5591 C   0  0  0  0  0  0  0  0  0  0  0  0
  -32.9360  -23.3829   18.3885 C   0  0  0  0  0  0  0  0  0  0  0  0
  -31.6484  -21.4329   18.9579 C   0  0  0  0  0  0  0  0  0  0  0  0
  -23.9524   -8.9962   22.4366 C   0  0  0  0  0  0  0  0  0  0  0  0
  -25.6911  -14.8376   20.8168 C   0  0  0  0  0  0  0  0  0  0  0  0
  -26.9374  -16.3696   22.4315 C   0  0  0  0  0  0  0  0  0  0  0  0
  -17.7010  -28.1360   22.9040 C   0  0  0  0  0  0  0  0  0  0  0  0
  -24.8855  -28.5718   19.8923 C   0  0  0  0  0  0  0  0  0  0  0  0
  -19.0826  -28.3872   23.0062 C   0  0  0  0  0  0  0  0  0  0  0  0
  -25.0576  -27.2674   19.4074 C   0  0  0  0  0  0  0  0  0  0  0  0
  -32.8817  -22.0489   18.7768 C   0  0  0  0  0  0  0  0  0  0  0  0
  -24.7703  -12.3628   19.9167 C   0  0  0  0  0  0  0  0  0  0  0  0
  -27.3647  -27.3003   20.1731 C   0  0  0  0  0  0  0  0  0  0  0  0
  -23.7619  -10.2985   20.4105 C   0  0  0  0  0  0  0  0  0  0  0  0
  -22.6311   -8.5738   22.2892 C   0  0  0  0  0  0  0  0  0  0  0  0
  -24.5177   -9.8586   21.4972 C   0  0  0  0  0  0  0  0  0  0  0  0
  -26.1670  -16.1160   21.2809 C   0  0  0  0  0  0  0  0  0  0  0  0
  -31.7378  -24.0515   18.1957 C   0  0  0  0  0  0  0  0  0  0  0  0
  -30.5078  -22.1889   18.7398 C   0  0  0  0  0  0  0  0  0  0  0  0
  -27.1252  -17.7302   22.4260 C   0  0  0  0  0  0  0  0  0  0  0  0
  -27.4387  -15.4569   23.4171 C   0  0  0  0  0  0  0  0  0  0  0  0
  -21.9907  -27.6670   20.8435 C   0  0  0  0  0  0  0  0  0  0  0  0
  -21.6493  -26.8442   17.7244 C   0  0  0  0  0  0  0  0  0  0  0  0
  -23.1354  -25.9678   14.7798 C   0  0  0  0  0  0  0  0  0  0  0  0
  -27.9899  -22.1140   18.7662 C   0  0  0  0  0  0  0  0  0  0  0  0
  -17.1693  -26.8553   22.3110 C   0  0  0  0  0  0  0  0  0  0  0  0
  -23.5699  -29.2805   19.7216 C   0  0  0  0  0  0  0  0  0  0  0  0
  -23.9385  -26.5178   18.7336 C   0  0  0  0  0  0  0  0  0  0  0  0
  -18.1951  -26.1029   21.4671 C   0  0  0  0  0  0  0  0  0  0  0  0
  -24.8232  -21.5571   20.2956 C   0  0  0  0  0  0  0  0  0  0  0  0
  -19.5318  -26.0229   22.1975 C   0  0  0  0  0  0  0  0  0  0  0  0
  -24.9206  -20.1222   20.8188 C   0  0  0  0  0  0  0  0  0  0  0  0
  -25.5434  -21.7234   18.9586 C   0  0  0  0  0  0  0  0  0  0  0  0
  -27.0359  -19.8305   19.4670 C   0  0  0  0  0  0  0  0  0  0  0  0
  -20.1069  -27.4218   22.4504 C   0  0  1  0  0  0  0  0  0  0  0  0
  -22.3933  -28.3240   19.5536 C   0  0  1  0  0  0  0  0  0  0  0  0
  -26.3807  -19.6291   20.8431 C   0  0  2  0  0  0  0  0  0  0  0  0
  -34.9945  -21.8674   20.1395 C   0  0  0  0  0  0  0  0  0  0  0  0
  -34.9911  -21.1626   17.7191 C   0  0  0  0  0  0  0  0  0  0  0  0
  -22.5946  -25.3192   12.4168 C   0  0  0  0  0  0  0  0  0  0  0  0
  -32.9199  -25.0728   15.5237 C   0  0  0  0  0  0  0  0  0  0  0  0
  -30.4311  -25.1314   15.6286 C   0  0  0  0  0  0  0  0  0  0  0  0
  -20.8337  -24.0626   18.6770 C   0  0  0  0  0  0  0  0  0  0  0  0
  -21.2319  -23.2254   16.3513 C   0  0  0  0  0  0  0  0  0  0  0  0
  -19.4801  -24.9510   16.7711 C   0  0  0  0  0  0  0  0  0  0  0  0
  -24.5915  -28.2997   13.6838 C   0  0  0  0  0  0  0  0  0  0  0  0
  -30.9148  -26.7059   19.7939 C   0  0  0  0  0  0  0  0  0  0  0  0
  -29.7306  -27.5033   20.3037 C   0  0  0  0  0  0  0  0  0  1  0  0
  -34.1409  -21.2820   18.9983 C   0  0  0  0  0  0  0  0  0  0  0  0
  -31.7580  -25.5021   17.7744 C   0  0  1  0  0  0  0  0  0  0  0  0
  -21.9192  -25.6015   16.9108 C   0  0  1  0  0  0  0  0  0  0  0  0
  -22.9286  -26.4642   13.3603 C   0  0  2  0  0  0  0  0  0  0  0  0
  -31.7181  -25.7100   16.2349 C   0  0  0  0  0  0  0  0  0  0  0  0
  -20.8869  -24.4733   17.1920 C   0  0  0  0  0  0  0  0  0  0  0  0
  -25.8845  -17.2264   20.5944 N   0  0  0  0  0  0  0  0  0  0  0  0
  -30.5208  -23.4868   18.3619 N   0  0  0  0  0  0  0  0  0  0  0  0
  -26.4806  -18.1909   21.3159 N   0  0  0  0  0  0  0  0  0  0  0  0
  -22.6694  -27.2512   18.5959 N   0  0  0  0  0  0  0  0  0  0  0  0
  -26.9220  -21.2394   19.0587 N   0  0  0  0  0  0  0  0  0  0  0  0
  -27.7770  -18.5654   23.2626 N   0  0  0  0  0  0  0  0  0  0  0  0
  -27.1535  -14.0925   23.2706 N   0  0  0  0  0  0  0  0  0  0  0  0
  -29.2560  -21.5522   18.9275 N   0  0  0  0  0  0  0  0  0  0  0  0
  -20.6980  -27.9516   21.2403 N   0  0  0  0  0  0  0  0  0  0  0  0
  -21.9719  -26.0295   15.5171 N   0  0  0  0  0  0  0  0  0  0  0  0
  -24.1608  -27.1389   12.8628 N   0  3  0  0  0  0  0  0  0  0  0  0
  -30.6394  -26.2515   18.4076 N   0  3  0  0  0  0  0  0  0  0  0  0
  -28.1054  -15.8418   24.4075 O   0  0  0  0  0  0  0  0  0  0  0  0
  -22.7928  -26.9534   21.4342 O   0  0  0  0  0  0  0  0  0  0  0  0
  -20.5759  -27.4361   17.5862 O   0  0  0  0  0  0  0  0  0  0  0  0
  -24.2198  -25.5622   15.1923 O   0  0  0  0  0  0  0  0  0  0  0  0
  -27.7960  -23.2838   18.4258 O   0  0  0  0  0  0  0  0  0  0  0  0
  -24.3214  -11.1553   19.4775 O   0  0  0  0  0  0  0  0  0  0  0  0
  -28.5667  -26.6777   20.3120 O   0  0  0  0  0  0  0  0  0  1  0  0
  -22.0876   -7.7469   23.1920 F   0  0  0  0  0  0  0  0  0  0  0  0
  -25.7871  -10.2619   21.6446 F   0  0  0  0  0  0  0  0  0  0  0  0
  1  2  1  0  0  0  0
  1  5  2  0  0  0  0
  2  6  2  0  0  0  0
  3  8  2  0  0  0  0
  3 17  1  0  0  0  0
  4  9  1  0  0  0  0
  4 17  2  0  0  0  0
  5 19  1  0  0  0  0
  6 21  1  0  0  0  0
  7 10  2  0  0  0  0
  7 20  1  0  0  0  0
  8 24  1  0  0  0  0
  9 24  2  0  0  0  0
 10 25  1  0  0  0  0
 11 12  2  0  0  0  0
 11 26  1  0  0  0  0
 12 27  1  0  0  0  0
 13 22  1  0  0  0  0
 13 25  2  0  0  0  0
 14 23  2  0  0  0  0
 14 30  1  0  0  0  0
 15 23  1  0  0  0  0
 15 31  2  0  0  0  0
 16 27  2  0  0  0  0
 16 28  1  0  0  0  0
 17 29  1  0  0  0  0
 18 29  1  0  0  0  0
 18 32  2  0  0  0  0
 18 33  1  0  0  0  0
 19 21  2  0  0  0  0
 19 38  1  0  0  0  0
 20 22  2  0  0  0  0
 20 39  1  0  0  0  0
 21 47  1  0  0  0  0
 22 40  1  0  0  0  0
 23 61  1  0  0  0  0
 24 84  1  0  0  0  0
 25 85  1  0  0  0  0
 26 28  2  0  0  0  0
 26 84  1  0  0  0  0
 27 86  1  0  0  0  0
 28 87  1  0  0  0  0
 29 67  2  0  0  0  0
 30 62  1  0  0  0  0
 30 68  2  0  0  0  0
 31 68  1  0  0  0  0
 31 74  1  0  0  0  0
 32 69  1  0  0  0  0
 32 72  1  0  0  0  0
 33 73  1  0  0  0  0
 33 79  2  0  0  0  0
 34 48  1  0  0  0  0
 34 75  1  0  0  0  0
 34 80  2  0  0  0  0
 35 63  1  0  0  0  0
 35 70  1  0  0  0  0
 35 81  2  0  0  0  0
 36 64  1  0  0  0  0
 36 76  1  0  0  0  0
 36 82  2  0  0  0  0
 37 71  1  0  0  0  0
 37 74  1  0  0  0  0
 37 83  2  0  0  0  0
 38 41  1  0  0  0  0
 39 48  1  0  0  0  0
 40 70  1  0  0  0  0
 41 43  1  0  0  0  0
 42 44  1  0  0  0  0
 42 45  1  0  0  0  0
 43 47  1  0  0  0  0
 44 49  1  0  0  0  0
 45 71  1  0  0  0  0
 46 49  1  0  0  0  0
 46 71  1  0  0  0  0
 47 75  1  0  0  0  0
 48 70  1  0  0  0  0
 49 69  1  0  0  0  0
 50 61  1  0  0  0  0
 51 61  1  0  0  0  0
 52 64  1  0  0  0  0
 53 65  1  0  0  0  0
 54 65  1  0  0  0  0
 55 66  1  0  0  0  0
 56 66  1  0  0  0  0
 57 66  1  0  0  0  0
 58 77  1  0  0  0  0
 59 60  1  0  0  0  0
 59 78  1  0  0  0  0
 60 85  1  0  0  0  0
 62 65  1  0  0  0  0
 62 78  1  0  0  0  0
 63 66  1  0  0  0  0
 63 76  1  0  0  0  0
 64 77  1  0  0  0  0
 67 69  1  0  0  0  0
M  CHG  2  77   1  78   1
M  ISO  4  37 100  60 101  74 100  85 101
M  END
> <Batch ID>
0116

> <Smiles>
CNC(C)C(=O)NC(C(=O)N1Cc2cc([101O:1][101CH2:1]CNC(c3cc(C(C)C)cc([100NH:0][100C:0](=O)N4CCCC(n5nc(-c6ccc(Oc7ccc(F)cc7F)cc6)c(C(N)=O)c5N)C4)n3)C(C)C)ccc2CC1C(=O)NC1CCCc2ccccc21)C(C)(C)C

> <Shape>
0.256

> <Color>
0.087

> <Negative vol penalty>
0.000

$$$$

  -OEChem-04052320133D

 85 94  0     1  0  0  0  0  0999 V2000
  -16.6238  -29.8619   24.0204 C   0  0  0  0  0  0  0  0  0  0  0  0
  -17.3123  -28.6672   24.2052 C   0  0  0  0  0  0  0  0  0  0  0  0
  -22.9762  -10.0629   20.1813 C   0  0  0  0  0  0  0  0  0  0  0  0
  -24.3796   -9.3484   22.0135 C   0  0  0  0  0  0  0  0  0  0  0  0
  -17.0814  -30.7918   23.0878 C   0  0  0  0  0  0  0  0  0  0  0  0
  -18.4582  -28.4012   23.4565 C   0  0  0  0  0  0  0  0  0  0  0  0
  -24.7853  -25.0749   23.9243 C   0  0  0  0  0  0  0  0  0  0  0  0
  -30.1947  -19.9683   22.1107 C   0  0  0  0  0  0  0  0  0  0  0  0
  -22.3165   -8.8342   20.2075 C   0  0  0  0  0  0  0  0  0  0  0  0
  -23.7198   -8.1197   22.0398 C   0  0  0  0  0  0  0  0  0  0  0  0
  -25.5597  -24.1331   23.2482 C   0  0  0  0  0  0  0  0  0  0  0  0
  -20.7984   -6.8876   23.2093 C   0  0  0  0  0  0  0  0  0  0  0  0
  -20.4205   -6.3831   24.4536 C   0  0  0  0  0  0  0  0  0  0  0  0
  -31.0694  -18.8875   22.1030 C   0  0  0  0  0  0  0  0  0  0  0  0
  -26.3020  -25.8477   21.7224 C   0  0  0  0  0  0  0  0  0  0  0  0
  -21.7851   -4.4257   24.0744 C   0  0  0  0  0  0  0  0  0  0  0  0
  -28.3943  -18.4425   22.4059 C   0  0  0  0  0  0  0  0  0  0  0  0
  -24.0078  -10.3200   21.0843 C   0  0  0  0  0  0  0  0  0  0  0  0
  -24.3494  -12.7526   21.7724 C   0  0  0  0  0  0  0  0  0  0  0  0
  -18.2390  -30.5413   22.3341 C   0  0  0  0  0  0  0  0  0  0  0  0
  -24.7550  -26.4102   23.4973 C   0  0  0  0  0  0  0  0  0  0  0  0
  -18.9309  -29.3281   22.5119 C   0  0  0  0  0  0  0  0  0  0  0  0
  -25.5285  -26.8051   22.3964 C   0  0  0  0  0  0  0  0  0  0  0  0
  -28.8301  -19.7501   22.2646 C   0  0  0  0  0  0  0  0  0  0  0  0
  -22.6882   -7.8626   21.1368 C   0  0  0  0  0  0  0  0  0  0  0  0
  -26.3159  -24.5188   22.1452 C   0  0  0  0  0  0  0  0  0  0  0  0
  -21.6696   -6.1611   22.3975 C   0  0  0  0  0  0  0  0  0  0  0  0
  -20.9138   -5.1522   24.8862 C   0  0  0  0  0  0  0  0  0  0  0  0
  -22.1629   -4.9302   22.8301 C   0  0  0  0  0  0  0  0  0  0  0  0
  -24.6901  -11.5888   21.0573 C   0  0  0  0  0  0  0  0  0  0  0  0
  -30.5334  -17.6185   22.2517 C   0  0  0  0  0  0  0  0  0  0  0  0
  -25.3003  -13.6727   21.4039 C   0  0  0  0  0  0  0  0  0  0  0  0
  -23.2699  -12.9814   22.6878 C   0  0  0  0  0  0  0  0  0  0  0  0
  -22.4975  -28.3676   22.4127 C   0  0  0  0  0  0  0  0  0  0  0  0
  -24.8742  -30.5691   22.5768 C   0  0  0  0  0  0  0  0  0  0  0  0
  -28.2243  -31.2199   22.5965 C   0  0  0  0  0  0  0  0  0  0  0  0
  -30.5349  -15.0799   20.3490 C   0  0  0  0  0  0  0  0  0  0  0  0
  -18.6683  -31.5559   21.3041 C   0  0  0  0  0  0  0  0  0  0  0  0
  -23.9355  -27.4194   24.2537 C   0  0  0  0  0  0  0  0  0  0  0  0
  -25.5463  -28.2304   21.9101 C   0  0  0  0  0  0  0  0  0  0  0  0
  -20.1024  -31.3616   20.8186 C   0  0  0  0  0  0  0  0  0  0  0  0
  -32.1260  -14.5277   23.5604 C   0  0  0  0  0  0  0  0  0  0  0  0
  -28.7667  -13.5660   17.7392 C   0  0  0  0  0  0  0  0  0  0  0  0
  -20.3614  -29.8942   20.4922 C   0  0  0  0  0  0  0  0  0  0  0  0
  -31.9202  -16.0340   23.6588 C   0  0  0  0  0  0  0  0  0  0  0  0
  -27.5253  -12.9905   18.4178 C   0  0  0  0  0  0  0  0  0  0  0  0
  -29.9967  -13.3935   18.6216 C   0  0  0  0  0  0  0  0  0  0  0  0
  -30.9879  -14.0903   22.6514 C   0  0  0  0  0  0  0  0  0  0  0  0
  -28.6111  -13.4566   20.6732 C   0  0  0  0  0  0  0  0  0  0  0  0
  -20.1920  -29.0141   21.7364 C   0  0  1  0  0  0  0  0  0  0  0  0
  -31.4549  -16.4199   22.2485 C   0  0  1  0  0  0  0  0  0  0  0  0
  -23.5782  -28.6454   23.4190 C   0  0  1  0  0  0  0  0  0  0  0  0
  -27.3360  -13.5996   19.8170 C   0  0  2  0  0  0  0  0  0  0  0  0
  -29.8615  -33.1186   22.7031 C   0  0  0  0  0  0  0  0  0  0  0  0
  -25.9376  -22.8610   19.5009 C   0  0  0  0  0  0  0  0  0  0  0  0
  -24.2909  -31.2330   19.6564 C   0  0  0  0  0  0  0  0  0  0  0  0
  -26.5052  -32.3964   19.5511 C   0  0  0  0  0  0  0  0  0  0  0  0
  -24.7388  -33.2193   21.1084 C   0  0  0  0  0  0  0  0  0  0  0  0
  -29.4043  -30.2135   25.1171 C   0  0  0  0  0  0  0  0  0  0  0  0
  -27.8688  -20.8851   22.2766 C   0  0  0  0  0  0  0  0  0  0  0  0
  -27.3152  -21.2692   20.8874 C   0  0  0  0  0  0  0  0  0  0  0  0
  -25.9444  -31.0595   21.6317 C   0  0  1  0  0  0  0  0  0  0  0  0
  -29.0759  -32.0907   23.5024 C   0  0  2  0  0  0  0  0  0  0  0  0
  -26.3853  -22.4886   20.9086 C   0  0  1  0  0  0  0  0  0  1  0  0
  -25.3682  -31.9497   20.4946 C   0  0  0  0  0  0  0  0  0  0  0  0
  -29.2137  -17.3672   22.4034 N   0  0  0  0  0  0  0  0  0  0  0  0
  -25.7728  -11.7520   20.2924 N   0  0  0  0  0  0  0  0  0  0  0  0
  -26.1206  -13.0292   20.5246 N   0  0  0  0  0  0  0  0  0  0  0  0
  -24.7237  -29.1789   22.6791 N   0  0  0  0  0  0  0  0  0  0  0  0
  -29.7858  -13.9649   19.9522 N   0  0  0  0  0  0  0  0  0  0  0  0
  -30.8332  -15.2005   21.7094 N   0  0  0  0  0  0  0  0  0  0  0  0
  -25.5063  -14.9613   21.7495 N   0  0  0  0  0  0  0  0  0  0  0  0
  -22.3848  -11.9278   22.9540 N   0  0  0  0  0  0  0  0  0  0  0  0
  -21.3534  -29.1211   22.5932 N   0  0  0  0  0  0  0  0  0  0  0  0
  -26.9473  -31.7215   22.4589 N   0  0  0  0  0  0  0  0  0  0  0  0
  -30.0416  -31.2527   24.2680 N   0  3  0  0  0  0  0  0  0  0  0  0
  -23.0858  -14.0924   23.2405 O   0  0  0  0  0  0  0  0  0  0  0  0
  -22.6882  -27.5324   21.5364 O   0  0  0  0  0  0  0  0  0  0  0  0
  -24.2016  -31.3891   23.2067 O   0  0  0  0  0  0  0  0  0  0  0  0
  -28.6504  -30.1989   22.0611 O   0  0  0  0  0  0  0  0  0  0  0  0
  -30.9362  -15.9146   19.5280 O   0  0  0  0  0  0  0  0  0  0  0  0
  -22.0445   -6.6637   21.1628 O   0  0  0  0  0  0  0  0  0  0  0  0
  -27.0767  -23.5958   21.4789 O   0  0  0  0  0  0  0  0  0  1  0  0
  -20.5520   -4.6686   26.0817 F   0  0  0  0  0  0  0  0  0  0  0  0
  -23.0011   -4.2283   22.0552 F   0  0  0  0  0  0  0  0  0  0  0  0
  1  2  1  0  0  0  0
  1  5  2  0  0  0  0
  2  6  2  0  0  0  0
  3  9  2  0  0  0  0
  3 18  1  0  0  0  0
  4 10  1  0  0  0  0
  4 18  2  0  0  0  0
  5 20  1  0  0  0  0
  6 22  1  0  0  0  0
  7 11  2  0  0  0  0
  7 21  1  0  0  0  0
  8 14  2  0  0  0  0
  8 24  1  0  0  0  0
  9 25  1  0  0  0  0
 10 25  2  0  0  0  0
 11 26  1  0  0  0  0
 12 13  2  0  0  0  0
 12 27  1  0  0  0  0
 13 28  1  0  0  0  0
 14 31  1  0  0  0  0
 15 23  1  0  0  0  0
 15 26  2  0  0  0  0
 16 28  2  0  0  0  0
 16 29  1  0  0  0  0
 17 24  2  0  0  0  0
 17 66  1  0  0  0  0
 18 30  1  0  0  0  0
 19 30  1  0  0  0  0
 19 32  2  0  0  0  0
 19 33  1  0  0  0  0
 20 22  2  0  0  0  0
 20 38  1  0  0  0  0
 21 23  2  0  0  0  0
 21 39  1  0  0  0  0
 22 50  1  0  0  0  0
 23 40  1  0  0  0  0
 24 60  1  0  0  0  0
 25 82  1  0  0  0  0
 26 83  1  0  0  0  0
 27 29  2  0  0  0  0
 27 82  1  0  0  0  0
 28 84  1  0  0  0  0
 29 85  1  0  0  0  0
 30 67  2  0  0  0  0
 31 51  1  0  0  0  0
 31 66  2  0  0  0  0
 32 68  1  0  0  0  0
 32 72  1  0  0  0  0
 33 73  1  0  0  0  0
 33 77  2  0  0  0  0
 34 52  1  0  0  0  0
 34 74  1  0  0  0  0
 34 78  2  0  0  0  0
 35 62  1  0  0  0  0
 35 69  1  0  0  0  0
 35 79  2  0  0  0  0
 36 63  1  0  0  0  0
 36 75  1  0  0  0  0
 36 80  2  0  0  0  0
 37 70  1  0  0  0  0
 37 71  1  0  0  0  0
 37 81  2  0  0  0  0
 38 41  1  0  0  0  0
 39 52  1  0  0  0  0
 40 69  1  0  0  0  0
 41 44  1  0  0  0  0
 42 45  1  0  0  0  0
 42 48  1  0  0  0  0
 43 46  1  0  0  0  0
 43 47  1  0  0  0  0
 44 50  1  0  0  0  0
 45 51  1  0  0  0  0
 46 53  1  0  0  0  0
 47 70  1  0  0  0  0
 48 71  1  0  0  0  0
 49 53  1  0  0  0  0
 49 70  1  0  0  0  0
 50 74  1  0  0  0  0
 51 71  1  0  0  0  0
 52 69  1  0  0  0  0
 53 68  1  0  0  0  0
 54 63  1  0  0  0  0
 55 64  1  0  0  0  0
 56 65  1  0  0  0  0
 57 65  1  0  0  0  0
 58 65  1  0  0  0  0
 59 76  1  0  0  0  0
 60 61  1  0  0  0  0
 61 64  1  0  0  0  0
 62 65  1  0  0  0  0
 62 75  1  0  0  0  0
 63 76  1  0  0  0  0
 64 83  1  0  0  0  0
 67 68  1  0  0  0  0
M  CHG  1  76   1
M  ISO  4  37 100  64 101  71 100  83 101
M  END
> <Batch ID>
0116

> <Smiles>
CNC(C)C(=O)NC(C(=O)N1Cc2cc([101O:1][101CH:1](C)CCc3ccc(C4CCC[100N:0]4[100C:0](=O)N4CCCC(n5nc(-c6ccc(Oc7ccc(F)cc7F)cc6)c(C(N)=O)c5N)C4)nc3)ccc2CC1C(=O)NC1CCCc2ccccc21)C(C)(C)C

> <Shape>
0.304

> <Color>
0.153

> <Negative vol penalty>
0.000

$$$$

  -OEChem-04052320133D

 84 92  0     1  0  0  0  0  0999 V2000
  -17.9452  -25.7437   22.7835 C   0  0  0  0  0  0  0  0  0  0  0  0
  -19.2829  -25.3619   22.7921 C   0  0  0  0  0  0  0  0  0  0  0  0
  -26.4745  -12.5659   20.2963 C   0  0  0  0  0  0  0  0  0  0  0  0
  -24.6429  -14.0474   20.8324 C   0  0  0  0  0  0  0  0  0  0  0  0
  -17.5872  -27.0152   22.3374 C   0  0  0  0  0  0  0  0  0  0  0  0
  -20.2634  -26.2511   22.3535 C   0  0  0  0  0  0  0  0  0  0  0  0
  -25.9576  -26.8213   24.5346 C   0  0  0  0  0  0  0  0  0  0  0  0
  -25.6569  -11.4641   20.5478 C   0  0  0  0  0  0  0  0  0  0  0  0
  -23.8253  -12.9456   21.0839 C   0  0  0  0  0  0  0  0  0  0  0  0
  -27.1848  -26.3280   24.0935 C   0  0  0  0  0  0  0  0  0  0  0  0
  -23.2163   -9.7564   18.9478 C   0  0  0  0  0  0  0  0  0  0  0  0
  -23.2472   -8.7040   18.0329 C   0  0  0  0  0  0  0  0  0  0  0  0
  -27.6068  -28.4125   22.9552 C   0  0  0  0  0  0  0  0  0  0  0  0
  -23.9776   -7.2054   19.7815 C   0  0  0  0  0  0  0  0  0  0  0  0
  -30.0082  -23.6580   21.4401 C   0  0  0  0  0  0  0  0  0  0  0  0
  -25.9675  -13.8576   20.4387 C   0  0  0  0  0  0  0  0  0  0  0  0
  -26.9894  -15.6606   18.9513 C   0  0  0  0  0  0  0  0  0  0  0  0
  -18.5647  -27.9239   21.9022 C   0  0  0  0  0  0  0  0  0  0  0  0
  -25.5403  -28.1121   24.1796 C   0  0  0  0  0  0  0  0  0  0  0  0
  -19.9180  -27.5355   21.8999 C   0  0  0  0  0  0  0  0  0  0  0  0
  -26.3751  -28.9208   23.3952 C   0  0  0  0  0  0  0  0  0  0  0  0
  -28.5655  -23.2704   19.7553 C   0  0  0  0  0  0  0  0  0  0  0  0
  -29.2031  -22.6909   20.8799 C   0  0  0  0  0  0  0  0  0  0  0  0
  -24.3323  -11.6540   20.9415 C   0  0  0  0  0  0  0  0  0  0  0  0
  -28.0083  -27.1225   23.3013 C   0  0  0  0  0  0  0  0  0  0  0  0
  -23.5661   -9.5334   20.2795 C   0  0  0  0  0  0  0  0  0  0  0  0
  -23.6278   -7.4285   18.4497 C   0  0  0  0  0  0  0  0  0  0  0  0
  -23.9467   -8.2578   20.6964 C   0  0  0  0  0  0  0  0  0  0  0  0
  -26.8117  -14.9961   20.1796 C   0  0  0  0  0  0  0  0  0  0  0  0
  -29.0005  -24.5741   19.6624 C   0  0  0  0  0  0  0  0  0  0  0  0
  -27.8830  -16.6656   19.2308 C   0  0  0  0  0  0  0  0  0  0  0  0
  -26.3995  -15.3935   17.6721 C   0  0  0  0  0  0  0  0  0  0  0  0
  -23.0990  -29.3064   22.5312 C   0  0  0  0  0  0  0  0  0  0  0  0
  -24.3174  -32.1420   23.5297 C   0  0  0  0  0  0  0  0  0  0  0  0
  -27.0246  -33.9067   24.6267 C   0  0  0  0  0  0  0  0  0  0  0  0
  -29.6947  -20.8083   22.4801 C   0  0  0  0  0  0  0  0  0  0  0  0
  -18.1249  -29.2704   21.3844 C   0  0  0  0  0  0  0  0  0  0  0  0
  -24.2256  -28.6393   24.6856 C   0  0  0  0  0  0  0  0  0  0  0  0
  -25.9824  -30.3210   23.0032 C   0  0  0  0  0  0  0  0  0  0  0  0
  -19.2601  -30.2865   21.2886 C   0  0  0  0  0  0  0  0  0  0  0  0
  -30.7135  -17.5074   23.3420 C   0  0  0  0  0  0  0  0  0  0  0  0
  -20.4839  -29.6591   20.6288 C   0  0  0  0  0  0  0  0  0  0  0  0
  -29.8038  -16.6144   22.4950 C   0  0  0  0  0  0  0  0  0  0  0  0
  -29.9806  -18.7504   23.8433 C   0  0  0  0  0  0  0  0  0  0  0  0
  -28.4031  -18.6472   21.9539 C   0  0  0  0  0  0  0  0  0  0  0  0
  -21.0130  -28.4807   21.4552 C   0  0  1  0  0  0  0  0  0  0  0  0
  -23.6726  -29.7799   23.8367 C   0  0  1  0  0  0  0  0  0  0  0  0
  -29.1152  -17.4150   21.3723 C   0  0  2  0  0  0  0  0  0  0  0  0
  -28.6569  -25.6268   18.6831 C   0  0  0  0  0  0  0  0  0  0  0  0
  -29.9736  -20.4834   16.5527 C   0  0  0  0  0  0  0  0  0  0  0  0
  -26.3136  -22.1803   19.5841 C   0  0  0  0  0  0  0  0  0  0  0  0
  -27.7205  -36.2143   25.3255 C   0  0  0  0  0  0  0  0  0  0  0  0
  -24.3493  -33.0152   20.6063 C   0  0  0  0  0  0  0  0  0  0  0  0
  -25.8926  -34.8779   21.2519 C   0  0  0  0  0  0  0  0  0  0  0  0
  -23.5927  -34.7762   22.2128 C   0  0  0  0  0  0  0  0  0  0  0  0
  -27.7594  -32.9884   27.3425 C   0  0  0  0  0  0  0  0  0  0  0  0
  -29.4030  -21.7157   17.2380 C   0  0  0  0  0  0  0  0  0  0  0  0
  -28.1836  -21.3630   18.0964 C   0  0  0  0  0  0  0  0  0  0  0  0
  -30.5982  -26.0943   20.9734 C   0  0  0  0  0  0  0  0  0  0  0  0
  -29.6897  -27.1346   21.6195 C   0  0  0  0  0  0  0  0  0  1  0  0
  -27.6084  -22.6035   18.8478 C   0  0  2  0  0  0  0  0  0  0  0  0
  -25.3353  -33.1176   22.9902 C   0  0  1  0  0  0  0  0  0  0  0  0
  -27.1982  -34.8643   25.7918 C   0  0  2  0  0  0  0  0  0  0  0  0
  -24.7993  -33.9197   21.7709 C   0  0  0  0  0  0  0  0  0  0  0  0
  -27.5344  -15.5335   21.1659 N   0  0  0  0  0  0  0  0  0  0  0  0
  -29.8773  -24.7985   20.6915 N   0  0  0  0  0  0  0  0  0  0  0  0
  -28.1751  -16.5463   20.5577 N   0  0  0  0  0  0  0  0  0  0  0  0
  -24.6846  -30.7889   23.5174 N   0  0  0  0  0  0  0  0  0  0  0  0
  -29.3569  -19.4604   22.7245 N   0  0  0  0  0  0  0  0  0  0  0  0
  -28.4396  -17.6307   18.4685 N   0  0  0  0  0  0  0  0  0  0  0  0
  -25.5019  -14.3228   17.5608 N   0  0  0  0  0  0  0  0  0  0  0  0
  -29.0635  -21.3688   21.3701 N   0  0  0  0  0  0  0  0  0  0  0  0
  -21.7628  -28.9601   22.5964 N   0  0  0  0  0  0  0  0  0  0  0  0
  -25.7434  -33.9474   24.1186 N   0  0  0  0  0  0  0  0  0  0  0  0
  -28.1602  -34.3050   26.7830 N   0  3  0  0  0  0  0  0  0  0  0  0
  -26.6732  -16.0735   16.6542 O   0  0  0  0  0  0  0  0  0  0  0  0
  -23.8151  -29.2602   21.5379 O   0  0  0  0  0  0  0  0  0  0  0  0
  -23.2390  -32.5656   23.9532 O   0  0  0  0  0  0  0  0  0  0  0  0
  -27.9356  -33.1967   24.2067 O   0  0  0  0  0  0  0  0  0  0  0  0
  -30.5063  -21.4122   23.1862 O   0  0  0  0  0  0  0  0  0  0  0  0
  -23.5342  -10.5791   21.1868 O   0  0  0  0  0  0  0  0  0  0  0  0
  -29.2063  -26.6432   22.8690 O   0  0  0  0  0  0  0  0  0  1  0  0
  -23.6560   -6.4176   17.5714 F   0  0  0  0  0  0  0  0  0  0  0  0
  -24.2827   -8.0371   21.9748 F   0  0  0  0  0  0  0  0  0  0  0  0
  1  2  1  0  0  0  0
  1  5  2  0  0  0  0
  2  6  2  0  0  0  0
  3  8  2  0  0  0  0
  3 16  1  0  0  0  0
  4  9  1  0  0  0  0
  4 16  2  0  0  0  0
  5 18  1  0  0  0  0
  6 20  1  0  0  0  0
  7 10  2  0  0  0  0
  7 19  1  0  0  0  0
  8 24  1  0  0  0  0
  9 24  2  0  0  0  0
 10 25  1  0  0  0  0
 11 12  2  0  0  0  0
 11 26  1  0  0  0  0
 12 27  1  0  0  0  0
 13 21  1  0  0  0  0
 13 25  2  0  0  0  0
 14 27  2  0  0  0  0
 14 28  1  0  0  0  0
 15 23  2  0  0  0  0
 15 66  1  0  0  0  0
 16 29  1  0  0  0  0
 17 29  1  0  0  0  0
 17 31  2  0  0  0  0
 17 32  1  0  0  0  0
 18 20  2  0  0  0  0
 18 37  1  0  0  0  0
 19 21  2  0  0  0  0
 19 38  1  0  0  0  0
 20 46  1  0  0  0  0
 21 39  1  0  0  0  0
 22 23  1  0  0  0  0
 22 30  2  0  0  0  0
 22 61  1  0  0  0  0
 23 72  1  0  0  0  0
 24 81  1  0  0  0  0
 25 82  1  0  0  0  0
 26 28  2  0  0  0  0
 26 81  1  0  0  0  0
 27 83  1  0  0  0  0
 28 84  1  0  0  0  0
 29 65  2  0  0  0  0
 30 49  1  0  0  0  0
 30 66  1  0  0  0  0
 31 67  1  0  0  0  0
 31 70  1  0  0  0  0
 32 71  1  0  0  0  0
 32 76  2  0  0  0  0
 33 47  1  0  0  0  0
 33 73  1  0  0  0  0
 33 77  2  0  0  0  0
 34 62  1  0  0  0  0
 34 68  1  0  0  0  0
 34 78  2  0  0  0  0
 35 63  1  0  0  0  0
 35 74  1  0  0  0  0
 35 79  2  0  0  0  0
 36 69  1  0  0  0  0
 36 72  1  0  0  0  0
 36 80  2  0  0  0  0
 37 40  1  0  0  0  0
 38 47  1  0  0  0  0
 39 68  1  0  0  0  0
 40 42  1  0  0  0  0
 41 43  1  0  0  0  0
 41 44  1  0  0  0  0
 42 46  1  0  0  0  0
 43 48  1  0  0  0  0
 44 69  1  0  0  0  0
 45 48  1  0  0  0  0
 45 69  1  0  0  0  0
 46 73  1  0  0  0  0
 47 68  1  0  0  0  0
 48 67  1  0  0  0  0
 50 57  1  0  0  0  0
 51 61  1  0  0  0  0
 52 63  1  0  0  0  0
 53 64  1  0  0  0  0
 54 64  1  0  0  0  0
 55 64  1  0  0  0  0
 56 75  1  0  0  0  0
 57 58  1  0  0  0  0
 58 61  1  0  0  0  0
 59 60  1  0  0  0  0
 59 66  1  0  0  0  0
 60 82  1  0  0  0  0
 62 64  1  0  0  0  0
 62 74  1  0  0  0  0
 63 75  1  0  0  0  0
 65 67  1  0  0  0  0
M  CHG  1  75   1
M  ISO  4  36 100  60 101  72 100  82 101
M  END
> <Batch ID>
0116

> <Smiles>
CCCC(C)c1c([100NH:0][100C:0](=O)N2CCCC(n3nc(-c4ccc(Oc5ccc(F)cc5F)cc4)c(C(N)=O)c3N)C2)cn(C[101CH2:1][101O:1]c2ccc3c(c2)CN(C(=O)C(NC(=O)C(C)NC)C(C)(C)C)C(C(=O)NC2CCCc4ccccc42)C3)c1C

> <Shape>
0.276

> <Color>
0.073

> <Negative vol penalty>
0.000

$$$$

  -OEChem-04052320133D

 85 94  0     1  0  0  0  0  0999 V2000
  -30.3053  -26.2275   11.0277 C   0  0  0  0  0  0  0  0  0  0  0  0
  -30.0919  -25.4613   12.1691 C   0  0  0  0  0  0  0  0  0  0  0  0
  -23.0743   -9.8609   19.9428 C   0  0  0  0  0  0  0  0  0  0  0  0
  -23.8316   -9.8782   22.2370 C   0  0  0  0  0  0  0  0  0  0  0  0
  -31.3605  -27.1380   10.9879 C   0  0  0  0  0  0  0  0  0  0  0  0
  -30.9343  -25.6044   13.2711 C   0  0  0  0  0  0  0  0  0  0  0  0
  -29.3785  -25.1538   19.1772 C   0  0  0  0  0  0  0  0  0  0  0  0
  -22.3321   -8.7075   20.1965 C   0  0  0  0  0  0  0  0  0  0  0  0
  -23.0894   -8.7247   22.4907 C   0  0  0  0  0  0  0  0  0  0  0  0
  -29.4866  -24.1134   20.0989 C   0  0  0  0  0  0  0  0  0  0  0  0
  -19.3836   -7.9116   21.6476 C   0  0  0  0  0  0  0  0  0  0  0  0
  -18.0773   -7.8612   21.1611 C   0  0  0  0  0  0  0  0  0  0  0  0
  -31.5587  -25.0501   20.9040 C   0  0  0  0  0  0  0  0  0  0  0  0
  -30.4038  -19.2395   24.9175 C   0  0  0  0  0  0  0  0  0  0  0  0
  -30.9162  -20.1081   22.7341 C   0  0  0  0  0  0  0  0  0  0  0  0
  -18.6418   -5.9139   19.8471 C   0  0  0  0  0  0  0  0  0  0  0  0
  -23.8241  -10.4462   20.9631 C   0  0  0  0  0  0  0  0  0  0  0  0
  -24.1618  -12.9715   20.8335 C   0  0  0  0  0  0  0  0  0  0  0  0
  -32.2104  -27.2992   12.0935 C   0  0  0  0  0  0  0  0  0  0  0  0
  -30.3669  -26.1459   19.1044 C   0  0  0  0  0  0  0  0  0  0  0  0
  -32.0026  -26.5169   13.2456 C   0  0  0  0  0  0  0  0  0  0  0  0
  -31.4595  -26.1034   19.9822 C   0  0  0  0  0  0  0  0  0  0  0  0
  -31.1517  -19.1848   23.7467 C   0  0  0  0  0  0  0  0  0  0  0  0
  -22.3396   -8.1394   21.4704 C   0  0  0  0  0  0  0  0  0  0  0  0
  -30.5783  -24.0598   20.9606 C   0  0  0  0  0  0  0  0  0  0  0  0
  -20.3190   -6.9632   21.2338 C   0  0  0  0  0  0  0  0  0  0  0  0
  -17.7064   -6.8624   20.2609 C   0  0  0  0  0  0  0  0  0  0  0  0
  -19.9481   -5.9643   20.3336 C   0  0  0  0  0  0  0  0  0  0  0  0
  -24.5914  -11.6374   20.7015 C   0  0  0  0  0  0  0  0  0  0  0  0
  -29.4398  -20.2288   25.0256 C   0  0  0  0  0  0  0  0  0  0  0  0
  -29.9292  -21.0585   22.9399 C   0  0  0  0  0  0  0  0  0  0  0  0
  -25.2531  -13.7214   20.4685 C   0  0  0  0  0  0  0  0  0  0  0  0
  -22.8899  -13.4868   21.2490 C   0  0  0  0  0  0  0  0  0  0  0  0
  -32.4035  -27.1235   16.8683 C   0  0  0  0  0  0  0  0  0  0  0  0
  -33.0644  -29.4439   19.0366 C   0  0  0  0  0  0  0  0  0  0  0  0
  -33.0688  -30.4437   22.2996 C   0  0  0  0  0  0  0  0  0  0  0  0
  -30.7348  -14.7505   20.6590 C   0  0  0  0  0  0  0  0  0  0  0  0
  -33.3663  -28.2620   11.9863 C   0  0  0  0  0  0  0  0  0  0  0  0
  -30.2220  -27.2763   18.1228 C   0  0  0  0  0  0  0  0  0  0  0  0
  -32.5374  -27.1551   19.9582 C   0  0  0  0  0  0  0  0  0  0  0  0
  -33.9856  -28.6227   13.3341 C   0  0  0  0  0  0  0  0  0  0  0  0
  -34.4143  -17.6883   23.6720 C   0  0  0  0  0  0  0  0  0  0  0  0
  -29.6040  -12.3547   18.2803 C   0  0  0  0  0  0  0  0  0  0  0  0
  -34.2077  -27.3679   14.1725 C   0  0  0  0  0  0  0  0  0  0  0  0
  -28.1665  -12.0603   18.7128 C   0  0  0  0  0  0  0  0  0  0  0  0
  -33.5126  -18.4292   22.6693 C   0  0  0  0  0  0  0  0  0  0  0  0
  -33.3176  -17.9008   24.7302 C   0  0  0  0  0  0  0  0  0  0  0  0
  -30.5194  -12.5818   19.4813 C   0  0  0  0  0  0  0  0  0  0  0  0
  -28.6148  -13.3151   20.8629 C   0  0  0  0  0  0  0  0  0  0  0  0
  -32.8797  -26.6613   14.4703 C   0  0  1  0  0  0  0  0  0  0  0  0
  -31.5489  -27.9500   17.7872 C   0  0  1  0  0  0  0  0  0  0  0  0
  -27.6423  -13.1342   19.6849 C   0  0  2  0  0  0  0  0  0  0  0  0
  -32.2803  -18.0617   23.5658 C   0  0  0  0  0  0  0  0  0  0  0  0
  -28.6206  -20.3188   26.2697 C   0  0  0  0  0  0  0  0  0  0  0  0
  -33.7036  -32.3785   23.7662 C   0  0  0  0  0  0  0  0  0  0  0  0
  -36.0041  -28.6654   18.7871 C   0  0  0  0  0  0  0  0  0  0  0  0
  -36.4453  -29.9247   20.9055 C   0  0  0  0  0  0  0  0  0  0  0  0
  -35.5829  -31.1281   18.8978 C   0  0  0  0  0  0  0  0  0  0  0  0
  -30.2792  -30.8144   23.2157 C   0  0  0  0  0  0  0  0  0  0  0  0
  -29.6455  -22.0692   21.8678 C   0  0  0  0  0  0  0  0  0  1  0  0
  -31.6080  -16.7412   23.1636 C   0  0  0  0  0  0  0  0  0  0  0  0
  -30.7957  -16.9060   21.8875 C   0  0  0  0  0  0  0  0  0  0  0  0
  -34.0381  -29.5919   20.1808 C   0  0  1  0  0  0  0  0  0  0  0  0
  -32.5916  -31.7237   22.9616 C   0  0  2  0  0  0  0  0  0  0  0  0
  -35.4984  -29.8065   19.6922 C   0  0  0  0  0  0  0  0  0  0  0  0
  -25.8569  -11.5421   20.2850 N   0  0  0  0  0  0  0  0  0  0  0  0
  -29.1823  -21.1430   24.0636 N   0  0  0  0  0  0  0  0  0  0  0  0
  -26.2318  -12.8258   20.1521 N   0  0  0  0  0  0  0  0  0  0  0  0
  -32.3539  -28.2366   18.9763 N   0  0  0  0  0  0  0  0  0  0  0  0
  -29.9661  -13.6129   20.3626 N   0  0  0  0  0  0  0  0  0  0  0  0
  -25.4613  -15.0529   20.3905 N   0  0  0  0  0  0  0  0  0  0  0  0
  -21.8792  -12.5772   21.5887 N   0  0  0  0  0  0  0  0  0  0  0  0
  -32.1669  -27.3488   15.5256 N   0  0  0  0  0  0  0  0  0  0  0  0
  -33.5234  -30.6704   21.0177 N   0  0  0  0  0  0  0  0  0  0  0  0
  -30.1332  -15.6816   21.4967 N   0  0  0  0  0  0  0  0  0  0  0  0
  -31.4526  -31.4388   23.8793 N   0  3  0  0  0  0  0  0  0  0  0  0
  -22.6515  -14.7172   21.3013 O   0  0  0  0  0  0  0  0  0  0  0  0
  -33.2182  -26.3405   17.3424 O   0  0  0  0  0  0  0  0  0  0  0  0
  -32.9337  -30.3682   18.2303 O   0  0  0  0  0  0  0  0  0  0  0  0
  -33.0445  -29.3525   22.8646 O   0  0  0  0  0  0  0  0  0  0  0  0
  -31.8710  -14.9261   20.2059 O   0  0  0  0  0  0  0  0  0  0  0  0
  -21.6153   -7.0140   21.7183 O   0  0  0  0  0  0  0  0  0  0  0  0
  -30.6866  -23.0450   21.8607 O   0  0  0  0  0  0  0  0  0  1  0  0
  -16.4516   -6.8132   19.7950 F   0  0  0  0  0  0  0  0  0  0  0  0
  -20.8421   -5.0497   19.9333 F   0  0  0  0  0  0  0  0  0  0  0  0
  1  2  1  0  0  0  0
  1  5  2  0  0  0  0
  2  6  2  0  0  0  0
  3  8  2  0  0  0  0
  3 17  1  0  0  0  0
  4  9  1  0  0  0  0
  4 17  2  0  0  0  0
  5 19  1  0  0  0  0
  6 21  1  0  0  0  0
  7 10  2  0  0  0  0
  7 20  1  0  0  0  0
  8 24  1  0  0  0  0
  9 24  2  0  0  0  0
 10 25  1  0  0  0  0
 11 12  2  0  0  0  0
 11 26  1  0  0  0  0
 12 27  1  0  0  0  0
 13 22  1  0  0  0  0
 13 25  2  0  0  0  0
 14 23  1  0  0  0  0
 14 30  2  0  0  0  0
 15 23  2  0  0  0  0
 15 31  1  0  0  0  0
 16 27  2  0  0  0  0
 16 28  1  0  0  0  0
 17 29  1  0  0  0  0
 18 29  1  0  0  0  0
 18 32  2  0  0  0  0
 18 33  1  0  0  0  0
 19 21  2  0  0  0  0
 19 38  1  0  0  0  0
 20 22  2  0  0  0  0
 20 39  1  0  0  0  0
 21 50  1  0  0  0  0
 22 40  1  0  0  0  0
 23 53  1  0  0  0  0
 24 82  1  0  0  0  0
 25 83  1  0  0  0  0
 26 28  2  0  0  0  0
 26 82  1  0  0  0  0
 27 84  1  0  0  0  0
 28 85  1  0  0  0  0
 29 66  2  0  0  0  0
 30 54  1  0  0  0  0
 30 67  1  0  0  0  0
 31 60  1  0  0  0  0
 31 67  2  0  0  0  0
 32 68  1  0  0  0  0
 32 71  1  0  0  0  0
 33 72  1  0  0  0  0
 33 77  2  0  0  0  0
 34 51  1  0  0  0  0
 34 73  1  0  0  0  0
 34 78  2  0  0  0  0
 35 63  1  0  0  0  0
 35 69  1  0  0  0  0
 35 79  2  0  0  0  0
 36 64  1  0  0  0  0
 36 74  1  0  0  0  0
 36 80  2  0  0  0  0
 37 70  1  0  0  0  0
 37 75  1  0  0  0  0
 37 81  2  0  0  0  0
 38 41  1  0  0  0  0
 39 51  1  0  0  0  0
 40 69  1  0  0  0  0
 41 44  1  0  0  0  0
 42 46  1  0  0  0  0
 42 47  1  0  0  0  0
 43 45  1  0  0  0  0
 43 48  1  0  0  0  0
 44 50  1  0  0  0  0
 45 52  1  0  0  0  0
 46 53  1  0  0  0  0
 47 53  1  0  0  0  0
 48 70  1  0  0  0  0
 49 52  1  0  0  0  0
 49 70  1  0  0  0  0
 50 73  1  0  0  0  0
 51 69  1  0  0  0  0
 52 68  1  0  0  0  0
 53 61  1  0  0  0  0
 55 64  1  0  0  0  0
 56 65  1  0  0  0  0
 57 65  1  0  0  0  0
 58 65  1  0  0  0  0
 59 76  1  0  0  0  0
 60 83  1  0  0  0  0
 61 62  1  0  0  0  0
 62 75  1  0  0  0  0
 63 65  1  0  0  0  0
 63 74  1  0  0  0  0
 64 76  1  0  0  0  0
 66 68  1  0  0  0  0
M  CHG  1  76   1
M  ISO  4  37 100  60 101  75 100  83 101
M  END
> <Batch ID>
0116

> <Smiles>
CNC(C)C(=O)NC(C(=O)N1Cc2cc([101O:1][101CH2:1]c3cc(C4(CC[100NH:0][100C:0](=O)N5CCCC(n6nc(-c7ccc(Oc8ccc(F)cc8F)cc7)c(C(N)=O)c6N)C5)CCC4)cc(C)n3)ccc2CC1C(=O)NC1CCCc2ccccc21)C(C)(C)C

> <Shape>
0.188

> <Color>
0.191

> <Negative vol penalty>
0.000

$$$$

  -OEChem-04052320133D

 89 98  0     1  0  0  0  0  0999 V2000
  -29.7942  -13.0162   19.7554 C   0  0  0  0  0  0  0  0  0  0  0  0
  -29.3067  -14.1394   19.0949 C   0  0  0  0  0  0  0  0  0  0  0  0
  -27.1402  -23.8237   19.0382 C   0  0  0  0  0  0  0  0  0  0  0  0
  -28.7730  -25.2936   20.0435 C   0  0  0  0  0  0  0  0  0  0  0  0
  -28.9099  -12.1384   20.3811 C   0  0  0  0  0  0  0  0  0  0  0  0
  -27.9345  -14.3848   19.0588 C   0  0  0  0  0  0  0  0  0  0  0  0
  -25.1894  -20.4949   21.7088 C   0  0  0  0  0  0  0  0  0  0  0  0
  -18.4985  -28.8577   23.9848 C   0  0  0  0  0  0  0  0  0  0  0  0
  -19.8252  -29.0754   23.6178 C   0  0  0  0  0  0  0  0  0  0  0  0
  -27.9096  -22.7191   19.4036 C   0  0  0  0  0  0  0  0  0  0  0  0
  -29.5424  -24.1890   20.4089 C   0  0  0  0  0  0  0  0  0  0  0  0
  -24.6096  -21.7290   22.0036 C   0  0  0  0  0  0  0  0  0  0  0  0
  -30.6807  -21.1363   18.2902 C   0  0  0  0  0  0  0  0  0  0  0  0
  -30.8753  -20.1385   17.3352 C   0  0  0  0  0  0  0  0  0  0  0  0
  -22.4240  -20.8415   21.4709 C   0  0  0  0  0  0  0  0  0  0  0  0
  -29.8177  -18.5324   18.7977 C   0  0  0  0  0  0  0  0  0  0  0  0
  -27.5719  -25.1110   19.3581 C   0  0  0  0  0  0  0  0  0  0  0  0
  -18.2160  -27.3821   22.0897 C   0  0  0  0  0  0  0  0  0  0  0  0
  -26.4055  -26.6356   17.6780 C   0  0  0  0  0  0  0  0  0  0  0  0
  -27.5269  -12.3783   20.3609 C   0  0  0  0  0  0  0  0  0  0  0  0
  -24.3859  -19.4237   21.3083 C   0  0  0  0  0  0  0  0  0  0  0  0
  -27.0309  -13.5087   19.6837 C   0  0  0  0  0  0  0  0  0  0  0  0
  -22.9977  -19.5995   21.1863 C   0  0  0  0  0  0  0  0  0  0  0  0
  -19.5524  -27.6065   21.7037 C   0  0  0  0  0  0  0  0  0  0  0  0
  -17.6902  -28.0165   23.2213 C   0  0  0  0  0  0  0  0  0  0  0  0
  -20.3494  -28.4561   22.4823 C   0  0  0  0  0  0  0  0  0  0  0  0
  -29.1106  -22.9018   20.0889 C   0  0  0  0  0  0  0  0  0  0  0  0
  -23.2304  -21.9019   21.8847 C   0  0  0  0  0  0  0  0  0  0  0  0
  -30.0547  -20.8322   19.4990 C   0  0  0  0  0  0  0  0  0  0  0  0
  -30.4438  -18.8366   17.5889 C   0  0  0  0  0  0  0  0  0  0  0  0
  -29.6231  -19.5303   19.7528 C   0  0  0  0  0  0  0  0  0  0  0  0
  -26.7779  -26.2525   18.9804 C   0  0  0  0  0  0  0  0  0  0  0  0
  -25.6616  -27.7765   17.8551 C   0  0  0  0  0  0  0  0  0  0  0  0
  -17.3142  -26.5087   21.2914 C   0  0  0  0  0  0  0  0  0  0  0  0
  -26.7052  -26.0155   16.4204 C   0  0  0  0  0  0  0  0  0  0  0  0
  -24.2105  -15.8221   20.2720 C   0  0  0  0  0  0  0  0  0  0  0  0
  -21.8131  -16.3367   22.1155 C   0  0  0  0  0  0  0  0  0  0  0  0
  -19.2508  -16.0947   24.3545 C   0  0  0  0  0  0  0  0  0  0  0  0
  -22.4303  -29.8747   22.4226 C   0  0  0  0  0  0  0  0  0  0  0  0
  -26.6066  -11.3758   21.0109 C   0  0  0  0  0  0  0  0  0  0  0  0
  -24.9743  -18.0941   20.9214 C   0  0  0  0  0  0  0  0  0  0  0  0
  -20.1217  -26.9625   20.4637 C   0  0  0  0  0  0  0  0  0  0  0  0
  -22.1768  -18.4289   20.7187 C   0  0  0  0  0  0  0  0  0  0  0  0
  -25.1954  -11.9078   21.2467 C   0  0  0  0  0  0  0  0  0  0  0  0
  -25.1660  -31.5002   20.8254 C   0  0  0  0  0  0  0  0  0  0  0  0
  -24.6758  -12.6142   19.9985 C   0  0  0  0  0  0  0  0  0  0  0  0
  -25.8523  -30.3750   20.0476 C   0  0  0  0  0  0  0  0  0  0  0  0
  -24.6245  -31.0131   22.1682 C   0  0  0  0  0  0  0  0  0  0  0  0
  -24.4389  -28.7086   21.3173 C   0  0  0  0  0  0  0  0  0  0  0  0
  -25.5509  -13.8224   19.6437 C   0  0  1  0  0  0  0  0  0  0  0  0
  -24.0776  -16.9030   21.3043 C   0  0  1  0  0  0  0  0  0  0  0  0
  -24.9434  -29.1359   19.9293 C   0  0  2  0  0  0  0  0  0  0  0  0
  -20.1811  -25.4301   20.5735 C   0  0  1  0  0  0  0  0  0  0  0  0
  -16.2882  -27.8026   23.6962 C   0  0  0  0  0  0  0  0  0  0  0  0
  -17.1732  -14.7718   24.8350 C   0  0  0  0  0  0  0  0  0  0  0  0
  -16.6442  -23.2990   21.0077 C   0  0  0  0  0  0  0  0  0  0  0  0
  -18.0519  -23.7407   18.9658 C   0  0  0  0  0  0  0  0  0  0  0  0
  -20.3514  -17.8331   19.8956 C   0  0  0  0  0  0  0  0  0  0  0  0
  -18.1912  -17.2273   21.0067 C   0  0  0  0  0  0  0  0  0  0  0  0
  -19.6943  -15.4330   20.1443 C   0  0  0  0  0  0  0  0  0  0  0  0
  -20.3064  -15.1631   26.9578 C   0  0  0  0  0  0  0  0  0  0  0  0
  -21.4370  -24.9742   21.3125 C   0  0  0  0  0  0  0  0  0  0  0  0
  -21.4836  -23.4620   21.4694 C   0  0  0  0  0  0  0  0  0  1  0  0
  -20.3568  -16.7127   22.2216 C   0  0  1  0  0  0  0  0  0  0  0  0
  -18.6663  -14.9034   25.0919 C   0  0  2  0  0  0  0  0  0  0  0  0
  -17.1363  -24.3465   20.0195 C   0  0  0  0  0  0  0  0  0  0  0  0
  -19.6685  -16.8157   20.8313 C   0  0  0  0  0  0  0  0  0  0  0  0
  -26.3093  -27.0827   19.9159 N   0  0  0  0  0  0  0  0  0  0  0  0
  -25.6349  -27.9989   19.2005 N   0  0  0  0  0  0  0  0  0  0  0  0
  -17.8627  -25.3719   20.7382 N   0  0  0  0  0  0  0  0  0  0  0  0
  -22.6364  -17.1971   21.3790 N   0  0  0  0  0  0  0  0  0  0  0  0
  -23.7688  -29.8400   21.9774 N   0  0  0  0  0  0  0  0  0  0  0  0
  -25.0343  -28.6012   16.9898 N   0  0  0  0  0  0  0  0  0  0  0  0
  -27.4820  -24.8489   16.4190 N   0  0  0  0  0  0  0  0  0  0  0  0
  -21.7043  -28.7140   22.1576 N   0  0  0  0  0  0  0  0  0  0  0  0
  -25.2463  -14.9395   20.5118 N   0  0  0  0  0  0  0  0  0  0  0  0
  -19.7477  -15.7370   23.1191 N   0  0  0  0  0  0  0  0  0  0  0  0
  -18.8798  -15.0472   26.5598 N   0  3  0  0  0  0  0  0  0  0  0  0
  -16.1450  -26.8588   21.1442 O   0  0  0  0  0  0  0  0  0  0  0  0
  -26.3101  -26.4914   15.3291 O   0  0  0  0  0  0  0  0  0  0  0  0
  -23.4302  -15.7893   19.3277 O   0  0  0  0  0  0  0  0  0  0  0  0
  -22.2115  -15.3058   22.6649 O   0  0  0  0  0  0  0  0  0  0  0  0
  -19.2619  -17.2298   24.8257 O   0  0  0  0  0  0  0  0  0  0  0  0
  -21.9549  -30.8716   22.9722 O   0  0  0  0  0  0  0  0  0  0  0  0
  -19.0641  -24.8862   21.2872 O   0  0  0  0  0  0  0  0  0  0  0  0
  -29.8615  -21.8241   20.4459 O   0  0  0  0  0  0  0  0  0  0  0  0
  -22.6703  -23.1081   22.1784 O   0  0  0  0  0  0  0  0  0  1  0  0
  -30.6293  -17.8788   16.6711 F   0  0  0  0  0  0  0  0  0  0  0  0
  -29.0200  -19.2323   20.9118 F   0  0  0  0  0  0  0  0  0  0  0  0
  1  2  1  0  0  0  0
  1  5  2  0  0  0  0
  2  6  2  0  0  0  0
  3 10  2  0  0  0  0
  3 17  1  0  0  0  0
  4 11  1  0  0  0  0
  4 17  2  0  0  0  0
  5 20  1  0  0  0  0
  6 22  1  0  0  0  0
  7 12  2  0  0  0  0
  7 21  1  0  0  0  0
  8  9  1  0  0  0  0
  8 25  2  0  0  0  0
  9 26  2  0  0  0  0
 10 27  1  0  0  0  0
 11 27  2  0  0  0  0
 12 28  1  0  0  0  0
 13 14  2  0  0  0  0
 13 29  1  0  0  0  0
 14 30  1  0  0  0  0
 15 23  1  0  0  0  0
 15 28  2  0  0  0  0
 16 30  2  0  0  0  0
 16 31  1  0  0  0  0
 17 32  1  0  0  0  0
 18 24  2  0  0  0  0
 18 25  1  0  0  0  0
 18 34  1  0  0  0  0
 19 32  1  0  0  0  0
 19 33  2  0  0  0  0
 19 35  1  0  0  0  0
 20 22  2  0  0  0  0
 20 40  1  0  0  0  0
 21 23  2  0  0  0  0
 21 41  1  0  0  0  0
 22 50  1  0  0  0  0
 23 43  1  0  0  0  0
 24 26  1  0  0  0  0
 24 42  1  0  0  0  0
 25 54  1  0  0  0  0
 26 75  1  0  0  0  0
 27 86  1  0  0  0  0
 28 87  1  0  0  0  0
 29 31  2  0  0  0  0
 29 86  1  0  0  0  0
 30 88  1  0  0  0  0
 31 89  1  0  0  0  0
 32 68  2  0  0  0  0
 33 69  1  0  0  0  0
 33 73  1  0  0  0  0
 34 70  1  0  0  0  0
 34 79  2  0  0  0  0
 35 74  1  0  0  0  0
 35 80  2  0  0  0  0
 36 51  1  0  0  0  0
 36 76  1  0  0  0  0
 36 81  2  0  0  0  0
 37 64  1  0  0  0  0
 37 71  1  0  0  0  0
 37 82  2  0  0  0  0
 38 65  1  0  0  0  0
 38 77  1  0  0  0  0
 38 83  2  0  0  0  0
 39 72  1  0  0  0  0
 39 75  1  0  0  0  0
 39 84  2  0  0  0  0
 40 44  1  0  0  0  0
 41 51  1  0  0  0  0
 42 53  1  0  0  0  0
 43 71  1  0  0  0  0
 44 46  1  0  0  0  0
 45 47  1  0  0  0  0
 45 48  1  0  0  0  0
 46 50  1  0  0  0  0
 47 52  1  0  0  0  0
 48 72  1  0  0  0  0
 49 52  1  0  0  0  0
 49 72  1  0  0  0  0
 50 76  1  0  0  0  0
 51 71  1  0  0  0  0
 52 69  1  0  0  0  0
 53 62  1  0  0  0  0
 53 85  1  0  0  0  0
 55 65  1  0  0  0  0
 56 66  1  0  0  0  0
 57 66  1  0  0  0  0
 58 67  1  0  0  0  0
 59 67  1  0  0  0  0
 60 67  1  0  0  0  0
 61 78  1  0  0  0  0
 62 63  1  0  0  0  0
 63 87  1  0  0  0  0
 64 67  1  0  0  0  0
 64 77  1  0  0  0  0
 65 78  1  0  0  0  0
 66 70  1  0  0  0  0
 68 69  1  0  0  0  0
 70 85  1  0  0  0  0
M  CHG  1  78   1
M  ISO  4  39 100  63 101  75 100  87 101
M  END
> <Batch ID>
0116

> <Smiles>
CNC(C)C(=O)NC(C(=O)N1Cc2cc([101O:1][101CH2:1]CC3Cc4c([100NH:0][100C:0](=O)N5CCCC(n6nc(-c7ccc(Oc8ccc(F)cc8F)cc7)c(C(N)=O)c6N)C5)ccc(C)c4C(=O)N(C(C)C)O3)ccc2CC1C(=O)NC1CCCc2ccccc21)C(C)(C)C

> <Shape>
0.237

> <Color>
0.081

> <Negative vol penalty>
0.000

$$$$

  -OEChem-04052320133D

 87 96  0     1  0  0  0  0  0999 V2000
  -19.3514  -27.9857   26.6498 C   0  0  0  0  0  0  0  0  0  0  0  0
  -20.6885  -27.7550   26.3424 C   0  0  0  0  0  0  0  0  0  0  0  0
  -27.7718  -12.8137   18.6574 C   0  0  0  0  0  0  0  0  0  0  0  0
  -27.6154  -11.6702   20.7799 C   0  0  0  0  0  0  0  0  0  0  0  0
  -18.4311  -28.2114   25.6270 C   0  0  0  0  0  0  0  0  0  0  0  0
  -21.1058  -27.7489   25.0119 C   0  0  0  0  0  0  0  0  0  0  0  0
  -26.4887  -29.6936   22.8330 C   0  0  0  0  0  0  0  0  0  0  0  0
  -28.9169  -12.0804   18.3466 C   0  0  0  0  0  0  0  0  0  0  0  0
  -28.7605  -10.9368   20.4691 C   0  0  0  0  0  0  0  0  0  0  0  0
  -27.6577  -29.0194   22.4827 C   0  0  0  0  0  0  0  0  0  0  0  0
  -29.6608   -8.9740   17.2377 C   0  0  0  0  0  0  0  0  0  0  0  0
  -29.7530   -8.4276   15.9577 C   0  0  0  0  0  0  0  0  0  0  0  0
  -26.9425  -28.9884   20.1791 C   0  0  0  0  0  0  0  0  0  0  0  0
  -28.9596  -23.9320   20.6625 C   0  0  0  0  0  0  0  0  0  0  0  0
  -31.7659   -9.7028   15.5583 C   0  0  0  0  0  0  0  0  0  0  0  0
  -29.3369  -25.3242   18.9335 C   0  0  0  0  0  0  0  0  0  0  0  0
  -27.1211  -12.6087   19.8741 C   0  0  0  0  0  0  0  0  0  0  0  0
  -24.6038  -13.0205   19.9115 C   0  0  0  0  0  0  0  0  0  0  0  0
  -18.8391  -28.2176   24.2839 C   0  0  0  0  0  0  0  0  0  0  0  0
  -25.5312  -30.0112   21.8589 C   0  0  0  0  0  0  0  0  0  0  0  0
  -20.1898  -27.9736   23.9701 C   0  0  0  0  0  0  0  0  0  0  0  0
  -25.7634  -29.6690   20.5191 C   0  0  0  0  0  0  0  0  0  0  0  0
  -29.6035  -25.1317   20.2711 C   0  0  0  0  0  0  0  0  0  0  0  0
  -29.4112  -11.1419   19.2524 C   0  0  0  0  0  0  0  0  0  0  0  0
  -27.8834  -28.6641   21.1561 C   0  0  0  0  0  0  0  0  0  0  0  0
  -30.6210   -9.8850   17.6780 C   0  0  0  0  0  0  0  0  0  0  0  0
  -30.8056   -8.7919   15.1180 C   0  0  0  0  0  0  0  0  0  0  0  0
  -31.6736  -10.2493   16.8384 C   0  0  0  0  0  0  0  0  0  0  0  0
  -25.9385  -13.3663   20.1959 C   0  0  0  0  0  0  0  0  0  0  0  0
  -28.3193  -23.4277   19.5520 C   0  0  0  0  0  0  0  0  0  0  0  0
  -23.8641  -14.0609   20.4185 C   0  0  0  0  0  0  0  0  0  0  0  0
  -24.0795  -11.8625   19.2484 C   0  0  0  0  0  0  0  0  0  0  0  0
  -22.4892  -29.2322   21.3660 C   0  0  0  0  0  0  0  0  0  0  0  0
  -22.7279  -31.4024   18.9669 C   0  0  0  0  0  0  0  0  0  0  0  0
  -24.7261  -33.0878   16.7730 C   0  0  0  0  0  0  0  0  0  0  0  0
  -24.9222  -19.7351   21.4799 C   0  0  0  0  0  0  0  0  0  0  0  0
  -17.7993  -28.4193   23.2102 C   0  0  0  0  0  0  0  0  0  0  0  0
  -24.2878  -30.7625   22.2488 C   0  0  0  0  0  0  0  0  0  0  0  0
  -24.7762  -30.0049   19.4323 C   0  0  0  0  0  0  0  0  0  0  0  0
  -18.3910  -28.7682   21.8470 C   0  0  0  0  0  0  0  0  0  0  0  0
  -23.9339  -17.4025   23.8316 C   0  0  0  0  0  0  0  0  0  0  0  0
  -19.5539  -27.8381   21.5160 C   0  0  0  0  0  0  0  0  0  0  0  0
  -24.1997  -16.0617   23.1475 C   0  0  0  0  0  0  0  0  0  0  0  0
  -27.9670  -21.0381   20.3185 C   0  0  0  0  0  0  0  0  0  0  0  0
  -25.9833  -22.4471   19.6191 C   0  0  0  0  0  0  0  0  0  0  0  0
  -25.0615  -18.3898   23.5539 C   0  0  0  0  0  0  0  0  0  0  0  0
  -27.0974  -19.7851   20.1812 C   0  0  0  0  0  0  0  0  0  0  0  0
  -25.1709  -21.1636   19.4734 C   0  0  0  0  0  0  0  0  0  0  0  0
  -25.5846  -17.2886   21.4018 C   0  0  0  0  0  0  0  0  0  0  0  0
  -20.6856  -27.9837   22.5404 C   0  0  1  0  0  0  0  0  0  0  0  0
  -27.4817  -22.1722   19.3977 C   0  0  0  0  0  0  0  0  0  0  0  0
  -23.1437  -30.5802   21.2562 C   0  0  1  0  0  0  0  0  0  0  0  0
  -24.4689  -16.2517   21.6442 C   0  0  1  0  0  0  0  0  0  0  0  0
  -24.6293  -34.7665   14.9102 C   0  0  0  0  0  0  0  0  0  0  0  0
  -29.2034  -23.9505   16.1490 C   0  0  0  0  0  0  0  0  0  0  0  0
  -27.1244  -25.2620   16.7520 C   0  0  0  0  0  0  0  0  0  0  0  0
  -21.6853  -29.2439   17.0791 C   0  0  0  0  0  0  0  0  0  0  0  0
  -22.4990  -30.6287   15.1586 C   0  0  0  0  0  0  0  0  0  0  0  0
  -20.7378  -31.5239   16.6815 C   0  0  0  0  0  0  0  0  0  0  0  0
  -26.4146  -35.0094   18.2613 C   0  0  0  0  0  0  0  0  0  0  0  0
  -29.6028  -27.1515   21.7976 C   0  0  0  0  0  0  0  0  0  1  0  0
  -30.4105  -26.0135   21.1358 C   0  0  2  0  0  0  0  0  0  0  0  0
  -23.1198  -31.3468   17.5101 C   0  0  1  0  0  0  0  0  0  0  0  0
  -24.8034  -34.5590   16.4067 C   0  0  2  0  0  0  0  0  0  0  0  0
  -28.0644  -24.1245   17.1555 C   0  0  0  0  0  0  0  0  0  0  0  0
  -22.0284  -30.6776   16.6279 C   0  0  0  0  0  0  0  0  0  0  0  0
  -26.0436  -14.5350   20.8339 N   0  0  0  0  0  0  0  0  0  0  0  0
  -28.5558  -24.2820   18.5068 N   0  0  0  0  0  0  0  0  0  0  0  0
  -24.7656  -14.9327   20.9546 N   0  0  0  0  0  0  0  0  0  0  0  0
  -23.5727  -30.7345   19.8646 N   0  0  0  0  0  0  0  0  0  0  0  0
  -25.2887  -18.5398   22.1167 N   0  0  0  0  0  0  0  0  0  0  0  0
  -25.6771  -20.1167   20.3606 N   0  0  0  0  0  0  0  0  0  0  0  0
  -22.5370  -14.3058   20.4535 N   0  0  0  0  0  0  0  0  0  0  0  0
  -24.9792  -10.8904   18.7901 N   0  0  0  0  0  0  0  0  0  0  0  0
  -21.4530  -29.1825   22.2788 N   0  0  0  0  0  0  0  0  0  0  0  0
  -23.4454  -32.7151   17.1225 N   0  0  0  0  0  0  0  0  0  0  0  0
  -31.5713  -26.6644   20.4176 N   0  3  0  0  0  0  0  0  0  0  0  0
  -26.1221  -35.1244   16.8093 N   0  3  0  0  0  0  0  0  0  0  0  0
  -22.8508  -11.7025   19.0531 O   0  0  0  0  0  0  0  0  0  0  0  0
  -22.8934  -28.3060   20.6727 O   0  0  0  0  0  0  0  0  0  0  0  0
  -21.7135  -32.0218   19.2970 O   0  0  0  0  0  0  0  0  0  0  0  0
  -25.7033  -32.3428   16.7477 O   0  0  0  0  0  0  0  0  0  0  0  0
  -23.9760  -20.4211   21.8864 O   0  0  0  0  0  0  0  0  0  0  0  0
  -30.5285  -10.4260   18.9494 O   0  0  0  0  0  0  0  0  0  0  0  0
  -29.0308  -28.0011   20.8094 O   0  0  0  0  0  0  0  0  0  1  0  0
  -30.8949   -8.2659   13.8894 F   0  0  0  0  0  0  0  0  0  0  0  0
  -32.5997  -11.1230   17.2563 F   0  0  0  0  0  0  0  0  0  0  0  0
  1  2  1  0  0  0  0
  1  5  2  0  0  0  0
  2  6  2  0  0  0  0
  3  8  2  0  0  0  0
  3 17  1  0  0  0  0
  4  9  1  0  0  0  0
  4 17  2  0  0  0  0
  5 19  1  0  0  0  0
  6 21  1  0  0  0  0
  7 10  2  0  0  0  0
  7 20  1  0  0  0  0
  8 24  1  0  0  0  0
  9 24  2  0  0  0  0
 10 25  1  0  0  0  0
 11 12  2  0  0  0  0
 11 26  1  0  0  0  0
 12 27  1  0  0  0  0
 13 22  1  0  0  0  0
 13 25  2  0  0  0  0
 14 23  1  0  0  0  0
 14 30  2  0  0  0  0
 15 27  2  0  0  0  0
 15 28  1  0  0  0  0
 16 23  2  0  0  0  0
 16 68  1  0  0  0  0
 17 29  1  0  0  0  0
 18 29  1  0  0  0  0
 18 31  2  0  0  0  0
 18 32  1  0  0  0  0
 19 21  2  0  0  0  0
 19 37  1  0  0  0  0
 20 22  2  0  0  0  0
 20 38  1  0  0  0  0
 21 50  1  0  0  0  0
 22 39  1  0  0  0  0
 23 62  1  0  0  0  0
 24 84  1  0  0  0  0
 25 85  1  0  0  0  0
 26 28  2  0  0  0  0
 26 84  1  0  0  0  0
 27 86  1  0  0  0  0
 28 87  1  0  0  0  0
 29 67  2  0  0  0  0
 30 51  1  0  0  0  0
 30 68  1  0  0  0  0
 31 69  1  0  0  0  0
 31 73  1  0  0  0  0
 32 74  1  0  0  0  0
 32 79  2  0  0  0  0
 33 52  1  0  0  0  0
 33 75  1  0  0  0  0
 33 80  2  0  0  0  0
 34 63  1  0  0  0  0
 34 70  1  0  0  0  0
 34 81  2  0  0  0  0
 35 64  1  0  0  0  0
 35 76  1  0  0  0  0
 35 82  2  0  0  0  0
 36 71  1  0  0  0  0
 36 72  1  0  0  0  0
 36 83  2  0  0  0  0
 37 40  1  0  0  0  0
 38 52  1  0  0  0  0
 39 70  1  0  0  0  0
 40 42  1  0  0  0  0
 41 43  1  0  0  0  0
 41 46  1  0  0  0  0
 42 50  1  0  0  0  0
 43 53  1  0  0  0  0
 44 47  1  0  0  0  0
 44 51  1  0  0  0  0
 45 48  1  0  0  0  0
 45 51  1  0  0  0  0
 46 71  1  0  0  0  0
 47 72  1  0  0  0  0
 48 72  1  0  0  0  0
 49 53  1  0  0  0  0
 49 71  1  0  0  0  0
 50 75  1  0  0  0  0
 52 70  1  0  0  0  0
 53 69  1  0  0  0  0
 54 64  1  0  0  0  0
 55 65  1  0  0  0  0
 56 65  1  0  0  0  0
 57 66  1  0  0  0  0
 58 66  1  0  0  0  0
 59 66  1  0  0  0  0
 60 78  1  0  0  0  0
 61 62  1  0  0  0  0
 61 85  1  0  0  0  0
 62 77  1  0  0  0  0
 63 66  1  0  0  0  0
 63 76  1  0  0  0  0
 64 78  1  0  0  0  0
 65 68  1  0  0  0  0
 67 69  1  0  0  0  0
M  CHG  2  77   1  78   1
M  ISO  4  36 100  61 101  72 100  85 101
M  END
> <Batch ID>
0116

> <Smiles>
CNC(C)C(=O)NC(C(=O)N1Cc2cc([101O:1][101CH2:1]C(N)c3cc(C4CC[100N:0]([100C:0](=O)N5CCCC(n6nc(-c7ccc(Oc8ccc(F)cc8F)cc7)c(C(N)=O)c6N)C5)CC4)n(C(C)C)c3)ccc2CC1C(=O)NC1CCCc2ccccc21)C(C)(C)C

> <Shape>
0.230

> <Color>
0.082

> <Negative vol penalty>
0.000

$$$$

  -OEChem-04052320133D

 86 94  0     1  0  0  0  0  0999 V2000
  -27.6878  -36.8369   17.2834 C   0  0  0  0  0  0  0  0  0  0  0  0
  -28.2090  -35.5802   17.5741 C   0  0  0  0  0  0  0  0  0  0  0  0
  -24.1311   -8.6123   21.1218 C   0  0  0  0  0  0  0  0  0  0  0  0
  -25.1663   -9.6921   23.0190 C   0  0  0  0  0  0  0  0  0  0  0  0
  -26.6928  -37.3822   18.0936 C   0  0  0  0  0  0  0  0  0  0  0  0
  -27.7362  -34.8685   18.6761 C   0  0  0  0  0  0  0  0  0  0  0  0
  -27.0767  -28.7969   19.1304 C   0  0  0  0  0  0  0  0  0  0  0  0
  -23.8618   -7.4912   21.9068 C   0  0  0  0  0  0  0  0  0  0  0  0
  -24.8970   -8.5710   23.8040 C   0  0  0  0  0  0  0  0  0  0  0  0
  -27.8744  -27.8069   19.7026 C   0  0  0  0  0  0  0  0  0  0  0  0
  -21.5939   -6.5699   24.2392 C   0  0  0  0  0  0  0  0  0  0  0  0
  -20.3230   -6.0028   24.1453 C   0  0  0  0  0  0  0  0  0  0  0  0
  -26.5554  -27.9184   21.7193 C   0  0  0  0  0  0  0  0  0  0  0  0
  -21.3061   -3.9211   23.4123 C   0  0  0  0  0  0  0  0  0  0  0  0
  -24.7833   -9.7128   21.6779 C   0  0  0  0  0  0  0  0  0  0  0  0
  -24.1287  -11.6856   20.1989 C   0  0  0  0  0  0  0  0  0  0  0  0
  -26.2007  -36.6727   19.2005 C   0  0  0  0  0  0  0  0  0  0  0  0
  -26.0173  -29.3637   19.8535 C   0  0  0  0  0  0  0  0  0  0  0  0
  -26.7346  -35.4054   19.5027 C   0  0  0  0  0  0  0  0  0  0  0  0
  -25.7442  -28.9135   21.1531 C   0  0  0  0  0  0  0  0  0  0  0  0
  -24.2448   -7.4705   23.2479 C   0  0  0  0  0  0  0  0  0  0  0  0
  -27.6156  -27.3696   20.9984 C   0  0  0  0  0  0  0  0  0  0  0  0
  -22.7209   -5.8126   23.9197 C   0  0  0  0  0  0  0  0  0  0  0  0
  -20.1791   -4.6784   23.7318 C   0  0  0  0  0  0  0  0  0  0  0  0
  -22.5770   -4.4882   23.5063 C   0  0  0  0  0  0  0  0  0  0  0  0
  -25.0622  -10.8710   20.8674 C   0  0  0  0  0  0  0  0  0  0  0  0
  -24.8921  -12.6424   19.5759 C   0  0  0  0  0  0  0  0  0  0  0  0
  -29.0526  -17.0647   23.3691 C   0  0  0  0  0  0  0  0  0  0  0  0
  -22.6994  -11.5862   20.1460 C   0  0  0  0  0  0  0  0  0  0  0  0
  -28.5604  -18.3086   23.2018 C   0  0  0  0  0  0  0  0  0  0  0  0
  -25.3189  -32.2866   20.8890 C   0  0  0  0  0  0  0  0  0  0  0  0
  -22.5254  -30.8877   21.7617 C   0  0  0  0  0  0  0  0  0  0  0  0
  -20.8513  -28.0332   22.5961 C   0  0  0  0  0  0  0  0  0  0  0  0
  -30.3216  -14.8995   20.7059 C   0  0  0  0  0  0  0  0  0  0  0  0
  -25.1581  -37.3233   20.0746 C   0  0  0  0  0  0  0  0  0  0  0  0
  -25.1496  -30.4116   19.2122 C   0  0  0  0  0  0  0  0  0  0  0  0
  -24.6062  -29.4754   21.9641 C   0  0  0  0  0  0  0  0  0  0  0  0
  -24.4466  -36.3446   21.0054 C   0  0  0  0  0  0  0  0  0  0  0  0
  -29.2399  -13.3274   17.7001 C   0  0  0  0  0  0  0  0  0  0  0  0
  -25.4572  -35.4348   21.6966 C   0  0  0  0  0  0  0  0  0  0  0  0
  -27.9623  -12.5931   18.1107 C   0  0  0  0  0  0  0  0  0  0  0  0
  -29.8920  -23.1074   20.5269 C   0  0  0  0  0  0  0  0  0  0  0  0
  -27.3928  -22.8363   20.8455 C   0  0  0  0  0  0  0  0  0  0  0  0
  -29.8116  -24.5130   21.1174 C   0  0  0  0  0  0  0  0  0  0  0  0
  -27.3183  -24.2428   21.4348 C   0  0  0  0  0  0  0  0  0  0  0  0
  -30.2866  -13.3035   18.8118 C   0  0  0  0  0  0  0  0  0  0  0  0
  -28.5358  -13.0621   20.5293 C   0  0  0  0  0  0  0  0  0  0  0  0
  -26.2300  -34.5920   20.6749 C   0  0  1  0  0  0  0  0  0  0  0  0
  -24.4169  -31.2836   20.2272 C   0  0  1  0  0  0  0  0  0  0  0  0
  -27.4294  -13.1074   19.4615 C   0  0  2  0  0  0  0  0  0  0  0  0
  -28.7731  -22.2239   21.0748 C   0  0  0  0  0  0  0  0  0  0  0  0
  -28.4350  -25.1392   20.8989 C   0  0  0  0  0  0  0  0  0  1  0  0
  -27.3692  -18.7620   24.0067 C   0  0  0  0  0  0  0  0  0  0  0  0
  -31.2756  -15.9704   23.6501 C   0  0  0  0  0  0  0  0  0  0  0  0
  -18.5860  -27.2112   23.2963 C   0  0  0  0  0  0  0  0  0  0  0  0
  -27.8115  -18.6979   20.1755 C   0  0  0  0  0  0  0  0  0  0  0  0
  -22.9979  -31.9846   24.5695 C   0  0  0  0  0  0  0  0  0  0  0  0
  -21.2692  -30.3812   25.4114 C   0  0  0  0  0  0  0  0  0  0  0  0
  -20.6341  -32.1486   23.7696 C   0  0  0  0  0  0  0  0  0  0  0  0
  -20.6131  -26.3019   20.2077 C   0  0  0  0  0  0  0  0  0  0  0  0
  -29.1400  -19.3506   22.2685 C   0  0  0  0  0  0  0  0  0  0  0  0
  -30.2168  -16.4318   22.6554 C   0  0  1  0  0  0  0  0  0  0  0  0
  -22.0236  -30.1822   22.9985 C   0  0  1  0  0  0  0  0  0  0  0  0
  -19.5217  -27.4712   22.1261 C   0  0  2  0  0  0  0  0  0  0  0  0
  -28.1727  -19.7986   21.1648 C   0  0  1  0  0  0  0  0  0  0  0  0
  -21.7539  -31.1647   24.1729 C   0  0  0  0  0  0  0  0  0  0  0  0
  -26.3223  -11.2750   20.6859 N   0  0  0  0  0  0  0  0  0  0  0  0
  -26.1860  -12.3539   19.8963 N   0  0  0  0  0  0  0  0  0  0  0  0
  -23.7903  -30.5024   21.2955 N   0  0  0  0  0  0  0  0  0  0  0  0
  -29.7180  -13.8049   20.0652 N   0  0  0  0  0  0  0  0  0  0  0  0
  -24.5760  -13.6941   18.7907 N   0  0  0  0  0  0  0  0  0  0  0  0
  -22.0759  -10.5428   20.8437 N   0  0  0  0  0  0  0  0  0  0  0  0
  -25.4171  -33.4875   20.2125 N   0  0  0  0  0  0  0  0  0  0  0  0
  -20.8561  -29.4120   22.5837 N   0  0  0  0  0  0  0  0  0  0  0  0
  -29.7157  -15.3152   21.8852 N   0  0  0  0  0  0  0  0  0  0  0  0
  -28.8305  -20.9003   20.3997 N   0  3  0  0  0  0  0  0  0  0  0  0
  -19.7303  -26.1882   21.3971 N   0  3  0  0  0  0  0  0  0  0  0  0
  -21.9972  -12.3890   19.4857 O   0  0  0  0  0  0  0  0  0  0  0  0
  -25.8827  -31.9933   21.9368 O   0  0  0  0  0  0  0  0  0  0  0  0
  -21.8179  -31.7437   21.2249 O   0  0  0  0  0  0  0  0  0  0  0  0
  -21.7903  -27.3203   22.9434 O   0  0  0  0  0  0  0  0  0  0  0  0
  -31.3230  -15.4677   20.2573 O   0  0  0  0  0  0  0  0  0  0  0  0
  -23.9820   -6.3768   24.0142 O   0  0  0  0  0  0  0  0  0  0  0  0
  -28.3981  -26.3977   21.5632 O   0  0  0  0  0  0  0  0  0  1  0  0
  -18.9587   -4.1334   23.6431 F   0  0  0  0  0  0  0  0  0  0  0  0
  -23.6561   -3.7554   23.1991 F   0  0  0  0  0  0  0  0  0  0  0  0
  1  2  1  0  0  0  0
  1  5  2  0  0  0  0
  2  6  2  0  0  0  0
  3  8  2  0  0  0  0
  3 15  1  0  0  0  0
  4  9  1  0  0  0  0
  4 15  2  0  0  0  0
  5 17  1  0  0  0  0
  6 19  1  0  0  0  0
  7 10  2  0  0  0  0
  7 18  1  0  0  0  0
  8 21  1  0  0  0  0
  9 21  2  0  0  0  0
 10 22  1  0  0  0  0
 11 12  2  0  0  0  0
 11 23  1  0  0  0  0
 12 24  1  0  0  0  0
 13 20  1  0  0  0  0
 13 22  2  0  0  0  0
 14 24  2  0  0  0  0
 14 25  1  0  0  0  0
 15 26  1  0  0  0  0
 16 26  1  0  0  0  0
 16 27  2  0  0  0  0
 16 29  1  0  0  0  0
 17 19  2  0  0  0  0
 17 35  1  0  0  0  0
 18 20  2  0  0  0  0
 18 36  1  0  0  0  0
 19 48  1  0  0  0  0
 20 37  1  0  0  0  0
 21 83  1  0  0  0  0
 22 84  1  0  0  0  0
 23 25  2  0  0  0  0
 23 83  1  0  0  0  0
 24 85  1  0  0  0  0
 25 86  1  0  0  0  0
 26 67  2  0  0  0  0
 27 68  1  0  0  0  0
 27 71  1  0  0  0  0
 28 30  2  0  0  0  0
 28 62  1  0  0  0  0
 29 72  1  0  0  0  0
 29 78  2  0  0  0  0
 30 53  1  0  0  0  0
 30 61  1  0  0  0  0
 31 49  1  0  0  0  0
 31 73  1  0  0  0  0
 31 79  2  0  0  0  0
 32 63  1  0  0  0  0
 32 69  1  0  0  0  0
 32 80  2  0  0  0  0
 33 64  1  0  0  0  0
 33 74  1  0  0  0  0
 33 81  2  0  0  0  0
 34 70  1  0  0  0  0
 34 75  1  0  0  0  0
 34 82  2  0  0  0  0
 35 38  1  0  0  0  0
 36 49  1  0  0  0  0
 37 69  1  0  0  0  0
 38 40  1  0  0  0  0
 39 41  1  0  0  0  0
 39 46  1  0  0  0  0
 40 48  1  0  0  0  0
 41 50  1  0  0  0  0
 42 44  1  0  0  0  0
 42 51  1  0  0  0  0
 43 45  1  0  0  0  0
 43 51  1  0  0  0  0
 44 52  1  0  0  0  0
 45 52  1  0  0  0  0
 46 70  1  0  0  0  0
 47 50  1  0  0  0  0
 47 70  1  0  0  0  0
 48 73  1  0  0  0  0
 49 69  1  0  0  0  0
 50 68  1  0  0  0  0
 51 76  1  0  0  0  0
 52 84  1  0  0  0  0
 54 62  1  0  0  0  0
 55 64  1  0  0  0  0
 56 65  1  0  0  0  0
 57 66  1  0  0  0  0
 58 66  1  0  0  0  0
 59 66  1  0  0  0  0
 60 77  1  0  0  0  0
 61 65  1  0  0  0  0
 62 75  1  0  0  0  0
 63 66  1  0  0  0  0
 63 74  1  0  0  0  0
 64 77  1  0  0  0  0
 65 76  1  0  0  0  0
 67 68  1  0  0  0  0
M  CHG  2  76   1  77   1
M  ISO  4  34 100  52 101  75 100  84 101
M  END
> <Batch ID>
0116

> <Smiles>
CNC(C)C(=O)NC(C(=O)N1Cc2cc([101O:1][101CH:1]3CCC(NC(C)CC(C)=CC(C)[100NH:0][100C:0](=O)N4CCCC(n5nc(-c6ccc(Oc7ccc(F)cc7F)cc6)c(C(N)=O)c5N)C4)CC3)ccc2CC1C(=O)NC1CCCc2ccccc21)C(C)(C)C

> <Shape>
0.320

> <Color>
0.101

> <Negative vol penalty>
0.000

$$$$

  -OEChem-04052320133D

 82 90  0     1  0  0  0  0  0999 V2000
  -38.6457   -0.7066   24.3527 C   0  0  0  0  0  0  0  0  0  0  0  0
  -37.6683   -1.4239   25.0350 C   0  0  0  0  0  0  0  0  0  0  0  0
  -23.1910   -9.8195   19.9307 C   0  0  0  0  0  0  0  0  0  0  0  0
  -23.5683   -9.9992   22.3103 C   0  0  0  0  0  0  0  0  0  0  0  0
  -39.2122   -1.2325   23.1924 C   0  0  0  0  0  0  0  0  0  0  0  0
  -37.2578   -2.6683   24.5580 C   0  0  0  0  0  0  0  0  0  0  0  0
  -31.6232   -5.0491   24.8566 C   0  0  0  0  0  0  0  0  0  0  0  0
  -22.4248   -8.6726   20.1387 C   0  0  0  0  0  0  0  0  0  0  0  0
  -22.8020   -8.8524   22.5184 C   0  0  0  0  0  0  0  0  0  0  0  0
  -31.0354   -5.9608   25.7324 C   0  0  0  0  0  0  0  0  0  0  0  0
  -21.2446   -5.7680   23.6457 C   0  0  0  0  0  0  0  0  0  0  0  0
  -21.7408   -4.8080   24.5276 C   0  0  0  0  0  0  0  0  0  0  0  0
  -29.7651  -15.0873   26.4908 C   0  0  0  0  0  0  0  0  0  0  0  0
  -30.2147  -14.8934   25.1614 C   0  0  0  0  0  0  0  0  0  0  0  0
  -31.5112   -7.7472   24.1828 C   0  0  0  0  0  0  0  0  0  0  0  0
  -23.7001   -4.5447   23.1387 C   0  0  0  0  0  0  0  0  0  0  0  0
  -23.7628  -10.4827   21.0164 C   0  0  0  0  0  0  0  0  0  0  0  0
  -24.1012  -12.9995   20.7735 C   0  0  0  0  0  0  0  0  0  0  0  0
  -38.8015   -2.4796   22.6955 C   0  0  0  0  0  0  0  0  0  0  0  0
  -32.1702   -5.4820   23.6401 C   0  0  0  0  0  0  0  0  0  0  0  0
  -37.8203   -3.2120   23.3907 C   0  0  0  0  0  0  0  0  0  0  0  0
  -32.1032   -6.8387   23.2921 C   0  0  0  0  0  0  0  0  0  0  0  0
  -22.2303   -8.1891   21.4326 C   0  0  0  0  0  0  0  0  0  0  0  0
  -30.9819   -7.3105   25.3969 C   0  0  0  0  0  0  0  0  0  0  0  0
  -21.9761   -6.1163   22.5102 C   0  0  0  0  0  0  0  0  0  0  0  0
  -22.9685   -4.1964   24.2742 C   0  0  0  0  0  0  0  0  0  0  0  0
  -23.2038   -5.5047   22.2568 C   0  0  0  0  0  0  0  0  0  0  0  0
  -24.5548  -11.6672   20.8021 C   0  0  0  0  0  0  0  0  0  0  0  0
  -30.1644  -13.9918   27.2240 C   0  0  0  0  0  0  0  0  0  0  0  0
  -30.8750  -13.6851   25.1227 C   0  0  0  0  0  0  0  0  0  0  0  0
  -25.2323  -13.7424   20.5389 C   0  0  0  0  0  0  0  0  0  0  0  0
  -22.7758  -13.5192   20.9439 C   0  0  0  0  0  0  0  0  0  0  0  0
  -35.0762   -5.4580   22.3524 C   0  0  0  0  0  0  0  0  0  0  0  0
  -33.5046   -6.5738   19.7433 C   0  0  0  0  0  0  0  0  0  0  0  0
  -30.7843   -8.1974   18.4742 C   0  0  0  0  0  0  0  0  0  0  0  0
  -31.0469  -12.7531   21.5704 C   0  0  0  0  0  0  0  0  0  0  0  0
  -39.4767   -3.0284   21.4637 C   0  0  0  0  0  0  0  0  0  0  0  0
  -32.7769   -4.4821   22.6944 C   0  0  0  0  0  0  0  0  0  0  0  0
  -32.6577   -7.3515   21.9890 C   0  0  0  0  0  0  0  0  0  0  0  0
  -38.7181   -4.1847   20.8173 C   0  0  0  0  0  0  0  0  0  0  0  0
  -29.5207  -13.4712   18.4348 C   0  0  0  0  0  0  0  0  0  0  0  0
  -38.2831   -5.1948   21.8742 C   0  0  0  0  0  0  0  0  0  0  0  0
  -28.0340  -13.2105   18.6834 C   0  0  0  0  0  0  0  0  0  0  0  0
  -30.4018  -12.4817   19.1941 C   0  0  0  0  0  0  0  0  0  0  0  0
  -28.6476  -12.1382   20.8907 C   0  0  0  0  0  0  0  0  0  0  0  0
  -37.3308   -4.5539   22.8910 C   0  0  1  0  0  0  0  0  0  0  0  0
  -33.7620   -5.1095   21.7128 C   0  0  1  0  0  0  0  0  0  0  0  0
  -27.7203  -13.1460   20.1902 C   0  0  2  0  0  0  0  0  0  0  0  0
  -29.9591  -13.6841   28.6544 C   0  0  0  0  0  0  0  0  0  0  0  0
  -29.7983   -8.9927   16.3079 C   0  0  0  0  0  0  0  0  0  0  0  0
  -31.3359   -9.1461   28.2529 C   0  0  0  0  0  0  0  0  0  0  0  0
  -35.4912   -8.8891   19.6918 C   0  0  0  0  0  0  0  0  0  0  0  0
  -33.9265  -10.1062   18.1626 C   0  0  0  0  0  0  0  0  0  0  0  0
  -34.9360   -7.9408   17.4453 C   0  0  0  0  0  0  0  0  0  0  0  0
  -28.3837   -6.4994   18.8096 C   0  0  0  0  0  0  0  0  0  0  0  0
  -31.5359  -13.0037   23.9905 C   0  0  0  0  0  0  0  0  0  0  0  0
  -30.6314  -10.6058   26.3222 C   0  0  0  0  0  0  0  0  0  0  0  0
  -31.4455  -11.8245   26.7802 C   0  0  0  0  0  0  0  0  0  0  0  0
  -33.1362   -7.9414   19.2209 C   0  0  1  0  0  0  0  0  0  0  0  0
  -29.8572   -7.8596   17.3206 C   0  0  2  0  0  0  0  0  0  0  0  0
  -31.2362   -9.2587   26.7369 C   0  0  2  0  0  0  0  0  0  1  0  0
  -34.3637   -8.7103   18.6557 C   0  0  0  0  0  0  0  0  0  0  0  0
  -25.8715  -11.5664   20.6015 N   0  0  0  0  0  0  0  0  0  0  0  0
  -30.8380  -13.1459   26.3820 N   0  0  0  0  0  0  0  0  0  0  0  0
  -26.2549  -12.8448   20.4446 N   0  0  0  0  0  0  0  0  0  0  0  0
  -33.2465   -6.3357   21.1007 N   0  0  0  0  0  0  0  0  0  0  0  0
  -30.0547  -12.4701   20.6172 N   0  0  0  0  0  0  0  0  0  0  0  0
  -25.4421  -15.0694   20.4062 N   0  0  0  0  0  0  0  0  0  0  0  0
  -21.7292  -12.6167   21.1773 N   0  0  0  0  0  0  0  0  0  0  0  0
  -36.0017   -4.4321   22.3317 N   0  0  0  0  0  0  0  0  0  0  0  0
  -32.0640   -7.7337   18.2536 N   0  0  0  0  0  0  0  0  0  0  0  0
  -30.6321  -12.7273   22.8963 N   0  0  0  0  0  0  0  0  0  0  0  0
  -28.4772   -7.6056   17.8225 N   0  3  0  0  0  0  0  0  0  0  0  0
  -22.5244  -14.7462   20.8745 O   0  0  0  0  0  0  0  0  0  0  0  0
  -35.2390   -6.5755   22.8282 O   0  0  0  0  0  0  0  0  0  0  0  0
  -33.9965   -5.7448   18.9736 O   0  0  0  0  0  0  0  0  0  0  0  0
  -30.4116   -8.8145   19.4696 O   0  0  0  0  0  0  0  0  0  0  0  0
  -32.2145  -13.0150   21.2623 O   0  0  0  0  0  0  0  0  0  0  0  0
  -21.4825   -7.0702   21.6360 O   0  0  0  0  0  0  0  0  0  0  0  0
  -30.4092   -8.2025   26.2503 O   0  0  0  0  0  0  0  0  0  1  0  0
  -23.4456   -3.2756   25.1220 F   0  0  0  0  0  0  0  0  0  0  0  0
  -23.9117   -5.8361   21.1682 F   0  0  0  0  0  0  0  0  0  0  0  0
  1  2  1  0  0  0  0
  1  5  2  0  0  0  0
  2  6  2  0  0  0  0
  3  8  2  0  0  0  0
  3 17  1  0  0  0  0
  4  9  1  0  0  0  0
  4 17  2  0  0  0  0
  5 19  1  0  0  0  0
  6 21  1  0  0  0  0
  7 10  2  0  0  0  0
  7 20  1  0  0  0  0
  8 23  1  0  0  0  0
  9 23  2  0  0  0  0
 10 24  1  0  0  0  0
 11 12  2  0  0  0  0
 11 25  1  0  0  0  0
 12 26  1  0  0  0  0
 13 14  1  0  0  0  0
 13 29  2  0  0  0  0
 14 30  2  0  0  0  0
 15 22  1  0  0  0  0
 15 24  2  0  0  0  0
 16 26  2  0  0  0  0
 16 27  1  0  0  0  0
 17 28  1  0  0  0  0
 18 28  1  0  0  0  0
 18 31  2  0  0  0  0
 18 32  1  0  0  0  0
 19 21  2  0  0  0  0
 19 37  1  0  0  0  0
 20 22  2  0  0  0  0
 20 38  1  0  0  0  0
 21 46  1  0  0  0  0
 22 39  1  0  0  0  0
 23 79  1  0  0  0  0
 24 80  1  0  0  0  0
 25 27  2  0  0  0  0
 25 79  1  0  0  0  0
 26 81  1  0  0  0  0
 27 82  1  0  0  0  0
 28 63  2  0  0  0  0
 29 49  1  0  0  0  0
 29 64  1  0  0  0  0
 30 56  1  0  0  0  0
 30 64  1  0  0  0  0
 31 65  1  0  0  0  0
 31 68  1  0  0  0  0
 32 69  1  0  0  0  0
 32 74  2  0  0  0  0
 33 47  1  0  0  0  0
 33 70  1  0  0  0  0
 33 75  2  0  0  0  0
 34 59  1  0  0  0  0
 34 66  1  0  0  0  0
 34 76  2  0  0  0  0
 35 60  1  0  0  0  0
 35 71  1  0  0  0  0
 35 77  2  0  0  0  0
 36 67  1  0  0  0  0
 36 72  1  0  0  0  0
 36 78  2  0  0  0  0
 37 40  1  0  0  0  0
 38 47  1  0  0  0  0
 39 66  1  0  0  0  0
 40 42  1  0  0  0  0
 41 43  1  0  0  0  0
 41 44  1  0  0  0  0
 42 46  1  0  0  0  0
 43 48  1  0  0  0  0
 44 67  1  0  0  0  0
 45 48  1  0  0  0  0
 45 67  1  0  0  0  0
 46 70  1  0  0  0  0
 47 66  1  0  0  0  0
 48 65  1  0  0  0  0
 50 60  1  0  0  0  0
 51 61  1  0  0  0  0
 52 62  1  0  0  0  0
 53 62  1  0  0  0  0
 54 62  1  0  0  0  0
 55 73  1  0  0  0  0
 56 72  1  0  0  0  0
 57 58  1  0  0  0  0
 57 61  1  0  0  0  0
 58 64  1  0  0  0  0
 59 62  1  0  0  0  0
 59 71  1  0  0  0  0
 60 73  1  0  0  0  0
 61 80  1  0  0  0  0
 63 65  1  0  0  0  0
M  CHG  1  73   1
M  ISO  4  36 100  61 101  72 100  80 101
M  END
> <Batch ID>
0116

> <Smiles>
CNC(C)C(=O)NC(C(=O)N1Cc2cc([101O:1][101CH:1](C)CCn3c(C)ccc3C[100NH:0][100C:0](=O)N3CCCC(n4nc(-c5ccc(Oc6ccc(F)cc6F)cc5)c(C(N)=O)c4N)C3)ccc2CC1C(=O)NC1CCCc2ccccc21)C(C)(C)C

> <Shape>
0.139

> <Color>
0.190

> <Negative vol penalty>
0.000

$$$$

  -OEChem-04052320133D

 87 95  0     1  0  0  0  0  0999 V2000
  -23.7691   -8.0843   21.3001 C   0  0  0  0  0  0  0  0  0  0  0  0
  -24.8370   -8.8934   20.9257 C   0  0  0  0  0  0  0  0  0  0  0  0
  -26.6622  -27.8555   21.1973 C   0  0  0  0  0  0  0  0  0  0  0  0
  -25.9264  -27.7147   18.9004 C   0  0  0  0  0  0  0  0  0  0  0  0
  -22.5038   -8.6413   21.4808 C   0  0  0  0  0  0  0  0  0  0  0  0
  -24.6400  -10.2600   20.7306 C   0  0  0  0  0  0  0  0  0  0  0  0
  -28.6049  -14.7633   21.9576 C   0  0  0  0  0  0  0  0  0  0  0  0
  -25.7066  -28.8413   21.4430 C   0  0  0  0  0  0  0  0  0  0  0  0
  -24.9707  -28.7005   19.1461 C   0  0  0  0  0  0  0  0  0  0  0  0
  -29.4918  -15.4773   21.1530 C   0  0  0  0  0  0  0  0  0  0  0  0
  -22.3799  -28.9950   22.0281 C   0  0  0  0  0  0  0  0  0  0  0  0
  -21.6224  -28.8872   23.1944 C   0  0  0  0  0  0  0  0  0  0  0  0
  -27.8532  -17.2314   20.9138 C   0  0  0  0  0  0  0  0  0  0  0  0
  -31.7182  -19.8226   19.0760 C   0  0  0  0  0  0  0  0  0  0  0  0
  -22.4593  -31.0289   23.9359 C   0  0  0  0  0  0  0  0  0  0  0  0
  -31.3737  -19.7507   16.3701 C   0  0  0  0  0  0  0  0  0  0  0  0
  -26.7722  -27.2922   19.9259 C   0  0  0  0  0  0  0  0  0  0  0  0
  -27.6000  -24.8821   19.8075 C   0  0  0  0  0  0  0  0  0  0  0  0
  -22.2932  -10.0170   21.2972 C   0  0  0  0  0  0  0  0  0  0  0  0
  -27.3293  -15.2739   22.2379 C   0  0  0  0  0  0  0  0  0  0  0  0
  -23.3704  -10.8357   20.9076 C   0  0  0  0  0  0  0  0  0  0  0  0
  -26.9529  -16.5232   21.7244 C   0  0  0  0  0  0  0  0  0  0  0  0
  -32.6949  -20.3667   18.2494 C   0  0  0  0  0  0  0  0  0  0  0  0
  -32.5270  -20.3342   16.8696 C   0  0  0  0  0  0  0  0  0  0  0  0
  -24.8608  -29.2639   20.4175 C   0  0  0  0  0  0  0  0  0  0  0  0
  -29.1149  -16.7102   20.6286 C   0  0  0  0  0  0  0  0  0  0  0  0
  -23.1771  -30.1197   21.8157 C   0  0  0  0  0  0  0  0  0  0  0  0
  -21.6621  -29.9041   24.1483 C   0  0  0  0  0  0  0  0  0  0  0  0
  -23.2168  -31.1366   22.7696 C   0  0  0  0  0  0  0  0  0  0  0  0
  -27.7596  -26.2742   19.6713 C   0  0  0  0  0  0  0  0  0  0  0  0
  -30.6010  -19.2622   18.4779 C   0  0  0  0  0  0  0  0  0  0  0  0
  -28.8186  -24.3601   19.4482 C   0  0  0  0  0  0  0  0  0  0  0  0
  -26.4529  -24.1284   20.2217 C   0  0  0  0  0  0  0  0  0  0  0  0
  -24.3535  -14.3169   21.6609 C   0  0  0  0  0  0  0  0  0  0  0  0
  -23.5887  -16.8696   23.5106 C   0  0  0  0  0  0  0  0  0  0  0  0
  -24.4875  -19.9160   24.7588 C   0  0  0  0  0  0  0  0  0  0  0  0
  -33.2335  -24.2080   16.0378 C   0  0  0  0  0  0  0  0  0  0  0  0
  -20.8975  -10.5656   21.4581 C   0  0  0  0  0  0  0  0  0  0  0  0
  -26.3942  -14.5037   23.1295 C   0  0  0  0  0  0  0  0  0  0  0  0
  -25.6024  -17.1247   22.0121 C   0  0  0  0  0  0  0  0  0  0  0  0
  -20.8526  -12.0852   21.5962 C   0  0  0  0  0  0  0  0  0  0  0  0
  -33.2661  -26.6320   18.6455 C   0  0  0  0  0  0  0  0  0  0  0  0
  -21.7358  -12.7435   20.5410 C   0  0  0  0  0  0  0  0  0  0  0  0
  -31.8225  -26.6445   19.1514 C   0  0  0  0  0  0  0  0  0  0  0  0
  -33.3325  -26.4274   17.1336 C   0  0  0  0  0  0  0  0  0  0  0  0
  -31.1647  -25.2551   17.1424 C   0  0  0  0  0  0  0  0  0  0  0  0
  -23.2018  -12.3266   20.7106 C   0  0  1  0  0  0  0  0  0  0  0  0
  -24.9299  -14.8817   22.9283 C   0  0  1  0  0  0  0  0  0  0  0  0
  -31.0487  -25.4027   18.6692 C   0  0  2  0  0  0  0  0  0  0  0  0
  -23.6390  -21.7777   26.2120 C   0  0  0  0  0  0  0  0  0  0  0  0
  -21.7814  -17.8143   21.2409 C   0  0  0  0  0  0  0  0  0  0  0  0
  -21.7221  -20.0721   22.3213 C   0  0  0  0  0  0  0  0  0  0  0  0
  -20.8117  -18.0888   23.5298 C   0  0  0  0  0  0  0  0  0  0  0  0
  -36.5362  -22.1244   18.5496 C   0  0  0  0  0  0  0  0  0  0  0  0
  -36.1307  -21.0268   20.7830 C   0  0  0  0  0  0  0  0  0  0  0  0
  -37.5429  -19.8666   19.0460 C   0  0  0  0  0  0  0  0  0  0  0  0
  -26.6995  -19.5693   26.6942 C   0  0  0  0  0  0  0  0  0  0  0  0
  -34.9336  -18.7566   19.3291 C   0  0  0  0  0  0  0  0  0  0  0  0
  -33.5415  -20.9017   15.9386 C   0  0  0  0  0  0  0  0  0  0  0  0
  -33.9106  -20.9785   18.8628 C   0  0  0  0  0  0  0  0  0  0  0  0
  -29.5268  -18.6653   19.3387 C   0  0  0  0  0  0  0  0  0  1  0  0
  -32.9801  -21.9713   14.9928 C   0  0  0  0  0  0  0  0  0  0  0  0
  -23.3131  -18.3315   23.2540 C   0  0  1  0  0  0  0  0  0  0  0  0
  -24.4357  -20.4831   26.1660 C   0  0  2  0  0  0  0  0  0  0  0  0
  -21.9319  -18.5647   22.5793 C   0  0  0  0  0  0  0  0  0  0  0  0
  -36.3574  -20.7994   19.2892 C   0  0  0  0  0  0  0  0  0  0  0  0
  -30.4029  -19.2120   17.1415 N   0  0  0  0  0  0  0  0  0  0  0  0
  -28.9831  -26.6149   19.2579 N   0  0  0  0  0  0  0  0  0  0  0  0
  -29.6035  -25.4295   19.1313 N   0  0  0  0  0  0  0  0  0  0  0  0
  -24.7212  -16.3304   22.8839 N   0  0  0  0  0  0  0  0  0  0  0  0
  -32.5804  -25.2328   16.7422 N   0  0  0  0  0  0  0  0  0  0  0  0
  -29.2845  -23.0952   19.3758 N   0  0  0  0  0  0  0  0  0  0  0  0
  -25.2819  -24.8227   20.5550 N   0  0  0  0  0  0  0  0  0  0  0  0
  -23.8109  -13.0541   21.8034 N   0  0  0  0  0  0  0  0  0  0  0  0
  -23.4736  -19.0084   24.5364 N   0  0  0  0  0  0  0  0  0  0  0  0
  -32.4493  -23.1084   15.7111 N   0  0  0  0  0  0  0  0  0  0  0  0
  -25.8128  -20.7608   26.6636 N   0  3  0  0  0  0  0  0  0  0  0  0
  -35.1261  -20.1288   18.7359 N   0  3  1  0  0  0  0  0  0  0  0  0
  -26.4709  -22.8772   20.3098 O   0  0  0  0  0  0  0  0  0  0  0  0
  -24.3965  -14.9785   20.6303 O   0  0  0  0  0  0  0  0  0  0  0  0
  -22.8312  -16.2314   24.2458 O   0  0  0  0  0  0  0  0  0  0  0  0
  -25.3397  -20.2480   23.9378 O   0  0  0  0  0  0  0  0  0  0  0  0
  -34.4283  -24.2660   15.7281 O   0  0  0  0  0  0  0  0  0  0  0  0
  -23.9280  -30.2256   20.6570 O   0  0  0  0  0  0  0  0  0  0  0  0
  -29.9784  -17.4089   19.8424 O   0  0  0  0  0  0  0  0  0  1  0  0
  -20.9335  -29.8011   25.2675 F   0  0  0  0  0  0  0  0  0  0  0  0
  -23.9800  -32.2201   22.5706 F   0  0  0  0  0  0  0  0  0  0  0  0
  1  2  1  0  0  0  0
  1  5  2  0  0  0  0
  2  6  2  0  0  0  0
  3  8  2  0  0  0  0
  3 17  1  0  0  0  0
  4  9  1  0  0  0  0
  4 17  2  0  0  0  0
  5 19  1  0  0  0  0
  6 21  1  0  0  0  0
  7 10  2  0  0  0  0
  7 20  1  0  0  0  0
  8 25  1  0  0  0  0
  9 25  2  0  0  0  0
 10 26  1  0  0  0  0
 11 12  2  0  0  0  0
 11 27  1  0  0  0  0
 12 28  1  0  0  0  0
 13 22  1  0  0  0  0
 13 26  2  0  0  0  0
 14 23  2  0  0  0  0
 14 31  1  0  0  0  0
 15 28  2  0  0  0  0
 15 29  1  0  0  0  0
 16 24  2  0  0  0  0
 16 67  1  0  0  0  0
 17 30  1  0  0  0  0
 18 30  1  0  0  0  0
 18 32  2  0  0  0  0
 18 33  1  0  0  0  0
 19 21  2  0  0  0  0
 19 38  1  0  0  0  0
 20 22  2  0  0  0  0
 20 39  1  0  0  0  0
 21 47  1  0  0  0  0
 22 40  1  0  0  0  0
 23 24  1  0  0  0  0
 23 60  1  0  0  0  0
 24 59  1  0  0  0  0
 25 84  1  0  0  0  0
 26 85  1  0  0  0  0
 27 29  2  0  0  0  0
 27 84  1  0  0  0  0
 28 86  1  0  0  0  0
 29 87  1  0  0  0  0
 30 68  2  0  0  0  0
 31 61  1  0  0  0  0
 31 67  2  0  0  0  0
 32 69  1  0  0  0  0
 32 72  1  0  0  0  0
 33 73  1  0  0  0  0
 33 79  2  0  0  0  0
 34 48  1  0  0  0  0
 34 74  1  0  0  0  0
 34 80  2  0  0  0  0
 35 63  1  0  0  0  0
 35 70  1  0  0  0  0
 35 81  2  0  0  0  0
 36 64  1  0  0  0  0
 36 75  1  0  0  0  0
 36 82  2  0  0  0  0
 37 71  1  0  0  0  0
 37 76  1  0  0  0  0
 37 83  2  0  0  0  0
 38 41  1  0  0  0  0
 39 48  1  0  0  0  0
 40 70  1  0  0  0  0
 41 43  1  0  0  0  0
 42 44  1  0  0  0  0
 42 45  1  0  0  0  0
 43 47  1  0  0  0  0
 44 49  1  0  0  0  0
 45 71  1  0  0  0  0
 46 49  1  0  0  0  0
 46 71  1  0  0  0  0
 47 74  1  0  0  0  0
 48 70  1  0  0  0  0
 49 69  1  0  0  0  0
 50 64  1  0  0  0  0
 51 65  1  0  0  0  0
 52 65  1  0  0  0  0
 53 65  1  0  0  0  0
 54 66  1  0  0  0  0
 55 66  1  0  0  0  0
 56 66  1  0  0  0  0
 57 77  1  0  0  0  0
 58 78  1  0  0  0  0
 59 62  1  0  0  0  0
 60 78  1  0  0  0  0
 61 85  1  0  0  0  0
 62 76  1  0  0  0  0
 63 65  1  0  0  0  0
 63 75  1  0  0  0  0
 64 77  1  0  0  0  0
 66 78  1  0  0  0  0
 68 69  1  0  0  0  0
M  CHG  2  77   1  78   1
M  ISO  4  37 100  61 101  76 100  85 101
M  END
> <Batch ID>
0116

> <Smiles>
CNC(C)C(=O)NC(C(=O)N1Cc2cc([101O:1][101CH2:1]c3cc(CN(C)C(C)(C)C)c(CC[100NH:0][100C:0](=O)N4CCCC(n5nc(-c6ccc(Oc7ccc(F)cc7F)cc6)c(C(N)=O)c5N)C4)cn3)ccc2CC1C(=O)NC1CCCc2ccccc21)C(C)(C)C

> <Shape>
0.196

> <Color>
0.075

> <Negative vol penalty>
0.000

$$$$

  -OEChem-04052320133D

 85 94  0     1  0  0  0  0  0999 V2000
  -19.3364  -21.5383   20.9086 C   0  0  0  0  0  0  0  0  0  0  0  0
  -20.3959  -21.8538   20.0640 C   0  0  0  0  0  0  0  0  0  0  0  0
  -24.2722  -14.0581   20.8463 C   0  0  0  0  0  0  0  0  0  0  0  0
  -26.5626  -13.8022   21.5714 C   0  0  0  0  0  0  0  0  0  0  0  0
  -18.6343  -22.5553   21.5542 C   0  0  0  0  0  0  0  0  0  0  0  0
  -20.7533  -23.1867   19.8637 C   0  0  0  0  0  0  0  0  0  0  0  0
  -26.3986  -25.3925   18.9860 C   0  0  0  0  0  0  0  0  0  0  0  0
  -30.6235  -26.4240   19.3394 C   0  0  0  0  0  0  0  0  0  0  0  0
  -24.2326  -12.7089   20.4950 C   0  0  0  0  0  0  0  0  0  0  0  0
  -26.5230  -12.4529   21.2201 C   0  0  0  0  0  0  0  0  0  0  0  0
  -27.0971  -25.7507   17.8338 C   0  0  0  0  0  0  0  0  0  0  0  0
  -23.4129   -9.2480   19.7428 C   0  0  0  0  0  0  0  0  0  0  0  0
  -22.2892   -8.5126   20.1195 C   0  0  0  0  0  0  0  0  0  0  0  0
  -30.0339  -26.9654   18.2025 C   0  0  0  0  0  0  0  0  0  0  0  0
  -26.4460  -28.0503   18.1614 C   0  0  0  0  0  0  0  0  0  0  0  0
  -22.7490   -8.9990   22.4410 C   0  0  0  0  0  0  0  0  0  0  0  0
  -25.4372  -14.6049   21.3844 C   0  0  0  0  0  0  0  0  0  0  0  0
  -25.1477  -16.5633   22.9933 C   0  0  0  0  0  0  0  0  0  0  0  0
  -18.9895  -23.9008   21.3692 C   0  0  0  0  0  0  0  0  0  0  0  0
  -25.7084  -26.3603   19.7298 C   0  0  0  0  0  0  0  0  0  0  0  0
  -20.0545  -24.2227   20.5064 C   0  0  0  0  0  0  0  0  0  0  0  0
  -30.7561  -25.0449   19.4574 C   0  0  0  0  0  0  0  0  0  0  0  0
  -25.7417  -27.7021   19.3241 C   0  0  0  0  0  0  0  0  0  0  0  0
  -25.3580  -11.9062   20.6820 C   0  0  0  0  0  0  0  0  0  0  0  0
  -27.1184  -27.0793   17.4197 C   0  0  0  0  0  0  0  0  0  0  0  0
  -24.2047   -9.8590   20.7152 C   0  0  0  0  0  0  0  0  0  0  0  0
  -21.9572   -8.3881   21.4686 C   0  0  0  0  0  0  0  0  0  0  0  0
  -23.8728   -9.7345   22.0642 C   0  0  0  0  0  0  0  0  0  0  0  0
  -25.4790  -15.9988   21.7470 C   0  0  0  0  0  0  0  0  0  0  0  0
  -29.5967  -26.0917   17.2200 C   0  0  0  0  0  0  0  0  0  0  0  0
  -30.2864  -24.2572   18.4188 C   0  0  0  0  0  0  0  0  0  0  0  0
  -25.3524  -17.9110   22.8251 C   0  0  0  0  0  0  0  0  0  0  0  0
  -24.6954  -15.9264   24.1956 C   0  0  0  0  0  0  0  0  0  0  0  0
  -22.6652  -26.8375   20.5140 C   0  0  0  0  0  0  0  0  0  0  0  0
  -23.9097  -29.2335   22.3119 C   0  0  0  0  0  0  0  0  0  0  0  0
  -26.4636  -31.4355   22.8368 C   0  0  0  0  0  0  0  0  0  0  0  0
  -28.8882  -20.9282   19.1851 C   0  0  0  0  0  0  0  0  0  0  0  0
  -18.1709  -24.9680   22.0515 C   0  0  0  0  0  0  0  0  0  0  0  0
  -24.9820  -25.9619   20.9852 C   0  0  0  0  0  0  0  0  0  0  0  0
  -25.0338  -28.7826   20.0987 C   0  0  0  0  0  0  0  0  0  0  0  0
  -18.8520  -26.3339   22.0785 C   0  0  0  0  0  0  0  0  0  0  0  0
  -25.3006  -21.3156   19.4616 C   0  0  0  0  0  0  0  0  0  0  0  0
  -30.5055  -24.0074   21.8100 C   0  0  0  0  0  0  0  0  0  0  0  0
  -31.3512  -25.2325   21.9652 C   0  0  0  0  0  0  0  0  0  0  0  0
  -19.4219  -26.6735   20.7049 C   0  0  0  0  0  0  0  0  0  0  0  0
  -24.9129  -20.0358   20.2046 C   0  0  0  0  0  0  0  0  0  0  0  0
  -26.4269  -21.0567   18.4653 C   0  0  0  0  0  0  0  0  0  0  0  0
  -27.2619  -19.1633   19.8038 C   0  0  0  0  0  0  0  0  0  0  0  0
  -31.3861  -24.4578   20.6730 C   0  0  0  0  0  0  0  0  0  0  0  0
  -20.4881  -25.6552   20.2829 C   0  0  1  0  0  0  0  0  0  0  0  0
  -23.8875  -26.9483   21.3808 C   0  0  1  0  0  0  0  0  0  0  0  0
  -26.1431  -19.3635   20.8422 C   0  0  2  0  0  0  0  0  0  0  0  0
  -31.2428  -22.1827   17.3496 C   0  0  0  0  0  0  0  0  0  0  0  0
  -27.1796  -33.2943   24.3631 C   0  0  0  0  0  0  0  0  0  0  0  0
  -29.9123  -27.5767   15.2089 C   0  0  0  0  0  0  0  0  0  0  0  0
  -28.4578  -25.5213   15.0404 C   0  0  0  0  0  0  0  0  0  0  0  0
  -21.9489  -31.1196   20.9306 C   0  0  0  0  0  0  0  0  0  0  0  0
  -23.3211  -33.0420   21.7612 C   0  0  0  0  0  0  0  0  0  0  0  0
  -22.2148  -31.5072   23.3869 C   0  0  0  0  0  0  0  0  0  0  0  0
  -28.8749  -29.9530   23.7012 C   0  0  0  0  0  0  0  0  0  0  0  0
  -30.3994  -22.7693   18.4897 C   0  0  2  0  0  0  0  0  0  0  0  0
  -24.2205  -30.6926   22.0810 C   0  0  1  0  0  0  0  0  0  0  0  0
  -27.2383  -31.7993   24.0906 C   0  0  2  0  0  0  0  0  0  0  0  0
  -28.9447  -26.6509   15.9579 C   0  0  0  0  0  0  0  0  0  1  0  0
  -22.9381  -31.5700   22.0241 C   0  0  0  0  0  0  0  0  0  0  0  0
  -25.8647  -16.9131   20.8529 N   0  0  0  0  0  0  0  0  0  0  0  0
  -29.7081  -24.7467   17.2992 N   0  0  0  0  0  0  0  0  0  0  0  0
  -25.7770  -18.0658   21.5383 N   0  0  0  0  0  0  0  0  0  0  0  0
  -24.3322  -28.3420   21.3156 N   0  0  0  0  0  0  0  0  0  0  0  0
  -27.5744  -20.4330   19.1394 N   0  0  0  0  0  0  0  0  0  0  0  0
  -25.2088  -18.9668   23.6539 N   0  0  0  0  0  0  0  0  0  0  0  0
  -24.5390  -14.5336   24.1957 N   0  0  0  0  0  0  0  0  0  0  0  0
  -21.7368  -25.9188   20.9653 N   0  0  0  0  0  0  0  0  0  0  0  0
  -25.1631  -31.0793   23.1252 N   0  0  0  0  0  0  0  0  0  0  0  0
  -29.1018  -22.1323   18.5253 N   0  0  0  0  0  0  0  0  0  0  0  0
  -28.6680  -31.4031   23.9494 N   0  3  0  0  0  0  0  0  0  0  0  0
  -24.4220  -16.5749   25.2339 O   0  0  0  0  0  0  0  0  0  0  0  0
  -22.5707  -27.5349   19.5108 O   0  0  0  0  0  0  0  0  0  0  0  0
  -23.3202  -28.8963   23.3417 O   0  0  0  0  0  0  0  0  0  0  0  0
  -26.9612  -31.4678   21.7135 O   0  0  0  0  0  0  0  0  0  0  0  0
  -29.8028  -20.3431   19.7752 O   0  0  0  0  0  0  0  0  0  0  0  0
  -25.3196  -10.5894   20.3396 O   0  0  0  0  0  0  0  0  0  0  0  0
  -27.7988  -27.4316   16.2950 O   0  0  0  0  0  0  0  0  0  1  0  0
  -20.8772   -7.6831   21.8301 F   0  0  0  0  0  0  0  0  0  0  0  0
  -24.6290  -10.3201   23.0028 F   0  0  0  0  0  0  0  0  0  0  0  0
  1  2  1  0  0  0  0
  1  5  2  0  0  0  0
  2  6  2  0  0  0  0
  3  9  2  0  0  0  0
  3 17  1  0  0  0  0
  4 10  1  0  0  0  0
  4 17  2  0  0  0  0
  5 19  1  0  0  0  0
  6 21  1  0  0  0  0
  7 11  2  0  0  0  0
  7 20  1  0  0  0  0
  8 14  2  0  0  0  0
  8 22  1  0  0  0  0
  9 24  1  0  0  0  0
 10 24  2  0  0  0  0
 11 25  1  0  0  0  0
 12 13  2  0  0  0  0
 12 26  1  0  0  0  0
 13 27  1  0  0  0  0
 14 30  1  0  0  0  0
 15 23  1  0  0  0  0
 15 25  2  0  0  0  0
 16 27  2  0  0  0  0
 16 28  1  0  0  0  0
 17 29  1  0  0  0  0
 18 29  1  0  0  0  0
 18 32  2  0  0  0  0
 18 33  1  0  0  0  0
 19 21  2  0  0  0  0
 19 38  1  0  0  0  0
 20 23  2  0  0  0  0
 20 39  1  0  0  0  0
 21 50  1  0  0  0  0
 22 31  2  0  0  0  0
 22 49  1  0  0  0  0
 23 40  1  0  0  0  0
 24 82  1  0  0  0  0
 25 83  1  0  0  0  0
 26 28  2  0  0  0  0
 26 82  1  0  0  0  0
 27 84  1  0  0  0  0
 28 85  1  0  0  0  0
 29 66  2  0  0  0  0
 30 64  1  0  0  0  0
 30 67  2  0  0  0  0
 31 61  1  0  0  0  0
 31 67  1  0  0  0  0
 32 68  1  0  0  0  0
 32 71  1  0  0  0  0
 33 72  1  0  0  0  0
 33 77  2  0  0  0  0
 34 51  1  0  0  0  0
 34 73  1  0  0  0  0
 34 78  2  0  0  0  0
 35 62  1  0  0  0  0
 35 69  1  0  0  0  0
 35 79  2  0  0  0  0
 36 63  1  0  0  0  0
 36 74  1  0  0  0  0
 36 80  2  0  0  0  0
 37 70  1  0  0  0  0
 37 75  1  0  0  0  0
 37 81  2  0  0  0  0
 38 41  1  0  0  0  0
 39 51  1  0  0  0  0
 40 69  1  0  0  0  0
 41 45  1  0  0  0  0
 42 46  1  0  0  0  0
 42 47  1  0  0  0  0
 43 44  1  0  0  0  0
 43 49  1  0  0  0  0
 44 49  1  0  0  0  0
 45 50  1  0  0  0  0
 46 52  1  0  0  0  0
 47 70  1  0  0  0  0
 48 52  1  0  0  0  0
 48 70  1  0  0  0  0
 50 73  1  0  0  0  0
 51 69  1  0  0  0  0
 52 68  1  0  0  0  0
 53 61  1  0  0  0  0
 54 63  1  0  0  0  0
 55 64  1  0  0  0  0
 56 64  1  0  0  0  0
 57 65  1  0  0  0  0
 58 65  1  0  0  0  0
 59 65  1  0  0  0  0
 60 76  1  0  0  0  0
 61 75  1  0  0  0  0
 62 65  1  0  0  0  0
 62 74  1  0  0  0  0
 63 76  1  0  0  0  0
 64 83  1  0  0  0  0
 66 68  1  0  0  0  0
M  CHG  1  76   1
M  ISO  4  37 100  64 101  75 100  83 101
M  END
> <Batch ID>
0116

> <Smiles>
CNC(C)C(=O)NC(C(=O)N1Cc2cc([101O:1][101C:1](C)(C)c3ccc(C4CC4)c(C(C)[100NH:0][100C:0](=O)N4CCCC(n5nc(-c6ccc(Oc7ccc(F)cc7F)cc6)c(C(N)=O)c5N)C4)n3)ccc2CC1C(=O)NC1CCCc2ccccc21)C(C)(C)C

> <Shape>
0.250

> <Color>
0.071

> <Negative vol penalty>
0.000

$$$$

  -OEChem-04052320133D

 87 96  0     1  0  0  0  0  0999 V2000
  -24.1311  -36.3337   25.1759 C   0  0  0  0  0  0  0  0  0  0  0  0
  -24.9764  -36.0895   24.0982 C   0  0  0  0  0  0  0  0  0  0  0  0
  -27.1823  -12.4211   21.5809 C   0  0  0  0  0  0  0  0  0  0  0  0
  -26.4894  -13.8742   19.7793 C   0  0  0  0  0  0  0  0  0  0  0  0
  -23.9303  -35.3472   26.1404 C   0  0  0  0  0  0  0  0  0  0  0  0
  -25.6222  -34.8588   23.9850 C   0  0  0  0  0  0  0  0  0  0  0  0
  -27.9559  -30.2110   19.0588 C   0  0  0  0  0  0  0  0  0  0  0  0
  -26.3523  -11.4142   21.0880 C   0  0  0  0  0  0  0  0  0  0  0  0
  -25.6595  -12.8672   19.2864 C   0  0  0  0  0  0  0  0  0  0  0  0
  -29.1069  -29.5123   18.6970 C   0  0  0  0  0  0  0  0  0  0  0  0
  -23.0597  -10.6523   21.1408 C   0  0  0  0  0  0  0  0  0  0  0  0
  -22.2684   -9.9594   22.0569 C   0  0  0  0  0  0  0  0  0  0  0  0
  -28.6226  -27.8545   20.3811 C   0  0  0  0  0  0  0  0  0  0  0  0
  -29.7401  -24.9351   16.6899 C   0  0  0  0  0  0  0  0  0  0  0  0
  -23.3492   -7.8925   21.4270 C   0  0  0  0  0  0  0  0  0  0  0  0
  -27.2508  -13.6511   20.9266 C   0  0  0  0  0  0  0  0  0  0  0  0
  -29.4557  -14.9219   21.1024 C   0  0  0  0  0  0  0  0  0  0  0  0
  -24.5665  -34.1003   26.0338 C   0  0  0  0  0  0  0  0  0  0  0  0
  -27.1341  -29.7416   20.0936 C   0  0  0  0  0  0  0  0  0  0  0  0
  -25.4307  -33.8551   24.9497 C   0  0  0  0  0  0  0  0  0  0  0  0
  -27.4604  -28.5477   20.7524 C   0  0  0  0  0  0  0  0  0  0  0  0
  -30.9336  -25.2274   17.3949 C   0  0  0  0  0  0  0  0  0  0  0  0
  -25.5910  -11.6372   19.9407 C   0  0  0  0  0  0  0  0  0  0  0  0
  -29.4420  -28.3354   19.3601 C   0  0  0  0  0  0  0  0  0  0  0  0
  -23.9958   -9.9654   20.3678 C   0  0  0  0  0  0  0  0  0  0  0  0
  -22.4131   -8.5795   22.2000 C   0  0  0  0  0  0  0  0  0  0  0  0
  -24.1405   -8.5854   20.5109 C   0  0  0  0  0  0  0  0  0  0  0  0
  -28.1075  -14.6918   21.4356 C   0  0  0  0  0  0  0  0  0  0  0  0
  -29.3043  -23.6990   17.1136 C   0  0  0  0  0  0  0  0  0  0  0  0
  -31.1911  -24.1609   18.2278 C   0  0  0  0  0  0  0  0  0  0  0  0
  -29.8116  -16.0185   21.8489 C   0  0  0  0  0  0  0  0  0  0  0  0
  -30.3101  -14.2082   20.1988 C   0  0  0  0  0  0  0  0  0  0  0  0
  -26.2249  -30.8695   22.9229 C   0  0  0  0  0  0  0  0  0  0  0  0
  -24.3294  -28.2371   22.9269 C   0  0  0  0  0  0  0  0  0  0  0  0
  -23.7579  -25.0767   21.7729 C   0  0  0  0  0  0  0  0  0  0  0  0
  -27.8121  -20.9372   23.8401 C   0  0  0  0  0  0  0  0  0  0  0  0
  -24.3555  -33.0820   27.1262 C   0  0  0  0  0  0  0  0  0  0  0  0
  -25.8817  -30.4927   20.4538 C   0  0  0  0  0  0  0  0  0  0  0  0
  -26.6007  -27.9906   21.8565 C   0  0  0  0  0  0  0  0  0  0  0  0
  -24.7844  -31.6704   26.7341 C   0  0  0  0  0  0  0  0  0  0  0  0
  -28.0658  -18.1904   25.9245 C   0  0  0  0  0  0  0  0  0  0  0  0
  -26.1568  -31.6949   26.0687 C   0  0  0  0  0  0  0  0  0  0  0  0
  -28.2387  -17.0175   24.9597 C   0  0  0  0  0  0  0  0  0  0  0  0
  -29.6007  -22.6855   21.1068 C   0  0  0  0  0  0  0  0  0  0  0  0
  -28.5614  -20.5815   20.1891 C   0  0  0  0  0  0  0  0  0  0  0  0
  -27.0313  -19.1801   25.4009 C   0  0  0  0  0  0  0  0  0  0  0  0
  -28.5963  -22.6585   22.2555 C   0  0  0  0  0  0  0  0  0  0  0  0
  -27.5737  -20.5972   21.3511 C   0  0  0  0  0  0  0  0  0  0  0  0
  -27.5116  -18.5441   23.0599 C   0  0  0  0  0  0  0  0  0  0  0  0
  -26.1298  -32.5239   24.7789 C   0  0  1  0  0  0  0  0  0  0  0  0
  -25.3930  -30.1960   21.8683 C   0  0  1  0  0  0  0  0  0  0  0  0
  -29.0467  -21.9979   19.8521 C   0  0  0  0  0  0  0  0  0  0  0  0
  -28.5547  -17.5139   23.5375 C   0  0  2  0  0  0  0  0  0  0  0  0
  -28.1154  -22.9232   16.7045 C   0  0  0  0  0  0  0  0  0  0  0  0
  -32.3011  -23.9418   19.1795 C   0  0  0  0  0  0  0  0  0  0  0  0
  -32.3272  -26.6236   15.8328 C   0  0  0  0  0  0  0  0  0  0  0  0
  -22.1481  -23.1632   21.9847 C   0  0  0  0  0  0  0  0  0  0  0  0
  -25.5322  -27.5287   25.6401 C   0  0  0  0  0  0  0  0  0  0  0  0
  -24.6341  -25.2092   25.3546 C   0  0  0  0  0  0  0  0  0  0  0  0
  -23.0671  -27.1473   25.4602 C   0  0  0  0  0  0  0  0  0  0  0  0
  -23.0614  -25.1928   18.8988 C   0  0  0  0  0  0  0  0  0  0  0  0
  -30.0952  -21.9634   18.7428 C   0  0  0  0  0  0  0  0  0  0  0  0
  -30.9847  -27.7470   17.6485 C   0  0  0  0  0  0  0  0  0  1  0  0
  -31.7460  -26.4526   17.2569 C   0  0  1  0  0  0  0  0  0  0  0  0
  -24.4833  -26.8096   23.3932 C   0  0  1  0  0  0  0  0  0  0  0  0
  -22.5105  -24.4203   21.2093 C   0  0  2  0  0  0  0  0  0  0  0  0
  -24.4466  -26.6849   24.9425 C   0  0  0  0  0  0  0  0  0  0  0  0
  -27.6387  -15.5715   22.3247 N   0  0  0  0  0  0  0  0  0  0  0  0
  -30.1943  -23.2377   18.0482 N   0  0  0  0  0  0  0  0  0  0  0  0
  -28.6983  -16.3649   22.5566 N   0  0  0  0  0  0  0  0  0  0  0  0
  -25.3898  -28.7645   22.1766 N   0  0  0  0  0  0  0  0  0  0  0  0
  -27.3643  -19.6238   24.0474 N   0  0  0  0  0  0  0  0  0  0  0  0
  -28.1207  -21.3010   22.5188 N   0  0  0  0  0  0  0  0  0  0  0  0
  -30.9651  -16.7105   21.9625 N   0  0  0  0  0  0  0  0  0  0  0  0
  -29.7840  -13.1052   19.5125 N   0  0  0  0  0  0  0  0  0  0  0  0
  -25.5233  -31.7674   23.7045 N   0  0  0  0  0  0  0  0  0  0  0  0
  -23.4491  -26.0424   22.7074 N   0  0  0  0  0  0  0  0  0  0  0  0
  -22.7211  -24.0476   19.7819 N   0  3  0  0  0  0  0  0  0  0  0  0
  -31.5093  -14.5288   20.0181 O   0  0  0  0  0  0  0  0  0  0  0  0
  -27.4148  -30.5937   23.0212 O   0  0  0  0  0  0  0  0  0  0  0  0
  -23.3028  -28.8589   23.2117 O   0  0  0  0  0  0  0  0  0  0  0  0
  -24.8929  -24.7614   21.4222 O   0  0  0  0  0  0  0  0  0  0  0  0
  -27.9341  -21.7365   24.7766 O   0  0  0  0  0  0  0  0  0  0  0  0
  -24.7812  -10.6549   19.4593 O   0  0  0  0  0  0  0  0  0  0  0  0
  -30.5726  -27.6474   19.0071 O   0  0  0  0  0  0  0  0  0  1  0  0
  -21.6542   -7.9144   23.0809 F   0  0  0  0  0  0  0  0  0  0  0  0
  -25.0389   -7.9202   19.7718 F   0  0  0  0  0  0  0  0  0  0  0  0
  1  2  1  0  0  0  0
  1  5  2  0  0  0  0
  2  6  2  0  0  0  0
  3  8  2  0  0  0  0
  3 16  1  0  0  0  0
  4  9  1  0  0  0  0
  4 16  2  0  0  0  0
  5 18  1  0  0  0  0
  6 20  1  0  0  0  0
  7 10  2  0  0  0  0
  7 19  1  0  0  0  0
  8 23  1  0  0  0  0
  9 23  2  0  0  0  0
 10 24  1  0  0  0  0
 11 12  2  0  0  0  0
 11 25  1  0  0  0  0
 12 26  1  0  0  0  0
 13 21  1  0  0  0  0
 13 24  2  0  0  0  0
 14 22  1  0  0  0  0
 14 29  2  0  0  0  0
 15 26  2  0  0  0  0
 15 27  1  0  0  0  0
 16 28  1  0  0  0  0
 17 28  1  0  0  0  0
 17 31  2  0  0  0  0
 17 32  1  0  0  0  0
 18 20  2  0  0  0  0
 18 37  1  0  0  0  0
 19 21  2  0  0  0  0
 19 38  1  0  0  0  0
 20 50  1  0  0  0  0
 21 39  1  0  0  0  0
 22 30  2  0  0  0  0
 22 64  1  0  0  0  0
 23 84  1  0  0  0  0
 24 85  1  0  0  0  0
 25 27  2  0  0  0  0
 25 84  1  0  0  0  0
 26 86  1  0  0  0  0
 27 87  1  0  0  0  0
 28 68  2  0  0  0  0
 29 54  1  0  0  0  0
 29 69  1  0  0  0  0
 30 55  1  0  0  0  0
 30 69  1  0  0  0  0
 31 70  1  0  0  0  0
 31 74  1  0  0  0  0
 32 75  1  0  0  0  0
 32 79  2  0  0  0  0
 33 51  1  0  0  0  0
 33 76  1  0  0  0  0
 33 80  2  0  0  0  0
 34 65  1  0  0  0  0
 34 71  1  0  0  0  0
 34 81  2  0  0  0  0
 35 66  1  0  0  0  0
 35 77  1  0  0  0  0
 35 82  2  0  0  0  0
 36 72  1  0  0  0  0
 36 73  1  0  0  0  0
 36 83  2  0  0  0  0
 37 40  1  0  0  0  0
 38 51  1  0  0  0  0
 39 71  1  0  0  0  0
 40 42  1  0  0  0  0
 41 43  1  0  0  0  0
 41 46  1  0  0  0  0
 42 50  1  0  0  0  0
 43 53  1  0  0  0  0
 44 47  1  0  0  0  0
 44 52  1  0  0  0  0
 45 48  1  0  0  0  0
 45 52  1  0  0  0  0
 46 72  1  0  0  0  0
 47 73  1  0  0  0  0
 48 73  1  0  0  0  0
 49 53  1  0  0  0  0
 49 72  1  0  0  0  0
 50 76  1  0  0  0  0
 51 71  1  0  0  0  0
 52 62  1  0  0  0  0
 53 70  1  0  0  0  0
 56 64  1  0  0  0  0
 57 66  1  0  0  0  0
 58 67  1  0  0  0  0
 59 67  1  0  0  0  0
 60 67  1  0  0  0  0
 61 78  1  0  0  0  0
 62 69  1  0  0  0  0
 63 64  1  0  0  0  0
 63 85  1  0  0  0  0
 65 67  1  0  0  0  0
 65 77  1  0  0  0  0
 66 78  1  0  0  0  0
 68 70  1  0  0  0  0
M  CHG  1  78   1
M  ISO  4  36 100  63 101  73 100  85 101
M  END
> <Batch ID>
0116

> <Smiles>
CNC(C)C(=O)NC(C(=O)N1Cc2cc([101O:1][101CH2:1]C(C)c3cc(C)n(CC4CC[100N:0]([100C:0](=O)N5CCCC(n6nc(-c7ccc(Oc8ccc(F)cc8F)cc7)c(C(N)=O)c6N)C5)CC4)c3C)ccc2CC1C(=O)NC1CCCc2ccccc21)C(C)(C)C

> <Shape>
0.279

> <Color>
0.064

> <Negative vol penalty>
0.000

$$$$

  -OEChem-04052320133D

 87 95  0     1  0  0  0  0  0999 V2000
  -17.3131  -28.1128   19.4058 C   0  0  0  0  0  0  0  0  0  0  0  0
  -18.6491  -28.1054   19.0177 C   0  0  0  0  0  0  0  0  0  0  0  0
  -25.8979  -13.4007   20.8702 C   0  0  0  0  0  0  0  0  0  0  0  0
  -26.9552  -12.7542   18.7962 C   0  0  0  0  0  0  0  0  0  0  0  0
  -16.9819  -28.1475   20.7597 C   0  0  0  0  0  0  0  0  0  0  0  0
  -19.6546  -28.1338   19.9834 C   0  0  0  0  0  0  0  0  0  0  0  0
  -25.1101  -25.3655   19.7002 C   0  0  0  0  0  0  0  0  0  0  0  0
  -24.8789  -12.4768   20.6387 C   0  0  0  0  0  0  0  0  0  0  0  0
  -25.9362  -11.8303   18.5647 C   0  0  0  0  0  0  0  0  0  0  0  0
  -26.3797  -25.8277   19.3565 C   0  0  0  0  0  0  0  0  0  0  0  0
  -24.4306   -9.1379   20.9289 C   0  0  0  0  0  0  0  0  0  0  0  0
  -24.0341   -8.3297   21.9943 C   0  0  0  0  0  0  0  0  0  0  0  0
  -26.8794  -26.1728   21.6911 C   0  0  0  0  0  0  0  0  0  0  0  0
  -21.7945   -9.2222   21.8380 C   0  0  0  0  0  0  0  0  0  0  0  0
  -26.9360  -13.5395   19.9489 C   0  0  0  0  0  0  0  0  0  0  0  0
  -29.1982  -14.2725   20.8726 C   0  0  0  0  0  0  0  0  0  0  0  0
  -17.9839  -28.1665   21.7427 C   0  0  0  0  0  0  0  0  0  0  0  0
  -24.7110  -25.3137   21.0435 C   0  0  0  0  0  0  0  0  0  0  0  0
  -19.3365  -28.1701   21.3517 C   0  0  0  0  0  0  0  0  0  0  0  0
  -25.6051  -25.7071   22.0494 C   0  0  0  0  0  0  0  0  0  0  0  0
  -24.8980  -11.6915   19.4860 C   0  0  0  0  0  0  0  0  0  0  0  0
  -27.2636  -26.2342   20.3518 C   0  0  0  0  0  0  0  0  0  0  0  0
  -23.5090   -9.9884   20.3181 C   0  0  0  0  0  0  0  0  0  0  0  0
  -22.7161   -8.3717   22.4488 C   0  0  0  0  0  0  0  0  0  0  0  0
  -22.1910  -10.0305   20.7726 C   0  0  0  0  0  0  0  0  0  0  0  0
  -27.9887  -14.4941   20.1871 C   0  0  0  0  0  0  0  0  0  0  0  0
  -29.8465  -15.4824   20.8250 C   0  0  0  0  0  0  0  0  0  0  0  0
  -29.6916  -13.0796   21.4964 C   0  0  0  0  0  0  0  0  0  0  0  0
  -22.4200  -26.6980   22.7578 C   0  0  0  0  0  0  0  0  0  0  0  0
  -23.5013  -24.7137   25.0851 C   0  0  0  0  0  0  0  0  0  0  0  0
  -26.0695  -22.8501   26.3412 C   0  0  0  0  0  0  0  0  0  0  0  0
  -29.5240  -19.9699   17.0021 C   0  0  0  0  0  0  0  0  0  0  0  0
  -17.5770  -28.2516   23.1925 C   0  0  0  0  0  0  0  0  0  0  0  0
  -23.3476  -24.7874   21.3994 C   0  0  0  0  0  0  0  0  0  0  0  0
  -25.2325  -25.6518   23.5076 C   0  0  0  0  0  0  0  0  0  0  0  0
  -18.7025  -27.9016   24.1625 C   0  0  0  0  0  0  0  0  0  0  0  0
  -34.6064  -21.0860   17.6093 C   0  0  0  0  0  0  0  0  0  0  0  0
  -33.4804  -21.4592   18.5684 C   0  0  0  0  0  0  0  0  0  0  0  0
  -34.8355  -22.1724   16.5631 C   0  0  0  0  0  0  0  0  0  0  0  0
  -28.9870  -20.1841   20.5747 C   0  0  0  0  0  0  0  0  0  0  0  0
  -19.9913  -28.6138   23.7642 C   0  0  0  0  0  0  0  0  0  0  0  0
  -32.1925  -21.7971   17.8209 C   0  0  0  0  0  0  0  0  0  0  0  0
  -33.5498  -22.5116   15.8123 C   0  0  0  0  0  0  0  0  0  0  0  0
  -28.7846  -18.7126   20.9406 C   0  0  0  0  0  0  0  0  0  0  0  0
  -28.3561  -20.5098   19.2241 C   0  0  0  0  0  0  0  0  0  0  0  0
  -28.6269  -18.1810   18.4642 C   0  0  0  0  0  0  0  0  0  0  0  0
  -20.4558  -28.1752   22.3701 C   0  0  1  0  0  0  0  0  0  0  0  0
  -22.8619  -25.2619   22.7655 C   0  0  1  0  0  0  0  0  0  0  0  0
  -32.4170  -22.8961   16.7736 C   0  0  0  0  0  0  0  0  0  0  0  0
  -29.2618  -17.7831   19.8091 C   0  0  2  0  0  0  0  0  0  0  0  0
  -26.6658  -21.3698   28.2778 C   0  0  0  0  0  0  0  0  0  0  0  0
  -31.0875  -26.3104   15.8489 C   0  0  0  0  0  0  0  0  0  0  0  0
  -30.5899  -25.5296   20.1733 C   0  0  0  0  0  0  0  0  0  0  0  0
  -23.7967  -27.1712   26.8693 C   0  0  0  0  0  0  0  0  0  0  0  0
  -25.2475  -25.8081   28.3878 C   0  0  0  0  0  0  0  0  0  0  0  0
  -22.8689  -25.1530   28.0186 C   0  0  0  0  0  0  0  0  0  0  0  0
  -26.5575  -20.5312   24.5682 C   0  0  0  0  0  0  0  0  0  0  0  0
  -30.2000  -24.1239   16.8170 C   0  0  0  0  0  0  0  0  0  0  0  0
  -29.7423  -26.3873   17.9586 C   0  0  0  0  0  0  0  0  0  0  0  0
  -29.3308  -22.0357   14.5293 C   0  0  0  0  0  0  0  0  0  0  0  0
  -24.5524  -24.8050   26.1647 C   0  0  1  0  0  0  0  0  0  0  0  0
  -26.1199  -21.4242   26.8595 C   0  0  2  0  0  0  0  0  0  0  0  0
  -31.1284  -23.1785   16.0033 C   0  0  2  0  0  0  0  0  0  0  0  0
  -30.7409  -25.5382   17.1284 C   0  0  2  0  0  0  0  0  0  0  0  0
  -30.3701  -21.8662   15.6437 C   0  0  1  0  0  0  0  0  0  0  0  0
  -29.3555  -25.7818   19.3149 C   0  0  2  0  0  0  0  0  0  1  0  0
  -24.1230  -25.7373   27.3326 C   0  0  0  0  0  0  0  0  0  0  0  0
  -27.8729  -15.7464   19.7373 N   0  0  0  0  0  0  0  0  0  0  0  0
  -29.0180  -16.3225   20.1409 N   0  0  0  0  0  0  0  0  0  0  0  0
  -23.8860  -25.1358   23.8046 N   0  0  0  0  0  0  0  0  0  0  0  0
  -28.8664  -19.6014   18.1875 N   0  0  0  0  0  0  0  0  0  0  0  0
  -31.0386  -15.8990   21.3020 N   0  0  0  0  0  0  0  0  0  0  0  0
  -28.8979  -11.9253   21.4525 N   0  0  0  0  0  0  0  0  0  0  0  0
  -21.0884  -26.8751   22.4340 N   0  0  0  0  0  0  0  0  0  0  0  0
  -24.8414  -23.4337   26.5701 N   0  0  0  0  0  0  0  0  0  0  0  0
  -29.7051  -21.3344   16.8125 N   0  0  0  0  0  0  0  0  0  0  0  0
  -26.9916  -20.5867   25.9879 N   0  3  0  0  0  0  0  0  0  0  0  0
  -30.7961  -13.0429   22.0899 O   0  0  0  0  0  0  0  0  0  0  0  0
  -23.2271  -27.5799   23.0272 O   0  0  0  0  0  0  0  0  0  0  0  0
  -22.3823  -24.2770   25.3659 O   0  0  0  0  0  0  0  0  0  0  0  0
  -27.0254  -23.3933   25.7918 O   0  0  0  0  0  0  0  0  0  0  0  0
  -29.9254  -19.1433   16.1758 O   0  0  0  0  0  0  0  0  0  0  0  0
  -29.0429  -20.7769   13.9251 O   0  0  0  0  0  0  0  0  0  0  0  0
  -23.9040  -10.7897   19.2600 O   0  0  0  0  0  0  0  0  0  0  0  0
  -28.5108  -26.6891   20.0171 O   0  0  0  0  0  0  0  0  0  1  0  0
  -22.3351   -7.5944   23.4709 F   0  0  0  0  0  0  0  0  0  0  0  0
  -21.3008  -10.8447   20.1890 F   0  0  0  0  0  0  0  0  0  0  0  0
  1  2  1  0  0  0  0
  1  5  2  0  0  0  0
  2  6  2  0  0  0  0
  3  8  2  0  0  0  0
  3 15  1  0  0  0  0
  4  9  1  0  0  0  0
  4 15  2  0  0  0  0
  5 17  1  0  0  0  0
  6 19  1  0  0  0  0
  7 10  2  0  0  0  0
  7 18  1  0  0  0  0
  8 21  1  0  0  0  0
  9 21  2  0  0  0  0
 10 22  1  0  0  0  0
 11 12  2  0  0  0  0
 11 23  1  0  0  0  0
 12 24  1  0  0  0  0
 13 20  1  0  0  0  0
 13 22  2  0  0  0  0
 14 24  2  0  0  0  0
 14 25  1  0  0  0  0
 15 26  1  0  0  0  0
 16 26  1  0  0  0  0
 16 27  2  0  0  0  0
 16 28  1  0  0  0  0
 17 19  2  0  0  0  0
 17 33  1  0  0  0  0
 18 20  2  0  0  0  0
 18 34  1  0  0  0  0
 19 47  1  0  0  0  0
 20 35  1  0  0  0  0
 21 84  1  0  0  0  0
 22 85  1  0  0  0  0
 23 25  2  0  0  0  0
 23 84  1  0  0  0  0
 24 86  1  0  0  0  0
 25 87  1  0  0  0  0
 26 68  2  0  0  0  0
 27 69  1  0  0  0  0
 27 72  1  0  0  0  0
 28 73  1  0  0  0  0
 28 78  2  0  0  0  0
 29 48  1  0  0  0  0
 29 74  1  0  0  0  0
 29 79  2  0  0  0  0
 30 61  1  0  0  0  0
 30 70  1  0  0  0  0
 30 80  2  0  0  0  0
 31 62  1  0  0  0  0
 31 75  1  0  0  0  0
 31 81  2  0  0  0  0
 32 71  1  0  0  0  0
 32 76  1  0  0  0  0
 32 82  2  0  0  0  0
 33 36  1  0  0  0  0
 34 48  1  0  0  0  0
 35 70  1  0  0  0  0
 36 41  1  0  0  0  0
 37 38  1  0  0  0  0
 37 39  1  0  0  0  0
 38 42  1  0  0  0  0
 39 43  1  0  0  0  0
 40 44  1  0  0  0  0
 40 45  1  0  0  0  0
 41 47  1  0  0  0  0
 42 49  1  0  0  0  0
 43 49  1  0  0  0  0
 44 50  1  0  0  0  0
 45 71  1  0  0  0  0
 46 50  1  0  0  0  0
 46 71  1  0  0  0  0
 47 74  1  0  0  0  0
 48 70  1  0  0  0  0
 49 63  1  0  0  0  0
 50 69  1  0  0  0  0
 51 62  1  0  0  0  0
 52 64  1  0  0  0  0
 53 66  1  0  0  0  0
 54 67  1  0  0  0  0
 55 67  1  0  0  0  0
 56 67  1  0  0  0  0
 57 77  1  0  0  0  0
 58 63  1  0  0  0  0
 58 64  1  0  0  0  0
 59 64  1  0  0  0  0
 59 66  1  0  0  0  0
 60 65  1  0  0  0  0
 60 83  1  0  0  0  0
 61 67  1  0  0  0  0
 61 75  1  0  0  0  0
 62 77  1  0  0  0  0
 63 65  1  0  0  0  0
 65 76  1  0  0  0  0
 66 85  1  0  0  0  0
 68 69  1  0  0  0  0
M  CHG  1  77   1
M  ISO  4  32 100  66 101  76 100  85 101
M  END
> <Batch ID>
0116

> <Smiles>
CNC(C)C(=O)NC(C(=O)N1Cc2cc([101O:1][101CH:1](C)CC(C)CC(C3CCCCC3)C(CO)[100NH:0][100C:0](=O)N3CCCC(n4nc(-c5ccc(Oc6ccc(F)cc6F)cc5)c(C(N)=O)c4N)C3)ccc2CC1C(=O)NC1CCCc2ccccc21)C(C)(C)C

> <Shape>
0.224

> <Color>
0.056

> <Negative vol penalty>
0.000

$$$$

  -OEChem-04052320133D

 82 90  0     1  0  0  0  0  0999 V2000
  -29.6396  -36.5234   21.3032 C   0  0  0  0  0  0  0  0  0  0  0  0
  -29.6923  -35.2585   20.7263 C   0  0  0  0  0  0  0  0  0  0  0  0
  -26.5259  -13.0511   21.5305 C   0  0  0  0  0  0  0  0  0  0  0  0
  -26.2610  -13.7880   19.2449 C   0  0  0  0  0  0  0  0  0  0  0  0
  -29.0207  -36.6989   22.5401 C   0  0  0  0  0  0  0  0  0  0  0  0
  -29.1270  -34.1682   21.3866 C   0  0  0  0  0  0  0  0  0  0  0  0
  -26.3378  -29.3550   18.8255 C   0  0  0  0  0  0  0  0  0  0  0  0
  -25.2317  -12.5312   21.5129 C   0  0  0  0  0  0  0  0  0  0  0  0
  -24.9667  -13.2680   19.2273 C   0  0  0  0  0  0  0  0  0  0  0  0
  -26.7775  -28.0665   18.5252 C   0  0  0  0  0  0  0  0  0  0  0  0
  -23.6705   -9.7744   20.3315 C   0  0  0  0  0  0  0  0  0  0  0  0
  -23.4765   -8.5002   20.8647 C   0  0  0  0  0  0  0  0  0  0  0  0
  -25.8454  -27.2707   20.6029 C   0  0  0  0  0  0  0  0  0  0  0  0
  -27.8928  -21.9262   17.4685 C   0  0  0  0  0  0  0  0  0  0  0  0
  -21.9336   -9.4130   22.4845 C   0  0  0  0  0  0  0  0  0  0  0  0
  -29.2871  -23.6212   17.9714 C   0  0  0  0  0  0  0  0  0  0  0  0
  -27.0405  -13.6795   20.3965 C   0  0  0  0  0  0  0  0  0  0  0  0
  -29.5662  -13.5512   20.0614 C   0  0  0  0  0  0  0  0  0  0  0  0
  -28.4390  -35.6119   23.2114 C   0  0  0  0  0  0  0  0  0  0  0  0
  -25.6569  -29.6135   20.0238 C   0  0  0  0  0  0  0  0  0  0  0  0
  -28.5008  -34.3292   22.6343 C   0  0  0  0  0  0  0  0  0  0  0  0
  -25.3958  -28.5628   20.9149 C   0  0  0  0  0  0  0  0  0  0  0  0
  -29.2334  -22.2575   17.7851 C   0  0  0  0  0  0  0  0  0  0  0  0
  -24.4521  -12.6396   20.3613 C   0  0  0  0  0  0  0  0  0  0  0  0
  -26.5339  -27.0247   19.4153 C   0  0  0  0  0  0  0  0  0  0  0  0
  -22.9962  -10.8679   20.8748 C   0  0  0  0  0  0  0  0  0  0  0  0
  -22.6081   -8.3195   21.9412 C   0  0  0  0  0  0  0  0  0  0  0  0
  -22.1277  -10.6872   21.9512 C   0  0  0  0  0  0  0  0  0  0  0  0
  -28.3772  -14.2173   20.4142 C   0  0  0  0  0  0  0  0  0  0  0  0
  -27.1682  -23.0976   17.4707 C   0  0  0  0  0  0  0  0  0  0  0  0
  -30.5530  -14.4882   20.2482 C   0  0  0  0  0  0  0  0  0  0  0  0
  -29.7612  -12.2059   19.6055 C   0  0  0  0  0  0  0  0  0  0  0  0
  -26.2141  -31.4274   22.5739 C   0  0  0  0  0  0  0  0  0  0  0  0
  -23.2286  -30.4792   23.4167 C   0  0  0  0  0  0  0  0  0  0  0  0
  -20.7345  -28.1672   23.1317 C   0  0  0  0  0  0  0  0  0  0  0  0
  -30.5479  -20.4757   20.2235 C   0  0  0  0  0  0  0  0  0  0  0  0
  -27.8226  -35.8424   24.5685 C   0  0  0  0  0  0  0  0  0  0  0  0
  -25.1657  -31.0038   20.3206 C   0  0  0  0  0  0  0  0  0  0  0  0
  -24.6513  -28.7839   22.2053 C   0  0  0  0  0  0  0  0  0  0  0  0
  -26.9183  -34.7018   25.0284 C   0  0  0  0  0  0  0  0  0  0  0  0
  -31.6040  -18.3467   22.8746 C   0  0  0  0  0  0  0  0  0  0  0  0
  -27.5981  -33.3557   24.7984 C   0  0  0  0  0  0  0  0  0  0  0  0
  -31.0041  -16.9868   22.5128 C   0  0  0  0  0  0  0  0  0  0  0  0
  -30.6709  -19.4943   22.4947 C   0  0  0  0  0  0  0  0  0  0  0  0
  -29.6266  -18.1316   20.7265 C   0  0  0  0  0  0  0  0  0  0  0  0
  -27.8772  -33.1262   23.3082 C   0  0  1  0  0  0  0  0  0  0  0  0
  -24.9335  -31.2507   21.8081 C   0  0  1  0  0  0  0  0  0  0  0  0
  -30.5554  -16.9460   21.0397 C   0  0  2  0  0  0  0  0  0  0  0  0
  -18.4278  -27.6445   23.9701 C   0  0  0  0  0  0  0  0  0  0  0  0
  -24.4062  -29.5639   26.0786 C   0  0  0  0  0  0  0  0  0  0  0  0
  -22.3234  -28.2283   26.4612 C   0  0  0  0  0  0  0  0  0  0  0  0
  -22.1911  -30.7110   26.2571 C   0  0  0  0  0  0  0  0  0  0  0  0
  -19.5899  -28.2902   20.4052 C   0  0  0  0  0  0  0  0  0  0  0  0
  -30.3642  -21.3164   17.8957 C   0  0  0  0  0  0  0  0  0  0  0  0
  -27.6581  -25.5771   17.8893 C   0  0  0  0  0  0  0  0  0  1  0  0
  -22.6551  -29.3210   24.1969 C   0  0  1  0  0  0  0  0  0  0  0  0
  -19.2453  -28.3180   22.8789 C   0  0  2  0  0  0  0  0  0  0  0  0
  -25.7322  -23.3246   17.2065 C   0  0  0  0  0  0  0  0  0  0  0  0
  -22.9097  -29.4519   25.7251 C   0  0  0  0  0  0  0  0  0  0  0  0
  -28.5873  -15.4797   20.7963 N   0  0  0  0  0  0  0  0  0  0  0  0
  -28.0260  -24.1214   17.7775 N   0  0  0  0  0  0  0  0  0  0  0  0
  -29.9197  -15.6145   20.6848 N   0  0  0  0  0  0  0  0  0  0  0  0
  -24.1968  -30.1621   22.4534 N   0  0  0  0  0  0  0  0  0  0  0  0
  -30.2841  -19.3981   21.0850 N   0  0  0  0  0  0  0  0  0  0  0  0
  -31.8919  -14.4502   20.0800 N   0  0  0  0  0  0  0  0  0  0  0  0
  -28.6391  -11.3773   19.4692 N   0  0  0  0  0  0  0  0  0  0  0  0
  -26.6655  -32.7326   22.6217 N   0  0  0  0  0  0  0  0  0  0  0  0
  -21.2452  -29.2405   23.8307 N   0  0  0  0  0  0  0  0  0  0  0  0
  -30.1548  -20.2998   18.9024 N   0  0  0  0  0  0  0  0  0  0  0  0
  -18.8774  -27.7063   21.5707 N   0  3  0  0  0  0  0  0  0  0  0  0
  -30.8988  -11.7470   19.3429 O   0  0  0  0  0  0  0  0  0  0  0  0
  -26.7519  -30.4522   23.0850 O   0  0  0  0  0  0  0  0  0  0  0  0
  -22.8270  -31.6223   23.6483 O   0  0  0  0  0  0  0  0  0  0  0  0
  -21.3795  -27.1929   22.7506 O   0  0  0  0  0  0  0  0  0  0  0  0
  -31.0980  -21.5153   20.6024 O   0  0  0  0  0  0  0  0  0  0  0  0
  -23.1893  -12.1322   20.3438 O   0  0  0  0  0  0  0  0  0  0  0  0
  -26.9626  -25.7662   19.1249 O   0  0  0  0  0  0  0  0  0  1  0  0
  -22.4206   -7.0955   22.4521 F   0  0  0  0  0  0  0  0  0  0  0  0
  -21.4762  -11.7337   22.4766 F   0  0  0  0  0  0  0  0  0  0  0  0
  -25.0278  -22.1841   16.9162 F   0  0  0  0  0  0  0  0  0  0  0  0
  -25.0521  -23.8908   18.2542 F   0  0  0  0  0  0  0  0  0  0  0  0
  -25.5052  -24.1602   16.1445 F   0  0  0  0  0  0  0  0  0  0  0  0
  1  2  1  0  0  0  0
  1  5  2  0  0  0  0
  2  6  2  0  0  0  0
  3  8  2  0  0  0  0
  3 17  1  0  0  0  0
  4  9  1  0  0  0  0
  4 17  2  0  0  0  0
  5 19  1  0  0  0  0
  6 21  1  0  0  0  0
  7 10  2  0  0  0  0
  7 20  1  0  0  0  0
  8 24  1  0  0  0  0
  9 24  2  0  0  0  0
 10 25  1  0  0  0  0
 11 12  2  0  0  0  0
 11 26  1  0  0  0  0
 12 27  1  0  0  0  0
 13 22  1  0  0  0  0
 13 25  2  0  0  0  0
 14 23  1  0  0  0  0
 14 30  2  0  0  0  0
 15 27  2  0  0  0  0
 15 28  1  0  0  0  0
 16 23  2  0  0  0  0
 16 61  1  0  0  0  0
 17 29  1  0  0  0  0
 18 29  1  0  0  0  0
 18 31  2  0  0  0  0
 18 32  1  0  0  0  0
 19 21  2  0  0  0  0
 19 37  1  0  0  0  0
 20 22  2  0  0  0  0
 20 38  1  0  0  0  0
 21 46  1  0  0  0  0
 22 39  1  0  0  0  0
 23 54  1  0  0  0  0
 24 76  1  0  0  0  0
 25 77  1  0  0  0  0
 26 28  2  0  0  0  0
 26 76  1  0  0  0  0
 27 78  1  0  0  0  0
 28 79  1  0  0  0  0
 29 60  2  0  0  0  0
 30 58  1  0  0  0  0
 30 61  1  0  0  0  0
 31 62  1  0  0  0  0
 31 65  1  0  0  0  0
 32 66  1  0  0  0  0
 32 71  2  0  0  0  0
 33 47  1  0  0  0  0
 33 67  1  0  0  0  0
 33 72  2  0  0  0  0
 34 56  1  0  0  0  0
 34 63  1  0  0  0  0
 34 73  2  0  0  0  0
 35 57  1  0  0  0  0
 35 68  1  0  0  0  0
 35 74  2  0  0  0  0
 36 64  1  0  0  0  0
 36 69  1  0  0  0  0
 36 75  2  0  0  0  0
 37 40  1  0  0  0  0
 38 47  1  0  0  0  0
 39 63  1  0  0  0  0
 40 42  1  0  0  0  0
 41 43  1  0  0  0  0
 41 44  1  0  0  0  0
 42 46  1  0  0  0  0
 43 48  1  0  0  0  0
 44 64  1  0  0  0  0
 45 48  1  0  0  0  0
 45 64  1  0  0  0  0
 46 67  1  0  0  0  0
 47 63  1  0  0  0  0
 48 62  1  0  0  0  0
 49 57  1  0  0  0  0
 50 59  1  0  0  0  0
 51 59  1  0  0  0  0
 52 59  1  0  0  0  0
 53 70  1  0  0  0  0
 54 69  1  0  0  0  0
 55 61  1  0  0  0  0
 55 77  1  0  0  0  0
 56 59  1  0  0  0  0
 56 68  1  0  0  0  0
 57 70  1  0  0  0  0
 58 80  1  0  0  0  0
 58 81  1  0  0  0  0
 58 82  1  0  0  0  0
 60 62  1  0  0  0  0
M  CHG  1  70   1
M  ISO  4  36 100  55 101  69 100  77 101
M  END
> <Batch ID>
0116

> <Smiles>
CNC(C)C(=O)NC(C(=O)N1Cc2cc([101O:1][101CH2:1]n3cc(C[100NH:0][100C:0](=O)N4CCCC(n5nc(-c6ccc(Oc7ccc(F)cc7F)cc6)c(C(N)=O)c5N)C4)cc3C(F)(F)F)ccc2CC1C(=O)NC1CCCc2ccccc21)C(C)(C)C

> <Shape>
0.305

> <Color>
0.091

> <Negative vol penalty>
0.000

$$$$

  -OEChem-04052320133D

 80 88  0     1  0  0  0  0  0999 V2000
  -27.6130  -18.0444   18.3507 C   0  0  0  0  0  0  0  0  0  0  0  0
  -26.9602  -18.4106   19.5234 C   0  0  0  0  0  0  0  0  0  0  0  0
  -28.3336  -13.5349   19.0738 C   0  0  0  0  0  0  0  0  0  0  0  0
  -28.5849  -13.6832   21.4721 C   0  0  0  0  0  0  0  0  0  0  0  0
  -28.5182  -18.9217   17.7549 C   0  0  0  0  0  0  0  0  0  0  0  0
  -27.2132  -19.6540   20.1016 C   0  0  0  0  0  0  0  0  0  0  0  0
  -22.9791  -22.0082   21.5766 C   0  0  0  0  0  0  0  0  0  0  0  0
  -29.6748  -13.8819   18.9117 C   0  0  0  0  0  0  0  0  0  0  0  0
  -29.9262  -14.0302   21.3100 C   0  0  0  0  0  0  0  0  0  0  0  0
  -22.3951  -21.5808   22.7683 C   0  0  0  0  0  0  0  0  0  0  0  0
  -31.7058  -16.7891   20.5025 C   0  0  0  0  0  0  0  0  0  0  0  0
  -32.1975  -17.8493   21.2639 C   0  0  0  0  0  0  0  0  0  0  0  0
  -24.0539  -19.2652   27.2869 C   0  0  0  0  0  0  0  0  0  0  0  0
  -23.3948  -23.4492   23.9211 C   0  0  0  0  0  0  0  0  0  0  0  0
  -21.8946  -18.9441   26.2776 C   0  0  0  0  0  0  0  0  0  0  0  0
  -33.8153  -16.3697   22.2792 C   0  0  0  0  0  0  0  0  0  0  0  0
  -24.3709  -17.9758   26.8909 C   0  0  0  0  0  0  0  0  0  0  0  0
  -27.7886  -13.4356   20.3540 C   0  0  0  0  0  0  0  0  0  0  0  0
  -25.8702  -11.7819   20.6582 C   0  0  0  0  0  0  0  0  0  0  0  0
  -28.7751  -20.1803   18.3209 C   0  0  0  0  0  0  0  0  0  0  0  0
  -23.7856  -23.1550   21.5504 C   0  0  0  0  0  0  0  0  0  0  0  0
  -28.1237  -20.5484   19.5136 C   0  0  0  0  0  0  0  0  0  0  0  0
  -23.9858  -23.8904   22.7273 C   0  0  0  0  0  0  0  0  0  0  0  0
  -22.7901  -19.7510   26.9705 C   0  0  0  0  0  0  0  0  0  0  0  0
  -30.4711  -14.1295   20.0298 C   0  0  0  0  0  0  0  0  0  0  0  0
  -22.6053  -22.2997   23.9414 C   0  0  0  0  0  0  0  0  0  0  0  0
  -32.2688  -15.5192   20.6294 C   0  0  0  0  0  0  0  0  0  0  0  0
  -33.2523  -17.6396   22.1523 C   0  0  0  0  0  0  0  0  0  0  0  0
  -33.3236  -15.3095   21.5177 C   0  0  0  0  0  0  0  0  0  0  0  0
  -26.4030  -13.0778   20.5220 C   0  0  0  0  0  0  0  0  0  0  0  0
  -22.3084  -17.6692   25.9265 C   0  0  0  0  0  0  0  0  0  0  0  0
  -24.5172  -11.9789   20.7886 C   0  0  0  0  0  0  0  0  0  0  0  0
  -26.5385  -10.5135   20.6661 C   0  0  0  0  0  0  0  0  0  0  0  0
  -26.8315  -23.7399   20.8544 C   0  0  0  0  0  0  0  0  0  0  0  0
  -25.9178  -26.8301   21.2261 C   0  0  0  0  0  0  0  0  0  0  0  0
  -23.7335  -29.0595   22.6064 C   0  0  0  0  0  0  0  0  0  0  0  0
  -21.2370  -16.6049   22.7100 C   0  0  0  0  0  0  0  0  0  0  0  0
  -29.7973  -21.0756   17.6664 C   0  0  0  0  0  0  0  0  0  0  0  0
  -24.3866  -23.6178   20.2515 C   0  0  0  0  0  0  0  0  0  0  0  0
  -24.8267  -25.1398   22.7484 C   0  0  0  0  0  0  0  0  0  0  0  0
  -29.7284  -22.5256   18.1387 C   0  0  0  0  0  0  0  0  0  0  0  0
  -21.0366  -15.0117   19.5322 C   0  0  0  0  0  0  0  0  0  0  0  0
  -29.6291  -22.5876   19.6595 C   0  0  0  0  0  0  0  0  0  0  0  0
  -22.3411  -14.2185   19.4378 C   0  0  0  0  0  0  0  0  0  0  0  0
  -21.2381  -16.3464   20.2464 C   0  0  0  0  0  0  0  0  0  0  0  0
  -23.1767  -15.4555   21.4800 C   0  0  0  0  0  0  0  0  0  0  0  0
  -28.3529  -21.8985   20.1577 C   0  0  1  0  0  0  0  0  0  0  0  0
  -25.6089  -24.5104   20.4431 C   0  0  1  0  0  0  0  0  0  0  0  0
  -23.0125  -14.0771   20.8172 C   0  0  2  0  0  0  0  0  0  0  0  0
  -23.2653  -31.5200   22.7620 C   0  0  0  0  0  0  0  0  0  0  0  0
  -28.2118  -27.1383   23.2142 C   0  0  0  0  0  0  0  0  0  0  0  0
  -27.1352  -29.2492   24.0226 C   0  0  0  0  0  0  0  0  0  0  0  0
  -27.9123  -29.0736   21.6587 C   0  0  0  0  0  0  0  0  0  0  0  0
  -21.0815  -28.7536   21.3288 C   0  0  0  0  0  0  0  0  0  0  0  0
  -22.3925  -21.1488   27.3786 C   0  0  0  0  0  0  0  0  0  0  0  0
  -21.3733  -16.7755   25.1822 C   0  0  0  0  0  0  0  0  0  0  0  0
  -22.7367  -22.1839   26.3131 C   0  0  0  0  0  0  0  0  0  1  0  0
  -25.8562  -27.7946   22.3858 C   0  0  1  0  0  0  0  0  0  0  0  0
  -22.9773  -30.2315   22.0072 C   0  0  2  0  0  0  0  0  0  0  0  0
  -27.2646  -28.2893   22.8207 C   0  0  0  0  0  0  0  0  0  0  0  0
  -23.5277  -17.1624   26.2164 N   0  0  0  0  0  0  0  0  0  0  0  0
  -25.4650  -14.0278   20.5620 N   0  0  0  0  0  0  0  0  0  0  0  0
  -24.3291  -13.3283   20.7248 N   0  0  0  0  0  0  0  0  0  0  0  0
  -25.3979  -25.5482   21.4545 N   0  0  0  0  0  0  0  0  0  0  0  0
  -21.8772  -16.1422   21.5486 N   0  0  0  0  0  0  0  0  0  0  0  0
  -23.4819  -11.1279   20.9505 N   0  0  0  0  0  0  0  0  0  0  0  0
  -27.9323  -10.4917   20.5207 N   0  0  0  0  0  0  0  0  0  0  0  0
  -27.2046  -22.7564   19.9583 N   0  0  0  0  0  0  0  0  0  0  0  0
  -24.9466  -28.8613   21.9817 N   0  0  0  0  0  0  0  0  0  0  0  0
  -21.9079  -16.3649   23.9029 N   0  0  0  0  0  0  0  0  0  0  0  0
  -21.5094  -29.9785   22.0524 N   0  3  0  0  0  0  0  0  0  0  0  0
  -25.9164   -9.4304   20.7819 O   0  0  0  0  0  0  0  0  0  0  0  0
  -27.3955  -24.0180   21.9062 O   0  0  0  0  0  0  0  0  0  0  0  0
  -26.4028  -27.2027   20.1548 O   0  0  0  0  0  0  0  0  0  0  0  0
  -23.2937  -28.3893   23.5381 O   0  0  0  0  0  0  0  0  0  0  0  0
  -20.1455  -17.1838   22.6862 O   0  0  0  0  0  0  0  0  0  0  0  0
  -31.7800  -14.4679   19.8721 O   0  0  0  0  0  0  0  0  0  0  0  0
  -22.0370  -21.8844   25.1060 O   0  0  0  0  0  0  0  0  0  1  0  0
  -33.7254  -18.6581   22.8823 F   0  0  0  0  0  0  0  0  0  0  0  0
  -33.8693  -14.0920   21.6431 F   0  0  0  0  0  0  0  0  0  0  0  0
  1  2  1  0  0  0  0
  1  5  2  0  0  0  0
  2  6  2  0  0  0  0
  3  8  2  0  0  0  0
  3 18  1  0  0  0  0
  4  9  1  0  0  0  0
  4 18  2  0  0  0  0
  5 20  1  0  0  0  0
  6 22  1  0  0  0  0
  7 10  2  0  0  0  0
  7 21  1  0  0  0  0
  8 25  1  0  0  0  0
  9 25  2  0  0  0  0
 10 26  1  0  0  0  0
 11 12  2  0  0  0  0
 11 27  1  0  0  0  0
 12 28  1  0  0  0  0
 13 17  2  0  0  0  0
 13 24  1  0  0  0  0
 14 23  1  0  0  0  0
 14 26  2  0  0  0  0
 15 24  2  0  0  0  0
 15 31  1  0  0  0  0
 16 28  2  0  0  0  0
 16 29  1  0  0  0  0
 17 61  1  0  0  0  0
 18 30  1  0  0  0  0
 19 30  1  0  0  0  0
 19 32  2  0  0  0  0
 19 33  1  0  0  0  0
 20 22  2  0  0  0  0
 20 38  1  0  0  0  0
 21 23  2  0  0  0  0
 21 39  1  0  0  0  0
 22 47  1  0  0  0  0
 23 40  1  0  0  0  0
 24 55  1  0  0  0  0
 25 77  1  0  0  0  0
 26 78  1  0  0  0  0
 27 29  2  0  0  0  0
 27 77  1  0  0  0  0
 28 79  1  0  0  0  0
 29 80  1  0  0  0  0
 30 62  2  0  0  0  0
 31 56  1  0  0  0  0
 31 61  2  0  0  0  0
 32 63  1  0  0  0  0
 32 66  1  0  0  0  0
 33 67  1  0  0  0  0
 33 72  2  0  0  0  0
 34 48  1  0  0  0  0
 34 68  1  0  0  0  0
 34 73  2  0  0  0  0
 35 58  1  0  0  0  0
 35 64  1  0  0  0  0
 35 74  2  0  0  0  0
 36 59  1  0  0  0  0
 36 69  1  0  0  0  0
 36 75  2  0  0  0  0
 37 65  1  0  0  0  0
 37 70  1  0  0  0  0
 37 76  2  0  0  0  0
 38 41  1  0  0  0  0
 39 48  1  0  0  0  0
 40 64  1  0  0  0  0
 41 43  1  0  0  0  0
 42 44  1  0  0  0  0
 42 45  1  0  0  0  0
 43 47  1  0  0  0  0
 44 49  1  0  0  0  0
 45 65  1  0  0  0  0
 46 49  1  0  0  0  0
 46 65  1  0  0  0  0
 47 68  1  0  0  0  0
 48 64  1  0  0  0  0
 49 63  1  0  0  0  0
 50 59  1  0  0  0  0
 51 60  1  0  0  0  0
 52 60  1  0  0  0  0
 53 60  1  0  0  0  0
 54 71  1  0  0  0  0
 55 57  1  0  0  0  0
 56 70  1  0  0  0  0
 57 78  1  0  0  0  0
 58 60  1  0  0  0  0
 58 69  1  0  0  0  0
 59 71  1  0  0  0  0
 62 63  1  0  0  0  0
M  CHG  1  71   1
M  ISO  4  37 100  57 101  70 100  78 101
M  END
> <Batch ID>
0116

> <Smiles>
CNC(C)C(=O)NC(C(=O)N1Cc2cc([101O:1][101CH2:1]Cc3ccnc(C[100NH:0][100C:0](=O)N4CCCC(n5nc(-c6ccc(Oc7ccc(F)cc7F)cc6)c(C(N)=O)c5N)C4)c3)ccc2CC1C(=O)NC1CCCc2ccccc21)C(C)(C)C

> <Shape>
0.188

> <Color>
0.074

> <Negative vol penalty>
0.000

$$$$

  -OEChem-04052320133D

 90 98  0     1  0  0  0  0  0999 V2000
  -22.7182   -9.2349   20.1438 C   0  0  0  0  0  0  0  0  0  0  0  0
  -22.1614  -10.4767   20.4325 C   0  0  0  0  0  0  0  0  0  0  0  0
  -27.5715  -25.8183   20.6253 C   0  0  0  0  0  0  0  0  0  0  0  0
  -28.3486  -27.4548   19.0269 C   0  0  0  0  0  0  0  0  0  0  0  0
  -24.1015   -9.1015   20.0316 C   0  0  0  0  0  0  0  0  0  0  0  0
  -22.9878  -11.5858   20.6101 C   0  0  0  0  0  0  0  0  0  0  0  0
  -21.2747  -15.6923   18.1923 C   0  0  0  0  0  0  0  0  0  0  0  0
  -28.7617  -25.1066   20.4754 C   0  0  0  0  0  0  0  0  0  0  0  0
  -29.5389  -26.7432   18.8770 C   0  0  0  0  0  0  0  0  0  0  0  0
  -20.2237  -16.3892   18.7870 C   0  0  0  0  0  0  0  0  0  0  0  0
  -31.7449  -23.0522   20.7840 C   0  0  0  0  0  0  0  0  0  0  0  0
  -32.3749  -22.5913   21.9399 C   0  0  0  0  0  0  0  0  0  0  0  0
  -21.7922  -18.0061   19.6501 C   0  0  0  0  0  0  0  0  0  0  0  0
  -32.5819  -24.8639   22.7333 C   0  0  0  0  0  0  0  0  0  0  0  0
  -27.3649  -26.9924   19.9011 C   0  0  0  0  0  0  0  0  0  0  0  0
  -25.8701  -28.7563   20.9789 C   0  0  0  0  0  0  0  0  0  0  0  0
  -24.9447  -10.2114   20.1984 C   0  0  0  0  0  0  0  0  0  0  0  0
  -22.5957  -16.1418   18.3314 C   0  0  0  0  0  0  0  0  0  0  0  0
  -24.3838  -11.4668   20.5014 C   0  0  0  0  0  0  0  0  0  0  0  0
  -22.8579  -17.3145   19.0540 C   0  0  0  0  0  0  0  0  0  0  0  0
  -29.7454  -25.5690   19.6012 C   0  0  0  0  0  0  0  0  0  0  0  0
  -20.4827  -17.5447   19.5184 C   0  0  0  0  0  0  0  0  0  0  0  0
  -31.5334  -24.4190   20.6026 C   0  0  0  0  0  0  0  0  0  0  0  0
  -32.7934  -23.4971   22.9145 C   0  0  0  0  0  0  0  0  0  0  0  0
  -31.9519  -25.3248   21.5773 C   0  0  0  0  0  0  0  0  0  0  0  0
  -26.1354  -27.7277   20.0551 C   0  0  0  0  0  0  0  0  0  0  0  0
  -24.5716  -29.1226   20.7213 C   0  0  0  0  0  0  0  0  0  0  0  0
  -20.3318  -28.8153   23.1344 C   0  0  0  0  0  0  0  0  0  0  0  0
  -26.7213  -29.3295   21.9802 C   0  0  0  0  0  0  0  0  0  0  0  0
  -25.2482  -14.9476   19.6126 C   0  0  0  0  0  0  0  0  0  0  0  0
  -26.6006  -17.5971   18.3190 C   0  0  0  0  0  0  0  0  0  0  0  0
  -26.2069  -20.7927   17.1876 C   0  0  0  0  0  0  0  0  0  0  0  0
  -19.2939  -27.2330   19.8242 C   0  0  0  0  0  0  0  0  0  0  0  0
  -26.4368  -10.0086   20.1144 C   0  0  0  0  0  0  0  0  0  0  0  0
  -23.7153  -15.3936   17.6614 C   0  0  0  0  0  0  0  0  0  0  0  0
  -24.2561  -17.8502   19.2162 C   0  0  0  0  0  0  0  0  0  0  0  0
  -27.2196  -11.3084   19.9467 C   0  0  0  0  0  0  0  0  0  0  0  0
  -21.4818  -27.9339   16.9091 C   0  0  0  0  0  0  0  0  0  0  0  0
  -26.7204  -12.3628   20.9294 C   0  0  0  0  0  0  0  0  0  0  0  0
  -22.8723  -27.9453   17.5428 C   0  0  0  0  0  0  0  0  0  0  0  0
  -20.5121  -27.0482   17.6854 C   0  0  0  0  0  0  0  0  0  0  0  0
  -21.8059  -27.3973   19.7651 C   0  0  0  0  0  0  0  0  0  0  0  0
  -18.4447  -26.8793   22.1088 C   0  0  0  0  0  0  0  0  0  0  0  0
  -25.2456  -12.6984   20.6765 C   0  0  1  0  0  0  0  0  0  0  0  0
  -19.8716  -28.8508   21.6761 C   0  0  2  0  0  0  0  0  0  0  0  0
  -25.0758  -15.6570   18.2993 C   0  0  1  0  0  0  0  0  0  0  0  0
  -22.7914  -28.3197   19.0329 C   0  0  1  0  0  0  0  0  0  0  0  0
  -19.1822  -26.5956   23.4105 C   0  0  1  0  0  0  0  0  0  0  0  0
  -18.8402  -29.9736   21.5113 C   0  0  0  0  0  0  0  0  0  0  0  0
  -27.5013  -22.7153   16.2255 C   0  0  0  0  0  0  0  0  0  0  0  0
  -19.4894  -29.1174   25.9698 C   0  0  0  0  0  0  0  0  0  0  0  0
  -21.5685  -27.7404   25.6130 C   0  0  0  0  0  0  0  0  0  0  0  0
  -27.7257  -18.2211   21.0858 C   0  0  0  0  0  0  0  0  0  0  0  0
  -28.1731  -20.5560   20.3008 C   0  0  0  0  0  0  0  0  0  0  0  0
  -29.3132  -18.6310   19.1974 C   0  0  0  0  0  0  0  0  0  0  0  0
  -20.8213  -23.0768   23.4859 C   0  0  0  0  0  0  0  0  0  0  0  0
  -18.5888  -23.8570   24.2680 C   0  0  0  0  0  0  0  0  0  0  0  0
  -24.6219  -20.7602   14.6885 C   0  0  0  0  0  0  0  0  0  0  0  0
  -20.2235  -25.4874   23.2191 C   0  0  0  0  0  0  0  0  0  0  0  0
  -18.2449  -20.2973   20.2001 C   0  0  0  0  0  0  0  0  0  0  0  0
  -18.2911  -21.8129   20.3229 C   0  0  0  0  0  0  0  0  0  0  0  0
  -19.0110  -23.6801   21.8176 C   0  0  0  0  0  0  0  0  0  0  0  0
  -19.6170  -19.6362   20.2477 C   0  0  0  0  0  0  0  0  0  1  0  0
  -26.8469  -19.0102   18.7899 C   0  0  1  0  0  0  0  0  0  0  0  0
  -26.6762  -21.4760   15.9158 C   0  0  2  0  0  0  0  0  0  0  0  0
  -20.0676  -27.8382   25.3821 C   0  0  0  0  0  0  0  0  0  0  0  0
  -27.9885  -19.0937   19.8422 C   0  0  0  0  0  0  0  0  0  0  0  0
  -19.6593  -24.0445   23.1722 C   0  0  0  0  0  0  0  0  0  0  0  0
  -25.0895  -27.4578   19.2695 N   0  0  0  0  0  0  0  0  0  0  0  0
  -24.1543  -28.3221   19.6990 N   0  0  0  0  0  0  0  0  0  0  0  0
  -19.8079  -27.8118   23.9471 N   0  0  0  0  0  0  0  0  0  0  0  0
  -25.3177  -17.0797   18.5476 N   0  0  0  0  0  0  0  0  0  0  0  0
  -20.4911  -27.3911   19.1069 N   0  0  0  0  0  0  0  0  0  0  0  0
  -19.3274  -27.5783   21.1873 N   0  0  0  0  0  0  0  0  0  0  0  0
  -23.7575  -30.0480   21.2720 N   0  0  0  0  0  0  0  0  0  0  0  0
  -28.0264  -28.8356   22.1102 N   0  0  0  0  0  0  0  0  0  0  0  0
  -25.1157  -13.5745   19.5319 N   0  0  0  0  0  0  0  0  0  0  0  0
  -27.0815  -19.8054   17.5895 N   0  0  0  0  0  0  0  0  0  0  0  0
  -25.5077  -21.8846   15.0860 N   0  3  0  0  0  0  0  0  0  0  0  0
  -18.8696  -22.2152   21.6341 N   0  3  0  0  0  0  0  0  0  0  0  0
  -21.0348  -29.7385   23.5590 O   0  0  0  0  0  0  0  0  0  0  0  0
  -26.3305  -30.2411   22.7482 O   0  0  0  0  0  0  0  0  0  0  0  0
  -25.4855  -15.5977   20.6239 O   0  0  0  0  0  0  0  0  0  0  0  0
  -27.5107  -16.9779   17.7624 O   0  0  0  0  0  0  0  0  0  0  0  0
  -25.1703  -21.1062   17.7687 O   0  0  0  0  0  0  0  0  0  0  0  0
  -18.2637  -26.8128   19.2834 O   0  0  0  0  0  0  0  0  0  0  0  0
  -30.9070  -24.8750   19.4548 O   0  0  0  0  0  0  0  0  0  0  0  0
  -19.4517  -18.2312   20.1045 O   0  0  0  0  0  0  0  0  0  1  0  0
  -33.3970  -23.0542   24.0252 F   0  0  0  0  0  0  0  0  0  0  0  0
  -31.7504  -26.6390   21.4092 F   0  0  0  0  0  0  0  0  0  0  0  0
  1  2  1  0  0  0  0
  1  5  2  0  0  0  0
  2  6  2  0  0  0  0
  3  8  2  0  0  0  0
  3 15  1  0  0  0  0
  4  9  1  0  0  0  0
  4 15  2  0  0  0  0
  5 17  1  0  0  0  0
  6 19  1  0  0  0  0
  7 10  2  0  0  0  0
  7 18  1  0  0  0  0
  8 21  1  0  0  0  0
  9 21  2  0  0  0  0
 10 22  1  0  0  0  0
 11 12  2  0  0  0  0
 11 23  1  0  0  0  0
 12 24  1  0  0  0  0
 13 20  1  0  0  0  0
 13 22  2  0  0  0  0
 14 24  2  0  0  0  0
 14 25  1  0  0  0  0
 15 26  1  0  0  0  0
 16 26  1  0  0  0  0
 16 27  2  0  0  0  0
 16 29  1  0  0  0  0
 17 19  2  0  0  0  0
 17 34  1  0  0  0  0
 18 20  2  0  0  0  0
 18 35  1  0  0  0  0
 19 44  1  0  0  0  0
 20 36  1  0  0  0  0
 21 87  1  0  0  0  0
 22 88  1  0  0  0  0
 23 25  2  0  0  0  0
 23 87  1  0  0  0  0
 24 89  1  0  0  0  0
 25 90  1  0  0  0  0
 26 69  2  0  0  0  0
 27 70  1  0  0  0  0
 27 75  1  0  0  0  0
 28 45  1  0  0  0  0
 28 71  1  0  0  0  0
 28 81  2  0  0  0  0
 29 76  1  0  0  0  0
 29 82  2  0  0  0  0
 30 46  1  0  0  0  0
 30 77  1  0  0  0  0
 30 83  2  0  0  0  0
 31 64  1  0  0  0  0
 31 72  1  0  0  0  0
 31 84  2  0  0  0  0
 32 65  1  0  0  0  0
 32 78  1  0  0  0  0
 32 85  2  0  0  0  0
 33 73  1  0  0  0  0
 33 74  1  0  0  0  0
 33 86  2  0  0  0  0
 34 37  1  0  0  0  0
 35 46  1  0  0  0  0
 36 72  1  0  0  0  0
 37 39  1  0  0  0  0
 38 40  1  0  0  0  0
 38 41  1  0  0  0  0
 39 44  1  0  0  0  0
 40 47  1  0  0  0  0
 41 73  1  0  0  0  0
 42 47  1  0  0  0  0
 42 73  1  0  0  0  0
 43 48  1  0  0  0  0
 43 74  1  0  0  0  0
 44 77  1  0  0  0  0
 45 49  1  0  0  0  0
 45 74  1  0  0  0  0
 46 72  1  0  0  0  0
 47 70  1  0  0  0  0
 48 59  1  0  0  0  0
 48 71  1  0  0  0  0
 50 65  1  0  0  0  0
 51 66  1  0  0  0  0
 52 66  1  0  0  0  0
 53 67  1  0  0  0  0
 54 67  1  0  0  0  0
 55 67  1  0  0  0  0
 56 68  1  0  0  0  0
 57 68  1  0  0  0  0
 58 79  1  0  0  0  0
 59 68  1  0  0  0  0
 60 61  1  0  0  0  0
 60 63  1  0  0  0  0
 61 80  1  0  0  0  0
 62 68  1  0  0  0  0
 62 80  1  0  0  0  0
 63 88  1  0  0  0  0
 64 67  1  0  0  0  0
 64 78  1  0  0  0  0
 65 79  1  0  0  0  0
 66 71  1  0  0  0  0
 69 70  1  0  0  0  0
M  CHG  2  79   1  80   1
M  ISO  4  33 100  63 101  74 100  88 101
M  END
> <Batch ID>
0116

> <Smiles>
CNC(C)C(=O)NC(C(=O)N1Cc2cc([101O:1][101CH2:1]CCNCC(C)(C)CC3C[100N:0]([100C:0](=O)N4CCCC(n5nc(-c6ccc(Oc7ccc(F)cc7F)cc6)c(C(N)=O)c5N)C4)C(C)C(=O)N3C(C)C)ccc2CC1C(=O)NC1CCCc2ccccc21)C(C)(C)C

> <Shape>
0.216

> <Color>
0.061

> <Negative vol penalty>
0.000

$$$$

  -OEChem-04052320133D

 89 97  0     1  0  0  0  0  0999 V2000
  -27.6398  -24.5841   16.5887 C   0  0  0  0  0  0  0  0  0  0  0  0
  -26.4680  -24.8523   17.2889 C   0  0  0  0  0  0  0  0  0  0  0  0
  -22.4236  -14.6638   19.1133 C   0  0  0  0  0  0  0  0  0  0  0  0
  -22.9537  -14.3229   21.4456 C   0  0  0  0  0  0  0  0  0  0  0  0
  -28.8681  -24.9962   17.1039 C   0  0  0  0  0  0  0  0  0  0  0  0
  -26.5239  -25.5318   18.5053 C   0  0  0  0  0  0  0  0  0  0  0  0
  -23.0013  -29.1514   18.8721 C   0  0  0  0  0  0  0  0  0  0  0  0
  -21.9713  -13.3474   19.0236 C   0  0  0  0  0  0  0  0  0  0  0  0
  -22.5014  -13.0064   21.3560 C   0  0  0  0  0  0  0  0  0  0  0  0
  -21.7002  -28.7462   19.1666 C   0  0  0  0  0  0  0  0  0  0  0  0
  -21.8214   -9.4483   21.6510 C   0  0  0  0  0  0  0  0  0  0  0  0
  -22.6054   -8.4523   22.2333 C   0  0  0  0  0  0  0  0  0  0  0  0
  -21.8664  -26.0669   24.3057 C   0  0  0  0  0  0  0  0  0  0  0  0
  -22.0388  -29.3572   21.4755 C   0  0  0  0  0  0  0  0  0  0  0  0
  -24.4426   -9.0504   20.7827 C   0  0  0  0  0  0  0  0  0  0  0  0
  -20.7763  -26.7264   23.7823 C   0  0  0  0  0  0  0  0  0  0  0  0
  -22.9149  -15.1515   20.3242 C   0  0  0  0  0  0  0  0  0  0  0  0
  -22.6264  -17.6492   20.7558 C   0  0  0  0  0  0  0  0  0  0  0  0
  -28.9382  -25.6896   18.3225 C   0  0  0  0  0  0  0  0  0  0  0  0
  -23.8360  -29.6533   19.8810 C   0  0  0  0  0  0  0  0  0  0  0  0
  -27.7544  -25.9523   19.0379 C   0  0  0  0  0  0  0  0  0  0  0  0
  -23.3492  -29.7705   21.1908 C   0  0  0  0  0  0  0  0  0  0  0  0
  -22.1109  -24.9372   23.4864 C   0  0  0  0  0  0  0  0  0  0  0  0
  -22.0102  -12.5187   20.1450 C   0  0  0  0  0  0  0  0  0  0  0  0
  -21.2197  -28.8463   20.4690 C   0  0  0  0  0  0  0  0  0  0  0  0
  -22.3480  -10.2453   20.6345 C   0  0  0  0  0  0  0  0  0  0  0  0
  -23.9160   -8.2534   21.7991 C   0  0  0  0  0  0  0  0  0  0  0  0
  -23.6586  -10.0463   20.2004 C   0  0  0  0  0  0  0  0  0  0  0  0
  -23.3828  -16.5111   20.4173 C   0  0  0  0  0  0  0  0  0  0  0  0
  -21.1627  -24.9409   22.4872 C   0  0  0  0  0  0  0  0  0  0  0  0
  -23.5251  -18.6866   20.7040 C   0  0  0  0  0  0  0  0  0  0  0  0
  -21.2358  -17.7588   21.0874 C   0  0  0  0  0  0  0  0  0  0  0  0
  -21.0044  -23.9981   21.4207 C   0  0  0  0  0  0  0  0  0  0  0  0
  -26.6030  -28.7504   21.1587 C   0  0  0  0  0  0  0  0  0  0  0  0
  -26.3469  -31.5709   22.7404 C   0  0  0  0  0  0  0  0  0  0  0  0
  -24.3292  -34.0546   23.9264 C   0  0  0  0  0  0  0  0  0  0  0  0
  -28.5441  -20.8395   21.8528 C   0  0  0  0  0  0  0  0  0  0  0  0
  -30.2932  -26.0733   18.8624 C   0  0  0  0  0  0  0  0  0  0  0  0
  -25.2280  -30.1111   19.5419 C   0  0  0  0  0  0  0  0  0  0  0  0
  -24.1984  -30.3215   22.3060 C   0  0  0  0  0  0  0  0  0  0  0  0
  -30.2324  -27.1175   19.9743 C   0  0  0  0  0  0  0  0  0  0  0  0
  -28.2498  -18.8629   18.9061 C   0  0  0  0  0  0  0  0  0  0  0  0
  -29.1614  -26.7480   20.9957 C   0  0  0  0  0  0  0  0  0  0  0  0
  -26.8985  -18.1644   19.0676 C   0  0  0  0  0  0  0  0  0  0  0  0
  -28.9741  -19.0067   20.2428 C   0  0  0  0  0  0  0  0  0  0  0  0
  -26.8362  -18.9603   21.4679 C   0  0  0  0  0  0  0  0  0  0  0  0
  -27.7718  -26.7088   20.3484 C   0  0  1  0  0  0  0  0  0  0  0  0
  -26.1623  -30.1269   20.7479 C   0  0  1  0  0  0  0  0  0  0  0  0
  -26.0433  -18.8423   20.1550 C   0  0  2  0  0  0  0  0  0  0  0  0
  -21.7070  -23.3699   19.0262 C   0  0  0  0  0  0  0  0  0  0  0  0
  -24.4044  -36.2089   25.2113 C   0  0  0  0  0  0  0  0  0  0  0  0
  -28.0541  -22.3448   24.9872 C   0  0  0  0  0  0  0  0  0  0  0  0
  -18.5007  -27.0468   19.4695 C   0  0  0  0  0  0  0  0  0  0  0  0
  -26.7302  -30.0083   25.3330 C   0  0  0  0  0  0  0  0  0  0  0  0
  -25.8619  -31.9986   26.5792 C   0  0  0  0  0  0  0  0  0  0  0  0
  -27.9559  -32.1861   25.2366 C   0  0  0  0  0  0  0  0  0  0  0  0
  -23.2168  -35.5854   21.6508 C   0  0  0  0  0  0  0  0  0  0  0  0
  -23.1887  -23.9460   23.6798 C   0  0  0  0  0  0  0  0  0  0  0  0
  -22.1604  -23.7918   20.4151 C   0  0  0  0  0  0  0  0  0  0  0  0
  -19.1815  -26.4264   21.8137 C   0  0  0  0  0  0  0  0  0  0  0  0
  -24.5856  -24.4288   23.2641 C   0  0  0  0  0  0  0  0  0  0  0  0
  -26.9785  -23.7255   23.1291 C   0  0  0  0  0  0  0  0  0  0  0  0
  -25.7320  -32.0120   24.0466 C   0  0  1  0  0  0  0  0  0  0  0  0
  -24.4316  -35.5664   23.8332 C   0  0  2  0  0  0  0  0  0  0  0  0
  -27.9637  -22.6138   23.4882 C   0  0  2  0  0  0  0  0  0  0  0  0
  -19.6203  -27.0866   20.5021 C   0  0  2  0  0  0  0  0  0  1  0  0
  -26.5544  -31.5391   25.2785 C   0  0  0  0  0  0  0  0  0  0  0  0
  -24.6633  -16.7983   20.1687 N   0  0  0  0  0  0  0  0  0  0  0  0
  -20.3570  -26.0331   22.6769 N   0  0  0  0  0  0  0  0  0  0  0  0
  -24.7185  -18.1286   20.3511 N   0  0  0  0  0  0  0  0  0  0  0  0
  -25.5546  -30.7499   21.9255 N   0  0  0  0  0  0  0  0  0  0  0  0
  -28.1093  -19.6582   21.2294 N   0  0  0  0  0  0  0  0  0  0  0  0
  -23.4029  -20.0125   20.9263 N   0  0  0  0  0  0  0  0  0  0  0  0
  -20.4566  -16.5938   21.0935 N   0  0  0  0  0  0  0  0  0  0  0  0
  -27.2614  -28.0507   20.1656 N   0  0  0  0  0  0  0  0  0  0  0  0
  -25.5726  -33.4593   23.9546 N   0  0  0  0  0  0  0  0  0  0  0  0
  -27.6611  -21.3956   22.7703 N   0  0  0  0  0  0  0  0  0  0  0  0
  -23.2973  -36.1142   23.0368 N   0  3  0  0  0  0  0  0  0  0  0  0
  -25.5937  -23.3781   23.5493 N   0  3  0  0  0  0  0  0  0  0  0  0
  -20.6965  -18.8595   21.3540 O   0  0  0  0  0  0  0  0  0  0  0  0
  -19.9678  -23.3135   21.2426 O   0  0  0  0  0  0  0  0  0  0  0  0
  -26.3646  -28.3532   22.2932 O   0  0  0  0  0  0  0  0  0  0  0  0
  -27.4854  -31.9468   22.4505 O   0  0  0  0  0  0  0  0  0  0  0  0
  -23.2538  -33.4615   23.9736 O   0  0  0  0  0  0  0  0  0  0  0  0
  -29.6358  -21.3630   21.6057 O   0  0  0  0  0  0  0  0  0  0  0  0
  -21.5687  -11.2341   20.0579 O   0  0  0  0  0  0  0  0  0  0  0  0
  -19.9504  -28.4509   20.7592 O   0  0  0  0  0  0  0  0  0  1  0  0
  -24.6692   -7.2979   22.3595 F   0  0  0  0  0  0  0  0  0  0  0  0
  -24.1703  -10.8096   19.2250 F   0  0  0  0  0  0  0  0  0  0  0  0
  1  2  1  0  0  0  0
  1  5  2  0  0  0  0
  2  6  2  0  0  0  0
  3  8  2  0  0  0  0
  3 17  1  0  0  0  0
  4  9  1  0  0  0  0
  4 17  2  0  0  0  0
  5 19  1  0  0  0  0
  6 21  1  0  0  0  0
  7 10  2  0  0  0  0
  7 20  1  0  0  0  0
  8 24  1  0  0  0  0
  9 24  2  0  0  0  0
 10 25  1  0  0  0  0
 11 12  2  0  0  0  0
 11 26  1  0  0  0  0
 12 27  1  0  0  0  0
 13 16  2  0  0  0  0
 13 23  1  0  0  0  0
 14 22  1  0  0  0  0
 14 25  2  0  0  0  0
 15 27  2  0  0  0  0
 15 28  1  0  0  0  0
 16 69  1  0  0  0  0
 17 29  1  0  0  0  0
 18 29  1  0  0  0  0
 18 31  2  0  0  0  0
 18 32  1  0  0  0  0
 19 21  2  0  0  0  0
 19 38  1  0  0  0  0
 20 22  2  0  0  0  0
 20 39  1  0  0  0  0
 21 47  1  0  0  0  0
 22 40  1  0  0  0  0
 23 30  2  0  0  0  0
 23 58  1  0  0  0  0
 24 86  1  0  0  0  0
 25 87  1  0  0  0  0
 26 28  2  0  0  0  0
 26 86  1  0  0  0  0
 27 88  1  0  0  0  0
 28 89  1  0  0  0  0
 29 68  2  0  0  0  0
 30 33  1  0  0  0  0
 30 69  1  0  0  0  0
 31 70  1  0  0  0  0
 31 73  1  0  0  0  0
 32 74  1  0  0  0  0
 32 80  2  0  0  0  0
 33 59  1  0  0  0  0
 33 81  2  0  0  0  0
 34 48  1  0  0  0  0
 34 75  1  0  0  0  0
 34 82  2  0  0  0  0
 35 63  1  0  0  0  0
 35 71  1  0  0  0  0
 35 83  2  0  0  0  0
 36 64  1  0  0  0  0
 36 76  1  0  0  0  0
 36 84  2  0  0  0  0
 37 72  1  0  0  0  0
 37 77  1  0  0  0  0
 37 85  2  0  0  0  0
 38 41  1  0  0  0  0
 39 48  1  0  0  0  0
 40 71  1  0  0  0  0
 41 43  1  0  0  0  0
 42 44  1  0  0  0  0
 42 45  1  0  0  0  0
 43 47  1  0  0  0  0
 44 49  1  0  0  0  0
 45 72  1  0  0  0  0
 46 49  1  0  0  0  0
 46 72  1  0  0  0  0
 47 75  1  0  0  0  0
 48 71  1  0  0  0  0
 49 70  1  0  0  0  0
 50 59  1  0  0  0  0
 51 64  1  0  0  0  0
 52 65  1  0  0  0  0
 53 66  1  0  0  0  0
 54 67  1  0  0  0  0
 55 67  1  0  0  0  0
 56 67  1  0  0  0  0
 57 78  1  0  0  0  0
 58 61  1  0  0  0  0
 60 66  1  0  0  0  0
 60 69  1  0  0  0  0
 61 79  1  0  0  0  0
 62 65  1  0  0  0  0
 62 79  1  0  0  0  0
 63 67  1  0  0  0  0
 63 76  1  0  0  0  0
 64 78  1  0  0  0  0
 65 77  1  0  0  0  0
 66 87  1  0  0  0  0
 68 70  1  0  0  0  0
M  CHG  2  78   1  79   1
M  ISO  4  37 100  66 101  77 100  87 101
M  END
> <Batch ID>
0116

> <Smiles>
CCC(=O)c1c(CCNCC(C)[100NH:0][100C:0](=O)N2CCCC(n3nc(-c4ccc(Oc5ccc(F)cc5F)cc4)c(C(N)=O)c3N)C2)ccn1C[101CH:1](C)[101O:1]c1ccc2c(c1)CN(C(=O)C(NC(=O)C(C)NC)C(C)(C)C)C(C(=O)NC1CCCc3ccccc31)C2

> <Shape>
0.297

> <Color>
0.072

> <Negative vol penalty>
0.000

$$$$

  -OEChem-04052320133D

 84 92  0     1  0  0  0  0  0999 V2000
  -20.6029  -33.3578   16.4985 C   0  0  0  0  0  0  0  0  0  0  0  0
  -21.4893  -32.2948   16.3575 C   0  0  0  0  0  0  0  0  0  0  0  0
  -23.9456   -9.8215   22.2505 C   0  0  0  0  0  0  0  0  0  0  0  0
  -23.1619  -10.2117   19.9987 C   0  0  0  0  0  0  0  0  0  0  0  0
  -20.7478  -34.2485   17.5613 C   0  0  0  0  0  0  0  0  0  0  0  0
  -22.5219  -32.1227   17.2787 C   0  0  0  0  0  0  0  0  0  0  0  0
  -24.8382  -26.8118   19.2625 C   0  0  0  0  0  0  0  0  0  0  0  0
  -23.1868   -8.6527   22.3120 C   0  0  0  0  0  0  0  0  0  0  0  0
  -22.4031   -9.0429   20.0602 C   0  0  0  0  0  0  0  0  0  0  0  0
  -25.9720  -26.0878   18.8962 C   0  0  0  0  0  0  0  0  0  0  0  0
  -23.4217   -5.4689   21.1978 C   0  0  0  0  0  0  0  0  0  0  0  0
  -24.0289   -4.3289   21.7242 C   0  0  0  0  0  0  0  0  0  0  0  0
  -27.1942  -27.0923   20.7173 C   0  0  0  0  0  0  0  0  0  0  0  0
  -22.3476   -4.2335   23.4567 C   0  0  0  0  0  0  0  0  0  0  0  0
  -23.9331  -10.6011   21.0938 C   0  0  0  0  0  0  0  0  0  0  0  0
  -26.1126  -11.9248   21.1657 C   0  0  0  0  0  0  0  0  0  0  0  0
  -21.7768  -34.0815   18.5015 C   0  0  0  0  0  0  0  0  0  0  0  0
  -24.8770  -27.6911   20.3541 C   0  0  0  0  0  0  0  0  0  0  0  0
  -22.6815  -33.0128   18.3543 C   0  0  0  0  0  0  0  0  0  0  0  0
  -26.0588  -27.8243   21.0970 C   0  0  0  0  0  0  0  0  0  0  0  0
  -22.4156   -8.2634   21.2169 C   0  0  0  0  0  0  0  0  0  0  0  0
  -27.1511  -26.2302   19.6219 C   0  0  0  0  0  0  0  0  0  0  0  0
  -22.2775   -5.9913   21.8008 C   0  0  0  0  0  0  0  0  0  0  0  0
  -23.4918   -3.7111   22.8537 C   0  0  0  0  0  0  0  0  0  0  0  0
  -21.7404   -5.3736   22.9302 C   0  0  0  0  0  0  0  0  0  0  0  0
  -24.7162  -11.8088   21.0298 C   0  0  0  0  0  0  0  0  0  0  0  0
  -26.3606  -13.2686   21.0274 C   0  0  0  0  0  0  0  0  0  0  0  0
  -27.0974  -10.9086   21.3961 C   0  0  0  0  0  0  0  0  0  0  0  0
  -24.4761  -30.8221   20.7278 C   0  0  0  0  0  0  0  0  0  0  0  0
  -24.7181  -30.0831   23.8770 C   0  0  0  0  0  0  0  0  0  0  0  0
  -25.8497  -27.9273   26.2684 C   0  0  0  0  0  0  0  0  0  0  0  0
  -25.5260  -18.1278   18.4126 C   0  0  0  0  0  0  0  0  0  0  0  0
  -21.9220  -35.0974   19.6068 C   0  0  0  0  0  0  0  0  0  0  0  0
  -23.6378  -28.4446   20.7527 C   0  0  0  0  0  0  0  0  0  0  0  0
  -26.1468  -28.7399   22.2896 C   0  0  0  0  0  0  0  0  0  0  0  0
  -22.8160  -34.6281   20.7517 C   0  0  0  0  0  0  0  0  0  0  0  0
  -23.1907  -17.2095   20.9385 C   0  0  0  0  0  0  0  0  0  0  0  0
  -24.1006  -34.0113   20.2076 C   0  0  0  0  0  0  0  0  0  0  0  0
  -23.4905  -15.7313   21.1938 C   0  0  0  0  0  0  0  0  0  0  0  0
  -28.0863  -22.3784   20.9662 C   0  0  0  0  0  0  0  0  0  0  0  0
  -23.3529  -17.5717   19.4639 C   0  0  0  0  0  0  0  0  0  0  0  0
  -28.0330  -20.8521   20.9707 C   0  0  0  0  0  0  0  0  0  0  0  0
  -29.5456  -21.4375   19.3010 C   0  0  0  0  0  0  0  0  0  0  0  0
  -24.9554  -15.7290   19.1316 C   0  0  0  0  0  0  0  0  0  0  0  0
  -23.7993  -32.7783   19.3471 C   0  0  1  0  0  0  0  0  0  0  0  0
  -23.9374  -29.6989   21.5678 C   0  0  1  0  0  0  0  0  0  0  0  0
  -28.8814  -22.7467   19.7112 C   0  0  2  0  0  0  0  0  0  0  0  0
  -24.8596  -15.3285   20.6137 C   0  0  2  0  0  0  0  0  0  0  0  0
  -25.9282  -27.6100   28.7565 C   0  0  0  0  0  0  0  0  0  0  0  0
  -26.9178  -32.1885   24.0736 C   0  0  0  0  0  0  0  0  0  0  0  0
  -27.5905  -31.1805   26.2644 C   0  0  0  0  0  0  0  0  0  0  0  0
  -25.3166  -32.1701   25.9947 C   0  0  0  0  0  0  0  0  0  0  0  0
  -24.3220  -25.3975   26.1106 C   0  0  0  0  0  0  0  0  0  0  0  0
  -31.8148  -24.7583   18.9440 C   0  0  0  0  0  0  0  0  0  0  0  0
  -28.9842  -19.0943   19.5925 C   0  0  0  0  0  0  0  0  0  0  0  0
  -27.7492  -18.5303   17.3857 C   0  0  0  0  0  0  0  0  0  0  0  0
  -29.1683  -25.1743   20.3087 C   0  0  0  0  0  0  0  0  0  1  0  0
  -25.8542  -29.9731   24.8651 C   0  0  1  0  0  0  0  0  0  0  0  0
  -25.1648  -27.3121   27.4754 C   0  0  2  0  0  0  0  0  0  0  0  0
  -29.8729  -23.8770   19.9315 C   0  0  2  0  0  0  0  0  0  0  0  0
  -29.0736  -18.5796   18.1521 C   0  0  2  0  0  0  0  0  0  0  0  0
  -26.4190  -31.3622   25.2758 C   0  0  0  0  0  0  0  0  0  0  0  0
  -24.1190  -12.9852   20.8214 N   0  0  0  0  0  0  0  0  0  0  0  0
  -25.1450  -13.8532   20.8254 N   0  0  0  0  0  0  0  0  0  0  0  0
  -24.9102  -29.4599   22.6358 N   0  0  0  0  0  0  0  0  0  0  0  0
  -24.6728  -17.1645   18.9759 N   0  0  0  0  0  0  0  0  0  0  0  0
  -28.5038  -20.4671   19.6386 N   0  0  1  0  0  0  0  0  0  0  0  0
  -27.4977  -13.9954   21.0602 N   0  0  0  0  0  0  0  0  0  0  0  0
  -27.6870  -10.2859   20.2876 N   0  0  0  0  0  0  0  0  0  0  0  0
  -23.5008  -31.6373   20.1859 N   0  0  0  0  0  0  0  0  0  0  0  0
  -25.3496  -29.1796   25.9805 N   0  0  0  0  0  0  0  0  0  0  0  0
  -26.7607  -17.6589   17.9811 N   0  0  0  0  0  0  0  0  0  0  0  0
  -29.6514  -17.2024   18.1908 N   0  3  0  0  0  0  0  0  0  0  0  0
  -25.0689  -25.8332   27.3186 N   0  3  0  0  0  0  0  0  0  0  0  0
  -27.4324  -10.5515   22.5510 O   0  0  0  0  0  0  0  0  0  0  0  0
  -25.6872  -30.9414   20.5832 O   0  0  0  0  0  0  0  0  0  0  0  0
  -23.6951  -30.6934   24.1973 O   0  0  0  0  0  0  0  0  0  0  0  0
  -26.7420  -27.3558   25.6456 O   0  0  0  0  0  0  0  0  0  0  0  0
  -25.2127  -19.3185   18.3073 O   0  0  0  0  0  0  0  0  0  0  0  0
  -21.6753   -7.1228   21.2764 O   0  0  0  0  0  0  0  0  0  0  0  0
  -28.2594  -25.5253   19.2661 O   0  0  0  0  0  0  0  0  0  1  0  0
  -30.5945  -24.0707   18.7160 O   0  0  0  0  0  0  0  0  0  0  0  0
  -24.0741   -2.6154   23.3582 F   0  0  0  0  0  0  0  0  0  0  0  0
  -20.6407   -5.8701   23.5132 F   0  0  0  0  0  0  0  0  0  0  0  0
  1  2  1  0  0  0  0
  1  5  2  0  0  0  0
  2  6  2  0  0  0  0
  3  8  2  0  0  0  0
  3 15  1  0  0  0  0
  4  9  1  0  0  0  0
  4 15  2  0  0  0  0
  5 17  1  0  0  0  0
  6 19  1  0  0  0  0
  7 10  2  0  0  0  0
  7 18  1  0  0  0  0
  8 21  1  0  0  0  0
  9 21  2  0  0  0  0
 10 22  1  0  0  0  0
 11 12  2  0  0  0  0
 11 23  1  0  0  0  0
 12 24  1  0  0  0  0
 13 20  1  0  0  0  0
 13 22  2  0  0  0  0
 14 24  2  0  0  0  0
 14 25  1  0  0  0  0
 15 26  1  0  0  0  0
 16 26  1  0  0  0  0
 16 27  2  0  0  0  0
 16 28  1  0  0  0  0
 17 19  2  0  0  0  0
 17 33  1  0  0  0  0
 18 20  2  0  0  0  0
 18 34  1  0  0  0  0
 19 45  1  0  0  0  0
 20 35  1  0  0  0  0
 21 80  1  0  0  0  0
 22 81  1  0  0  0  0
 23 25  2  0  0  0  0
 23 80  1  0  0  0  0
 24 83  1  0  0  0  0
 25 84  1  0  0  0  0
 26 63  2  0  0  0  0
 27 64  1  0  0  0  0
 27 68  1  0  0  0  0
 28 69  1  0  0  0  0
 28 75  2  0  0  0  0
 29 46  1  0  0  0  0
 29 70  1  0  0  0  0
 29 76  2  0  0  0  0
 30 58  1  0  0  0  0
 30 65  1  0  0  0  0
 30 77  2  0  0  0  0
 31 59  1  0  0  0  0
 31 71  1  0  0  0  0
 31 78  2  0  0  0  0
 32 66  1  0  0  0  0
 32 72  1  0  0  0  0
 32 79  2  0  0  0  0
 33 36  1  0  0  0  0
 34 46  1  0  0  0  0
 35 65  1  0  0  0  0
 36 38  1  0  0  0  0
 37 39  1  0  0  0  0
 37 41  1  0  0  0  0
 38 45  1  0  0  0  0
 39 48  1  0  0  0  0
 40 42  1  0  0  0  0
 40 47  1  0  0  0  0
 41 66  1  0  0  0  0
 42 67  1  0  0  0  0
 43 47  1  0  0  0  0
 43 67  1  0  0  0  0
 44 48  1  0  0  0  0
 44 66  1  0  0  0  0
 45 70  1  0  0  0  0
 46 65  1  0  0  0  0
 47 60  1  0  0  0  0
 48 64  1  0  0  0  0
 49 59  1  0  0  0  0
 50 62  1  0  0  0  0
 51 62  1  0  0  0  0
 52 62  1  0  0  0  0
 53 74  1  0  0  0  0
 54 82  1  0  0  0  0
 55 61  1  0  0  0  0
 55 67  1  0  0  0  0
 56 61  1  0  0  0  0
 56 72  1  0  0  0  0
 57 60  1  0  0  0  0
 57 81  1  0  0  0  0
 58 62  1  0  0  0  0
 58 71  1  0  0  0  0
 59 74  1  0  0  0  0
 60 82  1  0  0  0  0
 61 73  1  0  0  0  0
 63 64  1  0  0  0  0
M  CHG  2  73   1  74   1
M  ISO  4  32 100  57 101  72 100  81 101
M  END
> <Batch ID>
0116

> <Smiles>
CNC(C)C(=O)NC(C(=O)N1Cc2cc([101O:1][101CH2:1]C(OC)C3CCN(CC(N)C[100NH:0][100C:0](=O)N4CCCC(n5nc(-c6ccc(Oc7ccc(F)cc7F)cc6)c(C(N)=O)c5N)C4)C3)ccc2CC1C(=O)NC1CCCc2ccccc21)C(C)(C)C

> <Shape>
0.284

> <Color>
0.083

> <Negative vol penalty>
0.000

$$$$

  -OEChem-04052320133D

 87 96  0     1  0  0  0  0  0999 V2000
  -17.3593  -29.5527   24.4946 C   0  0  0  0  0  0  0  0  0  0  0  0
  -17.9914  -28.3195   24.6176 C   0  0  0  0  0  0  0  0  0  0  0  0
  -22.9882  -10.1301   20.1052 C   0  0  0  0  0  0  0  0  0  0  0  0
  -24.2603   -9.4389   22.0394 C   0  0  0  0  0  0  0  0  0  0  0  0
  -17.5780  -30.3370   23.3628 C   0  0  0  0  0  0  0  0  0  0  0  0
  -18.8417  -27.8693   23.6083 C   0  0  0  0  0  0  0  0  0  0  0  0
  -23.9287  -24.5296   24.2973 C   0  0  0  0  0  0  0  0  0  0  0  0
  -27.2829  -18.4568   24.2234 C   0  0  0  0  0  0  0  0  0  0  0  0
  -28.6133  -18.2297   23.8715 C   0  0  0  0  0  0  0  0  0  0  0  0
  -22.3261   -8.9025   20.1019 C   0  0  0  0  0  0  0  0  0  0  0  0
  -23.5981   -8.2112   22.0361 C   0  0  0  0  0  0  0  0  0  0  0  0
  -24.1790  -23.1642   24.1680 C   0  0  0  0  0  0  0  0  0  0  0  0
  -20.6006   -6.9972   23.0169 C   0  0  0  0  0  0  0  0  0  0  0  0
  -20.1366   -6.5096   24.2386 C   0  0  0  0  0  0  0  0  0  0  0  0
  -24.9394  -23.5238   21.9071 C   0  0  0  0  0  0  0  0  0  0  0  0
  -26.7487  -18.9106   21.9113 C   0  0  0  0  0  0  0  0  0  0  0  0
  -21.5206   -4.5462   23.9806 C   0  0  0  0  0  0  0  0  0  0  0  0
  -23.9554  -10.3983   21.0739 C   0  0  0  0  0  0  0  0  0  0  0  0
  -24.2528  -12.8395   21.7519 C   0  0  0  0  0  0  0  0  0  0  0  0
  -18.4390  -29.9005   22.3435 C   0  0  0  0  0  0  0  0  0  0  0  0
  -24.1720  -25.4023   23.2270 C   0  0  0  0  0  0  0  0  0  0  0  0
  -19.0711  -28.6479   22.4612 C   0  0  0  0  0  0  0  0  0  0  0  0
  -24.6938  -24.9003   22.0262 C   0  0  0  0  0  0  0  0  0  0  0  0
  -26.3505  -18.7972   23.2433 C   0  0  0  0  0  0  0  0  0  0  0  0
  -29.0115  -18.3431   22.5395 C   0  0  0  0  0  0  0  0  0  0  0  0
  -28.0792  -18.6835   21.5594 C   0  0  0  0  0  0  0  0  0  0  0  0
  -22.6310   -7.9430   21.0674 C   0  0  0  0  0  0  0  0  0  0  0  0
  -24.6817  -22.6607   22.9719 C   0  0  0  0  0  0  0  0  0  0  0  0
  -21.5246   -6.2593   22.2769 C   0  0  0  0  0  0  0  0  0  0  0  0
  -20.5966   -5.2841   24.7204 C   0  0  0  0  0  0  0  0  0  0  0  0
  -21.9846   -5.0338   22.7588 C   0  0  0  0  0  0  0  0  0  0  0  0
  -24.6402  -11.6661   21.0775 C   0  0  0  0  0  0  0  0  0  0  0  0
  -25.2286  -13.7538   21.4380 C   0  0  0  0  0  0  0  0  0  0  0  0
  -23.1131  -13.0814   22.5874 C   0  0  0  0  0  0  0  0  0  0  0  0
  -22.3745  -27.3338   21.4544 C   0  0  0  0  0  0  0  0  0  0  0  0
  -25.2382  -28.2276   20.2205 C   0  0  0  0  0  0  0  0  0  0  0  0
  -28.5035  -27.4425   19.6136 C   0  0  0  0  0  0  0  0  0  0  0  0
  -30.6030  -15.0984   20.7654 C   0  0  0  0  0  0  0  0  0  0  0  0
  -18.6073  -30.7620   21.1171 C   0  0  0  0  0  0  0  0  0  0  0  0
  -23.9219  -26.8764   23.3914 C   0  0  0  0  0  0  0  0  0  0  0  0
  -24.9912  -25.7980   20.8540 C   0  0  0  0  0  0  0  0  0  0  0  0
  -19.8154  -30.3801   20.2656 C   0  0  0  0  0  0  0  0  0  0  0  0
  -28.9486  -13.5550   18.0163 C   0  0  0  0  0  0  0  0  0  0  0  0
  -29.0430  -22.3438   19.2096 C   0  0  0  0  0  0  0  0  0  0  0  0
  -29.1641  -21.5352   17.9337 C   0  0  0  0  0  0  0  0  0  0  0  0
  -19.8680  -28.8694   20.0608 C   0  0  0  0  0  0  0  0  0  0  0  0
  -27.6520  -13.0177   18.6245 C   0  0  0  0  0  0  0  0  0  0  0  0
  -30.1191  -13.4397   18.9903 C   0  0  0  0  0  0  0  0  0  0  0  0
  -28.5896  -13.5115   20.9214 C   0  0  0  0  0  0  0  0  0  0  0  0
  -28.4992  -21.3294   20.1926 C   0  0  0  0  0  0  0  0  0  0  0  0
  -29.7077  -20.1949   18.3967 C   0  0  0  0  0  0  0  0  0  0  0  0
  -20.0199  -28.1362   21.3991 C   0  0  1  0  0  0  0  0  0  0  0  0
  -23.7219  -27.6003   22.0635 C   0  0  1  0  0  0  0  0  0  0  0  0
  -27.3689  -13.6579   19.9969 C   0  0  2  0  0  0  0  0  0  0  0  0
  -30.5856  -28.3586   18.5539 C   0  0  0  0  0  0  0  0  0  0  0  0
  -24.0952  -27.6222   17.4570 C   0  0  0  0  0  0  0  0  0  0  0  0
  -26.4344  -27.6301   16.5644 C   0  0  0  0  0  0  0  0  0  0  0  0
  -25.4818  -29.6998   17.5801 C   0  0  0  0  0  0  0  0  0  0  0  0
  -29.9841  -27.3564   22.1747 C   0  0  0  0  0  0  0  0  0  0  0  0
  -24.9109  -19.0433   23.6245 C   0  0  0  0  0  0  0  0  0  0  0  0
  -30.4417  -18.0964   22.1869 C   0  0  0  0  0  0  0  0  0  0  0  0
  -28.4825  -18.8110   20.1269 C   0  0  0  0  0  0  0  0  0  0  0  0
  -30.9485  -16.7152   22.6162 C   0  0  0  0  0  0  0  0  0  0  0  0
  -24.6450  -20.5038   23.9730 C   0  0  0  0  0  0  0  0  0  1  0  0
  -26.1024  -27.7578   19.0753 C   0  0  1  0  0  0  0  0  0  0  0  0
  -29.7859  -28.2225   19.8403 C   0  0  2  0  0  0  0  0  0  0  0  0
  -25.5211  -28.1600   17.6905 C   0  0  0  0  0  0  0  0  0  0  0  0
  -25.7734  -11.8182   20.3872 N   0  0  0  0  0  0  0  0  0  0  0  0
  -26.1066  -13.0981   20.6261 N   0  0  0  0  0  0  0  0  0  0  0  0
  -24.7240  -27.2308   21.0618 N   0  0  0  0  0  0  0  0  0  0  0  0
  -29.7866  -14.0677   20.2713 N   0  0  0  0  0  0  0  0  0  0  0  0
  -25.4125  -15.0467   21.7800 N   0  0  0  0  0  0  0  0  0  0  0  0
  -22.2098  -12.0322   22.8055 N   0  0  0  0  0  0  0  0  0  0  0  0
  -21.3884  -28.2110   21.8639 N   0  0  0  0  0  0  0  0  0  0  0  0
  -27.4412  -28.2762   19.3348 N   0  0  0  0  0  0  0  0  0  0  0  0
  -30.2134  -15.6433   21.9827 N   0  0  0  0  0  0  0  0  0  0  0  0
  -29.2464  -20.0629   19.8367 N   0  3  0  0  0  0  0  0  0  0  0  0
  -30.6374  -27.5362   20.8527 N   0  3  0  0  0  0  0  0  0  0  0  0
  -22.8931  -14.1998   23.1113 O   0  0  0  0  0  0  0  0  0  0  0  0
  -22.2397  -26.4022   20.6697 O   0  0  0  0  0  0  0  0  0  0  0  0
  -25.0330  -29.4351   20.3675 O   0  0  0  0  0  0  0  0  0  0  0  0
  -28.4502  -26.2161   19.6738 O   0  0  0  0  0  0  0  0  0  0  0  0
  -31.6020  -15.5067   20.1634 O   0  0  0  0  0  0  0  0  0  0  0  0
  -21.9848   -6.7451   21.0646 O   0  0  0  0  0  0  0  0  0  0  0  0
  -24.9263  -21.3283   22.8428 O   0  0  0  0  0  0  0  0  0  1  0  0
  -20.1522   -4.8167   25.8944 F   0  0  0  0  0  0  0  0  0  0  0  0
  -22.8731   -4.3209   22.0530 F   0  0  0  0  0  0  0  0  0  0  0  0
  1  2  1  0  0  0  0
  1  5  2  0  0  0  0
  2  6  2  0  0  0  0
  3 10  2  0  0  0  0
  3 18  1  0  0  0  0
  4 11  1  0  0  0  0
  4 18  2  0  0  0  0
  5 20  1  0  0  0  0
  6 22  1  0  0  0  0
  7 12  2  0  0  0  0
  7 21  1  0  0  0  0
  8  9  2  0  0  0  0
  8 24  1  0  0  0  0
  9 25  1  0  0  0  0
 10 27  1  0  0  0  0
 11 27  2  0  0  0  0
 12 28  1  0  0  0  0
 13 14  2  0  0  0  0
 13 29  1  0  0  0  0
 14 30  1  0  0  0  0
 15 23  1  0  0  0  0
 15 28  2  0  0  0  0
 16 24  2  0  0  0  0
 16 26  1  0  0  0  0
 17 30  2  0  0  0  0
 17 31  1  0  0  0  0
 18 32  1  0  0  0  0
 19 32  1  0  0  0  0
 19 33  2  0  0  0  0
 19 34  1  0  0  0  0
 20 22  2  0  0  0  0
 20 39  1  0  0  0  0
 21 23  2  0  0  0  0
 21 40  1  0  0  0  0
 22 52  1  0  0  0  0
 23 41  1  0  0  0  0
 24 60  1  0  0  0  0
 25 26  2  0  0  0  0
 25 61  1  0  0  0  0
 26 62  1  0  0  0  0
 27 84  1  0  0  0  0
 28 85  1  0  0  0  0
 29 31  2  0  0  0  0
 29 84  1  0  0  0  0
 30 86  1  0  0  0  0
 31 87  1  0  0  0  0
 32 68  2  0  0  0  0
 33 69  1  0  0  0  0
 33 72  1  0  0  0  0
 34 73  1  0  0  0  0
 34 79  2  0  0  0  0
 35 53  1  0  0  0  0
 35 74  1  0  0  0  0
 35 80  2  0  0  0  0
 36 65  1  0  0  0  0
 36 70  1  0  0  0  0
 36 81  2  0  0  0  0
 37 66  1  0  0  0  0
 37 75  1  0  0  0  0
 37 82  2  0  0  0  0
 38 71  1  0  0  0  0
 38 76  1  0  0  0  0
 38 83  2  0  0  0  0
 39 42  1  0  0  0  0
 40 53  1  0  0  0  0
 41 70  1  0  0  0  0
 42 46  1  0  0  0  0
 43 47  1  0  0  0  0
 43 48  1  0  0  0  0
 44 45  1  0  0  0  0
 44 50  1  0  0  0  0
 45 51  1  0  0  0  0
 46 52  1  0  0  0  0
 47 54  1  0  0  0  0
 48 71  1  0  0  0  0
 49 54  1  0  0  0  0
 49 71  1  0  0  0  0
 50 77  1  0  0  0  0
 51 77  1  0  0  0  0
 52 74  1  0  0  0  0
 53 70  1  0  0  0  0
 54 69  1  0  0  0  0
 55 66  1  0  0  0  0
 56 67  1  0  0  0  0
 57 67  1  0  0  0  0
 58 67  1  0  0  0  0
 59 78  1  0  0  0  0
 60 64  1  0  0  0  0
 61 63  1  0  0  0  0
 62 77  1  0  0  0  0
 63 76  1  0  0  0  0
 64 85  1  0  0  0  0
 65 67  1  0  0  0  0
 65 75  1  0  0  0  0
 66 78  1  0  0  0  0
 68 69  1  0  0  0  0
M  CHG  2  77   1  78   1
M  ISO  4  38 100  64 101  76 100  85 101
M  END
> <Batch ID>
0116

> <Smiles>
CNC(C)C(=O)NC(C(=O)N1Cc2cc([101O:1][101CH2:1]Cc3ccc(CC[100NH:0][100C:0](=O)N4CCCC(n5nc(-c6ccc(Oc7ccc(F)cc7F)cc6)c(C(N)=O)c5N)C4)c(CN4CCCC4)c3)ccc2CC1C(=O)NC1CCCc2ccccc21)C(C)(C)C

> <Shape>
0.315

> <Color>
0.146

> <Negative vol penalty>
0.000

$$$$

  -OEChem-04052320133D

 85 93  0     1  0  0  0  0  0999 V2000
  -22.7400  -20.1407   28.4281 C   0  0  0  0  0  0  0  0  0  0  0  0
  -23.9901  -20.6035   28.0300 C   0  0  0  0  0  0  0  0  0  0  0  0
  -26.7895  -13.0186   21.0638 C   0  0  0  0  0  0  0  0  0  0  0  0
  -26.5916  -13.3915   18.6849 C   0  0  0  0  0  0  0  0  0  0  0  0
  -21.6457  -20.2698   27.5739 C   0  0  0  0  0  0  0  0  0  0  0  0
  -24.1468  -21.1948   26.7769 C   0  0  0  0  0  0  0  0  0  0  0  0
  -27.9346  -26.2740   23.4347 C   0  0  0  0  0  0  0  0  0  0  0  0
  -26.1882  -11.7685   20.9179 C   0  0  0  0  0  0  0  0  0  0  0  0
  -25.9903  -12.1414   18.5390 C   0  0  0  0  0  0  0  0  0  0  0  0
  -28.7356  -26.4542   22.3079 C   0  0  0  0  0  0  0  0  0  0  0  0
  -23.0641  -10.5376   20.5312 C   0  0  0  0  0  0  0  0  0  0  0  0
  -22.0708  -10.1864   21.4453 C   0  0  0  0  0  0  0  0  0  0  0  0
  -26.7578  -26.6954   20.9479 C   0  0  0  0  0  0  0  0  0  0  0  0
  -28.5621  -24.4464   17.8340 C   0  0  0  0  0  0  0  0  0  0  0  0
  -23.3824   -8.2791   22.1376 C   0  0  0  0  0  0  0  0  0  0  0  0
  -26.9911  -13.8301   19.9473 C   0  0  0  0  0  0  0  0  0  0  0  0
  -28.9864  -15.4176   20.0293 C   0  0  0  0  0  0  0  0  0  0  0  0
  -21.7870  -20.8716   26.3136 C   0  0  0  0  0  0  0  0  0  0  0  0
  -26.5367  -26.2923   23.3246 C   0  0  0  0  0  0  0  0  0  0  0  0
  -23.0536  -21.3308   25.9045 C   0  0  0  0  0  0  0  0  0  0  0  0
  -25.9413  -26.5177   22.0753 C   0  0  0  0  0  0  0  0  0  0  0  0
  -29.9567  -24.6717   17.9406 C   0  0  0  0  0  0  0  0  0  0  0  0
  -25.7886  -11.3299   19.6555 C   0  0  0  0  0  0  0  0  0  0  0  0
  -28.1473  -26.6621   21.0638 C   0  0  0  0  0  0  0  0  0  0  0  0
  -24.2165   -9.7595   20.4202 C   0  0  0  0  0  0  0  0  0  0  0  0
  -22.2300   -9.0571   22.2485 C   0  0  0  0  0  0  0  0  0  0  0  0
  -24.3756   -8.6303   21.2234 C   0  0  0  0  0  0  0  0  0  0  0  0
  -27.6117  -15.1218   20.0975 C   0  0  0  0  0  0  0  0  0  0  0  0
  -28.3885  -23.2050   17.2630 C   0  0  0  0  0  0  0  0  0  0  0  0
  -30.5929  -23.5612   17.4313 C   0  0  0  0  0  0  0  0  0  0  0  0
  -29.0564  -16.7738   20.2352 C   0  0  0  0  0  0  0  0  0  0  0  0
  -30.1004  -14.5445   19.8003 C   0  0  0  0  0  0  0  0  0  0  0  0
  -24.2156  -24.1915   23.8749 C   0  0  0  0  0  0  0  0  0  0  0  0
  -22.2989  -26.7260   23.2231 C   0  0  0  0  0  0  0  0  0  0  0  0
  -21.9164  -29.7502   21.6886 C   0  0  0  0  0  0  0  0  0  0  0  0
  -26.1461  -21.6325   19.0364 C   0  0  0  0  0  0  0  0  0  0  0  0
  -20.5849  -20.9462   25.4058 C   0  0  0  0  0  0  0  0  0  0  0  0
  -25.6869  -26.1229   24.5540 C   0  0  0  0  0  0  0  0  0  0  0  0
  -24.4454  -26.5665   21.9069 C   0  0  0  0  0  0  0  0  0  0  0  0
  -20.7575  -21.9231   24.2455 C   0  0  0  0  0  0  0  0  0  0  0  0
  -26.0708  -20.1475   22.2715 C   0  0  0  0  0  0  0  0  0  0  0  0
  -22.1151  -21.7253   23.5787 C   0  0  0  0  0  0  0  0  0  0  0  0
  -26.5882  -18.7276   22.0343 C   0  0  0  0  0  0  0  0  0  0  0  0
  -25.2153  -20.6385   21.1057 C   0  0  0  0  0  0  0  0  0  0  0  0
  -26.3773  -19.1257   19.5452 C   0  0  0  0  0  0  0  0  0  0  0  0
  -23.2585  -22.0003   24.5628 C   0  0  1  0  0  0  0  0  0  0  0  0
  -24.2714  -25.6477   24.2410 C   0  0  1  0  0  0  0  0  0  0  0  0
  -27.2914  -18.6079   20.6689 C   0  0  2  0  0  0  0  0  0  0  0  0
  -30.2940  -21.4893   14.9683 C   0  0  0  0  0  0  0  0  0  0  0  0
  -32.7649  -23.2069   18.6604 C   0  0  0  0  0  0  0  0  0  0  0  0
  -32.7700  -24.2598   16.3699 C   0  0  0  0  0  0  0  0  0  0  0  0
  -20.2249  -31.5631   21.3021 C   0  0  0  0  0  0  0  0  0  0  0  0
  -20.9000  -24.9758   21.1519 C   0  0  0  0  0  0  0  0  0  0  0  0
  -19.9092  -27.0537   20.1675 C   0  0  0  0  0  0  0  0  0  0  0  0
  -19.3672  -26.4066   22.5149 C   0  0  0  0  0  0  0  0  0  0  0  0
  -23.5917  -31.7662   23.0627 C   0  0  0  0  0  0  0  0  0  0  0  0
  -27.1439  -22.4825   16.9290 C   0  0  0  0  0  0  0  0  0  0  0  0
  -29.8837  -21.3812   16.4269 C   0  0  0  0  0  0  0  0  0  0  0  0
  -30.1967  -26.1868   19.9548 C   0  0  0  0  0  0  0  0  0  1  0  0
  -30.6167  -25.9060   18.5103 C   0  0  2  0  0  0  0  0  0  0  0  0
  -32.0358  -23.2668   17.2991 C   0  0  0  0  0  0  0  0  0  0  0  0
  -21.6707  -27.2983   21.9754 C   0  0  1  0  0  0  0  0  0  0  0  0
  -21.3577  -31.0701   22.1888 C   0  0  2  0  0  0  0  0  0  0  0  0
  -20.4900  -26.4308   21.4550 C   0  0  0  0  0  0  0  0  0  0  0  0
  -26.8625  -16.2031   20.3288 N   0  0  0  0  0  0  0  0  0  0  0  0
  -29.6298  -22.6763   17.0222 N   0  0  0  0  0  0  0  0  0  0  0  0
  -27.7696  -17.1915   20.4078 N   0  0  0  0  0  0  0  0  0  0  0  0
  -23.6572  -26.3892   23.1377 N   0  0  0  0  0  0  0  0  0  0  0  0
  -25.9406  -20.4993   19.8405 N   0  0  0  0  0  0  0  0  0  0  0  0
  -30.0926  -17.6377   20.2837 N   0  0  0  0  0  0  0  0  0  0  0  0
  -29.8505  -13.1789   19.6077 N   0  0  0  0  0  0  0  0  0  0  0  0
  -23.4485  -23.4250   24.7314 N   0  0  0  0  0  0  0  0  0  0  0  0
  -21.3055  -28.6738   22.2964 N   0  0  0  0  0  0  0  0  0  0  0  0
  -26.8481  -21.4141   17.8573 N   0  0  0  0  0  0  0  0  0  0  0  0
  -30.3311  -27.1298   17.6945 N   0  3  0  0  0  0  0  0  0  0  0  0
  -22.4252  -32.1098   22.2094 N   0  3  0  0  0  0  0  0  0  0  0  0
  -31.2837  -14.9604   19.7836 O   0  0  0  0  0  0  0  0  0  0  0  0
  -24.8224  -23.7931   22.8876 O   0  0  0  0  0  0  0  0  0  0  0  0
  -21.6116  -26.5896   24.2383 O   0  0  0  0  0  0  0  0  0  0  0  0
  -22.8034  -29.6809   20.8406 O   0  0  0  0  0  0  0  0  0  0  0  0
  -25.7392  -22.7567   19.3489 O   0  0  0  0  0  0  0  0  0  0  0  0
  -25.2021  -10.1100   19.5127 O   0  0  0  0  0  0  0  0  0  0  0  0
  -28.9268  -26.8377   19.9623 O   0  0  0  0  0  0  0  0  0  1  0  0
  -21.2768   -8.7208   23.1274 F   0  0  0  0  0  0  0  0  0  0  0  0
  -25.4811   -7.8796   21.1221 F   0  0  0  0  0  0  0  0  0  0  0  0
  1  2  1  0  0  0  0
  1  5  2  0  0  0  0
  2  6  2  0  0  0  0
  3  8  2  0  0  0  0
  3 16  1  0  0  0  0
  4  9  1  0  0  0  0
  4 16  2  0  0  0  0
  5 18  1  0  0  0  0
  6 20  1  0  0  0  0
  7 10  2  0  0  0  0
  7 19  1  0  0  0  0
  8 23  1  0  0  0  0
  9 23  2  0  0  0  0
 10 24  1  0  0  0  0
 11 12  2  0  0  0  0
 11 25  1  0  0  0  0
 12 26  1  0  0  0  0
 13 21  1  0  0  0  0
 13 24  2  0  0  0  0
 14 22  1  0  0  0  0
 14 29  2  0  0  0  0
 15 26  2  0  0  0  0
 15 27  1  0  0  0  0
 16 28  1  0  0  0  0
 17 28  1  0  0  0  0
 17 31  2  0  0  0  0
 17 32  1  0  0  0  0
 18 20  2  0  0  0  0
 18 37  1  0  0  0  0
 19 21  2  0  0  0  0
 19 38  1  0  0  0  0
 20 46  1  0  0  0  0
 21 39  1  0  0  0  0
 22 30  2  0  0  0  0
 22 60  1  0  0  0  0
 23 82  1  0  0  0  0
 24 83  1  0  0  0  0
 25 27  2  0  0  0  0
 25 82  1  0  0  0  0
 26 84  1  0  0  0  0
 27 85  1  0  0  0  0
 28 65  2  0  0  0  0
 29 57  1  0  0  0  0
 29 66  1  0  0  0  0
 30 61  1  0  0  0  0
 30 66  1  0  0  0  0
 31 67  1  0  0  0  0
 31 70  1  0  0  0  0
 32 71  1  0  0  0  0
 32 77  2  0  0  0  0
 33 47  1  0  0  0  0
 33 72  1  0  0  0  0
 33 78  2  0  0  0  0
 34 62  1  0  0  0  0
 34 68  1  0  0  0  0
 34 79  2  0  0  0  0
 35 63  1  0  0  0  0
 35 73  1  0  0  0  0
 35 80  2  0  0  0  0
 36 69  1  0  0  0  0
 36 74  1  0  0  0  0
 36 81  2  0  0  0  0
 37 40  1  0  0  0  0
 38 47  1  0  0  0  0
 39 68  1  0  0  0  0
 40 42  1  0  0  0  0
 41 43  1  0  0  0  0
 41 44  1  0  0  0  0
 42 46  1  0  0  0  0
 43 48  1  0  0  0  0
 44 69  1  0  0  0  0
 45 48  1  0  0  0  0
 45 69  1  0  0  0  0
 46 72  1  0  0  0  0
 47 68  1  0  0  0  0
 48 67  1  0  0  0  0
 49 58  1  0  0  0  0
 50 61  1  0  0  0  0
 51 61  1  0  0  0  0
 52 63  1  0  0  0  0
 53 64  1  0  0  0  0
 54 64  1  0  0  0  0
 55 64  1  0  0  0  0
 56 76  1  0  0  0  0
 57 74  1  0  0  0  0
 58 66  1  0  0  0  0
 59 60  1  0  0  0  0
 59 83  1  0  0  0  0
 60 75  1  0  0  0  0
 62 64  1  0  0  0  0
 62 73  1  0  0  0  0
 63 76  1  0  0  0  0
 65 67  1  0  0  0  0
M  CHG  2  75   1  76   1
M  ISO  4  36 100  59 101  74 100  83 101
M  END
> <Batch ID>
0116

> <Smiles>
CCn1c(C[100NH:0][100C:0](=O)N2CCCC(n3nc(-c4ccc(Oc5ccc(F)cc5F)cc4)c(C(N)=O)c3N)C2)cc(C(N)[101CH2:1][101O:1]c2ccc3c(c2)CN(C(=O)C(NC(=O)C(C)NC)C(C)(C)C)C(C(=O)NC2CCCc4ccccc42)C3)c1C(C)C

> <Shape>
0.211

> <Color>
0.076

> <Negative vol penalty>
0.000

$$$$

  -OEChem-04052320133D

 86 94  0     1  0  0  0  0  0999 V2000
  -23.1416  -19.3385   23.3021 C   0  0  0  0  0  0  0  0  0  0  0  0
  -24.3744  -19.9527   23.4981 C   0  0  0  0  0  0  0  0  0  0  0  0
  -24.1512   -9.6282   21.1364 C   0  0  0  0  0  0  0  0  0  0  0  0
  -24.6755  -10.5221   23.3188 C   0  0  0  0  0  0  0  0  0  0  0  0
  -22.1366  -20.0032   22.6006 C   0  0  0  0  0  0  0  0  0  0  0  0
  -24.6033  -21.2316   22.9917 C   0  0  0  0  0  0  0  0  0  0  0  0
  -26.9075  -24.2603   26.3327 C   0  0  0  0  0  0  0  0  0  0  0  0
  -23.7382   -8.4330   21.7251 C   0  0  0  0  0  0  0  0  0  0  0  0
  -24.2624   -9.3269   23.9076 C   0  0  0  0  0  0  0  0  0  0  0  0
  -28.2806  -24.0906   26.5047 C   0  0  0  0  0  0  0  0  0  0  0  0
  -21.0122   -7.2695   23.3524 C   0  0  0  0  0  0  0  0  0  0  0  0
  -19.8173   -6.7057   22.9053 C   0  0  0  0  0  0  0  0  0  0  0  0
  -28.6888  -25.9833   25.0659 C   0  0  0  0  0  0  0  0  0  0  0  0
  -21.0085   -4.7137   22.2342 C   0  0  0  0  0  0  0  0  0  0  0  0
  -24.6199  -10.6727   21.9333 C   0  0  0  0  0  0  0  0  0  0  0  0
  -24.2556  -13.0390   21.0526 C   0  0  0  0  0  0  0  0  0  0  0  0
  -22.3500  -21.2948   22.0937 C   0  0  0  0  0  0  0  0  0  0  0  0
  -26.4142  -25.2879   25.5159 C   0  0  0  0  0  0  0  0  0  0  0  0
  -23.6006  -21.9137   22.2816 C   0  0  0  0  0  0  0  0  0  0  0  0
  -27.3089  -26.1655   24.8872 C   0  0  0  0  0  0  0  0  0  0  0  0
  -23.7938   -8.2824   23.1106 C   0  0  0  0  0  0  0  0  0  0  0  0
  -29.1715  -24.9503   25.8690 C   0  0  0  0  0  0  0  0  0  0  0  0
  -22.2053   -6.5555   23.2404 C   0  0  0  0  0  0  0  0  0  0  0  0
  -19.8154   -5.4278   22.3463 C   0  0  0  0  0  0  0  0  0  0  0  0
  -22.2034   -5.2776   22.6813 C   0  0  0  0  0  0  0  0  0  0  0  0
  -25.0472  -11.9074   21.3257 C   0  0  0  0  0  0  0  0  0  0  0  0
  -25.1239  -13.9349   20.4781 C   0  0  0  0  0  0  0  0  0  0  0  0
  -22.8603  -13.2607   21.2965 C   0  0  0  0  0  0  0  0  0  0  0  0
  -24.6801  -25.4008   22.8543 C   0  0  0  0  0  0  0  0  0  0  0  0
  -24.7557  -28.5967   23.4043 C   0  0  0  0  0  0  0  0  0  0  0  0
  -26.3347  -31.2496   24.8589 C   0  0  0  0  0  0  0  0  0  0  0  0
  -30.0700  -16.5161   20.3431 C   0  0  0  0  0  0  0  0  0  0  0  0
  -21.2495  -21.9546   21.3011 C   0  0  0  0  0  0  0  0  0  0  0  0
  -24.9296  -25.4742   25.3620 C   0  0  0  0  0  0  0  0  0  0  0  0
  -26.8298  -27.2969   24.0161 C   0  0  0  0  0  0  0  0  0  0  0  0
  -21.4458  -23.4576   21.1207 C   0  0  0  0  0  0  0  0  0  0  0  0
  -29.8533  -13.3181   18.7932 C   0  0  0  0  0  0  0  0  0  0  0  0
  -22.8793  -23.7617   20.6972 C   0  0  0  0  0  0  0  0  0  0  0  0
  -29.2031  -21.5443   22.0772 C   0  0  0  0  0  0  0  0  0  0  0  0
  -28.4251  -21.1778   20.8159 C   0  0  0  0  0  0  0  0  0  0  0  0
  -28.5220  -12.7573   19.2962 C   0  0  0  0  0  0  0  0  0  0  0  0
  -30.2070  -19.2305   22.1346 C   0  0  0  0  0  0  0  0  0  0  0  0
  -30.5642  -14.1353   19.8697 C   0  0  0  0  0  0  0  0  0  0  0  0
  -28.4205  -14.6503   20.9710 C   0  0  0  0  0  0  0  0  0  0  0  0
  -23.8788  -23.3101   21.7690 C   0  0  1  0  0  0  0  0  0  0  0  0
  -24.5511  -26.2369   24.0961 C   0  0  1  0  0  0  0  0  0  0  0  0
  -30.4995  -20.7355   22.1947 C   0  0  2  0  0  0  0  0  0  0  0  0
  -28.1253  -19.6722   20.7425 C   0  0  2  0  0  0  0  0  0  0  0  0
  -27.6401  -13.8653   19.9027 C   0  0  2  0  0  0  0  0  0  0  0  0
  -29.4272  -18.8547   20.8694 C   0  0  2  0  0  0  0  0  0  0  0  0
  -27.3750  -19.3582   19.4449 C   0  0  0  0  0  0  0  0  0  0  0  0
  -26.1811  -33.7427   25.1004 C   0  0  0  0  0  0  0  0  0  0  0  0
  -32.4882  -20.2182   23.6364 C   0  0  0  0  0  0  0  0  0  0  0  0
  -25.8077  -28.9347   20.5601 C   0  0  0  0  0  0  0  0  0  0  0  0
  -26.5203  -31.2550   21.1739 C   0  0  0  0  0  0  0  0  0  0  0  0
  -24.1060  -30.6320   21.2516 C   0  0  0  0  0  0  0  0  0  0  0  0
  -33.4544  -24.5371   26.2387 C   0  0  0  0  0  0  0  0  0  0  0  0
  -33.5076  -24.7277   23.7260 C   0  0  0  0  0  0  0  0  0  0  0  0
  -26.0577  -31.0640   27.7996 C   0  0  0  0  0  0  0  0  0  0  0  0
  -31.5566  -22.5871   23.5841 C   0  0  0  0  0  0  0  0  0  0  0  0
  -31.3537  -25.1826   24.9523 C   0  0  0  0  0  0  0  0  0  1  0  0
  -25.6770  -29.7272   23.0139 C   0  0  1  0  0  0  0  0  0  0  0  0
  -25.8077  -32.3968   25.7020 C   0  0  2  0  0  0  0  0  0  0  0  0
  -31.2412  -21.0904   23.4823 C   0  0  1  0  0  0  0  0  0  0  0  0
  -25.5371  -30.1148   21.5147 C   0  0  0  0  0  0  0  0  0  0  0  0
  -32.6550  -24.3707   24.9446 C   0  0  0  0  0  0  0  0  0  0  0  0
  -26.3204  -12.0671   20.9550 N   0  0  0  0  0  0  0  0  0  0  0  0
  -26.3355  -13.3095   20.4430 N   0  0  0  0  0  0  0  0  0  0  0  0
  -25.3692  -27.4340   23.8917 N   0  0  0  0  0  0  0  0  0  0  0  0
  -29.6742  -15.1697   20.4024 N   0  0  0  0  0  0  0  0  0  0  0  0
  -24.9615  -15.1885   20.0044 N   0  0  0  0  0  0  0  0  0  0  0  0
  -22.1154  -12.2352   21.8947 N   0  0  0  0  0  0  0  0  0  0  0  0
  -23.9068  -24.2556   22.8644 N   0  0  0  0  0  0  0  0  0  0  0  0
  -25.3998  -30.8185   23.9416 N   0  0  0  0  0  0  0  0  0  0  0  0
  -29.1651  -17.4327   20.8643 N   0  0  0  0  0  0  0  0  0  0  0  0
  -26.3686  -32.3264   27.0809 N   0  3  0  0  0  0  0  0  0  0  0  0
  -32.2915  -22.9207   24.8268 N   0  3  0  0  0  0  0  0  0  0  0  0
  -22.2872  -14.3302   20.9781 O   0  0  0  0  0  0  0  0  0  0  0  0
  -25.4248  -25.7682   21.9532 O   0  0  0  0  0  0  0  0  0  0  0  0
  -23.5364  -28.7427   23.2880 O   0  0  0  0  0  0  0  0  0  0  0  0
  -27.4641  -30.7851   24.9974 O   0  0  0  0  0  0  0  0  0  0  0  0
  -31.1476  -16.8752   19.8566 O   0  0  0  0  0  0  0  0  0  0  0  0
  -23.3906   -7.1163   23.6854 O   0  0  0  0  0  0  0  0  0  0  0  0
  -30.5123  -24.7864   26.0346 O   0  0  0  0  0  0  0  0  0  1  0  0
  -18.6677   -4.8858   21.9184 F   0  0  0  0  0  0  0  0  0  0  0  0
  -23.3462   -4.5863   22.5721 F   0  0  0  0  0  0  0  0  0  0  0  0
  1  2  1  0  0  0  0
  1  5  2  0  0  0  0
  2  6  2  0  0  0  0
  3  8  2  0  0  0  0
  3 15  1  0  0  0  0
  4  9  1  0  0  0  0
  4 15  2  0  0  0  0
  5 17  1  0  0  0  0
  6 19  1  0  0  0  0
  7 10  2  0  0  0  0
  7 18  1  0  0  0  0
  8 21  1  0  0  0  0
  9 21  2  0  0  0  0
 10 22  1  0  0  0  0
 11 12  2  0  0  0  0
 11 23  1  0  0  0  0
 12 24  1  0  0  0  0
 13 20  1  0  0  0  0
 13 22  2  0  0  0  0
 14 24  2  0  0  0  0
 14 25  1  0  0  0  0
 15 26  1  0  0  0  0
 16 26  1  0  0  0  0
 16 27  2  0  0  0  0
 16 28  1  0  0  0  0
 17 19  2  0  0  0  0
 17 33  1  0  0  0  0
 18 20  2  0  0  0  0
 18 34  1  0  0  0  0
 19 45  1  0  0  0  0
 20 35  1  0  0  0  0
 21 83  1  0  0  0  0
 22 84  1  0  0  0  0
 23 25  2  0  0  0  0
 23 83  1  0  0  0  0
 24 85  1  0  0  0  0
 25 86  1  0  0  0  0
 26 67  2  0  0  0  0
 27 68  1  0  0  0  0
 27 71  1  0  0  0  0
 28 72  1  0  0  0  0
 28 78  2  0  0  0  0
 29 46  1  0  0  0  0
 29 73  1  0  0  0  0
 29 79  2  0  0  0  0
 30 62  1  0  0  0  0
 30 69  1  0  0  0  0
 30 80  2  0  0  0  0
 31 63  1  0  0  0  0
 31 74  1  0  0  0  0
 31 81  2  0  0  0  0
 32 70  1  0  0  0  0
 32 75  1  0  0  0  0
 32 82  2  0  0  0  0
 33 36  1  0  0  0  0
 34 46  1  0  0  0  0
 35 69  1  0  0  0  0
 36 38  1  0  0  0  0
 37 41  1  0  0  0  0
 37 43  1  0  0  0  0
 38 45  1  0  0  0  0
 39 40  1  0  0  0  0
 39 47  1  0  0  0  0
 40 48  1  0  0  0  0
 41 49  1  0  0  0  0
 42 47  1  0  0  0  0
 42 50  1  0  0  0  0
 43 70  1  0  0  0  0
 44 49  1  0  0  0  0
 44 70  1  0  0  0  0
 45 73  1  0  0  0  0
 46 69  1  0  0  0  0
 47 64  1  0  0  0  0
 48 50  1  0  0  0  0
 48 51  1  0  0  0  0
 49 68  1  0  0  0  0
 50 75  1  0  0  0  0
 52 63  1  0  0  0  0
 53 64  1  0  0  0  0
 54 65  1  0  0  0  0
 55 65  1  0  0  0  0
 56 65  1  0  0  0  0
 57 66  1  0  0  0  0
 58 66  1  0  0  0  0
 59 76  1  0  0  0  0
 60 64  1  0  0  0  0
 60 77  1  0  0  0  0
 61 66  1  0  0  0  0
 61 84  1  0  0  0  0
 62 65  1  0  0  0  0
 62 74  1  0  0  0  0
 63 76  1  0  0  0  0
 66 77  1  0  0  0  0
 67 68  1  0  0  0  0
M  CHG  2  76   1  77   1
M  ISO  4  32 100  61 101  75 100  84 101
M  END
> <Batch ID>
0116

> <Smiles>
CNC(C)C(=O)NC(C(=O)N1Cc2cc([101O:1][101CH2:1]C(C)(C)NCC(C)C3CCC(C)C([100NH:0][100C:0](=O)N4CCCC(n5nc(-c6ccc(Oc7ccc(F)cc7F)cc6)c(C(N)=O)c5N)C4)C3)ccc2CC1C(=O)NC1CCCc2ccccc21)C(C)(C)C

> <Shape>
0.247

> <Color>
0.119

> <Negative vol penalty>
0.000

$$$$

  -OEChem-04052320133D

 89 97  0     1  0  0  0  0  0999 V2000
  -19.0969  -33.7080   24.8820 C   0  0  0  0  0  0  0  0  0  0  0  0
  -20.3933  -33.7398   24.3782 C   0  0  0  0  0  0  0  0  0  0  0  0
  -29.5991  -24.3596   13.5074 C   0  0  0  0  0  0  0  0  0  0  0  0
  -25.3841  -15.8669   21.6490 C   0  0  0  0  0  0  0  0  0  0  0  0
  -25.0090  -16.3014   19.3022 C   0  0  0  0  0  0  0  0  0  0  0  0
  -18.5112  -32.4887   25.2199 C   0  0  0  0  0  0  0  0  0  0  0  0
  -21.1051  -32.5522   24.2129 C   0  0  0  0  0  0  0  0  0  0  0  0
  -25.1402  -31.2637   19.7898 C   0  0  0  0  0  0  0  0  0  0  0  0
  -29.6205  -23.4213   14.5392 C   0  0  0  0  0  0  0  0  0  0  0  0
  -29.2981  -25.6933   13.7837 C   0  0  0  0  0  0  0  0  0  0  0  0
  -24.2332  -15.0798   21.6873 C   0  0  0  0  0  0  0  0  0  0  0  0
  -23.8581  -15.5142   19.3405 C   0  0  0  0  0  0  0  0  0  0  0  0
  -26.5334  -31.2974   19.7523 C   0  0  0  0  0  0  0  0  0  0  0  0
  -23.3263  -11.9481   20.7913 C   0  0  0  0  0  0  0  0  0  0  0  0
  -23.4020  -10.7206   21.4495 C   0  0  0  0  0  0  0  0  0  0  0  0
  -26.5979  -28.9374   20.2478 C   0  0  0  0  0  0  0  0  0  0  0  0
  -21.6685  -11.4316   22.9748 C   0  0  0  0  0  0  0  0  0  0  0  0
  -25.7720  -16.4777   20.4565 C   0  0  0  0  0  0  0  0  0  0  0  0
  -28.2716  -16.8675   20.1282 C   0  0  0  0  0  0  0  0  0  0  0  0
  -19.2127  -31.2848   25.0496 C   0  0  0  0  0  0  0  0  0  0  0  0
  -24.4644  -30.0669   20.0678 C   0  0  0  0  0  0  0  0  0  0  0  0
  -20.5287  -31.3157   24.5501 C   0  0  0  0  0  0  0  0  0  0  0  0
  -25.1959  -28.8906   20.2857 C   0  0  0  0  0  0  0  0  0  0  0  0
  -29.3409  -23.8166   15.8474 C   0  0  0  0  0  0  0  0  0  0  0  0
  -29.0184  -26.0887   15.0918 C   0  0  0  0  0  0  0  0  0  0  0  0
  -29.0398  -25.1503   16.1237 C   0  0  0  0  0  0  0  0  0  0  0  0
  -23.4702  -14.9034   20.5330 C   0  0  0  0  0  0  0  0  0  0  0  0
  -27.2626  -30.1348   19.9842 C   0  0  0  0  0  0  0  0  0  0  0  0
  -22.4217  -12.9174   21.2249 C   0  0  0  0  0  0  0  0  0  0  0  0
  -22.5731  -10.4624   22.5412 C   0  0  0  0  0  0  0  0  0  0  0  0
  -21.5929  -12.6591   22.3167 C   0  0  0  0  0  0  0  0  0  0  0  0
  -26.9605  -17.2914   20.4165 C   0  0  0  0  0  0  0  0  0  0  0  0
  -29.0292  -18.0097   20.2177 C   0  0  0  0  0  0  0  0  0  0  0  0
  -28.7609  -15.5584   19.8081 C   0  0  0  0  0  0  0  0  0  0  0  0
  -22.4987  -29.0818   22.3634 C   0  0  0  0  0  0  0  0  0  0  0  0
  -22.2653  -26.4418   20.4930 C   0  0  0  0  0  0  0  0  0  0  0  0
  -23.6609  -24.4614   18.0894 C   0  0  0  0  0  0  0  0  0  0  0  0
  -29.8964  -23.3548   19.2762 C   0  0  0  0  0  0  0  0  0  0  0  0
  -18.5552  -29.9953   25.4733 C   0  0  0  0  0  0  0  0  0  0  0  0
  -22.9605  -30.0415   20.0783 C   0  0  0  0  0  0  0  0  0  0  0  0
  -24.5178  -27.5759   20.5684 C   0  0  0  0  0  0  0  0  0  0  0  0
  -19.2406  -28.7503   24.9162 C   0  0  0  0  0  0  0  0  0  0  0  0
  -27.8951  -22.5943   22.0043 C   0  0  0  0  0  0  0  0  0  0  0  0
  -20.7521  -28.8467   25.0976 C   0  0  0  0  0  0  0  0  0  0  0  0
  -27.5709  -21.1123   21.8205 C   0  0  0  0  0  0  0  0  0  0  0  0
  -27.8515  -23.3305   20.6706 C   0  0  0  0  0  0  0  0  0  0  0  0
  -28.4550  -21.2712   19.4393 C   0  0  0  0  0  0  0  0  0  0  0  0
  -21.3241  -30.0467   24.3332 C   0  0  1  0  0  0  0  0  0  0  0  0
  -22.3881  -28.8760   20.8791 C   0  0  1  0  0  0  0  0  0  0  0  0
  -28.4862  -20.4753   20.7603 C   0  0  2  0  0  0  0  0  0  0  0  0
  -28.7399  -25.5742   17.5263 C   0  0  0  0  0  0  0  0  0  0  0  0
  -23.2517  -22.3524   16.7926 C   0  0  0  0  0  0  0  0  0  0  0  0
  -31.7396  -30.5054   16.9266 C   0  0  0  0  0  0  0  0  0  0  0  0
  -32.5917  -24.0976   17.9546 C   0  0  0  0  0  0  0  0  0  0  0  0
  -32.2642  -21.6289   18.3032 C   0  0  0  0  0  0  0  0  0  0  0  0
  -23.0157  -24.7904   22.9465 C   0  0  0  0  0  0  0  0  0  0  0  0
  -23.5162  -22.8729   21.4165 C   0  0  0  0  0  0  0  0  0  0  0  0
  -21.2033  -23.7996   21.5366 C   0  0  0  0  0  0  0  0  0  0  0  0
  -23.6691  -25.9095   15.5083 C   0  0  0  0  0  0  0  0  0  0  0  0
  -29.3708  -22.7921   16.9342 C   0  0  0  0  0  0  0  0  0  0  0  0
  -28.6980  -27.5292   15.3621 C   0  0  0  0  0  0  0  0  0  0  0  0
  -30.5856  -29.3522   18.8359 C   0  0  0  0  0  0  0  0  0  0  0  0
  -29.3980  -29.6110   16.5516 C   0  0  0  0  0  0  0  0  0  0  0  0
  -29.2884  -28.9713   19.5389 C   0  0  0  0  0  0  0  0  0  1  0  0
  -23.0160  -25.1363   20.3879 C   0  0  1  0  0  0  0  0  0  0  0  0
  -23.0861  -23.8639   16.8178 C   0  0  2  0  0  0  0  0  0  0  0  0
  -30.3810  -30.2048   17.5700 C   0  0  2  0  0  0  0  0  0  0  0  0
  -31.7418  -22.8809   17.6105 C   0  0  0  0  0  0  0  0  0  0  0  0
  -22.7009  -24.1748   21.5685 C   0  0  0  0  0  0  0  0  0  0  0  0
  -26.8859  -18.6006   20.6702 N   0  0  0  0  0  0  0  0  0  0  0  0
  -28.1597  -19.0093   20.5418 N   0  0  0  0  0  0  0  0  0  0  0  0
  -23.0458  -27.6037   20.5742 N   0  0  0  0  0  0  0  0  0  0  0  0
  -28.7281  -22.6954   19.6862 N   0  0  0  0  0  0  0  0  0  0  0  0
  -30.3476  -18.2464   20.0501 N   0  0  0  0  0  0  0  0  0  0  0  0
  -27.8469  -14.4971   19.7585 N   0  0  0  0  0  0  0  0  0  0  0  0
  -21.4228  -29.7458   22.9210 N   0  0  0  0  0  0  0  0  0  0  0  0
  -22.7022  -24.5898   19.0722 N   0  0  0  0  0  0  0  0  0  0  0  0
  -30.3439  -23.1137   17.9685 N   0  0  0  0  0  0  0  0  0  0  0  0
  -23.7718  -24.4318   15.6227 N   0  3  0  0  0  0  0  0  0  0  0  0
  -29.6490  -28.1703   16.3117 N   0  3  0  0  0  0  0  0  0  0  0  0
  -29.9754  -15.3334   19.5891 O   0  0  0  0  0  0  0  0  0  0  0  0
  -23.4863  -28.6674   22.9589 O   0  0  0  0  0  0  0  0  0  0  0  0
  -21.0318  -26.4316   20.4955 O   0  0  0  0  0  0  0  0  0  0  0  0
  -24.8430  -24.7789   18.2012 O   0  0  0  0  0  0  0  0  0  0  0  0
  -30.5032  -24.1232   20.0335 O   0  0  0  0  0  0  0  0  0  0  0  0
  -22.3472  -14.1352   20.5700 O   0  0  0  0  0  0  0  0  0  0  0  0
  -28.6226  -30.1651   19.9488 O   0  0  0  0  0  0  0  0  0  1  0  0
  -22.6448   -9.2830   23.1722 F   0  0  0  0  0  0  0  0  0  0  0  0
  -20.7211  -13.5860   22.7371 F   0  0  0  0  0  0  0  0  0  0  0  0
  1  2  1  0  0  0  0
  1  6  2  0  0  0  0
  2  7  2  0  0  0  0
  3  9  1  0  0  0  0
  3 10  2  0  0  0  0
  4 11  2  0  0  0  0
  4 18  1  0  0  0  0
  5 12  1  0  0  0  0
  5 18  2  0  0  0  0
  6 20  1  0  0  0  0
  7 22  1  0  0  0  0
  8 13  2  0  0  0  0
  8 21  1  0  0  0  0
  9 24  2  0  0  0  0
 10 25  1  0  0  0  0
 11 27  1  0  0  0  0
 12 27  2  0  0  0  0
 13 28  1  0  0  0  0
 14 15  2  0  0  0  0
 14 29  1  0  0  0  0
 15 30  1  0  0  0  0
 16 23  1  0  0  0  0
 16 28  2  0  0  0  0
 17 30  2  0  0  0  0
 17 31  1  0  0  0  0
 18 32  1  0  0  0  0
 19 32  1  0  0  0  0
 19 33  2  0  0  0  0
 19 34  1  0  0  0  0
 20 22  2  0  0  0  0
 20 39  1  0  0  0  0
 21 23  2  0  0  0  0
 21 40  1  0  0  0  0
 22 48  1  0  0  0  0
 23 41  1  0  0  0  0
 24 26  1  0  0  0  0
 24 60  1  0  0  0  0
 25 26  2  0  0  0  0
 25 61  1  0  0  0  0
 26 51  1  0  0  0  0
 27 86  1  0  0  0  0
 28 87  1  0  0  0  0
 29 31  2  0  0  0  0
 29 86  1  0  0  0  0
 30 88  1  0  0  0  0
 31 89  1  0  0  0  0
 32 70  2  0  0  0  0
 33 71  1  0  0  0  0
 33 74  1  0  0  0  0
 34 75  1  0  0  0  0
 34 81  2  0  0  0  0
 35 49  1  0  0  0  0
 35 76  1  0  0  0  0
 35 82  2  0  0  0  0
 36 65  1  0  0  0  0
 36 72  1  0  0  0  0
 36 83  2  0  0  0  0
 37 66  1  0  0  0  0
 37 77  1  0  0  0  0
 37 84  2  0  0  0  0
 38 73  1  0  0  0  0
 38 78  1  0  0  0  0
 38 85  2  0  0  0  0
 39 42  1  0  0  0  0
 40 49  1  0  0  0  0
 41 72  1  0  0  0  0
 42 44  1  0  0  0  0
 43 45  1  0  0  0  0
 43 46  1  0  0  0  0
 44 48  1  0  0  0  0
 45 50  1  0  0  0  0
 46 73  1  0  0  0  0
 47 50  1  0  0  0  0
 47 73  1  0  0  0  0
 48 76  1  0  0  0  0
 49 72  1  0  0  0  0
 50 71  1  0  0  0  0
 52 66  1  0  0  0  0
 53 67  1  0  0  0  0
 54 68  1  0  0  0  0
 55 68  1  0  0  0  0
 56 69  1  0  0  0  0
 57 69  1  0  0  0  0
 58 69  1  0  0  0  0
 59 79  1  0  0  0  0
 60 78  1  0  0  0  0
 61 80  1  0  0  0  0
 62 64  1  0  0  0  0
 62 67  1  0  0  0  0
 63 67  1  0  0  0  0
 63 80  1  0  0  0  0
 64 87  1  0  0  0  0
 65 69  1  0  0  0  0
 65 77  1  0  0  0  0
 66 79  1  0  0  0  0
 68 78  1  0  0  0  0
 70 71  1  0  0  0  0
M  CHG  2  79   1  80   1
M  ISO  4  38 100  64 101  78 100  87 101
M  END
> <Batch ID>
0116

> <Smiles>
CNC(C)C(=O)NC(C(=O)N1Cc2cc([101O:1][101CH2:1]CC(C)CNCc3cccc(C[100N:0](C(C)C)[100C:0](=O)N4CCCC(n5nc(-c6ccc(Oc7ccc(F)cc7F)cc6)c(C(N)=O)c5N)C4)c3C)ccc2CC1C(=O)NC1CCCc2ccccc21)C(C)(C)C

> <Shape>
0.218

> <Color>
0.064

> <Negative vol penalty>
0.000

$$$$

  -OEChem-04052320133D

 82 90  0     1  0  0  0  0  0999 V2000
  -23.2203  -28.3107   23.4155 C   0  0  0  0  0  0  0  0  0  0  0  0
  -24.0543  -27.3266   22.8945 C   0  0  0  0  0  0  0  0  0  0  0  0
  -23.0198   -9.8814   19.9713 C   0  0  0  0  0  0  0  0  0  0  0  0
  -23.6655   -9.9646   22.2980 C   0  0  0  0  0  0  0  0  0  0  0  0
  -23.7391  -29.5646   23.7357 C   0  0  0  0  0  0  0  0  0  0  0  0
  -25.4074  -27.5963   22.6923 C   0  0  0  0  0  0  0  0  0  0  0  0
  -28.3982  -23.8385   24.2983 C   0  0  0  0  0  0  0  0  0  0  0  0
  -22.2375   -8.7556   20.2287 C   0  0  0  0  0  0  0  0  0  0  0  0
  -22.8831   -8.8388   22.5553 C   0  0  0  0  0  0  0  0  0  0  0  0
  -28.5067  -22.7163   23.4781 C   0  0  0  0  0  0  0  0  0  0  0  0
  -23.1226   -5.4915   22.1443 C   0  0  0  0  0  0  0  0  0  0  0  0
  -23.6775   -4.4830   22.9320 C   0  0  0  0  0  0  0  0  0  0  0  0
  -30.6141  -23.5393   22.6411 C   0  0  0  0  0  0  0  0  0  0  0  0
  -21.8985   -4.7622   24.5427 C   0  0  0  0  0  0  0  0  0  0  0  0
  -23.7339  -10.4858   21.0060 C   0  0  0  0  0  0  0  0  0  0  0  0
  -24.1409  -12.9961   20.8042 C   0  0  0  0  0  0  0  0  0  0  0  0
  -25.1012  -29.8467   23.5464 C   0  0  0  0  0  0  0  0  0  0  0  0
  -29.3932  -24.8266   24.2879 C   0  0  0  0  0  0  0  0  0  0  0  0
  -25.9446  -28.8556   23.0090 C   0  0  0  0  0  0  0  0  0  0  0  0
  -30.5171  -24.6719   23.4639 C   0  0  0  0  0  0  0  0  0  0  0  0
  -22.1691   -8.2344   21.5207 C   0  0  0  0  0  0  0  0  0  0  0  0
  -29.6134  -22.5680   22.6472 C   0  0  0  0  0  0  0  0  0  0  0  0
  -21.9557   -6.1355   22.5558 C   0  0  0  0  0  0  0  0  0  0  0  0
  -23.0654   -4.1183   24.1312 C   0  0  0  0  0  0  0  0  0  0  0  0
  -21.3436   -5.7708   23.7549 C   0  0  0  0  0  0  0  0  0  0  0  0
  -24.5427  -11.6484   20.7406 C   0  0  0  0  0  0  0  0  0  0  0  0
  -25.2670  -13.7064   20.4671 C   0  0  0  0  0  0  0  0  0  0  0  0
  -22.8638  -13.5558   21.1381 C   0  0  0  0  0  0  0  0  0  0  0  0
  -29.4769  -27.9181   23.5537 C   0  0  0  0  0  0  0  0  0  0  0  0
  -32.5146  -27.7020   24.6709 C   0  0  0  0  0  0  0  0  0  0  0  0
  -35.2319  -25.7404   25.3151 C   0  0  0  0  0  0  0  0  0  0  0  0
  -30.6528  -14.6822   20.7184 C   0  0  0  0  0  0  0  0  0  0  0  0
  -25.6065  -31.2320   23.8631 C   0  0  0  0  0  0  0  0  0  0  0  0
  -29.2743  -26.0180   25.1983 C   0  0  0  0  0  0  0  0  0  0  0  0
  -31.6228  -25.6940   23.4306 C   0  0  0  0  0  0  0  0  0  0  0  0
  -27.1270  -31.3162   23.9694 C   0  0  0  0  0  0  0  0  0  0  0  0
  -29.6789  -12.1852   18.5369 C   0  0  0  0  0  0  0  0  0  0  0  0
  -27.7848  -30.5920   22.7991 C   0  0  0  0  0  0  0  0  0  0  0  0
  -28.2204  -11.9228   18.9102 C   0  0  0  0  0  0  0  0  0  0  0  0
  -30.5306  -12.3939   19.7835 C   0  0  0  0  0  0  0  0  0  0  0  0
  -29.2871  -15.3649   22.7492 C   0  0  0  0  0  0  0  0  0  0  0  0
  -28.5865  -13.2518   21.0493 C   0  0  0  0  0  0  0  0  0  0  0  0
  -29.8847  -16.0407   23.9774 C   0  0  0  0  0  0  0  0  0  0  0  0
  -30.9839  -17.6632   22.6758 C   0  0  0  0  0  0  0  0  0  0  0  0
  -27.4228  -29.1019   22.7986 C   0  0  1  0  0  0  0  0  0  0  0  0
  -30.0963  -27.2139   24.7277 C   0  0  1  0  0  0  0  0  0  0  0  0
  -27.6760  -13.0354   19.8232 C   0  0  2  0  0  0  0  0  0  0  0  0
  -30.4529  -17.0774   21.3657 C   0  0  2  0  0  0  0  0  0  0  0  0
  -37.5802  -25.8544   26.1925 C   0  0  0  0  0  0  0  0  0  0  0  0
  -28.4851  -17.0928   19.7840 C   0  0  0  0  0  0  0  0  0  0  0  0
  -29.2011  -21.1303   18.9660 C   0  0  0  0  0  0  0  0  0  0  0  0
  -33.4391  -28.9208   22.0309 C   0  0  0  0  0  0  0  0  0  0  0  0
  -35.7579  -28.1411   22.5632 C   0  0  0  0  0  0  0  0  0  0  0  0
  -34.6256  -29.7902   24.0535 C   0  0  0  0  0  0  0  0  0  0  0  0
  -34.6089  -23.9054   27.5520 C   0  0  0  0  0  0  0  0  0  0  0  0
  -28.5070  -20.8846   21.3832 C   0  0  0  0  0  0  0  0  0  1  0  0
  -33.8578  -27.3814   24.0609 C   0  0  1  0  0  0  0  0  0  0  0  0
  -36.1188  -25.6191   26.5412 C   0  0  2  0  0  0  0  0  0  0  0  0
  -29.2524  -17.8676   20.8373 C   0  0  2  0  0  0  0  0  0  0  0  0
  -28.7223  -20.1779   20.0496 C   0  0  2  0  0  0  0  0  0  0  0  0
  -34.3985  -28.5399   23.1761 C   0  0  0  0  0  0  0  0  0  0  0  0
  -25.8241  -11.5083   20.3906 N   0  0  0  0  0  0  0  0  0  0  0  0
  -26.2371  -12.7772   20.2310 N   0  0  0  0  0  0  0  0  0  0  0  0
  -31.4576  -26.8445   24.3343 N   0  0  0  0  0  0  0  0  0  0  0  0
  -29.9811  -13.4541   20.6284 N   0  0  0  0  0  0  0  0  0  0  0  0
  -30.0881  -15.6613   21.5513 N   0  0  0  0  0  0  0  0  0  0  0  0
  -25.5122  -15.0290   20.3525 N   0  0  0  0  0  0  0  0  0  0  0  0
  -21.8152  -12.6831   21.4595 N   0  0  0  0  0  0  0  0  0  0  0  0
  -28.2009  -28.3924   23.7913 N   0  0  0  0  0  0  0  0  0  0  0  0
  -34.7333  -27.0177   25.1697 N   0  0  0  0  0  0  0  0  0  0  0  0
  -35.9914  -24.2606   27.1404 N   0  3  0  0  0  0  0  0  0  0  0  0
  -29.7589  -19.1267   20.2343 N   0  3  0  0  0  0  0  0  0  0  0  0
  -22.6541  -14.7925   21.1351 O   0  0  0  0  0  0  0  0  0  0  0  0
  -30.1103  -28.0246   22.5101 O   0  0  0  0  0  0  0  0  0  0  0  0
  -32.4088  -28.6731   25.4241 O   0  0  0  0  0  0  0  0  0  0  0  0
  -35.0071  -24.7973   24.5598 O   0  0  0  0  0  0  0  0  0  0  0  0
  -31.7027  -14.8866   20.0963 O   0  0  0  0  0  0  0  0  0  0  0  0
  -30.0664  -17.4371   23.7464 O   0  0  0  0  0  0  0  0  0  0  0  0
  -21.4056   -7.1361   21.7722 O   0  0  0  0  0  0  0  0  0  0  0  0
  -29.7222  -21.4665   21.8398 O   0  0  0  0  0  0  0  0  0  1  0  0
  -23.5976   -3.1487   24.8868 F   0  0  0  0  0  0  0  0  0  0  0  0
  -20.2217   -6.3850   24.1549 F   0  0  0  0  0  0  0  0  0  0  0  0
  1  2  1  0  0  0  0
  1  5  2  0  0  0  0
  2  6  2  0  0  0  0
  3  8  2  0  0  0  0
  3 15  1  0  0  0  0
  4  9  1  0  0  0  0
  4 15  2  0  0  0  0
  5 17  1  0  0  0  0
  6 19  1  0  0  0  0
  7 10  2  0  0  0  0
  7 18  1  0  0  0  0
  8 21  1  0  0  0  0
  9 21  2  0  0  0  0
 10 22  1  0  0  0  0
 11 12  2  0  0  0  0
 11 23  1  0  0  0  0
 12 24  1  0  0  0  0
 13 20  1  0  0  0  0
 13 22  2  0  0  0  0
 14 24  2  0  0  0  0
 14 25  1  0  0  0  0
 15 26  1  0  0  0  0
 16 26  1  0  0  0  0
 16 27  2  0  0  0  0
 16 28  1  0  0  0  0
 17 19  2  0  0  0  0
 17 33  1  0  0  0  0
 18 20  2  0  0  0  0
 18 34  1  0  0  0  0
 19 45  1  0  0  0  0
 20 35  1  0  0  0  0
 21 79  1  0  0  0  0
 22 80  1  0  0  0  0
 23 25  2  0  0  0  0
 23 79  1  0  0  0  0
 24 81  1  0  0  0  0
 25 82  1  0  0  0  0
 26 62  2  0  0  0  0
 27 63  1  0  0  0  0
 27 67  1  0  0  0  0
 28 68  1  0  0  0  0
 28 73  2  0  0  0  0
 29 46  1  0  0  0  0
 29 69  1  0  0  0  0
 29 74  2  0  0  0  0
 30 57  1  0  0  0  0
 30 64  1  0  0  0  0
 30 75  2  0  0  0  0
 31 58  1  0  0  0  0
 31 70  1  0  0  0  0
 31 76  2  0  0  0  0
 32 65  1  0  0  0  0
 32 66  1  0  0  0  0
 32 77  2  0  0  0  0
 33 36  1  0  0  0  0
 34 46  1  0  0  0  0
 35 64  1  0  0  0  0
 36 38  1  0  0  0  0
 37 39  1  0  0  0  0
 37 40  1  0  0  0  0
 38 45  1  0  0  0  0
 39 47  1  0  0  0  0
 40 65  1  0  0  0  0
 41 43  1  0  0  0  0
 41 66  1  0  0  0  0
 42 47  1  0  0  0  0
 42 65  1  0  0  0  0
 43 78  1  0  0  0  0
 44 48  1  0  0  0  0
 44 78  1  0  0  0  0
 45 69  1  0  0  0  0
 46 64  1  0  0  0  0
 47 63  1  0  0  0  0
 48 59  1  0  0  0  0
 48 66  1  0  0  0  0
 49 58  1  0  0  0  0
 50 59  1  0  0  0  0
 51 60  1  0  0  0  0
 52 61  1  0  0  0  0
 53 61  1  0  0  0  0
 54 61  1  0  0  0  0
 55 71  1  0  0  0  0
 56 60  1  0  0  0  0
 56 80  1  0  0  0  0
 57 61  1  0  0  0  0
 57 70  1  0  0  0  0
 58 71  1  0  0  0  0
 59 72  1  0  0  0  0
 60 72  1  0  0  0  0
 62 63  1  0  0  0  0
M  CHG  2  71   1  72   1
M  ISO  4  32 100  56 101  66 100  80 101
M  END
> <Batch ID>
0116

> <Smiles>
CNC(C)C(=O)NC(C(=O)N1Cc2cc([101O:1][101CH2:1]C(C)NC(C)C3COCC[100N:0]3[100C:0](=O)N3CCCC(n4nc(-c5ccc(Oc6ccc(F)cc6F)cc5)c(C(N)=O)c4N)C3)ccc2CC1C(=O)NC1CCCc2ccccc21)C(C)(C)C

> <Shape>
0.265

> <Color>
0.199

> <Negative vol penalty>
0.000

$$$$

  -OEChem-04052320133D

 83 91  0     1  0  0  0  0  0999 V2000
  -17.0580  -29.3360   24.1679 C   0  0  0  0  0  0  0  0  0  0  0  0
  -17.3725  -28.0021   23.9290 C   0  0  0  0  0  0  0  0  0  0  0  0
  -23.3229   -9.7199   21.1995 C   0  0  0  0  0  0  0  0  0  0  0  0
  -23.9109  -10.6388   23.3552 C   0  0  0  0  0  0  0  0  0  0  0  0
  -17.9566  -30.3386   23.8056 C   0  0  0  0  0  0  0  0  0  0  0  0
  -18.5855  -27.6700   23.3266 C   0  0  0  0  0  0  0  0  0  0  0  0
  -23.5898  -22.5443   23.3054 C   0  0  0  0  0  0  0  0  0  0  0  0
  -22.6486   -8.6738   21.8293 C   0  0  0  0  0  0  0  0  0  0  0  0
  -23.2366   -9.5927   23.9850 C   0  0  0  0  0  0  0  0  0  0  0  0
  -24.2792  -21.7157   22.4211 C   0  0  0  0  0  0  0  0  0  0  0  0
  -19.6681   -8.1896   23.3508 C   0  0  0  0  0  0  0  0  0  0  0  0
  -18.4070   -7.8453   22.8645 C   0  0  0  0  0  0  0  0  0  0  0  0
  -25.7883  -23.5270   21.9100 C   0  0  0  0  0  0  0  0  0  0  0  0
  -27.8147  -19.1996   20.0296 C   0  0  0  0  0  0  0  0  0  0  0  0
  -19.2015   -5.6152   22.3827 C   0  0  0  0  0  0  0  0  0  0  0  0
  -23.9541  -10.7024   21.9624 C   0  0  0  0  0  0  0  0  0  0  0  0
  -24.1192  -13.0280   20.9270 C   0  0  0  0  0  0  0  0  0  0  0  0
  -19.1853  -30.0181   23.2072 C   0  0  0  0  0  0  0  0  0  0  0  0
  -23.9885  -23.8759   23.4908 C   0  0  0  0  0  0  0  0  0  0  0  0
  -19.5007  -28.6693   22.9547 C   0  0  0  0  0  0  0  0  0  0  0  0
  -25.1038  -24.3696   22.7991 C   0  0  0  0  0  0  0  0  0  0  0  0
  -28.6063  -18.5172   19.1126 C   0  0  0  0  0  0  0  0  0  0  0  0
  -28.0312  -17.9942   17.9597 C   0  0  0  0  0  0  0  0  0  0  0  0
  -22.6054   -8.6102   23.2220 C   0  0  0  0  0  0  0  0  0  0  0  0
  -25.3768  -22.2078   21.7210 C   0  0  0  0  0  0  0  0  0  0  0  0
  -20.6961   -7.2467   23.3530 C   0  0  0  0  0  0  0  0  0  0  0  0
  -18.1736   -6.5581   22.3805 C   0  0  0  0  0  0  0  0  0  0  0  0
  -20.4627   -5.9594   22.8690 C   0  0  0  0  0  0  0  0  0  0  0  0
  -24.6512  -11.7829   21.3124 C   0  0  0  0  0  0  0  0  0  0  0  0
  -26.4641  -19.3307   19.7495 C   0  0  0  0  0  0  0  0  0  0  0  0
  -26.6709  -18.1791   17.7723 C   0  0  0  0  0  0  0  0  0  0  0  0
  -25.1775  -13.6918   20.3563 C   0  0  0  0  0  0  0  0  0  0  0  0
  -22.7873  -13.5388   21.0721 C   0  0  0  0  0  0  0  0  0  0  0  0
  -22.6335  -26.7108   23.0102 C   0  0  0  0  0  0  0  0  0  0  0  0
  -25.3176  -27.8052   24.4663 C   0  0  0  0  0  0  0  0  0  0  0  0
  -28.5897  -27.2817   25.2823 C   0  0  0  0  0  0  0  0  0  0  0  0
  -30.5442  -15.2227   20.3766 C   0  0  0  0  0  0  0  0  0  0  0  0
  -20.1039  -31.1391   22.7899 C   0  0  0  0  0  0  0  0  0  0  0  0
  -23.2506  -24.7489   24.4684 C   0  0  0  0  0  0  0  0  0  0  0  0
  -25.5847  -25.7857   22.9778 C   0  0  0  0  0  0  0  0  0  0  0  0
  -21.5303  -30.6809   22.4974 C   0  0  0  0  0  0  0  0  0  0  0  0
  -29.7602  -12.0333   19.0020 C   0  0  0  0  0  0  0  0  0  0  0  0
  -21.5209  -29.4331   21.6199 C   0  0  0  0  0  0  0  0  0  0  0  0
  -28.3202  -11.7841   19.4540 C   0  0  0  0  0  0  0  0  0  0  0  0
  -30.5688  -12.7645   20.0714 C   0  0  0  0  0  0  0  0  0  0  0  0
  -28.5228  -13.7696   21.0082 C   0  0  0  0  0  0  0  0  0  0  0  0
  -20.8173  -28.2677   22.3258 C   0  0  1  0  0  0  0  0  0  0  0  0
  -23.4306  -26.2386   24.1931 C   0  0  1  0  0  0  0  0  0  0  0  0
  -27.6525  -13.0842   19.9409 C   0  0  2  0  0  0  0  0  0  0  0  0
  -25.9967  -17.6416   16.5524 C   0  0  0  0  0  0  0  0  0  0  0  0
  -29.6848  -18.2004   16.0862 C   0  0  0  0  0  0  0  0  0  0  0  0
  -30.5292  -28.3720   26.4430 C   0  0  0  0  0  0  0  0  0  0  0  0
  -25.7279  -29.6333   22.0580 C   0  0  0  0  0  0  0  0  0  0  0  0
  -28.0934  -29.9710   22.8054 C   0  0  0  0  0  0  0  0  0  0  0  0
  -26.2090  -30.6974   24.2695 C   0  0  0  0  0  0  0  0  0  0  0  0
  -28.7662  -25.1061   27.2809 C   0  0  0  0  0  0  0  0  0  0  0  0
  -30.0647  -18.3581   19.3895 C   0  0  0  0  0  0  0  0  0  0  0  0
  -28.8561  -17.2597   16.9570 C   0  0  0  0  0  0  0  0  0  0  0  0
  -25.5794  -20.0620   20.7159 C   0  0  0  0  0  0  0  0  0  1  0  0
  -30.3630  -17.6728   20.7277 C   0  0  0  0  0  0  0  0  0  0  0  0
  -26.6892  -28.2299   24.0003 C   0  0  1  0  0  0  0  0  0  0  0  0
  -29.3383  -27.4383   26.5937 C   0  0  2  0  0  0  0  0  0  0  0  0
  -26.6699  -29.6067   23.2783 C   0  0  0  0  0  0  0  0  0  0  0  0
  -25.9469  -11.6605   21.0117 N   0  0  0  0  0  0  0  0  0  0  0  0
  -25.8696  -18.8363   18.6405 N   0  0  0  0  0  0  0  0  0  0  0  0
  -26.2377  -12.8372   20.4313 N   0  0  0  0  0  0  0  0  0  0  0  0
  -24.8263  -26.6021   23.9400 N   0  0  0  0  0  0  0  0  0  0  0  0
  -29.8817  -13.9892   20.4886 N   0  0  0  0  0  0  0  0  0  0  0  0
  -25.2952  -14.9174   19.8026 N   0  0  0  0  0  0  0  0  0  0  0  0
  -21.8223  -12.7252   21.6813 N   0  0  0  0  0  0  0  0  0  0  0  0
  -21.6912  -27.6744   23.3151 N   0  0  0  0  0  0  0  0  0  0  0  0
  -27.5521  -28.1836   25.1757 N   0  0  0  0  0  0  0  0  0  0  0  0
  -29.8192  -16.3344   20.7881 N   0  0  0  0  0  0  0  0  0  0  0  0
  -29.8351  -26.1156   27.0676 N   0  3  0  0  0  0  0  0  0  0  0  0
  -22.4586  -14.6765   20.6585 O   0  0  0  0  0  0  0  0  0  0  0  0
  -22.8578  -26.2370   21.9025 O   0  0  0  0  0  0  0  0  0  0  0  0
  -24.7075  -28.5113   25.2731 O   0  0  0  0  0  0  0  0  0  0  0  0
  -28.8971  -26.4456   24.4356 O   0  0  0  0  0  0  0  0  0  0  0  0
  -31.6944  -15.3263   19.9371 O   0  0  0  0  0  0  0  0  0  0  0  0
  -21.9474   -7.5897   23.8369 O   0  0  0  0  0  0  0  0  0  0  0  0
  -26.0511  -21.4014   20.8568 O   0  0  0  0  0  0  0  0  0  1  0  0
  -16.9621   -6.2272   21.9149 F   0  0  0  0  0  0  0  0  0  0  0  0
  -21.4460   -5.0489   22.8697 F   0  0  0  0  0  0  0  0  0  0  0  0
  1  2  1  0  0  0  0
  1  5  2  0  0  0  0
  2  6  2  0  0  0  0
  3  8  2  0  0  0  0
  3 16  1  0  0  0  0
  4  9  1  0  0  0  0
  4 16  2  0  0  0  0
  5 18  1  0  0  0  0
  6 20  1  0  0  0  0
  7 10  2  0  0  0  0
  7 19  1  0  0  0  0
  8 24  1  0  0  0  0
  9 24  2  0  0  0  0
 10 25  1  0  0  0  0
 11 12  2  0  0  0  0
 11 26  1  0  0  0  0
 12 27  1  0  0  0  0
 13 21  1  0  0  0  0
 13 25  2  0  0  0  0
 14 22  2  0  0  0  0
 14 30  1  0  0  0  0
 15 27  2  0  0  0  0
 15 28  1  0  0  0  0
 16 29  1  0  0  0  0
 17 29  1  0  0  0  0
 17 32  2  0  0  0  0
 17 33  1  0  0  0  0
 18 20  2  0  0  0  0
 18 38  1  0  0  0  0
 19 21  2  0  0  0  0
 19 39  1  0  0  0  0
 20 47  1  0  0  0  0
 21 40  1  0  0  0  0
 22 23  1  0  0  0  0
 22 57  1  0  0  0  0
 23 31  2  0  0  0  0
 23 58  1  0  0  0  0
 24 80  1  0  0  0  0
 25 81  1  0  0  0  0
 26 28  2  0  0  0  0
 26 80  1  0  0  0  0
 27 82  1  0  0  0  0
 28 83  1  0  0  0  0
 29 64  2  0  0  0  0
 30 59  1  0  0  0  0
 30 65  2  0  0  0  0
 31 50  1  0  0  0  0
 31 65  1  0  0  0  0
 32 66  1  0  0  0  0
 32 69  1  0  0  0  0
 33 70  1  0  0  0  0
 33 75  2  0  0  0  0
 34 48  1  0  0  0  0
 34 71  1  0  0  0  0
 34 76  2  0  0  0  0
 35 61  1  0  0  0  0
 35 67  1  0  0  0  0
 35 77  2  0  0  0  0
 36 62  1  0  0  0  0
 36 72  1  0  0  0  0
 36 78  2  0  0  0  0
 37 68  1  0  0  0  0
 37 73  1  0  0  0  0
 37 79  2  0  0  0  0
 38 41  1  0  0  0  0
 39 48  1  0  0  0  0
 40 67  1  0  0  0  0
 41 43  1  0  0  0  0
 42 44  1  0  0  0  0
 42 45  1  0  0  0  0
 43 47  1  0  0  0  0
 44 49  1  0  0  0  0
 45 68  1  0  0  0  0
 46 49  1  0  0  0  0
 46 68  1  0  0  0  0
 47 71  1  0  0  0  0
 48 67  1  0  0  0  0
 49 66  1  0  0  0  0
 51 58  1  0  0  0  0
 52 62  1  0  0  0  0
 53 63  1  0  0  0  0
 54 63  1  0  0  0  0
 55 63  1  0  0  0  0
 56 74  1  0  0  0  0
 57 60  1  0  0  0  0
 59 81  1  0  0  0  0
 60 73  1  0  0  0  0
 61 63  1  0  0  0  0
 61 72  1  0  0  0  0
 62 74  1  0  0  0  0
 64 66  1  0  0  0  0
M  CHG  1  74   1
M  ISO  4  37 100  59 101  73 100  81 101
M  END
> <Batch ID>
0116

> <Smiles>
CCc1c(CC[100NH:0][100C:0](=O)N2CCCC(n3nc(-c4ccc(Oc5ccc(F)cc5F)cc4)c(C(N)=O)c3N)C2)cc([101CH2:1][101O:1]c2ccc3c(c2)CN(C(=O)C(NC(=O)C(C)NC)C(C)(C)C)C(C(=O)NC2CCCc4ccccc42)C3)nc1C

> <Shape>
0.257

> <Color>
0.149

> <Negative vol penalty>
0.000

$$$$

  -OEChem-04052320133D

 87 95  0     1  0  0  0  0  0999 V2000
  -29.9585  -15.9713   15.1715 C   0  0  0  0  0  0  0  0  0  0  0  0
  -29.7795  -15.0078   16.1577 C   0  0  0  0  0  0  0  0  0  0  0  0
  -26.5762  -28.4327   19.0373 C   0  0  0  0  0  0  0  0  0  0  0  0
  -26.5171  -27.5889   21.3004 C   0  0  0  0  0  0  0  0  0  0  0  0
  -29.1061  -17.0719   15.1149 C   0  0  0  0  0  0  0  0  0  0  0  0
  -28.7409  -15.1384   17.0802 C   0  0  0  0  0  0  0  0  0  0  0  0
  -27.9789  -11.3602   20.1377 C   0  0  0  0  0  0  0  0  0  0  0  0
  -25.4029  -29.1490   19.2737 C   0  0  0  0  0  0  0  0  0  0  0  0
  -25.3438  -28.3052   21.5368 C   0  0  0  0  0  0  0  0  0  0  0  0
  -28.8445  -11.0530   21.1865 C   0  0  0  0  0  0  0  0  0  0  0  0
  -22.1376  -29.6256   22.6262 C   0  0  0  0  0  0  0  0  0  0  0  0
  -21.0999  -28.9697   23.2883 C   0  0  0  0  0  0  0  0  0  0  0  0
  -27.2859  -12.0257   22.7498 C   0  0  0  0  0  0  0  0  0  0  0  0
  -21.0090  -27.3272   21.5188 C   0  0  0  0  0  0  0  0  0  0  0  0
  -29.8124  -18.2977   21.5850 C   0  0  0  0  0  0  0  0  0  0  0  0
  -27.1333  -27.6526   20.0506 C   0  0  0  0  0  0  0  0  0  0  0  0
  -29.6664  -27.3544   20.0065 C   0  0  0  0  0  0  0  0  0  0  0  0
  -28.0644  -17.2217   16.0452 C   0  0  0  0  0  0  0  0  0  0  0  0
  -26.7632  -12.0134   20.3863 C   0  0  0  0  0  0  0  0  0  0  0  0
  -27.8552  -16.2298   17.0249 C   0  0  0  0  0  0  0  0  0  0  0  0
  -26.4055  -12.3379   21.7027 C   0  0  0  0  0  0  0  0  0  0  0  0
  -29.3411  -19.8013   23.1934 C   0  0  0  0  0  0  0  0  0  0  0  0
  -29.4851  -19.6189   21.7958 C   0  0  0  0  0  0  0  0  0  0  0  0
  -24.7867  -29.0853   20.5235 C   0  0  0  0  0  0  0  0  0  0  0  0
  -28.4994  -11.3883   22.4925 C   0  0  0  0  0  0  0  0  0  0  0  0
  -22.6111  -29.1324   21.4103 C   0  0  0  0  0  0  0  0  0  0  0  0
  -20.5356  -27.8205   22.7346 C   0  0  0  0  0  0  0  0  0  0  0  0
  -22.0468  -27.9832   20.8567 C   0  0  0  0  0  0  0  0  0  0  0  0
  -28.3450  -26.9120   19.8068 C   0  0  0  0  0  0  0  0  0  0  0  0
  -29.5851  -18.5860   23.7941 C   0  0  0  0  0  0  0  0  0  0  0  0
  -30.4461  -26.2881   19.6301 C   0  0  0  0  0  0  0  0  0  0  0  0
  -30.1463  -28.6164   20.4891 C   0  0  0  0  0  0  0  0  0  0  0  0
  -25.4953  -14.7976   19.5233 C   0  0  0  0  0  0  0  0  0  0  0  0
  -22.8681  -13.6214   21.0189 C   0  0  0  0  0  0  0  0  0  0  0  0
  -21.5697  -11.4832   23.3404 C   0  0  0  0  0  0  0  0  0  0  0  0
  -29.4700  -20.3975   19.4000 C   0  0  0  0  0  0  0  0  0  0  0  0
  -27.1665  -18.4285   15.9331 C   0  0  0  0  0  0  0  0  0  0  0  0
  -25.8284  -12.3139   19.2468 C   0  0  0  0  0  0  0  0  0  0  0  0
  -25.1027  -13.0215   22.0249 C   0  0  0  0  0  0  0  0  0  0  0  0
  -26.3820  -18.7066   17.2112 C   0  0  0  0  0  0  0  0  0  0  0  0
  -30.4484  -22.5009   16.6989 C   0  0  0  0  0  0  0  0  0  0  0  0
  -25.7083  -17.4314   17.6954 C   0  0  0  0  0  0  0  0  0  0  0  0
  -30.1460  -23.9114   17.2099 C   0  0  0  0  0  0  0  0  0  0  0  0
  -29.4033  -21.4910   17.1696 C   0  0  0  0  0  0  0  0  0  0  0  0
  -28.8642  -22.8825   19.1297 C   0  0  0  0  0  0  0  0  0  0  0  0
  -26.7512  -16.3665   18.0578 C   0  0  1  0  0  0  0  0  0  0  0  0
  -24.8492  -13.4415   19.5588 C   0  0  1  0  0  0  0  0  0  0  0  0
  -29.9252  -23.9229   18.7353 C   0  0  2  0  0  0  0  0  0  0  0  0
  -29.5703  -18.2083   25.2232 C   0  0  0  0  0  0  0  0  0  0  0  0
  -30.1716  -22.0337   23.9765 C   0  0  0  0  0  0  0  0  0  0  0  0
  -19.3914  -10.7748   24.3655 C   0  0  0  0  0  0  0  0  0  0  0  0
  -32.5908  -16.1293   22.2346 C   0  0  0  0  0  0  0  0  0  0  0  0
  -31.2875   -9.6663   23.4692 C   0  0  0  0  0  0  0  0  0  0  0  0
  -22.8142  -16.1863   22.6708 C   0  0  0  0  0  0  0  0  0  0  0  0
  -21.2662  -15.0407   24.2707 C   0  0  0  0  0  0  0  0  0  0  0  0
  -20.5705  -15.3937   21.9013 C   0  0  0  0  0  0  0  0  0  0  0  0
  -21.9005   -8.6964   22.4006 C   0  0  0  0  0  0  0  0  0  0  0  0
  -28.9921  -21.0610   23.8834 C   0  0  0  0  0  0  0  0  0  0  0  0
  -30.2016  -16.2214   23.0127 C   0  0  0  0  0  0  0  0  0  0  0  0
  -31.8841  -14.6115   24.1410 C   0  0  0  0  0  0  0  0  0  0  0  0
  -31.4331  -12.1572   24.0334 C   0  0  0  0  0  0  0  0  0  0  0  0
  -22.3339  -13.6609   22.4304 C   0  0  1  0  0  0  0  0  0  0  0  0
  -20.4122  -10.5034   23.2713 C   0  0  2  0  0  0  0  0  0  0  0  0
  -31.6619  -15.9625   23.4432 C   0  0  1  0  0  0  0  0  0  0  0  0
  -30.7391  -11.0661   23.2246 C   0  0  2  0  0  0  0  0  0  1  0  0
  -21.7717  -15.0592   22.8124 C   0  0  0  0  0  0  0  0  0  0  0  0
  -28.2847  -25.6621   19.3397 N   0  0  0  0  0  0  0  0  0  0  0  0
  -29.8707  -17.6795   22.8067 N   0  0  0  0  0  0  0  0  0  0  0  0
  -29.5780  -25.3101   19.2426 N   0  0  0  0  0  0  0  0  0  0  0  0
  -24.2253  -13.3000   20.8759 N   0  0  0  0  0  0  0  0  0  0  0  0
  -29.2508  -21.5558   18.6247 N   0  0  0  0  0  0  0  0  0  0  0  0
  -31.7826  -26.1011   19.5960 N   0  0  0  0  0  0  0  0  0  0  0  0
  -29.2093  -29.6010   20.8310 N   0  0  0  0  0  0  0  0  0  0  0  0
  -29.3280  -20.5880   20.7741 N   0  0  0  0  0  0  0  0  0  0  0  0
  -26.0771  -15.1121   18.3100 N   0  0  0  0  0  0  0  0  0  0  0  0
  -21.3609  -12.5783   22.5290 N   0  0  0  0  0  0  0  0  0  0  0  0
  -20.9065   -9.1060   23.4258 N   0  3  0  0  0  0  0  0  0  0  0  0
  -31.1944  -13.4957   23.4384 N   0  3  0  0  0  0  0  0  0  0  0  0
  -31.3701  -28.8693   20.5979 O   0  0  0  0  0  0  0  0  0  0  0  0
  -25.4667  -15.5067   20.5223 O   0  0  0  0  0  0  0  0  0  0  0  0
  -22.1074  -13.8598   20.0776 O   0  0  0  0  0  0  0  0  0  0  0  0
  -22.5583  -11.2976   24.0465 O   0  0  0  0  0  0  0  0  0  0  0  0
  -29.7889  -19.3227   18.8851 O   0  0  0  0  0  0  0  0  0  0  0  0
  -23.6419  -29.7843   20.7546 O   0  0  0  0  0  0  0  0  0  0  0  0
  -29.3428  -11.0902   23.5180 O   0  0  0  0  0  0  0  0  0  1  0  0
  -19.5401  -27.1898   23.3713 F   0  0  0  0  0  0  0  0  0  0  0  0
  -22.4982  -27.5039   19.6895 F   0  0  0  0  0  0  0  0  0  0  0  0
  1  2  1  0  0  0  0
  1  5  2  0  0  0  0
  2  6  2  0  0  0  0
  3  8  2  0  0  0  0
  3 16  1  0  0  0  0
  4  9  1  0  0  0  0
  4 16  2  0  0  0  0
  5 18  1  0  0  0  0
  6 20  1  0  0  0  0
  7 10  2  0  0  0  0
  7 19  1  0  0  0  0
  8 24  1  0  0  0  0
  9 24  2  0  0  0  0
 10 25  1  0  0  0  0
 11 12  2  0  0  0  0
 11 26  1  0  0  0  0
 12 27  1  0  0  0  0
 13 21  1  0  0  0  0
 13 25  2  0  0  0  0
 14 27  2  0  0  0  0
 14 28  1  0  0  0  0
 15 23  2  0  0  0  0
 15 68  1  0  0  0  0
 16 29  1  0  0  0  0
 17 29  1  0  0  0  0
 17 31  2  0  0  0  0
 17 32  1  0  0  0  0
 18 20  2  0  0  0  0
 18 37  1  0  0  0  0
 19 21  2  0  0  0  0
 19 38  1  0  0  0  0
 20 46  1  0  0  0  0
 21 39  1  0  0  0  0
 22 23  1  0  0  0  0
 22 30  2  0  0  0  0
 22 58  1  0  0  0  0
 23 74  1  0  0  0  0
 24 84  1  0  0  0  0
 25 85  1  0  0  0  0
 26 28  2  0  0  0  0
 26 84  1  0  0  0  0
 27 86  1  0  0  0  0
 28 87  1  0  0  0  0
 29 67  2  0  0  0  0
 30 49  1  0  0  0  0
 30 68  1  0  0  0  0
 31 69  1  0  0  0  0
 31 72  1  0  0  0  0
 32 73  1  0  0  0  0
 32 79  2  0  0  0  0
 33 47  1  0  0  0  0
 33 75  1  0  0  0  0
 33 80  2  0  0  0  0
 34 62  1  0  0  0  0
 34 70  1  0  0  0  0
 34 81  2  0  0  0  0
 35 63  1  0  0  0  0
 35 76  1  0  0  0  0
 35 82  2  0  0  0  0
 36 71  1  0  0  0  0
 36 74  1  0  0  0  0
 36 83  2  0  0  0  0
 37 40  1  0  0  0  0
 38 47  1  0  0  0  0
 39 70  1  0  0  0  0
 40 42  1  0  0  0  0
 41 43  1  0  0  0  0
 41 44  1  0  0  0  0
 42 46  1  0  0  0  0
 43 48  1  0  0  0  0
 44 71  1  0  0  0  0
 45 48  1  0  0  0  0
 45 71  1  0  0  0  0
 46 75  1  0  0  0  0
 47 70  1  0  0  0  0
 48 69  1  0  0  0  0
 50 58  1  0  0  0  0
 51 63  1  0  0  0  0
 52 64  1  0  0  0  0
 53 65  1  0  0  0  0
 54 66  1  0  0  0  0
 55 66  1  0  0  0  0
 56 66  1  0  0  0  0
 57 77  1  0  0  0  0
 59 64  1  0  0  0  0
 59 68  1  0  0  0  0
 60 64  1  0  0  0  0
 60 78  1  0  0  0  0
 61 65  1  0  0  0  0
 61 78  1  0  0  0  0
 62 66  1  0  0  0  0
 62 76  1  0  0  0  0
 63 77  1  0  0  0  0
 65 85  1  0  0  0  0
 67 69  1  0  0  0  0
M  CHG  2  77   1  78   1
M  ISO  4  36 100  65 101  74 100  85 101
M  END
> <Batch ID>
0116

> <Smiles>
CCc1c([100NH:0][100C:0](=O)N2CCCC(n3nc(-c4ccc(Oc5ccc(F)cc5F)cc4)c(C(N)=O)c3N)C2)cn(CC(C)CNC[101CH:1](C)[101O:1]c2ccc3c(c2)CN(C(=O)C(NC(=O)C(C)NC)C(C)(C)C)C(C(=O)NC2CCCc4ccccc42)C3)c1C

> <Shape>
0.249

> <Color>
0.076

> <Negative vol penalty>
0.000

$$$$

  -OEChem-04052320133D

 83 91  0     1  0  0  0  0  0999 V2000
  -17.9554  -31.6755   19.5276 C   0  0  0  0  0  0  0  0  0  0  0  0
  -19.2850  -31.5229   19.1478 C   0  0  0  0  0  0  0  0  0  0  0  0
  -26.6908  -13.4453   21.4383 C   0  0  0  0  0  0  0  0  0  0  0  0
  -25.9174  -12.6361   19.2973 C   0  0  0  0  0  0  0  0  0  0  0  0
  -17.5947  -31.5422   20.8678 C   0  0  0  0  0  0  0  0  0  0  0  0
  -20.2549  -31.2378   20.1082 C   0  0  0  0  0  0  0  0  0  0  0  0
  -25.2277  -27.7357   19.3918 C   0  0  0  0  0  0  0  0  0  0  0  0
  -25.6143  -12.8172   22.0646 C   0  0  0  0  0  0  0  0  0  0  0  0
  -24.8410  -12.0078   19.9235 C   0  0  0  0  0  0  0  0  0  0  0  0
  -26.5625  -28.0438   19.1326 C   0  0  0  0  0  0  0  0  0  0  0  0
  -22.0893   -9.8894   20.9999 C   0  0  0  0  0  0  0  0  0  0  0  0
  -21.7878   -8.5825   20.6167 C   0  0  0  0  0  0  0  0  0  0  0  0
  -27.0420  -27.9250   21.4938 C   0  0  0  0  0  0  0  0  0  0  0  0
  -23.9906   -7.8714   21.3089 C   0  0  0  0  0  0  0  0  0  0  0  0
  -26.8423  -13.3548   20.0546 C   0  0  0  0  0  0  0  0  0  0  0  0
  -29.2265  -13.4586   19.1533 C   0  0  0  0  0  0  0  0  0  0  0  0
  -18.5593  -31.2458   21.8437 C   0  0  0  0  0  0  0  0  0  0  0  0
  -24.7870  -27.5304   20.7071 C   0  0  0  0  0  0  0  0  0  0  0  0
  -19.9071  -31.1017   21.4629 C   0  0  0  0  0  0  0  0  0  0  0  0
  -25.7017  -27.6119   21.7667 C   0  0  0  0  0  0  0  0  0  0  0  0
  -24.6894  -12.0984   21.3072 C   0  0  0  0  0  0  0  0  0  0  0  0
  -27.4693  -28.1413   20.1839 C   0  0  0  0  0  0  0  0  0  0  0  0
  -23.3415  -10.1873   21.5374 C   0  0  0  0  0  0  0  0  0  0  0  0
  -22.7384   -7.5735   20.7713 C   0  0  0  0  0  0  0  0  0  0  0  0
  -24.2921   -9.1783   21.6920 C   0  0  0  0  0  0  0  0  0  0  0  0
  -27.9538  -14.0040   19.4070 C   0  0  0  0  0  0  0  0  0  0  0  0
  -29.9130  -14.4675   18.5230 C   0  0  0  0  0  0  0  0  0  0  0  0
  -29.7421  -12.1563   19.4598 C   0  0  0  0  0  0  0  0  0  0  0  0
  -22.6871  -28.9593   22.6181 C   0  0  0  0  0  0  0  0  0  0  0  0
  -23.3844  -26.4812   24.5917 C   0  0  0  0  0  0  0  0  0  0  0  0
  -25.5998  -24.0620   25.5331 C   0  0  0  0  0  0  0  0  0  0  0  0
  -28.9171  -20.4237   18.7405 C   0  0  0  0  0  0  0  0  0  0  0  0
  -18.1288  -31.1578   23.2865 C   0  0  0  0  0  0  0  0  0  0  0  0
  -23.3495  -27.1725   20.9676 C   0  0  0  0  0  0  0  0  0  0  0  0
  -25.2834  -27.3805   23.1950 C   0  0  0  0  0  0  0  0  0  0  0  0
  -19.1592  -30.4847   24.1896 C   0  0  0  0  0  0  0  0  0  0  0  0
  -29.2365  -18.2867   15.7261 C   0  0  0  0  0  0  0  0  0  0  0  0
  -20.5528  -31.0422   23.9175 C   0  0  0  0  0  0  0  0  0  0  0  0
  -29.0099  -16.8954   16.3193 C   0  0  0  0  0  0  0  0  0  0  0  0
  -31.1432  -22.9349   17.2405 C   0  0  0  0  0  0  0  0  0  0  0  0
  -28.4579  -19.3424   16.5002 C   0  0  0  0  0  0  0  0  0  0  0  0
  -30.3407  -21.6596   17.0026 C   0  0  0  0  0  0  0  0  0  0  0  0
  -28.5329  -17.9920   18.5612 C   0  0  0  0  0  0  0  0  0  0  0  0
  -29.4048  -22.8510   18.8692 C   0  0  0  0  0  0  0  0  0  0  0  0
  -20.9843  -30.7676   22.4719 C   0  0  1  0  0  0  0  0  0  0  0  0
  -22.9033  -27.4898   22.3915 C   0  0  1  0  0  0  0  0  0  0  0  0
  -29.3051  -16.8794   17.8302 C   0  0  1  0  0  0  0  0  0  0  0  0
  -30.1221  -23.8166   17.9437 C   0  0  1  0  0  0  0  0  0  0  0  0
  -25.9066  -22.2136   27.2025 C   0  0  0  0  0  0  0  0  0  0  0  0
  -24.0018  -28.5415   26.7559 C   0  0  0  0  0  0  0  0  0  0  0  0
  -25.1824  -26.7418   28.0346 C   0  0  0  0  0  0  0  0  0  0  0  0
  -22.7432  -26.5338   27.5555 C   0  0  0  0  0  0  0  0  0  0  0  0
  -31.4300  -28.4676   22.6449 C   0  0  0  0  0  0  0  0  0  0  0  0
  -31.3295  -29.8900   20.5959 C   0  0  0  0  0  0  0  0  0  0  0  0
  -29.5047  -30.0169   22.3045 C   0  0  0  0  0  0  0  0  0  0  0  0
  -25.7773  -22.0126   23.4052 C   0  0  0  0  0  0  0  0  0  0  0  0
  -30.6504  -26.9262   20.0839 C   0  0  0  0  0  0  0  0  0  0  0  0
  -29.8397  -25.8470   19.3707 C   0  0  0  0  0  0  0  0  0  0  0  0
  -24.4059  -26.2319   25.6750 C   0  0  1  0  0  0  0  0  0  0  0  0
  -25.4162  -22.5808   25.8105 C   0  0  2  0  0  0  0  0  0  0  0  0
  -29.7421  -27.9088   20.8444 C   0  0  1  0  0  0  0  0  0  1  0  0
  -24.0911  -27.0186   26.9786 C   0  0  0  0  0  0  0  0  0  0  0  0
  -30.4812  -29.0680   21.5846 C   0  0  0  0  0  0  0  0  0  0  0  0
  -27.8360  -15.2619   18.9735 N   0  0  0  0  0  0  0  0  0  0  0  0
  -29.0437  -15.5153   18.4411 N   0  0  0  0  0  0  0  0  0  0  0  0
  -23.8658  -27.0394   23.3990 N   0  0  0  0  0  0  0  0  0  0  0  0
  -28.7741  -19.2915   17.9304 N   0  0  0  0  0  0  0  0  0  0  0  0
  -29.4331  -21.5773   18.1519 N   0  0  0  0  0  0  0  0  0  0  0  0
  -31.1694  -14.5519   18.0365 N   0  0  0  0  0  0  0  0  0  0  0  0
  -28.9027  -11.2413   20.1097 N   0  0  0  0  0  0  0  0  0  0  0  0
  -21.4082  -29.3918   22.3236 N   0  0  0  0  0  0  0  0  0  0  0  0
  -24.4696  -24.7850   25.8508 N   0  0  0  0  0  0  0  0  0  0  0  0
  -30.7762  -24.8999   18.6959 N   0  3  0  0  0  0  0  0  0  0  0  0
  -26.1739  -21.7697   24.8161 N   0  3  0  0  0  0  0  0  0  0  0  0
  -30.9179  -11.8198   19.1807 O   0  0  0  0  0  0  0  0  0  0  0  0
  -23.6117  -29.6494   23.0311 O   0  0  0  0  0  0  0  0  0  0  0  0
  -22.2042  -26.1846   24.7935 O   0  0  0  0  0  0  0  0  0  0  0  0
  -26.6429  -24.5311   25.0832 O   0  0  0  0  0  0  0  0  0  0  0  0
  -28.6420  -20.3916   19.9473 O   0  0  0  0  0  0  0  0  0  0  0  0
  -23.6390  -11.4851   21.9180 O   0  0  0  0  0  0  0  0  0  0  0  0
  -28.7780  -28.4438   19.9328 O   0  0  0  0  0  0  0  0  0  1  0  0
  -22.4482   -6.3183   20.4048 F   0  0  0  0  0  0  0  0  0  0  0  0
  -25.4964   -9.4582   22.2089 F   0  0  0  0  0  0  0  0  0  0  0  0
  1  2  1  0  0  0  0
  1  5  2  0  0  0  0
  2  6  2  0  0  0  0
  3  8  2  0  0  0  0
  3 15  1  0  0  0  0
  4  9  1  0  0  0  0
  4 15  2  0  0  0  0
  5 17  1  0  0  0  0
  6 19  1  0  0  0  0
  7 10  2  0  0  0  0
  7 18  1  0  0  0  0
  8 21  1  0  0  0  0
  9 21  2  0  0  0  0
 10 22  1  0  0  0  0
 11 12  2  0  0  0  0
 11 23  1  0  0  0  0
 12 24  1  0  0  0  0
 13 20  1  0  0  0  0
 13 22  2  0  0  0  0
 14 24  2  0  0  0  0
 14 25  1  0  0  0  0
 15 26  1  0  0  0  0
 16 26  1  0  0  0  0
 16 27  2  0  0  0  0
 16 28  1  0  0  0  0
 17 19  2  0  0  0  0
 17 33  1  0  0  0  0
 18 20  2  0  0  0  0
 18 34  1  0  0  0  0
 19 45  1  0  0  0  0
 20 35  1  0  0  0  0
 21 80  1  0  0  0  0
 22 81  1  0  0  0  0
 23 25  2  0  0  0  0
 23 80  1  0  0  0  0
 24 82  1  0  0  0  0
 25 83  1  0  0  0  0
 26 64  2  0  0  0  0
 27 65  1  0  0  0  0
 27 69  1  0  0  0  0
 28 70  1  0  0  0  0
 28 75  2  0  0  0  0
 29 46  1  0  0  0  0
 29 71  1  0  0  0  0
 29 76  2  0  0  0  0
 30 59  1  0  0  0  0
 30 66  1  0  0  0  0
 30 77  2  0  0  0  0
 31 60  1  0  0  0  0
 31 72  1  0  0  0  0
 31 78  2  0  0  0  0
 32 67  1  0  0  0  0
 32 68  1  0  0  0  0
 32 79  2  0  0  0  0
 33 36  1  0  0  0  0
 34 46  1  0  0  0  0
 35 66  1  0  0  0  0
 36 38  1  0  0  0  0
 37 39  1  0  0  0  0
 37 41  1  0  0  0  0
 38 45  1  0  0  0  0
 39 47  1  0  0  0  0
 40 42  1  0  0  0  0
 40 48  1  0  0  0  0
 41 67  1  0  0  0  0
 42 68  1  0  0  0  0
 43 47  1  0  0  0  0
 43 67  1  0  0  0  0
 44 48  1  0  0  0  0
 44 68  1  0  0  0  0
 45 71  1  0  0  0  0
 46 66  1  0  0  0  0
 47 65  1  0  0  0  0
 48 73  1  0  0  0  0
 49 60  1  0  0  0  0
 50 62  1  0  0  0  0
 51 62  1  0  0  0  0
 52 62  1  0  0  0  0
 53 63  1  0  0  0  0
 54 63  1  0  0  0  0
 55 63  1  0  0  0  0
 56 74  1  0  0  0  0
 57 58  1  0  0  0  0
 57 61  1  0  0  0  0
 58 73  1  0  0  0  0
 59 62  1  0  0  0  0
 59 72  1  0  0  0  0
 60 74  1  0  0  0  0
 61 63  1  0  0  0  0
 61 81  1  0  0  0  0
 64 65  1  0  0  0  0
M  CHG  2  73   1  74   1
M  ISO  4  32 100  61 101  68 100  81 101
M  END
> <Batch ID>
0116

> <Smiles>
CNC(C)C(=O)NC(C(=O)N1Cc2cc([101O:1][101CH:1](CCNC3CC[100N:0]([100C:0](=O)N4CCCC(n5nc(-c6ccc(Oc7ccc(F)cc7F)cc6)c(C(N)=O)c5N)C4)C3)C(C)(C)C)ccc2CC1C(=O)NC1CCCc2ccccc21)C(C)(C)C

> <Shape>
0.245

> <Color>
0.088

> <Negative vol penalty>
0.000

$$$$

  -OEChem-04052320133D

 84 92  0     1  0  0  0  0  0999 V2000
  -17.9530  -30.9425   23.2445 C   0  0  0  0  0  0  0  0  0  0  0  0
  -19.3400  -31.0157   23.1647 C   0  0  0  0  0  0  0  0  0  0  0  0
  -24.9276  -13.8535   21.4395 C   0  0  0  0  0  0  0  0  0  0  0  0
  -27.1220  -13.2068   20.6626 C   0  0  0  0  0  0  0  0  0  0  0  0
  -17.3157  -29.7049   23.1653 C   0  0  0  0  0  0  0  0  0  0  0  0
  -20.0906  -29.8512   23.0067 C   0  0  0  0  0  0  0  0  0  0  0  0
  -25.2897  -29.2247   19.8315 C   0  0  0  0  0  0  0  0  0  0  0  0
  -24.3863  -12.7012   20.8697 C   0  0  0  0  0  0  0  0  0  0  0  0
  -26.5807  -12.0545   20.0928 C   0  0  0  0  0  0  0  0  0  0  0  0
  -26.6292  -29.2130   20.2180 C   0  0  0  0  0  0  0  0  0  0  0  0
  -24.1770   -9.4117   21.6234 C   0  0  0  0  0  0  0  0  0  0  0  0
  -23.2703   -8.6757   22.3862 C   0  0  0  0  0  0  0  0  0  0  0  0
  -26.5859  -26.8017   20.2735 C   0  0  0  0  0  0  0  0  0  0  0  0
  -21.5765   -9.0107   20.6963 C   0  0  0  0  0  0  0  0  0  0  0  0
  -26.2955  -14.1064   21.3359 C   0  0  0  0  0  0  0  0  0  0  0  0
  -27.3608  -15.4433   23.2295 C   0  0  0  0  0  0  0  0  0  0  0  0
  -18.0583  -28.5256   22.9966 C   0  0  0  0  0  0  0  0  0  0  0  0
  -24.5840  -28.0233   19.6734 C   0  0  0  0  0  0  0  0  0  0  0  0
  -19.4627  -28.5965   22.9265 C   0  0  0  0  0  0  0  0  0  0  0  0
  -25.2383  -26.8008   19.8824 C   0  0  0  0  0  0  0  0  0  0  0  0
  -25.2128  -11.8017   20.1964 C   0  0  0  0  0  0  0  0  0  0  0  0
  -27.2767  -28.0015   20.4419 C   0  0  0  0  0  0  0  0  0  0  0  0
  -23.7834   -9.9472   20.3970 C   0  0  0  0  0  0  0  0  0  0  0  0
  -21.9701   -8.4752   21.9227 C   0  0  0  0  0  0  0  0  0  0  0  0
  -22.4832   -9.7467   19.9334 C   0  0  0  0  0  0  0  0  0  0  0  0
  -26.8552  -15.2969   21.9238 C   0  0  0  0  0  0  0  0  0  0  0  0
  -27.7705  -16.7526   23.2942 C   0  0  0  0  0  0  0  0  0  0  0  0
  -27.4520  -14.4817   24.2890 C   0  0  0  0  0  0  0  0  0  0  0  0
  -22.0390  -26.7176   21.0597 C   0  0  0  0  0  0  0  0  0  0  0  0
  -22.4264  -24.4644   18.7585 C   0  0  0  0  0  0  0  0  0  0  0  0
  -24.5153  -22.8947   16.5632 C   0  0  0  0  0  0  0  0  0  0  0  0
  -29.5412  -20.5310   19.1176 C   0  0  0  0  0  0  0  0  0  0  0  0
  -17.3280  -27.2064   22.9636 C   0  0  0  0  0  0  0  0  0  0  0  0
  -23.1470  -28.0521   19.2301 C   0  0  0  0  0  0  0  0  0  0  0  0
  -24.5311  -25.4827   19.7066 C   0  0  0  0  0  0  0  0  0  0  0  0
  -18.1720  -26.0564   22.4201 C   0  0  0  0  0  0  0  0  0  0  0  0
  -26.8267  -21.0673   21.4502 C   0  0  0  0  0  0  0  0  0  0  0  0
  -19.5574  -26.0629   23.0584 C   0  0  0  0  0  0  0  0  0  0  0  0
  -26.5785  -19.6465   21.9600 C   0  0  0  0  0  0  0  0  0  0  0  0
  -27.1779  -21.0684   19.9653 C   0  0  0  0  0  0  0  0  0  0  0  0
  -30.4799  -26.2862   20.1968 C   0  0  0  0  0  0  0  0  0  0  0  0
  -28.0924  -18.7848   20.1145 C   0  0  0  0  0  0  0  0  0  0  0  0
  -31.2099  -25.2822   19.3156 C   0  0  0  0  0  0  0  0  0  0  0  0
  -31.8944  -24.0682   21.3659 C   0  0  0  0  0  0  0  0  0  0  0  0
  -20.3099  -27.3581   22.7303 C   0  0  1  0  0  0  0  0  0  0  0  0
  -22.3825  -26.7843   19.5985 C   0  0  1  0  0  0  0  0  0  0  0  0
  -27.7547  -18.7140   21.6149 C   0  0  2  0  0  0  0  0  0  0  0  0
  -31.1493  -25.1100   22.2159 C   0  0  1  0  0  0  0  0  0  0  0  0
  -31.8477  -25.1895   23.5805 C   0  0  0  0  0  0  0  0  0  0  0  0
  -24.5532  -21.0677   14.8433 C   0  0  0  0  0  0  0  0  0  0  0  0
  -30.9761  -28.8150   21.8905 C   0  0  0  0  0  0  0  0  0  0  0  0
  -28.0892  -28.0999   23.1524 C   0  0  0  0  0  0  0  0  0  0  0  0
  -22.4370  -22.3749   20.9820 C   0  0  0  0  0  0  0  0  0  0  0  0
  -23.4089  -20.7442   19.3497 C   0  0  0  0  0  0  0  0  0  0  0  0
  -21.1496  -21.7194   18.9405 C   0  0  0  0  0  0  0  0  0  0  0  0
  -25.2703  -24.7790   14.4095 C   0  0  0  0  0  0  0  0  0  0  0  0
  -30.8745  -22.3826   18.1424 C   0  0  0  0  0  0  0  0  0  0  0  0
  -31.8722  -22.8835   19.1700 C   0  0  0  0  0  0  0  0  0  0  0  0
  -23.1982  -23.1717   18.6472 C   0  0  1  0  0  0  0  0  0  0  0  0
  -24.3596  -22.5555   15.0917 C   0  0  2  0  0  0  0  0  0  0  0  0
  -30.4156  -27.4469   22.2908 C   0  0  1  0  0  0  0  0  0  0  0  0
  -28.8912  -27.3777   22.0729 C   0  0  2  0  0  0  0  0  0  1  0  0
  -22.5615  -22.0273   19.4851 C   0  0  0  0  0  0  0  0  0  0  0  0
  -26.9352  -16.4233   21.2105 N   0  0  0  0  0  0  0  0  0  0  0  0
  -27.4958  -17.2901   22.0711 N   0  0  0  0  0  0  0  0  0  0  0  0
  -23.1249  -25.5635   19.2782 N   0  0  0  0  0  0  0  0  0  0  0  0
  -28.3166  -20.1758   19.7072 N   0  0  0  0  0  0  0  0  0  0  0  0
  -31.1147  -26.4154   21.5193 N   0  0  2  0  0  0  0  0  0  0  0  0
  -28.3353  -17.4852   24.2774 N   0  0  0  0  0  0  0  0  0  0  0  0
  -26.9846  -13.1815   24.0534 N   0  0  0  0  0  0  0  0  0  0  0  0
  -20.8332  -27.3108   21.3818 N   0  0  0  0  0  0  0  0  0  0  0  0
  -23.3038  -22.8809   17.2215 N   0  0  0  0  0  0  0  0  0  0  0  0
  -29.6705  -21.8660   18.7544 N   0  0  0  0  0  0  0  0  0  0  0  0
  -31.2382  -23.9516   20.0155 N   0  3  2  0  0  0  0  0  0  0  0  0
  -25.3614  -23.3019   14.2793 N   0  3  0  0  0  0  0  0  0  0  0  0
  -27.9187  -14.7713   25.4168 O   0  0  0  0  0  0  0  0  0  0  0  0
  -22.8101  -26.1673   21.8371 O   0  0  0  0  0  0  0  0  0  0  0  0
  -21.2494  -24.4995   18.3912 O   0  0  0  0  0  0  0  0  0  0  0  0
  -25.6033  -23.1432   17.0780 O   0  0  0  0  0  0  0  0  0  0  0  0
  -30.4546  -19.7193   18.9332 O   0  0  0  0  0  0  0  0  0  0  0  0
  -24.6850  -10.6770   19.6405 O   0  0  0  0  0  0  0  0  0  0  0  0
  -28.5840  -27.9873   20.8198 O   0  0  0  0  0  0  0  0  0  1  0  0
  -21.1000   -7.7672   22.6546 F   0  0  0  0  0  0  0  0  0  0  0  0
  -22.0997  -10.2578   18.7555 F   0  0  0  0  0  0  0  0  0  0  0  0
  1  2  1  0  0  0  0
  1  5  2  0  0  0  0
  2  6  2  0  0  0  0
  3  8  2  0  0  0  0
  3 15  1  0  0  0  0
  4  9  1  0  0  0  0
  4 15  2  0  0  0  0
  5 17  1  0  0  0  0
  6 19  1  0  0  0  0
  7 10  2  0  0  0  0
  7 18  1  0  0  0  0
  8 21  1  0  0  0  0
  9 21  2  0  0  0  0
 10 22  1  0  0  0  0
 11 12  2  0  0  0  0
 11 23  1  0  0  0  0
 12 24  1  0  0  0  0
 13 20  1  0  0  0  0
 13 22  2  0  0  0  0
 14 24  2  0  0  0  0
 14 25  1  0  0  0  0
 15 26  1  0  0  0  0
 16 26  1  0  0  0  0
 16 27  2  0  0  0  0
 16 28  1  0  0  0  0
 17 19  2  0  0  0  0
 17 33  1  0  0  0  0
 18 20  2  0  0  0  0
 18 34  1  0  0  0  0
 19 45  1  0  0  0  0
 20 35  1  0  0  0  0
 21 81  1  0  0  0  0
 22 82  1  0  0  0  0
 23 25  2  0  0  0  0
 23 81  1  0  0  0  0
 24 83  1  0  0  0  0
 25 84  1  0  0  0  0
 26 64  2  0  0  0  0
 27 65  1  0  0  0  0
 27 69  1  0  0  0  0
 28 70  1  0  0  0  0
 28 76  2  0  0  0  0
 29 46  1  0  0  0  0
 29 71  1  0  0  0  0
 29 77  2  0  0  0  0
 30 59  1  0  0  0  0
 30 66  1  0  0  0  0
 30 78  2  0  0  0  0
 31 60  1  0  0  0  0
 31 72  1  0  0  0  0
 31 79  2  0  0  0  0
 32 67  1  0  0  0  0
 32 73  1  0  0  0  0
 32 80  2  0  0  0  0
 33 36  1  0  0  0  0
 34 46  1  0  0  0  0
 35 66  1  0  0  0  0
 36 38  1  0  0  0  0
 37 39  1  0  0  0  0
 37 40  1  0  0  0  0
 38 45  1  0  0  0  0
 39 47  1  0  0  0  0
 40 67  1  0  0  0  0
 41 43  1  0  0  0  0
 41 68  1  0  0  0  0
 42 47  1  0  0  0  0
 42 67  1  0  0  0  0
 43 74  1  0  0  0  0
 44 48  1  0  0  0  0
 44 74  1  0  0  0  0
 45 71  1  0  0  0  0
 46 66  1  0  0  0  0
 47 65  1  0  0  0  0
 48 49  1  0  0  0  0
 48 68  1  0  0  0  0
 50 60  1  0  0  0  0
 51 61  1  0  0  0  0
 52 62  1  0  0  0  0
 53 63  1  0  0  0  0
 54 63  1  0  0  0  0
 55 63  1  0  0  0  0
 56 75  1  0  0  0  0
 57 58  1  0  0  0  0
 57 73  1  0  0  0  0
 58 74  1  0  0  0  0
 59 63  1  0  0  0  0
 59 72  1  0  0  0  0
 60 75  1  0  0  0  0
 61 62  1  0  0  0  0
 61 68  1  0  0  0  0
 62 82  1  0  0  0  0
 64 65  1  0  0  0  0
M  CHG  2  74   1  75   1
M  ISO  4  32 100  62 101  73 100  82 101
M  END
> <Batch ID>
0116

> <Smiles>
CNC(C)C(=O)NC(C(=O)N1Cc2cc([101O:1][101CH:1](C)C(C)N3CCN(CC[100NH:0][100C:0](=O)N4CCCC(n5nc(-c6ccc(Oc7ccc(F)cc7F)cc6)c(C(N)=O)c5N)C4)CC3C)ccc2CC1C(=O)NC1CCCc2ccccc21)C(C)(C)C

> <Shape>
0.249

> <Color>
0.070

> <Negative vol penalty>
0.000

$$$$

  -OEChem-04052320133D

 90 99  0     1  0  0  0  0  0999 V2000
  -17.2897  -26.1774   21.4803 C   0  0  0  0  0  0  0  0  0  0  0  0
  -18.5186  -25.5677   21.7114 C   0  0  0  0  0  0  0  0  0  0  0  0
  -25.3752  -15.0086   23.8491 C   0  0  0  0  0  0  0  0  0  0  0  0
  -25.2977  -16.3128   21.8169 C   0  0  0  0  0  0  0  0  0  0  0  0
  -17.1932  -27.5683   21.4730 C   0  0  0  0  0  0  0  0  0  0  0  0
  -19.6521  -26.3487   21.9343 C   0  0  0  0  0  0  0  0  0  0  0  0
  -24.3458  -25.0497   25.6475 C   0  0  0  0  0  0  0  0  0  0  0  0
  -25.2648  -16.1769   24.6031 C   0  0  0  0  0  0  0  0  0  0  0  0
  -25.1872  -17.4811   22.5709 C   0  0  0  0  0  0  0  0  0  0  0  0
  -25.6093  -24.5107   25.4089 C   0  0  0  0  0  0  0  0  0  0  0  0
  -22.7707  -19.1371   24.2557 C   0  0  0  0  0  0  0  0  0  0  0  0
  -21.8201  -20.0767   23.8568 C   0  0  0  0  0  0  0  0  0  0  0  0
  -28.4633  -22.1826   21.0030 C   0  0  0  0  0  0  0  0  0  0  0  0
  -26.5347  -26.7365   25.3164 C   0  0  0  0  0  0  0  0  0  0  0  0
  -23.5681  -21.7168   23.5541 C   0  0  0  0  0  0  0  0  0  0  0  0
  -28.6716  -24.1595   19.6971 C   0  0  0  0  0  0  0  0  0  0  0  0
  -25.3917  -15.0766   22.4560 C   0  0  0  0  0  0  0  0  0  0  0  0
  -28.8037  -21.4400   19.8778 C   0  0  0  0  0  0  0  0  0  0  0  0
  -24.6239  -12.7733   21.6730 C   0  0  0  0  0  0  0  0  0  0  0  0
  -18.3243  -28.3666   21.7055 C   0  0  0  0  0  0  0  0  0  0  0  0
  -24.1652  -26.4388   25.7116 C   0  0  0  0  0  0  0  0  0  0  0  0
  -19.5710  -27.7516   21.9288 C   0  0  0  0  0  0  0  0  0  0  0  0
  -25.2685  -27.2905   25.5585 C   0  0  0  0  0  0  0  0  0  0  0  0
  -28.3937  -23.5688   20.9193 C   0  0  0  0  0  0  0  0  0  0  0  0
  -25.1707  -17.4131   23.9640 C   0  0  0  0  0  0  0  0  0  0  0  0
  -26.7035  -25.3542   25.2404 C   0  0  0  0  0  0  0  0  0  0  0  0
  -24.1201  -19.4874   24.3039 C   0  0  0  0  0  0  0  0  0  0  0  0
  -22.2188  -21.3665   23.5059 C   0  0  0  0  0  0  0  0  0  0  0  0
  -24.5187  -20.7772   23.9531 C   0  0  0  0  0  0  0  0  0  0  0  0
  -25.5064  -13.8702   21.6765 C   0  0  0  0  0  0  0  0  0  0  0  0
  -29.0630  -22.1260   18.7022 C   0  0  0  0  0  0  0  0  0  0  0  0
  -25.1729  -11.8939   20.7720 C   0  0  0  0  0  0  0  0  0  0  0  0
  -28.8806  -19.9589   19.9650 C   0  0  0  0  0  0  0  0  0  0  0  0
  -23.4160  -12.5678   22.4175 C   0  0  0  0  0  0  0  0  0  0  0  0
  -22.4934  -28.5630   24.0392 C   0  0  0  0  0  0  0  0  0  0  0  0
  -23.5265  -30.6050   26.3382 C   0  0  0  0  0  0  0  0  0  0  0  0
  -25.8500  -31.3433   28.7263 C   0  0  0  0  0  0  0  0  0  0  0  0
  -29.3970  -14.9953   19.0406 C   0  0  0  0  0  0  0  0  0  0  0  0
  -18.1798  -29.8665   21.6410 C   0  0  0  0  0  0  0  0  0  0  0  0
  -22.8005  -27.0037   25.9964 C   0  0  0  0  0  0  0  0  0  0  0  0
  -25.1312  -28.7883   25.6385 C   0  0  0  0  0  0  0  0  0  0  0  0
  -19.3564  -30.6188   22.2574 C   0  0  0  0  0  0  0  0  0  0  0  0
  -29.4815  -11.7683   20.5724 C   0  0  0  0  0  0  0  0  0  0  0  0
  -29.1404  -16.6096   15.8036 C   0  0  0  0  0  0  0  0  0  0  0  0
  -20.6783  -30.0310   21.7737 C   0  0  0  0  0  0  0  0  0  0  0  0
  -28.3196  -11.0069   19.9439 C   0  0  0  0  0  0  0  0  0  0  0  0
  -28.6623  -17.7580   16.6809 C   0  0  0  0  0  0  0  0  0  0  0  0
  -30.1287  -12.6941   19.5542 C   0  0  0  0  0  0  0  0  0  0  0  0
  -28.7409  -15.3851   16.6123 C   0  0  0  0  0  0  0  0  0  0  0  0
  -27.9586  -12.9990   18.3778 C   0  0  0  0  0  0  0  0  0  0  0  0
  -20.8185  -28.5644   22.1993 C   0  0  1  0  0  0  0  0  0  0  0  0
  -22.6423  -28.4476   25.5299 C   0  0  1  0  0  0  0  0  0  0  0  0
  -27.2910  -11.9401   19.2853 C   0  0  2  0  0  0  0  0  0  0  0  0
  -28.9594  -17.2639   18.0994 C   0  0  1  0  0  0  0  0  0  0  0  0
  -29.4330  -21.3824   17.4600 C   0  0  0  0  0  0  0  0  0  0  0  0
  -26.4493  -33.0999   30.4152 C   0  0  0  0  0  0  0  0  0  0  0  0
  -30.0604  -25.9555   25.0675 C   0  0  0  0  0  0  0  0  0  0  0  0
  -24.5777  -32.3939   24.1010 C   0  0  0  0  0  0  0  0  0  0  0  0
  -25.9595  -33.5972   25.8071 C   0  0  0  0  0  0  0  0  0  0  0  0
  -23.4711  -33.6163   25.9813 C   0  0  0  0  0  0  0  0  0  0  0  0
  -25.5856  -29.4370   30.9746 C   0  0  0  0  0  0  0  0  0  0  0  0
  -28.0323  -24.3914   22.1046 C   0  0  0  0  0  0  0  0  0  0  0  0
  -27.9658  -17.8154   19.1139 C   0  0  0  0  0  0  0  0  0  0  0  0
  -29.2344  -24.8347   22.9662 C   0  0  0  0  0  0  0  0  0  0  0  0
  -24.7347  -31.4926   26.5154 C   0  0  1  0  0  0  0  0  0  0  0  0
  -25.7039  -31.7977   30.1674 C   0  0  2  0  0  0  0  0  0  0  0  0
  -28.8376  -25.6168   24.2244 C   0  0  1  0  0  0  0  0  0  1  0  0
  -24.6883  -32.7469   25.5977 C   0  0  0  0  0  0  0  0  0  0  0  0
  -29.0056  -23.4713   18.5825 N   0  0  0  0  0  0  0  0  0  0  0  0
  -26.5377  -13.7049   20.8440 N   0  0  0  0  0  0  0  0  0  0  0  0
  -26.3068  -12.4939   20.3090 N   0  0  0  0  0  0  0  0  0  0  0  0
  -23.7754  -29.2925   25.9125 N   0  0  0  0  0  0  0  0  0  0  0  0
  -29.1603  -13.6150   18.9586 N   0  0  0  0  0  0  0  0  0  0  0  0
  -28.9157  -15.7997   18.0052 N   0  0  0  0  0  0  0  0  0  0  0  0
  -24.7915  -10.6736   20.3387 N   0  0  0  0  0  0  0  0  0  0  0  0
  -22.2048  -12.9964   21.8574 N   0  0  0  0  0  0  0  0  0  0  0  0
  -28.0251  -19.2395   19.1277 N   0  0  0  0  0  0  0  0  0  0  0  0
  -21.1875  -28.4765   23.5959 N   0  0  0  0  0  0  0  0  0  0  0  0
  -24.8121  -31.7971   27.9400 N   0  0  0  0  0  0  0  0  0  0  0  0
  -26.2443  -30.7631   31.0940 N   0  3  0  0  0  0  0  0  0  0  0  0
  -29.6586  -19.4445   20.7641 O   0  0  0  0  0  0  0  0  0  0  0  0
  -23.4127  -12.0350   23.5532 O   0  0  0  0  0  0  0  0  0  0  0  0
  -23.4894  -28.7204   23.3429 O   0  0  0  0  0  0  0  0  0  0  0  0
  -22.4037  -31.0574   26.5758 O   0  0  0  0  0  0  0  0  0  0  0  0
  -26.7925  -30.6577   28.3363 O   0  0  0  0  0  0  0  0  0  0  0  0
  -30.0196  -15.4865   19.9915 O   0  0  0  0  0  0  0  0  0  0  0  0
  -25.0627  -18.5533   24.6995 O   0  0  0  0  0  0  0  0  0  0  0  0
  -27.9453  -24.8274   25.0053 O   0  0  0  0  0  0  0  0  0  1  0  0
  -21.3059  -22.2682   23.1214 F   0  0  0  0  0  0  0  0  0  0  0  0
  -25.8137  -21.1193   23.9963 F   0  0  0  0  0  0  0  0  0  0  0  0
  1  2  1  0  0  0  0
  1  5  2  0  0  0  0
  2  6  2  0  0  0  0
  3  8  2  0  0  0  0
  3 17  1  0  0  0  0
  4  9  1  0  0  0  0
  4 17  2  0  0  0  0
  5 20  1  0  0  0  0
  6 22  1  0  0  0  0
  7 10  2  0  0  0  0
  7 21  1  0  0  0  0
  8 25  1  0  0  0  0
  9 25  2  0  0  0  0
 10 26  1  0  0  0  0
 11 12  2  0  0  0  0
 11 27  1  0  0  0  0
 12 28  1  0  0  0  0
 13 18  1  0  0  0  0
 13 24  2  0  0  0  0
 14 23  1  0  0  0  0
 14 26  2  0  0  0  0
 15 28  2  0  0  0  0
 15 29  1  0  0  0  0
 16 24  1  0  0  0  0
 16 69  2  0  0  0  0
 17 30  1  0  0  0  0
 18 31  2  0  0  0  0
 18 33  1  0  0  0  0
 19 30  1  0  0  0  0
 19 32  2  0  0  0  0
 19 34  1  0  0  0  0
 20 22  2  0  0  0  0
 20 39  1  0  0  0  0
 21 23  2  0  0  0  0
 21 40  1  0  0  0  0
 22 51  1  0  0  0  0
 23 41  1  0  0  0  0
 24 62  1  0  0  0  0
 25 87  1  0  0  0  0
 26 88  1  0  0  0  0
 27 29  2  0  0  0  0
 27 87  1  0  0  0  0
 28 89  1  0  0  0  0
 29 90  1  0  0  0  0
 30 70  2  0  0  0  0
 31 55  1  0  0  0  0
 31 69  1  0  0  0  0
 32 71  1  0  0  0  0
 32 75  1  0  0  0  0
 33 77  1  0  0  0  0
 33 81  2  0  0  0  0
 34 76  1  0  0  0  0
 34 82  2  0  0  0  0
 35 52  1  0  0  0  0
 35 78  1  0  0  0  0
 35 83  2  0  0  0  0
 36 65  1  0  0  0  0
 36 72  1  0  0  0  0
 36 84  2  0  0  0  0
 37 66  1  0  0  0  0
 37 79  1  0  0  0  0
 37 85  2  0  0  0  0
 38 73  1  0  0  0  0
 38 74  1  0  0  0  0
 38 86  2  0  0  0  0
 39 42  1  0  0  0  0
 40 52  1  0  0  0  0
 41 72  1  0  0  0  0
 42 45  1  0  0  0  0
 43 46  1  0  0  0  0
 43 48  1  0  0  0  0
 44 47  1  0  0  0  0
 44 49  1  0  0  0  0
 45 51  1  0  0  0  0
 46 53  1  0  0  0  0
 47 54  1  0  0  0  0
 48 73  1  0  0  0  0
 49 74  1  0  0  0  0
 50 53  1  0  0  0  0
 50 73  1  0  0  0  0
 51 78  1  0  0  0  0
 52 72  1  0  0  0  0
 53 71  1  0  0  0  0
 54 63  1  0  0  0  0
 54 74  1  0  0  0  0
 56 66  1  0  0  0  0
 57 67  1  0  0  0  0
 58 68  1  0  0  0  0
 59 68  1  0  0  0  0
 60 68  1  0  0  0  0
 61 80  1  0  0  0  0
 62 64  1  0  0  0  0
 63 77  1  0  0  0  0
 64 67  1  0  0  0  0
 65 68  1  0  0  0  0
 65 79  1  0  0  0  0
 66 80  1  0  0  0  0
 67 88  1  0  0  0  0
 70 71  1  0  0  0  0
M  CHG  1  80   1
M  ISO  4  38 100  67 101  74 100  88 101
M  END
> <Batch ID>
0116

> <Smiles>
CNC(C)C(=O)NC(C(=O)N1Cc2cc([101O:1][101CH:1](C)CCc3cnc(C)c(C(=O)NCC4CCC[100N:0]4[100C:0](=O)N4CCCC(n5nc(-c6ccc(Oc7ccc(F)cc7F)cc6)c(C(N)=O)c5N)C4)c3)ccc2CC1C(=O)NC1CCCc2ccccc21)C(C)(C)C

> <Shape>
0.224

> <Color>
0.090

> <Negative vol penalty>
0.000

$$$$

  -OEChem-04052320133D

 92101  0     1  0  0  0  0  0999 V2000
  -17.0928  -26.6054   22.4695 C   0  0  0  0  0  0  0  0  0  0  0  0
  -18.2895  -26.0161   22.8645 C   0  0  0  0  0  0  0  0  0  0  0  0
  -25.0590  -13.4286   19.0440 C   0  0  0  0  0  0  0  0  0  0  0  0
  -26.2530  -14.2470   20.9783 C   0  0  0  0  0  0  0  0  0  0  0  0
  -17.1091  -27.8013   21.7529 C   0  0  0  0  0  0  0  0  0  0  0  0
  -19.5034  -26.6219   22.5421 C   0  0  0  0  0  0  0  0  0  0  0  0
  -24.6082  -26.6674   25.9251 C   0  0  0  0  0  0  0  0  0  0  0  0
  -25.0049  -12.1573   19.6152 C   0  0  0  0  0  0  0  0  0  0  0  0
  -26.1990  -12.9756   21.5496 C   0  0  0  0  0  0  0  0  0  0  0  0
  -25.7698  -25.8975   25.8807 C   0  0  0  0  0  0  0  0  0  0  0  0
  -23.1826  -10.5620   21.9746 C   0  0  0  0  0  0  0  0  0  0  0  0
  -21.9668   -9.8800   21.9247 C   0  0  0  0  0  0  0  0  0  0  0  0
  -26.8455  -27.6076   24.5624 C   0  0  0  0  0  0  0  0  0  0  0  0
  -28.6679  -22.6707   22.1092 C   0  0  0  0  0  0  0  0  0  0  0  0
  -23.0172   -8.0990   20.6750 C   0  0  0  0  0  0  0  0  0  0  0  0
  -27.4208  -20.7125   23.5430 C   0  0  0  0  0  0  0  0  0  0  0  0
  -25.6831  -14.4735   19.7255 C   0  0  0  0  0  0  0  0  0  0  0  0
  -24.7986  -16.8241   19.2782 C   0  0  0  0  0  0  0  0  0  0  0  0
  -18.3235  -28.4270   21.4299 C   0  0  0  0  0  0  0  0  0  0  0  0
  -24.5529  -27.9103   25.2782 C   0  0  0  0  0  0  0  0  0  0  0  0
  -19.5361  -27.8266   21.8193 C   0  0  0  0  0  0  0  0  0  0  0  0
  -25.6829  -28.3924   24.6023 C   0  0  0  0  0  0  0  0  0  0  0  0
  -27.8166  -21.7852   21.4576 C   0  0  0  0  0  0  0  0  0  0  0  0
  -27.1773  -20.7846   22.1809 C   0  0  0  0  0  0  0  0  0  0  0  0
  -25.5749  -11.9308   20.8680 C   0  0  0  0  0  0  0  0  0  0  0  0
  -26.8877  -26.3663   25.1969 C   0  0  0  0  0  0  0  0  0  0  0  0
  -24.3157  -10.0125   21.3747 C   0  0  0  0  0  0  0  0  0  0  0  0
  -21.8841   -8.6485   21.2749 C   0  0  0  0  0  0  0  0  0  0  0  0
  -24.2330   -8.7810   20.7249 C   0  0  0  0  0  0  0  0  0  0  0  0
  -25.7398  -15.7869   19.1357 C   0  0  0  0  0  0  0  0  0  0  0  0
  -28.8444  -22.5143   23.4745 C   0  0  0  0  0  0  0  0  0  0  0  0
  -25.3083  -17.8557   18.5282 C   0  0  0  0  0  0  0  0  0  0  0  0
  -23.5732  -16.8525   20.0220 C   0  0  0  0  0  0  0  0  0  0  0  0
  -22.8133  -29.1342   22.9161 C   0  0  0  0  0  0  0  0  0  0  0  0
  -24.3610  -31.8703   23.7164 C   0  0  0  0  0  0  0  0  0  0  0  0
  -27.0872  -33.3453   25.1443 C   0  0  0  0  0  0  0  0  0  0  0  0
  -29.4418  -21.0348   16.8214 C   0  0  0  0  0  0  0  0  0  0  0  0
  -18.2924  -29.6943   20.6128 C   0  0  0  0  0  0  0  0  0  0  0  0
  -23.3012  -28.7405   25.3580 C   0  0  0  0  0  0  0  0  0  0  0  0
  -25.6816  -29.7292   23.9085 C   0  0  0  0  0  0  0  0  0  0  0  0
  -19.6090  -30.4664   20.6359 C   0  0  0  0  0  0  0  0  0  0  0  0
  -29.1237  -17.9712   15.2202 C   0  0  0  0  0  0  0  0  0  0  0  0
  -20.7851  -29.5234   20.4027 C   0  0  0  0  0  0  0  0  0  0  0  0
  -28.1402  -17.1997   16.1000 C   0  0  0  0  0  0  0  0  0  0  0  0
  -26.8575  -23.3894   18.0229 C   0  0  0  0  0  0  0  0  0  0  0  0
  -30.1059  -18.7699   16.0696 C   0  0  0  0  0  0  0  0  0  0  0  0
  -28.1794  -23.0987   17.3174 C   0  0  0  0  0  0  0  0  0  0  0  0
  -28.9213  -21.6874   19.2071 C   0  0  0  0  0  0  0  0  0  0  0  0
  -28.4588  -18.9619   17.9048 C   0  0  0  0  0  0  0  0  0  0  0  0
  -27.6009  -21.9297   19.9604 C   0  0  2  0  0  0  0  0  0  0  0  0
  -20.8723  -28.4661   21.5100 C   0  0  1  0  0  0  0  0  0  0  0  0
  -23.1880  -29.7607   24.2294 C   0  0  1  0  0  0  0  0  0  0  0  0
  -27.4372  -18.1396   17.0947 C   0  0  2  0  0  0  0  0  0  0  0  0
  -27.0034  -23.2896   19.5429 C   0  0  2  0  0  0  0  0  0  0  0  0
  -26.2563  -19.8097   21.5332 C   0  0  0  0  0  0  0  0  0  0  0  0
  -28.0879  -35.5980   25.6147 C   0  0  0  0  0  0  0  0  0  0  0  0
  -25.9516  -25.4505   21.5138 C   0  0  0  0  0  0  0  0  0  0  0  0
  -25.1835  -32.1138   20.7883 C   0  0  0  0  0  0  0  0  0  0  0  0
  -26.9121  -33.7855   21.4851 C   0  0  0  0  0  0  0  0  0  0  0  0
  -24.4930  -34.2652   21.8603 C   0  0  0  0  0  0  0  0  0  0  0  0
  -27.0312  -32.8884   28.0678 C   0  0  0  0  0  0  0  0  0  0  0  0
  -29.7511  -23.4464   24.2068 C   0  0  0  0  0  0  0  0  0  0  0  0
  -29.3586  -23.6876   25.6726 C   0  0  0  0  0  0  0  0  0  0  0  0
  -23.7040  -24.9426   20.4756 C   0  0  0  0  0  0  0  0  0  0  0  0
  -27.9993  -24.3601   25.8257 C   0  0  0  0  0  0  0  0  0  1  0  0
  -22.8786  -24.4312   19.2958 C   0  0  0  0  0  0  0  0  0  0  0  0
  -25.6497  -32.5327   23.2929 C   0  0  1  0  0  0  0  0  0  0  0  0
  -27.2099  -34.4770   26.1486 C   0  0  2  0  0  0  0  0  0  0  0  0
  -25.2272  -24.8720   20.3044 C   0  0  2  0  0  0  0  0  0  0  0  0
  -25.5593  -33.1482   21.8680 C   0  0  0  0  0  0  0  0  0  0  0  0
  -28.2408  -21.5546   24.2109 N   0  0  0  0  0  0  0  0  0  0  0  0
  -26.7693  -16.1284   18.3564 N   0  0  0  0  0  0  0  0  0  0  0  0
  -26.4780  -17.3917   18.0023 N   0  0  0  0  0  0  0  0  0  0  0  0
  -24.4321  -30.5011   24.0097 N   0  0  0  0  0  0  0  0  0  0  0  0
  -29.4037  -19.6447   17.0087 N   0  0  0  0  0  0  0  0  0  0  0  0
  -28.7456  -21.8223   17.7533 N   0  0  0  0  0  0  0  0  0  0  0  0
  -24.8655  -19.1053   18.2737 N   0  0  0  0  0  0  0  0  0  0  0  0
  -23.1988  -15.7066   20.7370 N   0  0  0  0  0  0  0  0  0  0  0  0
  -21.4507  -29.0356   22.7082 N   0  0  0  0  0  0  0  0  0  0  0  0
  -25.9775  -33.4946   24.3396 N   0  0  0  0  0  0  0  0  0  0  0  0
  -25.6524  -23.4572   20.1513 N   0  3  0  0  0  0  0  0  0  0  0  0
  -27.8056  -33.9785   27.4205 N   0  3  0  0  0  0  0  0  0  0  0  0
  -22.8240  -17.8585   20.0385 O   0  0  0  0  0  0  0  0  0  0  0  0
  -23.6951  -28.7687   22.1476 O   0  0  0  0  0  0  0  0  0  0  0  0
  -23.3307  -32.5445   23.7914 O   0  0  0  0  0  0  0  0  0  0  0  0
  -27.8971  -32.4233   25.0775 O   0  0  0  0  0  0  0  0  0  0  0  0
  -30.0577  -21.5445   15.8768 O   0  0  0  0  0  0  0  0  0  0  0  0
  -25.5221  -10.6903   21.4258 O   0  0  0  0  0  0  0  0  0  0  0  0
  -28.0305  -25.6113   25.1512 O   0  0  0  0  0  0  0  0  0  1  0  0
  -20.7169   -7.9931   21.2284 F   0  0  0  0  0  0  0  0  0  0  0  0
  -25.3183   -8.2474   20.1477 F   0  0  0  0  0  0  0  0  0  0  0  0
  -23.1699  -25.3720   17.8157 Cl  0  0  0  0  0  0  0  0  0  0  0  0
  1  2  1  0  0  0  0
  1  5  2  0  0  0  0
  2  6  2  0  0  0  0
  3  8  2  0  0  0  0
  3 17  1  0  0  0  0
  4  9  1  0  0  0  0
  4 17  2  0  0  0  0
  5 19  1  0  0  0  0
  6 21  1  0  0  0  0
  7 10  2  0  0  0  0
  7 20  1  0  0  0  0
  8 25  1  0  0  0  0
  9 25  2  0  0  0  0
 10 26  1  0  0  0  0
 11 12  2  0  0  0  0
 11 27  1  0  0  0  0
 12 28  1  0  0  0  0
 13 22  1  0  0  0  0
 13 26  2  0  0  0  0
 14 23  2  0  0  0  0
 14 31  1  0  0  0  0
 15 28  2  0  0  0  0
 15 29  1  0  0  0  0
 16 24  2  0  0  0  0
 16 71  1  0  0  0  0
 17 30  1  0  0  0  0
 18 30  1  0  0  0  0
 18 32  2  0  0  0  0
 18 33  1  0  0  0  0
 19 21  2  0  0  0  0
 19 38  1  0  0  0  0
 20 22  2  0  0  0  0
 20 39  1  0  0  0  0
 21 51  1  0  0  0  0
 22 40  1  0  0  0  0
 23 24  1  0  0  0  0
 23 50  1  0  0  0  0
 24 55  1  0  0  0  0
 25 88  1  0  0  0  0
 26 89  1  0  0  0  0
 27 29  2  0  0  0  0
 27 88  1  0  0  0  0
 28 90  1  0  0  0  0
 29 91  1  0  0  0  0
 30 72  2  0  0  0  0
 31 62  1  0  0  0  0
 31 71  2  0  0  0  0
 32 73  1  0  0  0  0
 32 77  1  0  0  0  0
 33 78  1  0  0  0  0
 33 83  2  0  0  0  0
 34 52  1  0  0  0  0
 34 79  1  0  0  0  0
 34 84  2  0  0  0  0
 35 67  1  0  0  0  0
 35 74  1  0  0  0  0
 35 85  2  0  0  0  0
 36 68  1  0  0  0  0
 36 80  1  0  0  0  0
 36 86  2  0  0  0  0
 37 75  1  0  0  0  0
 37 76  1  0  0  0  0
 37 87  2  0  0  0  0
 38 41  1  0  0  0  0
 39 52  1  0  0  0  0
 40 74  1  0  0  0  0
 41 43  1  0  0  0  0
 42 44  1  0  0  0  0
 42 46  1  0  0  0  0
 43 51  1  0  0  0  0
 44 53  1  0  0  0  0
 45 47  1  0  0  0  0
 45 54  1  0  0  0  0
 46 75  1  0  0  0  0
 47 76  1  0  0  0  0
 48 50  1  0  0  0  0
 48 76  1  0  0  0  0
 49 53  1  0  0  0  0
 49 75  1  0  0  0  0
 50 54  1  0  0  0  0
 51 79  1  0  0  0  0
 52 74  1  0  0  0  0
 53 73  1  0  0  0  0
 54 81  1  0  0  0  0
 56 68  1  0  0  0  0
 57 69  1  0  0  0  0
 58 70  1  0  0  0  0
 59 70  1  0  0  0  0
 60 70  1  0  0  0  0
 61 82  1  0  0  0  0
 62 63  1  0  0  0  0
 63 65  1  0  0  0  0
 64 66  1  0  0  0  0
 64 69  1  0  0  0  0
 65 89  1  0  0  0  0
 66 92  1  0  0  0  0
 67 70  1  0  0  0  0
 67 80  1  0  0  0  0
 68 82  1  0  0  0  0
 69 81  1  0  0  0  0
 72 73  1  0  0  0  0
M  CHG  2  81   1  82   1
M  ISO  4  37 100  65 101  76 100  89 101
M  END
> <Batch ID>
0116

> <Smiles>
CNC(C)C(=O)NC(C(=O)N1Cc2cc([101O:1][101CH2:1]CCc3cc(C4C[100N:0]([100C:0](=O)N5CCCC(n6nc(-c7ccc(Oc8ccc(F)cc8F)cc7)c(C(N)=O)c6N)C5)CCC4NC(C)CCCl)c(C)cn3)ccc2CC1C(=O)NC1CCCc2ccccc21)C(C)(C)C

> <Shape>
0.207

> <Color>
0.086

> <Negative vol penalty>
0.000

$$$$

  -OEChem-04052320133D

 86 94  0     1  0  0  0  0  0999 V2000
  -18.7772  -26.8661   18.2245 C   0  0  0  0  0  0  0  0  0  0  0  0
  -19.9730  -26.9907   18.9246 C   0  0  0  0  0  0  0  0  0  0  0  0
  -26.8021  -15.4027   21.7398 C   0  0  0  0  0  0  0  0  0  0  0  0
  -26.6392  -15.8584   19.3728 C   0  0  0  0  0  0  0  0  0  0  0  0
  -17.6915  -26.2176   18.8115 C   0  0  0  0  0  0  0  0  0  0  0  0
  -20.0834  -26.4676   20.2125 C   0  0  0  0  0  0  0  0  0  0  0  0
  -24.4130  -23.9374   20.9174 C   0  0  0  0  0  0  0  0  0  0  0  0
  -25.6311  -14.6476   21.6750 C   0  0  0  0  0  0  0  0  0  0  0  0
  -25.4682  -15.1033   19.3079 C   0  0  0  0  0  0  0  0  0  0  0  0
  -25.5643  -24.6934   21.1335 C   0  0  0  0  0  0  0  0  0  0  0  0
  -24.7186  -11.5465   20.6834 C   0  0  0  0  0  0  0  0  0  0  0  0
  -24.7048  -10.3143   21.3370 C   0  0  0  0  0  0  0  0  0  0  0  0
  -24.6374  -29.0564   20.3205 C   0  0  0  0  0  0  0  0  0  0  0  0
  -25.3750  -24.2927   23.5048 C   0  0  0  0  0  0  0  0  0  0  0  0
  -22.8683  -11.0658   22.7152 C   0  0  0  0  0  0  0  0  0  0  0  0
  -25.0962  -28.4612   19.1564 C   0  0  0  0  0  0  0  0  0  0  0  0
  -27.3061  -16.0082   20.5887 C   0  0  0  0  0  0  0  0  0  0  0  0
  -29.8342  -16.3301   20.4758 C   0  0  0  0  0  0  0  0  0  0  0  0
  -17.7917  -25.6779   20.1035 C   0  0  0  0  0  0  0  0  0  0  0  0
  -23.7268  -23.3615   21.9962 C   0  0  0  0  0  0  0  0  0  0  0  0
  -18.9975  -25.8125   20.8178 C   0  0  0  0  0  0  0  0  0  0  0  0
  -24.2167  -23.5277   23.2994 C   0  0  0  0  0  0  0  0  0  0  0  0
  -26.5874  -28.1827   21.4246 C   0  0  0  0  0  0  0  0  0  0  0  0
  -24.9642  -14.4978   20.4591 C   0  0  0  0  0  0  0  0  0  0  0  0
  -26.0439  -24.8735   22.4276 C   0  0  0  0  0  0  0  0  0  0  0  0
  -23.8073  -12.5384   21.0458 C   0  0  0  0  0  0  0  0  0  0  0  0
  -25.4031  -28.9097   21.4718 C   0  0  0  0  0  0  0  0  0  0  0  0
  -23.7797  -10.0739   22.3528 C   0  0  0  0  0  0  0  0  0  0  0  0
  -22.8821  -12.2980   22.0616 C   0  0  0  0  0  0  0  0  0  0  0  0
  -28.5154  -16.7888   20.6551 C   0  0  0  0  0  0  0  0  0  0  0  0
  -26.9587  -27.6264   20.2111 C   0  0  0  0  0  0  0  0  0  0  0  0
  -30.6123  -17.4504   20.6371 C   0  0  0  0  0  0  0  0  0  0  0  0
  -30.3132  -15.0095   20.1890 C   0  0  0  0  0  0  0  0  0  0  0  0
  -20.8106  -23.6715   23.2223 C   0  0  0  0  0  0  0  0  0  0  0  0
  -21.7684  -21.2168   25.1143 C   0  0  0  0  0  0  0  0  0  0  0  0
  -24.3457  -19.4886   26.5347 C   0  0  0  0  0  0  0  0  0  0  0  0
  -29.4621  -23.1861   19.8406 C   0  0  0  0  0  0  0  0  0  0  0  0
  -16.5761  -25.0271   20.7146 C   0  0  0  0  0  0  0  0  0  0  0  0
  -22.5014  -22.5265   21.7437 C   0  0  0  0  0  0  0  0  0  0  0  0
  -23.5282  -22.9134   24.4898 C   0  0  0  0  0  0  0  0  0  0  0  0
  -16.8936  -24.1716   21.9384 C   0  0  0  0  0  0  0  0  0  0  0  0
  -30.6783  -21.6707   22.8937 C   0  0  0  0  0  0  0  0  0  0  0  0
  -17.8257  -24.9202   22.8857 C   0  0  0  0  0  0  0  0  0  0  0  0
  -30.3812  -20.1919   22.6387 C   0  0  0  0  0  0  0  0  0  0  0  0
  -29.5761  -22.5616   22.3285 C   0  0  0  0  0  0  0  0  0  0  0  0
  -29.0036  -20.8790   20.6212 C   0  0  0  0  0  0  0  0  0  0  0  0
  -19.1640  -25.2365   22.2073 C   0  0  1  0  0  0  0  0  0  0  0  0
  -21.5927  -22.4148   22.9641 C   0  0  1  0  0  0  0  0  0  0  0  0
  -30.0924  -19.9273   21.1491 C   0  0  2  0  0  0  0  0  0  0  0  0
  -27.7962  -27.7735   25.6733 C   0  0  0  0  0  0  0  0  0  0  0  0
  -24.8148  -17.5535   28.0620 C   0  0  0  0  0  0  0  0  0  0  0  0
  -20.9764  -22.9238   27.5162 C   0  0  0  0  0  0  0  0  0  0  0  0
  -22.3158  -21.3826   28.9649 C   0  0  0  0  0  0  0  0  0  0  0  0
  -20.3508  -20.5095   27.7005 C   0  0  0  0  0  0  0  0  0  0  0  0
  -25.8316  -18.0357   24.4275 C   0  0  0  0  0  0  0  0  0  0  0  0
  -23.7515  -30.2101   22.5841 C   0  0  0  0  0  0  0  0  0  0  0  0
  -27.4286  -28.0154   22.6678 C   0  0  0  0  0  0  0  0  0  0  0  0
  -27.9324  -26.6056   24.7053 C   0  0  0  0  0  0  0  0  0  0  0  0
  -28.6376  -26.2718   18.9573 C   0  0  0  0  0  0  0  0  0  0  0  0
  -29.9452  -25.5368   19.2097 C   0  0  0  0  0  0  0  0  0  0  0  0
  -22.4653  -21.1045   26.4487 C   0  0  1  0  0  0  0  0  0  0  0  0
  -24.6350  -18.0008   26.6197 C   0  0  2  0  0  0  0  0  0  0  0  0
  -27.0376  -26.7662   23.4699 C   0  0  2  0  0  0  0  0  0  1  0  0
  -21.5392  -21.4934   27.6355 C   0  0  0  0  0  0  0  0  0  0  0  0
  -26.2412  -27.7474   19.0717 N   0  0  0  0  0  0  0  0  0  0  0  0
  -28.4552  -18.0984   20.9108 N   0  0  0  0  0  0  0  0  0  0  0  0
  -29.7460  -18.4722   20.8935 N   0  0  0  0  0  0  0  0  0  0  0  0
  -22.3303  -22.1110   24.1920 N   0  0  0  0  0  0  0  0  0  0  0  0
  -29.3637  -22.2726   20.9032 N   0  0  0  0  0  0  0  0  0  0  0  0
  -31.9461  -17.6514   20.5833 N   0  0  0  0  0  0  0  0  0  0  0  0
  -29.3781  -13.9742   20.0548 N   0  0  0  0  0  0  0  0  0  0  0  0
  -28.1652  -26.8846   20.1556 N   0  0  0  0  0  0  0  0  0  0  0  0
  -20.0028  -24.0577   22.1699 N   0  0  0  0  0  0  0  0  0  0  0  0
  -22.9910  -19.7455   26.5215 N   0  0  0  0  0  0  0  0  0  0  0  0
  -29.8006  -24.4868   20.1933 N   0  0  0  0  0  0  0  0  0  0  0  0
  -25.8782  -17.6710   25.8669 N   0  3  0  0  0  0  0  0  0  0  0  0
  -31.5352  -14.7520   20.0720 O   0  0  0  0  0  0  0  0  0  0  0  0
  -20.9300  -24.2473   24.2975 O   0  0  0  0  0  0  0  0  0  0  0  0
  -20.7666  -20.5310   24.8956 O   0  0  0  0  0  0  0  0  0  0  0  0
  -25.2327  -20.3381   26.4886 O   0  0  0  0  0  0  0  0  0  0  0  0
  -29.2680  -22.8652   18.6631 O   0  0  0  0  0  0  0  0  0  0  0  0
  -23.8217  -13.7609   20.3955 O   0  0  0  0  0  0  0  0  0  0  0  0
  -24.9781  -29.4834   22.6315 O   0  0  0  0  0  0  0  0  0  0  0  0
  -27.1671  -25.6115   22.6414 O   0  0  0  0  0  0  0  0  0  1  0  0
  -23.7656   -8.8901   22.9793 F   0  0  0  0  0  0  0  0  0  0  0  0
  -22.0033  -13.2466   22.4133 F   0  0  0  0  0  0  0  0  0  0  0  0
  1  2  1  0  0  0  0
  1  5  2  0  0  0  0
  2  6  2  0  0  0  0
  3  8  2  0  0  0  0
  3 17  1  0  0  0  0
  4  9  1  0  0  0  0
  4 17  2  0  0  0  0
  5 19  1  0  0  0  0
  6 21  1  0  0  0  0
  7 10  2  0  0  0  0
  7 20  1  0  0  0  0
  8 24  1  0  0  0  0
  9 24  2  0  0  0  0
 10 25  1  0  0  0  0
 11 12  2  0  0  0  0
 11 26  1  0  0  0  0
 12 28  1  0  0  0  0
 13 16  1  0  0  0  0
 13 27  2  0  0  0  0
 14 22  1  0  0  0  0
 14 25  2  0  0  0  0
 15 28  2  0  0  0  0
 15 29  1  0  0  0  0
 16 65  2  0  0  0  0
 17 30  1  0  0  0  0
 18 30  1  0  0  0  0
 18 32  2  0  0  0  0
 18 33  1  0  0  0  0
 19 21  2  0  0  0  0
 19 38  1  0  0  0  0
 20 22  2  0  0  0  0
 20 39  1  0  0  0  0
 21 47  1  0  0  0  0
 22 40  1  0  0  0  0
 23 27  1  0  0  0  0
 23 31  2  0  0  0  0
 23 57  1  0  0  0  0
 24 82  1  0  0  0  0
 25 84  1  0  0  0  0
 26 29  2  0  0  0  0
 26 82  1  0  0  0  0
 27 83  1  0  0  0  0
 28 85  1  0  0  0  0
 29 86  1  0  0  0  0
 30 66  2  0  0  0  0
 31 65  1  0  0  0  0
 31 72  1  0  0  0  0
 32 67  1  0  0  0  0
 32 70  1  0  0  0  0
 33 71  1  0  0  0  0
 33 77  2  0  0  0  0
 34 48  1  0  0  0  0
 34 73  1  0  0  0  0
 34 78  2  0  0  0  0
 35 61  1  0  0  0  0
 35 68  1  0  0  0  0
 35 79  2  0  0  0  0
 36 62  1  0  0  0  0
 36 74  1  0  0  0  0
 36 80  2  0  0  0  0
 37 69  1  0  0  0  0
 37 75  1  0  0  0  0
 37 81  2  0  0  0  0
 38 41  1  0  0  0  0
 39 48  1  0  0  0  0
 40 68  1  0  0  0  0
 41 43  1  0  0  0  0
 42 44  1  0  0  0  0
 42 45  1  0  0  0  0
 43 47  1  0  0  0  0
 44 49  1  0  0  0  0
 45 69  1  0  0  0  0
 46 49  1  0  0  0  0
 46 69  1  0  0  0  0
 47 73  1  0  0  0  0
 48 68  1  0  0  0  0
 49 67  1  0  0  0  0
 50 58  1  0  0  0  0
 51 62  1  0  0  0  0
 52 64  1  0  0  0  0
 53 64  1  0  0  0  0
 54 64  1  0  0  0  0
 55 76  1  0  0  0  0
 56 83  1  0  0  0  0
 57 63  1  0  0  0  0
 58 63  1  0  0  0  0
 59 60  1  0  0  0  0
 59 72  1  0  0  0  0
 60 75  1  0  0  0  0
 61 64  1  0  0  0  0
 61 74  1  0  0  0  0
 62 76  1  0  0  0  0
 63 84  1  0  0  0  0
 66 67  1  0  0  0  0
M  CHG  1  76   1
M  ISO  4  37 100  63 101  75 100  84 101
M  END
> <Batch ID>
0116

> <Smiles>
CC[101CH:1](Cc1c(OC)ccnc1NCC[100NH:0][100C:0](=O)N1CCCC(n2nc(-c3ccc(Oc4ccc(F)cc4F)cc3)c(C(N)=O)c2N)C1)[101O:1]c1ccc2c(c1)CN(C(=O)C(NC(=O)C(C)NC)C(C)(C)C)C(C(=O)NC1CCCc3ccccc31)C2

> <Shape>
0.207

> <Color>
0.053

> <Negative vol penalty>
0.000

$$$$

  -OEChem-04052320133D

 89 98  0     1  0  0  0  0  0999 V2000
  -26.6960  -33.7157   26.4239 C   0  0  0  0  0  0  0  0  0  0  0  0
  -27.1068  -32.5998   25.7017 C   0  0  0  0  0  0  0  0  0  0  0  0
  -22.5905  -18.0665   19.6540 C   0  0  0  0  0  0  0  0  0  0  0  0
  -24.4541  -17.7654   21.1618 C   0  0  0  0  0  0  0  0  0  0  0  0
  -25.3536  -33.8658   26.7690 C   0  0  0  0  0  0  0  0  0  0  0  0
  -26.1754  -31.6328   25.3251 C   0  0  0  0  0  0  0  0  0  0  0  0
  -32.7440  -25.2000   19.9752 C   0  0  0  0  0  0  0  0  0  0  0  0
  -26.7449  -30.1562   20.5147 C   0  0  0  0  0  0  0  0  0  0  0  0
  -31.8253  -26.2086   20.2625 C   0  0  0  0  0  0  0  0  0  0  0  0
  -22.2510  -16.7222   19.8052 C   0  0  0  0  0  0  0  0  0  0  0  0
  -24.1145  -16.4210   21.3130 C   0  0  0  0  0  0  0  0  0  0  0  0
  -27.7763  -29.2586   20.2420 C   0  0  0  0  0  0  0  0  0  0  0  0
  -23.9535  -12.8249   21.8155 C   0  0  0  0  0  0  0  0  0  0  0  0
  -24.9830  -11.8856   21.7570 C   0  0  0  0  0  0  0  0  0  0  0  0
  -26.1851  -27.4456   20.2223 C   0  0  0  0  0  0  0  0  0  0  0  0
  -25.5130  -12.6064   19.5127 C   0  0  0  0  0  0  0  0  0  0  0  0
  -23.6922  -18.5882   20.3323 C   0  0  0  0  0  0  0  0  0  0  0  0
  -23.5914  -21.0607   20.9521 C   0  0  0  0  0  0  0  0  0  0  0  0
  -24.4036  -32.9049   26.3881 C   0  0  0  0  0  0  0  0  0  0  0  0
  -25.4252  -29.7030   20.6542 C   0  0  0  0  0  0  0  0  0  0  0  0
  -24.8192  -31.7695   25.6666 C   0  0  0  0  0  0  0  0  0  0  0  0
  -32.6377  -24.4307   18.8021 C   0  0  0  0  0  0  0  0  0  0  0  0
  -25.1384  -28.3398   20.4942 C   0  0  0  0  0  0  0  0  0  0  0  0
  -31.5459  -24.6548   17.9327 C   0  0  0  0  0  0  0  0  0  0  0  0
  -30.7778  -26.4606   19.3868 C   0  0  0  0  0  0  0  0  0  0  0  0
  -30.6388  -25.6914   18.2329 C   0  0  0  0  0  0  0  0  0  0  0  0
  -23.0129  -15.8994   20.6347 C   0  0  0  0  0  0  0  0  0  0  0  0
  -27.4969  -27.9027   20.0986 C   0  0  0  0  0  0  0  0  0  0  0  0
  -23.7037  -13.6549   20.7226 C   0  0  0  0  0  0  0  0  0  0  0  0
  -25.7628  -11.7764   20.6056 C   0  0  0  0  0  0  0  0  0  0  0  0
  -24.4835  -13.5457   19.5712 C   0  0  0  0  0  0  0  0  0  0  0  0
  -24.0438  -19.9767   20.1761 C   0  0  0  0  0  0  0  0  0  0  0  0
  -24.2121  -22.1571   20.4053 C   0  0  0  0  0  0  0  0  0  0  0  0
  -22.6907  -21.0752   22.0676 C   0  0  0  0  0  0  0  0  0  0  0  0
  -23.2862  -29.7150   23.0054 C   0  0  0  0  0  0  0  0  0  0  0  0
  -21.3248  -28.5444   20.7021 C   0  0  0  0  0  0  0  0  0  0  0  0
  -21.0056  -26.8862   17.7364 C   0  0  0  0  0  0  0  0  0  0  0  0
  -29.2570  -22.7254   17.3918 C   0  0  0  0  0  0  0  0  0  0  0  0
  -22.9716  -33.0869   26.8249 C   0  0  0  0  0  0  0  0  0  0  0  0
  -24.3201  -30.6876   20.9219 C   0  0  0  0  0  0  0  0  0  0  0  0
  -23.7355  -27.8052   20.6144 C   0  0  0  0  0  0  0  0  0  0  0  0
  -21.9858  -32.2039   26.0642 C   0  0  0  0  0  0  0  0  0  0  0  0
  -25.9835  -23.7810   16.2662 C   0  0  0  0  0  0  0  0  0  0  0  0
  -22.5057  -30.7722   25.9812 C   0  0  0  0  0  0  0  0  0  0  0  0
  -25.0706  -23.0180   17.2277 C   0  0  0  0  0  0  0  0  0  0  0  0
  -27.1972  -22.9435   15.8744 C   0  0  0  0  0  0  0  0  0  0  0  0
  -27.0896  -21.6825   17.9891 C   0  0  0  0  0  0  0  0  0  0  0  0
  -32.1224  -22.4915   16.7447 C   0  0  0  0  0  0  0  0  0  0  0  0
  -23.8346  -30.7113   25.2185 C   0  0  1  0  0  0  0  0  0  0  0  0
  -33.6540  -23.3392   18.5245 C   0  0  2  0  0  0  0  0  0  0  0  0
  -23.0883  -30.0462   21.5532 C   0  0  1  0  0  0  0  0  0  0  0  0
  -25.8553  -22.4842   18.4407 C   0  0  2  0  0  0  0  0  0  0  0  0
  -31.3592  -23.8230   16.6615 C   0  0  2  0  0  0  0  0  0  0  0  0
  -29.4969  -26.0411   17.3244 C   0  0  0  0  0  0  0  0  0  0  0  0
  -32.1452  -24.6826   12.9725 C   0  0  0  0  0  0  0  0  0  0  0  0
  -19.2745  -26.0467   16.1253 C   0  0  0  0  0  0  0  0  0  0  0  0
  -36.0579  -22.6242   18.4049 C   0  0  0  0  0  0  0  0  0  0  0  0
  -35.4040  -24.9490   17.7185 C   0  0  0  0  0  0  0  0  0  0  0  0
  -20.6871  -26.2367   22.5936 C   0  0  0  0  0  0  0  0  0  0  0  0
  -19.7498  -24.9849   20.6385 C   0  0  0  0  0  0  0  0  0  0  0  0
  -18.7153  -27.1407   21.3490 C   0  0  0  0  0  0  0  0  0  0  0  0
  -22.0535  -28.5803   15.5476 C   0  0  0  0  0  0  0  0  0  0  0  0
  -29.8184  -27.5585   19.7139 C   0  0  0  0  0  0  0  0  0  1  0  0
  -31.8308  -24.6545   15.4528 C   0  0  0  0  0  0  0  0  0  0  0  0
  -31.7006  -23.8548   14.1677 C   0  0  0  0  0  0  0  0  0  0  0  0
  -20.9678  -27.1658   20.2012 C   0  0  1  0  0  0  0  0  0  0  0  0
  -20.1981  -27.1986   16.4895 C   0  0  2  0  0  0  0  0  0  0  0  0
  -35.1096  -23.7906   18.6668 C   0  0  0  0  0  0  0  0  0  0  0  0
  -20.0568  -26.3915   21.1951 C   0  0  0  0  0  0  0  0  0  0  0  0
  -24.8867  -20.3506   19.2098 N   0  0  0  0  0  0  0  0  0  0  0  0
  -24.9688  -21.6818   19.3749 N   0  0  0  0  0  0  0  0  0  0  0  0
  -22.6903  -28.8066   20.8830 N   0  0  0  0  0  0  0  0  0  0  0  0
  -27.9105  -22.4821   17.0738 N   0  0  0  0  0  0  0  0  0  0  0  0
  -24.1789  -23.4718   20.7101 N   0  0  0  0  0  0  0  0  0  0  0  0
  -22.1433  -19.8596   22.5002 N   0  0  0  0  0  0  0  0  0  0  0  0
  -23.6039  -30.8052   23.7928 N   0  0  0  0  0  0  0  0  0  0  0  0
  -20.3850  -27.3510   18.8766 N   0  0  0  0  0  0  0  0  0  0  0  0
  -29.9664  -23.4849   16.4695 N   0  0  0  0  0  0  0  0  0  0  0  0
  -33.5332  -22.7453   17.1443 N   0  3  0  0  0  0  0  0  0  0  0  0
  -21.1056  -27.4563   15.3358 N   0  3  0  0  0  0  0  0  0  0  0  0
  -22.3677  -22.1367   22.6527 O   0  0  0  0  0  0  0  0  0  0  0  0
  -23.1586  -28.5565   23.3837 O   0  0  0  0  0  0  0  0  0  0  0  0
  -20.4258  -29.3610   20.9180 O   0  0  0  0  0  0  0  0  0  0  0  0
  -22.0778  -26.2863   17.7027 O   0  0  0  0  0  0  0  0  0  0  0  0
  -29.7870  -22.3016   18.4246 O   0  0  0  0  0  0  0  0  0  0  0  0
  -22.6817  -14.5875   20.7826 O   0  0  0  0  0  0  0  0  0  0  0  0
  -28.5091  -27.0181   19.8312 O   0  0  0  0  0  0  0  0  0  1  0  0
  -26.7524  -10.8754   20.5501 F   0  0  0  0  0  0  0  0  0  0  0  0
  -24.2490  -14.3411   18.5186 F   0  0  0  0  0  0  0  0  0  0  0  0
  1  2  1  0  0  0  0
  1  5  2  0  0  0  0
  2  6  2  0  0  0  0
  3 10  2  0  0  0  0
  3 17  1  0  0  0  0
  4 11  1  0  0  0  0
  4 17  2  0  0  0  0
  5 19  1  0  0  0  0
  6 21  1  0  0  0  0
  7  9  2  0  0  0  0
  7 22  1  0  0  0  0
  8 12  2  0  0  0  0
  8 20  1  0  0  0  0
  9 25  1  0  0  0  0
 10 27  1  0  0  0  0
 11 27  2  0  0  0  0
 12 28  1  0  0  0  0
 13 14  2  0  0  0  0
 13 29  1  0  0  0  0
 14 30  1  0  0  0  0
 15 23  1  0  0  0  0
 15 28  2  0  0  0  0
 16 30  2  0  0  0  0
 16 31  1  0  0  0  0
 17 32  1  0  0  0  0
 18 32  1  0  0  0  0
 18 33  2  0  0  0  0
 18 34  1  0  0  0  0
 19 21  2  0  0  0  0
 19 39  1  0  0  0  0
 20 23  2  0  0  0  0
 20 40  1  0  0  0  0
 21 49  1  0  0  0  0
 22 24  2  0  0  0  0
 22 50  1  0  0  0  0
 23 41  1  0  0  0  0
 24 26  1  0  0  0  0
 24 53  1  0  0  0  0
 25 26  2  0  0  0  0
 25 63  1  0  0  0  0
 26 54  1  0  0  0  0
 27 86  1  0  0  0  0
 28 87  1  0  0  0  0
 29 31  2  0  0  0  0
 29 86  1  0  0  0  0
 30 88  1  0  0  0  0
 31 89  1  0  0  0  0
 32 70  2  0  0  0  0
 33 71  1  0  0  0  0
 33 74  1  0  0  0  0
 34 75  1  0  0  0  0
 34 81  2  0  0  0  0
 35 51  1  0  0  0  0
 35 76  1  0  0  0  0
 35 82  2  0  0  0  0
 36 66  1  0  0  0  0
 36 72  1  0  0  0  0
 36 83  2  0  0  0  0
 37 67  1  0  0  0  0
 37 77  1  0  0  0  0
 37 84  2  0  0  0  0
 38 73  1  0  0  0  0
 38 78  1  0  0  0  0
 38 85  2  0  0  0  0
 39 42  1  0  0  0  0
 40 51  1  0  0  0  0
 41 72  1  0  0  0  0
 42 44  1  0  0  0  0
 43 45  1  0  0  0  0
 43 46  1  0  0  0  0
 44 49  1  0  0  0  0
 45 52  1  0  0  0  0
 46 73  1  0  0  0  0
 47 52  1  0  0  0  0
 47 73  1  0  0  0  0
 48 53  1  0  0  0  0
 48 79  1  0  0  0  0
 49 76  1  0  0  0  0
 50 68  1  0  0  0  0
 50 79  1  0  0  0  0
 51 72  1  0  0  0  0
 52 71  1  0  0  0  0
 53 64  1  0  0  0  0
 53 78  1  0  0  0  0
 55 65  1  0  0  0  0
 56 67  1  0  0  0  0
 57 68  1  0  0  0  0
 58 68  1  0  0  0  0
 59 69  1  0  0  0  0
 60 69  1  0  0  0  0
 61 69  1  0  0  0  0
 62 80  1  0  0  0  0
 63 87  1  0  0  0  0
 64 65  1  0  0  0  0
 66 69  1  0  0  0  0
 66 77  1  0  0  0  0
 67 80  1  0  0  0  0
 70 71  1  0  0  0  0
M  CHG  2  79   1  80   1
M  ISO  4  38 100  63 101  78 100  87 101
M  END
> <Batch ID>
0116

> <Smiles>
CCCC1([100NH:0][100C:0](=O)N2CCCC(n3nc(-c4ccc(Oc5ccc(F)cc5F)cc4)c(C(N)=O)c3N)C2)CNC(C(C)C)c2ccc([101CH2:1][101O:1]c3ccc4c(c3)CN(C(=O)C(NC(=O)C(C)NC)C(C)(C)C)C(C(=O)NC3CCCc5ccccc53)C4)c(C)c21

> <Shape>
0.213

> <Color>
0.084

> <Negative vol penalty>
0.000

$$$$

  -OEChem-04052320133D

 79 87  0     1  0  0  0  0  0999 V2000
  -24.0674  -27.7797   15.4588 C   0  0  0  0  0  0  0  0  0  0  0  0
  -24.4156  -27.0421   16.5858 C   0  0  0  0  0  0  0  0  0  0  0  0
  -25.6357  -14.0284   19.9531 C   0  0  0  0  0  0  0  0  0  0  0  0
  -26.7993  -13.0458   18.0775 C   0  0  0  0  0  0  0  0  0  0  0  0
  -24.1679  -29.1701   15.4786 C   0  0  0  0  0  0  0  0  0  0  0  0
  -24.8656  -27.6946   17.7330 C   0  0  0  0  0  0  0  0  0  0  0  0
  -22.7391  -25.8849   21.9577 C   0  0  0  0  0  0  0  0  0  0  0  0
  -24.7087  -12.9866   19.9238 C   0  0  0  0  0  0  0  0  0  0  0  0
  -25.8722  -12.0040   18.0482 C   0  0  0  0  0  0  0  0  0  0  0  0
  -23.2365  -24.6815   22.4558 C   0  0  0  0  0  0  0  0  0  0  0  0
  -24.5499   -9.7643   20.9362 C   0  0  0  0  0  0  0  0  0  0  0  0
  -24.1991   -9.1745   22.1505 C   0  0  0  0  0  0  0  0  0  0  0  0
  -24.5432  -25.8995   24.0769 C   0  0  0  0  0  0  0  0  0  0  0  0
  -21.8941   -9.8019   21.7892 C   0  0  0  0  0  0  0  0  0  0  0  0
  -26.6810  -14.0580   19.0299 C   0  0  0  0  0  0  0  0  0  0  0  0
  -28.8448  -15.1793   19.7837 C   0  0  0  0  0  0  0  0  0  0  0  0
  -24.6101  -29.8406   16.6299 C   0  0  0  0  0  0  0  0  0  0  0  0
  -23.1491  -27.1073   22.5093 C   0  0  0  0  0  0  0  0  0  0  0  0
  -24.9734  -29.0953   17.7678 C   0  0  0  0  0  0  0  0  0  0  0  0
  -24.0476  -27.1170   23.5857 C   0  0  0  0  0  0  0  0  0  0  0  0
  -24.8270  -11.9744   18.9714 C   0  0  0  0  0  0  0  0  0  0  0  0
  -24.1409  -24.6888   23.5137 C   0  0  0  0  0  0  0  0  0  0  0  0
  -23.5729  -10.3730   20.1484 C   0  0  0  0  0  0  0  0  0  0  0  0
  -22.8711   -9.1932   22.5770 C   0  0  0  0  0  0  0  0  0  0  0  0
  -22.2450  -10.3917   20.5749 C   0  0  0  0  0  0  0  0  0  0  0  0
  -27.6386  -15.1342   19.0592 C   0  0  0  0  0  0  0  0  0  0  0  0
  -29.3847  -16.4042   19.4758 C   0  0  0  0  0  0  0  0  0  0  0  0
  -29.4255  -14.2014   20.6567 C   0  0  0  0  0  0  0  0  0  0  0  0
  -24.6868  -29.6619   21.4079 C   0  0  0  0  0  0  0  0  0  0  0  0
  -23.9791  -30.8669   24.3352 C   0  0  0  0  0  0  0  0  0  0  0  0
  -23.2124  -30.2688   27.6065 C   0  0  0  0  0  0  0  0  0  0  0  0
  -28.7994  -21.8966   18.7126 C   0  0  0  0  0  0  0  0  0  0  0  0
  -24.7473  -31.3420   16.5880 C   0  0  0  0  0  0  0  0  0  0  0  0
  -22.5827  -28.3955   21.9782 C   0  0  0  0  0  0  0  0  0  0  0  0
  -24.5037  -28.4015   24.2264 C   0  0  0  0  0  0  0  0  0  0  0  0
  -24.8764  -31.9806   17.9685 C   0  0  0  0  0  0  0  0  0  0  0  0
  -28.1210  -19.7882   15.9609 C   0  0  0  0  0  0  0  0  0  0  0  0
  -25.8893  -31.2182   18.8167 C   0  0  0  0  0  0  0  0  0  0  0  0
  -27.9984  -18.3960   16.5742 C   0  0  0  0  0  0  0  0  0  0  0  0
  -29.0483  -23.3243   22.1181 C   0  0  0  0  0  0  0  0  0  0  0  0
  -27.5199  -20.8402   16.8833 C   0  0  0  0  0  0  0  0  0  0  0  0
  -29.4184  -23.3178   20.6431 C   0  0  0  0  0  0  0  0  0  0  0  0
  -27.8376  -21.5629   21.0685 C   0  0  0  0  0  0  0  0  0  0  0  0
  -28.0500  -19.4730   18.8831 C   0  0  0  0  0  0  0  0  0  0  0  0
  -25.4422  -29.7684   19.0396 C   0  0  1  0  0  0  0  0  0  0  0  0
  -23.4636  -29.6043   22.2786 C   0  0  1  0  0  0  0  0  0  0  0  0
  -27.6720  -22.6580   22.1221 C   0  0  1  0  0  0  0  0  0  0  0  0
  -28.6254  -18.3651   17.9767 C   0  0  1  0  0  0  0  0  0  0  0  0
  -22.7273  -31.4539   29.7646 C   0  0  0  0  0  0  0  0  0  0  0  0
  -25.5945  -20.9063   24.9035 C   0  0  0  0  0  0  0  0  0  0  0  0
  -26.9495  -31.4836   24.6613 C   0  0  0  0  0  0  0  0  0  0  0  0
  -26.5508  -31.7619   27.1173 C   0  0  0  0  0  0  0  0  0  0  0  0
  -25.4148  -33.2751   25.4918 C   0  0  0  0  0  0  0  0  0  0  0  0
  -20.5032  -29.0900   27.7793 C   0  0  0  0  0  0  0  0  0  0  0  0
  -27.2674  -22.1266   23.4855 C   0  0  0  0  0  0  0  0  0  0  0  0
  -24.7465  -22.4289   23.0869 C   0  0  0  0  0  0  0  0  0  1  0  0
  -24.6591  -30.8700   25.6830 C   0  0  1  0  0  0  0  0  0  0  0  0
  -22.1318  -30.8379   28.5082 C   0  0  2  0  0  0  0  0  0  0  0  0
  -25.8708  -21.4722   23.5058 C   0  0  2  0  0  0  0  0  0  0  0  0
  -25.8866  -31.8234   25.7252 C   0  0  0  0  0  0  0  0  0  0  0  0
  -27.4243  -16.2424   18.3451 N   0  0  0  0  0  0  0  0  0  0  0  0
  -28.5031  -16.9954   18.6194 N   0  0  0  0  0  0  0  0  0  0  0  0
  -23.9264  -29.6351   23.6675 N   0  0  0  0  0  0  0  0  0  0  0  0
  -28.1037  -20.7848   18.2248 N   0  0  0  0  0  0  0  0  0  0  0  0
  -28.7524  -22.1457   20.0836 N   0  0  0  0  0  0  0  0  0  0  0  0
  -30.5226  -17.0224   19.8569 N   0  0  0  0  0  0  0  0  0  0  0  0
  -28.7383  -12.9973   20.8622 N   0  0  0  0  0  0  0  0  0  0  0  0
  -24.4122  -29.7074   20.0543 N   0  0  0  0  0  0  0  0  0  0  0  0
  -23.6241  -31.1848   26.6617 N   0  0  0  0  0  0  0  0  0  0  0  0
  -21.1799  -29.7662   28.9159 N   0  3  0  0  0  0  0  0  0  0  0  0
  -30.5132  -14.3965   21.2503 O   0  0  0  0  0  0  0  0  0  0  0  0
  -25.7974  -29.6663   21.9257 O   0  0  0  0  0  0  0  0  0  0  0  0
  -23.5055  -31.9172   23.8944 O   0  0  0  0  0  0  0  0  0  0  0  0
  -23.6502  -29.1271   27.7304 O   0  0  0  0  0  0  0  0  0  0  0  0
  -29.4043  -22.6619   17.9496 O   0  0  0  0  0  0  0  0  0  0  0  0
  -23.9227  -10.9575   18.9427 O   0  0  0  0  0  0  0  0  0  0  0  0
  -24.6322  -23.5068   24.0050 O   0  0  0  0  0  0  0  0  0  1  0  0
  -22.5341   -8.6254   23.7424 F   0  0  0  0  0  0  0  0  0  0  0  0
  -21.3017  -10.9739   19.8218 F   0  0  0  0  0  0  0  0  0  0  0  0
  1  2  1  0  0  0  0
  1  5  2  0  0  0  0
  2  6  2  0  0  0  0
  3  8  2  0  0  0  0
  3 15  1  0  0  0  0
  4  9  1  0  0  0  0
  4 15  2  0  0  0  0
  5 17  1  0  0  0  0
  6 19  1  0  0  0  0
  7 10  2  0  0  0  0
  7 18  1  0  0  0  0
  8 21  1  0  0  0  0
  9 21  2  0  0  0  0
 10 22  1  0  0  0  0
 11 12  2  0  0  0  0
 11 23  1  0  0  0  0
 12 24  1  0  0  0  0
 13 20  1  0  0  0  0
 13 22  2  0  0  0  0
 14 24  2  0  0  0  0
 14 25  1  0  0  0  0
 15 26  1  0  0  0  0
 16 26  1  0  0  0  0
 16 27  2  0  0  0  0
 16 28  1  0  0  0  0
 17 19  2  0  0  0  0
 17 33  1  0  0  0  0
 18 20  2  0  0  0  0
 18 34  1  0  0  0  0
 19 45  1  0  0  0  0
 20 35  1  0  0  0  0
 21 76  1  0  0  0  0
 22 77  1  0  0  0  0
 23 25  2  0  0  0  0
 23 76  1  0  0  0  0
 24 78  1  0  0  0  0
 25 79  1  0  0  0  0
 26 61  2  0  0  0  0
 27 62  1  0  0  0  0
 27 66  1  0  0  0  0
 28 67  1  0  0  0  0
 28 71  2  0  0  0  0
 29 46  1  0  0  0  0
 29 68  1  0  0  0  0
 29 72  2  0  0  0  0
 30 57  1  0  0  0  0
 30 63  1  0  0  0  0
 30 73  2  0  0  0  0
 31 58  1  0  0  0  0
 31 69  1  0  0  0  0
 31 74  2  0  0  0  0
 32 64  1  0  0  0  0
 32 65  1  0  0  0  0
 32 75  2  0  0  0  0
 33 36  1  0  0  0  0
 34 46  1  0  0  0  0
 35 63  1  0  0  0  0
 36 38  1  0  0  0  0
 37 39  1  0  0  0  0
 37 41  1  0  0  0  0
 38 45  1  0  0  0  0
 39 48  1  0  0  0  0
 40 42  1  0  0  0  0
 40 47  1  0  0  0  0
 41 64  1  0  0  0  0
 42 65  1  0  0  0  0
 43 47  1  0  0  0  0
 43 65  1  0  0  0  0
 44 48  1  0  0  0  0
 44 64  1  0  0  0  0
 45 68  1  0  0  0  0
 46 63  1  0  0  0  0
 47 55  1  0  0  0  0
 48 62  1  0  0  0  0
 49 58  1  0  0  0  0
 50 59  1  0  0  0  0
 51 60  1  0  0  0  0
 52 60  1  0  0  0  0
 53 60  1  0  0  0  0
 54 70  1  0  0  0  0
 55 59  1  0  0  0  0
 56 59  1  0  0  0  0
 56 77  1  0  0  0  0
 57 60  1  0  0  0  0
 57 69  1  0  0  0  0
 58 70  1  0  0  0  0
 61 62  1  0  0  0  0
M  CHG  1  70   1
M  ISO  4  32 100  56 101  65 100  77 101
M  END
> <Batch ID>
0116

> <Smiles>
CNC(C)C(=O)NC(C(=O)N1Cc2cc([101O:1][101CH2:1]C(C)CC3CC[100N:0]([100C:0](=O)N4CCCC(n5nc(-c6ccc(Oc7ccc(F)cc7F)cc6)c(C(N)=O)c5N)C4)C3)ccc2CC1C(=O)NC1CCCc2ccccc21)C(C)(C)C

> <Shape>
0.215

> <Color>
0.062

> <Negative vol penalty>
0.000

$$$$

  -OEChem-04052320133D

 86 95  0     1  0  0  0  0  0999 V2000
  -29.4542  -30.4665   26.7181 C   0  0  0  0  0  0  0  0  0  0  0  0
  -29.1700  -29.3181   25.9860 C   0  0  0  0  0  0  0  0  0  0  0  0
  -23.5997  -12.8193   23.8855 C   0  0  0  0  0  0  0  0  0  0  0  0
  -24.8747  -10.7694   23.7903 C   0  0  0  0  0  0  0  0  0  0  0  0
  -28.5411  -31.5198   26.7429 C   0  0  0  0  0  0  0  0  0  0  0  0
  -27.9719  -29.2221   25.2791 C   0  0  0  0  0  0  0  0  0  0  0  0
  -28.6153  -27.3778   20.6069 C   0  0  0  0  0  0  0  0  0  0  0  0
  -23.1821  -12.4997   25.1774 C   0  0  0  0  0  0  0  0  0  0  0  0
  -24.4572  -10.4497   25.0822 C   0  0  0  0  0  0  0  0  0  0  0  0
  -28.7896  -25.9999   20.4846 C   0  0  0  0  0  0  0  0  0  0  0  0
  -21.6937   -9.1889   26.5669 C   0  0  0  0  0  0  0  0  0  0  0  0
  -21.2648   -7.8832   26.8049 C   0  0  0  0  0  0  0  0  0  0  0  0
  -26.4717  -25.7686   19.8574 C   0  0  0  0  0  0  0  0  0  0  0  0
  -23.0077   -7.6115   28.4558 C   0  0  0  0  0  0  0  0  0  0  0  0
  -24.4460  -11.9542   23.1919 C   0  0  0  0  0  0  0  0  0  0  0  0
  -24.0630  -12.4902   20.7274 C   0  0  0  0  0  0  0  0  0  0  0  0
  -27.3355  -31.4405   26.0281 C   0  0  0  0  0  0  0  0  0  0  0  0
  -27.3632  -27.9611   20.3655 C   0  0  0  0  0  0  0  0  0  0  0  0
  -27.0412  -30.2748   25.2954 C   0  0  0  0  0  0  0  0  0  0  0  0
  -26.2849  -27.1544   19.9748 C   0  0  0  0  0  0  0  0  0  0  0  0
  -23.6109  -11.3149   25.7758 C   0  0  0  0  0  0  0  0  0  0  0  0
  -27.7170  -25.1948   20.1127 C   0  0  0  0  0  0  0  0  0  0  0  0
  -22.7797   -9.7060   27.2733 C   0  0  0  0  0  0  0  0  0  0  0  0
  -21.9217   -7.0945   27.7493 C   0  0  0  0  0  0  0  0  0  0  0  0
  -23.4366   -8.9173   28.2178 C   0  0  0  0  0  0  0  0  0  0  0  0
  -24.8772  -12.2836   21.8571 C   0  0  0  0  0  0  0  0  0  0  0  0
  -24.9464  -12.7742   19.7148 C   0  0  0  0  0  0  0  0  0  0  0  0
  -22.6357  -12.4307   20.6043 C   0  0  0  0  0  0  0  0  0  0  0  0
  -29.0043  -19.4730   21.6516 C   0  0  0  0  0  0  0  0  0  0  0  0
  -25.2865  -29.6179   22.1107 C   0  0  0  0  0  0  0  0  0  0  0  0
  -23.7416  -29.9239   19.2749 C   0  0  0  0  0  0  0  0  0  0  0  0
  -22.9740  -27.8109   16.4529 C   0  0  0  0  0  0  0  0  0  0  0  0
  -30.6500  -14.9260   20.1537 C   0  0  0  0  0  0  0  0  0  0  0  0
  -26.3584  -32.5855   26.1235 C   0  0  0  0  0  0  0  0  0  0  0  0
  -27.1983  -29.4521   20.4757 C   0  0  0  0  0  0  0  0  0  0  0  0
  -24.9253  -27.7338   19.6846 C   0  0  0  0  0  0  0  0  0  0  0  0
  -25.2794  -32.5569   25.0440 C   0  0  0  0  0  0  0  0  0  0  0  0
  -29.4424  -11.9561   18.2989 C   0  0  0  0  0  0  0  0  0  0  0  0
  -24.6907  -31.1556   24.9147 C   0  0  0  0  0  0  0  0  0  0  0  0
  -27.6744  -21.2798   22.7519 C   0  0  0  0  0  0  0  0  0  0  0  0
  -30.1122  -21.6515   22.1013 C   0  0  0  0  0  0  0  0  0  0  0  0
  -28.0949  -11.6777   18.9641 C   0  0  0  0  0  0  0  0  0  0  0  0
  -27.2398  -22.1205   21.5532 C   0  0  0  0  0  0  0  0  0  0  0  0
  -29.6506  -22.4731   20.9004 C   0  0  0  0  0  0  0  0  0  0  0  0
  -29.9742  -17.4780   22.7646 C   0  0  0  0  0  0  0  0  0  0  0  0
  -30.4186  -12.6362   19.2547 C   0  0  0  0  0  0  0  0  0  0  0  0
  -30.8234  -16.8886   21.6387 C   0  0  0  0  0  0  0  0  0  0  0  0
  -28.8284  -16.6725   20.1948 C   0  0  0  0  0  0  0  0  0  0  0  0
  -28.5390  -13.5956   20.5435 C   0  0  0  0  0  0  0  0  0  0  0  0
  -25.7633  -30.1430   24.4956 C   0  0  1  0  0  0  0  0  0  0  0  0
  -29.0591  -20.6501   22.5818 C   0  0  0  0  0  0  0  0  0  0  0  0
  -28.6841  -18.1395   22.2670 C   0  0  2  0  0  0  0  0  0  0  0  0
  -25.7515  -29.8779   20.7058 C   0  0  1  0  0  0  0  0  0  0  0  0
  -27.9186  -17.2131   21.3037 C   0  0  1  0  0  0  0  0  0  0  0  0
  -27.5182  -12.9600   19.5888 C   0  0  2  0  0  0  0  0  0  0  0  0
  -28.3036  -23.1417   21.1601 C   0  0  0  0  0  0  0  0  0  1  0  0
  -22.5625  -28.3891   14.0459 C   0  0  0  0  0  0  0  0  0  0  0  0
  -20.8003  -29.9542   20.0859 C   0  0  0  0  0  0  0  0  0  0  0  0
  -20.2538  -28.8989   17.8823 C   0  0  0  0  0  0  0  0  0  0  0  0
  -21.3070  -31.1591   17.9538 C   0  0  0  0  0  0  0  0  0  0  0  0
  -25.0897  -25.9605   15.5262 C   0  0  0  0  0  0  0  0  0  0  0  0
  -26.6741  -17.8747   20.7097 C   0  0  0  0  0  0  0  0  0  0  0  0
  -22.6931  -29.1267   18.5372 C   0  0  1  0  0  0  0  0  0  0  0  0
  -23.5792  -27.8951   15.0633 C   0  0  2  0  0  0  0  0  0  0  0  0
  -21.2819  -29.7723   18.6327 C   0  0  0  0  0  0  0  0  0  0  0  0
  -26.1779  -12.4242   21.5879 N   0  0  0  0  0  0  0  0  0  0  0  0
  -26.1877  -12.7222   20.2775 N   0  0  0  0  0  0  0  0  0  0  0  0
  -24.8128  -29.1962   19.8123 N   0  0  0  0  0  0  0  0  0  0  0  0
  -29.8268  -13.8230   19.8724 N   0  0  0  0  0  0  0  0  0  0  0  0
  -30.0339  -16.0409   20.7480 N   0  0  0  0  0  0  0  0  0  0  0  0
  -24.7747  -13.0609   18.4068 N   0  0  0  0  0  0  0  0  0  0  0  0
  -21.8790  -12.1257   21.7439 N   0  0  0  0  0  0  0  0  0  0  0  0
  -26.0383  -30.2553   23.0792 N   0  0  0  0  0  0  0  0  0  0  0  0
  -23.1862  -28.9672   17.1734 N   0  0  0  0  0  0  0  0  0  0  0  0
  -25.7240  -16.8181   20.3092 N   0  3  0  0  0  0  0  0  0  0  0  0
  -24.0665  -26.5556   14.6284 N   0  3  0  0  0  0  0  0  0  0  0  0
  -22.0498  -12.6257   19.5124 O   0  0  0  0  0  0  0  0  0  0  0  0
  -29.2092  -19.5942   20.4448 O   0  0  0  0  0  0  0  0  0  0  0  0
  -24.3164  -28.8940   22.3018 O   0  0  0  0  0  0  0  0  0  0  0  0
  -23.6185  -31.1480   19.3646 O   0  0  0  0  0  0  0  0  0  0  0  0
  -22.3699  -26.8199   16.8574 O   0  0  0  0  0  0  0  0  0  0  0  0
  -31.8593  -14.9163   19.8919 O   0  0  0  0  0  0  0  0  0  0  0  0
  -23.2039  -11.0027   27.0365 O   0  0  0  0  0  0  0  0  0  0  0  0
  -27.8852  -23.8409   19.9925 O   0  0  0  0  0  0  0  0  0  1  0  0
  -21.5087   -5.8411   27.9789 F   0  0  0  0  0  0  0  0  0  0  0  0
  -24.4798   -9.4089   28.9004 F   0  0  0  0  0  0  0  0  0  0  0  0
  1  2  1  0  0  0  0
  1  5  2  0  0  0  0
  2  6  2  0  0  0  0
  3  8  2  0  0  0  0
  3 15  1  0  0  0  0
  4  9  1  0  0  0  0
  4 15  2  0  0  0  0
  5 17  1  0  0  0  0
  6 19  1  0  0  0  0
  7 10  2  0  0  0  0
  7 18  1  0  0  0  0
  8 21  1  0  0  0  0
  9 21  2  0  0  0  0
 10 22  1  0  0  0  0
 11 12  2  0  0  0  0
 11 23  1  0  0  0  0
 12 24  1  0  0  0  0
 13 20  1  0  0  0  0
 13 22  2  0  0  0  0
 14 24  2  0  0  0  0
 14 25  1  0  0  0  0
 15 26  1  0  0  0  0
 16 26  1  0  0  0  0
 16 27  2  0  0  0  0
 16 28  1  0  0  0  0
 17 19  2  0  0  0  0
 17 34  1  0  0  0  0
 18 20  2  0  0  0  0
 18 35  1  0  0  0  0
 19 50  1  0  0  0  0
 20 36  1  0  0  0  0
 21 83  1  0  0  0  0
 22 84  1  0  0  0  0
 23 25  2  0  0  0  0
 23 83  1  0  0  0  0
 24 85  1  0  0  0  0
 25 86  1  0  0  0  0
 26 66  2  0  0  0  0
 27 67  1  0  0  0  0
 27 71  1  0  0  0  0
 28 72  1  0  0  0  0
 28 77  2  0  0  0  0
 29 51  1  0  0  0  0
 29 52  1  0  0  0  0
 29 78  2  0  0  0  0
 30 53  1  0  0  0  0
 30 73  1  0  0  0  0
 30 79  2  0  0  0  0
 31 63  1  0  0  0  0
 31 68  1  0  0  0  0
 31 80  2  0  0  0  0
 32 64  1  0  0  0  0
 32 74  1  0  0  0  0
 32 81  2  0  0  0  0
 33 69  1  0  0  0  0
 33 70  1  0  0  0  0
 33 82  2  0  0  0  0
 34 37  1  0  0  0  0
 35 53  1  0  0  0  0
 36 68  1  0  0  0  0
 37 39  1  0  0  0  0
 38 42  1  0  0  0  0
 38 46  1  0  0  0  0
 39 50  1  0  0  0  0
 40 43  1  0  0  0  0
 40 51  1  0  0  0  0
 41 44  1  0  0  0  0
 41 51  1  0  0  0  0
 42 55  1  0  0  0  0
 43 56  1  0  0  0  0
 44 56  1  0  0  0  0
 45 47  1  0  0  0  0
 45 52  1  0  0  0  0
 46 69  1  0  0  0  0
 47 70  1  0  0  0  0
 48 54  1  0  0  0  0
 48 70  1  0  0  0  0
 49 55  1  0  0  0  0
 49 69  1  0  0  0  0
 50 73  1  0  0  0  0
 52 54  1  0  0  0  0
 53 68  1  0  0  0  0
 54 62  1  0  0  0  0
 55 67  1  0  0  0  0
 56 84  1  0  0  0  0
 57 64  1  0  0  0  0
 58 65  1  0  0  0  0
 59 65  1  0  0  0  0
 60 65  1  0  0  0  0
 61 76  1  0  0  0  0
 62 75  1  0  0  0  0
 63 65  1  0  0  0  0
 63 74  1  0  0  0  0
 64 76  1  0  0  0  0
 66 67  1  0  0  0  0
M  CHG  2  75   1  76   1
M  ISO  4  33 100  56 101  70 100  84 101
M  END
> <Batch ID>
0116

> <Smiles>
CNC(C)C(=O)NC(C(=O)N1Cc2cc([101O:1][101CH:1]3CCC(C(=O)C4CC[100N:0]([100C:0](=O)N5CCCC(n6nc(-c7ccc(Oc8ccc(F)cc8F)cc7)c(C(N)=O)c6N)C5)CC4CN)CC3)ccc2CC1C(=O)NC1CCCc2ccccc21)C(C)(C)C

> <Shape>
0.269

> <Color>
0.100

> <Negative vol penalty>
0.000

$$$$

  -OEChem-04052320133D

 87 95  0     1  0  0  0  0  0999 V2000
  -24.3627  -38.2794   22.6001 C   0  0  0  0  0  0  0  0  0  0  0  0
  -25.1257  -37.4962   21.7399 C   0  0  0  0  0  0  0  0  0  0  0  0
  -24.4150   -8.5971   21.3210 C   0  0  0  0  0  0  0  0  0  0  0  0
  -23.0567  -10.5916   21.2027 C   0  0  0  0  0  0  0  0  0  0  0  0
  -23.8606  -37.7311   23.7796 C   0  0  0  0  0  0  0  0  0  0  0  0
  -25.3879  -36.1644   22.0594 C   0  0  0  0  0  0  0  0  0  0  0  0
  -26.3847  -29.7757   18.9759 C   0  0  0  0  0  0  0  0  0  0  0  0
  -23.5673   -8.0778   22.2994 C   0  0  0  0  0  0  0  0  0  0  0  0
  -22.2090  -10.0723   22.1811 C   0  0  0  0  0  0  0  0  0  0  0  0
  -27.2909  -28.7162   18.9617 C   0  0  0  0  0  0  0  0  0  0  0  0
  -20.5440   -6.5694   22.4305 C   0  0  0  0  0  0  0  0  0  0  0  0
  -20.1495   -5.2373   22.3058 C   0  0  0  0  0  0  0  0  0  0  0  0
  -26.3053  -27.8541   20.9877 C   0  0  0  0  0  0  0  0  0  0  0  0
  -21.1598   -4.7381   24.4430 C   0  0  0  0  0  0  0  0  0  0  0  0
  -24.1598   -9.8540   20.7726 C   0  0  0  0  0  0  0  0  0  0  0  0
  -24.9231  -10.2323   18.3681 C   0  0  0  0  0  0  0  0  0  0  0  0
  -24.1088  -36.3892   24.1089 C   0  0  0  0  0  0  0  0  0  0  0  0
  -25.4375  -29.8885   20.0038 C   0  0  0  0  0  0  0  0  0  0  0  0
  -24.8898  -35.5980   23.2450 C   0  0  0  0  0  0  0  0  0  0  0  0
  -25.3866  -28.9145   21.0112 C   0  0  0  0  0  0  0  0  0  0  0  0
  -22.4643   -8.8154   22.7294 C   0  0  0  0  0  0  0  0  0  0  0  0
  -27.2531  -27.7568   19.9692 C   0  0  0  0  0  0  0  0  0  0  0  0
  -21.2465   -6.9858   23.5614 C   0  0  0  0  0  0  0  0  0  0  0  0
  -20.4574   -4.3217   23.3121 C   0  0  0  0  0  0  0  0  0  0  0  0
  -21.5543   -6.0702   24.5676 C   0  0  0  0  0  0  0  0  0  0  0  0
  -25.0354  -10.3912   19.7623 C   0  0  0  0  0  0  0  0  0  0  0  0
  -25.9899  -10.9295   17.8560 C   0  0  0  0  0  0  0  0  0  0  0  0
  -23.9420   -9.5183   17.6042 C   0  0  0  0  0  0  0  0  0  0  0  0
  -24.8288  -32.0352   22.2676 C   0  0  0  0  0  0  0  0  0  0  0  0
  -30.0932  -20.0471   18.8606 C   0  0  0  0  0  0  0  0  0  0  0  0
  -22.2498  -30.1467   22.8198 C   0  0  0  0  0  0  0  0  0  0  0  0
  -20.8111  -27.0621   22.5706 C   0  0  0  0  0  0  0  0  0  0  0  0
  -29.2425  -15.5087   19.9302 C   0  0  0  0  0  0  0  0  0  0  0  0
  -23.5847  -35.8541   25.4180 C   0  0  0  0  0  0  0  0  0  0  0  0
  -24.4497  -31.0226   19.9901 C   0  0  0  0  0  0  0  0  0  0  0  0
  -24.3759  -28.9788   22.1260 C   0  0  0  0  0  0  0  0  0  0  0  0
  -23.5935  -34.3299   25.5003 C   0  0  0  0  0  0  0  0  0  0  0  0
  -30.4403  -12.3015   18.9524 C   0  0  0  0  0  0  0  0  0  0  0  0
  -25.7053  -18.6252   17.5494 C   0  0  0  0  0  0  0  0  0  0  0  0
  -24.9291  -33.7767   25.0134 C   0  0  0  0  0  0  0  0  0  0  0  0
  -29.1808  -11.4339   18.9233 C   0  0  0  0  0  0  0  0  0  0  0  0
  -26.7445  -17.5204   17.5189 C   0  0  0  0  0  0  0  0  0  0  0  0
  -30.3964  -13.3223   20.0874 C   0  0  0  0  0  0  0  0  0  0  0  0
  -27.9319  -13.3050   20.0802 C   0  0  0  0  0  0  0  0  0  0  0  0
  -26.5439  -19.8746   17.3980 C   0  0  0  0  0  0  0  0  0  0  0  0
  -25.1751  -34.1423   23.5446 C   0  0  1  0  0  0  0  0  0  0  0  0
  -23.8624  -31.3201   21.3663 C   0  0  1  0  0  0  0  0  0  0  0  0
  -27.9051  -12.2975   18.9180 C   0  0  2  0  0  0  0  0  0  0  0  0
  -27.9286  -18.0738   18.3115 C   0  0  2  0  0  0  0  0  0  0  0  0
  -31.2967  -19.3230   18.3123 C   0  0  0  0  0  0  0  0  0  0  0  0
  -18.7097  -25.8165   23.1448 C   0  0  0  0  0  0  0  0  0  0  0  0
  -30.2392  -22.3278   15.9565 C   0  0  0  0  0  0  0  0  0  0  0  0
  -23.1296  -30.0127   25.7383 C   0  0  0  0  0  0  0  0  0  0  0  0
  -21.6025  -28.0512   26.0360 C   0  0  0  0  0  0  0  0  0  0  0  0
  -20.6652  -30.2745   25.4026 C   0  0  0  0  0  0  0  0  0  0  0  0
  -20.2471  -26.4697   19.7263 C   0  0  0  0  0  0  0  0  0  0  0  0
  -27.9451  -17.6177   19.7635 C   0  0  0  0  0  0  0  0  0  0  0  0
  -28.9673  -24.7946   18.7494 C   0  0  0  0  0  0  0  0  0  0  0  0
  -29.4799  -24.2733   17.4004 C   0  0  0  0  0  0  0  0  0  0  0  0
  -28.6640  -21.8514   17.8573 C   0  0  0  0  0  0  0  0  0  0  0  0
  -28.5997  -26.2738   18.6873 C   0  0  0  0  0  0  0  0  0  1  0  0
  -28.9691  -20.3498   17.8811 C   0  0  2  0  0  0  0  0  0  0  0  0
  -21.9706  -28.9468   23.6922 C   0  0  1  0  0  0  0  0  0  0  0  0
  -19.4404  -26.6262   22.0850 C   0  0  2  0  0  0  0  0  0  0  0  0
  -29.8053  -22.7653   17.3608 C   0  0  1  0  0  0  0  0  0  0  0  0
  -21.8624  -29.3208   25.1975 C   0  0  0  0  0  0  0  0  0  0  0  0
  -26.0904  -11.1312   20.1136 N   0  0  0  0  0  0  0  0  0  0  0  0
  -26.6509  -11.4433   18.9327 N   0  0  0  0  0  0  0  0  0  0  0  0
  -23.4354  -30.1103   22.0722 N   0  0  0  0  0  0  0  0  0  0  0  0
  -29.1626  -14.1095   20.0243 N   0  0  0  0  0  0  0  0  0  0  0  0
  -26.4178  -11.1469   16.5942 N   0  0  0  0  0  0  0  0  0  0  0  0
  -22.9132   -8.8574   18.2891 N   0  0  0  0  0  0  0  0  0  0  0  0
  -24.4005  -33.2846   22.6736 N   0  0  0  0  0  0  0  0  0  0  0  0
  -20.7745  -28.3146   23.1462 N   0  0  0  0  0  0  0  0  0  0  0  0
  -28.0263  -16.1779   19.8687 N   0  0  0  0  0  0  0  0  0  0  0  0
  -27.7423  -19.5892   18.2737 N   0  3  1  0  0  0  0  0  0  0  0  0
  -19.5674  -25.7892   20.8586 N   0  3  0  0  0  0  0  0  0  0  0  0
  -23.9861   -9.4543   16.3522 O   0  0  0  0  0  0  0  0  0  0  0  0
  -25.8844  -31.4928   22.5733 O   0  0  0  0  0  0  0  0  0  0  0  0
  -30.0477  -20.3893   20.0423 O   0  0  0  0  0  0  0  0  0  0  0  0
  -21.4422  -31.0788   22.7968 O   0  0  0  0  0  0  0  0  0  0  0  0
  -21.8132  -26.3601   22.4545 O   0  0  0  0  0  0  0  0  0  0  0  0
  -30.3181  -16.1161   19.8976 O   0  0  0  0  0  0  0  0  0  0  0  0
  -21.6367   -8.3088   23.6840 O   0  0  0  0  0  0  0  0  0  0  0  0
  -28.1436  -26.7141   19.9581 O   0  0  0  0  0  0  0  0  0  1  0  0
  -20.0771   -3.0428   23.1930 F   0  0  0  0  0  0  0  0  0  0  0  0
  -22.2279   -6.4647   25.6569 F   0  0  0  0  0  0  0  0  0  0  0  0
  1  2  1  0  0  0  0
  1  5  2  0  0  0  0
  2  6  2  0  0  0  0
  3  8  2  0  0  0  0
  3 15  1  0  0  0  0
  4  9  1  0  0  0  0
  4 15  2  0  0  0  0
  5 17  1  0  0  0  0
  6 19  1  0  0  0  0
  7 10  2  0  0  0  0
  7 18  1  0  0  0  0
  8 21  1  0  0  0  0
  9 21  2  0  0  0  0
 10 22  1  0  0  0  0
 11 12  2  0  0  0  0
 11 23  1  0  0  0  0
 12 24  1  0  0  0  0
 13 20  1  0  0  0  0
 13 22  2  0  0  0  0
 14 24  2  0  0  0  0
 14 25  1  0  0  0  0
 15 26  1  0  0  0  0
 16 26  1  0  0  0  0
 16 27  2  0  0  0  0
 16 28  1  0  0  0  0
 17 19  2  0  0  0  0
 17 34  1  0  0  0  0
 18 20  2  0  0  0  0
 18 35  1  0  0  0  0
 19 46  1  0  0  0  0
 20 36  1  0  0  0  0
 21 84  1  0  0  0  0
 22 85  1  0  0  0  0
 23 25  2  0  0  0  0
 23 84  1  0  0  0  0
 24 86  1  0  0  0  0
 25 87  1  0  0  0  0
 26 67  2  0  0  0  0
 27 68  1  0  0  0  0
 27 71  1  0  0  0  0
 28 72  1  0  0  0  0
 28 78  2  0  0  0  0
 29 47  1  0  0  0  0
 29 73  1  0  0  0  0
 29 79  2  0  0  0  0
 30 50  1  0  0  0  0
 30 62  1  0  0  0  0
 30 80  2  0  0  0  0
 31 63  1  0  0  0  0
 31 69  1  0  0  0  0
 31 81  2  0  0  0  0
 32 64  1  0  0  0  0
 32 74  1  0  0  0  0
 32 82  2  0  0  0  0
 33 70  1  0  0  0  0
 33 75  1  0  0  0  0
 33 83  2  0  0  0  0
 34 37  1  0  0  0  0
 35 47  1  0  0  0  0
 36 69  1  0  0  0  0
 37 40  1  0  0  0  0
 38 41  1  0  0  0  0
 38 43  1  0  0  0  0
 39 42  1  0  0  0  0
 39 45  1  0  0  0  0
 40 46  1  0  0  0  0
 41 48  1  0  0  0  0
 42 49  1  0  0  0  0
 43 70  1  0  0  0  0
 44 48  1  0  0  0  0
 44 70  1  0  0  0  0
 45 76  1  0  0  0  0
 46 73  1  0  0  0  0
 47 69  1  0  0  0  0
 48 68  1  0  0  0  0
 49 57  1  0  0  0  0
 49 76  1  0  0  0  0
 51 64  1  0  0  0  0
 52 65  1  0  0  0  0
 53 66  1  0  0  0  0
 54 66  1  0  0  0  0
 55 66  1  0  0  0  0
 56 77  1  0  0  0  0
 57 75  1  0  0  0  0
 58 59  1  0  0  0  0
 58 61  1  0  0  0  0
 59 65  1  0  0  0  0
 60 62  1  0  0  0  0
 60 65  1  0  0  0  0
 61 85  1  0  0  0  0
 62 76  1  0  0  0  0
 63 66  1  0  0  0  0
 63 74  1  0  0  0  0
 64 77  1  0  0  0  0
 67 68  1  0  0  0  0
M  CHG  2  76   1  77   1
M  ISO  4  33 100  61 101  75 100  85 101
M  END
> <Batch ID>
0116

> <Smiles>
CNC(C)C(=O)NC(C(=O)N1Cc2cc([101O:1][101CH2:1]CCC(C)CC(C(C)=O)N3CCCC3C[100NH:0][100C:0](=O)N3CCCC(n4nc(-c5ccc(Oc6ccc(F)cc6F)cc5)c(C(N)=O)c4N)C3)ccc2CC1C(=O)NC1CCCc2ccccc21)C(C)(C)C

> <Shape>
0.335

> <Color>
0.115

> <Negative vol penalty>
0.000

$$$$

  -OEChem-04052320133D

 80 87  0     1  0  0  0  0  0999 V2000
  -19.2344  -22.5627   19.2432 C   0  0  0  0  0  0  0  0  0  0  0  0
  -20.5789  -22.2311   19.3760 C   0  0  0  0  0  0  0  0  0  0  0  0
  -26.9174  -13.6991   22.5474 C   0  0  0  0  0  0  0  0  0  0  0  0
  -26.8661  -12.9758   20.2428 C   0  0  0  0  0  0  0  0  0  0  0  0
  -18.8536  -23.9005   19.1477 C   0  0  0  0  0  0  0  0  0  0  0  0
  -21.5437  -23.2373   19.4125 C   0  0  0  0  0  0  0  0  0  0  0  0
  -26.7414  -23.2384   22.6513 C   0  0  0  0  0  0  0  0  0  0  0  0
  -26.3796  -12.4746   22.9437 C   0  0  0  0  0  0  0  0  0  0  0  0
  -26.3284  -11.7512   20.6390 C   0  0  0  0  0  0  0  0  0  0  0  0
  -28.0595  -22.9390   22.3097 C   0  0  0  0  0  0  0  0  0  0  0  0
  -23.3098  -10.5359   21.5564 C   0  0  0  0  0  0  0  0  0  0  0  0
  -22.2346  -10.0327   20.8239 C   0  0  0  0  0  0  0  0  0  0  0  0
  -28.4939  -25.2851   21.9542 C   0  0  0  0  0  0  0  0  0  0  0  0
  -23.5287   -8.0680   20.2740 C   0  0  0  0  0  0  0  0  0  0  0  0
  -27.1606  -13.9497   21.1969 C   0  0  0  0  0  0  0  0  0  0  0  0
  -29.0782  -15.5419   20.6536 C   0  0  0  0  0  0  0  0  0  0  0  0
  -19.8133  -24.9241   19.1927 C   0  0  0  0  0  0  0  0  0  0  0  0
  -26.2859  -24.5646   22.6364 C   0  0  0  0  0  0  0  0  0  0  0  0
  -21.1755  -24.5900   19.3162 C   0  0  0  0  0  0  0  0  0  0  0  0
  -27.1702  -25.5989   22.2985 C   0  0  0  0  0  0  0  0  0  0  0  0
  -26.0852  -11.5007   21.9895 C   0  0  0  0  0  0  0  0  0  0  0  0
  -28.9352  -23.9621   21.9583 C   0  0  0  0  0  0  0  0  0  0  0  0
  -24.4944   -9.8051   21.6477 C   0  0  0  0  0  0  0  0  0  0  0  0
  -22.3441   -8.7988   20.1828 C   0  0  0  0  0  0  0  0  0  0  0  0
  -24.6039   -8.5712   21.0065 C   0  0  0  0  0  0  0  0  0  0  0  0
  -27.7155  -15.2146   20.7868 C   0  0  0  0  0  0  0  0  0  0  0  0
  -29.0779  -16.8521   20.2415 C   0  0  0  0  0  0  0  0  0  0  0  0
  -30.2404  -14.7338   20.8818 C   0  0  0  0  0  0  0  0  0  0  0  0
  -24.0589  -26.1534   21.0176 C   0  0  0  0  0  0  0  0  0  0  0  0
  -24.8675  -28.5632   23.0329 C   0  0  0  0  0  0  0  0  0  0  0  0
  -27.2097  -29.9629   25.0828 C   0  0  0  0  0  0  0  0  0  0  0  0
  -27.0782  -20.9357   17.0057 C   0  0  0  0  0  0  0  0  0  0  0  0
  -19.3579  -26.3535   19.0383 C   0  0  0  0  0  0  0  0  0  0  0  0
  -24.8684  -24.8736   23.0333 C   0  0  0  0  0  0  0  0  0  0  0  0
  -26.7362  -27.0411   22.2867 C   0  0  0  0  0  0  0  0  0  0  0  0
  -20.4086  -27.3767   19.4619 C   0  0  0  0  0  0  0  0  0  0  0  0
  -25.3225  -20.2337   20.0225 C   0  0  0  0  0  0  0  0  0  0  0  0
  -21.7699  -27.0184   18.8743 C   0  0  0  0  0  0  0  0  0  0  0  0
  -25.8963  -18.8900   20.4755 C   0  0  0  0  0  0  0  0  0  0  0  0
  -25.2047  -20.3133   18.5021 C   0  0  0  0  0  0  0  0  0  0  0  0
  -27.0232  -18.6739   18.2212 C   0  0  0  0  0  0  0  0  0  0  0  0
  -22.2493  -25.6542   19.3845 C   0  0  1  0  0  0  0  0  0  0  0  0
  -24.3721  -26.2084   22.4862 C   0  0  1  0  0  0  0  0  0  0  0  0
  -27.2132  -18.5675   19.7440 C   0  0  2  0  0  0  0  0  0  0  0  0
  -27.5955  -31.9521   26.5632 C   0  0  0  0  0  0  0  0  0  0  0  0
  -29.1469  -20.7771   14.1727 C   0  0  0  0  0  0  0  0  0  0  0  0
  -31.1513  -21.5649   20.9963 C   0  0  0  0  0  0  0  0  0  0  0  0
  -25.3066  -30.3086   20.5690 C   0  0  0  0  0  0  0  0  0  0  0  0
  -26.5699  -31.9135   22.0169 C   0  0  0  0  0  0  0  0  0  0  0  0
  -24.1596  -31.4582   22.4709 C   0  0  0  0  0  0  0  0  0  0  0  0
  -27.5621  -28.2588   27.4767 C   0  0  0  0  0  0  0  0  0  0  0  0
  -30.3763  -21.8275   16.1478 C   0  0  0  0  0  0  0  0  0  0  0  0
  -31.4772  -22.8731   18.1311 C   0  0  0  0  0  0  0  0  0  0  0  0
  -25.8787  -29.6839   23.0079 C   0  0  1  0  0  0  0  0  0  0  0  0
  -27.1136  -30.5114   26.4950 C   0  0  2  0  0  0  0  0  0  0  0  0
  -29.0295  -21.4208   15.5510 C   0  0  2  0  0  0  0  0  0  0  0  0
  -30.4241  -22.8098   20.5052 C   0  0  2  0  0  0  0  0  0  1  0  0
  -31.2069  -23.6007   19.4470 C   0  0  2  0  0  0  0  0  0  0  0  0
  -25.4867  -30.8138   22.0144 C   0  0  0  0  0  0  0  0  0  0  0  0
  -26.9082  -16.2347   20.4841 N   0  0  0  0  0  0  0  0  0  0  0  0
  -27.7662  -17.2159   20.1566 N   0  0  0  0  0  0  0  0  0  0  0  0
  -25.3388  -27.2917   22.6763 N   0  0  0  0  0  0  0  0  0  0  0  0
  -26.4877  -19.9983   17.8691 N   0  0  0  0  0  0  0  0  0  0  0  0
  -30.0718  -17.7171   19.9472 N   0  0  0  0  0  0  0  0  0  0  0  0
  -30.0609  -13.4090   21.3024 N   0  0  0  0  0  0  0  0  0  0  0  0
  -22.7621  -25.7706   20.7329 N   0  0  0  0  0  0  0  0  0  0  0  0
  -26.0295  -30.1285   24.3892 N   0  0  0  0  0  0  0  0  0  0  0  0
  -28.2967  -20.5606   16.4531 N   0  0  0  0  0  0  0  0  0  0  0  0
  -27.9424  -29.6940   27.4256 N   0  3  0  0  0  0  0  0  0  0  0  0
  -30.2055  -22.4815   17.4734 N   0  3  0  0  0  0  0  0  0  0  0  0
  -31.4039  -15.1786   20.7335 O   0  0  0  0  0  0  0  0  0  0  0  0
  -24.9290  -26.4386   20.2032 O   0  0  0  0  0  0  0  0  0  0  0  0
  -23.7042  -28.8056   23.3637 O   0  0  0  0  0  0  0  0  0  0  0  0
  -28.2308  -29.4432   24.6381 O   0  0  0  0  0  0  0  0  0  0  0  0
  -26.5606  -22.0284   16.7506 O   0  0  0  0  0  0  0  0  0  0  0  0
  -30.4761  -24.8003   19.1666 O   0  0  0  0  0  0  0  0  0  0  0  0
  -25.5607  -10.3056   22.3759 O   0  0  0  0  0  0  0  0  0  0  0  0
  -30.2221  -23.6726   21.6238 O   0  0  0  0  0  0  0  0  0  1  0  0
  -21.3110   -8.3151   19.4807 F   0  0  0  0  0  0  0  0  0  0  0  0
  -25.7390   -7.8640   21.0916 F   0  0  0  0  0  0  0  0  0  0  0  0
  1  2  1  0  0  0  0
  1  5  2  0  0  0  0
  2  6  2  0  0  0  0
  3  8  2  0  0  0  0
  3 15  1  0  0  0  0
  4  9  1  0  0  0  0
  4 15  2  0  0  0  0
  5 17  1  0  0  0  0
  6 19  1  0  0  0  0
  7 10  2  0  0  0  0
  7 18  1  0  0  0  0
  8 21  1  0  0  0  0
  9 21  2  0  0  0  0
 10 22  1  0  0  0  0
 11 12  2  0  0  0  0
 11 23  1  0  0  0  0
 12 24  1  0  0  0  0
 13 20  1  0  0  0  0
 13 22  2  0  0  0  0
 14 24  2  0  0  0  0
 14 25  1  0  0  0  0
 15 26  1  0  0  0  0
 16 26  1  0  0  0  0
 16 27  2  0  0  0  0
 16 28  1  0  0  0  0
 17 19  2  0  0  0  0
 17 33  1  0  0  0  0
 18 20  2  0  0  0  0
 18 34  1  0  0  0  0
 19 42  1  0  0  0  0
 20 35  1  0  0  0  0
 21 77  1  0  0  0  0
 22 78  1  0  0  0  0
 23 25  2  0  0  0  0
 23 77  1  0  0  0  0
 24 79  1  0  0  0  0
 25 80  1  0  0  0  0
 26 60  2  0  0  0  0
 27 61  1  0  0  0  0
 27 64  1  0  0  0  0
 28 65  1  0  0  0  0
 28 71  2  0  0  0  0
 29 43  1  0  0  0  0
 29 66  1  0  0  0  0
 29 72  2  0  0  0  0
 30 54  1  0  0  0  0
 30 62  1  0  0  0  0
 30 73  2  0  0  0  0
 31 55  1  0  0  0  0
 31 67  1  0  0  0  0
 31 74  2  0  0  0  0
 32 63  1  0  0  0  0
 32 68  1  0  0  0  0
 32 75  2  0  0  0  0
 33 36  1  0  0  0  0
 34 43  1  0  0  0  0
 35 62  1  0  0  0  0
 36 38  1  0  0  0  0
 37 39  1  0  0  0  0
 37 40  1  0  0  0  0
 38 42  1  0  0  0  0
 39 44  1  0  0  0  0
 40 63  1  0  0  0  0
 41 44  1  0  0  0  0
 41 63  1  0  0  0  0
 42 66  1  0  0  0  0
 43 62  1  0  0  0  0
 44 61  1  0  0  0  0
 45 55  1  0  0  0  0
 46 56  1  0  0  0  0
 47 57  1  0  0  0  0
 48 59  1  0  0  0  0
 49 59  1  0  0  0  0
 50 59  1  0  0  0  0
 51 69  1  0  0  0  0
 52 56  1  0  0  0  0
 52 70  1  0  0  0  0
 53 58  1  0  0  0  0
 53 70  1  0  0  0  0
 54 59  1  0  0  0  0
 54 67  1  0  0  0  0
 55 69  1  0  0  0  0
 56 68  1  0  0  0  0
 57 58  1  0  0  0  0
 57 78  1  0  0  0  0
 58 76  1  0  0  0  0
 60 61  1  0  0  0  0
M  CHG  2  69   1  70   1
M  ISO  4  32 100  57 101  68 100  78 101
M  END
> <Batch ID>
0116

> <Smiles>
CNC(C)C(=O)NC(C(=O)N1Cc2cc([101O:1][101CH:1](C)C(O)CNCC(C)[100NH:0][100C:0](=O)N3CCCC(n4nc(-c5ccc(Oc6ccc(F)cc6F)cc5)c(C(N)=O)c4N)C3)ccc2CC1C(=O)NC1CCCc2ccccc21)C(C)(C)C

> <Shape>
0.197

> <Color>
0.073

> <Negative vol penalty>
0.000

$$$$

  -OEChem-04052320133D

 84 92  0     1  0  0  0  0  0999 V2000
  -30.6203  -29.2279   15.7192 C   0  0  0  0  0  0  0  0  0  0  0  0
  -29.9948  -28.4159   16.6599 C   0  0  0  0  0  0  0  0  0  0  0  0
  -23.1974   -9.8518   19.9567 C   0  0  0  0  0  0  0  0  0  0  0  0
  -23.9065   -9.9355   22.2648 C   0  0  0  0  0  0  0  0  0  0  0  0
  -31.6605  -28.7194   14.9426 C   0  0  0  0  0  0  0  0  0  0  0  0
  -30.4086  -27.0944   16.8236 C   0  0  0  0  0  0  0  0  0  0  0  0
  -30.5499  -23.9014   22.0477 C   0  0  0  0  0  0  0  0  0  0  0  0
  -22.5044   -8.6686   20.2125 C   0  0  0  0  0  0  0  0  0  0  0  0
  -23.2135   -8.7523   22.5206 C   0  0  0  0  0  0  0  0  0  0  0  0
  -29.6725  -22.9704   22.6020 C   0  0  0  0  0  0  0  0  0  0  0  0
  -19.5672   -7.7559   21.6170 C   0  0  0  0  0  0  0  0  0  0  0  0
  -18.2747   -7.6382   21.1057 C   0  0  0  0  0  0  0  0  0  0  0  0
  -32.4148  -17.1513   24.7842 C   0  0  0  0  0  0  0  0  0  0  0  0
  -31.0022  -21.1794   21.6837 C   0  0  0  0  0  0  0  0  0  0  0  0
  -30.4808  -15.8383   24.2183 C   0  0  0  0  0  0  0  0  0  0  0  0
  -18.9553   -5.7016   19.8314 C   0  0  0  0  0  0  0  0  0  0  0  0
  -32.9884  -16.7184   23.5995 C   0  0  0  0  0  0  0  0  0  0  0  0
  -23.8984  -10.4852   20.9828 C   0  0  0  0  0  0  0  0  0  0  0  0
  -24.1214  -13.0215   20.8233 C   0  0  0  0  0  0  0  0  0  0  0  0
  -32.0937  -27.3939   15.1037 C   0  0  0  0  0  0  0  0  0  0  0  0
  -31.6558  -23.4778   21.2967 C   0  0  0  0  0  0  0  0  0  0  0  0
  -31.4548  -26.5672   16.0475 C   0  0  0  0  0  0  0  0  0  0  0  0
  -31.8936  -22.1069   21.1231 C   0  0  0  0  0  0  0  0  0  0  0  0
  -31.1368  -16.6982   25.0921 C   0  0  0  0  0  0  0  0  0  0  0  0
  -22.5124   -8.1188   21.4944 C   0  0  0  0  0  0  0  0  0  0  0  0
  -29.8969  -21.6093   22.4176 C   0  0  0  0  0  0  0  0  0  0  0  0
  -20.5537   -6.8466   21.2354 C   0  0  0  0  0  0  0  0  0  0  0  0
  -17.9688   -6.6110   20.2130 C   0  0  0  0  0  0  0  0  0  0  0  0
  -20.2477   -5.8194   20.3427 C   0  0  0  0  0  0  0  0  0  0  0  0
  -24.6149  -11.7072   20.7191 C   0  0  0  0  0  0  0  0  0  0  0  0
  -31.1410  -15.4643   23.0589 C   0  0  0  0  0  0  0  0  0  0  0  0
  -25.1839  -13.8164   20.4689 C   0  0  0  0  0  0  0  0  0  0  0  0
  -22.8189  -13.4825   21.2063 C   0  0  0  0  0  0  0  0  0  0  0  0
  -32.6039  -23.8624   18.2873 C   0  0  0  0  0  0  0  0  0  0  0  0
  -35.2706  -22.3478   19.3438 C   0  0  0  0  0  0  0  0  0  0  0  0
  -36.6980  -20.2449   21.6214 C   0  0  0  0  0  0  0  0  0  0  0  0
  -30.9324  -14.0849   20.9613 C   0  0  0  0  0  0  0  0  0  0  0  0
  -33.1907  -26.8748   14.2082 C   0  0  0  0  0  0  0  0  0  0  0  0
  -32.6077  -24.4941   20.7279 C   0  0  0  0  0  0  0  0  0  0  0  0
  -33.0776  -21.6001   20.3424 C   0  0  0  0  0  0  0  0  0  0  0  0
  -33.8189  -25.5754   14.7052 C   0  0  0  0  0  0  0  0  0  0  0  0
  -29.3640  -13.1124   17.9164 C   0  0  0  0  0  0  0  0  0  0  0  0
  -32.7367  -24.5828   15.1178 C   0  0  0  0  0  0  0  0  0  0  0  0
  -27.9308  -12.7791   18.3372 C   0  0  0  0  0  0  0  0  0  0  0  0
  -30.3789  -12.6932   18.9785 C   0  0  0  0  0  0  0  0  0  0  0  0
  -28.6763  -12.8680   20.7504 C   0  0  0  0  0  0  0  0  0  0  0  0
  -31.8918  -25.1359   16.2718 C   0  0  1  0  0  0  0  0  0  0  0  0
  -33.4151  -23.9617   19.5481 C   0  0  1  0  0  0  0  0  0  0  0  0
  -27.6129  -13.3305   19.7409 C   0  0  2  0  0  0  0  0  0  0  0  0
  -38.8871  -19.1656   22.2047 C   0  0  0  0  0  0  0  0  0  0  0  0
  -30.1329  -15.9004   27.2641 C   0  0  0  0  0  0  0  0  0  0  0  0
  -31.3353  -18.0646   27.2799 C   0  0  0  0  0  0  0  0  0  0  0  0
  -34.9017  -20.3668   17.0526 C   0  0  0  0  0  0  0  0  0  0  0  0
  -36.4901  -18.8250   18.2223 C   0  0  0  0  0  0  0  0  0  0  0  0
  -37.2685  -21.0674   17.4551 C   0  0  0  0  0  0  0  0  0  0  0  0
  -36.7806  -21.5725   24.2652 C   0  0  0  0  0  0  0  0  0  0  0  0
  -28.0455  -19.8205   24.9618 C   0  0  0  0  0  0  0  0  0  0  0  0
  -29.1066  -17.8752   26.1144 C   0  0  0  0  0  0  0  0  0  0  0  0
  -28.3781  -21.0668   24.1655 C   0  0  0  0  0  0  0  0  0  1  0  0
  -35.7142  -20.9082   19.4428 C   0  0  1  0  0  0  0  0  0  0  0  0
  -37.9734  -20.3590   22.4368 C   0  0  2  0  0  0  0  0  0  0  0  0
  -30.4501  -17.1481   26.3980 C   0  0  0  0  0  0  0  0  0  0  0  0
  -36.0701  -20.3011   18.0563 C   0  0  0  0  0  0  0  0  0  0  0  0
  -32.3823  -15.8836   22.7259 N   0  0  0  0  0  0  0  0  0  0  0  0
  -25.8916  -11.6653   20.3289 N   0  0  0  0  0  0  0  0  0  0  0  0
  -26.2093  -12.9631   20.1847 N   0  0  0  0  0  0  0  0  0  0  0  0
  -33.9761  -22.6329   19.8006 N   0  0  0  0  0  0  0  0  0  0  0  0
  -30.0157  -13.2558   20.2809 N   0  0  0  0  0  0  0  0  0  0  0  0
  -25.3318  -15.1550   20.3757 N   0  0  0  0  0  0  0  0  0  0  0  0
  -21.8447  -12.5316   21.5393 N   0  0  0  0  0  0  0  0  0  0  0  0
  -30.4643  -14.5879   22.1748 N   0  0  0  0  0  0  0  0  0  0  0  0
  -32.6062  -25.0147   17.5245 N   0  0  0  0  0  0  0  0  0  0  0  0
  -36.8106  -20.8841   20.4049 N   0  0  0  0  0  0  0  0  0  0  0  0
  -37.6541  -20.4307   23.8907 N   0  3  0  0  0  0  0  0  0  0  0  0
  -29.3020  -19.1071   25.3031 N   0  3  0  0  0  0  0  0  0  0  0  0
  -22.5227  -14.7011   21.2360 O   0  0  0  0  0  0  0  0  0  0  0  0
  -32.0202  -22.8173   18.0251 O   0  0  0  0  0  0  0  0  0  0  0  0
  -36.0469  -23.1896   18.8850 O   0  0  0  0  0  0  0  0  0  0  0  0
  -35.7027  -19.6454   22.0221 O   0  0  0  0  0  0  0  0  0  0  0  0
  -32.0401  -14.3525   20.4886 O   0  0  0  0  0  0  0  0  0  0  0  0
  -21.8361   -6.9644   21.7444 O   0  0  0  0  0  0  0  0  0  0  0  0
  -29.0417  -20.6985   22.9570 O   0  0  0  0  0  0  0  0  0  1  0  0
  -16.7272   -6.4971   19.7233 F   0  0  0  0  0  0  0  0  0  0  0  0
  -21.1910   -4.9421   19.9733 F   0  0  0  0  0  0  0  0  0  0  0  0
  1  2  1  0  0  0  0
  1  5  2  0  0  0  0
  2  6  2  0  0  0  0
  3  8  2  0  0  0  0
  3 18  1  0  0  0  0
  4  9  1  0  0  0  0
  4 18  2  0  0  0  0
  5 20  1  0  0  0  0
  6 22  1  0  0  0  0
  7 10  2  0  0  0  0
  7 21  1  0  0  0  0
  8 25  1  0  0  0  0
  9 25  2  0  0  0  0
 10 26  1  0  0  0  0
 11 12  2  0  0  0  0
 11 27  1  0  0  0  0
 12 28  1  0  0  0  0
 13 17  2  0  0  0  0
 13 24  1  0  0  0  0
 14 23  1  0  0  0  0
 14 26  2  0  0  0  0
 15 24  2  0  0  0  0
 15 31  1  0  0  0  0
 16 28  2  0  0  0  0
 16 29  1  0  0  0  0
 17 64  1  0  0  0  0
 18 30  1  0  0  0  0
 19 30  1  0  0  0  0
 19 32  2  0  0  0  0
 19 33  1  0  0  0  0
 20 22  2  0  0  0  0
 20 38  1  0  0  0  0
 21 23  2  0  0  0  0
 21 39  1  0  0  0  0
 22 47  1  0  0  0  0
 23 40  1  0  0  0  0
 24 62  1  0  0  0  0
 25 81  1  0  0  0  0
 26 82  1  0  0  0  0
 27 29  2  0  0  0  0
 27 81  1  0  0  0  0
 28 83  1  0  0  0  0
 29 84  1  0  0  0  0
 30 65  2  0  0  0  0
 31 64  2  0  0  0  0
 31 71  1  0  0  0  0
 32 66  1  0  0  0  0
 32 69  1  0  0  0  0
 33 70  1  0  0  0  0
 33 76  2  0  0  0  0
 34 48  1  0  0  0  0
 34 72  1  0  0  0  0
 34 77  2  0  0  0  0
 35 60  1  0  0  0  0
 35 67  1  0  0  0  0
 35 78  2  0  0  0  0
 36 61  1  0  0  0  0
 36 73  1  0  0  0  0
 36 79  2  0  0  0  0
 37 68  1  0  0  0  0
 37 71  1  0  0  0  0
 37 80  2  0  0  0  0
 38 41  1  0  0  0  0
 39 48  1  0  0  0  0
 40 67  1  0  0  0  0
 41 43  1  0  0  0  0
 42 44  1  0  0  0  0
 42 45  1  0  0  0  0
 43 47  1  0  0  0  0
 44 49  1  0  0  0  0
 45 68  1  0  0  0  0
 46 49  1  0  0  0  0
 46 68  1  0  0  0  0
 47 72  1  0  0  0  0
 48 67  1  0  0  0  0
 49 66  1  0  0  0  0
 50 61  1  0  0  0  0
 51 62  1  0  0  0  0
 52 62  1  0  0  0  0
 53 63  1  0  0  0  0
 54 63  1  0  0  0  0
 55 63  1  0  0  0  0
 56 74  1  0  0  0  0
 57 59  1  0  0  0  0
 57 75  1  0  0  0  0
 58 62  1  0  0  0  0
 58 75  1  0  0  0  0
 59 82  1  0  0  0  0
 60 63  1  0  0  0  0
 60 73  1  0  0  0  0
 61 74  1  0  0  0  0
 65 66  1  0  0  0  0
M  CHG  2  74   1  75   1
M  ISO  4  37 100  59 101  71 100  82 101
M  END
> <Batch ID>
0116

> <Smiles>
CNC(C)C(=O)NC(C(=O)N1Cc2cc([101O:1][101CH2:1]CNCC(C)(C)c3ccnc([100NH:0][100C:0](=O)N4CCCC(n5nc(-c6ccc(Oc7ccc(F)cc7F)cc6)c(C(N)=O)c5N)C4)c3)ccc2CC1C(=O)NC1CCCc2ccccc21)C(C)(C)C

> <Shape>
0.155

> <Color>
0.178

> <Negative vol penalty>
0.000

$$$$

  -OEChem-04052320133D

 86 95  0     1  0  0  0  0  0999 V2000
  -34.8172  -22.5100   37.8576 C   0  0  0  0  0  0  0  0  0  0  0  0
  -34.0269  -22.0481   36.8100 C   0  0  0  0  0  0  0  0  0  0  0  0
  -23.0755   -9.8657   19.9422 C   0  0  0  0  0  0  0  0  0  0  0  0
  -23.8351   -9.8757   22.2357 C   0  0  0  0  0  0  0  0  0  0  0  0
  -35.2515  -23.8348   37.8701 C   0  0  0  0  0  0  0  0  0  0  0  0
  -33.6696  -22.9112   35.7747 C   0  0  0  0  0  0  0  0  0  0  0  0
  -32.9575  -21.4743   29.8641 C   0  0  0  0  0  0  0  0  0  0  0  0
  -22.3322   -8.7125   20.1935 C   0  0  0  0  0  0  0  0  0  0  0  0
  -23.0918   -8.7225   22.4870 C   0  0  0  0  0  0  0  0  0  0  0  0
  -31.8278  -21.1953   29.0962 C   0  0  0  0  0  0  0  0  0  0  0  0
  -19.8639   -7.9238   23.0901 C   0  0  0  0  0  0  0  0  0  0  0  0
  -19.1069   -7.8849   24.2609 C   0  0  0  0  0  0  0  0  0  0  0  0
  -31.7706  -23.4909   28.3573 C   0  0  0  0  0  0  0  0  0  0  0  0
  -29.7482  -17.7150   22.7140 C   0  0  0  0  0  0  0  0  0  0  0  0
  -20.3491   -5.9489   24.9998 C   0  0  0  0  0  0  0  0  0  0  0  0
  -23.8271  -10.4473   20.9633 C   0  0  0  0  0  0  0  0  0  0  0  0
  -24.1677  -12.9725   20.8404 C   0  0  0  0  0  0  0  0  0  0  0  0
  -34.9073  -24.7119   36.8295 C   0  0  0  0  0  0  0  0  0  0  0  0
  -33.4966  -22.7685   29.8931 C   0  0  0  0  0  0  0  0  0  0  0  0
  -34.0986  -24.2493   35.7739 C   0  0  0  0  0  0  0  0  0  0  0  0
  -32.9086  -23.7832   29.1244 C   0  0  0  0  0  0  0  0  0  0  0  0
  -30.2173  -18.9549   23.1519 C   0  0  0  0  0  0  0  0  0  0  0  0
  -31.4805  -19.3953   22.7368 C   0  0  0  0  0  0  0  0  0  0  0  0
  -22.3403   -8.1409   21.4658 C   0  0  0  0  0  0  0  0  0  0  0  0
  -31.2325  -22.2043   28.3449 C   0  0  0  0  0  0  0  0  0  0  0  0
  -20.8636   -6.9753   22.8740 C   0  0  0  0  0  0  0  0  0  0  0  0
  -19.3495   -6.8975   25.2158 C   0  0  0  0  0  0  0  0  0  0  0  0
  -21.1062   -5.9879   23.8289 C   0  0  0  0  0  0  0  0  0  0  0  0
  -24.5956  -11.6382   20.7043 C   0  0  0  0  0  0  0  0  0  0  0  0
  -32.2251  -18.5435   21.9268 C   0  0  0  0  0  0  0  0  0  0  0  0
  -30.5694  -16.9530   21.8989 C   0  0  0  0  0  0  0  0  0  0  0  0
  -25.2595  -13.7220   20.4763 C   0  0  0  0  0  0  0  0  0  0  0  0
  -22.8969  -13.4882   21.2586 C   0  0  0  0  0  0  0  0  0  0  0  0
  -33.9507  -24.9594   32.1508 C   0  0  0  0  0  0  0  0  0  0  0  0
  -35.4868  -26.5342   29.7670 C   0  0  0  0  0  0  0  0  0  0  0  0
  -35.9031  -27.0221   26.4151 C   0  0  0  0  0  0  0  0  0  0  0  0
  -30.7252  -14.7705   20.6504 C   0  0  0  0  0  0  0  0  0  0  0  0
  -35.3611  -26.1480   36.9106 C   0  0  0  0  0  0  0  0  0  0  0  0
  -34.7314  -23.0469   30.7056 C   0  0  0  0  0  0  0  0  0  0  0  0
  -32.0460  -20.7081   23.2003 C   0  0  0  0  0  0  0  0  0  0  0  0
  -33.4607  -25.1843   29.1052 C   0  0  0  0  0  0  0  0  0  0  0  0
  -29.3459  -19.8240   24.0155 C   0  0  0  0  0  0  0  0  0  0  0  0
  -35.2501  -26.8976   35.5854 C   0  0  0  0  0  0  0  0  0  0  0  0
  -29.6122  -12.3533   18.2848 C   0  0  0  0  0  0  0  0  0  0  0  0
  -33.8941  -26.6375   34.9370 C   0  0  0  0  0  0  0  0  0  0  0  0
  -28.1726  -12.0616   18.7146 C   0  0  0  0  0  0  0  0  0  0  0  0
  -30.5270  -12.5840   19.4863 C   0  0  0  0  0  0  0  0  0  0  0  0
  -28.6196  -13.3092   20.8665 C   0  0  0  0  0  0  0  0  0  0  0  0
  -30.9756  -21.6824   23.6817 C   0  0  0  0  0  0  0  0  0  0  0  0
  -33.7106  -25.1484   34.6201 C   0  0  1  0  0  0  0  0  0  0  0  0
  -34.8911  -24.5211   31.0639 C   0  0  1  0  0  0  0  0  0  0  0  0
  -27.6470  -13.1341   19.6888 C   0  0  2  0  0  0  0  0  0  0  0  0
  -34.5077  -17.7065   21.3139 C   0  0  0  0  0  0  0  0  0  0  0  0
  -37.2038  -28.4024   24.7719 C   0  0  0  0  0  0  0  0  0  0  0  0
  -28.5105  -22.8155   24.3319 C   0  0  0  0  0  0  0  0  0  0  0  0
  -33.6943  -28.9301   30.3643 C   0  0  0  0  0  0  0  0  0  0  0  0
  -34.3540  -29.8880   28.1473 C   0  0  0  0  0  0  0  0  0  0  0  0
  -36.0841  -29.5046   29.9029 C   0  0  0  0  0  0  0  0  0  0  0  0
  -37.1657  -24.6249   25.2243 C   0  0  0  0  0  0  0  0  0  0  0  0
  -33.5993  -18.9209   21.4762 C   0  0  0  0  0  0  0  0  0  0  0  0
  -29.9467  -22.7058   26.4080 C   0  0  0  0  0  0  0  0  0  1  0  0
  -35.0776  -27.5213   28.7006 C   0  0  1  0  0  0  0  0  0  0  0  0
  -37.1522  -27.1004   25.5561 C   0  0  2  0  0  0  0  0  0  0  0  0
  -29.1506  -21.9150   25.3760 C   0  0  2  0  0  0  0  0  0  0  0  0
  -34.7907  -28.9352   29.2805 C   0  0  0  0  0  0  0  0  0  0  0  0
  -25.8605  -11.5425   20.2862 N   0  0  0  0  0  0  0  0  0  0  0  0
  -31.8001  -17.3348   21.4955 N   0  0  0  0  0  0  0  0  0  0  0  0
  -26.2368  -12.8261   20.1564 N   0  0  0  0  0  0  0  0  0  0  0  0
  -34.6657  -25.4083   29.9209 N   0  0  0  0  0  0  0  0  0  0  0  0
  -29.9675  -13.6156   20.3624 N   0  0  0  0  0  0  0  0  0  0  0  0
  -25.4693  -15.0535   20.4018 N   0  0  0  0  0  0  0  0  0  0  0  0
  -21.8854  -12.5789   21.5968 N   0  0  0  0  0  0  0  0  0  0  0  0
  -30.0773  -15.6962   21.4676 N   0  0  0  0  0  0  0  0  0  0  0  0
  -34.4495  -24.7905   33.4283 N   0  0  0  0  0  0  0  0  0  0  0  0
  -36.1306  -27.4918   27.6914 N   0  0  0  0  0  0  0  0  0  0  0  0
  -30.0855  -20.9732   24.6724 N   0  3  1  0  0  0  0  0  0  0  0  0
  -37.1875  -25.9674   24.5886 N   0  3  0  0  0  0  0  0  0  0  0  0
  -22.6600  -14.7187   21.3144 O   0  0  0  0  0  0  0  0  0  0  0  0
  -32.8542  -25.4182   31.8524 O   0  0  0  0  0  0  0  0  0  0  0  0
  -36.5018  -26.7506   30.4339 O   0  0  0  0  0  0  0  0  0  0  0  0
  -34.8316  -26.5911   25.9948 O   0  0  0  0  0  0  0  0  0  0  0  0
  -31.8542  -14.9392   20.1827 O   0  0  0  0  0  0  0  0  0  0  0  0
  -21.6148   -7.0157   21.7114 O   0  0  0  0  0  0  0  0  0  0  0  0
  -30.1294  -21.9349   27.5949 O   0  0  0  0  0  0  0  0  0  1  0  0
  -18.6235   -6.8612   26.3409 F   0  0  0  0  0  0  0  0  0  0  0  0
  -22.0660   -5.0746   23.6275 F   0  0  0  0  0  0  0  0  0  0  0  0
  1  2  1  0  0  0  0
  1  5  2  0  0  0  0
  2  6  2  0  0  0  0
  3  8  2  0  0  0  0
  3 16  1  0  0  0  0
  4  9  1  0  0  0  0
  4 16  2  0  0  0  0
  5 18  1  0  0  0  0
  6 20  1  0  0  0  0
  7 10  2  0  0  0  0
  7 19  1  0  0  0  0
  8 24  1  0  0  0  0
  9 24  2  0  0  0  0
 10 25  1  0  0  0  0
 11 12  2  0  0  0  0
 11 26  1  0  0  0  0
 12 27  1  0  0  0  0
 13 21  1  0  0  0  0
 13 25  2  0  0  0  0
 14 22  2  0  0  0  0
 14 31  1  0  0  0  0
 15 27  2  0  0  0  0
 15 28  1  0  0  0  0
 16 29  1  0  0  0  0
 17 29  1  0  0  0  0
 17 32  2  0  0  0  0
 17 33  1  0  0  0  0
 18 20  2  0  0  0  0
 18 38  1  0  0  0  0
 19 21  2  0  0  0  0
 19 39  1  0  0  0  0
 20 50  1  0  0  0  0
 21 41  1  0  0  0  0
 22 23  1  0  0  0  0
 22 42  1  0  0  0  0
 23 30  2  0  0  0  0
 23 40  1  0  0  0  0
 24 83  1  0  0  0  0
 25 84  1  0  0  0  0
 26 28  2  0  0  0  0
 26 83  1  0  0  0  0
 27 85  1  0  0  0  0
 28 86  1  0  0  0  0
 29 66  2  0  0  0  0
 30 60  1  0  0  0  0
 30 67  1  0  0  0  0
 31 67  2  0  0  0  0
 31 73  1  0  0  0  0
 32 68  1  0  0  0  0
 32 71  1  0  0  0  0
 33 72  1  0  0  0  0
 33 78  2  0  0  0  0
 34 51  1  0  0  0  0
 34 74  1  0  0  0  0
 34 79  2  0  0  0  0
 35 62  1  0  0  0  0
 35 69  1  0  0  0  0
 35 80  2  0  0  0  0
 36 63  1  0  0  0  0
 36 75  1  0  0  0  0
 36 81  2  0  0  0  0
 37 70  1  0  0  0  0
 37 73  1  0  0  0  0
 37 82  2  0  0  0  0
 38 43  1  0  0  0  0
 39 51  1  0  0  0  0
 40 49  1  0  0  0  0
 41 69  1  0  0  0  0
 42 76  1  0  0  0  0
 43 45  1  0  0  0  0
 44 46  1  0  0  0  0
 44 47  1  0  0  0  0
 45 50  1  0  0  0  0
 46 52  1  0  0  0  0
 47 70  1  0  0  0  0
 48 52  1  0  0  0  0
 48 70  1  0  0  0  0
 49 76  1  0  0  0  0
 50 74  1  0  0  0  0
 51 69  1  0  0  0  0
 52 68  1  0  0  0  0
 53 60  1  0  0  0  0
 54 63  1  0  0  0  0
 55 64  1  0  0  0  0
 56 65  1  0  0  0  0
 57 65  1  0  0  0  0
 58 65  1  0  0  0  0
 59 77  1  0  0  0  0
 61 64  1  0  0  0  0
 61 84  1  0  0  0  0
 62 65  1  0  0  0  0
 62 75  1  0  0  0  0
 63 77  1  0  0  0  0
 64 76  1  0  0  0  0
 66 68  1  0  0  0  0
M  CHG  2  76   1  77   1
M  ISO  4  37 100  61 101  73 100  84 101
M  END
> <Batch ID>
0116

> <Smiles>
CCc1nc([100NH:0][100C:0](=O)N2CCCC(n3nc(-c4ccc(Oc5ccc(F)cc5F)cc4)c(C(N)=O)c3N)C2)cc2c1CCN(C(C)[101CH2:1][101O:1]c1ccc3c(c1)CN(C(=O)C(NC(=O)C(C)NC)C(C)(C)C)C(C(=O)NC1CCCc4ccccc41)C3)C2

> <Shape>
0.168

> <Color>
0.180

> <Negative vol penalty>
0.000

$$$$

  -OEChem-04052320133D

 88 97  0     1  0  0  0  0  0999 V2000
  -30.4782  -34.9748   19.1853 C   0  0  0  0  0  0  0  0  0  0  0  0
  -30.3517  -33.6261   19.5022 C   0  0  0  0  0  0  0  0  0  0  0  0
  -28.5281  -14.6429   25.4671 C   0  0  0  0  0  0  0  0  0  0  0  0
  -26.3278  -14.7684   24.4770 C   0  0  0  0  0  0  0  0  0  0  0  0
  -29.6418  -35.9130   19.7888 C   0  0  0  0  0  0  0  0  0  0  0  0
  -29.3894  -33.2149   20.4238 C   0  0  0  0  0  0  0  0  0  0  0  0
  -26.8436  -29.1194   18.8778 C   0  0  0  0  0  0  0  0  0  0  0  0
  -28.1995  -15.6885   26.3299 C   0  0  0  0  0  0  0  0  0  0  0  0
  -25.9992  -15.8139   25.3399 C   0  0  0  0  0  0  0  0  0  0  0  0
  -27.4824  -27.8867   19.0056 C   0  0  0  0  0  0  0  0  0  0  0  0
  -25.0580  -16.1772   28.5652 C   0  0  0  0  0  0  0  0  0  0  0  0
  -23.8136  -16.1301   29.1936 C   0  0  0  0  0  0  0  0  0  0  0  0
  -26.2267  -27.4517   21.0189 C   0  0  0  0  0  0  0  0  0  0  0  0
  -23.2100  -18.2266   28.1556 C   0  0  0  0  0  0  0  0  0  0  0  0
  -27.5923  -14.1829   24.5406 C   0  0  0  0  0  0  0  0  0  0  0  0
  -27.7509  -11.7255   23.8745 C   0  0  0  0  0  0  0  0  0  0  0  0
  -28.6624  -35.5120   20.7110 C   0  0  0  0  0  0  0  0  0  0  0  0
  -25.8980  -29.5329   19.8271 C   0  0  0  0  0  0  0  0  0  0  0  0
  -28.5401  -34.1488   21.0413 C   0  0  0  0  0  0  0  0  0  0  0  0
  -25.5755  -28.6889   20.8994 C   0  0  0  0  0  0  0  0  0  0  0  0
  -26.9350  -16.2740   26.2663 C   0  0  0  0  0  0  0  0  0  0  0  0
  -27.1761  -27.0539   20.0779 C   0  0  0  0  0  0  0  0  0  0  0  0
  -25.3784  -17.2491   27.7320 C   0  0  0  0  0  0  0  0  0  0  0  0
  -22.8896  -17.1547   28.9888 C   0  0  0  0  0  0  0  0  0  0  0  0
  -24.4544  -18.2737   27.5272 C   0  0  0  0  0  0  0  0  0  0  0  0
  -27.9313  -13.1033   23.6487 C   0  0  0  0  0  0  0  0  0  0  0  0
  -28.2285  -11.1254   22.7351 C   0  0  0  0  0  0  0  0  0  0  0  0
  -27.2008  -11.0487   25.0125 C   0  0  0  0  0  0  0  0  0  0  0  0
  -25.6866  -31.9545   21.8752 C   0  0  0  0  0  0  0  0  0  0  0  0
  -22.7194  -30.7495   22.3911 C   0  0  0  0  0  0  0  0  0  0  0  0
  -20.6261  -28.0565   22.2782 C   0  0  0  0  0  0  0  0  0  0  0  0
  -29.8809  -15.5853   20.3743 C   0  0  0  0  0  0  0  0  0  0  0  0
  -27.8130  -36.5679   21.3730 C   0  0  0  0  0  0  0  0  0  0  0  0
  -25.1983  -30.8538   19.6602 C   0  0  0  0  0  0  0  0  0  0  0  0
  -24.5528  -29.0774   21.9345 C   0  0  0  0  0  0  0  0  0  0  0  0
  -26.5690  -36.0078   22.0580 C   0  0  0  0  0  0  0  0  0  0  0  0
  -27.7331  -13.2737   18.8975 C   0  0  0  0  0  0  0  0  0  0  0  0
  -26.9261  -34.7838   22.8953 C   0  0  0  0  0  0  0  0  0  0  0  0
  -28.5425  -21.4743   18.7880 C   0  0  0  0  0  0  0  0  0  0  0  0
  -29.4246  -20.8883   21.0804 C   0  0  0  0  0  0  0  0  0  0  0  0
  -29.1509  -22.8702   18.9108 C   0  0  0  0  0  0  0  0  0  0  0  0
  -30.0333  -22.2840   21.2030 C   0  0  0  0  0  0  0  0  0  0  0  0
  -28.2153  -11.9217   19.4191 C   0  0  0  0  0  0  0  0  0  0  0  0
  -28.9044  -14.1925   18.5798 C   0  0  0  0  0  0  0  0  0  0  0  0
  -27.8270  -16.4690   19.1850 C   0  0  0  0  0  0  0  0  0  0  0  0
  -30.3450  -13.0873   20.2577 C   0  0  0  0  0  0  0  0  0  0  0  0
  -29.4010  -17.9973   20.3220 C   0  0  0  0  0  0  0  0  0  0  0  0
  -27.6685  -17.3723   17.9635 C   0  0  0  0  0  0  0  0  0  0  0  0
  -27.4918  -33.6608   22.0176 C   0  0  1  0  0  0  0  0  0  0  0  0
  -24.6276  -31.3969   20.9667 C   0  0  1  0  0  0  0  0  0  0  0  0
  -29.3184  -20.4426   19.6166 C   0  0  0  0  0  0  0  0  0  0  0  0
  -29.2569  -23.3156   20.3748 C   0  0  0  0  0  0  0  0  0  0  0  0
  -29.2664  -12.0191   20.5402 C   0  0  1  0  0  0  0  0  0  0  0  0
  -28.6630  -19.0712   19.5185 C   0  0  1  0  0  0  0  0  0  0  0  0
  -18.2694  -27.3701   22.8000 C   0  0  0  0  0  0  0  0  0  0  0  0
  -30.0539  -25.1111   21.9366 C   0  0  0  0  0  0  0  0  0  0  0  0
  -29.5170  -18.8143   15.8313 C   0  0  0  0  0  0  0  0  0  0  0  0
  -30.3757  -17.1198   17.4943 C   0  0  0  0  0  0  0  0  0  0  0  0
  -23.3999  -30.6823   25.3647 C   0  0  0  0  0  0  0  0  0  0  0  0
  -21.4511  -29.1478   25.7048 C   0  0  0  0  0  0  0  0  0  0  0  0
  -21.0808  -31.4591   24.8426 C   0  0  0  0  0  0  0  0  0  0  0  0
  -20.0823  -27.3544   19.4550 C   0  0  0  0  0  0  0  0  0  0  0  0
  -29.1245  -25.7462   19.6913 C   0  0  0  0  0  0  0  0  0  1  0  0
  -22.1299  -29.7254   23.3306 C   0  0  1  0  0  0  0  0  0  0  0  0
  -19.2177  -27.8976   21.7345 C   0  0  2  0  0  0  0  0  0  0  0  0
  -29.9131  -24.6914   20.4741 C   0  0  2  0  0  0  0  0  0  0  0  0
  -29.8099  -18.5164   17.2930 C   0  0  0  0  0  0  0  0  0  0  0  0
  -22.0362  -30.2469   24.7924 C   0  0  0  0  0  0  0  0  0  0  0  0
  -28.4808  -13.3632   22.4593 N   0  0  0  0  0  0  0  0  0  0  0  0
  -28.6498  -12.1406   21.9277 N   0  0  0  0  0  0  0  0  0  0  0  0
  -23.9005  -30.3815   21.7312 N   0  0  0  0  0  0  0  0  0  0  0  0
  -29.7914  -14.3419   19.7318 N   0  0  0  0  0  0  0  0  0  0  0  0
  -29.1175  -16.6397   19.8538 N   0  0  0  0  0  0  0  0  0  0  0  0
  -28.3250   -9.8336   22.3552 N   0  0  0  0  0  0  0  0  0  0  0  0
  -26.7573  -11.8175   26.0972 N   0  0  0  0  0  0  0  0  0  0  0  0
  -26.4240  -32.9808   21.3163 N   0  0  0  0  0  0  0  0  0  0  0  0
  -20.8492  -29.3314   22.7535 N   0  0  0  0  0  0  0  0  0  0  0  0
  -28.5212  -18.6278   18.0718 N   0  3  1  0  0  0  0  0  0  0  0  0
  -19.2098  -26.9474   20.5864 N   0  3  0  0  0  0  0  0  0  0  0  0
  -27.1203   -9.7983   25.0726 O   0  0  0  0  0  0  0  0  0  0  0  0
  -25.8235  -31.4890   23.0005 O   0  0  0  0  0  0  0  0  0  0  0  0
  -22.1490  -31.8331   22.2426 O   0  0  0  0  0  0  0  0  0  0  0  0
  -21.4451  -27.1401   22.2842 O   0  0  0  0  0  0  0  0  0  0  0  0
  -30.6198  -15.7549   21.3533 O   0  0  0  0  0  0  0  0  0  0  0  0
  -26.6140  -17.2941   27.1082 O   0  0  0  0  0  0  0  0  0  0  0  0
  -27.8031  -25.8420   20.2064 O   0  0  0  0  0  0  0  0  0  1  0  0
  -21.6941  -17.1085   29.5911 F   0  0  0  0  0  0  0  0  0  0  0  0
  -24.7561  -19.3055   26.7270 F   0  0  0  0  0  0  0  0  0  0  0  0
  1  2  1  0  0  0  0
  1  5  2  0  0  0  0
  2  6  2  0  0  0  0
  3  8  2  0  0  0  0
  3 15  1  0  0  0  0
  4  9  1  0  0  0  0
  4 15  2  0  0  0  0
  5 17  1  0  0  0  0
  6 19  1  0  0  0  0
  7 10  2  0  0  0  0
  7 18  1  0  0  0  0
  8 21  1  0  0  0  0
  9 21  2  0  0  0  0
 10 22  1  0  0  0  0
 11 12  2  0  0  0  0
 11 23  1  0  0  0  0
 12 24  1  0  0  0  0
 13 20  1  0  0  0  0
 13 22  2  0  0  0  0
 14 24  2  0  0  0  0
 14 25  1  0  0  0  0
 15 26  1  0  0  0  0
 16 26  1  0  0  0  0
 16 27  2  0  0  0  0
 16 28  1  0  0  0  0
 17 19  2  0  0  0  0
 17 33  1  0  0  0  0
 18 20  2  0  0  0  0
 18 34  1  0  0  0  0
 19 49  1  0  0  0  0
 20 35  1  0  0  0  0
 21 85  1  0  0  0  0
 22 86  1  0  0  0  0
 23 25  2  0  0  0  0
 23 85  1  0  0  0  0
 24 87  1  0  0  0  0
 25 88  1  0  0  0  0
 26 69  2  0  0  0  0
 27 70  1  0  0  0  0
 27 74  1  0  0  0  0
 28 75  1  0  0  0  0
 28 80  2  0  0  0  0
 29 50  1  0  0  0  0
 29 76  1  0  0  0  0
 29 81  2  0  0  0  0
 30 64  1  0  0  0  0
 30 71  1  0  0  0  0
 30 82  2  0  0  0  0
 31 65  1  0  0  0  0
 31 77  1  0  0  0  0
 31 83  2  0  0  0  0
 32 72  1  0  0  0  0
 32 73  1  0  0  0  0
 32 84  2  0  0  0  0
 33 36  1  0  0  0  0
 34 50  1  0  0  0  0
 35 71  1  0  0  0  0
 36 38  1  0  0  0  0
 37 43  1  0  0  0  0
 37 44  1  0  0  0  0
 38 49  1  0  0  0  0
 39 41  1  0  0  0  0
 39 51  1  0  0  0  0
 40 42  1  0  0  0  0
 40 51  1  0  0  0  0
 41 52  1  0  0  0  0
 42 52  1  0  0  0  0
 43 53  1  0  0  0  0
 44 72  1  0  0  0  0
 45 48  1  0  0  0  0
 45 73  1  0  0  0  0
 46 53  1  0  0  0  0
 46 72  1  0  0  0  0
 47 54  1  0  0  0  0
 47 73  1  0  0  0  0
 48 78  1  0  0  0  0
 49 76  1  0  0  0  0
 50 71  1  0  0  0  0
 51 54  1  0  0  0  0
 52 66  1  0  0  0  0
 53 70  1  0  0  0  0
 54 78  1  0  0  0  0
 55 65  1  0  0  0  0
 56 66  1  0  0  0  0
 57 67  1  0  0  0  0
 58 67  1  0  0  0  0
 59 68  1  0  0  0  0
 60 68  1  0  0  0  0
 61 68  1  0  0  0  0
 62 79  1  0  0  0  0
 63 66  1  0  0  0  0
 63 86  1  0  0  0  0
 64 68  1  0  0  0  0
 64 77  1  0  0  0  0
 65 79  1  0  0  0  0
 67 78  1  0  0  0  0
 69 70  1  0  0  0  0
M  CHG  2  78   1  79   1
M  ISO  4  32 100  63 101  73 100  86 101
M  END
> <Batch ID>
0116

> <Smiles>
CNC(C)C(=O)NC(C(=O)N1Cc2cc([101O:1][101CH2:1]C(C)C3CCC(C4C[100N:0]([100C:0](=O)N5CCCC(n6nc(-c7ccc(Oc8ccc(F)cc8F)cc7)c(C(N)=O)c6N)C5)CCN4C(C)C)CC3)ccc2CC1C(=O)NC1CCCc2ccccc21)C(C)(C)C

> <Shape>
0.245

> <Color>
0.064

> <Negative vol penalty>
0.000

$$$$

  -OEChem-04052320133D

 89 97  0     1  0  0  0  0  0999 V2000
  -19.0038  -18.5140   23.1850 C   0  0  0  0  0  0  0  0  0  0  0  0
  -20.2764  -18.1593   23.6210 C   0  0  0  0  0  0  0  0  0  0  0  0
  -23.2867   -9.7997   19.9123 C   0  0  0  0  0  0  0  0  0  0  0  0
  -23.7387   -9.9392   22.2815 C   0  0  0  0  0  0  0  0  0  0  0  0
  -18.6456  -19.8590   23.1042 C   0  0  0  0  0  0  0  0  0  0  0  0
  -21.1920  -19.1496   23.9754 C   0  0  0  0  0  0  0  0  0  0  0  0
  -25.4220  -18.8416   28.3934 C   0  0  0  0  0  0  0  0  0  0  0  0
  -22.5602   -8.6272   20.1199 C   0  0  0  0  0  0  0  0  0  0  0  0
  -23.0121   -8.7668   22.4892 C   0  0  0  0  0  0  0  0  0  0  0  0
  -26.7865  -18.5567   28.3673 C   0  0  0  0  0  0  0  0  0  0  0  0
  -20.9730   -6.0066   23.6899 C   0  0  0  0  0  0  0  0  0  0  0  0
  -20.0719   -5.9811   24.7543 C   0  0  0  0  0  0  0  0  0  0  0  0
  -27.2725  -20.9190   28.3177 C   0  0  0  0  0  0  0  0  0  0  0  0
  -30.0072  -18.7401   24.7906 C   0  0  0  0  0  0  0  0  0  0  0  0
  -18.8623   -7.8289   23.7746 C   0  0  0  0  0  0  0  0  0  0  0  0
  -30.8676  -17.1238   26.1010 C   0  0  0  0  0  0  0  0  0  0  0  0
  -23.8761  -10.4556   20.9931 C   0  0  0  0  0  0  0  0  0  0  0  0
  -24.1359  -12.9857   20.7954 C   0  0  0  0  0  0  0  0  0  0  0  0
  -19.5540  -20.8660   23.4670 C   0  0  0  0  0  0  0  0  0  0  0  0
  -24.9715  -20.1694   28.3708 C   0  0  0  0  0  0  0  0  0  0  0  0
  -20.8460  -20.5094   23.8981 C   0  0  0  0  0  0  0  0  0  0  0  0
  -25.9018  -21.2181   28.3462 C   0  0  0  0  0  0  0  0  0  0  0  0
  -30.6765  -18.4850   26.0129 C   0  0  0  0  0  0  0  0  0  0  0  0
  -22.4229   -8.1108   21.4083 C   0  0  0  0  0  0  0  0  0  0  0  0
  -27.7120  -19.5955   28.3265 C   0  0  0  0  0  0  0  0  0  0  0  0
  -20.8188   -6.9433   22.6678 C   0  0  0  0  0  0  0  0  0  0  0  0
  -19.0166   -6.8922   24.7966 C   0  0  0  0  0  0  0  0  0  0  0  0
  -19.7635   -7.8544   22.7102 C   0  0  0  0  0  0  0  0  0  0  0  0
  -24.6272  -11.6665   20.7792 C   0  0  0  0  0  0  0  0  0  0  0  0
  -29.8095  -17.5269   24.1690 C   0  0  0  0  0  0  0  0  0  0  0  0
  -25.2374  -13.7654   20.5402 C   0  0  0  0  0  0  0  0  0  0  0  0
  -22.8031  -13.4635   21.0211 C   0  0  0  0  0  0  0  0  0  0  0  0
  -23.2010  -21.9038   26.3806 C   0  0  0  0  0  0  0  0  0  0  0  0
  -23.4600  -24.1383   28.7177 C   0  0  0  0  0  0  0  0  0  0  0  0
  -25.2056  -25.3476   31.3892 C   0  0  0  0  0  0  0  0  0  0  0  0
  -31.1087  -12.9207   21.3566 C   0  0  0  0  0  0  0  0  0  0  0  0
  -19.1372  -22.3077   23.3179 C   0  0  0  0  0  0  0  0  0  0  0  0
  -23.4968  -20.4604   28.4264 C   0  0  0  0  0  0  0  0  0  0  0  0
  -25.4702  -22.6611   28.3410 C   0  0  0  0  0  0  0  0  0  0  0  0
  -20.0397  -23.2834   24.0688 C   0  0  0  0  0  0  0  0  0  0  0  0
  -29.4584  -13.6618   18.2900 C   0  0  0  0  0  0  0  0  0  0  0  0
  -21.5077  -22.9589   23.8112 C   0  0  0  0  0  0  0  0  0  0  0  0
  -27.9888  -13.3535   18.5816 C   0  0  0  0  0  0  0  0  0  0  0  0
  -30.3918  -12.6819   18.9975 C   0  0  0  0  0  0  0  0  0  0  0  0
  -28.7059  -12.2522   20.7430 C   0  0  0  0  0  0  0  0  0  0  0  0
  -21.8587  -21.5538   24.3150 C   0  0  1  0  0  0  0  0  0  0  0  0
  -23.1389  -21.8393   27.8805 C   0  0  1  0  0  0  0  0  0  0  0  0
  -27.7279  -13.2479   20.0963 C   0  0  2  0  0  0  0  0  0  0  0  0
  -33.3890  -19.8948   25.9421 C   0  0  0  0  0  0  0  0  0  0  0  0
  -26.8448  -18.1425   23.5811 C   0  0  0  0  0  0  0  0  0  0  0  0
  -30.7729  -18.6670   21.4286 C   0  0  0  0  0  0  0  0  0  0  0  0
  -25.1921  -27.2095   33.0717 C   0  0  0  0  0  0  0  0  0  0  0  0
  -24.4801  -26.0685   26.5861 C   0  0  0  0  0  0  0  0  0  0  0  0
  -25.3284  -27.5410   28.4248 C   0  0  0  0  0  0  0  0  0  0  0  0
  -22.8855  -27.0758   28.2284 C   0  0  0  0  0  0  0  0  0  0  0  0
  -24.9691  -23.4561   33.6531 C   0  0  0  0  0  0  0  0  0  0  0  0
  -32.1133  -20.5422   26.4676 C   0  0  0  0  0  0  0  0  0  0  0  0
  -27.6175  -16.9544   23.0120 C   0  0  0  0  0  0  0  0  0  0  0  0
  -29.3238  -18.3505   21.7919 C   0  0  0  0  0  0  0  0  0  0  0  0
  -31.6805  -14.6078   24.1621 C   0  0  0  0  0  0  0  0  0  0  0  0
  -30.3405  -15.1322   24.6954 C   0  0  0  0  0  0  0  0  0  0  0  0
  -31.6717  -13.1334   23.7643 C   0  0  0  0  0  0  0  0  0  0  0  0
  -29.8876  -20.2546   27.6278 C   0  0  0  0  0  0  0  0  0  1  0  0
  -31.1062  -19.5230   27.0404 C   0  0  1  0  0  0  0  0  0  0  0  0
  -24.4346  -25.2471   29.0334 C   0  0  1  0  0  0  0  0  0  0  0  0
  -24.7564  -25.7836   32.7722 C   0  0  2  0  0  0  0  0  0  0  0  0
  -29.1635  -17.2181   22.8765 C   0  0  0  0  0  0  0  0  0  0  0  0
  -24.2905  -26.4560   28.0663 C   0  0  0  0  0  0  0  0  0  0  0  0
  -25.9386  -11.6076   20.5330 N   0  0  0  0  0  0  0  0  0  0  0  0
  -30.3363  -16.5515   24.9747 N   0  0  0  0  0  0  0  0  0  0  0  0
  -26.2808  -12.8996   20.3921 N   0  0  0  0  0  0  0  0  0  0  0  0
  -24.0174  -22.8943   28.3899 N   0  0  0  0  0  0  0  0  0  0  0  0
  -30.0932  -12.6299   20.4307 N   0  0  0  0  0  0  0  0  0  0  0  0
  -25.4056  -15.1003   20.4302 N   0  0  0  0  0  0  0  0  0  0  0  0
  -21.7904  -12.5267   21.2686 N   0  0  0  0  0  0  0  0  0  0  0  0
  -22.0193  -21.5580   25.7533 N   0  0  0  0  0  0  0  0  0  0  0  0
  -24.2332  -25.5795   30.4396 N   0  0  0  0  0  0  0  0  0  0  0  0
  -30.7396  -12.8547   22.6946 N   0  0  0  0  0  0  0  0  0  0  0  0
  -25.3360  -24.8869   33.8118 N   0  3  0  0  0  0  0  0  0  0  0  0
  -22.5155  -14.6840   20.9874 O   0  0  0  0  0  0  0  0  0  0  0  0
  -24.2433  -22.2436   25.8330 O   0  0  0  0  0  0  0  0  0  0  0  0
  -22.2486  -24.3657   28.7673 O   0  0  0  0  0  0  0  0  0  0  0  0
  -26.3102  -24.8544   31.1724 O   0  0  0  0  0  0  0  0  0  0  0  0
  -32.2575  -13.2224   21.0160 O   0  0  0  0  0  0  0  0  0  0  0  0
  -29.6584  -16.0077   22.2268 O   0  0  0  0  0  0  0  0  0  0  0  0
  -21.7138   -6.9669   21.6114 O   0  0  0  0  0  0  0  0  0  0  0  0
  -29.0444  -19.3202   28.3003 O   0  0  0  0  0  0  0  0  0  1  0  0
  -18.1504   -6.8666   25.8181 F   0  0  0  0  0  0  0  0  0  0  0  0
  -19.6095   -8.7558   21.7306 F   0  0  0  0  0  0  0  0  0  0  0  0
  1  2  1  0  0  0  0
  1  5  2  0  0  0  0
  2  6  2  0  0  0  0
  3  8  2  0  0  0  0
  3 17  1  0  0  0  0
  4  9  1  0  0  0  0
  4 17  2  0  0  0  0
  5 19  1  0  0  0  0
  6 21  1  0  0  0  0
  7 10  2  0  0  0  0
  7 20  1  0  0  0  0
  8 24  1  0  0  0  0
  9 24  2  0  0  0  0
 10 25  1  0  0  0  0
 11 12  2  0  0  0  0
 11 26  1  0  0  0  0
 12 27  1  0  0  0  0
 13 22  1  0  0  0  0
 13 25  2  0  0  0  0
 14 23  1  0  0  0  0
 14 30  2  0  0  0  0
 15 27  2  0  0  0  0
 15 28  1  0  0  0  0
 16 23  2  0  0  0  0
 16 70  1  0  0  0  0
 17 29  1  0  0  0  0
 18 29  1  0  0  0  0
 18 31  2  0  0  0  0
 18 32  1  0  0  0  0
 19 21  2  0  0  0  0
 19 37  1  0  0  0  0
 20 22  2  0  0  0  0
 20 38  1  0  0  0  0
 21 46  1  0  0  0  0
 22 39  1  0  0  0  0
 23 64  1  0  0  0  0
 24 86  1  0  0  0  0
 25 87  1  0  0  0  0
 26 28  2  0  0  0  0
 26 86  1  0  0  0  0
 27 88  1  0  0  0  0
 28 89  1  0  0  0  0
 29 69  2  0  0  0  0
 30 67  1  0  0  0  0
 30 70  1  0  0  0  0
 31 71  1  0  0  0  0
 31 74  1  0  0  0  0
 32 75  1  0  0  0  0
 32 80  2  0  0  0  0
 33 47  1  0  0  0  0
 33 76  1  0  0  0  0
 33 81  2  0  0  0  0
 34 65  1  0  0  0  0
 34 72  1  0  0  0  0
 34 82  2  0  0  0  0
 35 66  1  0  0  0  0
 35 77  1  0  0  0  0
 35 83  2  0  0  0  0
 36 73  1  0  0  0  0
 36 78  1  0  0  0  0
 36 84  2  0  0  0  0
 37 40  1  0  0  0  0
 38 47  1  0  0  0  0
 39 72  1  0  0  0  0
 40 42  1  0  0  0  0
 41 43  1  0  0  0  0
 41 44  1  0  0  0  0
 42 46  1  0  0  0  0
 43 48  1  0  0  0  0
 44 73  1  0  0  0  0
 45 48  1  0  0  0  0
 45 73  1  0  0  0  0
 46 76  1  0  0  0  0
 47 72  1  0  0  0  0
 48 71  1  0  0  0  0
 49 57  1  0  0  0  0
 50 58  1  0  0  0  0
 51 59  1  0  0  0  0
 52 66  1  0  0  0  0
 53 68  1  0  0  0  0
 54 68  1  0  0  0  0
 55 68  1  0  0  0  0
 56 79  1  0  0  0  0
 57 64  1  0  0  0  0
 58 67  1  0  0  0  0
 59 67  1  0  0  0  0
 60 61  1  0  0  0  0
 60 62  1  0  0  0  0
 61 70  1  0  0  0  0
 62 78  1  0  0  0  0
 63 64  1  0  0  0  0
 63 87  1  0  0  0  0
 65 68  1  0  0  0  0
 65 77  1  0  0  0  0
 66 79  1  0  0  0  0
 67 85  1  0  0  0  0
 69 71  1  0  0  0  0
M  CHG  1  79   1
M  ISO  4  36 100  63 101  78 100  87 101
M  END
> <Batch ID>
0116

> <Smiles>
CCC(c1cc(C(O)(CC)CC)n(CCC[100NH:0][100C:0](=O)N2CCCC(n3nc(-c4ccc(Oc5ccc(F)cc5F)cc4)c(C(N)=O)c3N)C2)c1)[101CH2:1][101O:1]c1ccc2c(c1)CN(C(=O)C(NC(=O)C(C)NC)C(C)(C)C)C(C(=O)NC1CCCc3ccccc31)C2

> <Shape>
0.146

> <Color>
0.164

> <Negative vol penalty>
0.000

$$$$

  -OEChem-04052320133D

 84 93  0     1  0  0  0  0  0999 V2000
  -16.4249  -29.5724   22.7626 C   0  0  0  0  0  0  0  0  0  0  0  0
  -17.3441  -30.5278   23.1842 C   0  0  0  0  0  0  0  0  0  0  0  0
  -28.0581  -18.2245   18.7555 C   0  0  0  0  0  0  0  0  0  0  0  0
  -30.1642  -17.3986   19.6037 C   0  0  0  0  0  0  0  0  0  0  0  0
  -16.8365  -28.2575   22.5487 C   0  0  0  0  0  0  0  0  0  0  0  0
  -18.6752  -30.1687   23.3930 C   0  0  0  0  0  0  0  0  0  0  0  0
  -25.2014  -33.1292   20.2832 C   0  0  0  0  0  0  0  0  0  0  0  0
  -27.7541  -16.9522   18.2715 C   0  0  0  0  0  0  0  0  0  0  0  0
  -29.8601  -16.1262   19.1197 C   0  0  0  0  0  0  0  0  0  0  0  0
  -26.4149  -33.4638   19.6818 C   0  0  0  0  0  0  0  0  0  0  0  0
  -27.9452  -13.5014   20.0492 C   0  0  0  0  0  0  0  0  0  0  0  0
  -28.1816  -12.4155   20.8920 C   0  0  0  0  0  0  0  0  0  0  0  0
  -27.2626  -31.2444   20.1328 C   0  0  0  0  0  0  0  0  0  0  0  0
  -29.7156  -11.4910   19.2705 C   0  0  0  0  0  0  0  0  0  0  0  0
  -29.2632  -18.4478   19.4216 C   0  0  0  0  0  0  0  0  0  0  0  0
  -29.2714  -20.2843   21.1921 C   0  0  0  0  0  0  0  0  0  0  0  0
  -18.1753  -27.8843   22.7457 C   0  0  0  0  0  0  0  0  0  0  0  0
  -25.0082  -31.8445   20.7986 C   0  0  0  0  0  0  0  0  0  0  0  0
  -19.1048  -28.8473   23.1827 C   0  0  0  0  0  0  0  0  0  0  0  0
  -26.0448  -30.8996   20.7252 C   0  0  0  0  0  0  0  0  0  0  0  0
  -28.6551  -15.9030   18.4536 C   0  0  0  0  0  0  0  0  0  0  0  0
  -27.4430  -32.5238   19.6070 C   0  0  0  0  0  0  0  0  0  0  0  0
  -28.5938  -13.5821   18.8169 C   0  0  0  0  0  0  0  0  0  0  0  0
  -29.0669  -11.4103   20.5027 C   0  0  0  0  0  0  0  0  0  0  0  0
  -29.4791  -12.5769   18.4276 C   0  0  0  0  0  0  0  0  0  0  0  0
  -29.5781  -19.7620   19.9213 C   0  0  0  0  0  0  0  0  0  0  0  0
  -29.7809  -21.5596   21.1713 C   0  0  0  0  0  0  0  0  0  0  0  0
  -28.5871  -19.6714   22.2930 C   0  0  0  0  0  0  0  0  0  0  0  0
  -22.6892  -29.4457   22.5143 C   0  0  0  0  0  0  0  0  0  0  0  0
  -24.1692  -27.8581   20.3465 C   0  0  0  0  0  0  0  0  0  0  0  0
  -25.6997  -26.5740   17.5814 C   0  0  0  0  0  0  0  0  0  0  0  0
  -30.2787  -25.9103   17.5050 C   0  0  0  0  0  0  0  0  0  0  0  0
  -18.5631  -26.4404   22.5470 C   0  0  0  0  0  0  0  0  0  0  0  0
  -23.7396  -31.4593   21.5098 C   0  0  0  0  0  0  0  0  0  0  0  0
  -25.8044  -29.5407   21.3239 C   0  0  0  0  0  0  0  0  0  0  0  0
  -20.0698  -26.2249   22.4302 C   0  0  0  0  0  0  0  0  0  0  0  0
  -33.1880  -23.9257   18.5233 C   0  0  0  0  0  0  0  0  0  0  0  0
  -20.8053  -26.9933   23.5235 C   0  0  0  0  0  0  0  0  0  0  0  0
  -32.5116  -22.6673   19.0566 C   0  0  0  0  0  0  0  0  0  0  0  0
  -30.4005  -27.7801   14.7178 C   0  0  0  0  0  0  0  0  0  0  0  0
  -30.4944  -29.3550   18.3235 C   0  0  0  0  0  0  0  0  0  0  0  0
  -30.7198  -30.5236   16.1033 C   0  0  0  0  0  0  0  0  0  0  0  0
  -32.4265  -24.5423   17.3493 C   0  0  0  0  0  0  0  0  0  0  0  0
  -31.2731  -26.6135   15.1911 C   0  0  0  0  0  0  0  0  0  0  0  0
  -30.3165  -23.5344   18.1773 C   0  0  0  0  0  0  0  0  0  0  0  0
  -31.2425  -30.4989   18.9942 C   0  0  0  0  0  0  0  0  0  0  0  0
  -31.4669  -31.6614   16.7855 C   0  0  0  0  0  0  0  0  0  0  0  0
  -20.5626  -28.5020   23.3963 C   0  0  1  0  0  0  0  0  0  0  0  0
  -23.3389  -29.9916   21.2768 C   0  0  1  0  0  0  0  0  0  0  0  0
  -30.8970  -29.1977   16.8525 C   0  0  0  0  0  0  0  0  0  0  0  0
  -31.0413  -22.9507   19.3981 C   0  0  1  0  0  0  0  0  0  0  0  0
  -30.0957  -28.0942   16.1905 C   0  0  2  0  0  0  0  0  0  0  0  0
  -25.9216  -24.4527   16.2592 C   0  0  0  0  0  0  0  0  0  0  0  0
  -29.4782  -35.0523   18.5447 C   0  0  0  0  0  0  0  0  0  0  0  0
  -26.0360  -26.7290   22.4782 C   0  0  0  0  0  0  0  0  0  0  0  0
  -26.9361  -25.1527   20.7539 C   0  0  0  0  0  0  0  0  0  0  0  0
  -24.5316  -25.0416   21.4086 C   0  0  0  0  0  0  0  0  0  0  0  0
  -24.5599  -27.8298   15.1559 C   0  0  0  0  0  0  0  0  0  0  0  0
  -30.7290  -33.4534   20.0385 C   0  0  0  0  0  0  0  0  0  0  0  0
  -31.6271  -32.9604   18.9072 C   0  0  0  0  0  0  0  0  0  0  0  0
  -25.3452  -26.9792   20.0030 C   0  0  1  0  0  0  0  0  0  0  0  0
  -25.1615  -25.7603   16.4184 C   0  0  2  0  0  0  0  0  0  0  0  0
  -29.3500  -33.9456   19.5840 C   0  0  2  0  0  0  0  0  0  1  0  0
  -25.7129  -26.0038   21.1566 C   0  0  0  0  0  0  0  0  0  0  0  0
  -30.2317  -20.6343   19.1494 N   0  0  0  0  0  0  0  0  0  0  0  0
  -30.3397  -21.7176   19.9373 N   0  0  0  0  0  0  0  0  0  0  0  0
  -24.4519  -29.0732   20.9821 N   0  0  0  0  0  0  0  0  0  0  0  0
  -31.0020  -24.7219   17.6537 N   0  0  0  0  0  0  0  0  0  0  0  0
  -30.6465  -26.7717   16.4954 N   0  0  0  0  0  0  0  0  0  0  0  0
  -29.8008  -22.5501   22.0884 N   0  0  0  0  0  0  0  0  0  0  0  0
  -28.1293  -18.3549   22.1457 N   0  0  0  0  0  0  0  0  0  0  0  0
  -21.3753  -29.0569   22.3351 N   0  0  0  0  0  0  0  0  0  0  0  0
  -25.0081  -26.3188   18.7466 N   0  0  0  0  0  0  0  0  0  0  0  0
  -31.0102  -31.7736   18.2198 N   0  3  0  0  0  0  0  0  0  0  0  0
  -25.2804  -26.5306   15.1482 N   0  3  0  0  0  0  0  0  0  0  0  0
  -28.3732  -20.2790   23.3693 O   0  0  0  0  0  0  0  0  0  0  0  0
  -23.3320  -29.3802   23.5555 O   0  0  0  0  0  0  0  0  0  0  0  0
  -23.0293  -27.4775   20.0651 O   0  0  0  0  0  0  0  0  0  0  0  0
  -26.6420  -27.3550   17.4683 O   0  0  0  0  0  0  0  0  0  0  0  0
  -29.3132  -26.1832   18.2304 O   0  0  0  0  0  0  0  0  0  0  0  0
  -28.3586  -14.6613   17.9816 O   0  0  0  0  0  0  0  0  0  0  0  0
  -28.6307  -32.8576   19.0109 O   0  0  0  0  0  0  0  0  0  1  0  0
  -29.2950  -10.3683   21.3129 F   0  0  0  0  0  0  0  0  0  0  0  0
  -30.1061  -12.6496   17.2455 F   0  0  0  0  0  0  0  0  0  0  0  0
  1  2  1  0  0  0  0
  1  5  2  0  0  0  0
  2  6  2  0  0  0  0
  3  8  2  0  0  0  0
  3 15  1  0  0  0  0
  4  9  1  0  0  0  0
  4 15  2  0  0  0  0
  5 17  1  0  0  0  0
  6 19  1  0  0  0  0
  7 10  2  0  0  0  0
  7 18  1  0  0  0  0
  8 21  1  0  0  0  0
  9 21  2  0  0  0  0
 10 22  1  0  0  0  0
 11 12  2  0  0  0  0
 11 23  1  0  0  0  0
 12 24  1  0  0  0  0
 13 20  1  0  0  0  0
 13 22  2  0  0  0  0
 14 24  2  0  0  0  0
 14 25  1  0  0  0  0
 15 26  1  0  0  0  0
 16 26  1  0  0  0  0
 16 27  2  0  0  0  0
 16 28  1  0  0  0  0
 17 19  2  0  0  0  0
 17 33  1  0  0  0  0
 18 20  2  0  0  0  0
 18 34  1  0  0  0  0
 19 48  1  0  0  0  0
 20 35  1  0  0  0  0
 21 81  1  0  0  0  0
 22 82  1  0  0  0  0
 23 25  2  0  0  0  0
 23 81  1  0  0  0  0
 24 83  1  0  0  0  0
 25 84  1  0  0  0  0
 26 65  2  0  0  0  0
 27 66  1  0  0  0  0
 27 70  1  0  0  0  0
 28 71  1  0  0  0  0
 28 76  2  0  0  0  0
 29 49  1  0  0  0  0
 29 72  1  0  0  0  0
 29 77  2  0  0  0  0
 30 61  1  0  0  0  0
 30 67  1  0  0  0  0
 30 78  2  0  0  0  0
 31 62  1  0  0  0  0
 31 73  1  0  0  0  0
 31 79  2  0  0  0  0
 32 68  1  0  0  0  0
 32 69  1  0  0  0  0
 32 80  2  0  0  0  0
 33 36  1  0  0  0  0
 34 49  1  0  0  0  0
 35 67  1  0  0  0  0
 36 38  1  0  0  0  0
 37 39  1  0  0  0  0
 37 43  1  0  0  0  0
 38 48  1  0  0  0  0
 39 51  1  0  0  0  0
 40 44  1  0  0  0  0
 40 52  1  0  0  0  0
 41 46  1  0  0  0  0
 41 50  1  0  0  0  0
 42 47  1  0  0  0  0
 42 50  1  0  0  0  0
 43 68  1  0  0  0  0
 44 69  1  0  0  0  0
 45 51  1  0  0  0  0
 45 68  1  0  0  0  0
 46 74  1  0  0  0  0
 47 74  1  0  0  0  0
 48 72  1  0  0  0  0
 49 67  1  0  0  0  0
 50 52  1  0  0  0  0
 51 66  1  0  0  0  0
 52 69  1  0  0  0  0
 53 62  1  0  0  0  0
 54 63  1  0  0  0  0
 55 64  1  0  0  0  0
 56 64  1  0  0  0  0
 57 64  1  0  0  0  0
 58 75  1  0  0  0  0
 59 60  1  0  0  0  0
 59 63  1  0  0  0  0
 60 74  1  0  0  0  0
 61 64  1  0  0  0  0
 61 73  1  0  0  0  0
 62 75  1  0  0  0  0
 63 82  1  0  0  0  0
 65 66  1  0  0  0  0
M  CHG  2  74   1  75   1
M  ISO  4  32 100  63 101  69 100  82 101
M  END
> <Batch ID>
0116

> <Smiles>
CNC(C)C(=O)NC(C(=O)N1Cc2cc([101O:1][101CH:1](C)CCN3CCC(C4CC[100N:0]4[100C:0](=O)N4CCCC(n5nc(-c6ccc(Oc7ccc(F)cc7F)cc6)c(C(N)=O)c5N)C4)CC3)ccc2CC1C(=O)NC1CCCc2ccccc21)C(C)(C)C

> <Shape>
0.261

> <Color>
0.102

> <Negative vol penalty>
0.000

$$$$

  -OEChem-04052320133D

 90 99  0     1  0  0  0  0  0999 V2000
  -17.6644  -22.9287   24.7076 C   0  0  0  0  0  0  0  0  0  0  0  0
  -17.9175  -23.0816   23.3481 C   0  0  0  0  0  0  0  0  0  0  0  0
  -26.1106  -13.4712   19.4661 C   0  0  0  0  0  0  0  0  0  0  0  0
  -26.3355  -12.6456   21.7255 C   0  0  0  0  0  0  0  0  0  0  0  0
  -17.9497  -23.9698   25.5900 C   0  0  0  0  0  0  0  0  0  0  0  0
  -18.4550  -24.2762   22.8702 C   0  0  0  0  0  0  0  0  0  0  0  0
  -24.7105  -24.3613   19.2990 C   0  0  0  0  0  0  0  0  0  0  0  0
  -30.9283  -23.2847   21.0432 C   0  0  0  0  0  0  0  0  0  0  0  0
  -29.1710  -22.6962   19.4931 C   0  0  0  0  0  0  0  0  0  0  0  0
  -30.5928  -22.1896   21.8392 C   0  0  0  0  0  0  0  0  0  0  0  0
  -28.8356  -21.6010   20.2892 C   0  0  0  0  0  0  0  0  0  0  0  0
  -24.8748  -12.8338   19.3561 C   0  0  0  0  0  0  0  0  0  0  0  0
  -25.0996  -12.0082   21.6156 C   0  0  0  0  0  0  0  0  0  0  0  0
  -25.7951  -24.4341   18.4247 C   0  0  0  0  0  0  0  0  0  0  0  0
  -23.8688   -9.1819   20.2271 C   0  0  0  0  0  0  0  0  0  0  0  0
  -23.7731   -7.8694   20.6896 C   0  0  0  0  0  0  0  0  0  0  0  0
  -25.5846  -26.8419   18.3471 C   0  0  0  0  0  0  0  0  0  0  0  0
  -22.0748   -8.5495   22.2677 C   0  0  0  0  0  0  0  0  0  0  0  0
  -26.8410  -13.3770   20.6507 C   0  0  0  0  0  0  0  0  0  0  0  0
  -29.2604  -13.8162   19.9718 C   0  0  0  0  0  0  0  0  0  0  0  0
  -18.5000  -25.1742   25.1239 C   0  0  0  0  0  0  0  0  0  0  0  0
  -24.0677  -25.5312   19.7132 C   0  0  0  0  0  0  0  0  0  0  0  0
  -18.7467  -25.3349   23.7470 C   0  0  0  0  0  0  0  0  0  0  0  0
  -24.5055  -26.7762   19.2325 C   0  0  0  0  0  0  0  0  0  0  0  0
  -30.2174  -23.5380   19.8701 C   0  0  0  0  0  0  0  0  0  0  0  0
  -29.5465  -21.3477   21.4623 C   0  0  0  0  0  0  0  0  0  0  0  0
  -24.3692  -12.1024   20.4309 C   0  0  0  0  0  0  0  0  0  0  0  0
  -26.2309  -25.6714   17.9498 C   0  0  0  0  0  0  0  0  0  0  0  0
  -23.0676  -10.1782   20.7849 C   0  0  0  0  0  0  0  0  0  0  0  0
  -22.8761   -7.5532   21.7099 C   0  0  0  0  0  0  0  0  0  0  0  0
  -22.1705   -9.8619   21.8052 C   0  0  0  0  0  0  0  0  0  0  0  0
  -28.1179  -14.0347   20.7647 C   0  0  0  0  0  0  0  0  0  0  0  0
  -30.2000  -14.6810   20.4777 C   0  0  0  0  0  0  0  0  0  0  0  0
  -29.4550  -12.9125   18.8759 C   0  0  0  0  0  0  0  0  0  0  0  0
  -21.3531  -27.0768   21.7912 C   0  0  0  0  0  0  0  0  0  0  0  0
  -31.8899  -27.3353   17.5497 C   0  0  0  0  0  0  0  0  0  0  0  0
  -23.8199  -28.8798   22.0640 C   0  0  0  0  0  0  0  0  0  0  0  0
  -26.8694  -30.3629   22.4357 C   0  0  0  0  0  0  0  0  0  0  0  0
  -29.8095  -19.8416   23.4645 C   0  0  0  0  0  0  0  0  0  0  0  0
  -18.7476  -26.2887   26.1095 C   0  0  0  0  0  0  0  0  0  0  0  0
  -22.8567  -25.4957   20.6054 C   0  0  0  0  0  0  0  0  0  0  0  0
  -23.7619  -28.0056   19.6780 C   0  0  0  0  0  0  0  0  0  0  0  0
  -19.6649  -27.3843   25.5723 C   0  0  0  0  0  0  0  0  0  0  0  0
  -31.4640  -16.8783   24.5408 C   0  0  0  0  0  0  0  0  0  0  0  0
  -30.2032  -27.6323   20.2270 C   0  0  0  0  0  0  0  0  0  0  0  0
  -19.2442  -27.7895   24.1632 C   0  0  0  0  0  0  0  0  0  0  0  0
  -30.2302  -28.5206   18.9895 C   0  0  0  0  0  0  0  0  0  0  0  0
  -30.9022  -15.7940   23.6184 C   0  0  0  0  0  0  0  0  0  0  0  0
  -30.4025  -17.9118   24.9133 C   0  0  0  0  0  0  0  0  0  0  0  0
  -29.1392  -17.4349   22.8528 C   0  0  0  0  0  0  0  0  0  0  0  0
  -29.1887  -26.5110   20.0923 C   0  0  0  0  0  0  0  0  0  0  0  0
  -19.3523  -26.6065   23.1935 C   0  0  1  0  0  0  0  0  0  0  0  0
  -22.7864  -26.6890   21.5751 C   0  0  1  0  0  0  0  0  0  0  0  0
  -30.4457  -27.7261   17.7005 C   0  0  2  0  0  0  0  0  0  0  0  0
  -30.1879  -16.4069   22.3979 C   0  0  2  0  0  0  0  0  0  0  0  0
  -29.5170  -26.5084   17.5577 C   0  0  2  0  0  0  0  0  0  0  0  0
  -27.9977  -32.2845   23.5898 C   0  0  0  0  0  0  0  0  0  0  0  0
  -28.0750  -27.6001   15.7965 C   0  0  0  0  0  0  0  0  0  0  0  0
  -22.6105  -30.8058   20.0313 C   0  0  0  0  0  0  0  0  0  0  0  0
  -24.4311  -32.4300   20.5930 C   0  0  0  0  0  0  0  0  0  0  0  0
  -22.8070  -31.7231   22.3495 C   0  0  0  0  0  0  0  0  0  0  0  0
  -28.6632  -28.5551   23.9435 C   0  0  0  0  0  0  0  0  0  0  0  0
  -33.4083  -26.2836   16.0758 C   0  0  0  0  0  0  0  0  0  0  0  0
  -30.5783  -24.7160   19.0139 C   0  0  0  0  0  0  0  0  0  0  0  0
  -24.5656  -30.0884   21.5575 C   0  0  1  0  0  0  0  0  0  0  0  0
  -27.6275  -30.8117   23.6720 C   0  0  2  0  0  0  0  0  0  0  0  0
  -28.0964  -26.9139   17.1538 C   0  0  1  0  0  0  0  0  0  1  0  0
  -23.6099  -31.2356   21.1238 C   0  0  0  0  0  0  0  0  0  0  0  0
  -28.3118  -14.9652   21.7031 N   0  0  0  0  0  0  0  0  0  0  0  0
  -29.5871  -15.3390   21.5032 N   0  0  0  0  0  0  0  0  0  0  0  0
  -23.4582  -27.9161   21.1148 N   0  0  0  0  0  0  0  0  0  0  0  0
  -29.7718  -18.4522   23.7071 N   0  0  0  0  0  0  0  0  0  0  0  0
  -31.4824  -14.9350   20.1411 N   0  0  0  0  0  0  0  0  0  0  0  0
  -29.9241  -11.6206   19.1504 N   0  0  0  0  0  0  0  0  0  0  0  0
  -29.2057  -20.2350   22.2706 N   0  0  0  0  0  0  0  0  0  0  0  0
  -20.7320  -26.3876   22.8152 N   0  0  0  0  0  0  0  0  0  0  0  0
  -25.5051  -30.4592   22.6102 N   0  0  0  0  0  0  0  0  0  0  0  0
  -29.4433  -25.6956   18.8475 N   0  3  1  0  0  0  0  0  0  0  0  0
  -28.8806  -30.0201   23.8271 N   0  3  0  0  0  0  0  0  0  0  0  0
  -29.2355  -13.2461   17.6867 O   0  0  0  0  0  0  0  0  0  0  0  0
  -20.8471  -27.9391   21.0825 O   0  0  0  0  0  0  0  0  0  0  0  0
  -32.7510  -27.5566   18.3904 O   0  0  0  0  0  0  0  0  0  0  0  0
  -23.5590  -28.7926   23.2671 O   0  0  0  0  0  0  0  0  0  0  0  0
  -27.4315  -29.9698   21.4158 O   0  0  0  0  0  0  0  0  0  0  0  0
  -30.3623  -20.6218   24.2440 O   0  0  0  0  0  0  0  0  0  0  0  0
  -23.1632  -11.4805   20.3241 O   0  0  0  0  0  0  0  0  0  0  0  0
  -27.2932  -25.7356   17.1000 O   0  0  0  0  0  0  0  0  0  1  0  0
  -32.0705  -26.7111   16.3511 O   0  0  0  0  0  0  0  0  0  0  0  0
  -22.7831   -6.2926   22.1529 F   0  0  0  0  0  0  0  0  0  0  0  0
  -21.3973  -10.8146   22.3441 F   0  0  0  0  0  0  0  0  0  0  0  0
  1  2  1  0  0  0  0
  1  5  2  0  0  0  0
  2  6  2  0  0  0  0
  3 12  2  0  0  0  0
  3 19  1  0  0  0  0
  4 13  1  0  0  0  0
  4 19  2  0  0  0  0
  5 21  1  0  0  0  0
  6 23  1  0  0  0  0
  7 14  2  0  0  0  0
  7 22  1  0  0  0  0
  8 10  2  0  0  0  0
  8 25  1  0  0  0  0
  9 11  1  0  0  0  0
  9 25  2  0  0  0  0
 10 26  1  0  0  0  0
 11 26  2  0  0  0  0
 12 27  1  0  0  0  0
 13 27  2  0  0  0  0
 14 28  1  0  0  0  0
 15 16  2  0  0  0  0
 15 29  1  0  0  0  0
 16 30  1  0  0  0  0
 17 24  1  0  0  0  0
 17 28  2  0  0  0  0
 18 30  2  0  0  0  0
 18 31  1  0  0  0  0
 19 32  1  0  0  0  0
 20 32  1  0  0  0  0
 20 33  2  0  0  0  0
 20 34  1  0  0  0  0
 21 23  2  0  0  0  0
 21 40  1  0  0  0  0
 22 24  2  0  0  0  0
 22 41  1  0  0  0  0
 23 52  1  0  0  0  0
 24 42  1  0  0  0  0
 25 64  1  0  0  0  0
 26 75  1  0  0  0  0
 27 86  1  0  0  0  0
 28 87  1  0  0  0  0
 29 31  2  0  0  0  0
 29 86  1  0  0  0  0
 30 89  1  0  0  0  0
 31 90  1  0  0  0  0
 32 69  2  0  0  0  0
 33 70  1  0  0  0  0
 33 73  1  0  0  0  0
 34 74  1  0  0  0  0
 34 80  2  0  0  0  0
 35 53  1  0  0  0  0
 35 76  1  0  0  0  0
 35 81  2  0  0  0  0
 36 54  1  0  0  0  0
 36 82  2  0  0  0  0
 36 88  1  0  0  0  0
 37 65  1  0  0  0  0
 37 71  1  0  0  0  0
 37 83  2  0  0  0  0
 38 66  1  0  0  0  0
 38 77  1  0  0  0  0
 38 84  2  0  0  0  0
 39 72  1  0  0  0  0
 39 75  1  0  0  0  0
 39 85  2  0  0  0  0
 40 43  1  0  0  0  0
 41 53  1  0  0  0  0
 42 71  1  0  0  0  0
 43 46  1  0  0  0  0
 44 48  1  0  0  0  0
 44 49  1  0  0  0  0
 45 47  1  0  0  0  0
 45 51  1  0  0  0  0
 46 52  1  0  0  0  0
 47 54  1  0  0  0  0
 48 55  1  0  0  0  0
 49 72  1  0  0  0  0
 50 55  1  0  0  0  0
 50 72  1  0  0  0  0
 51 78  1  0  0  0  0
 52 76  1  0  0  0  0
 53 71  1  0  0  0  0
 54 56  1  0  0  0  0
 55 70  1  0  0  0  0
 56 67  1  0  0  0  0
 56 78  1  0  0  0  0
 57 66  1  0  0  0  0
 58 67  1  0  0  0  0
 59 68  1  0  0  0  0
 60 68  1  0  0  0  0
 61 68  1  0  0  0  0
 62 79  1  0  0  0  0
 63 88  1  0  0  0  0
 64 78  1  0  0  0  0
 65 68  1  0  0  0  0
 65 77  1  0  0  0  0
 66 79  1  0  0  0  0
 67 87  1  0  0  0  0
 69 70  1  0  0  0  0
M  CHG  2  78   1  79   1
M  ISO  4  39 100  67 101  75 100  87 101
M  END
> <Batch ID>
0116

> <Smiles>
CNC(C)C(=O)NC(C(=O)N1Cc2cc([101O:1][101CH:1](C)C3C(C(=O)OC)CCCN3Cc3ccc([100NH:0][100C:0](=O)N4CCCC(n5nc(-c6ccc(Oc7ccc(F)cc7F)cc6)c(C(N)=O)c5N)C4)cc3)ccc2CC1C(=O)NC1CCCc2ccccc21)C(C)(C)C

> <Shape>
0.302

> <Color>
0.065

> <Negative vol penalty>
0.000

$$$$

  -OEChem-04052320133D

 88 96  0     1  0  0  0  0  0999 V2000
  -25.7462  -21.8023   16.6086 C   0  0  0  0  0  0  0  0  0  0  0  0
  -26.7213  -20.8903   16.9992 C   0  0  0  0  0  0  0  0  0  0  0  0
  -23.9073  -28.9042   23.3041 C   0  0  0  0  0  0  0  0  0  0  0  0
  -24.2561  -30.1217   21.2466 C   0  0  0  0  0  0  0  0  0  0  0  0
  -24.5611  -21.9083   17.3355 C   0  0  0  0  0  0  0  0  0  0  0  0
  -26.5124  -20.0843   18.1178 C   0  0  0  0  0  0  0  0  0  0  0  0
  -28.4083  -14.3142   18.9038 C   0  0  0  0  0  0  0  0  0  0  0  0
  -23.6547  -30.1031   23.9707 C   0  0  0  0  0  0  0  0  0  0  0  0
  -24.0034  -31.3206   21.9133 C   0  0  0  0  0  0  0  0  0  0  0  0
  -29.5038  -13.7697   19.5724 C   0  0  0  0  0  0  0  0  0  0  0  0
  -25.6682  -33.4277   23.9675 C   0  0  0  0  0  0  0  0  0  0  0  0
  -26.5275  -34.4988   23.7229 C   0  0  0  0  0  0  0  0  0  0  0  0
  -28.1221  -13.3877   21.5126 C   0  0  0  0  0  0  0  0  0  0  0  0
  -24.6665  -35.8053   22.9062 C   0  0  0  0  0  0  0  0  0  0  0  0
  -24.2081  -28.9135   21.9420 C   0  0  0  0  0  0  0  0  0  0  0  0
  -23.5325  -26.8489   20.6046 C   0  0  0  0  0  0  0  0  0  0  0  0
  -24.3335  -21.0964   18.4579 C   0  0  0  0  0  0  0  0  0  0  0  0
  -27.1620  -14.4097   19.5394 C   0  0  0  0  0  0  0  0  0  0  0  0
  -25.3238  -20.1804   18.8612 C   0  0  0  0  0  0  0  0  0  0  0  0
  -27.0117  -13.9315   20.8489 C   0  0  0  0  0  0  0  0  0  0  0  0
  -23.7027  -31.3113   23.2754 C   0  0  0  0  0  0  0  0  0  0  0  0
  -29.3615  -13.3090   20.8780 C   0  0  0  0  0  0  0  0  0  0  0  0
  -24.3080  -33.5453   23.6814 C   0  0  0  0  0  0  0  0  0  0  0  0
  -26.0267  -35.6876   23.1923 C   0  0  0  0  0  0  0  0  0  0  0  0
  -23.8072  -34.7342   23.1508 C   0  0  0  0  0  0  0  0  0  0  0  0
  -24.4697  -27.6755   21.2529 C   0  0  0  0  0  0  0  0  0  0  0  0
  -24.2776  -25.8053   20.1124 C   0  0  0  0  0  0  0  0  0  0  0  0
  -31.1380  -19.5484   19.4682 C   0  0  0  0  0  0  0  0  0  0  0  0
  -29.6503  -20.0601   21.2665 C   0  0  0  0  0  0  0  0  0  0  0  0
  -30.7354  -20.6081   18.7524 C   0  0  0  0  0  0  0  0  0  0  0  0
  -30.5689  -19.2238   20.7584 C   0  0  0  0  0  0  0  0  0  0  0  0
  -29.6524  -21.4907   19.3013 C   0  0  0  0  0  0  0  0  0  0  0  0
  -22.1151  -27.0100   20.4603 C   0  0  0  0  0  0  0  0  0  0  0  0
  -25.2414  -16.8051   20.3624 C   0  0  0  0  0  0  0  0  0  0  0  0
  -23.2299  -14.3957   21.1813 C   0  0  0  0  0  0  0  0  0  0  0  0
  -22.8414  -11.1330   22.1038 C   0  0  0  0  0  0  0  0  0  0  0  0
  -28.1935  -21.9565   21.2240 C   0  0  0  0  0  0  0  0  0  0  0  0
  -23.0571  -21.2802   19.2399 C   0  0  0  0  0  0  0  0  0  0  0  0
  -25.9836  -14.9752   18.7950 C   0  0  0  0  0  0  0  0  0  0  0  0
  -25.6901  -13.9927   21.5687 C   0  0  0  0  0  0  0  0  0  0  0  0
  -22.7547  -20.1261   20.1922 C   0  0  0  0  0  0  0  0  0  0  0  0
  -29.2718  -25.2034   19.7270 C   0  0  0  0  0  0  0  0  0  0  0  0
  -24.0017  -19.7475   20.9850 C   0  0  0  0  0  0  0  0  0  0  0  0
  -28.0500  -26.0758   20.0077 C   0  0  0  0  0  0  0  0  0  0  0  0
  -29.4440  -24.1269   20.7926 C   0  0  0  0  0  0  0  0  0  0  0  0
  -27.0092  -24.1322   21.2584 C   0  0  0  0  0  0  0  0  0  0  0  0
  -25.1236  -19.2713   20.0544 C   0  0  1  0  0  0  0  0  0  0  0  0
  -24.8864  -15.4945   19.7191 C   0  0  1  0  0  0  0  0  0  0  0  0
  -26.7899  -25.2131   20.1871 C   0  0  1  0  0  0  0  0  0  0  0  0
  -32.7998  -21.2553   17.5366 C   0  0  0  0  0  0  0  0  0  0  0  0
  -31.0556  -19.8431   16.4046 C   0  0  0  0  0  0  0  0  0  0  0  0
  -21.0808   -9.4625   22.7417 C   0  0  0  0  0  0  0  0  0  0  0  0
  -33.2119  -18.0044   23.6359 C   0  0  0  0  0  0  0  0  0  0  0  0
  -32.6646  -12.8383   22.4153 C   0  0  0  0  0  0  0  0  0  0  0  0
  -23.0081  -15.6855   23.9376 C   0  0  0  0  0  0  0  0  0  0  0  0
  -22.0493  -13.5355   24.7898 C   0  0  0  0  0  0  0  0  0  0  0  0
  -20.8517  -14.8168   23.0159 C   0  0  0  0  0  0  0  0  0  0  0  0
  -23.5105   -9.3802   19.8150 C   0  0  0  0  0  0  0  0  0  0  0  0
  -32.3393  -15.8462   22.6797 C   0  0  0  0  0  0  0  0  0  0  0  0
  -31.1669  -14.8703   22.5149 C   0  0  0  0  0  0  0  0  0  0  0  0
  -30.8213  -17.9364   22.8092 C   0  0  0  0  0  0  0  0  0  0  0  0
  -31.3073  -20.9601   17.4151 C   0  0  0  0  0  0  0  0  0  0  0  0
  -22.9828  -13.5879   22.4325 C   0  0  1  0  0  0  0  0  0  0  0  0
  -21.9020  -10.0501   21.6046 C   0  0  2  0  0  0  0  0  0  0  0  0
  -31.9653  -17.1318   23.4467 C   0  0  2  0  0  0  0  0  0  0  0  0
  -31.5654  -13.6251   21.7141 C   0  0  2  0  0  0  0  0  0  1  0  0
  -22.2485  -14.4069   23.5314 C   0  0  0  0  0  0  0  0  0  0  0  0
  -25.7151  -27.1981   21.1809 N   0  0  0  0  0  0  0  0  0  0  0  0
  -25.5656  -26.0602   20.4817 N   0  0  0  0  0  0  0  0  0  0  0  0
  -29.2260  -21.2114   20.6148 N   0  0  0  0  0  0  0  0  0  0  0  0
  -24.5693  -14.5599   20.8009 N   0  0  0  0  0  0  0  0  0  0  0  0
  -28.2135  -23.3450   20.9820 N   0  0  0  0  0  0  0  0  0  0  0  0
  -23.9501  -24.7037   19.4042 N   0  0  0  0  0  0  0  0  0  0  0  0
  -21.5100  -28.1399   21.0272 N   0  0  0  0  0  0  0  0  0  0  0  0
  -31.0033  -18.0948   21.3933 N   0  0  0  0  0  0  0  0  0  0  0  0
  -24.8778  -17.9127   19.6204 N   0  0  0  0  0  0  0  0  0  0  0  0
  -22.2731  -12.3858   22.0088 N   0  0  0  0  0  0  0  0  0  0  0  0
  -22.6751   -8.9482   20.9650 N   0  3  0  0  0  0  0  0  0  0  0  0
  -29.1926  -22.3891   18.5955 O   0  0  0  0  0  0  0  0  0  0  0  0
  -21.4040  -26.1684   19.8608 O   0  0  0  0  0  0  0  0  0  0  0  0
  -25.8023  -16.8111   21.4519 O   0  0  0  0  0  0  0  0  0  0  0  0
  -22.2694  -14.8578   20.5604 O   0  0  0  0  0  0  0  0  0  0  0  0
  -23.9654  -10.8914   22.5384 O   0  0  0  0  0  0  0  0  0  0  0  0
  -27.3052  -21.4078   21.8870 O   0  0  0  0  0  0  0  0  0  0  0  0
  -23.4560  -32.4813   23.9255 O   0  0  0  0  0  0  0  0  0  0  0  0
  -30.4357  -12.7745   21.5372 O   0  0  0  0  0  0  0  0  0  1  0  0
  -26.8518  -36.7167   22.9589 F   0  0  0  0  0  0  0  0  0  0  0  0
  -22.5012  -34.8535   22.8750 F   0  0  0  0  0  0  0  0  0  0  0  0
  1  2  1  0  0  0  0
  1  5  2  0  0  0  0
  2  6  2  0  0  0  0
  3  8  2  0  0  0  0
  3 15  1  0  0  0  0
  4  9  1  0  0  0  0
  4 15  2  0  0  0  0
  5 17  1  0  0  0  0
  6 19  1  0  0  0  0
  7 10  2  0  0  0  0
  7 18  1  0  0  0  0
  8 21  1  0  0  0  0
  9 21  2  0  0  0  0
 10 22  1  0  0  0  0
 11 12  2  0  0  0  0
 11 23  1  0  0  0  0
 12 24  1  0  0  0  0
 13 20  1  0  0  0  0
 13 22  2  0  0  0  0
 14 24  2  0  0  0  0
 14 25  1  0  0  0  0
 15 26  1  0  0  0  0
 16 26  1  0  0  0  0
 16 27  2  0  0  0  0
 16 33  1  0  0  0  0
 17 19  2  0  0  0  0
 17 38  1  0  0  0  0
 18 20  2  0  0  0  0
 18 39  1  0  0  0  0
 19 47  1  0  0  0  0
 20 40  1  0  0  0  0
 21 85  1  0  0  0  0
 22 86  1  0  0  0  0
 23 25  2  0  0  0  0
 23 85  1  0  0  0  0
 24 87  1  0  0  0  0
 25 88  1  0  0  0  0
 26 68  2  0  0  0  0
 27 69  1  0  0  0  0
 27 73  1  0  0  0  0
 28 30  2  0  0  0  0
 28 31  1  0  0  0  0
 29 31  2  0  0  0  0
 29 70  1  0  0  0  0
 30 32  1  0  0  0  0
 30 62  1  0  0  0  0
 31 75  1  0  0  0  0
 32 70  1  0  0  0  0
 32 79  2  0  0  0  0
 33 74  1  0  0  0  0
 33 80  2  0  0  0  0
 34 48  1  0  0  0  0
 34 76  1  0  0  0  0
 34 81  2  0  0  0  0
 35 63  1  0  0  0  0
 35 71  1  0  0  0  0
 35 82  2  0  0  0  0
 36 64  1  0  0  0  0
 36 77  1  0  0  0  0
 36 83  2  0  0  0  0
 37 70  1  0  0  0  0
 37 72  1  0  0  0  0
 37 84  2  0  0  0  0
 38 41  1  0  0  0  0
 39 48  1  0  0  0  0
 40 71  1  0  0  0  0
 41 43  1  0  0  0  0
 42 44  1  0  0  0  0
 42 45  1  0  0  0  0
 43 47  1  0  0  0  0
 44 49  1  0  0  0  0
 45 72  1  0  0  0  0
 46 49  1  0  0  0  0
 46 72  1  0  0  0  0
 47 76  1  0  0  0  0
 48 71  1  0  0  0  0
 49 69  1  0  0  0  0
 50 62  1  0  0  0  0
 51 62  1  0  0  0  0
 52 64  1  0  0  0  0
 53 65  1  0  0  0  0
 54 66  1  0  0  0  0
 55 67  1  0  0  0  0
 56 67  1  0  0  0  0
 57 67  1  0  0  0  0
 58 78  1  0  0  0  0
 59 60  1  0  0  0  0
 59 65  1  0  0  0  0
 60 66  1  0  0  0  0
 61 65  1  0  0  0  0
 61 75  1  0  0  0  0
 63 67  1  0  0  0  0
 63 77  1  0  0  0  0
 64 78  1  0  0  0  0
 66 86  1  0  0  0  0
 68 69  1  0  0  0  0
M  CHG  1  78   1
M  ISO  4  37 100  66 101  70 100  86 101
M  END
> <Batch ID>
0116

> <Smiles>
CNC(C)C(=O)NC(C(=O)N1Cc2cc([101O:1][101CH:1](C)CCC(C)CNc3cc(C(C)C)c(=O)[100n:0]([100C:0](=O)N4CCCC(n5nc(-c6ccc(Oc7ccc(F)cc7F)cc6)c(C(N)=O)c5N)C4)c3)ccc2CC1C(=O)NC1CCCc2ccccc21)C(C)(C)C

> <Shape>
0.247

> <Color>
0.064

> <Negative vol penalty>
0.000

$$$$

  -OEChem-04052320133D

 92101  0     1  0  0  0  0  0999 V2000
  -19.9191  -24.6523   24.0576 C   0  0  0  0  0  0  0  0  0  0  0  0
  -21.1371  -24.5805   23.3891 C   0  0  0  0  0  0  0  0  0  0  0  0
  -22.3302  -13.5009   18.4129 C   0  0  0  0  0  0  0  0  0  0  0  0
  -23.6344  -15.3149   17.4934 C   0  0  0  0  0  0  0  0  0  0  0  0
  -19.1847  -25.8373   24.0406 C   0  0  0  0  0  0  0  0  0  0  0  0
  -21.6208  -25.6934   22.7022 C   0  0  0  0  0  0  0  0  0  0  0  0
  -27.4752  -27.3835   22.0895 C   0  0  0  0  0  0  0  0  0  0  0  0
  -21.5934  -13.4313   17.2306 C   0  0  0  0  0  0  0  0  0  0  0  0
  -22.8977  -15.2453   16.3111 C   0  0  0  0  0  0  0  0  0  0  0  0
  -28.3995  -27.2075   21.0606 C   0  0  0  0  0  0  0  0  0  0  0  0
  -22.8118  -13.3099   13.5420 C   0  0  0  0  0  0  0  0  0  0  0  0
  -23.5149  -13.3573   12.3383 C   0  0  0  0  0  0  0  0  0  0  0  0
  -27.8667  -29.4029   20.2147 C   0  0  0  0  0  0  0  0  0  0  0  0
  -29.4861  -25.3090   18.0124 C   0  0  0  0  0  0  0  0  0  0  0  0
  -22.3054  -15.3523   11.7103 C   0  0  0  0  0  0  0  0  0  0  0  0
  -30.8348  -24.6674   19.6973 C   0  0  0  0  0  0  0  0  0  0  0  0
  -23.3507  -14.4427   18.5444 C   0  0  0  0  0  0  0  0  0  0  0  0
  -24.8949  -13.4971   20.3412 C   0  0  0  0  0  0  0  0  0  0  0  0
  -19.6642  -26.9683   23.3613 C   0  0  0  0  0  0  0  0  0  0  0  0
  -26.7305  -28.5681   22.1824 C   0  0  0  0  0  0  0  0  0  0  0  0
  -20.8914  -26.8943   22.6750 C   0  0  0  0  0  0  0  0  0  0  0  0
  -26.9354  -29.5924   21.2471 C   0  0  0  0  0  0  0  0  0  0  0  0
  -30.3300  -25.7740   19.0509 C   0  0  0  0  0  0  0  0  0  0  0  0
  -21.8772  -14.3035   16.1796 C   0  0  0  0  0  0  0  0  0  0  0  0
  -28.5933  -28.2162   20.1214 C   0  0  0  0  0  0  0  0  0  0  0  0
  -21.8553  -14.2837   13.8299 C   0  0  0  0  0  0  0  0  0  0  0  0
  -23.2618  -14.3785   11.4225 C   0  0  0  0  0  0  0  0  0  0  0  0
  -21.6022  -15.3048   12.9140 C   0  0  0  0  0  0  0  0  0  0  0  0
  -24.1117  -14.5155   19.7657 C   0  0  0  0  0  0  0  0  0  0  0  0
  -29.5007  -23.9323   18.0558 C   0  0  0  0  0  0  0  0  0  0  0  0
  -25.4068  -14.0619   21.4838 C   0  0  0  0  0  0  0  0  0  0  0  0
  -25.1382  -12.1602   19.8838 C   0  0  0  0  0  0  0  0  0  0  0  0
  -23.6371  -29.2887   22.0580 C   0  0  0  0  0  0  0  0  0  0  0  0
  -24.6957  -32.2545   22.8363 C   0  0  0  0  0  0  0  0  0  0  0  0
  -26.3478  -34.7515   23.8089 C   0  0  0  0  0  0  0  0  0  0  0  0
  -26.5714  -19.5800   23.1780 C   0  0  0  0  0  0  0  0  0  0  0  0
  -18.8124  -28.2125   23.3314 C   0  0  0  0  0  0  0  0  0  0  0  0
  -25.7567  -28.7531   23.3137 C   0  0  0  0  0  0  0  0  0  0  0  0
  -26.1758  -30.8913   21.3144 C   0  0  0  0  0  0  0  0  0  0  0  0
  -19.5735  -29.4614   22.8938 C   0  0  0  0  0  0  0  0  0  0  0  0
  -24.4449  -17.3678   24.7935 C   0  0  0  0  0  0  0  0  0  0  0  0
  -20.4116  -29.1685   21.6534 C   0  0  0  0  0  0  0  0  0  0  0  0
  -31.0665  -20.6067   21.4055 C   0  0  0  0  0  0  0  0  0  0  0  0
  -29.6811  -22.6870   21.7809 C   0  0  0  0  0  0  0  0  0  0  0  0
  -24.1836  -16.2815   23.7510 C   0  0  0  0  0  0  0  0  0  0  0  0
  -29.7919  -19.7633   21.3609 C   0  0  0  0  0  0  0  0  0  0  0  0
  -28.4041  -21.8471   21.7378 C   0  0  0  0  0  0  0  0  0  0  0  0
  -24.4521  -18.7493   24.1501 C   0  0  0  0  0  0  0  0  0  0  0  0
  -25.1967  -17.8096   21.9859 C   0  0  0  0  0  0  0  0  0  0  0  0
  -21.4613  -28.0877   21.9394 C   0  0  1  0  0  0  0  0  0  0  0  0
  -24.6819  -29.7932   23.0128 C   0  0  1  0  0  0  0  0  0  0  0  0
  -30.8385  -22.0660   20.9858 C   0  0  0  0  0  0  0  0  0  0  0  0
  -25.1799  -16.3875   22.5831 C   0  0  2  0  0  0  0  0  0  0  0  0
  -28.6673  -20.4054   22.1762 C   0  0  0  0  0  0  0  0  0  0  0  0
  -27.1025  -17.1778   19.1408 C   0  0  0  0  0  0  0  0  0  0  0  0
  -31.8185  -27.7578   18.6129 C   0  0  0  0  0  0  0  0  0  0  0  0
  -29.2237  -23.0279   15.7194 C   0  0  0  0  0  0  0  0  0  0  0  0
  -27.2608  -23.0565   17.3009 C   0  0  0  0  0  0  0  0  0  0  0  0
  -24.9580  -35.8293   25.5989 C   0  0  0  0  0  0  0  0  0  0  0  0
  -31.7931  -21.6117   18.6850 C   0  0  0  0  0  0  0  0  0  0  0  0
  -24.1412  -32.5777   19.8534 C   0  0  0  0  0  0  0  0  0  0  0  0
  -24.7632  -34.9931   20.0704 C   0  0  0  0  0  0  0  0  0  0  0  0
  -22.8090  -34.0920   21.3321 C   0  0  0  0  0  0  0  0  0  0  0  0
  -27.2245  -37.4652   23.0177 C   0  0  0  0  0  0  0  0  0  0  0  0
  -27.4333  -17.6698   20.5430 C   0  0  0  0  0  0  0  0  0  0  0  0
  -27.1046  -19.1445   20.7427 C   0  0  0  0  0  0  0  0  0  0  0  0
  -30.6236  -27.2179   19.3883 C   0  0  1  0  0  0  0  0  0  1  0  0
  -28.7998  -22.9494   17.2039 C   0  0  0  0  0  0  0  0  0  0  0  0
  -25.1485  -33.4663   22.0583 C   0  0  1  0  0  0  0  0  0  0  0  0
  -26.1921  -35.9562   24.7193 C   0  0  2  0  0  0  0  0  0  0  0  0
  -30.6194  -22.1927   19.4757 C   0  0  2  0  0  0  0  0  0  0  0  0
  -24.2337  -33.7619   20.8363 C   0  0  0  0  0  0  0  0  0  0  0  0
  -24.1219  -15.6418   20.4835 N   0  0  0  0  0  0  0  0  0  0  0  0
  -30.3237  -23.5534   19.0841 N   0  0  0  0  0  0  0  0  0  0  0  0
  -24.9178  -15.3345   21.5219 N   0  0  0  0  0  0  0  0  0  0  0  0
  -25.2304  -31.0219   22.4353 N   0  0  0  0  0  0  0  0  0  0  0  0
  -25.4053  -18.8123   23.0418 N   0  0  0  0  0  0  0  0  0  0  0  0
  -26.2229  -13.5890   22.4497 N   0  0  0  0  0  0  0  0  0  0  0  0
  -24.5342  -11.7422   18.6902 N   0  0  0  0  0  0  0  0  0  0  0  0
  -22.5772  -28.6480   22.6709 N   0  0  0  0  0  0  0  0  0  0  0  0
  -25.2334  -34.5604   23.0196 N   0  0  0  0  0  0  0  0  0  0  0  0
  -27.4485  -19.6144   22.0835 N   0  0  0  0  0  0  0  0  0  0  0  0
  -26.0679  -37.2028   23.9123 N   0  3  0  0  0  0  0  0  0  0  0  0
  -25.8562  -11.3547   20.5235 O   0  0  0  0  0  0  0  0  0  0  0  0
  -23.7812  -29.4687   20.8545 O   0  0  0  0  0  0  0  0  0  0  0  0
  -23.9024  -32.3971   23.7701 O   0  0  0  0  0  0  0  0  0  0  0  0
  -27.3585  -34.0523   23.7962 O   0  0  0  0  0  0  0  0  0  0  0  0
  -26.8132  -20.2072   24.2174 O   0  0  0  0  0  0  0  0  0  0  0  0
  -21.1586  -14.2357   15.0257 O   0  0  0  0  0  0  0  0  0  0  0  0
  -29.4944  -28.0468   19.1158 O   0  0  0  0  0  0  0  0  0  1  0  0
  -23.9382  -14.4247   10.2673 F   0  0  0  0  0  0  0  0  0  0  0  0
  -20.6854  -16.2438   13.1855 F   0  0  0  0  0  0  0  0  0  0  0  0
  1  2  1  0  0  0  0
  1  5  2  0  0  0  0
  2  6  2  0  0  0  0
  3  8  2  0  0  0  0
  3 17  1  0  0  0  0
  4  9  1  0  0  0  0
  4 17  2  0  0  0  0
  5 19  1  0  0  0  0
  6 21  1  0  0  0  0
  7 10  2  0  0  0  0
  7 20  1  0  0  0  0
  8 24  1  0  0  0  0
  9 24  2  0  0  0  0
 10 25  1  0  0  0  0
 11 12  2  0  0  0  0
 11 26  1  0  0  0  0
 12 27  1  0  0  0  0
 13 22  1  0  0  0  0
 13 25  2  0  0  0  0
 14 23  1  0  0  0  0
 14 30  2  0  0  0  0
 15 27  2  0  0  0  0
 15 28  1  0  0  0  0
 16 23  2  0  0  0  0
 16 74  1  0  0  0  0
 17 29  1  0  0  0  0
 18 29  1  0  0  0  0
 18 31  2  0  0  0  0
 18 32  1  0  0  0  0
 19 21  2  0  0  0  0
 19 37  1  0  0  0  0
 20 22  2  0  0  0  0
 20 38  1  0  0  0  0
 21 50  1  0  0  0  0
 22 39  1  0  0  0  0
 23 67  1  0  0  0  0
 24 89  1  0  0  0  0
 25 90  1  0  0  0  0
 26 28  2  0  0  0  0
 26 89  1  0  0  0  0
 27 91  1  0  0  0  0
 28 92  1  0  0  0  0
 29 73  2  0  0  0  0
 30 68  1  0  0  0  0
 30 74  1  0  0  0  0
 31 75  1  0  0  0  0
 31 78  1  0  0  0  0
 32 79  1  0  0  0  0
 32 84  2  0  0  0  0
 33 51  1  0  0  0  0
 33 80  1  0  0  0  0
 33 85  2  0  0  0  0
 34 69  1  0  0  0  0
 34 76  1  0  0  0  0
 34 86  2  0  0  0  0
 35 70  1  0  0  0  0
 35 81  1  0  0  0  0
 35 87  2  0  0  0  0
 36 77  1  0  0  0  0
 36 82  1  0  0  0  0
 36 88  2  0  0  0  0
 37 40  1  0  0  0  0
 38 51  1  0  0  0  0
 39 76  1  0  0  0  0
 40 42  1  0  0  0  0
 41 45  1  0  0  0  0
 41 48  1  0  0  0  0
 42 50  1  0  0  0  0
 43 46  1  0  0  0  0
 43 52  1  0  0  0  0
 44 47  1  0  0  0  0
 44 52  1  0  0  0  0
 45 53  1  0  0  0  0
 46 54  1  0  0  0  0
 47 54  1  0  0  0  0
 48 77  1  0  0  0  0
 49 53  1  0  0  0  0
 49 77  1  0  0  0  0
 50 80  1  0  0  0  0
 51 76  1  0  0  0  0
 52 71  1  0  0  0  0
 53 75  1  0  0  0  0
 54 82  1  0  0  0  0
 55 65  1  0  0  0  0
 56 67  1  0  0  0  0
 57 68  1  0  0  0  0
 58 68  1  0  0  0  0
 59 70  1  0  0  0  0
 60 71  1  0  0  0  0
 61 72  1  0  0  0  0
 62 72  1  0  0  0  0
 63 72  1  0  0  0  0
 64 83  1  0  0  0  0
 65 66  1  0  0  0  0
 66 82  1  0  0  0  0
 67 90  1  0  0  0  0
 69 72  1  0  0  0  0
 69 81  1  0  0  0  0
 70 83  1  0  0  0  0
 71 74  1  0  0  0  0
 73 75  1  0  0  0  0
M  CHG  1  83   1
M  ISO  4  36 100  67 101  82 100  90 101
M  END
> <Batch ID>
0116

> <Smiles>
CCC[100N:0](C1CCC(C(C)n2cc([101CH:1](C)[101O:1]c3ccc4c(c3)CN(C(=O)C(NC(=O)C(C)NC)C(C)(C)C)C(C(=O)NC3CCCc5ccccc53)C4)cc2C(C)C)CC1)[100C:0](=O)N1CCCC(n2nc(-c3ccc(Oc4ccc(F)cc4F)cc3)c(C(N)=O)c2N)C1

> <Shape>
0.254

> <Color>
0.085

> <Negative vol penalty>
0.000

$$$$

  -OEChem-04052320133D

 79 87  0     1  0  0  0  0  0999 V2000
  -34.1329  -24.1630   32.9130 C   0  0  0  0  0  0  0  0  0  0  0  0
  -33.7013  -23.5162   31.7593 C   0  0  0  0  0  0  0  0  0  0  0  0
  -22.9994   -9.8918   19.9819 C   0  0  0  0  0  0  0  0  0  0  0  0
  -23.7244   -9.9456   22.2859 C   0  0  0  0  0  0  0  0  0  0  0  0
  -34.1120  -25.5555   32.9793 C   0  0  0  0  0  0  0  0  0  0  0  0
  -33.2476  -24.2616   30.6717 C   0  0  0  0  0  0  0  0  0  0  0  0
  -35.1087  -22.5992   26.2652 C   0  0  0  0  0  0  0  0  0  0  0  0
  -30.2468  -18.9345   23.0719 C   0  0  0  0  0  0  0  0  0  0  0  0
  -22.2333   -8.7573   20.2494 C   0  0  0  0  0  0  0  0  0  0  0  0
  -22.9583   -8.8111   22.5535 C   0  0  0  0  0  0  0  0  0  0  0  0
  -34.5248  -21.4579   25.7174 C   0  0  0  0  0  0  0  0  0  0  0  0
  -21.4779   -5.7188   23.7601 C   0  0  0  0  0  0  0  0  0  0  0  0
  -22.0643   -4.7040   24.5165 C   0  0  0  0  0  0  0  0  0  0  0  0
  -29.7590  -17.6973   22.6660 C   0  0  0  0  0  0  0  0  0  0  0  0
  -33.2314  -22.8433   24.2250 C   0  0  0  0  0  0  0  0  0  0  0  0
  -23.7908   -4.4557   22.8448 C   0  0  0  0  0  0  0  0  0  0  0  0
  -23.7450  -10.4860   21.0001 C   0  0  0  0  0  0  0  0  0  0  0  0
  -24.1293  -13.0015   20.8214 C   0  0  0  0  0  0  0  0  0  0  0  0
  -33.6668  -26.3186   31.8884 C   0  0  0  0  0  0  0  0  0  0  0  0
  -34.7498  -23.8738   25.8038 C   0  0  0  0  0  0  0  0  0  0  0  0
  -33.2194  -25.6656   30.7240 C   0  0  0  0  0  0  0  0  0  0  0  0
  -33.8142  -23.9991   24.7669 C   0  0  0  0  0  0  0  0  0  0  0  0
  -31.5222  -19.3330   22.6873 C   0  0  0  0  0  0  0  0  0  0  0  0
  -22.2127   -8.2170   21.5352 C   0  0  0  0  0  0  0  0  0  0  0  0
  -33.5838  -21.5799   24.6992 C   0  0  0  0  0  0  0  0  0  0  0  0
  -22.0479   -6.1019   22.5460 C   0  0  0  0  0  0  0  0  0  0  0  0
  -23.2208   -4.0725   24.0588 C   0  0  0  0  0  0  0  0  0  0  0  0
  -23.2044   -5.4704   22.0884 C   0  0  0  0  0  0  0  0  0  0  0  0
  -24.5370  -11.6576   20.7243 C   0  0  0  0  0  0  0  0  0  0  0  0
  -32.2639  -18.4645   21.9028 C   0  0  0  0  0  0  0  0  0  0  0  0
  -30.5796  -16.9022   21.8823 C   0  0  0  0  0  0  0  0  0  0  0  0
  -25.2388  -13.7241   20.4563 C   0  0  0  0  0  0  0  0  0  0  0  0
  -22.8611  -13.5478   21.2073 C   0  0  0  0  0  0  0  0  0  0  0  0
  -33.4035  -26.4373   27.1152 C   0  0  0  0  0  0  0  0  0  0  0  0
  -34.0708  -27.7783   24.2380 C   0  0  0  0  0  0  0  0  0  0  0  0
  -34.6804  -27.3402   20.9088 C   0  0  0  0  0  0  0  0  0  0  0  0
  -30.7179  -14.6876   20.6895 C   0  0  0  0  0  0  0  0  0  0  0  0
  -33.6180  -27.8199   32.0244 C   0  0  0  0  0  0  0  0  0  0  0  0
  -35.4086  -25.0939   26.3867 C   0  0  0  0  0  0  0  0  0  0  0  0
  -33.4095  -25.3437   24.2221 C   0  0  0  0  0  0  0  0  0  0  0  0
  -33.4750  -28.5480   30.6904 C   0  0  0  0  0  0  0  0  0  0  0  0
  -29.6007  -12.2317   18.3662 C   0  0  0  0  0  0  0  0  0  0  0  0
  -32.3892  -27.8961   29.8401 C   0  0  0  0  0  0  0  0  0  0  0  0
  -28.1502  -11.9740   18.7806 C   0  0  0  0  0  0  0  0  0  0  0  0
  -30.5011  -12.4768   19.5758 C   0  0  0  0  0  0  0  0  0  0  0  0
  -28.5853  -13.2664   20.9083 C   0  0  0  0  0  0  0  0  0  0  0  0
  -32.7435  -26.4402   29.5142 C   0  0  1  0  0  0  0  0  0  0  0  0
  -34.5883  -26.3656   26.1940 C   0  0  1  0  0  0  0  0  0  0  0  0
  -27.6278  -13.0784   19.7203 C   0  0  2  0  0  0  0  0  0  0  0  0
  -33.6407  -18.8402   21.4614 C   0  0  0  0  0  0  0  0  0  0  0  0
  -35.1529  -28.6266   18.8067 C   0  0  0  0  0  0  0  0  0  0  0  0
  -31.1309  -28.5771   24.0689 C   0  0  0  0  0  0  0  0  0  0  0  0
  -31.4539  -28.9828   21.6196 C   0  0  0  0  0  0  0  0  0  0  0  0
  -32.7345  -30.3285   23.2845 C   0  0  0  0  0  0  0  0  0  0  0  0
  -37.3090  -26.0263   20.5575 C   0  0  0  0  0  0  0  0  0  0  0  0
  -32.0553  -20.6661   23.1229 C   0  0  0  0  0  0  0  0  0  1  0  0
  -33.3428  -27.9016   22.9213 C   0  0  1  0  0  0  0  0  0  0  0  0
  -35.7579  -27.9029   19.9995 C   0  0  2  0  0  0  0  0  0  0  0  0
  -32.1715  -28.9221   22.9850 C   0  0  0  0  0  0  0  0  0  0  0  0
  -25.8064  -11.5311   20.3283 N   0  0  0  0  0  0  0  0  0  0  0  0
  -31.8240  -17.2551   21.4889 N   0  0  0  0  0  0  0  0  0  0  0  0
  -26.2059  -12.8049   20.1733 N   0  0  0  0  0  0  0  0  0  0  0  0
  -34.0771  -26.5070   24.8291 N   0  0  0  0  0  0  0  0  0  0  0  0
  -29.9456  -13.5385   20.4179 N   0  0  0  0  0  0  0  0  0  0  0  0
  -25.4718  -15.0498   20.3528 N   0  0  0  0  0  0  0  0  0  0  0  0
  -21.8297  -12.6637   21.5517 N   0  0  0  0  0  0  0  0  0  0  0  0
  -30.0732  -15.6434   21.4740 N   0  0  0  0  0  0  0  0  0  0  0  0
  -33.7301  -26.3846   28.4569 N   0  0  0  0  0  0  0  0  0  0  0  0
  -34.3574  -28.2180   21.9219 N   0  0  0  0  0  0  0  0  0  0  0  0
  -36.6308  -26.8072   19.4911 N   0  3  0  0  0  0  0  0  0  0  0  0
  -22.6439  -14.7831   21.2297 O   0  0  0  0  0  0  0  0  0  0  0  0
  -32.2766  -26.5348   26.6438 O   0  0  0  0  0  0  0  0  0  0  0  0
  -34.6200  -28.7719   24.7206 O   0  0  0  0  0  0  0  0  0  0  0  0
  -34.1733  -26.2342   20.7355 O   0  0  0  0  0  0  0  0  0  0  0  0
  -31.8566  -14.8265   20.2354 O   0  0  0  0  0  0  0  0  0  0  0  0
  -21.4650   -7.1101   21.7967 O   0  0  0  0  0  0  0  0  0  0  0  0
  -33.0118  -20.4676   24.1631 O   0  0  0  0  0  0  0  0  0  1  0  0
  -23.7846   -3.0992   24.7860 F   0  0  0  0  0  0  0  0  0  0  0  0
  -23.7573   -5.8351   20.9234 F   0  0  0  0  0  0  0  0  0  0  0  0
  1  2  1  0  0  0  0
  1  5  2  0  0  0  0
  2  6  2  0  0  0  0
  3  9  2  0  0  0  0
  3 17  1  0  0  0  0
  4 10  1  0  0  0  0
  4 17  2  0  0  0  0
  5 19  1  0  0  0  0
  6 21  1  0  0  0  0
  7 11  2  0  0  0  0
  7 20  1  0  0  0  0
  8 14  2  0  0  0  0
  8 23  1  0  0  0  0
  9 24  1  0  0  0  0
 10 24  2  0  0  0  0
 11 25  1  0  0  0  0
 12 13  2  0  0  0  0
 12 26  1  0  0  0  0
 13 27  1  0  0  0  0
 14 31  1  0  0  0  0
 15 22  1  0  0  0  0
 15 25  2  0  0  0  0
 16 27  2  0  0  0  0
 16 28  1  0  0  0  0
 17 29  1  0  0  0  0
 18 29  1  0  0  0  0
 18 32  2  0  0  0  0
 18 33  1  0  0  0  0
 19 21  2  0  0  0  0
 19 38  1  0  0  0  0
 20 22  2  0  0  0  0
 20 39  1  0  0  0  0
 21 47  1  0  0  0  0
 22 40  1  0  0  0  0
 23 30  2  0  0  0  0
 23 56  1  0  0  0  0
 24 76  1  0  0  0  0
 25 77  1  0  0  0  0
 26 28  2  0  0  0  0
 26 76  1  0  0  0  0
 27 78  1  0  0  0  0
 28 79  1  0  0  0  0
 29 60  2  0  0  0  0
 30 50  1  0  0  0  0
 30 61  1  0  0  0  0
 31 61  2  0  0  0  0
 31 67  1  0  0  0  0
 32 62  1  0  0  0  0
 32 65  1  0  0  0  0
 33 66  1  0  0  0  0
 33 71  2  0  0  0  0
 34 48  1  0  0  0  0
 34 68  1  0  0  0  0
 34 72  2  0  0  0  0
 35 57  1  0  0  0  0
 35 63  1  0  0  0  0
 35 73  2  0  0  0  0
 36 58  1  0  0  0  0
 36 69  1  0  0  0  0
 36 74  2  0  0  0  0
 37 64  1  0  0  0  0
 37 67  1  0  0  0  0
 37 75  2  0  0  0  0
 38 41  1  0  0  0  0
 39 48  1  0  0  0  0
 40 63  1  0  0  0  0
 41 43  1  0  0  0  0
 42 44  1  0  0  0  0
 42 45  1  0  0  0  0
 43 47  1  0  0  0  0
 44 49  1  0  0  0  0
 45 64  1  0  0  0  0
 46 49  1  0  0  0  0
 46 64  1  0  0  0  0
 47 68  1  0  0  0  0
 48 63  1  0  0  0  0
 49 62  1  0  0  0  0
 51 58  1  0  0  0  0
 52 59  1  0  0  0  0
 53 59  1  0  0  0  0
 54 59  1  0  0  0  0
 55 70  1  0  0  0  0
 56 77  1  0  0  0  0
 57 59  1  0  0  0  0
 57 69  1  0  0  0  0
 58 70  1  0  0  0  0
 60 62  1  0  0  0  0
M  CHG  1  70   1
M  ISO  4  37 100  56 101  67 100  77 101
M  END
> <Batch ID>
0116

> <Smiles>
CNC(C)C(=O)NC(C(=O)N1Cc2cc([101O:1][101CH2:1]c3ccc([100NH:0][100C:0](=O)N4CCCC(n5nc(-c6ccc(Oc7ccc(F)cc7F)cc6)c(C(N)=O)c5N)C4)nc3C)ccc2CC1C(=O)NC1CCCc2ccccc21)C(C)(C)C

> <Shape>
0.177

> <Color>
0.202

> <Negative vol penalty>
0.000

$$$$

  -OEChem-04052320133D

 81 88  0     1  0  0  0  0  0999 V2000
  -16.6295  -30.0244   23.6459 C   0  0  0  0  0  0  0  0  0  0  0  0
  -17.7388  -30.7038   24.1390 C   0  0  0  0  0  0  0  0  0  0  0  0
  -28.7116  -18.0835   23.7226 C   0  0  0  0  0  0  0  0  0  0  0  0
  -30.1290  -19.0633   25.4162 C   0  0  0  0  0  0  0  0  0  0  0  0
  -16.7938  -28.7992   23.0010 C   0  0  0  0  0  0  0  0  0  0  0  0
  -19.0131  -30.1579   23.9885 C   0  0  0  0  0  0  0  0  0  0  0  0
  -25.8402  -32.1003   23.0220 C   0  0  0  0  0  0  0  0  0  0  0  0
  -28.9577  -16.8159   24.2500 C   0  0  0  0  0  0  0  0  0  0  0  0
  -30.3750  -17.7957   25.9437 C   0  0  0  0  0  0  0  0  0  0  0  0
  -27.1064  -31.8937   23.5677 C   0  0  0  0  0  0  0  0  0  0  0  0
  -28.7806  -15.5729   27.9280 C   0  0  0  0  0  0  0  0  0  0  0  0
  -28.7156  -15.4253   29.3135 C   0  0  0  0  0  0  0  0  0  0  0  0
  -27.2774  -29.8088   22.3665 C   0  0  0  0  0  0  0  0  0  0  0  0
  -31.0222  -14.7070   29.3451 C   0  0  0  0  0  0  0  0  0  0  0  0
  -29.2973  -19.2072   24.3057 C   0  0  0  0  0  0  0  0  0  0  0  0
  -28.0075  -21.4001   24.1178 C   0  0  0  0  0  0  0  0  0  0  0  0
  -18.0717  -28.2426   22.8340 C   0  0  0  0  0  0  0  0  0  0  0  0
  -25.2776  -31.1558   22.1514 C   0  0  0  0  0  0  0  0  0  0  0  0
  -19.1945  -28.9235   23.3419 C   0  0  0  0  0  0  0  0  0  0  0  0
  -26.0050  -30.0069   21.8090 C   0  0  0  0  0  0  0  0  0  0  0  0
  -29.7893  -16.6719   25.3605 C   0  0  0  0  0  0  0  0  0  0  0  0
  -27.8240  -30.7464   23.2423 C   0  0  0  0  0  0  0  0  0  0  0  0
  -29.9663  -15.2874   27.2510 C   0  0  0  0  0  0  0  0  0  0  0  0
  -29.8364  -14.9924   30.0221 C   0  0  0  0  0  0  0  0  0  0  0  0
  -31.0871  -14.8545   27.9596 C   0  0  0  0  0  0  0  0  0  0  0  0
  -29.0440  -20.5169   23.7610 C   0  0  0  0  0  0  0  0  0  0  0  0
  -28.2033  -22.5000   23.3188 C   0  0  0  0  0  0  0  0  0  0  0  0
  -26.9612  -21.2405   25.0850 C   0  0  0  0  0  0  0  0  0  0  0  0
  -22.6920  -29.3080   22.2138 C   0  0  0  0  0  0  0  0  0  0  0  0
  -23.6085  -28.5911   19.1859 C   0  0  0  0  0  0  0  0  0  0  0  0
  -26.1240  -28.4085   16.8867 C   0  0  0  0  0  0  0  0  0  0  0  0
  -33.0385  -24.7593   20.6046 C   0  0  0  0  0  0  0  0  0  0  0  0
  -18.1949  -26.8931   22.1719 C   0  0  0  0  0  0  0  0  0  0  0  0
  -23.9218  -31.4063   21.5501 C   0  0  0  0  0  0  0  0  0  0  0  0
  -25.4542  -28.9722   20.8633 C   0  0  0  0  0  0  0  0  0  0  0  0
  -19.6157  -26.5627   21.7221 C   0  0  0  0  0  0  0  0  0  0  0  0
  -29.9859  -23.7675   19.0636 C   0  0  0  0  0  0  0  0  0  0  0  0
  -20.6143  -26.8820   22.8301 C   0  0  0  0  0  0  0  0  0  0  0  0
  -29.3048  -22.9017   20.1250 C   0  0  0  0  0  0  0  0  0  0  0  0
  -31.5008  -23.5750   19.0653 C   0  0  0  0  0  0  0  0  0  0  0  0
  -31.4675  -22.9057   21.4370 C   0  0  0  0  0  0  0  0  0  0  0  0
  -20.5954  -28.3757   23.1762 C   0  0  1  0  0  0  0  0  0  0  0  0
  -23.2325  -30.1299   21.0780 C   0  0  1  0  0  0  0  0  0  0  0  0
  -29.9443  -23.1073   21.5113 C   0  0  2  0  0  0  0  0  0  0  0  0
  -26.5740  -27.7498   14.5075 C   0  0  0  0  0  0  0  0  0  0  0  0
  -31.5998  -28.8429   20.6503 C   0  0  0  0  0  0  0  0  0  0  0  0
  -31.1384  -31.5492   23.1216 C   0  0  0  0  0  0  0  0  0  0  0  0
  -23.4944  -25.6477   19.9817 C   0  0  0  0  0  0  0  0  0  0  0  0
  -24.8345  -25.1144   17.9353 C   0  0  0  0  0  0  0  0  0  0  0  0
  -22.5765  -26.1506   17.7103 C   0  0  0  0  0  0  0  0  0  0  0  0
  -35.7964  -25.5612   21.4859 C   0  0  0  0  0  0  0  0  0  0  0  0
  -34.7998  -25.7231   23.7721 C   0  0  0  0  0  0  0  0  0  0  0  0
  -27.0015  -31.1435   16.1736 C   0  0  0  0  0  0  0  0  0  0  0  0
  -30.8127  -29.0501   23.0447 C   0  0  0  0  0  0  0  0  0  0  0  0
  -34.0018  -27.2907   22.0015 C   0  0  0  0  0  0  0  0  0  0  0  0
  -24.5038  -27.5503   18.5580 C   0  0  1  0  0  0  0  0  0  0  0  0
  -26.2112  -28.8877   15.4489 C   0  0  2  0  0  0  0  0  0  0  0  0
  -32.0085  -28.7915   22.1171 C   0  0  1  0  0  0  0  0  0  0  0  0
  -30.1485  -30.4207   22.8596 C   0  0  1  0  0  0  0  0  0  1  0  0
  -23.8621  -26.1341   18.5657 C   0  0  0  0  0  0  0  0  0  0  0  0
  -34.5108  -25.8629   22.2700 C   0  0  0  0  0  0  0  0  0  0  0  0
  -29.8392  -21.0128   22.8093 N   0  0  0  0  0  0  0  0  0  0  0  0
  -29.3022  -22.2195   22.5612 N   0  0  0  0  0  0  0  0  0  0  0  0
  -24.1219  -29.2594   20.3065 N   0  0  0  0  0  0  0  0  0  0  0  0
  -32.0450  -23.7857   20.4089 N   0  0  0  0  0  0  0  0  0  0  0  0
  -27.5408  -23.6700   23.1973 N   0  0  0  0  0  0  0  0  0  0  0  0
  -26.9065  -20.0481   25.8195 N   0  0  0  0  0  0  0  0  0  0  0  0
  -21.3215  -29.1345   22.1804 N   0  0  0  0  0  0  0  0  0  0  0  0
  -24.8375  -28.0479   17.2277 N   0  0  0  0  0  0  0  0  0  0  0  0
  -33.4950  -24.8991   21.9095 N   0  0  0  0  0  0  0  0  0  0  0  0
  -27.2456  -29.9526   15.3197 N   0  3  0  0  0  0  0  0  0  0  0  0
  -32.5746  -27.4403   22.3870 N   0  3  0  0  0  0  0  0  0  0  0  0
  -26.0906  -22.1223   25.2802 O   0  0  0  0  0  0  0  0  0  0  0  0
  -23.4616  -28.8628   23.0572 O   0  0  0  0  0  0  0  0  0  0  0  0
  -22.4976  -28.8083   18.6957 O   0  0  0  0  0  0  0  0  0  0  0  0
  -27.1001  -28.3556   17.6316 O   0  0  0  0  0  0  0  0  0  0  0  0
  -33.4818  -25.4562   19.6855 O   0  0  0  0  0  0  0  0  0  0  0  0
  -30.0294  -15.4352   25.8756 O   0  0  0  0  0  0  0  0  0  0  0  0
  -29.0598  -30.5420   23.7742 O   0  0  0  0  0  0  0  0  0  1  0  0
  -29.7744  -14.8522   31.3527 F   0  0  0  0  0  0  0  0  0  0  0  0
  -32.2293  -14.5798   27.3149 F   0  0  0  0  0  0  0  0  0  0  0  0
  1  2  1  0  0  0  0
  1  5  2  0  0  0  0
  2  6  2  0  0  0  0
  3  8  2  0  0  0  0
  3 15  1  0  0  0  0
  4  9  1  0  0  0  0
  4 15  2  0  0  0  0
  5 17  1  0  0  0  0
  6 19  1  0  0  0  0
  7 10  2  0  0  0  0
  7 18  1  0  0  0  0
  8 21  1  0  0  0  0
  9 21  2  0  0  0  0
 10 22  1  0  0  0  0
 11 12  2  0  0  0  0
 11 23  1  0  0  0  0
 12 24  1  0  0  0  0
 13 20  1  0  0  0  0
 13 22  2  0  0  0  0
 14 24  2  0  0  0  0
 14 25  1  0  0  0  0
 15 26  1  0  0  0  0
 16 26  1  0  0  0  0
 16 27  2  0  0  0  0
 16 28  1  0  0  0  0
 17 19  2  0  0  0  0
 17 33  1  0  0  0  0
 18 20  2  0  0  0  0
 18 34  1  0  0  0  0
 19 42  1  0  0  0  0
 20 35  1  0  0  0  0
 21 78  1  0  0  0  0
 22 79  1  0  0  0  0
 23 25  2  0  0  0  0
 23 78  1  0  0  0  0
 24 80  1  0  0  0  0
 25 81  1  0  0  0  0
 26 62  2  0  0  0  0
 27 63  1  0  0  0  0
 27 66  1  0  0  0  0
 28 67  1  0  0  0  0
 28 73  2  0  0  0  0
 29 43  1  0  0  0  0
 29 68  1  0  0  0  0
 29 74  2  0  0  0  0
 30 56  1  0  0  0  0
 30 64  1  0  0  0  0
 30 75  2  0  0  0  0
 31 57  1  0  0  0  0
 31 69  1  0  0  0  0
 31 76  2  0  0  0  0
 32 65  1  0  0  0  0
 32 70  1  0  0  0  0
 32 77  2  0  0  0  0
 33 36  1  0  0  0  0
 34 43  1  0  0  0  0
 35 64  1  0  0  0  0
 36 38  1  0  0  0  0
 37 39  1  0  0  0  0
 37 40  1  0  0  0  0
 38 42  1  0  0  0  0
 39 44  1  0  0  0  0
 40 65  1  0  0  0  0
 41 44  1  0  0  0  0
 41 65  1  0  0  0  0
 42 68  1  0  0  0  0
 43 64  1  0  0  0  0
 44 63  1  0  0  0  0
 45 57  1  0  0  0  0
 46 58  1  0  0  0  0
 47 59  1  0  0  0  0
 48 60  1  0  0  0  0
 49 60  1  0  0  0  0
 50 60  1  0  0  0  0
 51 61  1  0  0  0  0
 52 61  1  0  0  0  0
 53 71  1  0  0  0  0
 54 58  1  0  0  0  0
 54 59  1  0  0  0  0
 55 61  1  0  0  0  0
 55 72  1  0  0  0  0
 56 60  1  0  0  0  0
 56 69  1  0  0  0  0
 57 71  1  0  0  0  0
 58 72  1  0  0  0  0
 59 79  1  0  0  0  0
 61 70  1  0  0  0  0
 62 63  1  0  0  0  0
M  CHG  2  71   1  72   1
M  ISO  4  32 100  59 101  70 100  79 101
M  END
> <Batch ID>
0116

> <Smiles>
CNC(C)C(=O)NC(C(=O)N1Cc2cc([101O:1][101CH:1](C)CC(C)NCC(C)(C)[100NH:0][100C:0](=O)N3CCCC(n4nc(-c5ccc(Oc6ccc(F)cc6F)cc5)c(C(N)=O)c4N)C3)ccc2CC1C(=O)NC1CCCc2ccccc21)C(C)(C)C

> <Shape>
0.177

> <Color>
0.093

> <Negative vol penalty>
0.000

$$$$

  -OEChem-04052320133D

 79 87  0     1  0  0  0  0  0999 V2000
  -28.5259  -36.5698   24.0942 C   0  0  0  0  0  0  0  0  0  0  0  0
  -28.6248  -35.1821   24.0939 C   0  0  0  0  0  0  0  0  0  0  0  0
  -25.5372  -14.1982   21.9616 C   0  0  0  0  0  0  0  0  0  0  0  0
  -27.2788  -13.9309   20.3086 C   0  0  0  0  0  0  0  0  0  0  0  0
  -27.2723  -37.1782   24.1407 C   0  0  0  0  0  0  0  0  0  0  0  0
  -27.4700  -34.4020   24.1411 C   0  0  0  0  0  0  0  0  0  0  0  0
  -27.5907  -30.5520   20.8534 C   0  0  0  0  0  0  0  0  0  0  0  0
  -25.2915  -12.8256   21.9247 C   0  0  0  0  0  0  0  0  0  0  0  0
  -27.0331  -12.5584   20.2717 C   0  0  0  0  0  0  0  0  0  0  0  0
  -28.3497  -29.4370   21.2062 C   0  0  0  0  0  0  0  0  0  0  0  0
  -23.6724  -10.6386   19.9198 C   0  0  0  0  0  0  0  0  0  0  0  0
  -22.3430  -10.2202   19.8626 C   0  0  0  0  0  0  0  0  0  0  0  0
  -26.3405  -28.2966   21.9004 C   0  0  0  0  0  0  0  0  0  0  0  0
  -29.4239  -25.1322   21.4327 C   0  0  0  0  0  0  0  0  0  0  0  0
  -22.6301   -9.0239   21.9419 C   0  0  0  0  0  0  0  0  0  0  0  0
  -28.3410  -25.5210   18.9587 C   0  0  0  0  0  0  0  0  0  0  0  0
  -26.5308  -14.7508   21.1535 C   0  0  0  0  0  0  0  0  0  0  0  0
  -27.6866  -16.8490   22.0308 C   0  0  0  0  0  0  0  0  0  0  0  0
  -26.1012  -36.4051   24.1787 C   0  0  0  0  0  0  0  0  0  0  0  0
  -26.1998  -30.5517   21.0320 C   0  0  0  0  0  0  0  0  0  0  0  0
  -26.1995  -35.0006   24.1894 C   0  0  0  0  0  0  0  0  0  0  0  0
  -25.5659  -29.4119   21.5467 C   0  0  0  0  0  0  0  0  0  0  0  0
  -29.6217  -24.1752   20.4436 C   0  0  0  0  0  0  0  0  0  0  0  0
  -29.0727  -24.3655   19.1803 C   0  0  0  0  0  0  0  0  0  0  0  0
  -26.0394  -12.0057   21.0798 C   0  0  0  0  0  0  0  0  0  0  0  0
  -27.7250  -28.3102   21.7325 C   0  0  0  0  0  0  0  0  0  0  0  0
  -24.4807  -10.2495   20.9880 C   0  0  0  0  0  0  0  0  0  0  0  0
  -21.8219   -9.4129   20.8737 C   0  0  0  0  0  0  0  0  0  0  0  0
  -23.9596   -9.4422   21.9990 C   0  0  0  0  0  0  0  0  0  0  0  0
  -26.7847  -16.1687   21.1908 C   0  0  0  0  0  0  0  0  0  0  0  0
  -28.6756  -26.2530   21.1106 C   0  0  0  0  0  0  0  0  0  1  0  0
  -27.5552  -18.1698   21.6776 C   0  0  0  0  0  0  0  0  0  0  0  0
  -28.5647  -16.3332   23.0400 C   0  0  0  0  0  0  0  0  0  0  0  0
  -24.1595  -32.2724   22.7583 C   0  0  0  0  0  0  0  0  0  0  0  0
  -21.9398  -30.5552   21.1315 C   0  0  0  0  0  0  0  0  0  0  0  0
  -21.1720  -27.7187   19.3961 C   0  0  0  0  0  0  0  0  0  0  0  0
  -27.1174  -22.1467   17.7868 C   0  0  0  0  0  0  0  0  0  0  0  0
  -24.7702  -37.1078   24.2759 C   0  0  0  0  0  0  0  0  0  0  0  0
  -25.3923  -31.7525   20.6215 C   0  0  0  0  0  0  0  0  0  0  0  0
  -24.0732  -29.3534   21.7392 C   0  0  0  0  0  0  0  0  0  0  0  0
  -23.5813  -36.2090   23.9459 C   0  0  0  0  0  0  0  0  0  0  0  0
  -24.1286  -20.4705   18.7532 C   0  0  0  0  0  0  0  0  0  0  0  0
  -23.7090  -34.8696   24.6645 C   0  0  0  0  0  0  0  0  0  0  0  0
  -24.6277  -19.2554   19.5370 C   0  0  0  0  0  0  0  0  0  0  0  0
  -25.0477  -20.8014   17.5794 C   0  0  0  0  0  0  0  0  0  0  0  0
  -26.9679  -19.7580   18.7187 C   0  0  0  0  0  0  0  0  0  0  0  0
  -24.9690  -34.1201   24.2148 C   0  0  1  0  0  0  0  0  0  0  0  0
  -24.0416  -31.8335   21.3261 C   0  0  1  0  0  0  0  0  0  0  0  0
  -26.1040  -19.4195   19.9456 C   0  0  2  0  0  0  0  0  0  0  0  0
  -30.4237  -22.9562   20.7577 C   0  0  0  0  0  0  0  0  0  0  0  0
  -19.2672  -26.5822   18.2225 C   0  0  0  0  0  0  0  0  0  0  0  0
  -20.7394  -29.7865   23.8293 C   0  0  0  0  0  0  0  0  0  0  0  0
  -19.4903  -27.9511   22.6720 C   0  0  0  0  0  0  0  0  0  0  0  0
  -19.0604  -30.3302   22.0573 C   0  0  0  0  0  0  0  0  0  0  0  0
  -22.6056  -27.7345   16.8070 C   0  0  0  0  0  0  0  0  0  0  0  0
  -29.2541  -23.3735   18.0844 C   0  0  0  0  0  0  0  0  0  0  0  0
  -21.2310  -29.2411   21.3540 C   0  0  1  0  0  0  0  0  0  0  0  0
  -20.4627  -27.5098   18.0704 C   0  0  2  0  0  0  0  0  0  0  0  0
  -20.1586  -29.3287   22.4764 C   0  0  0  0  0  0  0  0  0  0  0  0
  -28.1273  -26.4730   19.8946 N   0  0  0  0  0  0  0  0  0  0  0  0
  -26.1287  -16.9895   20.3662 N   0  0  0  0  0  0  0  0  0  0  0  0
  -26.6188  -18.1992   20.6864 N   0  0  0  0  0  0  0  0  0  0  0  0
  -23.3279  -30.5549   21.3287 N   0  0  0  0  0  0  0  0  0  0  0  0
  -26.4325  -20.9456   18.0348 N   0  0  0  0  0  0  0  0  0  0  0  0
  -28.1503  -19.2973   22.1213 N   0  0  0  0  0  0  0  0  0  0  0  0
  -28.5743  -14.9514   23.2746 N   0  0  0  0  0  0  0  0  0  0  0  0
  -24.7577  -33.5073   22.9208 N   0  0  0  0  0  0  0  0  0  0  0  0
  -20.7046  -28.8361   20.0550 N   0  0  0  0  0  0  0  0  0  0  0  0
  -28.4236  -22.2025   18.2573 N   0  0  0  0  0  0  0  0  0  0  0  0
  -21.3953  -26.9147   17.0720 N   0  3  0  0  0  0  0  0  0  0  0  0
  -29.3065  -17.0774   23.7251 O   0  0  0  0  0  0  0  0  0  0  0  0
  -23.7375  -31.5451   23.6498 O   0  0  0  0  0  0  0  0  0  0  0  0
  -21.2869  -31.5439   20.7881 O   0  0  0  0  0  0  0  0  0  0  0  0
  -22.0502  -26.9638   19.8079 O   0  0  0  0  0  0  0  0  0  0  0  0
  -26.6011  -23.1007   17.1950 O   0  0  0  0  0  0  0  0  0  0  0  0
  -25.8001  -10.6663   21.0437 O   0  0  0  0  0  0  0  0  0  0  0  0
  -28.4635  -27.2207   22.0783 O   0  0  0  0  0  0  0  0  0  1  0  0
  -20.5448   -9.0125   20.8195 F   0  0  0  0  0  0  0  0  0  0  0  0
  -24.7309   -9.0662   23.0284 F   0  0  0  0  0  0  0  0  0  0  0  0
  1  2  1  0  0  0  0
  1  5  2  0  0  0  0
  2  6  2  0  0  0  0
  3  8  2  0  0  0  0
  3 17  1  0  0  0  0
  4  9  1  0  0  0  0
  4 17  2  0  0  0  0
  5 19  1  0  0  0  0
  6 21  1  0  0  0  0
  7 10  2  0  0  0  0
  7 20  1  0  0  0  0
  8 25  1  0  0  0  0
  9 25  2  0  0  0  0
 10 26  1  0  0  0  0
 11 12  2  0  0  0  0
 11 27  1  0  0  0  0
 12 28  1  0  0  0  0
 13 22  1  0  0  0  0
 13 26  2  0  0  0  0
 14 23  2  0  0  0  0
 14 31  1  0  0  0  0
 15 28  2  0  0  0  0
 15 29  1  0  0  0  0
 16 24  2  0  0  0  0
 16 60  1  0  0  0  0
 17 30  1  0  0  0  0
 18 30  1  0  0  0  0
 18 32  2  0  0  0  0
 18 33  1  0  0  0  0
 19 21  2  0  0  0  0
 19 38  1  0  0  0  0
 20 22  2  0  0  0  0
 20 39  1  0  0  0  0
 21 47  1  0  0  0  0
 22 40  1  0  0  0  0
 23 24  1  0  0  0  0
 23 50  1  0  0  0  0
 24 56  1  0  0  0  0
 25 76  1  0  0  0  0
 26 77  1  0  0  0  0
 27 29  2  0  0  0  0
 27 76  1  0  0  0  0
 28 78  1  0  0  0  0
 29 79  1  0  0  0  0
 30 61  2  0  0  0  0
 31 60  2  0  0  0  0
 31 77  1  0  0  0  0
 32 62  1  0  0  0  0
 32 65  1  0  0  0  0
 33 66  1  0  0  0  0
 33 71  2  0  0  0  0
 34 48  1  0  0  0  0
 34 67  1  0  0  0  0
 34 72  2  0  0  0  0
 35 57  1  0  0  0  0
 35 63  1  0  0  0  0
 35 73  2  0  0  0  0
 36 58  1  0  0  0  0
 36 68  1  0  0  0  0
 36 74  2  0  0  0  0
 37 64  1  0  0  0  0
 37 69  1  0  0  0  0
 37 75  2  0  0  0  0
 38 41  1  0  0  0  0
 39 48  1  0  0  0  0
 40 63  1  0  0  0  0
 41 43  1  0  0  0  0
 42 44  1  0  0  0  0
 42 45  1  0  0  0  0
 43 47  1  0  0  0  0
 44 49  1  0  0  0  0
 45 64  1  0  0  0  0
 46 49  1  0  0  0  0
 46 64  1  0  0  0  0
 47 67  1  0  0  0  0
 48 63  1  0  0  0  0
 49 62  1  0  0  0  0
 51 58  1  0  0  0  0
 52 59  1  0  0  0  0
 53 59  1  0  0  0  0
 54 59  1  0  0  0  0
 55 70  1  0  0  0  0
 56 69  1  0  0  0  0
 57 59  1  0  0  0  0
 57 68  1  0  0  0  0
 58 70  1  0  0  0  0
 61 62  1  0  0  0  0
M  CHG  1  70   1
M  ISO  4  31 101  37 100  69 100  77 101
M  END
> <Batch ID>
0116

> <Smiles>
CNC(C)C(=O)NC(C(=O)N1Cc2cc([101O:1][101c:1]3cc(C)c(C[100NH:0][100C:0](=O)N4CCCC(n5nc(-c6ccc(Oc7ccc(F)cc7F)cc6)c(C(N)=O)c5N)C4)cn3)ccc2CC1C(=O)NC1CCCc2ccccc21)C(C)(C)C

> <Shape>
0.278

> <Color>
0.068

> <Negative vol penalty>
0.000

$$$$

  -OEChem-04052320133D

 87 95  0     1  0  0  0  0  0999 V2000
  -33.7953  -24.1785   14.2979 C   0  0  0  0  0  0  0  0  0  0  0  0
  -32.5415  -24.3422   14.8759 C   0  0  0  0  0  0  0  0  0  0  0  0
  -23.0734   -9.8690   19.9456 C   0  0  0  0  0  0  0  0  0  0  0  0
  -23.8340   -9.8805   22.2387 C   0  0  0  0  0  0  0  0  0  0  0  0
  -34.8594  -23.7165   15.0695 C   0  0  0  0  0  0  0  0  0  0  0  0
  -32.3542  -24.0554   16.2285 C   0  0  0  0  0  0  0  0  0  0  0  0
  -27.2951  -24.1033   19.6242 C   0  0  0  0  0  0  0  0  0  0  0  0
  -22.3300   -8.7160   20.1979 C   0  0  0  0  0  0  0  0  0  0  0  0
  -23.0907   -8.7275   22.4911 C   0  0  0  0  0  0  0  0  0  0  0  0
  -26.3035  -23.2008   20.0061 C   0  0  0  0  0  0  0  0  0  0  0  0
  -22.9037   -5.3983   20.4948 C   0  0  0  0  0  0  0  0  0  0  0  0
  -22.9707   -4.3670   19.5580 C   0  0  0  0  0  0  0  0  0  0  0  0
  -27.4734  -22.8013   22.0776 C   0  0  0  0  0  0  0  0  0  0  0  0
  -27.0462  -18.7387   19.5788 C   0  0  0  0  0  0  0  0  0  0  0  0
  -20.5860   -4.5313   19.2068 C   0  0  0  0  0  0  0  0  0  0  0  0
  -28.3694  -18.7606   21.9651 C   0  0  0  0  0  0  0  0  0  0  0  0
  -23.8254  -10.4512   20.9660 C   0  0  0  0  0  0  0  0  0  0  0  0
  -24.1662  -12.9763   20.8412 C   0  0  0  0  0  0  0  0  0  0  0  0
  -34.6812  -23.4123   16.4292 C   0  0  0  0  0  0  0  0  0  0  0  0
  -28.3907  -24.3539   20.4627 C   0  0  0  0  0  0  0  0  0  0  0  0
  -33.4213  -23.6109   17.0298 C   0  0  0  0  0  0  0  0  0  0  0  0
  -28.4762  -23.7094   21.7051 C   0  0  0  0  0  0  0  0  0  0  0  0
  -28.3938  -18.3982   19.6146 C   0  0  0  0  0  0  0  0  0  0  0  0
  -29.0753  -18.4069   20.8265 C   0  0  0  0  0  0  0  0  0  0  0  0
  -22.3386   -8.1453   21.4707 C   0  0  0  0  0  0  0  0  0  0  0  0
  -26.3940  -22.5474   21.2317 C   0  0  0  0  0  0  0  0  0  0  0  0
  -21.6779   -5.9961   20.7876 C   0  0  0  0  0  0  0  0  0  0  0  0
  -21.8118   -3.9335   18.9140 C   0  0  0  0  0  0  0  0  0  0  0  0
  -20.5190   -5.5626   20.1436 C   0  0  0  0  0  0  0  0  0  0  0  0
  -24.5940  -11.6419   20.7058 C   0  0  0  0  0  0  0  0  0  0  0  0
  -26.4310  -19.0774   20.7733 C   0  0  0  0  0  0  0  0  0  0  0  0
  -25.2580  -13.7255   20.4762 C   0  0  0  0  0  0  0  0  0  0  0  0
  -22.8957  -13.4924   21.2596 C   0  0  0  0  0  0  0  0  0  0  0  0
  -31.5359  -23.9627   20.2211 C   0  0  0  0  0  0  0  0  0  0  0  0
  -31.5562  -25.5247   23.0640 C   0  0  0  0  0  0  0  0  0  0  0  0
  -29.8761  -26.3925   25.9050 C   0  0  0  0  0  0  0  0  0  0  0  0
  -30.7414  -14.7471   20.6608 C   0  0  0  0  0  0  0  0  0  0  0  0
  -35.8691  -22.9230   17.2196 C   0  0  0  0  0  0  0  0  0  0  0  0
  -29.4383  -25.3504   20.0479 C   0  0  0  0  0  0  0  0  0  0  0  0
  -29.6218  -23.9586   22.6506 C   0  0  0  0  0  0  0  0  0  0  0  0
  -35.4736  -22.2281   18.5184 C   0  0  0  0  0  0  0  0  0  0  0  0
  -29.6039  -12.3577   18.2788 C   0  0  0  0  0  0  0  0  0  0  0  0
  -34.4842  -23.0898   19.2885 C   0  0  0  0  0  0  0  0  0  0  0  0
  -28.1667  -12.0642   18.7127 C   0  0  0  0  0  0  0  0  0  0  0  0
  -30.5213  -12.5811   19.4789 C   0  0  0  0  0  0  0  0  0  0  0  0
  -28.6198  -13.3140   20.8648 C   0  0  0  0  0  0  0  0  0  0  0  0
  -33.1867  -23.2762   18.4918 C   0  0  1  0  0  0  0  0  0  0  0  0
  -30.7740  -25.1425   20.7550 C   0  0  1  0  0  0  0  0  0  0  0  0
  -27.6453  -13.1369   19.6879 C   0  0  2  0  0  0  0  0  0  0  0  0
  -32.2358  -19.7320   15.0509 C   0  0  0  0  0  0  0  0  0  0  0  0
  -30.1670  -27.6421   28.0616 C   0  0  0  0  0  0  0  0  0  0  0  0
  -23.2755  -21.3118   20.6180 C   0  0  0  0  0  0  0  0  0  0  0  0
  -33.1928  -23.2059   24.1842 C   0  0  0  0  0  0  0  0  0  0  0  0
  -32.6420  -24.0207   26.4866 C   0  0  0  0  0  0  0  0  0  0  0  0
  -33.9458  -25.4708   24.9309 C   0  0  0  0  0  0  0  0  0  0  0  0
  -27.7188  -28.3008   25.2246 C   0  0  0  0  0  0  0  0  0  0  0  0
  -30.5185  -18.0514   20.9217 C   0  0  0  0  0  0  0  0  0  0  0  0
  -29.0859  -18.0280   18.3448 C   0  0  0  0  0  0  0  0  0  0  0  0
  -24.9680  -19.4532   20.7726 C   0  0  0  0  0  0  0  0  0  0  0  0
  -31.4832  -19.9801   16.3458 C   0  0  0  0  0  0  0  0  0  0  0  0
  -30.8068  -16.8999   21.8937 C   0  0  0  0  0  0  0  0  0  0  0  0
  -30.5995  -18.8005   16.7216 C   0  0  0  0  0  0  0  0  0  0  0  0
  -31.4788  -25.1085   24.5131 C   0  0  1  0  0  0  0  0  0  0  0  0
  -29.7146  -27.7260   26.6121 C   0  0  2  0  0  0  0  0  0  0  0  0
  -24.7560  -20.9568   20.5660 C   0  0  2  0  0  0  0  0  0  1  0  0
  -32.7941  -24.4451   25.0102 C   0  0  0  0  0  0  0  0  0  0  0  0
  -27.0601  -19.0973   21.9697 N   0  0  0  0  0  0  0  0  0  0  0  0
  -25.8587  -11.5458   20.2872 N   0  0  0  0  0  0  0  0  0  0  0  0
  -26.2351  -12.8293   20.1564 N   0  0  0  0  0  0  0  0  0  0  0  0
  -30.6241  -24.9370   22.1971 N   0  0  0  0  0  0  0  0  0  0  0  0
  -29.9707  -13.6110   20.3632 N   0  0  0  0  0  0  0  0  0  0  0  0
  -25.4678  -15.0569   20.4006 N   0  0  0  0  0  0  0  0  0  0  0  0
  -21.8842  -12.5834   21.5989 N   0  0  0  0  0  0  0  0  0  0  0  0
  -32.3628  -24.2625   19.1553 N   0  0  0  0  0  0  0  0  0  0  0  0
  -31.0913  -26.3003   25.2599 N   0  0  0  0  0  0  0  0  0  0  0  0
  -30.1421  -15.6772   21.5013 N   0  0  0  0  0  0  0  0  0  0  0  0
  -28.2875  -28.1549   26.5893 N   0  3  0  0  0  0  0  0  0  0  0  0
  -22.6590  -14.7230   21.3147 O   0  0  0  0  0  0  0  0  0  0  0  0
  -31.3860  -22.8621   20.7388 O   0  0  0  0  0  0  0  0  0  0  0  0
  -32.4076  -26.3465   22.7155 O   0  0  0  0  0  0  0  0  0  0  0  0
  -29.0124  -25.5184   25.9261 O   0  0  0  0  0  0  0  0  0  0  0  0
  -31.8771  -14.9221   20.2064 O   0  0  0  0  0  0  0  0  0  0  0  0
  -21.6132   -7.0204   21.7173 O   0  0  0  0  0  0  0  0  0  0  0  0
  -25.4278  -21.6655   21.6066 O   0  0  0  0  0  0  0  0  0  1  0  0
  -29.9166  -19.1048   17.9300 O   0  0  0  0  0  0  0  0  0  0  0  0
  -21.8765   -2.9442   18.0133 F   0  0  0  0  0  0  0  0  0  0  0  0
  -19.3387   -6.1338   20.4200 F   0  0  0  0  0  0  0  0  0  0  0  0
  1  2  1  0  0  0  0
  1  5  2  0  0  0  0
  2  6  2  0  0  0  0
  3  8  2  0  0  0  0
  3 17  1  0  0  0  0
  4  9  1  0  0  0  0
  4 17  2  0  0  0  0
  5 19  1  0  0  0  0
  6 21  1  0  0  0  0
  7 10  2  0  0  0  0
  7 20  1  0  0  0  0
  8 25  1  0  0  0  0
  9 25  2  0  0  0  0
 10 26  1  0  0  0  0
 11 12  2  0  0  0  0
 11 27  1  0  0  0  0
 12 28  1  0  0  0  0
 13 22  1  0  0  0  0
 13 26  2  0  0  0  0
 14 23  1  0  0  0  0
 14 31  2  0  0  0  0
 15 28  2  0  0  0  0
 15 29  1  0  0  0  0
 16 24  1  0  0  0  0
 16 67  2  0  0  0  0
 17 30  1  0  0  0  0
 18 30  1  0  0  0  0
 18 32  2  0  0  0  0
 18 33  1  0  0  0  0
 19 21  2  0  0  0  0
 19 38  1  0  0  0  0
 20 22  2  0  0  0  0
 20 39  1  0  0  0  0
 21 47  1  0  0  0  0
 22 40  1  0  0  0  0
 23 24  2  0  0  0  0
 23 58  1  0  0  0  0
 24 57  1  0  0  0  0
 25 83  1  0  0  0  0
 26 84  1  0  0  0  0
 27 29  2  0  0  0  0
 27 83  1  0  0  0  0
 28 86  1  0  0  0  0
 29 87  1  0  0  0  0
 30 68  2  0  0  0  0
 31 59  1  0  0  0  0
 31 67  1  0  0  0  0
 32 69  1  0  0  0  0
 32 72  1  0  0  0  0
 33 73  1  0  0  0  0
 33 78  2  0  0  0  0
 34 48  1  0  0  0  0
 34 74  1  0  0  0  0
 34 79  2  0  0  0  0
 35 63  1  0  0  0  0
 35 70  1  0  0  0  0
 35 80  2  0  0  0  0
 36 64  1  0  0  0  0
 36 75  1  0  0  0  0
 36 81  2  0  0  0  0
 37 71  1  0  0  0  0
 37 76  1  0  0  0  0
 37 82  2  0  0  0  0
 38 41  1  0  0  0  0
 39 48  1  0  0  0  0
 40 70  1  0  0  0  0
 41 43  1  0  0  0  0
 42 44  1  0  0  0  0
 42 45  1  0  0  0  0
 43 47  1  0  0  0  0
 44 49  1  0  0  0  0
 45 71  1  0  0  0  0
 46 49  1  0  0  0  0
 46 71  1  0  0  0  0
 47 74  1  0  0  0  0
 48 70  1  0  0  0  0
 49 69  1  0  0  0  0
 50 60  1  0  0  0  0
 51 64  1  0  0  0  0
 52 65  1  0  0  0  0
 53 66  1  0  0  0  0
 54 66  1  0  0  0  0
 55 66  1  0  0  0  0
 56 77  1  0  0  0  0
 57 61  1  0  0  0  0
 58 85  1  0  0  0  0
 59 65  1  0  0  0  0
 60 62  1  0  0  0  0
 61 76  1  0  0  0  0
 62 85  1  0  0  0  0
 63 66  1  0  0  0  0
 63 75  1  0  0  0  0
 64 77  1  0  0  0  0
 65 84  1  0  0  0  0
 68 69  1  0  0  0  0
M  CHG  1  77   1
M  ISO  4  37 100  65 101  76 100  84 101
M  END
> <Batch ID>
0116

> <Smiles>
CCCOCc1cc(C[101CH:1](C)[101O:1]c2ccc3c(c2)CN(C(=O)C(NC(=O)C(C)NC)C(C)(C)C)C(C(=O)NC2CCCc4ccccc42)C3)ncc1CC[100NH:0][100C:0](=O)N1CCCC(n2nc(-c3ccc(Oc4ccc(F)cc4F)cc3)c(C(N)=O)c2N)C1

> <Shape>
0.209

> <Color>
0.188

> <Negative vol penalty>
0.000

$$$$

  -OEChem-04052320133D

 78 85  0     1  0  0  0  0  0999 V2000
  -28.2064  -25.0696   16.3517 C   0  0  0  0  0  0  0  0  0  0  0  0
  -27.0287  -25.1933   17.0819 C   0  0  0  0  0  0  0  0  0  0  0  0
  -27.3360  -19.9721   22.3748 C   0  0  0  0  0  0  0  0  0  0  0  0
  -26.3622  -21.2408   20.5639 C   0  0  0  0  0  0  0  0  0  0  0  0
  -29.3966  -25.5912   16.8568 C   0  0  0  0  0  0  0  0  0  0  0  0
  -27.0408  -25.8379   18.3184 C   0  0  0  0  0  0  0  0  0  0  0  0
  -23.1724  -29.0594   18.8678 C   0  0  0  0  0  0  0  0  0  0  0  0
  -28.0725  -19.2251   21.4554 C   0  0  0  0  0  0  0  0  0  0  0  0
  -27.0988  -20.4938   19.6445 C   0  0  0  0  0  0  0  0  0  0  0  0
  -21.9268  -28.5125   19.1733 C   0  0  0  0  0  0  0  0  0  0  0  0
  -27.5323  -16.6437   19.3415 C   0  0  0  0  0  0  0  0  0  0  0  0
  -27.5723  -15.2603   19.5155 C   0  0  0  0  0  0  0  0  0  0  0  0
  -22.2511  -29.0853   21.4940 C   0  0  0  0  0  0  0  0  0  0  0  0
  -29.9762  -15.3577   19.7364 C   0  0  0  0  0  0  0  0  0  0  0  0
  -26.4808  -20.9799   21.9290 C   0  0  0  0  0  0  0  0  0  0  0  0
  -26.1085  -22.9489   23.5075 C   0  0  0  0  0  0  0  0  0  0  0  0
  -29.4214  -26.2510   18.0957 C   0  0  0  0  0  0  0  0  0  0  0  0
  -23.9727  -29.6145   19.8767 C   0  0  0  0  0  0  0  0  0  0  0  0
  -28.2328  -26.3677   18.8412 C   0  0  0  0  0  0  0  0  0  0  0  0
  -23.5053  -29.6409   21.1984 C   0  0  0  0  0  0  0  0  0  0  0  0
  -27.9539  -19.4860   20.0903 C   0  0  0  0  0  0  0  0  0  0  0  0
  -21.4673  -28.5228   20.4870 C   0  0  0  0  0  0  0  0  0  0  0  0
  -28.7142  -17.3841   19.3650 C   0  0  0  0  0  0  0  0  0  0  0  0
  -28.7943  -14.6173   19.7129 C   0  0  0  0  0  0  0  0  0  0  0  0
  -29.9362  -16.7411   19.5625 C   0  0  0  0  0  0  0  0  0  0  0  0
  -25.7192  -21.7514   22.8781 C   0  0  0  0  0  0  0  0  0  0  0  0
  -25.0430  -23.2775   24.3095 C   0  0  0  0  0  0  0  0  0  0  0  0
  -27.3246  -23.6975   23.3787 C   0  0  0  0  0  0  0  0  0  0  0  0
  -26.8455  -28.9656   21.0725 C   0  0  0  0  0  0  0  0  0  0  0  0
  -26.3344  -31.6951   22.7491 C   0  0  0  0  0  0  0  0  0  0  0  0
  -24.0976  -33.9190   24.0523 C   0  0  0  0  0  0  0  0  0  0  0  0
  -19.2039  -21.9746   24.0682 C   0  0  0  0  0  0  0  0  0  0  0  0
  -30.7411  -26.7569   18.6223 C   0  0  0  0  0  0  0  0  0  0  0  0
  -25.3023  -30.2244   19.5266 C   0  0  0  0  0  0  0  0  0  0  0  0
  -24.3174  -30.2431   22.3148 C   0  0  0  0  0  0  0  0  0  0  0  0
  -30.5972  -27.7551   19.7683 C   0  0  0  0  0  0  0  0  0  0  0  0
  -21.4413  -21.2887   26.7516 C   0  0  0  0  0  0  0  0  0  0  0  0
  -29.5928  -27.2456   20.7971 C   0  0  0  0  0  0  0  0  0  0  0  0
  -22.8265  -21.4376   26.1199 C   0  0  0  0  0  0  0  0  0  0  0  0
  -20.4395  -20.6741   25.7765 C   0  0  0  0  0  0  0  0  0  0  0  0
  -21.7208  -21.5140   23.8461 C   0  0  0  0  0  0  0  0  0  0  0  0
  -28.2007  -27.0819   20.1750 C   0  0  1  0  0  0  0  0  0  0  0  0
  -26.2561  -30.3007   20.7147 C   0  0  1  0  0  0  0  0  0  0  0  0
  -22.7515  -22.1812   24.7728 C   0  0  2  0  0  0  0  0  0  0  0  0
  -23.9783  -36.0296   25.4045 C   0  0  0  0  0  0  0  0  0  0  0  0
  -26.9337  -30.1032   25.2823 C   0  0  0  0  0  0  0  0  0  0  0  0
  -25.8921  -31.9540   26.6082 C   0  0  0  0  0  0  0  0  0  0  0  0
  -27.9256  -32.3985   25.2334 C   0  0  0  0  0  0  0  0  0  0  0  0
  -18.9507  -23.0288   19.9176 C   0  0  0  0  0  0  0  0  0  0  0  0
  -17.0739  -24.5954   20.4059 C   0  0  0  0  0  0  0  0  0  0  0  0
  -22.7835  -35.3940   21.8486 C   0  0  0  0  0  0  0  0  0  0  0  0
  -19.0459  -26.3195   22.0576 C   0  0  0  0  0  0  0  0  0  0  0  0
  -19.4465  -25.1791   21.1098 C   0  0  0  0  0  0  0  0  0  0  0  0
  -18.1087  -23.3051   22.2823 C   0  0  0  0  0  0  0  0  0  0  0  0
  -20.0937  -27.4284   22.0906 C   0  0  0  0  0  0  0  0  0  1  0  0
  -25.7060  -32.0304   24.0802 C   0  0  1  0  0  0  0  0  0  0  0  0
  -24.0414  -35.4353   24.0061 C   0  0  2  0  0  0  0  0  0  0  0  0
  -26.5997  -31.6084   25.2805 C   0  0  0  0  0  0  0  0  0  0  0  0
  -18.4029  -24.0364   20.9519 C   0  0  0  0  0  0  0  0  0  0  0  0
  -24.5015  -21.3464   23.2485 N   0  0  0  0  0  0  0  0  0  0  0  0
  -24.1165  -22.2948   24.1194 N   0  0  0  0  0  0  0  0  0  0  0  0
  -25.6134  -30.8214   21.9230 N   0  0  0  0  0  0  0  0  0  0  0  0
  -20.4158  -21.4269   24.5201 N   0  0  0  0  0  0  0  0  0  0  0  0
  -24.8176  -24.3081   25.1518 N   0  0  0  0  0  0  0  0  0  0  0  0
  -28.3154  -23.2182   22.5111 N   0  0  0  0  0  0  0  0  0  0  0  0
  -27.5507  -28.3684   20.0452 N   0  0  0  0  0  0  0  0  0  0  0  0
  -25.3961  -33.4554   24.0380 N   0  0  0  0  0  0  0  0  0  0  0  0
  -19.2707  -22.6784   22.8720 N   0  0  0  0  0  0  0  0  0  0  0  0
  -22.8394  -35.8862   23.2492 N   0  3  0  0  0  0  0  0  0  0  0  0
  -27.5332  -24.7512   24.0265 O   0  0  0  0  0  0  0  0  0  0  0  0
  -26.6743  -28.5117   22.1979 O   0  0  0  0  0  0  0  0  0  0  0  0
  -27.4214  -32.1959   22.4503 O   0  0  0  0  0  0  0  0  0  0  0  0
  -23.0905  -33.2162   24.1004 O   0  0  0  0  0  0  0  0  0  0  0  0
  -18.1420  -21.8506   24.6879 O   0  0  0  0  0  0  0  0  0  0  0  0
  -28.6727  -18.7575   19.1930 O   0  0  0  0  0  0  0  0  0  0  0  0
  -20.2522  -27.9890   20.7879 O   0  0  0  0  0  0  0  0  0  1  0  0
  -28.8325  -13.2890   19.8815 F   0  0  0  0  0  0  0  0  0  0  0  0
  -31.0748  -17.4472   19.5872 F   0  0  0  0  0  0  0  0  0  0  0  0
  1  2  1  0  0  0  0
  1  5  2  0  0  0  0
  2  6  2  0  0  0  0
  3  8  2  0  0  0  0
  3 15  1  0  0  0  0
  4  9  1  0  0  0  0
  4 15  2  0  0  0  0
  5 17  1  0  0  0  0
  6 19  1  0  0  0  0
  7 10  2  0  0  0  0
  7 18  1  0  0  0  0
  8 21  1  0  0  0  0
  9 21  2  0  0  0  0
 10 22  1  0  0  0  0
 11 12  2  0  0  0  0
 11 23  1  0  0  0  0
 12 24  1  0  0  0  0
 13 20  1  0  0  0  0
 13 22  2  0  0  0  0
 14 24  2  0  0  0  0
 14 25  1  0  0  0  0
 15 26  1  0  0  0  0
 16 26  1  0  0  0  0
 16 27  2  0  0  0  0
 16 28  1  0  0  0  0
 17 19  2  0  0  0  0
 17 33  1  0  0  0  0
 18 20  2  0  0  0  0
 18 34  1  0  0  0  0
 19 42  1  0  0  0  0
 20 35  1  0  0  0  0
 21 75  1  0  0  0  0
 22 76  1  0  0  0  0
 23 25  2  0  0  0  0
 23 75  1  0  0  0  0
 24 77  1  0  0  0  0
 25 78  1  0  0  0  0
 26 60  2  0  0  0  0
 27 61  1  0  0  0  0
 27 64  1  0  0  0  0
 28 65  1  0  0  0  0
 28 70  2  0  0  0  0
 29 43  1  0  0  0  0
 29 66  1  0  0  0  0
 29 71  2  0  0  0  0
 30 56  1  0  0  0  0
 30 62  1  0  0  0  0
 30 72  2  0  0  0  0
 31 57  1  0  0  0  0
 31 67  1  0  0  0  0
 31 73  2  0  0  0  0
 32 63  1  0  0  0  0
 32 68  1  0  0  0  0
 32 74  2  0  0  0  0
 33 36  1  0  0  0  0
 34 43  1  0  0  0  0
 35 62  1  0  0  0  0
 36 38  1  0  0  0  0
 37 39  1  0  0  0  0
 37 40  1  0  0  0  0
 38 42  1  0  0  0  0
 39 44  1  0  0  0  0
 40 63  1  0  0  0  0
 41 44  1  0  0  0  0
 41 63  1  0  0  0  0
 42 66  1  0  0  0  0
 43 62  1  0  0  0  0
 44 61  1  0  0  0  0
 45 57  1  0  0  0  0
 46 58  1  0  0  0  0
 47 58  1  0  0  0  0
 48 58  1  0  0  0  0
 49 59  1  0  0  0  0
 50 59  1  0  0  0  0
 51 69  1  0  0  0  0
 52 53  1  0  0  0  0
 52 55  1  0  0  0  0
 53 59  1  0  0  0  0
 54 59  1  0  0  0  0
 54 68  1  0  0  0  0
 55 76  1  0  0  0  0
 56 58  1  0  0  0  0
 56 67  1  0  0  0  0
 57 69  1  0  0  0  0
 60 61  1  0  0  0  0
M  CHG  1  69   1
M  ISO  4  32 100  55 101  68 100  76 101
M  END
> <Batch ID>
0116

> <Smiles>
CNC(C)C(=O)NC(C(=O)N1Cc2cc([101O:1][101CH2:1]CCC(C)(C)C[100NH:0][100C:0](=O)N3CCCC(n4nc(-c5ccc(Oc6ccc(F)cc6F)cc5)c(C(N)=O)c4N)C3)ccc2CC1C(=O)NC1CCCc2ccccc21)C(C)(C)C

> <Shape>
0.248

> <Color>
0.058

> <Negative vol penalty>
0.000

$$$$

  -OEChem-04052320133D

 85 93  0     1  0  0  0  0  0999 V2000
  -25.3478  -23.8094   14.1684 C   0  0  0  0  0  0  0  0  0  0  0  0
  -24.6378  -23.9506   15.3564 C   0  0  0  0  0  0  0  0  0  0  0  0
  -24.5691   -9.2164   21.7321 C   0  0  0  0  0  0  0  0  0  0  0  0
  -22.9283  -10.3252   20.3482 C   0  0  0  0  0  0  0  0  0  0  0  0
  -26.7246  -24.0284   14.1502 C   0  0  0  0  0  0  0  0  0  0  0  0
  -25.3045  -24.3098   16.5273 C   0  0  0  0  0  0  0  0  0  0  0  0
  -22.8485  -27.8837   19.1427 C   0  0  0  0  0  0  0  0  0  0  0  0
  -23.7417   -8.0966   21.8160 C   0  0  0  0  0  0  0  0  0  0  0  0
  -22.1008   -9.2054   20.4320 C   0  0  0  0  0  0  0  0  0  0  0  0
  -21.7513  -27.4772   19.9008 C   0  0  0  0  0  0  0  0  0  0  0  0
  -20.9923   -7.1552   23.5419 C   0  0  0  0  0  0  0  0  0  0  0  0
  -20.8231   -6.5677   24.7957 C   0  0  0  0  0  0  0  0  0  0  0  0
  -23.1242  -27.4911   21.8843 C   0  0  0  0  0  0  0  0  0  0  0  0
  -21.7337   -4.4967   23.9479 C   0  0  0  0  0  0  0  0  0  0  0  0
  -24.1624  -10.3307   20.9983 C   0  0  0  0  0  0  0  0  0  0  0  0
  -26.3218  -11.5439   20.3879 C   0  0  0  0  0  0  0  0  0  0  0  0
  -27.4070  -24.3999   15.3194 C   0  0  0  0  0  0  0  0  0  0  0  0
  -24.0966  -28.0868   19.7490 C   0  0  0  0  0  0  0  0  0  0  0  0
  -26.6919  -24.5327   16.5250 C   0  0  0  0  0  0  0  0  0  0  0  0
  -24.2350  -27.9027   21.1321 C   0  0  0  0  0  0  0  0  0  0  0  0
  -22.5076   -8.0910   21.1659 C   0  0  0  0  0  0  0  0  0  0  0  0
  -21.8897  -27.2780   21.2713 C   0  0  0  0  0  0  0  0  0  0  0  0
  -21.5320   -6.4135   22.4912 C   0  0  0  0  0  0  0  0  0  0  0  0
  -21.1939   -5.2385   24.9987 C   0  0  0  0  0  0  0  0  0  0  0  0
  -21.9028   -5.0842   22.6942 C   0  0  0  0  0  0  0  0  0  0  0  0
  -25.0164  -11.4880   20.9118 C   0  0  0  0  0  0  0  0  0  0  0  0
  -26.6948  -12.8576   20.5348 C   0  0  0  0  0  0  0  0  0  0  0  0
  -27.1254  -10.5015   19.8192 C   0  0  0  0  0  0  0  0  0  0  0  0
  -26.9772  -26.7776   19.4460 C   0  0  0  0  0  0  0  0  0  0  0  0
  -27.8367  -29.1358   21.5008 C   0  0  0  0  0  0  0  0  0  0  0  0
  -26.9048  -31.3427   23.9315 C   0  0  0  0  0  0  0  0  0  0  0  0
  -23.2790  -17.7894   21.0482 C   0  0  0  0  0  0  0  0  0  0  0  0
  -28.9032  -24.5798   15.2606 C   0  0  0  0  0  0  0  0  0  0  0  0
  -25.2638  -28.5512   18.9217 C   0  0  0  0  0  0  0  0  0  0  0  0
  -25.5484  -28.1269   21.8344 C   0  0  0  0  0  0  0  0  0  0  0  0
  -29.4752  -25.3231   16.4651 C   0  0  0  0  0  0  0  0  0  0  0  0
  -25.0254  -15.8149   23.8466 C   0  0  0  0  0  0  0  0  0  0  0  0
  -23.0314  -21.7749   19.0961 C   0  0  0  0  0  0  0  0  0  0  0  0
  -28.8974  -24.7636   17.7612 C   0  0  0  0  0  0  0  0  0  0  0  0
  -26.0791  -15.2343   22.9082 C   0  0  0  0  0  0  0  0  0  0  0  0
  -23.5309  -20.9518   20.2833 C   0  0  0  0  0  0  0  0  0  0  0  0
  -21.7075  -20.9723   22.0645 C   0  0  0  0  0  0  0  0  0  0  0  0
  -24.3477  -17.0303   23.2213 C   0  0  0  0  0  0  0  0  0  0  0  0
  -24.0827  -15.4550   21.3053 C   0  0  0  0  0  0  0  0  0  0  0  0
  -21.6440  -22.3832   19.1964 C   0  0  0  0  0  0  0  0  0  0  0  0
  -27.3756  -24.9453   17.8105 C   0  0  1  0  0  0  0  0  0  0  0  0
  -26.6126  -28.2309   19.5586 C   0  0  1  0  0  0  0  0  0  0  0  0
  -25.5246  -14.9514   21.4949 C   0  0  2  0  0  0  0  0  0  0  0  0
  -22.4584  -20.1388   21.0147 C   0  0  2  0  0  0  0  0  0  0  0  0
  -20.7153  -21.9991   21.5133 C   0  0  1  0  0  0  0  0  0  0  0  0
  -27.8358  -33.1131   25.4468 C   0  0  0  0  0  0  0  0  0  0  0  0
  -19.3376  -21.9713   23.6274 C   0  0  0  0  0  0  0  0  0  0  0  0
  -17.1771  -25.9802   21.5704 C   0  0  0  0  0  0  0  0  0  0  0  0
  -29.0486  -26.9729   23.2794 C   0  0  0  0  0  0  0  0  0  0  0  0
  -29.0961  -28.6359   25.1503 C   0  0  0  0  0  0  0  0  0  0  0  0
  -30.4245  -29.0518   23.0803 C   0  0  0  0  0  0  0  0  0  0  0  0
  -25.1715  -33.4299   22.7492 C   0  0  0  0  0  0  0  0  0  0  0  0
  -18.9909  -24.9226   23.0097 C   0  0  0  0  0  0  0  0  0  0  0  0
  -19.5869  -26.6863   21.3230 C   0  0  0  0  0  0  0  0  0  1  0  0
  -27.9070  -29.2721   23.0027 C   0  0  1  0  0  0  0  0  0  0  0  0
  -27.1802  -32.8254   24.1051 C   0  0  2  0  0  0  0  0  0  0  0  0
  -20.1133  -22.8332   22.6421 C   0  0  2  0  0  0  0  0  0  0  0  0
  -18.5086  -26.1996   22.3007 C   0  0  1  0  0  0  0  0  0  0  0  0
  -29.0946  -28.4770   23.6149 C   0  0  0  0  0  0  0  0  0  0  0  0
  -24.5888  -12.6720   21.3583 N   0  0  0  0  0  0  0  0  0  0  0  0
  -25.6316  -13.4842   21.1154 N   0  0  0  0  0  0  0  0  0  0  0  0
  -26.6617  -28.5744   20.9813 N   0  0  0  0  0  0  0  0  0  0  0  0
  -23.9081  -16.8074   21.8380 N   0  0  0  0  0  0  0  0  0  0  0  0
  -27.8252  -13.5263   20.2227 N   0  0  0  0  0  0  0  0  0  0  0  0
  -27.0416  -10.2707   18.4394 N   0  0  0  0  0  0  0  0  0  0  0  0
  -27.0404  -26.3126   18.1463 N   0  0  0  0  0  0  0  0  0  0  0  0
  -27.9395  -30.7038   23.2815 N   0  0  0  0  0  0  0  0  0  0  0  0
  -23.0926  -19.0165   21.6797 N   0  0  0  0  0  0  0  0  0  0  0  0
  -19.2129  -23.8256   22.0734 N   0  0  0  0  0  0  0  0  0  0  0  0
  -21.3777  -22.9410   20.5516 N   0  3  0  0  0  0  0  0  0  0  0  0
  -25.9099  -33.6008   24.0270 N   0  3  0  0  0  0  0  0  0  0  0  0
  -27.8828   -9.7849   20.5167 O   0  0  0  0  0  0  0  0  0  0  0  0
  -27.1871  -26.1268   20.4629 O   0  0  0  0  0  0  0  0  0  0  0  0
  -28.7862  -29.5201   20.8136 O   0  0  0  0  0  0  0  0  0  0  0  0
  -25.8765  -30.8044   24.3357 O   0  0  0  0  0  0  0  0  0  0  0  0
  -22.9142  -17.5888   19.8858 O   0  0  0  0  0  0  0  0  0  0  0  0
  -21.7000   -6.9984   21.2473 O   0  0  0  0  0  0  0  0  0  0  0  0
  -20.8206  -26.8806   22.0134 O   0  0  0  0  0  0  0  0  0  1  0  0
  -21.0329   -4.6749   26.2031 F   0  0  0  0  0  0  0  0  0  0  0  0
  -22.4230   -4.3669   21.6889 F   0  0  0  0  0  0  0  0  0  0  0  0
  1  2  1  0  0  0  0
  1  5  2  0  0  0  0
  2  6  2  0  0  0  0
  3  8  2  0  0  0  0
  3 15  1  0  0  0  0
  4  9  1  0  0  0  0
  4 15  2  0  0  0  0
  5 17  1  0  0  0  0
  6 19  1  0  0  0  0
  7 10  2  0  0  0  0
  7 18  1  0  0  0  0
  8 21  1  0  0  0  0
  9 21  2  0  0  0  0
 10 22  1  0  0  0  0
 11 12  2  0  0  0  0
 11 23  1  0  0  0  0
 12 24  1  0  0  0  0
 13 20  1  0  0  0  0
 13 22  2  0  0  0  0
 14 24  2  0  0  0  0
 14 25  1  0  0  0  0
 15 26  1  0  0  0  0
 16 26  1  0  0  0  0
 16 27  2  0  0  0  0
 16 28  1  0  0  0  0
 17 19  2  0  0  0  0
 17 33  1  0  0  0  0
 18 20  2  0  0  0  0
 18 34  1  0  0  0  0
 19 46  1  0  0  0  0
 20 35  1  0  0  0  0
 21 82  1  0  0  0  0
 22 83  1  0  0  0  0
 23 25  2  0  0  0  0
 23 82  1  0  0  0  0
 24 84  1  0  0  0  0
 25 85  1  0  0  0  0
 26 65  2  0  0  0  0
 27 66  1  0  0  0  0
 27 69  1  0  0  0  0
 28 70  1  0  0  0  0
 28 77  2  0  0  0  0
 29 47  1  0  0  0  0
 29 71  1  0  0  0  0
 29 78  2  0  0  0  0
 30 60  1  0  0  0  0
 30 67  1  0  0  0  0
 30 79  2  0  0  0  0
 31 61  1  0  0  0  0
 31 72  1  0  0  0  0
 31 80  2  0  0  0  0
 32 68  1  0  0  0  0
 32 73  1  0  0  0  0
 32 81  2  0  0  0  0
 33 36  1  0  0  0  0
 34 47  1  0  0  0  0
 35 67  1  0  0  0  0
 36 39  1  0  0  0  0
 37 40  1  0  0  0  0
 37 43  1  0  0  0  0
 38 41  1  0  0  0  0
 38 45  1  0  0  0  0
 39 46  1  0  0  0  0
 40 48  1  0  0  0  0
 41 49  1  0  0  0  0
 42 49  1  0  0  0  0
 42 50  1  0  0  0  0
 43 68  1  0  0  0  0
 44 48  1  0  0  0  0
 44 68  1  0  0  0  0
 45 75  1  0  0  0  0
 46 71  1  0  0  0  0
 47 67  1  0  0  0  0
 48 66  1  0  0  0  0
 49 73  1  0  0  0  0
 50 62  1  0  0  0  0
 50 75  1  0  0  0  0
 51 61  1  0  0  0  0
 52 62  1  0  0  0  0
 53 63  1  0  0  0  0
 54 64  1  0  0  0  0
 55 64  1  0  0  0  0
 56 64  1  0  0  0  0
 57 76  1  0  0  0  0
 58 63  1  0  0  0  0
 58 74  1  0  0  0  0
 59 63  1  0  0  0  0
 59 83  1  0  0  0  0
 60 64  1  0  0  0  0
 60 72  1  0  0  0  0
 61 76  1  0  0  0  0
 62 74  1  0  0  0  0
 65 66  1  0  0  0  0
M  CHG  2  75   1  76   1
M  ISO  4  32 100  59 101  73 100  83 101
M  END
> <Batch ID>
0116

> <Smiles>
CNC(C)C(=O)NC(C(=O)N1Cc2cc([101O:1][101CH2:1]C(C)CNC(C)C3CC([100NH:0][100C:0](=O)N4CCCC(n5nc(-c6ccc(Oc7ccc(F)cc7F)cc6)c(C(N)=O)c5N)C4)CCCN3)ccc2CC1C(=O)NC1CCCc2ccccc21)C(C)(C)C

> <Shape>
0.255

> <Color>
0.091

> <Negative vol penalty>
0.000

$$$$

  -OEChem-04052320133D

 83 91  0     1  0  0  0  0  0999 V2000
  -29.5430  -37.0200   23.3137 C   0  0  0  0  0  0  0  0  0  0  0  0
  -29.7833  -35.9478   22.4605 C   0  0  0  0  0  0  0  0  0  0  0  0
  -22.9026  -10.0476   19.9186 C   0  0  0  0  0  0  0  0  0  0  0  0
  -23.9485   -9.5245   22.0328 C   0  0  0  0  0  0  0  0  0  0  0  0
  -28.6415  -36.8818   24.3682 C   0  0  0  0  0  0  0  0  0  0  0  0
  -29.1229  -34.7363   22.6619 C   0  0  0  0  0  0  0  0  0  0  0  0
  -26.4407  -29.1699   19.0374 C   0  0  0  0  0  0  0  0  0  0  0  0
  -31.7748  -18.1146   20.7070 C   0  0  0  0  0  0  0  0  0  0  0  0
  -22.1283   -8.8914   20.0156 C   0  0  0  0  0  0  0  0  0  0  0  0
  -23.1742   -8.3684   22.1298 C   0  0  0  0  0  0  0  0  0  0  0  0
  -26.4966  -27.7772   19.0062 C   0  0  0  0  0  0  0  0  0  0  0  0
  -20.0072   -7.5583   22.9868 C   0  0  0  0  0  0  0  0  0  0  0  0
  -19.4051   -7.2845   24.2149 C   0  0  0  0  0  0  0  0  0  0  0  0
  -31.4476  -19.3409   20.1391 C   0  0  0  0  0  0  0  0  0  0  0  0
  -24.9012  -27.6787   20.8129 C   0  0  0  0  0  0  0  0  0  0  0  0
  -20.6108   -5.1946   24.3401 C   0  0  0  0  0  0  0  0  0  0  0  0
  -29.7504  -18.2097   21.9518 C   0  0  0  0  0  0  0  0  0  0  0  0
  -23.8128  -10.3641   20.9272 C   0  0  0  0  0  0  0  0  0  0  0  0
  -24.2888  -12.8416   21.3056 C   0  0  0  0  0  0  0  0  0  0  0  0
  -27.9625  -35.6710   24.5769 C   0  0  0  0  0  0  0  0  0  0  0  0
  -25.6215  -29.8287   19.9655 C   0  0  0  0  0  0  0  0  0  0  0  0
  -28.2124  -34.5813   23.7210 C   0  0  0  0  0  0  0  0  0  0  0  0
  -24.8347  -29.0798   20.8522 C   0  0  0  0  0  0  0  0  0  0  0  0
  -30.9154  -17.5314   21.6315 C   0  0  0  0  0  0  0  0  0  0  0  0
  -22.2641   -8.0519   21.1212 C   0  0  0  0  0  0  0  0  0  0  0  0
  -25.7290  -27.0314   19.8960 C   0  0  0  0  0  0  0  0  0  0  0  0
  -20.9110   -6.6502   22.4353 C   0  0  0  0  0  0  0  0  0  0  0  0
  -19.7069   -6.1027   24.8915 C   0  0  0  0  0  0  0  0  0  0  0  0
  -21.2128   -5.4684   23.1119 C   0  0  0  0  0  0  0  0  0  0  0  0
  -24.6133  -11.5579   20.8273 C   0  0  0  0  0  0  0  0  0  0  0  0
  -30.2587  -19.9380   20.5260 C   0  0  0  0  0  0  0  0  0  0  0  0
  -25.3690  -13.6183   20.9644 C   0  0  0  0  0  0  0  0  0  0  0  0
  -23.1159  -13.2915   21.9966 C   0  0  0  0  0  0  0  0  0  0  0  0
  -26.1272  -31.8473   22.3682 C   0  0  0  0  0  0  0  0  0  0  0  0
  -22.8863  -31.9627   22.4398 C   0  0  0  0  0  0  0  0  0  0  0  0
  -19.9165  -30.4469   21.7122 C   0  0  0  0  0  0  0  0  0  0  0  0
  -30.8834  -14.3993   20.6083 C   0  0  0  0  0  0  0  0  0  0  0  0
  -27.0326  -35.5545   25.7586 C   0  0  0  0  0  0  0  0  0  0  0  0
  -25.5521  -31.3313   19.9684 C   0  0  0  0  0  0  0  0  0  0  0  0
  -23.9236  -29.7387   21.8543 C   0  0  0  0  0  0  0  0  0  0  0  0
  -26.0929  -34.3541   25.6783 C   0  0  0  0  0  0  0  0  0  0  0  0
  -29.3076  -12.6370   17.9460 C   0  0  0  0  0  0  0  0  0  0  0  0
  -26.8628  -33.0993   25.2792 C   0  0  0  0  0  0  0  0  0  0  0  0
  -27.9222  -12.2999   18.5000 C   0  0  0  0  0  0  0  0  0  0  0  0
  -30.3824  -12.5586   19.0280 C   0  0  0  0  0  0  0  0  0  0  0  0
  -28.7214  -13.0245   20.7880 C   0  0  0  0  0  0  0  0  0  0  0  0
  -27.4970  -33.2588   23.8921 C   0  0  1  0  0  0  0  0  0  0  0  0
  -25.0735  -31.9047   21.2986 C   0  0  1  0  0  0  0  0  0  0  0  0
  -27.5959  -13.1446   19.7463 C   0  0  2  0  0  0  0  0  0  0  0  0
  -17.4367  -30.7681   21.9247 C   0  0  0  0  0  0  0  0  0  0  0  0
  -23.0514  -31.2583   25.4040 C   0  0  0  0  0  0  0  0  0  0  0  0
  -20.6198  -30.6669   25.3275 C   0  0  0  0  0  0  0  0  0  0  0  0
  -21.3497  -33.0018   24.8393 C   0  0  0  0  0  0  0  0  0  0  0  0
  -19.5399  -30.3847   18.7774 C   0  0  0  0  0  0  0  0  0  0  0  0
  -31.2370  -16.2207   22.2565 C   0  0  0  0  0  0  0  0  0  0  0  0
  -27.1816  -23.7197   20.1152 C   0  0  0  0  0  0  0  0  0  0  0  0
  -28.4936  -23.0564   19.7107 C   0  0  0  0  0  0  0  0  0  0  0  0
  -27.0103  -25.0784   19.4489 C   0  0  0  0  0  0  0  0  0  1  0  0
  -28.6856  -21.7179   20.4095 C   0  0  0  0  0  0  0  0  0  0  0  0
  -21.8040  -31.1813   23.1448 C   0  0  1  0  0  0  0  0  0  0  0  0
  -18.6582  -30.9666   21.0407 C   0  0  2  0  0  0  0  0  0  0  0  0
  -21.7248  -31.5144   24.6615 C   0  0  0  0  0  0  0  0  0  0  0  0
  -29.3986  -19.4022   21.4210 N   0  0  0  0  0  0  0  0  0  0  0  0
  -25.8062  -11.5174   20.2277 N   0  0  0  0  0  0  0  0  0  0  0  0
  -26.2407  -12.7853   20.3269 N   0  0  0  0  0  0  0  0  0  0  0  0
  -23.8954  -31.2103   21.8223 N   0  0  0  0  0  0  0  0  0  0  0  0
  -30.0130  -13.3829   20.1812 N   0  0  0  0  0  0  0  0  0  0  0  0
  -25.6486  -14.9259   21.1503 N   0  0  0  0  0  0  0  0  0  0  0  0
  -22.1022  -12.3623   22.2674 N   0  0  0  0  0  0  0  0  0  0  0  0
  -26.5001  -33.0847   22.8576 N   0  0  0  0  0  0  0  0  0  0  0  0
  -20.5699  -31.4398   22.4110 N   0  0  0  0  0  0  0  0  0  0  0  0
  -30.4542  -15.1376   21.7044 N   0  0  0  0  0  0  0  0  0  0  0  0
  -18.4266  -30.2543   19.7523 N   0  3  0  0  0  0  0  0  0  0  0  0
  -22.9639  -14.4859   22.3486 O   0  0  0  0  0  0  0  0  0  0  0  0
  -26.5683  -30.7609   22.7242 O   0  0  0  0  0  0  0  0  0  0  0  0
  -22.8342  -33.1951   22.4311 O   0  0  0  0  0  0  0  0  0  0  0  0
  -20.2811  -29.2762   21.6286 O   0  0  0  0  0  0  0  0  0  0  0  0
  -31.9605  -14.6351   20.0506 O   0  0  0  0  0  0  0  0  0  0  0  0
  -21.5085   -6.9238   21.2163 O   0  0  0  0  0  0  0  0  0  0  0  0
  -25.7821  -25.6719   19.8681 O   0  0  0  0  0  0  0  0  0  1  0  0
  -29.9141  -21.1472   19.9801 O   0  0  0  0  0  0  0  0  0  0  0  0
  -19.1299   -5.8407   26.0716 F   0  0  0  0  0  0  0  0  0  0  0  0
  -22.0813   -4.5927   22.5877 F   0  0  0  0  0  0  0  0  0  0  0  0
  1  2  1  0  0  0  0
  1  5  2  0  0  0  0
  2  6  2  0  0  0  0
  3  9  2  0  0  0  0
  3 18  1  0  0  0  0
  4 10  1  0  0  0  0
  4 18  2  0  0  0  0
  5 20  1  0  0  0  0
  6 22  1  0  0  0  0
  7 11  2  0  0  0  0
  7 21  1  0  0  0  0
  8 14  2  0  0  0  0
  8 24  1  0  0  0  0
  9 25  1  0  0  0  0
 10 25  2  0  0  0  0
 11 26  1  0  0  0  0
 12 13  2  0  0  0  0
 12 27  1  0  0  0  0
 13 28  1  0  0  0  0
 14 31  1  0  0  0  0
 15 23  1  0  0  0  0
 15 26  2  0  0  0  0
 16 28  2  0  0  0  0
 16 29  1  0  0  0  0
 17 24  2  0  0  0  0
 17 63  1  0  0  0  0
 18 30  1  0  0  0  0
 19 30  1  0  0  0  0
 19 32  2  0  0  0  0
 19 33  1  0  0  0  0
 20 22  2  0  0  0  0
 20 38  1  0  0  0  0
 21 23  2  0  0  0  0
 21 39  1  0  0  0  0
 22 47  1  0  0  0  0
 23 40  1  0  0  0  0
 24 55  1  0  0  0  0
 25 79  1  0  0  0  0
 26 80  1  0  0  0  0
 27 29  2  0  0  0  0
 27 79  1  0  0  0  0
 28 82  1  0  0  0  0
 29 83  1  0  0  0  0
 30 64  2  0  0  0  0
 31 63  2  0  0  0  0
 31 81  1  0  0  0  0
 32 65  1  0  0  0  0
 32 68  1  0  0  0  0
 33 69  1  0  0  0  0
 33 74  2  0  0  0  0
 34 48  1  0  0  0  0
 34 70  1  0  0  0  0
 34 75  2  0  0  0  0
 35 60  1  0  0  0  0
 35 66  1  0  0  0  0
 35 76  2  0  0  0  0
 36 61  1  0  0  0  0
 36 71  1  0  0  0  0
 36 77  2  0  0  0  0
 37 67  1  0  0  0  0
 37 72  1  0  0  0  0
 37 78  2  0  0  0  0
 38 41  1  0  0  0  0
 39 48  1  0  0  0  0
 40 66  1  0  0  0  0
 41 43  1  0  0  0  0
 42 44  1  0  0  0  0
 42 45  1  0  0  0  0
 43 47  1  0  0  0  0
 44 49  1  0  0  0  0
 45 67  1  0  0  0  0
 46 49  1  0  0  0  0
 46 67  1  0  0  0  0
 47 70  1  0  0  0  0
 48 66  1  0  0  0  0
 49 65  1  0  0  0  0
 50 61  1  0  0  0  0
 51 62  1  0  0  0  0
 52 62  1  0  0  0  0
 53 62  1  0  0  0  0
 54 73  1  0  0  0  0
 55 72  1  0  0  0  0
 56 57  1  0  0  0  0
 56 58  1  0  0  0  0
 57 59  1  0  0  0  0
 58 80  1  0  0  0  0
 59 81  1  0  0  0  0
 60 62  1  0  0  0  0
 60 71  1  0  0  0  0
 61 73  1  0  0  0  0
 64 65  1  0  0  0  0
M  CHG  1  73   1
M  ISO  4  37 100  58 101  72 100  80 101
M  END
> <Batch ID>
0116

> <Smiles>
CNC(C)C(=O)NC(C(=O)N1Cc2cc([101O:1][101CH2:1]CCCOc3ccc(C[100NH:0][100C:0](=O)N4CCCC(n5nc(-c6ccc(Oc7ccc(F)cc7F)cc6)c(C(N)=O)c5N)C4)cn3)ccc2CC1C(=O)NC1CCCc2ccccc21)C(C)(C)C

> <Shape>
0.354

> <Color>
0.209

> <Negative vol penalty>
0.000

$$$$

  -OEChem-04052320133D

 86 94  0     1  0  0  0  0  0999 V2000
  -28.5490  -33.7251   23.9193 C   0  0  0  0  0  0  0  0  0  0  0  0
  -28.5571  -32.3499   23.7090 C   0  0  0  0  0  0  0  0  0  0  0  0
  -23.2956  -13.9165   21.7836 C   0  0  0  0  0  0  0  0  0  0  0  0
  -24.9647  -14.3052   20.0806 C   0  0  0  0  0  0  0  0  0  0  0  0
  -27.3483  -34.3810   24.1880 C   0  0  0  0  0  0  0  0  0  0  0  0
  -27.3645  -31.6297   23.7684 C   0  0  0  0  0  0  0  0  0  0  0  0
  -26.9066  -28.3137   19.9684 C   0  0  0  0  0  0  0  0  0  0  0  0
  -30.6920  -23.2527   21.3000 C   0  0  0  0  0  0  0  0  0  0  0  0
  -22.9978  -12.6806   21.2096 C   0  0  0  0  0  0  0  0  0  0  0  0
  -24.6670  -13.0693   19.5066 C   0  0  0  0  0  0  0  0  0  0  0  0
  -27.6230  -27.1222   20.0732 C   0  0  0  0  0  0  0  0  0  0  0  0
  -24.3244   -9.5707   21.1642 C   0  0  0  0  0  0  0  0  0  0  0  0
  -24.1880   -8.4758   22.0175 C   0  0  0  0  0  0  0  0  0  0  0  0
  -31.2323  -21.9794   21.4424 C   0  0  0  0  0  0  0  0  0  0  0  0
  -25.6234  -25.9917   20.8098 C   0  0  0  0  0  0  0  0  0  0  0  0
  -21.9152   -8.1673   21.2583 C   0  0  0  0  0  0  0  0  0  0  0  0
  -24.2791  -14.7289   21.2190 C   0  0  0  0  0  0  0  0  0  0  0  0
  -25.5433  -16.2719   22.8091 C   0  0  0  0  0  0  0  0  0  0  0  0
  -26.1392  -33.6699   24.2412 C   0  0  0  0  0  0  0  0  0  0  0  0
  -25.5434  -28.3555   20.2945 C   0  0  0  0  0  0  0  0  0  0  0  0
  -26.1468  -32.2765   24.0394 C   0  0  0  0  0  0  0  0  0  0  0  0
  -24.8914  -27.1843   20.7058 C   0  0  0  0  0  0  0  0  0  0  0  0
  -29.6450  -23.4619   20.4093 C   0  0  0  0  0  0  0  0  0  0  0  0
  -23.6835  -12.2570   20.0712 C   0  0  0  0  0  0  0  0  0  0  0  0
  -26.9822  -25.9616   20.4967 C   0  0  0  0  0  0  0  0  0  0  0  0
  -23.2561   -9.9641   20.3581 C   0  0  0  0  0  0  0  0  0  0  0  0
  -22.9834   -7.7740   22.0645 C   0  0  0  0  0  0  0  0  0  0  0  0
  -22.0515   -9.2624   20.4051 C   0  0  0  0  0  0  0  0  0  0  0  0
  -24.5867  -16.0059   21.8111 C   0  0  0  0  0  0  0  0  0  0  0  0
  -30.6942  -20.9573   20.6773 C   0  0  0  0  0  0  0  0  0  0  0  0
  -29.1781  -22.3734   19.6903 C   0  0  0  0  0  0  0  0  0  0  0  0
  -25.4484  -17.6251   23.0238 C   0  0  0  0  0  0  0  0  0  0  0  0
  -26.4378  -15.3758   23.4819 C   0  0  0  0  0  0  0  0  0  0  0  0
  -23.8014  -29.8974   22.4606 C   0  0  0  0  0  0  0  0  0  0  0  0
  -21.3238  -28.5550   20.8539 C   0  0  0  0  0  0  0  0  0  0  0  0
  -20.2043  -26.0515   18.8226 C   0  0  0  0  0  0  0  0  0  0  0  0
  -23.5815  -22.1744   19.6077 C   0  0  0  0  0  0  0  0  0  0  0  0
  -24.8730  -34.4152   24.5817 C   0  0  0  0  0  0  0  0  0  0  0  0
  -24.7786  -29.6427   20.1505 C   0  0  0  0  0  0  0  0  0  0  0  0
  -23.4247  -27.1716   21.0483 C   0  0  0  0  0  0  0  0  0  0  0  0
  -23.6013  -33.6359   24.2566 C   0  0  0  0  0  0  0  0  0  0  0  0
  -22.3230  -21.2410   22.8048 C   0  0  0  0  0  0  0  0  0  0  0  0
  -23.7128  -32.1993   24.7574 C   0  0  0  0  0  0  0  0  0  0  0  0
  -22.8467  -19.8175   23.0027 C   0  0  0  0  0  0  0  0  0  0  0  0
  -21.9498  -21.5076   21.3482 C   0  0  0  0  0  0  0  0  0  0  0  0
  -23.5407  -19.7936   20.5703 C   0  0  0  0  0  0  0  0  0  0  0  0
  -24.8704  -31.4641   24.0711 C   0  0  1  0  0  0  0  0  0  0  0  0
  -23.5130  -29.6841   21.0015 C   0  0  1  0  0  0  0  0  0  0  0  0
  -23.9827  -19.4953   22.0132 C   0  0  2  0  0  0  0  0  0  0  0  0
  -31.8638  -19.0683   19.4867 C   0  0  0  0  0  0  0  0  0  0  0  0
  -30.2066  -18.5690   21.3195 C   0  0  0  0  0  0  0  0  0  0  0  0
  -18.1222  -25.1991   17.7111 C   0  0  0  0  0  0  0  0  0  0  0  0
  -20.3512  -27.4517   23.5273 C   0  0  0  0  0  0  0  0  0  0  0  0
  -18.8764  -25.8743   22.2605 C   0  0  0  0  0  0  0  0  0  0  0  0
  -18.5427  -28.3369   22.0439 C   0  0  0  0  0  0  0  0  0  0  0  0
  -21.3704  -26.3834   16.1228 C   0  0  0  0  0  0  0  0  0  0  0  0
  -29.0643  -24.8373   20.2595 C   0  0  0  0  0  0  0  0  0  1  0  0
  -27.5566  -21.5314   17.9910 C   0  0  0  0  0  0  0  0  0  0  0  0
  -25.2848  -22.6949   17.8794 C   0  0  0  0  0  0  0  0  0  0  0  0
  -31.2496  -19.5780   20.8039 C   0  0  0  0  0  0  0  0  0  0  0  0
  -20.5569  -27.2590   20.9608 C   0  0  1  0  0  0  0  0  0  0  0  0
  -19.3542  -26.0787   17.5653 C   0  0  2  0  0  0  0  0  0  0  0  0
  -26.4356  -22.0629   17.0967 C   0  0  2  0  0  0  0  0  0  0  0  0
  -19.6099  -27.2308   22.1936 C   0  0  0  0  0  0  0  0  0  0  0  0
  -23.9321  -17.1022   21.4191 N   0  0  0  0  0  0  0  0  0  0  0  0
  -29.6774  -21.1220   19.8017 N   0  0  0  0  0  0  0  0  0  0  0  0
  -24.4783  -18.0701   22.1747 N   0  0  0  0  0  0  0  0  0  0  0  0
  -22.7217  -28.4564   20.8977 N   0  0  0  0  0  0  0  0  0  0  0  0
  -23.0704  -21.1836   20.4621 N   0  0  0  0  0  0  0  0  0  0  0  0
  -26.1009  -18.4660   23.8543 N   0  0  0  0  0  0  0  0  0  0  0  0
  -26.4045  -14.0169   23.1402 N   0  0  0  0  0  0  0  0  0  0  0  0
  -28.1119  -22.5820   18.7799 N   0  0  0  0  0  0  0  0  0  0  0  0
  -24.4918  -31.0630   22.7331 N   0  0  0  0  0  0  0  0  0  0  0  0
  -19.8785  -27.0795   19.6818 N   0  0  0  0  0  0  0  0  0  0  0  0
  -24.6476  -21.7857   18.8057 N   0  0  0  0  0  0  0  0  0  0  0  0
  -25.8995  -20.9398   16.2730 N   0  3  0  0  0  0  0  0  0  0  0  0
  -20.1420  -25.5942   16.3967 N   0  3  0  0  0  0  0  0  0  0  0  0
  -27.2312  -15.7657   24.3718 O   0  0  0  0  0  0  0  0  0  0  0  0
  -23.4242  -29.0668   23.2788 O   0  0  0  0  0  0  0  0  0  0  0  0
  -20.7054  -29.6150   20.7287 O   0  0  0  0  0  0  0  0  0  0  0  0
  -21.0684  -25.2010   19.0242 O   0  0  0  0  0  0  0  0  0  0  0  0
  -23.1254  -23.3221   19.5668 O   0  0  0  0  0  0  0  0  0  0  0  0
  -23.3933  -11.0509   19.5110 O   0  0  0  0  0  0  0  0  0  0  0  0
  -27.6793  -24.7975   20.6005 O   0  0  0  0  0  0  0  0  0  1  0  0
  -22.8531   -6.7216   22.8827 F   0  0  0  0  0  0  0  0  0  0  0  0
  -21.0222   -9.6348   19.6321 F   0  0  0  0  0  0  0  0  0  0  0  0
  1  2  1  0  0  0  0
  1  5  2  0  0  0  0
  2  6  2  0  0  0  0
  3  9  2  0  0  0  0
  3 17  1  0  0  0  0
  4 10  1  0  0  0  0
  4 17  2  0  0  0  0
  5 19  1  0  0  0  0
  6 21  1  0  0  0  0
  7 11  2  0  0  0  0
  7 20  1  0  0  0  0
  8 14  2  0  0  0  0
  8 23  1  0  0  0  0
  9 24  1  0  0  0  0
 10 24  2  0  0  0  0
 11 25  1  0  0  0  0
 12 13  2  0  0  0  0
 12 26  1  0  0  0  0
 13 27  1  0  0  0  0
 14 30  1  0  0  0  0
 15 22  1  0  0  0  0
 15 25  2  0  0  0  0
 16 27  2  0  0  0  0
 16 28  1  0  0  0  0
 17 29  1  0  0  0  0
 18 29  1  0  0  0  0
 18 32  2  0  0  0  0
 18 33  1  0  0  0  0
 19 21  2  0  0  0  0
 19 38  1  0  0  0  0
 20 22  2  0  0  0  0
 20 39  1  0  0  0  0
 21 47  1  0  0  0  0
 22 40  1  0  0  0  0
 23 31  2  0  0  0  0
 23 57  1  0  0  0  0
 24 83  1  0  0  0  0
 25 84  1  0  0  0  0
 26 28  2  0  0  0  0
 26 83  1  0  0  0  0
 27 85  1  0  0  0  0
 28 86  1  0  0  0  0
 29 65  2  0  0  0  0
 30 60  1  0  0  0  0
 30 66  2  0  0  0  0
 31 66  1  0  0  0  0
 31 72  1  0  0  0  0
 32 67  1  0  0  0  0
 32 70  1  0  0  0  0
 33 71  1  0  0  0  0
 33 78  2  0  0  0  0
 34 48  1  0  0  0  0
 34 73  1  0  0  0  0
 34 79  2  0  0  0  0
 35 61  1  0  0  0  0
 35 68  1  0  0  0  0
 35 80  2  0  0  0  0
 36 62  1  0  0  0  0
 36 74  1  0  0  0  0
 36 81  2  0  0  0  0
 37 69  1  0  0  0  0
 37 75  1  0  0  0  0
 37 82  2  0  0  0  0
 38 41  1  0  0  0  0
 39 48  1  0  0  0  0
 40 68  1  0  0  0  0
 41 43  1  0  0  0  0
 42 44  1  0  0  0  0
 42 45  1  0  0  0  0
 43 47  1  0  0  0  0
 44 49  1  0  0  0  0
 45 69  1  0  0  0  0
 46 49  1  0  0  0  0
 46 69  1  0  0  0  0
 47 73  1  0  0  0  0
 48 68  1  0  0  0  0
 49 67  1  0  0  0  0
 50 60  1  0  0  0  0
 51 60  1  0  0  0  0
 52 62  1  0  0  0  0
 53 64  1  0  0  0  0
 54 64  1  0  0  0  0
 55 64  1  0  0  0  0
 56 77  1  0  0  0  0
 57 84  1  0  0  0  0
 58 63  1  0  0  0  0
 58 72  1  0  0  0  0
 59 63  1  0  0  0  0
 59 75  1  0  0  0  0
 61 64  1  0  0  0  0
 61 74  1  0  0  0  0
 62 77  1  0  0  0  0
 63 76  1  0  0  0  0
 65 67  1  0  0  0  0
M  CHG  2  76   1  77   1
M  ISO  4  37 100  57 101  75 100  84 101
M  END
> <Batch ID>
0116

> <Smiles>
CNC(C)C(=O)NC(C(=O)N1Cc2cc([101O:1][101CH2:1]c3ccc(C(C)C)nc3NCC(N)C[100NH:0][100C:0](=O)N3CCCC(n4nc(-c5ccc(Oc6ccc(F)cc6F)cc5)c(C(N)=O)c4N)C3)ccc2CC1C(=O)NC1CCCc2ccccc21)C(C)(C)C

> <Shape>
0.254

> <Color>
0.050

> <Negative vol penalty>
0.000

$$$$

  -OEChem-04052320133D

 93102  0     1  0  0  0  0  0999 V2000
  -16.5311  -35.0682   25.2825 C   0  0  0  0  0  0  0  0  0  0  0  0
  -17.7341  -35.3359   24.6371 C   0  0  0  0  0  0  0  0  0  0  0  0
  -23.2847  -10.4709   22.6051 C   0  0  0  0  0  0  0  0  0  0  0  0
  -24.8534  -11.4178   24.1798 C   0  0  0  0  0  0  0  0  0  0  0  0
  -16.3510  -33.8536   25.9431 C   0  0  0  0  0  0  0  0  0  0  0  0
  -18.7581  -34.3895   24.6528 C   0  0  0  0  0  0  0  0  0  0  0  0
  -24.1410  -31.9212   20.6219 C   0  0  0  0  0  0  0  0  0  0  0  0
  -22.7529   -9.6705   23.6161 C   0  0  0  0  0  0  0  0  0  0  0  0
  -24.3216  -10.6174   25.1909 C   0  0  0  0  0  0  0  0  0  0  0  0
  -25.5099  -31.6664   20.6919 C   0  0  0  0  0  0  0  0  0  0  0  0
  -23.5684   -6.8048   25.2121 C   0  0  0  0  0  0  0  0  0  0  0  0
  -23.3302   -5.4624   24.9172 C   0  0  0  0  0  0  0  0  0  0  0  0
  -25.0571  -29.5707   21.7974 C   0  0  0  0  0  0  0  0  0  0  0  0
  -28.5492  -19.2964   21.5865 C   0  0  0  0  0  0  0  0  0  0  0  0
  -30.6804  -19.6519   20.5054 C   0  0  0  0  0  0  0  0  0  0  0  0
  -20.9845   -5.7712   25.4062 C   0  0  0  0  0  0  0  0  0  0  0  0
  -24.3349  -11.3445   22.8870 C   0  0  0  0  0  0  0  0  0  0  0  0
  -24.2060  -13.1381   21.0775 C   0  0  0  0  0  0  0  0  0  0  0  0
  -17.3698  -32.8880   25.9587 C   0  0  0  0  0  0  0  0  0  0  0  0
  -23.2188  -31.0063   21.1498 C   0  0  0  0  0  0  0  0  0  0  0  0
  -18.5919  -33.1615   25.3153 C   0  0  0  0  0  0  0  0  0  0  0  0
  -23.6769  -29.8151   21.7306 C   0  0  0  0  0  0  0  0  0  0  0  0
  -28.0984  -20.5240   21.1013 C   0  0  0  0  0  0  0  0  0  0  0  0
  -30.2295  -20.8795   20.0202 C   0  0  0  0  0  0  0  0  0  0  0  0
  -28.9385  -21.3155   20.3181 C   0  0  0  0  0  0  0  0  0  0  0  0
  -29.8403  -18.8604   21.2886 C   0  0  0  0  0  0  0  0  0  0  0  0
  -23.2713   -9.7437   24.9090 C   0  0  0  0  0  0  0  0  0  0  0  0
  -25.9683  -30.4923   21.2823 C   0  0  0  0  0  0  0  0  0  0  0  0
  -22.5146   -7.6303   25.6041 C   0  0  0  0  0  0  0  0  0  0  0  0
  -22.0383   -4.9456   25.0142 C   0  0  0  0  0  0  0  0  0  0  0  0
  -21.2227   -7.1135   25.7012 C   0  0  0  0  0  0  0  0  0  0  0  0
  -24.8851  -12.1712   21.8429 C   0  0  0  0  0  0  0  0  0  0  0  0
  -25.1634  -13.6393   20.2297 C   0  0  0  0  0  0  0  0  0  0  0  0
  -22.8326  -13.5468   21.1284 C   0  0  0  0  0  0  0  0  0  0  0  0
  -21.0311  -31.1028   23.4538 C   0  0  0  0  0  0  0  0  0  0  0  0
  -20.2872  -28.1501   22.3356 C   0  0  0  0  0  0  0  0  0  0  0  0
  -21.2884  -25.3477   20.6650 C   0  0  0  0  0  0  0  0  0  0  0  0
  -31.1325  -13.9724   20.5616 C   0  0  0  0  0  0  0  0  0  0  0  0
  -17.1460  -31.6090   26.7261 C   0  0  0  0  0  0  0  0  0  0  0  0
  -21.7443  -31.2835   21.0424 C   0  0  0  0  0  0  0  0  0  0  0  0
  -22.7271  -28.7909   22.2939 C   0  0  0  0  0  0  0  0  0  0  0  0
  -18.1434  -30.5072   26.3775 C   0  0  0  0  0  0  0  0  0  0  0  0
  -29.2147  -12.4009   18.0063 C   0  0  0  0  0  0  0  0  0  0  0  0
  -19.5647  -31.0606   26.3573 C   0  0  0  0  0  0  0  0  0  0  0  0
  -27.8264  -12.2511   18.6308 C   0  0  0  0  0  0  0  0  0  0  0  0
  -30.3224  -12.1956   19.0373 C   0  0  0  0  0  0  0  0  0  0  0  0
  -29.0660  -25.1787   22.5891 C   0  0  0  0  0  0  0  0  0  0  0  0
  -29.6749  -26.1965   20.4819 C   0  0  0  0  0  0  0  0  0  0  0  0
  -28.8233  -12.8900   20.8661 C   0  0  0  0  0  0  0  0  0  0  0  0
  -28.3790  -24.0213   21.8718 C   0  0  0  0  0  0  0  0  0  0  0  0
  -29.0057  -25.0687   19.7034 C   0  0  0  0  0  0  0  0  0  0  0  0
  -19.7173  -32.1501   25.2890 C   0  0  1  0  0  0  0  0  0  0  0  0
  -20.9165  -30.5217   22.0729 C   0  0  1  0  0  0  0  0  0  0  0  0
  -27.6728  -13.1436   19.8770 C   0  0  2  0  0  0  0  0  0  0  0  0
  -26.7117  -20.9680   21.4352 C   0  0  0  0  0  0  0  0  0  0  0  0
  -31.1489  -21.7082   19.1839 C   0  0  0  0  0  0  0  0  0  0  0  0
  -20.4716  -23.0874   19.9429 C   0  0  0  0  0  0  0  0  0  0  0  0
  -29.9019  -30.0425   22.6681 C   0  0  0  0  0  0  0  0  0  0  0  0
  -20.6061  -27.1250   25.1917 C   0  0  0  0  0  0  0  0  0  0  0  0
  -20.7246  -24.8003   24.2700 C   0  0  0  0  0  0  0  0  0  0  0  0
  -18.6602  -26.1635   23.9494 C   0  0  0  0  0  0  0  0  0  0  0  0
  -21.6702  -25.9959   17.8026 C   0  0  0  0  0  0  0  0  0  0  0  0
  -28.4540  -22.6363   19.7969 C   0  0  0  0  0  0  0  0  0  0  0  0
  -29.6458  -27.5155   22.4979 C   0  0  0  0  0  0  0  0  0  0  0  0
  -31.6063  -17.1120   21.5116 C   0  0  0  0  0  0  0  0  0  0  0  0
  -31.7975  -15.7498   22.1609 C   0  0  0  0  0  0  0  0  0  0  0  0
  -27.7035  -29.0189   21.9708 C   0  0  0  0  0  0  0  0  0  1  0  0
  -20.7446  -26.7444   22.6418 C   0  0  1  0  0  0  0  0  0  0  0  0
  -20.6316  -24.5488   19.5537 C   0  0  2  0  0  0  0  0  0  0  0  0
  -29.2313  -28.8808   21.9232 C   0  0  1  0  0  0  0  0  0  0  0  0
  -20.2021  -26.2283   24.0044 C   0  0  0  0  0  0  0  0  0  0  0  0
  -26.1742  -12.0628   21.5106 N   0  0  0  0  0  0  0  0  0  0  0  0
  -26.3128  -12.9681   20.5270 N   0  0  0  0  0  0  0  0  0  0  0  0
  -21.2952  -29.1106   22.1707 N   0  0  0  0  0  0  0  0  0  0  0  0
  -30.1189  -13.0725   20.1930 N   0  0  0  0  0  0  0  0  0  0  0  0
  -29.0214  -26.4043   21.7808 N   0  0  0  0  0  0  0  0  0  0  0  0
  -25.1257  -14.5843   19.2664 N   0  0  0  0  0  0  0  0  0  0  0  0
  -21.9858  -12.9290   22.0587 N   0  0  0  0  0  0  0  0  0  0  0  0
  -30.2959  -17.6190   21.7787 N   0  0  0  0  0  0  0  0  0  0  0  0
  -19.8341  -31.5562   23.9745 N   0  0  0  0  0  0  0  0  0  0  0  0
  -20.3547  -25.9296   21.4962 N   0  0  0  0  0  0  0  0  0  0  0  0
  -30.8559  -14.7711   21.6644 N   0  0  0  0  0  0  0  0  0  0  0  0
  -29.0377  -23.8092   20.5320 N   0  3  0  0  0  0  0  0  0  0  0  0
  -21.4525  -24.6173   18.3117 N   0  3  0  0  0  0  0  0  0  0  0  0
  -22.3663  -14.4218   20.3601 O   0  0  0  0  0  0  0  0  0  0  0  0
  -22.1242  -31.1360   24.0066 O   0  0  0  0  0  0  0  0  0  0  0  0
  -19.0802  -28.3857   22.2389 O   0  0  0  0  0  0  0  0  0  0  0  0
  -22.5078  -25.4427   20.7859 O   0  0  0  0  0  0  0  0  0  0  0  0
  -32.2023  -14.0615   19.9496 O   0  0  0  0  0  0  0  0  0  0  0  0
  -22.7525   -8.9630   25.8958 O   0  0  0  0  0  0  0  0  0  0  0  0
  -27.3039  -30.2414   21.3526 O   0  0  0  0  0  0  0  0  0  1  0  0
  -21.8095   -3.6569   24.7295 F   0  0  0  0  0  0  0  0  0  0  0  0
  -20.2061   -7.9021   26.0762 F   0  0  0  0  0  0  0  0  0  0  0  0
  1  2  1  0  0  0  0
  1  5  2  0  0  0  0
  2  6  2  0  0  0  0
  3  8  2  0  0  0  0
  3 17  1  0  0  0  0
  4  9  1  0  0  0  0
  4 17  2  0  0  0  0
  5 19  1  0  0  0  0
  6 21  1  0  0  0  0
  7 10  2  0  0  0  0
  7 20  1  0  0  0  0
  8 27  1  0  0  0  0
  9 27  2  0  0  0  0
 10 28  1  0  0  0  0
 11 12  2  0  0  0  0
 11 29  1  0  0  0  0
 12 30  1  0  0  0  0
 13 22  1  0  0  0  0
 13 28  2  0  0  0  0
 14 23  2  0  0  0  0
 14 26  1  0  0  0  0
 15 24  1  0  0  0  0
 15 26  2  0  0  0  0
 16 30  2  0  0  0  0
 16 31  1  0  0  0  0
 17 32  1  0  0  0  0
 18 32  1  0  0  0  0
 18 33  2  0  0  0  0
 18 34  1  0  0  0  0
 19 21  2  0  0  0  0
 19 39  1  0  0  0  0
 20 22  2  0  0  0  0
 20 40  1  0  0  0  0
 21 52  1  0  0  0  0
 22 41  1  0  0  0  0
 23 25  1  0  0  0  0
 23 55  1  0  0  0  0
 24 25  2  0  0  0  0
 24 56  1  0  0  0  0
 25 63  1  0  0  0  0
 26 79  1  0  0  0  0
 27 90  1  0  0  0  0
 28 91  1  0  0  0  0
 29 31  2  0  0  0  0
 29 90  1  0  0  0  0
 30 92  1  0  0  0  0
 31 93  1  0  0  0  0
 32 72  2  0  0  0  0
 33 73  1  0  0  0  0
 33 77  1  0  0  0  0
 34 78  1  0  0  0  0
 34 85  2  0  0  0  0
 35 53  1  0  0  0  0
 35 80  1  0  0  0  0
 35 86  2  0  0  0  0
 36 68  1  0  0  0  0
 36 74  1  0  0  0  0
 36 87  2  0  0  0  0
 37 69  1  0  0  0  0
 37 81  1  0  0  0  0
 37 88  2  0  0  0  0
 38 75  1  0  0  0  0
 38 82  1  0  0  0  0
 38 89  2  0  0  0  0
 39 42  1  0  0  0  0
 40 53  1  0  0  0  0
 41 74  1  0  0  0  0
 42 44  1  0  0  0  0
 43 45  1  0  0  0  0
 43 46  1  0  0  0  0
 44 52  1  0  0  0  0
 45 54  1  0  0  0  0
 46 75  1  0  0  0  0
 47 50  1  0  0  0  0
 47 76  1  0  0  0  0
 48 51  1  0  0  0  0
 48 76  1  0  0  0  0
 49 54  1  0  0  0  0
 49 75  1  0  0  0  0
 50 83  1  0  0  0  0
 51 83  1  0  0  0  0
 52 80  1  0  0  0  0
 53 74  1  0  0  0  0
 54 73  1  0  0  0  0
 57 69  1  0  0  0  0
 58 70  1  0  0  0  0
 59 71  1  0  0  0  0
 60 71  1  0  0  0  0
 61 71  1  0  0  0  0
 62 84  1  0  0  0  0
 63 83  1  0  0  0  0
 64 70  1  0  0  0  0
 64 76  1  0  0  0  0
 65 66  1  0  0  0  0
 65 79  1  0  0  0  0
 66 82  1  0  0  0  0
 67 70  1  0  0  0  0
 67 91  1  0  0  0  0
 68 71  1  0  0  0  0
 68 81  1  0  0  0  0
 69 84  1  0  0  0  0
 72 73  1  0  0  0  0
M  CHG  2  83   1  84   1
M  ISO  4  38 100  67 101  82 100  91 101
M  END
> <Batch ID>
0116

> <Smiles>
CNC(C)C(=O)NC(C(=O)N1Cc2cc([101O:1][101CH2:1]C(C)CN3CCN(Cc4c(C)cc(NCC[100NH:0][100C:0](=O)N5CCCC(n6nc(-c7ccc(Oc8ccc(F)cc8F)cc7)c(C(N)=O)c6N)C5)cc4C)CC3)ccc2CC1C(=O)NC1CCCc2ccccc21)C(C)(C)C

> <Shape>
0.312

> <Color>
0.104

> <Negative vol penalty>
0.000

$$$$

  -OEChem-04052320133D

 88 95  0     1  0  0  0  0  0999 V2000
  -13.2977  -26.3038   23.9609 C   0  0  0  0  0  0  0  0  0  0  0  0
  -14.5805  -25.8128   24.1815 C   0  0  0  0  0  0  0  0  0  0  0  0
  -23.0700   -9.8764   19.9395 C   0  0  0  0  0  0  0  0  0  0  0  0
  -23.8401   -9.8715   22.2295 C   0  0  0  0  0  0  0  0  0  0  0  0
  -12.7619  -26.2973   22.6737 C   0  0  0  0  0  0  0  0  0  0  0  0
  -15.3279  -25.3139   23.1152 C   0  0  0  0  0  0  0  0  0  0  0  0
  -21.3928  -25.7134   22.3650 C   0  0  0  0  0  0  0  0  0  0  0  0
  -22.3262   -8.7228   20.1871 C   0  0  0  0  0  0  0  0  0  0  0  0
  -23.0961   -8.7178   22.4771 C   0  0  0  0  0  0  0  0  0  0  0  0
  -22.4299  -24.8153   22.6136 C   0  0  0  0  0  0  0  0  0  0  0  0
  -19.8699   -7.9201   23.0900 C   0  0  0  0  0  0  0  0  0  0  0  0
  -19.1181   -7.8752   24.2640 C   0  0  0  0  0  0  0  0  0  0  0  0
  -22.3729  -24.1196   20.3045 C   0  0  0  0  0  0  0  0  0  0  0  0
  -20.3609   -5.9330   24.9855 C   0  0  0  0  0  0  0  0  0  0  0  0
  -23.8270  -10.4508   20.9607 C   0  0  0  0  0  0  0  0  0  0  0  0
  -24.1708  -12.9761   20.8515 C   0  0  0  0  0  0  0  0  0  0  0  0
  -13.5067  -25.8070   21.5895 C   0  0  0  0  0  0  0  0  0  0  0  0
  -20.8297  -25.8136   21.0846 C   0  0  0  0  0  0  0  0  0  0  0  0
  -14.8010  -25.2996   21.8126 C   0  0  0  0  0  0  0  0  0  0  0  0
  -21.3306  -25.0215   20.0416 C   0  0  0  0  0  0  0  0  0  0  0  0
  -22.3392   -8.1435   21.4559 C   0  0  0  0  0  0  0  0  0  0  0  0
  -22.9181  -24.0162   21.5840 C   0  0  0  0  0  0  0  0  0  0  0  0
  -20.8672   -6.9714   22.8637 C   0  0  0  0  0  0  0  0  0  0  0  0
  -19.3636   -6.8817   25.2118 C   0  0  0  0  0  0  0  0  0  0  0  0
  -21.1126   -5.9779   23.8114 C   0  0  0  0  0  0  0  0  0  0  0  0
  -24.5961  -11.6421   20.7054 C   0  0  0  0  0  0  0  0  0  0  0  0
  -25.2621  -13.7263   20.4870 C   0  0  0  0  0  0  0  0  0  0  0  0
  -22.9027  -13.4911   21.2785 C   0  0  0  0  0  0  0  0  0  0  0  0
  -17.9383  -25.3183   19.8607 C   0  0  0  0  0  0  0  0  0  0  0  0
  -19.2960  -26.5253   17.1732 C   0  0  0  0  0  0  0  0  0  0  0  0
  -22.1370  -27.1176   15.3775 C   0  0  0  0  0  0  0  0  0  0  0  0
  -30.7476  -14.7393   20.6561 C   0  0  0  0  0  0  0  0  0  0  0  0
  -12.8673  -25.7768   20.2239 C   0  0  0  0  0  0  0  0  0  0  0  0
  -19.7296  -26.8064   20.8265 C   0  0  0  0  0  0  0  0  0  0  0  0
  -20.7742  -25.1055   18.6445 C   0  0  0  0  0  0  0  0  0  0  0  0
  -13.8667  -25.5764   19.0876 C   0  0  0  0  0  0  0  0  0  0  0  0
  -29.5971  -12.3675   18.2628 C   0  0  0  0  0  0  0  0  0  0  0  0
  -14.8353  -24.4463   19.4217 C   0  0  0  0  0  0  0  0  0  0  0  0
  -28.1613  -12.0731   18.7006 C   0  0  0  0  0  0  0  0  0  0  0  0
  -30.5198  -12.5816   19.4607 C   0  0  0  0  0  0  0  0  0  0  0  0
  -28.6249  -13.3077   20.8592 C   0  0  0  0  0  0  0  0  0  0  0  0
  -15.6522  -24.7730   20.6776 C   0  0  1  0  0  0  0  0  0  0  0  0
  -18.8843  -26.4574   19.6054 C   0  0  1  0  0  0  0  0  0  0  0  0
  -27.6453  -13.1398   19.6851 C   0  0  2  0  0  0  0  0  0  0  0  0
  -22.9256  -28.0855   13.2006 C   0  0  0  0  0  0  0  0  0  0  0  0
  -24.7739  -18.9643   19.9815 C   0  0  0  0  0  0  0  0  0  0  0  0
  -18.3415  -24.0199   15.7164 C   0  0  0  0  0  0  0  0  0  0  0  0
  -19.9320  -24.5755   13.8644 C   0  0  0  0  0  0  0  0  0  0  0  0
  -18.0746  -26.1440   14.4234 C   0  0  0  0  0  0  0  0  0  0  0  0
  -23.7505  -29.1856   16.7482 C   0  0  0  0  0  0  0  0  0  0  0  0
  -26.1828  -22.4997   21.3065 C   0  0  0  0  0  0  0  0  0  0  0  0
  -30.8210  -16.8837   21.9032 C   0  0  0  0  0  0  0  0  0  0  0  0
  -30.5358  -18.0317   20.9530 C   0  0  0  0  0  0  0  0  0  0  0  0
  -28.6933  -19.4889   20.1041 C   0  0  0  0  0  0  0  0  0  0  0  0
  -24.8101  -22.8492   20.7388 C   0  0  0  0  0  0  0  0  0  1  0  0
  -20.0424  -25.9418   15.9979 C   0  0  1  0  0  0  0  0  0  0  0  0
  -22.6392  -28.3623   14.6683 C   0  0  2  0  0  0  0  0  0  0  0  0
  -27.2705  -22.1872   20.2614 C   0  0  2  0  0  0  0  0  0  0  0  0
  -27.1940  -19.7884   20.2393 C   0  0  2  0  0  0  0  0  0  0  0  0
  -26.2559  -18.6291   19.8300 C   0  0  2  0  0  0  0  0  0  0  0  0
  -27.5562  -23.3821   19.3391 C   0  0  2  0  0  0  0  0  0  0  0  0
  -28.6939  -23.1537   18.3609 C   0  0  0  0  0  0  0  0  0  0  0  0
  -19.1071  -25.1671   15.0272 C   0  0  0  0  0  0  0  0  0  0  0  0
  -25.8590  -11.5472   20.2810 N   0  0  0  0  0  0  0  0  0  0  0  0
  -26.2366  -12.8310   20.1573 N   0  0  0  0  0  0  0  0  0  0  0  0
  -19.6952  -26.0869   18.4438 N   0  0  0  0  0  0  0  0  0  0  0  0
  -29.9741  -13.6063   20.3541 N   0  0  0  0  0  0  0  0  0  0  0  0
  -25.4734  -15.0580   20.4196 N   0  0  0  0  0  0  0  0  0  0  0  0
  -21.8914  -12.5812   21.6158 N   0  0  0  0  0  0  0  0  0  0  0  0
  -16.7112  -25.7078   20.3626 N   0  0  0  0  0  0  0  0  0  0  0  0
  -20.7597  -27.0510   15.3786 N   0  0  0  0  0  0  0  0  0  0  0  0
  -30.1530  -15.6645   21.5053 N   0  0  0  0  0  0  0  0  0  0  0  0
  -26.9003  -20.9999   19.4904 N   0  0  0  0  0  0  0  0  0  0  0  0
  -26.4940  -18.2250   18.4150 N   0  3  0  0  0  0  0  0  0  0  0  0
  -23.8931  -28.8523   15.3075 N   0  3  0  0  0  0  0  0  0  0  0  0
  -29.0789  -18.3373   20.9553 N   0  3  0  0  0  0  0  0  0  0  0  0
  -22.6679  -14.7216   21.3429 O   0  0  0  0  0  0  0  0  0  0  0  0
  -18.2947  -24.1711   19.6187 O   0  0  0  0  0  0  0  0  0  0  0  0
  -18.3967  -27.3453   16.9718 O   0  0  0  0  0  0  0  0  0  0  0  0
  -22.8911  -26.2856   15.8771 O   0  0  0  0  0  0  0  0  0  0  0  0
  -31.8817  -14.9159   20.1983 O   0  0  0  0  0  0  0  0  0  0  0  0
  -21.6132   -7.0179   21.6980 O   0  0  0  0  0  0  0  0  0  0  0  0
  -23.9299  -23.1383   21.8241 O   0  0  0  0  0  0  0  0  0  1  0  0
  -18.6426   -6.8395   26.3399 F   0  0  0  0  0  0  0  0  0  0  0  0
  -22.0702   -5.0645   23.6001 F   0  0  0  0  0  0  0  0  0  0  0  0
  -27.9154  -24.4419   20.1247 F   0  0  0  0  0  0  0  0  0  0  0  0
  -28.8690  -24.2727   17.6126 F   0  0  0  0  0  0  0  0  0  0  0  0
  -29.8514  -22.9494   19.0360 F   0  0  0  0  0  0  0  0  0  0  0  0
  1  2  1  0  0  0  0
  1  5  2  0  0  0  0
  2  6  2  0  0  0  0
  3  8  2  0  0  0  0
  3 15  1  0  0  0  0
  4  9  1  0  0  0  0
  4 15  2  0  0  0  0
  5 17  1  0  0  0  0
  6 19  1  0  0  0  0
  7 10  2  0  0  0  0
  7 18  1  0  0  0  0
  8 21  1  0  0  0  0
  9 21  2  0  0  0  0
 10 22  1  0  0  0  0
 11 12  2  0  0  0  0
 11 23  1  0  0  0  0
 12 24  1  0  0  0  0
 13 20  1  0  0  0  0
 13 22  2  0  0  0  0
 14 24  2  0  0  0  0
 14 25  1  0  0  0  0
 15 26  1  0  0  0  0
 16 26  1  0  0  0  0
 16 27  2  0  0  0  0
 16 28  1  0  0  0  0
 17 19  2  0  0  0  0
 17 33  1  0  0  0  0
 18 20  2  0  0  0  0
 18 34  1  0  0  0  0
 19 42  1  0  0  0  0
 20 35  1  0  0  0  0
 21 82  1  0  0  0  0
 22 83  1  0  0  0  0
 23 25  2  0  0  0  0
 23 82  1  0  0  0  0
 24 84  1  0  0  0  0
 25 85  1  0  0  0  0
 26 64  2  0  0  0  0
 27 65  1  0  0  0  0
 27 68  1  0  0  0  0
 28 69  1  0  0  0  0
 28 77  2  0  0  0  0
 29 43  1  0  0  0  0
 29 70  1  0  0  0  0
 29 78  2  0  0  0  0
 30 56  1  0  0  0  0
 30 66  1  0  0  0  0
 30 79  2  0  0  0  0
 31 57  1  0  0  0  0
 31 71  1  0  0  0  0
 31 80  2  0  0  0  0
 32 67  1  0  0  0  0
 32 72  1  0  0  0  0
 32 81  2  0  0  0  0
 33 36  1  0  0  0  0
 34 43  1  0  0  0  0
 35 66  1  0  0  0  0
 36 38  1  0  0  0  0
 37 39  1  0  0  0  0
 37 40  1  0  0  0  0
 38 42  1  0  0  0  0
 39 44  1  0  0  0  0
 40 67  1  0  0  0  0
 41 44  1  0  0  0  0
 41 67  1  0  0  0  0
 42 70  1  0  0  0  0
 43 66  1  0  0  0  0
 44 65  1  0  0  0  0
 45 57  1  0  0  0  0
 46 60  1  0  0  0  0
 47 63  1  0  0  0  0
 48 63  1  0  0  0  0
 49 63  1  0  0  0  0
 50 75  1  0  0  0  0
 51 55  1  0  0  0  0
 51 58  1  0  0  0  0
 52 53  1  0  0  0  0
 52 72  1  0  0  0  0
 53 76  1  0  0  0  0
 54 59  1  0  0  0  0
 54 76  1  0  0  0  0
 55 83  1  0  0  0  0
 56 63  1  0  0  0  0
 56 71  1  0  0  0  0
 57 75  1  0  0  0  0
 58 61  1  0  0  0  0
 58 73  1  0  0  0  0
 59 60  1  0  0  0  0
 59 73  1  0  0  0  0
 60 74  1  0  0  0  0
 61 62  1  0  0  0  0
 61 86  1  0  0  0  0
 62 87  1  0  0  0  0
 62 88  1  0  0  0  0
 64 65  1  0  0  0  0
M  CHG  3  74   1  75   1  76   1
M  ISO  4  32 100  55 101  72 100  83 101
M  END
> <Batch ID>
0116

> <Smiles>
CNC(C)C(=O)NC(C(=O)N1Cc2cc([101O:1][101CH2:1]CC(NC(CNCC[100NH:0][100C:0](=O)N3CCCC(n4nc(-c5ccc(Oc6ccc(F)cc6F)cc5)c(C(N)=O)c4N)C3)C(C)N)C(F)C(F)F)ccc2CC1C(=O)NC1CCCc2ccccc21)C(C)(C)C

> <Shape>
0.234

> <Color>
0.180

> <Negative vol penalty>
0.000

$$$$

  -OEChem-04052320133D

 86 94  0     1  0  0  0  0  0999 V2000
  -31.6541  -29.6130   23.6040 C   0  0  0  0  0  0  0  0  0  0  0  0
  -31.4736  -28.4960   22.7947 C   0  0  0  0  0  0  0  0  0  0  0  0
  -23.1902   -9.8176   19.9324 C   0  0  0  0  0  0  0  0  0  0  0  0
  -23.5710   -9.9978   22.3114 C   0  0  0  0  0  0  0  0  0  0  0  0
  -32.7634  -29.6911   24.4451 C   0  0  0  0  0  0  0  0  0  0  0  0
  -32.4028  -27.4568   22.8252 C   0  0  0  0  0  0  0  0  0  0  0  0
  -31.2602  -21.4761   22.1683 C   0  0  0  0  0  0  0  0  0  0  0  0
  -22.4246   -8.6706   20.1418 C   0  0  0  0  0  0  0  0  0  0  0  0
  -22.8053   -8.8508   22.5208 C   0  0  0  0  0  0  0  0  0  0  0  0
  -31.3646  -20.6156   21.0763 C   0  0  0  0  0  0  0  0  0  0  0  0
  -23.2075   -5.5043   22.2558 C   0  0  0  0  0  0  0  0  0  0  0  0
  -23.7072   -4.5431   23.1344 C   0  0  0  0  0  0  0  0  0  0  0  0
  -33.5498  -19.9294   21.8336 C   0  0  0  0  0  0  0  0  0  0  0  0
  -31.4926  -16.9100   21.4204 C   0  0  0  0  0  0  0  0  0  0  0  0
  -21.7521   -4.8021   24.5299 C   0  0  0  0  0  0  0  0  0  0  0  0
  -33.3320  -15.4746   22.8825 C   0  0  0  0  0  0  0  0  0  0  0  0
  -23.7634  -10.4812   21.0172 C   0  0  0  0  0  0  0  0  0  0  0  0
  -24.1008  -12.9980   20.7734 C   0  0  0  0  0  0  0  0  0  0  0  0
  -33.7016  -28.6479   24.4931 C   0  0  0  0  0  0  0  0  0  0  0  0
  -32.3062  -21.5780   23.0968 C   0  0  0  0  0  0  0  0  0  0  0  0
  -33.5264  -27.5215   23.6667 C   0  0  0  0  0  0  0  0  0  0  0  0
  -33.4551  -20.7901   22.9379 C   0  0  0  0  0  0  0  0  0  0  0  0
  -31.9872  -15.3742   23.2093 C   0  0  0  0  0  0  0  0  0  0  0  0
  -31.0612  -16.1015   22.4677 C   0  0  0  0  0  0  0  0  0  0  0  0
  -22.2321   -8.1872   21.4360 C   0  0  0  0  0  0  0  0  0  0  0  0
  -32.5107  -19.8442   20.9073 C   0  0  0  0  0  0  0  0  0  0  0  0
  -21.9801   -6.1146   22.5143 C   0  0  0  0  0  0  0  0  0  0  0  0
  -22.9795   -4.1919   24.2714 C   0  0  0  0  0  0  0  0  0  0  0  0
  -21.2524   -5.7634   23.6513 C   0  0  0  0  0  0  0  0  0  0  0  0
  -24.5548  -11.6658   20.8014 C   0  0  0  0  0  0  0  0  0  0  0  0
  -32.8500  -16.9716   21.1390 C   0  0  0  0  0  0  0  0  0  0  0  0
  -25.2315  -13.7411   20.5370 C   0  0  0  0  0  0  0  0  0  0  0  0
  -22.7756  -13.5174   20.9457 C   0  0  0  0  0  0  0  0  0  0  0  0
  -34.2342  -23.9159   24.0560 C   0  0  0  0  0  0  0  0  0  0  0  0
  -35.2108  -21.6980   26.2123 C   0  0  0  0  0  0  0  0  0  0  0  0
  -35.5246  -18.4015   27.0379 C   0  0  0  0  0  0  0  0  0  0  0  0
  -31.0478  -12.7534   21.5597 C   0  0  0  0  0  0  0  0  0  0  0  0
  -34.9097  -28.7985   25.3833 C   0  0  0  0  0  0  0  0  0  0  0  0
  -32.1669  -22.4911   24.2839 C   0  0  0  0  0  0  0  0  0  0  0  0
  -34.5978  -20.8475   23.9174 C   0  0  0  0  0  0  0  0  0  0  0  0
  -35.6501  -27.4870   25.6323 C   0  0  0  0  0  0  0  0  0  0  0  0
  -29.5167  -13.4706   18.4263 C   0  0  0  0  0  0  0  0  0  0  0  0
  -35.8469  -26.7283   24.3237 C   0  0  0  0  0  0  0  0  0  0  0  0
  -28.0304  -13.2096   18.6772 C   0  0  0  0  0  0  0  0  0  0  0  0
  -30.3992  -12.4815   19.1844 C   0  0  0  0  0  0  0  0  0  0  0  0
  -28.6477  -12.1378   20.8838 C   0  0  0  0  0  0  0  0  0  0  0  0
  -34.4993  -26.3627   23.6899 C   0  0  1  0  0  0  0  0  0  0  0  0
  -33.5084  -22.8959   24.8870 C   0  0  1  0  0  0  0  0  0  0  0  0
  -27.7190  -13.1453   20.1846 C   0  0  2  0  0  0  0  0  0  0  0  0
  -33.4499  -17.0736   18.6950 C   0  0  0  0  0  0  0  0  0  0  0  0
  -36.3969  -16.8986   28.8483 C   0  0  0  0  0  0  0  0  0  0  0  0
  -38.0638  -22.2100   25.2593 C   0  0  0  0  0  0  0  0  0  0  0  0
  -38.7455  -20.0749   26.3751 C   0  0  0  0  0  0  0  0  0  0  0  0
  -37.8215  -21.9510   27.7349 C   0  0  0  0  0  0  0  0  0  0  0  0
  -27.7740  -16.7342   24.0690 C   0  0  0  0  0  0  0  0  0  0  0  0
  -29.8162  -18.1747   23.8624 C   0  0  0  0  0  0  0  0  0  0  0  0
  -28.3216  -17.8220   21.8800 C   0  0  0  0  0  0  0  0  0  0  0  0
  -32.8421  -17.2564   27.5401 C   0  0  0  0  0  0  0  0  0  0  0  0
  -31.5722  -14.4945   24.3398 C   0  0  0  0  0  0  0  0  0  0  0  0
  -31.5405  -13.0045   23.9791 C   0  0  0  0  0  0  0  0  0  0  0  0
  -33.3999  -17.8252   20.0192 C   0  0  1  0  0  0  0  0  0  1  0  0
  -36.2741  -20.6267   26.2371 C   0  0  1  0  0  0  0  0  0  0  0  0
  -35.1863  -17.6451   28.3098 C   0  0  2  0  0  0  0  0  0  0  0  0
  -37.7057  -21.2158   26.3819 C   0  0  0  0  0  0  0  0  0  0  0  0
  -28.9102  -17.1735   23.1383 C   0  0  0  0  0  0  0  0  0  0  0  0
  -25.8712  -11.5652   20.5988 N   0  0  0  0  0  0  0  0  0  0  0  0
  -26.2541  -12.8438   20.4411 N   0  0  0  0  0  0  0  0  0  0  0  0
  -33.7202  -16.2608   21.8691 N   0  3  0  0  0  0  0  0  0  0  0  0
  -34.4168  -21.7602   25.0584 N   0  0  0  0  0  0  0  0  0  0  0  0
  -30.0542  -12.4700   20.6081 N   0  0  0  0  0  0  0  0  0  0  0  0
  -25.4407  -15.0681   20.4037 N   0  0  0  0  0  0  0  0  0  0  0  0
  -21.7295  -12.6147   21.1808 N   0  0  0  0  0  0  0  0  0  0  0  0
  -29.6826  -16.0305   22.7635 N   0  0  0  0  0  0  0  0  0  0  0  0
  -33.9151  -25.2242   24.3660 N   0  0  0  0  0  0  0  0  0  0  0  0
  -35.8978  -19.7025   27.3013 N   0  0  0  0  0  0  0  0  0  0  0  0
  -30.6350  -12.7277   22.8862 N   0  0  0  0  0  0  0  0  0  0  0  0
  -34.1013  -16.6566   28.0516 N   0  3  0  0  0  0  0  0  0  0  0  0
  -22.5238  -14.7443   20.8765 O   0  0  0  0  0  0  0  0  0  0  0  0
  -35.0262  -23.5436   23.1983 O   0  0  0  0  0  0  0  0  0  0  0  0
  -35.0845  -22.4473   27.1840 O   0  0  0  0  0  0  0  0  0  0  0  0
  -35.4674  -17.8885   25.9226 O   0  0  0  0  0  0  0  0  0  0  0  0
  -32.2149  -13.0156   21.2498 O   0  0  0  0  0  0  0  0  0  0  0  0
  -21.4849   -7.0681   21.6407 O   0  0  0  0  0  0  0  0  0  0  0  0
  -32.6155  -19.0040   19.8420 O   0  0  0  0  0  0  0  0  0  1  0  0
  -23.4588   -3.2677   25.1141 F   0  0  0  0  0  0  0  0  0  0  0  0
  -20.0720   -6.3453   23.9043 F   0  0  0  0  0  0  0  0  0  0  0  0
  1  2  1  0  0  0  0
  1  5  2  0  0  0  0
  2  6  2  0  0  0  0
  3  8  2  0  0  0  0
  3 17  1  0  0  0  0
  4  9  1  0  0  0  0
  4 17  2  0  0  0  0
  5 19  1  0  0  0  0
  6 21  1  0  0  0  0
  7 10  2  0  0  0  0
  7 20  1  0  0  0  0
  8 25  1  0  0  0  0
  9 25  2  0  0  0  0
 10 26  1  0  0  0  0
 11 12  2  0  0  0  0
 11 27  1  0  0  0  0
 12 28  1  0  0  0  0
 13 22  1  0  0  0  0
 13 26  2  0  0  0  0
 14 24  2  0  0  0  0
 14 31  1  0  0  0  0
 15 28  2  0  0  0  0
 15 29  1  0  0  0  0
 16 23  2  0  0  0  0
 16 68  1  0  0  0  0
 17 30  1  0  0  0  0
 18 30  1  0  0  0  0
 18 32  2  0  0  0  0
 18 33  1  0  0  0  0
 19 21  2  0  0  0  0
 19 38  1  0  0  0  0
 20 22  2  0  0  0  0
 20 39  1  0  0  0  0
 21 47  1  0  0  0  0
 22 40  1  0  0  0  0
 23 24  1  0  0  0  0
 23 59  1  0  0  0  0
 24 73  1  0  0  0  0
 25 83  1  0  0  0  0
 26 84  1  0  0  0  0
 27 29  2  0  0  0  0
 27 83  1  0  0  0  0
 28 85  1  0  0  0  0
 29 86  1  0  0  0  0
 30 66  2  0  0  0  0
 31 61  1  0  0  0  0
 31 68  2  0  0  0  0
 32 67  1  0  0  0  0
 32 71  1  0  0  0  0
 33 72  1  0  0  0  0
 33 78  2  0  0  0  0
 34 48  1  0  0  0  0
 34 74  1  0  0  0  0
 34 79  2  0  0  0  0
 35 62  1  0  0  0  0
 35 69  1  0  0  0  0
 35 80  2  0  0  0  0
 36 63  1  0  0  0  0
 36 75  1  0  0  0  0
 36 81  2  0  0  0  0
 37 70  1  0  0  0  0
 37 76  1  0  0  0  0
 37 82  2  0  0  0  0
 38 41  1  0  0  0  0
 39 48  1  0  0  0  0
 40 69  1  0  0  0  0
 41 43  1  0  0  0  0
 42 44  1  0  0  0  0
 42 45  1  0  0  0  0
 43 47  1  0  0  0  0
 44 49  1  0  0  0  0
 45 70  1  0  0  0  0
 46 49  1  0  0  0  0
 46 70  1  0  0  0  0
 47 74  1  0  0  0  0
 48 69  1  0  0  0  0
 49 67  1  0  0  0  0
 50 61  1  0  0  0  0
 51 63  1  0  0  0  0
 52 64  1  0  0  0  0
 53 64  1  0  0  0  0
 54 64  1  0  0  0  0
 55 65  1  0  0  0  0
 56 65  1  0  0  0  0
 57 65  1  0  0  0  0
 58 77  1  0  0  0  0
 59 60  1  0  0  0  0
 60 76  1  0  0  0  0
 61 84  1  0  0  0  0
 62 64  1  0  0  0  0
 62 75  1  0  0  0  0
 63 77  1  0  0  0  0
 65 73  1  0  0  0  0
 66 67  1  0  0  0  0
M  CHG  2  68   1  77   1
M  ISO  4  37 100  61 101  76 100  84 101
M  END
> <Batch ID>
0116

> <Smiles>
CNC(C)C(=O)NC(C(=O)N1Cc2cc([101O:1][101CH:1](C)c3cc(NC(C)(C)C)c(CC[100NH:0][100C:0](=O)N4CCCC(n5nc(-c6ccc(Oc7ccc(F)cc7F)cc6)c(C(N)=O)c5N)C4)cn3)ccc2CC1C(=O)NC1CCCc2ccccc21)C(C)(C)C

> <Shape>
0.168

> <Color>
0.178

> <Negative vol penalty>
0.000

$$$$

  -OEChem-04052320133D

 85 93  0     1  0  0  0  0  0999 V2000
  -16.5777  -30.2026   23.1743 C   0  0  0  0  0  0  0  0  0  0  0  0
  -17.6032  -30.5641   22.3065 C   0  0  0  0  0  0  0  0  0  0  0  0
  -26.1249  -15.5144   20.6024 C   0  0  0  0  0  0  0  0  0  0  0  0
  -28.0255  -14.7068   19.3485 C   0  0  0  0  0  0  0  0  0  0  0  0
  -16.8687  -29.4905   24.3371 C   0  0  0  0  0  0  0  0  0  0  0  0
  -18.9205  -30.2145   22.6015 C   0  0  0  0  0  0  0  0  0  0  0  0
  -25.0625  -28.3868   19.3998 C   0  0  0  0  0  0  0  0  0  0  0  0
  -25.7151  -14.2004   20.8278 C   0  0  0  0  0  0  0  0  0  0  0  0
  -27.6158  -13.3926   19.5740 C   0  0  0  0  0  0  0  0  0  0  0  0
  -26.4106  -28.7414   19.3736 C   0  0  0  0  0  0  0  0  0  0  0  0
  -24.1180  -11.7615   19.1173 C   0  0  0  0  0  0  0  0  0  0  0  0
  -22.7664  -11.4656   18.9410 C   0  0  0  0  0  0  0  0  0  0  0  0
  -26.7850  -27.4419   21.3712 C   0  0  0  0  0  0  0  0  0  0  0  0
  -31.1061  -26.7743   20.7984 C   0  0  0  0  0  0  0  0  0  0  0  0
  -31.4865  -24.5186   20.0559 C   0  0  0  0  0  0  0  0  0  0  0  0
  -22.6173  -10.7708   21.2502 C   0  0  0  0  0  0  0  0  0  0  0  0
  -27.2800  -15.7677   19.8627 C   0  0  0  0  0  0  0  0  0  0  0  0
  -28.5626  -17.8978   20.4330 C   0  0  0  0  0  0  0  0  0  0  0  0
  -18.1890  -29.1236   24.6417 C   0  0  0  0  0  0  0  0  0  0  0  0
  -24.5625  -27.5645   20.4198 C   0  0  0  0  0  0  0  0  0  0  0  0
  -19.2295  -29.4980   23.7702 C   0  0  0  0  0  0  0  0  0  0  0  0
  -25.4307  -27.0762   21.4066 C   0  0  0  0  0  0  0  0  0  0  0  0
  -31.3742  -25.4415   21.0898 C   0  0  0  0  0  0  0  0  0  0  0  0
  -26.4606  -13.1394   20.3136 C   0  0  0  0  0  0  0  0  0  0  0  0
  -27.2715  -28.2713   20.3610 C   0  0  0  0  0  0  0  0  0  0  0  0
  -24.7194  -11.5620   20.3600 C   0  0  0  0  0  0  0  0  0  0  0  0
  -22.0160  -10.9703   20.0075 C   0  0  0  0  0  0  0  0  0  0  0  0
  -23.9690  -11.0667   21.4264 C   0  0  0  0  0  0  0  0  0  0  0  0
  -27.7035  -17.1250   19.6290 C   0  0  0  0  0  0  0  0  0  0  0  0
  -30.9601  -27.1305   19.4673 C   0  0  0  0  0  0  0  0  0  0  0  0
  -31.3233  -24.9757   18.7581 C   0  0  0  0  0  0  0  0  0  0  0  0
  -28.6477  -19.1048   19.7830 C   0  0  0  0  0  0  0  0  0  0  0  0
  -29.2245  -17.5553   21.6578 C   0  0  0  0  0  0  0  0  0  0  0  0
  -22.3963  -27.9099   22.7202 C   0  0  0  0  0  0  0  0  0  0  0  0
  -22.9801  -24.7563   23.2068 C   0  0  0  0  0  0  0  0  0  0  0  0
  -25.1262  -22.1230   22.8801 C   0  0  0  0  0  0  0  0  0  0  0  0
  -29.2437  -22.0778   15.0978 C   0  0  0  0  0  0  0  0  0  0  0  0
  -18.4602  -28.3950   25.9341 C   0  0  0  0  0  0  0  0  0  0  0  0
  -23.1112  -27.1694   20.4188 C   0  0  0  0  0  0  0  0  0  0  0  0
  -24.9478  -26.1742   22.5119 C   0  0  0  0  0  0  0  0  0  0  0  0
  -19.8371  -27.7379   25.9855 C   0  0  0  0  0  0  0  0  0  0  0  0
  -25.9645  -20.9583   15.9163 C   0  0  0  0  0  0  0  0  0  0  0  0
  -20.9101  -28.7081   25.5016 C   0  0  0  0  0  0  0  0  0  0  0  0
  -26.1961  -19.9210   17.0165 C   0  0  0  0  0  0  0  0  0  0  0  0
  -27.0677  -20.9178   14.8612 C   0  0  0  0  0  0  0  0  0  0  0  0
  -28.6697  -19.9995   16.4934 C   0  0  0  0  0  0  0  0  0  0  0  0
  -20.6681  -29.1156   24.0432 C   0  0  1  0  0  0  0  0  0  0  0  0
  -22.6065  -26.7451   21.7945 C   0  0  1  0  0  0  0  0  0  0  0  0
  -27.6126  -20.0401   17.6102 C   0  0  2  0  0  0  0  0  0  0  0  0
  -30.2651  -25.2187   23.3424 C   0  0  0  0  0  0  0  0  0  0  0  0
  -32.7384  -25.6837   23.1956 C   0  0  0  0  0  0  0  0  0  0  0  0
  -25.9274  -19.7468   22.9736 C   0  0  0  0  0  0  0  0  0  0  0  0
  -23.5239  -25.4365   26.1311 C   0  0  0  0  0  0  0  0  0  0  0  0
  -24.6282  -23.2026   26.3730 C   0  0  0  0  0  0  0  0  0  0  0  0
  -22.2102  -23.3385   25.7750 C   0  0  0  0  0  0  0  0  0  0  0  0
  -24.0982  -21.5475   20.1652 C   0  0  0  0  0  0  0  0  0  0  0  0
  -30.6685  -28.5686   19.1136 C   0  0  0  0  0  0  0  0  0  0  0  0
  -31.2938  -24.3673   16.3385 C   0  0  0  0  0  0  0  0  0  0  0  0
  -31.4585  -23.1381   15.4578 C   0  0  0  0  0  0  0  0  0  0  0  0
  -29.1729  -28.8608   19.0599 C   0  0  0  0  0  0  0  0  0  1  0  0
  -31.5405  -25.0039   22.5052 C   0  0  0  0  0  0  0  0  0  0  0  0
  -23.9503  -23.9667   24.0518 C   0  0  1  0  0  0  0  0  0  0  0  0
  -24.9148  -20.7085   22.3715 C   0  0  2  0  0  0  0  0  0  0  0  0
  -23.5872  -24.0046   25.5631 C   0  0  0  0  0  0  0  0  0  0  0  0
  -27.2735  -17.7855   18.5507 N   0  0  0  0  0  0  0  0  0  0  0  0
  -31.0621  -26.2624   18.4360 N   0  0  0  0  0  0  0  0  0  0  0  0
  -27.8647  -18.9862   18.6726 N   0  0  0  0  0  0  0  0  0  0  0  0
  -23.5191  -25.8213   22.4712 N   0  0  0  0  0  0  0  0  0  0  0  0
  -28.3856  -21.0370   15.4896 N   0  0  0  0  0  0  0  0  0  0  0  0
  -29.3152  -20.2453   20.0587 N   0  0  0  0  0  0  0  0  0  0  0  0
  -29.0279  -16.2727   22.1875 N   0  0  0  0  0  0  0  0  0  0  0  0
  -31.4404  -24.0235   17.7153 N   0  0  0  0  0  0  0  0  0  0  0  0
  -21.0907  -28.0608   23.1469 N   0  0  0  0  0  0  0  0  0  0  0  0
  -23.9909  -22.6249   23.4805 N   0  0  0  0  0  0  0  0  0  0  0  0
  -30.4711  -22.1223   15.7475 N   0  0  0  0  0  0  0  0  0  0  0  0
  -25.0505  -20.6657   20.8880 N   0  3  0  0  0  0  0  0  0  0  0  0
  -29.9552  -18.3683   22.2732 O   0  0  0  0  0  0  0  0  0  0  0  0
  -23.3484  -28.6182   23.0258 O   0  0  0  0  0  0  0  0  0  0  0  0
  -21.7890  -24.4356   23.1943 O   0  0  0  0  0  0  0  0  0  0  0  0
  -26.1929  -22.7215   22.7603 O   0  0  0  0  0  0  0  0  0  0  0  0
  -28.9364  -22.9092   14.2368 O   0  0  0  0  0  0  0  0  0  0  0  0
  -26.0612  -11.8570   20.5336 O   0  0  0  0  0  0  0  0  0  0  0  0
  -28.5876  -28.6165   20.3382 O   0  0  0  0  0  0  0  0  0  1  0  0
  -20.7177  -10.6876   19.8385 F   0  0  0  0  0  0  0  0  0  0  0  0
  -24.5409  -10.8740   22.6229 F   0  0  0  0  0  0  0  0  0  0  0  0
  1  2  1  0  0  0  0
  1  5  2  0  0  0  0
  2  6  2  0  0  0  0
  3  8  2  0  0  0  0
  3 17  1  0  0  0  0
  4  9  1  0  0  0  0
  4 17  2  0  0  0  0
  5 19  1  0  0  0  0
  6 21  1  0  0  0  0
  7 10  2  0  0  0  0
  7 20  1  0  0  0  0
  8 24  1  0  0  0  0
  9 24  2  0  0  0  0
 10 25  1  0  0  0  0
 11 12  2  0  0  0  0
 11 26  1  0  0  0  0
 12 27  1  0  0  0  0
 13 22  1  0  0  0  0
 13 25  2  0  0  0  0
 14 23  2  0  0  0  0
 14 30  1  0  0  0  0
 15 23  1  0  0  0  0
 15 31  2  0  0  0  0
 16 27  2  0  0  0  0
 16 28  1  0  0  0  0
 17 29  1  0  0  0  0
 18 29  1  0  0  0  0
 18 32  2  0  0  0  0
 18 33  1  0  0  0  0
 19 21  2  0  0  0  0
 19 38  1  0  0  0  0
 20 22  2  0  0  0  0
 20 39  1  0  0  0  0
 21 47  1  0  0  0  0
 22 40  1  0  0  0  0
 23 61  1  0  0  0  0
 24 82  1  0  0  0  0
 25 83  1  0  0  0  0
 26 28  2  0  0  0  0
 26 82  1  0  0  0  0
 27 84  1  0  0  0  0
 28 85  1  0  0  0  0
 29 65  2  0  0  0  0
 30 57  1  0  0  0  0
 30 66  2  0  0  0  0
 31 66  1  0  0  0  0
 31 72  1  0  0  0  0
 32 67  1  0  0  0  0
 32 70  1  0  0  0  0
 33 71  1  0  0  0  0
 33 77  2  0  0  0  0
 34 48  1  0  0  0  0
 34 73  1  0  0  0  0
 34 78  2  0  0  0  0
 35 62  1  0  0  0  0
 35 68  1  0  0  0  0
 35 79  2  0  0  0  0
 36 63  1  0  0  0  0
 36 74  1  0  0  0  0
 36 80  2  0  0  0  0
 37 69  1  0  0  0  0
 37 75  1  0  0  0  0
 37 81  2  0  0  0  0
 38 41  1  0  0  0  0
 39 48  1  0  0  0  0
 40 68  1  0  0  0  0
 41 43  1  0  0  0  0
 42 44  1  0  0  0  0
 42 45  1  0  0  0  0
 43 47  1  0  0  0  0
 44 49  1  0  0  0  0
 45 69  1  0  0  0  0
 46 49  1  0  0  0  0
 46 69  1  0  0  0  0
 47 73  1  0  0  0  0
 48 68  1  0  0  0  0
 49 67  1  0  0  0  0
 50 61  1  0  0  0  0
 51 61  1  0  0  0  0
 52 63  1  0  0  0  0
 53 64  1  0  0  0  0
 54 64  1  0  0  0  0
 55 64  1  0  0  0  0
 56 76  1  0  0  0  0
 57 60  1  0  0  0  0
 58 59  1  0  0  0  0
 58 72  1  0  0  0  0
 59 75  1  0  0  0  0
 60 83  1  0  0  0  0
 62 64  1  0  0  0  0
 62 74  1  0  0  0  0
 63 76  1  0  0  0  0
 65 67  1  0  0  0  0
M  CHG  1  76   1
M  ISO  4  37 100  60 101  75 100  83 101
M  END
> <Batch ID>
0116

> <Smiles>
CNC(C)C(=O)NC(C(=O)N1Cc2cc([101O:1][101CH2:1]Cc3cc(C(C)C)cc(NCC[100NH:0][100C:0](=O)N4CCCC(n5nc(-c6ccc(Oc7ccc(F)cc7F)cc6)c(C(N)=O)c5N)C4)n3)ccc2CC1C(=O)NC1CCCc2ccccc21)C(C)(C)C

> <Shape>
0.221

> <Color>
0.090

> <Negative vol penalty>
0.000

$$$$

  -OEChem-04052320133D

 87 95  0     1  0  0  0  0  0999 V2000
  -32.3284  -13.4335   19.4584 C   0  0  0  0  0  0  0  0  0  0  0  0
  -31.7620  -14.5900   19.9825 C   0  0  0  0  0  0  0  0  0  0  0  0
  -28.4711  -23.5802   18.5236 C   0  0  0  0  0  0  0  0  0  0  0  0
  -29.7378  -24.1415   20.5028 C   0  0  0  0  0  0  0  0  0  0  0  0
  -31.5102  -12.3715   19.0789 C   0  0  0  0  0  0  0  0  0  0  0  0
  -30.3784  -14.6804   20.1383 C   0  0  0  0  0  0  0  0  0  0  0  0
  -26.8954  -19.3257   21.9867 C   0  0  0  0  0  0  0  0  0  0  0  0
  -28.6408  -22.2236   18.7997 C   0  0  0  0  0  0  0  0  0  0  0  0
  -29.9074  -22.7848   20.7790 C   0  0  0  0  0  0  0  0  0  0  0  0
  -26.2047  -20.3887   21.4063 C   0  0  0  0  0  0  0  0  0  0  0  0
  -31.0667  -19.8957   18.4524 C   0  0  0  0  0  0  0  0  0  0  0  0
  -31.4246  -19.0597   17.3949 C   0  0  0  0  0  0  0  0  0  0  0  0
  -24.1751  -19.0856   21.4496 C   0  0  0  0  0  0  0  0  0  0  0  0
  -29.4068  -17.7736   17.7286 C   0  0  0  0  0  0  0  0  0  0  0  0
  -29.0197  -24.5392   19.3751 C   0  0  0  0  0  0  0  0  0  0  0  0
  -29.2675  -26.6332   17.9393 C   0  0  0  0  0  0  0  0  0  0  0  0
  -30.1151  -12.4546   19.2189 C   0  0  0  0  0  0  0  0  0  0  0  0
  -26.2323  -18.1288   22.2935 C   0  0  0  0  0  0  0  0  0  0  0  0
  -29.5375  -13.6100   19.7835 C   0  0  0  0  0  0  0  0  0  0  0  0
  -24.8591  -18.0099   22.0362 C   0  0  0  0  0  0  0  0  0  0  0  0
  -29.3589  -21.8258   19.9274 C   0  0  0  0  0  0  0  0  0  0  0  0
  -24.8450  -20.2677   21.1349 C   0  0  0  0  0  0  0  0  0  0  0  0
  -29.8788  -19.6707   19.1481 C   0  0  0  0  0  0  0  0  0  0  0  0
  -30.5947  -17.9986   17.0329 C   0  0  0  0  0  0  0  0  0  0  0  0
  -29.0488  -18.6096   18.7862 C   0  0  0  0  0  0  0  0  0  0  0  0
  -28.8453  -25.9408   19.0900 C   0  0  0  0  0  0  0  0  0  0  0  0
  -28.8663  -27.9295   18.1521 C   0  0  0  0  0  0  0  0  0  0  0  0
  -29.9603  -26.1481   16.7816 C   0  0  0  0  0  0  0  0  0  0  0  0
  -26.5097  -15.1057   21.3513 C   0  0  0  0  0  0  0  0  0  0  0  0
  -24.2828  -14.5922   23.6533 C   0  0  0  0  0  0  0  0  0  0  0  0
  -19.2194  -27.3406   22.0290 C   0  0  0  0  0  0  0  0  0  0  0  0
  -21.7562  -15.8496   25.5721 C   0  0  0  0  0  0  0  0  0  0  0  0
  -24.5263  -30.3594   21.4854 C   0  0  0  0  0  0  0  0  0  0  0  0
  -29.2774  -11.2724   18.7994 C   0  0  0  0  0  0  0  0  0  0  0  0
  -26.9859  -17.0012   22.9439 C   0  0  0  0  0  0  0  0  0  0  0  0
  -24.0965  -16.7534   22.3651 C   0  0  0  0  0  0  0  0  0  0  0  0
  -27.8096  -11.6289   18.5881 C   0  0  0  0  0  0  0  0  0  0  0  0
  -28.0131  -31.0552   21.6724 C   0  0  0  0  0  0  0  0  0  0  0  0
  -23.5243  -24.6380   24.9009 C   0  0  0  0  0  0  0  0  0  0  0  0
  -27.2872  -12.4107   19.7841 C   0  0  0  0  0  0  0  0  0  0  0  0
  -28.6598  -29.8858   20.9280 C   0  0  0  0  0  0  0  0  0  0  0  0
  -22.4269  -25.5571   24.4050 C   0  0  0  0  0  0  0  0  0  0  0  0
  -26.7871  -30.6098   22.4665 C   0  0  0  0  0  0  0  0  0  0  0  0
  -26.4191  -28.7120   20.9379 C   0  0  0  0  0  0  0  0  0  0  0  0
  -23.2473  -23.3329   24.1795 C   0  0  0  0  0  0  0  0  0  0  0  0
  -28.0328  -13.7428   19.9337 C   0  0  1  0  0  0  0  0  0  0  0  0
  -26.3209  -15.6431   22.7417 C   0  0  1  0  0  0  0  0  0  0  0  0
  -27.6267  -29.1222   20.0778 C   0  0  2  0  0  0  0  0  0  0  0  0
  -22.3819  -25.2480   22.9156 C   0  0  2  0  0  0  0  0  0  0  0  0
  -20.1011  -15.1796   27.3355 C   0  0  0  0  0  0  0  0  0  0  0  0
  -21.7859  -21.6661   20.5199 C   0  0  0  0  0  0  0  0  0  0  0  0
  -22.5981  -13.1849   21.5341 C   0  0  0  0  0  0  0  0  0  0  0  0
  -20.6274  -13.3894   23.0647 C   0  0  0  0  0  0  0  0  0  0  0  0
  -22.6176  -12.0599   23.7675 C   0  0  0  0  0  0  0  0  0  0  0  0
  -22.8700  -17.7829   27.5166 C   0  0  0  0  0  0  0  0  0  0  0  0
  -21.0590  -25.6008   22.2610 C   0  0  0  0  0  0  0  0  0  0  0  0
  -22.3197  -29.9848   20.4131 C   0  0  0  0  0  0  0  0  0  0  0  0
  -23.3926  -23.2990   21.6583 C   0  0  0  0  0  0  0  0  0  0  0  0
  -21.3824  -29.3190   21.4033 C   0  0  0  0  0  0  0  0  0  0  0  0
  -22.7739  -14.5823   23.6979 C   0  0  1  0  0  0  0  0  0  0  0  0
  -20.6924  -27.0912   22.2975 C   0  0  1  0  0  0  0  0  0  0  0  0
  -21.4812  -15.7571   27.0622 C   0  0  2  0  0  0  0  0  0  0  0  0
  -23.0768  -21.8487   21.3073 C   0  0  2  0  0  0  0  0  0  1  0  0
  -22.1688  -13.3272   23.0080 C   0  0  0  0  0  0  0  0  0  0  0  0
  -28.2237  -26.7317   19.9687 N   0  0  0  0  0  0  0  0  0  0  0  0
  -28.2524  -27.9345   19.3700 N   0  0  0  0  0  0  0  0  0  0  0  0
  -24.8789  -15.6767   22.9943 N   0  0  0  0  0  0  0  0  0  0  0  0
  -25.8462  -29.8933   21.6021 N   0  0  0  0  0  0  0  0  0  0  0  0
  -28.9823  -29.0541   17.4144 N   0  0  0  0  0  0  0  0  0  0  0  0
  -31.3617  -26.1666   16.7850 N   0  0  0  0  0  0  0  0  0  0  0  0
  -18.4603  -27.3821   23.1783 N   0  0  0  0  0  0  0  0  0  0  0  0
  -27.6584  -14.3549   21.1895 N   0  0  0  0  0  0  0  0  0  0  0  0
  -22.4060  -14.7279   25.1021 N   0  0  0  0  0  0  0  0  0  0  0  0
  -23.7018  -29.6261   20.6409 N   0  0  0  0  0  0  0  0  0  0  0  0
  -22.6155  -23.7438   22.8595 N   0  3  1  0  0  0  0  0  0  0  0  0
  -21.5579  -17.1075   27.6879 N   0  3  0  0  0  0  0  0  0  0  0  0
  -21.5337  -27.8431   21.3243 N   0  3  0  0  0  0  0  0  0  0  0  0
  -29.3544  -25.7263   15.7675 O   0  0  0  0  0  0  0  0  0  0  0  0
  -25.6743  -15.3526   20.4895 O   0  0  0  0  0  0  0  0  0  0  0  0
  -24.9096  -13.6752   24.1899 O   0  0  0  0  0  0  0  0  0  0  0  0
  -18.7536  -27.4938   20.9025 O   0  0  0  0  0  0  0  0  0  0  0  0
  -21.4241  -16.8182   24.8924 O   0  0  0  0  0  0  0  0  0  0  0  0
  -24.1147  -31.3585   22.0850 O   0  0  0  0  0  0  0  0  0  0  0  0
  -29.5244  -20.5021   20.1973 O   0  0  0  0  0  0  0  0  0  0  0  0
  -24.1686  -21.3034   20.5678 O   0  0  0  0  0  0  0  0  0  1  0  0
  -30.9378  -17.1968   16.0163 F   0  0  0  0  0  0  0  0  0  0  0  0
  -27.9058  -18.3892   19.4501 F   0  0  0  0  0  0  0  0  0  0  0  0
  1  2  1  0  0  0  0
  1  5  2  0  0  0  0
  2  6  2  0  0  0  0
  3  8  2  0  0  0  0
  3 15  1  0  0  0  0
  4  9  1  0  0  0  0
  4 15  2  0  0  0  0
  5 17  1  0  0  0  0
  6 19  1  0  0  0  0
  7 10  2  0  0  0  0
  7 18  1  0  0  0  0
  8 21  1  0  0  0  0
  9 21  2  0  0  0  0
 10 22  1  0  0  0  0
 11 12  2  0  0  0  0
 11 23  1  0  0  0  0
 12 24  1  0  0  0  0
 13 20  1  0  0  0  0
 13 22  2  0  0  0  0
 14 24  2  0  0  0  0
 14 25  1  0  0  0  0
 15 26  1  0  0  0  0
 16 26  1  0  0  0  0
 16 27  2  0  0  0  0
 16 28  1  0  0  0  0
 17 19  2  0  0  0  0
 17 34  1  0  0  0  0
 18 20  2  0  0  0  0
 18 35  1  0  0  0  0
 19 46  1  0  0  0  0
 20 36  1  0  0  0  0
 21 84  1  0  0  0  0
 22 85  1  0  0  0  0
 23 25  2  0  0  0  0
 23 84  1  0  0  0  0
 24 86  1  0  0  0  0
 25 87  1  0  0  0  0
 26 65  2  0  0  0  0
 27 66  1  0  0  0  0
 27 69  1  0  0  0  0
 28 70  1  0  0  0  0
 28 78  2  0  0  0  0
 29 47  1  0  0  0  0
 29 72  1  0  0  0  0
 29 79  2  0  0  0  0
 30 60  1  0  0  0  0
 30 67  1  0  0  0  0
 30 80  2  0  0  0  0
 31 61  1  0  0  0  0
 31 71  1  0  0  0  0
 31 81  2  0  0  0  0
 32 62  1  0  0  0  0
 32 73  1  0  0  0  0
 32 82  2  0  0  0  0
 33 68  1  0  0  0  0
 33 74  1  0  0  0  0
 33 83  2  0  0  0  0
 34 37  1  0  0  0  0
 35 47  1  0  0  0  0
 36 67  1  0  0  0  0
 37 40  1  0  0  0  0
 38 41  1  0  0  0  0
 38 43  1  0  0  0  0
 39 42  1  0  0  0  0
 39 45  1  0  0  0  0
 40 46  1  0  0  0  0
 41 48  1  0  0  0  0
 42 49  1  0  0  0  0
 43 68  1  0  0  0  0
 44 48  1  0  0  0  0
 44 68  1  0  0  0  0
 45 75  1  0  0  0  0
 46 72  1  0  0  0  0
 47 67  1  0  0  0  0
 48 66  1  0  0  0  0
 49 56  1  0  0  0  0
 49 75  1  0  0  0  0
 50 62  1  0  0  0  0
 51 63  1  0  0  0  0
 52 64  1  0  0  0  0
 53 64  1  0  0  0  0
 54 64  1  0  0  0  0
 55 76  1  0  0  0  0
 56 61  1  0  0  0  0
 57 59  1  0  0  0  0
 57 74  1  0  0  0  0
 58 63  1  0  0  0  0
 58 75  1  0  0  0  0
 59 77  1  0  0  0  0
 60 64  1  0  0  0  0
 60 73  1  0  0  0  0
 61 77  1  0  0  0  0
 62 76  1  0  0  0  0
 63 85  1  0  0  0  0
 65 66  1  0  0  0  0
M  CHG  3  75   1  76   1  77   1
M  ISO  4  33 100  63 101  74 100  85 101
M  END
> <Batch ID>
0116

> <Smiles>
CNC(C)C(=O)NC(C(=O)N1Cc2cc([101O:1][101CH:1](C)CN3CCCC3CC(NCC[100NH:0][100C:0](=O)N3CCCC(n4nc(-c5ccc(Oc6ccc(F)cc6F)cc5)c(C(N)=O)c4N)C3)C(N)=O)ccc2CC1C(=O)NC1CCCc2ccccc21)C(C)(C)C

> <Shape>
0.250

> <Color>
0.064

> <Negative vol penalty>
0.000

$$$$

  -OEChem-04052320133D

 88 96  0     1  0  0  0  0  0999 V2000
  -26.5479  -38.6899   22.9652 C   0  0  0  0  0  0  0  0  0  0  0  0
  -27.5382  -37.7170   22.8742 C   0  0  0  0  0  0  0  0  0  0  0  0
  -23.7819   -9.0299   19.5788 C   0  0  0  0  0  0  0  0  0  0  0  0
  -24.4012   -9.2615   21.9025 C   0  0  0  0  0  0  0  0  0  0  0  0
  -25.4111  -38.4557   23.7378 C   0  0  0  0  0  0  0  0  0  0  0  0
  -27.3927  -36.5097   23.5566 C   0  0  0  0  0  0  0  0  0  0  0  0
  -27.5369  -29.1841   20.8471 C   0  0  0  0  0  0  0  0  0  0  0  0
  -22.6686   -8.2764   19.9505 C   0  0  0  0  0  0  0  0  0  0  0  0
  -23.2878   -8.5080   22.2743 C   0  0  0  0  0  0  0  0  0  0  0  0
  -27.3855  -27.8513   20.4637 C   0  0  0  0  0  0  0  0  0  0  0  0
  -20.8079   -6.3424   23.8140 C   0  0  0  0  0  0  0  0  0  0  0  0
  -20.9899   -5.3471   24.7741 C   0  0  0  0  0  0  0  0  0  0  0  0
  -25.9976  -27.4407   22.4010 C   0  0  0  0  0  0  0  0  0  0  0  0
  -22.5884   -4.2492   23.3330 C   0  0  0  0  0  0  0  0  0  0  0  0
  -24.6483   -9.5224   20.5548 C   0  0  0  0  0  0  0  0  0  0  0  0
  -26.8637   -9.8929   19.3455 C   0  0  0  0  0  0  0  0  0  0  0  0
  -25.2472  -37.2411   24.4222 C   0  0  0  0  0  0  0  0  0  0  0  0
  -26.9059  -29.6546   22.0020 C   0  0  0  0  0  0  0  0  0  0  0  0
  -26.2533  -36.2596   24.3401 C   0  0  0  0  0  0  0  0  0  0  0  0
  -26.1354  -28.7777   22.7833 C   0  0  0  0  0  0  0  0  0  0  0  0
  -22.4214   -8.0155   21.2983 C   0  0  0  0  0  0  0  0  0  0  0  0
  -26.6179  -26.9817   21.2390 C   0  0  0  0  0  0  0  0  0  0  0  0
  -21.5161   -6.2911   22.6133 C   0  0  0  0  0  0  0  0  0  0  0  0
  -21.8801   -4.3005   24.5336 C   0  0  0  0  0  0  0  0  0  0  0  0
  -22.4064   -5.2445   22.3729 C   0  0  0  0  0  0  0  0  0  0  0  0
  -25.7989  -10.3003   20.1713 C   0  0  0  0  0  0  0  0  0  0  0  0
  -27.6936  -10.9860   19.2910 C   0  0  0  0  0  0  0  0  0  0  0  0
  -27.0829   -8.6386   18.6864 C   0  0  0  0  0  0  0  0  0  0  0  0
  -26.2375  -32.5652   24.2729 C   0  0  0  0  0  0  0  0  0  0  0  0
  -23.6055  -31.0100   24.0196 C   0  0  0  0  0  0  0  0  0  0  0  0
  -20.8110  -29.2605   23.1438 C   0  0  0  0  0  0  0  0  0  0  0  0
  -26.7585  -16.8555   20.0154 C   0  0  0  0  0  0  0  0  0  0  0  0
  -24.0232  -37.0523   25.2830 C   0  0  0  0  0  0  0  0  0  0  0  0
  -27.0915  -31.0670   22.4862 C   0  0  0  0  0  0  0  0  0  0  0  0
  -25.5034  -29.3194   24.0363 C   0  0  0  0  0  0  0  0  0  0  0  0
  -23.7714  -35.5982   25.6733 C   0  0  0  0  0  0  0  0  0  0  0  0
  -29.0254  -14.8071   21.8435 C   0  0  0  0  0  0  0  0  0  0  0  0
  -25.0621  -34.9437   26.1554 C   0  0  0  0  0  0  0  0  0  0  0  0
  -24.2020  -24.4208   19.5918 C   0  0  0  0  0  0  0  0  0  0  0  0
  -25.7297  -23.8122   17.6753 C   0  0  0  0  0  0  0  0  0  0  0  0
  -23.3118  -23.2239   19.2622 C   0  0  0  0  0  0  0  0  0  0  0  0
  -24.8393  -22.6154   17.3457 C   0  0  0  0  0  0  0  0  0  0  0  0
  -28.5516  -13.3831   21.5478 C   0  0  0  0  0  0  0  0  0  0  0  0
  -27.8534  -15.7792   21.9595 C   0  0  0  0  0  0  0  0  0  0  0  0
  -26.4577  -14.3538   20.5125 C   0  0  0  0  0  0  0  0  0  0  0  0
  -26.1203  -34.9274   25.0457 C   0  0  1  0  0  0  0  0  0  0  0  0
  -25.8335  -31.6445   23.1592 C   0  0  1  0  0  0  0  0  0  0  0  0
  -25.6550  -24.1817   19.1622 C   0  0  0  0  0  0  0  0  0  0  0  0
  -23.3863  -22.8545   17.7753 C   0  0  0  0  0  0  0  0  0  0  0  0
  -27.6071  -13.3477   20.3312 C   0  0  2  0  0  0  0  0  0  0  0  0
  -18.3404  -29.1524   23.5705 C   0  0  0  0  0  0  0  0  0  0  0  0
  -25.4514  -17.2640   16.5967 C   0  0  0  0  0  0  0  0  0  0  0  0
  -20.0707  -21.5527   15.5597 C   0  0  0  0  0  0  0  0  0  0  0  0
  -18.7791  -21.2369   17.7060 C   0  0  0  0  0  0  0  0  0  0  0  0
  -24.1341  -29.7158   26.7306 C   0  0  0  0  0  0  0  0  0  0  0  0
  -21.8061  -28.7969   26.6663 C   0  0  0  0  0  0  0  0  0  0  0  0
  -22.1712  -31.2646   26.6785 C   0  0  0  0  0  0  0  0  0  0  0  0
  -20.1796  -29.7785   20.2991 C   0  0  0  0  0  0  0  0  0  0  0  0
  -26.5137  -25.4103   19.4565 C   0  0  0  0  0  0  0  0  0  1  0  0
  -22.9030  -20.4023   18.3118 C   0  0  0  0  0  0  0  0  0  0  0  0
  -24.3592  -18.5084   18.5424 C   0  0  0  0  0  0  0  0  0  0  0  0
  -22.7069  -29.9426   24.5910 C   0  0  1  0  0  0  0  0  0  0  0  0
  -19.4387  -29.7183   22.6837 C   0  0  2  0  0  0  0  0  0  0  0  0
  -22.5276  -21.6259   17.4809 C   0  0  1  0  0  0  0  0  0  0  0  0
  -25.6090  -17.7860   18.0224 C   0  0  1  0  0  0  0  0  0  0  0  0
  -20.1275  -21.1151   17.0145 C   0  0  0  0  0  0  0  0  0  0  0  0
  -22.7230  -29.9243   26.1456 C   0  0  0  0  0  0  0  0  0  0  0  0
  -25.9373  -11.5543   20.6101 N   0  0  0  0  0  0  0  0  0  0  0  0
  -27.0988  -11.9442   20.0579 N   0  0  0  0  0  0  0  0  0  0  0  0
  -24.9375  -30.6526   23.7776 N   0  0  0  0  0  0  0  0  0  0  0  0
  -26.9975  -15.6974   20.7735 N   0  0  0  0  0  0  0  0  0  0  0  0
  -28.8668  -11.2113   18.6624 N   0  0  0  0  0  0  0  0  0  0  0  0
  -26.1306   -7.6232   18.8486 N   0  0  0  0  0  0  0  0  0  0  0  0
  -25.8374  -33.8755   24.0928 N   0  0  0  0  0  0  0  0  0  0  0  0
  -21.3875  -30.1655   24.0097 N   0  0  0  0  0  0  0  0  0  0  0  0
  -25.9416  -16.6890   18.9039 N   0  0  0  0  0  0  0  0  0  0  0  0
  -24.0399  -19.7011   17.7615 N   0  0  0  0  0  0  0  0  0  0  0  0
  -19.1872  -29.2749   21.2833 N   0  3  0  0  0  0  0  0  0  0  0  0
  -21.1034  -21.9794   17.7288 N   0  3  0  0  0  0  0  0  0  0  0  0
  -28.1016   -8.4191   17.9881 O   0  0  0  0  0  0  0  0  0  0  0  0
  -26.8650  -32.1205   25.2270 O   0  0  0  0  0  0  0  0  0  0  0  0
  -23.1431  -32.1327   23.7980 O   0  0  0  0  0  0  0  0  0  0  0  0
  -21.3190  -28.2039   22.7750 O   0  0  0  0  0  0  0  0  0  0  0  0
  -27.2421  -17.9553   20.3046 O   0  0  0  0  0  0  0  0  0  0  0  0
  -21.3350   -7.2804   21.6615 O   0  0  0  0  0  0  0  0  0  0  0  0
  -26.4705  -25.6830   20.8565 O   0  0  0  0  0  0  0  0  0  1  0  0
  -22.0559   -3.3456   25.4563 F   0  0  0  0  0  0  0  0  0  0  0  0
  -23.0904   -5.1905   21.2218 F   0  0  0  0  0  0  0  0  0  0  0  0
  1  2  1  0  0  0  0
  1  5  2  0  0  0  0
  2  6  2  0  0  0  0
  3  8  2  0  0  0  0
  3 15  1  0  0  0  0
  4  9  1  0  0  0  0
  4 15  2  0  0  0  0
  5 17  1  0  0  0  0
  6 19  1  0  0  0  0
  7 10  2  0  0  0  0
  7 18  1  0  0  0  0
  8 21  1  0  0  0  0
  9 21  2  0  0  0  0
 10 22  1  0  0  0  0
 11 12  2  0  0  0  0
 11 23  1  0  0  0  0
 12 24  1  0  0  0  0
 13 20  1  0  0  0  0
 13 22  2  0  0  0  0
 14 24  2  0  0  0  0
 14 25  1  0  0  0  0
 15 26  1  0  0  0  0
 16 26  1  0  0  0  0
 16 27  2  0  0  0  0
 16 28  1  0  0  0  0
 17 19  2  0  0  0  0
 17 33  1  0  0  0  0
 18 20  2  0  0  0  0
 18 34  1  0  0  0  0
 19 46  1  0  0  0  0
 20 35  1  0  0  0  0
 21 85  1  0  0  0  0
 22 86  1  0  0  0  0
 23 25  2  0  0  0  0
 23 85  1  0  0  0  0
 24 87  1  0  0  0  0
 25 88  1  0  0  0  0
 26 68  2  0  0  0  0
 27 69  1  0  0  0  0
 27 72  1  0  0  0  0
 28 73  1  0  0  0  0
 28 80  2  0  0  0  0
 29 47  1  0  0  0  0
 29 74  1  0  0  0  0
 29 81  2  0  0  0  0
 30 62  1  0  0  0  0
 30 70  1  0  0  0  0
 30 82  2  0  0  0  0
 31 63  1  0  0  0  0
 31 75  1  0  0  0  0
 31 83  2  0  0  0  0
 32 71  1  0  0  0  0
 32 76  1  0  0  0  0
 32 84  2  0  0  0  0
 33 36  1  0  0  0  0
 34 47  1  0  0  0  0
 35 70  1  0  0  0  0
 36 38  1  0  0  0  0
 37 43  1  0  0  0  0
 37 44  1  0  0  0  0
 38 46  1  0  0  0  0
 39 41  1  0  0  0  0
 39 48  1  0  0  0  0
 40 42  1  0  0  0  0
 40 48  1  0  0  0  0
 41 49  1  0  0  0  0
 42 49  1  0  0  0  0
 43 50  1  0  0  0  0
 44 71  1  0  0  0  0
 45 50  1  0  0  0  0
 45 71  1  0  0  0  0
 46 74  1  0  0  0  0
 47 70  1  0  0  0  0
 48 59  1  0  0  0  0
 49 64  1  0  0  0  0
 50 69  1  0  0  0  0
 51 63  1  0  0  0  0
 52 65  1  0  0  0  0
 53 66  1  0  0  0  0
 54 66  1  0  0  0  0
 55 67  1  0  0  0  0
 56 67  1  0  0  0  0
 57 67  1  0  0  0  0
 58 78  1  0  0  0  0
 59 86  1  0  0  0  0
 60 64  1  0  0  0  0
 60 77  1  0  0  0  0
 61 65  1  0  0  0  0
 61 77  1  0  0  0  0
 62 67  1  0  0  0  0
 62 75  1  0  0  0  0
 63 78  1  0  0  0  0
 64 79  1  0  0  0  0
 65 76  1  0  0  0  0
 66 79  1  0  0  0  0
 68 69  1  0  0  0  0
M  CHG  2  78   1  79   1
M  ISO  4  32 100  59 101  76 100  86 101
M  END
> <Batch ID>
0116

> <Smiles>
CNC(C)C(=O)NC(C(=O)N1Cc2cc([101O:1][101CH2:1]C3CCC(C(CNCC(C)[100NH:0][100C:0](=O)N4CCCC(n5nc(-c6ccc(Oc7ccc(F)cc7F)cc6)c(C(N)=O)c5N)C4)NC(C)C)CC3)ccc2CC1C(=O)NC1CCCc2ccccc21)C(C)(C)C

> <Shape>
0.265

> <Color>
0.098

> <Negative vol penalty>
0.000

$$$$

  -OEChem-04052320133D

 85 93  0     1  0  0  0  0  0999 V2000
  -32.0515  -15.1846   20.4270 C   0  0  0  0  0  0  0  0  0  0  0  0
  -30.9859  -16.0677   20.5682 C   0  0  0  0  0  0  0  0  0  0  0  0
  -29.0522  -24.3781   22.1076 C   0  0  0  0  0  0  0  0  0  0  0  0
  -27.1570  -24.3971   20.6093 C   0  0  0  0  0  0  0  0  0  0  0  0
  -31.8137  -13.8589   20.0667 C   0  0  0  0  0  0  0  0  0  0  0  0
  -29.6818  -15.6258   20.3480 C   0  0  0  0  0  0  0  0  0  0  0  0
  -24.6286  -17.4596   23.2820 C   0  0  0  0  0  0  0  0  0  0  0  0
  -18.6719  -26.7965   21.9063 C   0  0  0  0  0  0  0  0  0  0  0  0
  -28.9468  -22.9921   22.2235 C   0  0  0  0  0  0  0  0  0  0  0  0
  -27.0516  -23.0110   20.7251 C   0  0  0  0  0  0  0  0  0  0  0  0
  -23.6365  -18.3827   22.9543 C   0  0  0  0  0  0  0  0  0  0  0  0
  -26.5074  -19.4368   20.3418 C   0  0  0  0  0  0  0  0  0  0  0  0
  -26.3098  -18.7008   19.1736 C   0  0  0  0  0  0  0  0  0  0  0  0
  -18.6209  -25.4338   21.6347 C   0  0  0  0  0  0  0  0  0  0  0  0
  -22.2667  -16.5949   22.0905 C   0  0  0  0  0  0  0  0  0  0  0  0
  -28.3942  -19.5441   18.2897 C   0  0  0  0  0  0  0  0  0  0  0  0
  -20.7963  -26.4617   22.9218 C   0  0  0  0  0  0  0  0  0  0  0  0
  -28.1572  -25.0806   21.3005 C   0  0  0  0  0  0  0  0  0  0  0  0
  -29.0199  -27.2320   20.2351 C   0  0  0  0  0  0  0  0  0  0  0  0
  -30.5053  -13.3981   19.8514 C   0  0  0  0  0  0  0  0  0  0  0  0
  -24.4514  -16.0962   23.0060 C   0  0  0  0  0  0  0  0  0  0  0  0
  -29.4263  -14.2930   19.9832 C   0  0  0  0  0  0  0  0  0  0  0  0
  -23.2569  -15.6561   22.4181 C   0  0  0  0  0  0  0  0  0  0  0  0
  -19.7768  -27.3282   22.5617 C   0  0  0  0  0  0  0  0  0  0  0  0
  -27.9465  -22.3086   21.5322 C   0  0  0  0  0  0  0  0  0  0  0  0
  -22.4566  -17.9508   22.3558 C   0  0  0  0  0  0  0  0  0  0  0  0
  -27.6484  -20.2265   20.4840 C   0  0  0  0  0  0  0  0  0  0  0  0
  -27.2532  -18.7544   18.1475 C   0  0  0  0  0  0  0  0  0  0  0  0
  -28.5918  -20.2802   19.4580 C   0  0  0  0  0  0  0  0  0  0  0  0
  -28.2652  -26.5125   21.1809 C   0  0  0  0  0  0  0  0  0  0  0  0
  -19.6922  -24.6521   22.0361 C   0  0  0  0  0  0  0  0  0  0  0  0
  -28.7888  -28.5505   20.5427 C   0  0  0  0  0  0  0  0  0  0  0  0
  -29.8551  -26.7515   19.1734 C   0  0  0  0  0  0  0  0  0  0  0  0
  -25.9483  -13.9629   21.1862 C   0  0  0  0  0  0  0  0  0  0  0  0
  -23.8971  -11.8901   22.6069 C   0  0  0  0  0  0  0  0  0  0  0  0
  -20.9244  -11.3957   24.2086 C   0  0  0  0  0  0  0  0  0  0  0  0
  -24.2793  -31.3646   23.2988 C   0  0  0  0  0  0  0  0  0  0  0  0
  -30.3015  -11.9682   19.4173 C   0  0  0  0  0  0  0  0  0  0  0  0
  -25.5200  -15.1098   23.3901 C   0  0  0  0  0  0  0  0  0  0  0  0
  -23.0092  -14.2008   22.1195 C   0  0  0  0  0  0  0  0  0  0  0  0
  -28.8611  -11.4854   19.5677 C   0  0  0  0  0  0  0  0  0  0  0  0
  -27.7153  -31.4024   24.2312 C   0  0  0  0  0  0  0  0  0  0  0  0
  -27.8900  -12.5213   19.0104 C   0  0  0  0  0  0  0  0  0  0  0  0
  -28.3139  -30.2184   23.4698 C   0  0  0  0  0  0  0  0  0  0  0  0
  -26.2969  -31.1049   24.7124 C   0  0  0  0  0  0  0  0  0  0  0  0
  -25.9662  -29.4697   22.8984 C   0  0  0  0  0  0  0  0  0  0  0  0
  -27.9956  -13.8452   19.7771 C   0  0  1  0  0  0  0  0  0  0  0  0
  -25.4472  -13.8101   22.5945 C   0  0  1  0  0  0  0  0  0  0  0  0
  -27.3752  -29.7428   22.3447 C   0  0  2  0  0  0  0  0  0  0  0  0
  -19.5059   -9.5866   25.2148 C   0  0  0  0  0  0  0  0  0  0  0  0
  -23.0731  -10.9850   19.8120 C   0  0  0  0  0  0  0  0  0  0  0  0
  -21.0493   -9.9189   20.8297 C   0  0  0  0  0  0  0  0  0  0  0  0
  -23.3277   -9.1346   21.4750 C   0  0  0  0  0  0  0  0  0  0  0  0
  -21.0371  -12.6394   26.8917 C   0  0  0  0  0  0  0  0  0  0  0  0
  -19.8613  -28.7815   22.8664 C   0  0  0  0  0  0  0  0  0  0  0  0
  -20.5715  -21.0777   21.8914 C   0  0  0  0  0  0  0  0  0  0  0  0
  -22.3138  -31.5023   21.7898 C   0  0  0  0  0  0  0  0  0  0  0  0
  -21.0992  -30.9173   22.4862 C   0  0  0  0  0  0  0  0  0  0  0  0
  -21.7449  -20.2200   22.3385 C   0  0  0  0  0  0  0  0  0  1  0  0
  -20.7876  -22.5485   22.2113 C   0  0  0  0  0  0  0  0  0  0  0  0
  -22.5097  -11.3800   22.3004 C   0  0  1  0  0  0  0  0  0  0  0  0
  -20.5770  -10.6344   25.4751 C   0  0  2  0  0  0  0  0  0  0  0  0
  -22.4951  -10.3823   21.1080 C   0  0  0  0  0  0  0  0  0  0  0  0
  -20.7824  -25.1326   22.6750 N   0  0  0  0  0  0  0  0  0  0  0  0
  -27.6043  -27.3079   22.0261 N   0  0  0  0  0  0  0  0  0  0  0  0
  -27.9430  -28.5409   21.6126 N   0  0  0  0  0  0  0  0  0  0  0  0
  -24.0866  -13.2758   22.5079 N   0  0  0  0  0  0  0  0  0  0  0  0
  -25.4575  -30.6604   23.5972 N   0  0  0  0  0  0  0  0  0  0  0  0
  -29.2288  -29.7055   19.9997 N   0  0  0  0  0  0  0  0  0  0  0  0
  -29.9815  -25.3668   18.9973 N   0  0  0  0  0  0  0  0  0  0  0  0
  -27.3066  -13.7506   21.0462 N   0  0  0  0  0  0  0  0  0  0  0  0
  -21.9931  -10.8276   23.5480 N   0  0  0  0  0  0  0  0  0  0  0  0
  -23.5455  -30.8807   22.2226 N   0  0  0  0  0  0  0  0  0  0  0  0
  -20.0749  -11.5701   26.5207 N   0  3  0  0  0  0  0  0  0  0  0  0
  -21.0333  -29.4543   22.2373 N   0  3  0  0  0  0  0  0  0  0  0  0
  -30.4841  -27.5269   18.4140 O   0  0  0  0  0  0  0  0  0  0  0  0
  -25.1608  -14.2505   20.2925 O   0  0  0  0  0  0  0  0  0  0  0  0
  -24.7783  -11.0894   22.9294 O   0  0  0  0  0  0  0  0  0  0  0  0
  -20.3069  -12.3924   23.8399 O   0  0  0  0  0  0  0  0  0  0  0  0
  -23.9116  -32.3546   23.9403 O   0  0  0  0  0  0  0  0  0  0  0  0
  -27.8435  -20.9561   21.6448 O   0  0  0  0  0  0  0  0  0  0  0  0
  -21.4869  -18.8498   22.0344 O   0  0  0  0  0  0  0  0  0  1  0  0
  -19.6652  -23.3060   21.7797 O   0  0  0  0  0  0  0  0  0  0  0  0
  -27.0641  -18.0464   17.0263 F   0  0  0  0  0  0  0  0  0  0  0  0
  -29.6904  -21.0362   19.5893 F   0  0  0  0  0  0  0  0  0  0  0  0
  1  2  1  0  0  0  0
  1  5  2  0  0  0  0
  2  6  2  0  0  0  0
  3  9  2  0  0  0  0
  3 18  1  0  0  0  0
  4 10  1  0  0  0  0
  4 18  2  0  0  0  0
  5 20  1  0  0  0  0
  6 22  1  0  0  0  0
  7 11  2  0  0  0  0
  7 21  1  0  0  0  0
  8 14  2  0  0  0  0
  8 24  1  0  0  0  0
  9 25  1  0  0  0  0
 10 25  2  0  0  0  0
 11 26  1  0  0  0  0
 12 13  2  0  0  0  0
 12 27  1  0  0  0  0
 13 28  1  0  0  0  0
 14 31  1  0  0  0  0
 15 23  1  0  0  0  0
 15 26  2  0  0  0  0
 16 28  2  0  0  0  0
 16 29  1  0  0  0  0
 17 24  2  0  0  0  0
 17 64  1  0  0  0  0
 18 30  1  0  0  0  0
 19 30  1  0  0  0  0
 19 32  2  0  0  0  0
 19 33  1  0  0  0  0
 20 22  2  0  0  0  0
 20 38  1  0  0  0  0
 21 23  2  0  0  0  0
 21 39  1  0  0  0  0
 22 47  1  0  0  0  0
 23 40  1  0  0  0  0
 24 55  1  0  0  0  0
 25 81  1  0  0  0  0
 26 82  1  0  0  0  0
 27 29  2  0  0  0  0
 27 81  1  0  0  0  0
 28 84  1  0  0  0  0
 29 85  1  0  0  0  0
 30 65  2  0  0  0  0
 31 64  2  0  0  0  0
 31 83  1  0  0  0  0
 32 66  1  0  0  0  0
 32 69  1  0  0  0  0
 33 70  1  0  0  0  0
 33 76  2  0  0  0  0
 34 48  1  0  0  0  0
 34 71  1  0  0  0  0
 34 77  2  0  0  0  0
 35 61  1  0  0  0  0
 35 67  1  0  0  0  0
 35 78  2  0  0  0  0
 36 62  1  0  0  0  0
 36 72  1  0  0  0  0
 36 79  2  0  0  0  0
 37 68  1  0  0  0  0
 37 73  1  0  0  0  0
 37 80  2  0  0  0  0
 38 41  1  0  0  0  0
 39 48  1  0  0  0  0
 40 67  1  0  0  0  0
 41 43  1  0  0  0  0
 42 44  1  0  0  0  0
 42 45  1  0  0  0  0
 43 47  1  0  0  0  0
 44 49  1  0  0  0  0
 45 68  1  0  0  0  0
 46 49  1  0  0  0  0
 46 68  1  0  0  0  0
 47 71  1  0  0  0  0
 48 67  1  0  0  0  0
 49 66  1  0  0  0  0
 50 62  1  0  0  0  0
 51 63  1  0  0  0  0
 52 63  1  0  0  0  0
 53 63  1  0  0  0  0
 54 74  1  0  0  0  0
 55 75  1  0  0  0  0
 56 59  1  0  0  0  0
 56 60  1  0  0  0  0
 57 58  1  0  0  0  0
 57 73  1  0  0  0  0
 58 75  1  0  0  0  0
 59 82  1  0  0  0  0
 60 83  1  0  0  0  0
 61 63  1  0  0  0  0
 61 72  1  0  0  0  0
 62 74  1  0  0  0  0
 65 66  1  0  0  0  0
M  CHG  2  74   1  75   1
M  ISO  4  37 100  59 101  73 100  82 101
M  END
> <Batch ID>
0116

> <Smiles>
CNC(C)C(=O)NC(C(=O)N1Cc2cc([101O:1][101CH2:1]CCOc3ccc(CNCC[100NH:0][100C:0](=O)N4CCCC(n5nc(-c6ccc(Oc7ccc(F)cc7F)cc6)c(C(N)=O)c5N)C4)cn3)ccc2CC1C(=O)NC1CCCc2ccccc21)C(C)(C)C

> <Shape>
0.286

> <Color>
0.056

> <Negative vol penalty>
0.000

$$$$

  -OEChem-04052320133D

 85 93  0     1  0  0  0  0  0999 V2000
  -30.1286  -34.3330   26.7366 C   0  0  0  0  0  0  0  0  0  0  0  0
  -30.3809  -33.0079   26.3963 C   0  0  0  0  0  0  0  0  0  0  0  0
  -23.0876   -9.8474   19.9461 C   0  0  0  0  0  0  0  0  0  0  0  0
  -23.8419   -9.8765   22.2411 C   0  0  0  0  0  0  0  0  0  0  0  0
  -28.8752  -34.8895   26.4853 C   0  0  0  0  0  0  0  0  0  0  0  0
  -29.3795  -32.2381   25.8055 C   0  0  0  0  0  0  0  0  0  0  0  0
  -30.1079  -27.8627   21.5827 C   0  0  0  0  0  0  0  0  0  0  0  0
  -22.3502   -8.6917   20.2031 C   0  0  0  0  0  0  0  0  0  0  0  0
  -23.1044   -8.7208   22.4982 C   0  0  0  0  0  0  0  0  0  0  0  0
  -30.1667  -26.4727   21.6728 C   0  0  0  0  0  0  0  0  0  0  0  0
  -19.8797   -7.9080   23.0991 C   0  0  0  0  0  0  0  0  0  0  0  0
  -19.1202   -7.8724   24.2684 C   0  0  0  0  0  0  0  0  0  0  0  0
  -27.8180  -26.3447   21.1376 C   0  0  0  0  0  0  0  0  0  0  0  0
  -20.3715   -5.9482   25.0226 C   0  0  0  0  0  0  0  0  0  0  0  0
  -23.8336  -10.4398   20.9651 C   0  0  0  0  0  0  0  0  0  0  0  0
  -24.1604  -12.9660   20.8266 C   0  0  0  0  0  0  0  0  0  0  0  0
  -27.8609  -34.1290   25.8823 C   0  0  0  0  0  0  0  0  0  0  0  0
  -28.8992  -28.5059   21.2796 C   0  0  0  0  0  0  0  0  0  0  0  0
  -28.1109  -32.7845   25.5471 C   0  0  0  0  0  0  0  0  0  0  0  0
  -27.7471  -27.7429   21.0417 C   0  0  0  0  0  0  0  0  0  0  0  0
  -29.0132  -20.1058   20.7083 C   0  0  0  0  0  0  0  0  0  0  0  0
  -28.8033  -21.4642   20.4989 C   0  0  0  0  0  0  0  0  0  0  0  0
  -22.3585   -8.1284   21.4791 C   0  0  0  0  0  0  0  0  0  0  0  0
  -29.0210  -25.7136   21.4530 C   0  0  0  0  0  0  0  0  0  0  0  0
  -20.8851   -6.9636   22.8914 C   0  0  0  0  0  0  0  0  0  0  0  0
  -28.5409  -19.5061   21.8704 C   0  0  0  0  0  0  0  0  0  0  0  0
  -19.3661   -6.8925   25.2302 C   0  0  0  0  0  0  0  0  0  0  0  0
  -21.1310   -5.9838   23.8532 C   0  0  0  0  0  0  0  0  0  0  0  0
  -24.5960  -11.6334   20.7001 C   0  0  0  0  0  0  0  0  0  0  0  0
  -28.1208  -22.1730   21.4744 C   0  0  0  0  0  0  0  0  0  0  0  0
  -27.8703  -20.3025   22.7847 C   0  0  0  0  0  0  0  0  0  0  0  0
  -25.2488  -13.7193   20.4602 C   0  0  0  0  0  0  0  0  0  0  0  0
  -22.8858  -13.4773   21.2386 C   0  0  0  0  0  0  0  0  0  0  0  0
  -27.0222  -30.5804   22.7886 C   0  0  0  0  0  0  0  0  0  0  0  0
  -25.4124  -30.5774   19.9724 C   0  0  0  0  0  0  0  0  0  0  0  0
  -24.6399  -28.9416   17.0786 C   0  0  0  0  0  0  0  0  0  0  0  0
  -30.7258  -14.7732   20.6538 C   0  0  0  0  0  0  0  0  0  0  0  0
  -26.5071  -34.7600   25.6735 C   0  0  0  0  0  0  0  0  0  0  0  0
  -28.8585  -30.0047   21.1599 C   0  0  0  0  0  0  0  0  0  0  0  0
  -26.4295  -28.3839   20.6932 C   0  0  0  0  0  0  0  0  0  0  0  0
  -25.6183  -33.9876   24.7021 C   0  0  0  0  0  0  0  0  0  0  0  0
  -29.6085  -12.3637   18.2827 C   0  0  0  0  0  0  0  0  0  0  0  0
  -25.6428  -32.4972   25.0258 C   0  0  0  0  0  0  0  0  0  0  0  0
  -28.1718  -12.0645   18.7144 C   0  0  0  0  0  0  0  0  0  0  0  0
  -30.5214  -12.5992   19.4840 C   0  0  0  0  0  0  0  0  0  0  0  0
  -28.6118  -13.3292   20.8604 C   0  0  0  0  0  0  0  0  0  0  0  0
  -27.0581  -31.9246   24.8820 C   0  0  1  0  0  0  0  0  0  0  0  0
  -27.4592  -30.5815   21.3510 C   0  0  1  0  0  0  0  0  0  0  0  0
  -27.6416  -13.1397   19.6819 C   0  0  2  0  0  0  0  0  0  0  0  0
  -29.7433  -19.2882   19.6918 C   0  0  0  0  0  0  0  0  0  0  0  0
  -29.2983  -22.1358   19.2619 C   0  0  0  0  0  0  0  0  0  0  0  0
  -27.3423  -19.7098   24.0500 C   0  0  0  0  0  0  0  0  0  0  0  0
  -23.2689  -29.1746   14.9898 C   0  0  0  0  0  0  0  0  0  0  0  0
  -29.5579  -17.1195   24.1041 C   0  0  0  0  0  0  0  0  0  0  0  0
  -22.8887  -29.9276   21.5593 C   0  0  0  0  0  0  0  0  0  0  0  0
  -21.7976  -29.2459   19.4115 C   0  0  0  0  0  0  0  0  0  0  0  0
  -22.5671  -31.5979   19.7259 C   0  0  0  0  0  0  0  0  0  0  0  0
  -27.0396  -28.8181   15.3509 C   0  0  0  0  0  0  0  0  0  0  0  0
  -27.8637  -23.6413   21.3037 C   0  0  0  0  0  0  0  0  0  1  0  0
  -30.7756  -16.9335   21.8744 C   0  0  0  0  0  0  0  0  0  0  0  0
  -24.2791  -29.7681   19.3897 C   0  0  1  0  0  0  0  0  0  0  0  0
  -24.6279  -29.4037   15.6327 C   0  0  2  0  0  0  0  0  0  0  0  0
  -29.9224  -17.8046   22.7936 C   0  0  1  0  0  0  0  0  0  0  0  0
  -22.9073  -30.1226   20.0301 C   0  0  0  0  0  0  0  0  0  0  0  0
  -25.8625  -11.5420   20.2856 N   0  0  0  0  0  0  0  0  0  0  0  0
  -27.6472  -21.6252   22.6160 N   0  0  0  0  0  0  0  0  0  0  0  0
  -26.2319  -12.8269   20.1484 N   0  0  0  0  0  0  0  0  0  0  0  0
  -26.4392  -29.8528   20.5941 N   0  0  0  0  0  0  0  0  0  0  0  0
  -29.9624  -13.6311   20.3608 N   0  0  0  0  0  0  0  0  0  0  0  0
  -25.4513  -15.0515   20.3776 N   0  0  0  0  0  0  0  0  0  0  0  0
  -21.8786  -12.5646   21.5804 N   0  0  0  0  0  0  0  0  0  0  0  0
  -27.3804  -31.7181   23.4864 N   0  0  0  0  0  0  0  0  0  0  0  0
  -24.3342  -29.9691   17.9458 N   0  0  0  0  0  0  0  0  0  0  0  0
  -30.1190  -15.7047   21.4873 N   0  0  0  0  0  0  0  0  0  0  0  0
  -25.6520  -28.6626   14.8435 N   0  3  0  0  0  0  0  0  0  0  0  0
  -22.6419  -14.7068   21.2859 O   0  0  0  0  0  0  0  0  0  0  0  0
  -26.4046  -29.6192   23.2316 O   0  0  0  0  0  0  0  0  0  0  0  0
  -25.3912  -31.8068   19.8731 O   0  0  0  0  0  0  0  0  0  0  0  0
  -24.8913  -27.7839   17.4059 O   0  0  0  0  0  0  0  0  0  0  0  0
  -31.8618  -14.9521   20.2016 O   0  0  0  0  0  0  0  0  0  0  0  0
  -21.6388   -7.0008   21.7303 O   0  0  0  0  0  0  0  0  0  0  0  0
  -29.0754  -24.3567   21.5410 O   0  0  0  0  0  0  0  0  0  1  0  0
  -28.7314  -18.1804   22.1019 O   0  0  0  0  0  0  0  0  0  0  0  0
  -18.6377   -6.8594   26.3538 F   0  0  0  0  0  0  0  0  0  0  0  0
  -22.0964   -5.0746   23.6598 F   0  0  0  0  0  0  0  0  0  0  0  0
  1  2  1  0  0  0  0
  1  5  2  0  0  0  0
  2  6  2  0  0  0  0
  3  8  2  0  0  0  0
  3 15  1  0  0  0  0
  4  9  1  0  0  0  0
  4 15  2  0  0  0  0
  5 17  1  0  0  0  0
  6 19  1  0  0  0  0
  7 10  2  0  0  0  0
  7 18  1  0  0  0  0
  8 23  1  0  0  0  0
  9 23  2  0  0  0  0
 10 24  1  0  0  0  0
 11 12  2  0  0  0  0
 11 25  1  0  0  0  0
 12 27  1  0  0  0  0
 13 20  1  0  0  0  0
 13 24  2  0  0  0  0
 14 27  2  0  0  0  0
 14 28  1  0  0  0  0
 15 29  1  0  0  0  0
 16 29  1  0  0  0  0
 16 32  2  0  0  0  0
 16 33  1  0  0  0  0
 17 19  2  0  0  0  0
 17 38  1  0  0  0  0
 18 20  2  0  0  0  0
 18 39  1  0  0  0  0
 19 47  1  0  0  0  0
 20 40  1  0  0  0  0
 21 22  1  0  0  0  0
 21 26  2  0  0  0  0
 21 50  1  0  0  0  0
 22 30  2  0  0  0  0
 22 51  1  0  0  0  0
 23 81  1  0  0  0  0
 24 82  1  0  0  0  0
 25 28  2  0  0  0  0
 25 81  1  0  0  0  0
 26 31  1  0  0  0  0
 26 83  1  0  0  0  0
 27 84  1  0  0  0  0
 28 85  1  0  0  0  0
 29 65  2  0  0  0  0
 30 59  1  0  0  0  0
 30 66  1  0  0  0  0
 31 52  1  0  0  0  0
 31 66  2  0  0  0  0
 32 67  1  0  0  0  0
 32 70  1  0  0  0  0
 33 71  1  0  0  0  0
 33 76  2  0  0  0  0
 34 48  1  0  0  0  0
 34 72  1  0  0  0  0
 34 77  2  0  0  0  0
 35 61  1  0  0  0  0
 35 68  1  0  0  0  0
 35 78  2  0  0  0  0
 36 62  1  0  0  0  0
 36 73  1  0  0  0  0
 36 79  2  0  0  0  0
 37 69  1  0  0  0  0
 37 74  1  0  0  0  0
 37 80  2  0  0  0  0
 38 41  1  0  0  0  0
 39 48  1  0  0  0  0
 40 68  1  0  0  0  0
 41 43  1  0  0  0  0
 42 44  1  0  0  0  0
 42 45  1  0  0  0  0
 43 47  1  0  0  0  0
 44 49  1  0  0  0  0
 45 69  1  0  0  0  0
 46 49  1  0  0  0  0
 46 69  1  0  0  0  0
 47 72  1  0  0  0  0
 48 68  1  0  0  0  0
 49 67  1  0  0  0  0
 53 62  1  0  0  0  0
 54 63  1  0  0  0  0
 55 64  1  0  0  0  0
 56 64  1  0  0  0  0
 57 64  1  0  0  0  0
 58 75  1  0  0  0  0
 59 82  1  0  0  0  0
 60 63  1  0  0  0  0
 60 74  1  0  0  0  0
 61 64  1  0  0  0  0
 61 73  1  0  0  0  0
 62 75  1  0  0  0  0
 63 83  1  0  0  0  0
 65 67  1  0  0  0  0
M  CHG  1  75   1
M  ISO  4  37 100  59 101  74 100  82 101
M  END
> <Batch ID>
0116

> <Smiles>
CNC(C)C(=O)NC(C(=O)N1Cc2cc([101O:1][101CH2:1]c3nc(C)c(OC(C)C[100NH:0][100C:0](=O)N4CCCC(n5nc(-c6ccc(Oc7ccc(F)cc7F)cc6)c(C(N)=O)c5N)C4)c(C)c3C)ccc2CC1C(=O)NC1CCCc2ccccc21)C(C)(C)C

> <Shape>
0.371

> <Color>
0.192

> <Negative vol penalty>
0.000

$$$$

  -OEChem-04052320133D

 84 92  0     1  0  0  0  0  0999 V2000
  -28.3853  -35.2359   20.4521 C   0  0  0  0  0  0  0  0  0  0  0  0
  -29.0574  -34.1868   19.8332 C   0  0  0  0  0  0  0  0  0  0  0  0
  -23.9596   -9.7640   21.6942 C   0  0  0  0  0  0  0  0  0  0  0  0
  -24.5936  -10.9733   23.6874 C   0  0  0  0  0  0  0  0  0  0  0  0
  -27.4833  -34.9733   21.4822 C   0  0  0  0  0  0  0  0  0  0  0  0
  -28.8286  -32.8743   20.2450 C   0  0  0  0  0  0  0  0  0  0  0  0
  -28.5595  -26.1878   17.6887 C   0  0  0  0  0  0  0  0  0  0  0  0
  -23.5038   -8.7063   22.4809 C   0  0  0  0  0  0  0  0  0  0  0  0
  -24.1377   -9.9156   24.4742 C   0  0  0  0  0  0  0  0  0  0  0  0
  -29.0855  -24.9197   17.9319 C   0  0  0  0  0  0  0  0  0  0  0  0
  -20.7715   -7.9780   24.3349 C   0  0  0  0  0  0  0  0  0  0  0  0
  -19.5366   -7.4154   24.0122 C   0  0  0  0  0  0  0  0  0  0  0  0
  -27.4458  -24.5793   19.6682 C   0  0  0  0  0  0  0  0  0  0  0  0
  -28.9426  -19.8145   19.3710 C   0  0  0  0  0  0  0  0  0  0  0  0
  -20.6039   -5.2775   23.6550 C   0  0  0  0  0  0  0  0  0  0  0  0
  -24.5046  -10.8975   22.2975 C   0  0  0  0  0  0  0  0  0  0  0  0
  -24.2358  -13.1039   21.0455 C   0  0  0  0  0  0  0  0  0  0  0  0
  -27.2361  -33.6562   21.9003 C   0  0  0  0  0  0  0  0  0  0  0  0
  -27.4779  -26.6662   18.4420 C   0  0  0  0  0  0  0  0  0  0  0  0
  -27.9234  -32.5939   21.2826 C   0  0  0  0  0  0  0  0  0  0  0  0
  -26.9063  -25.8528   19.4308 C   0  0  0  0  0  0  0  0  0  0  0  0
  -29.6237  -18.6119   19.5226 C   0  0  0  0  0  0  0  0  0  0  0  0
  -30.4738  -18.4328   20.6082 C   0  0  0  0  0  0  0  0  0  0  0  0
  -23.5928   -8.7820   23.8709 C   0  0  0  0  0  0  0  0  0  0  0  0
  -28.5305  -24.1164   18.9238 C   0  0  0  0  0  0  0  0  0  0  0  0
  -21.9226   -7.1903   24.3175 C   0  0  0  0  0  0  0  0  0  0  0  0
  -19.4528   -6.0652   23.6723 C   0  0  0  0  0  0  0  0  0  0  0  0
  -21.8388   -5.8401   23.9777 C   0  0  0  0  0  0  0  0  0  0  0  0
  -24.9762  -11.9903   21.4853 C   0  0  0  0  0  0  0  0  0  0  0  0
  -29.1443  -20.7988   20.3251 C   0  0  0  0  0  0  0  0  0  0  0  0
  -30.6071  -19.4790   21.5068 C   0  0  0  0  0  0  0  0  0  0  0  0
  -25.1312  -13.8439   20.3127 C   0  0  0  0  0  0  0  0  0  0  0  0
  -22.8614  -13.4394   21.2785 C   0  0  0  0  0  0  0  0  0  0  0  0
  -27.0301  -29.1138   20.4200 C   0  0  0  0  0  0  0  0  0  0  0  0
  -23.9507  -28.0961   20.3583 C   0  0  0  0  0  0  0  0  0  0  0  0
  -21.7557  -25.5346   19.8409 C   0  0  0  0  0  0  0  0  0  0  0  0
  -31.2511  -13.7894   20.5998 C   0  0  0  0  0  0  0  0  0  0  0  0
  -26.2875  -33.4254   23.0499 C   0  0  0  0  0  0  0  0  0  0  0  0
  -26.9050  -28.0258   18.1492 C   0  0  0  0  0  0  0  0  0  0  0  0
  -25.7313  -26.3117   20.2537 C   0  0  0  0  0  0  0  0  0  0  0  0
  -25.8216  -31.9770   23.1738 C   0  0  0  0  0  0  0  0  0  0  0  0
  -29.0660  -13.4048   17.6369 C   0  0  0  0  0  0  0  0  0  0  0  0
  -27.0059  -31.0231   23.0537 C   0  0  0  0  0  0  0  0  0  0  0  0
  -27.7244  -13.0223   18.2598 C   0  0  0  0  0  0  0  0  0  0  0  0
  -30.2406  -12.9638   18.5048 C   0  0  0  0  0  0  0  0  0  0  0  0
  -28.8280  -13.0706   20.5314 C   0  0  0  0  0  0  0  0  0  0  0  0
  -27.6835  -31.1547   21.6844 C   0  0  1  0  0  0  0  0  0  0  0  0
  -26.1309  -28.6139   19.3249 C   0  0  1  0  0  0  0  0  0  0  0  0
  -27.6224  -13.5419   19.7044 C   0  0  2  0  0  0  0  0  0  0  0  0
  -29.4278  -17.5340   18.5082 C   0  0  0  0  0  0  0  0  0  0  0  0
  -31.5047  -19.3455   22.6935 C   0  0  0  0  0  0  0  0  0  0  0  0
  -31.3936  -13.9747   23.8738 C   0  0  0  0  0  0  0  0  0  0  0  0
  -19.3052  -24.9974   19.9028 C   0  0  0  0  0  0  0  0  0  0  0  0
  -24.0483  -28.0133   23.4069 C   0  0  0  0  0  0  0  0  0  0  0  0
  -21.9799  -26.6033   23.3653 C   0  0  0  0  0  0  0  0  0  0  0  0
  -21.9228  -28.9253   22.4555 C   0  0  0  0  0  0  0  0  0  0  0  0
  -21.7164  -24.8425   16.9637 C   0  0  0  0  0  0  0  0  0  0  0  0
  -31.2156  -17.1525   20.7979 C   0  0  0  0  0  0  0  0  0  0  0  0
  -28.4248  -22.1090   20.1947 C   0  0  0  0  0  0  0  0  0  1  0  0
  -31.9924  -14.7750   22.7349 C   0  0  0  0  0  0  0  0  0  0  0  0
  -30.3544  -16.0241   21.3774 C   0  0  0  0  0  0  0  0  0  0  0  0
  -23.1316  -27.1180   21.1654 C   0  0  1  0  0  0  0  0  0  0  0  0
  -20.4693  -25.4569   19.0388 C   0  0  2  0  0  0  0  0  0  0  0  0
  -22.7940  -27.6568   22.5843 C   0  0  0  0  0  0  0  0  0  0  0  0
  -26.2444  -12.0163   21.0668 N   0  0  0  0  0  0  0  0  0  0  0  0
  -29.9620  -20.6616   21.3929 N   0  0  0  0  0  0  0  0  0  0  0  0
  -26.3077  -13.1553   20.3562 N   0  0  0  0  0  0  0  0  0  0  0  0
  -25.2108  -27.6513   19.9340 N   0  0  0  0  0  0  0  0  0  0  0  0
  -30.0966  -13.4346   19.8828 N   0  0  0  0  0  0  0  0  0  0  0  0
  -25.0192  -15.0100   19.6417 N   0  0  0  0  0  0  0  0  0  0  0  0
  -22.0832  -12.5686   22.0534 N   0  0  0  0  0  0  0  0  0  0  0  0
  -26.9123  -30.4676   20.6707 N   0  0  0  0  0  0  0  0  0  0  0  0
  -21.9622  -26.7977   20.3540 N   0  0  0  0  0  0  0  0  0  0  0  0
  -31.1175  -14.7930   21.5712 N   0  0  0  0  0  0  0  0  0  0  0  0
  -20.6215  -24.4992   17.9072 N   0  3  0  0  0  0  0  0  0  0  0  0
  -22.3346  -14.4722   20.7996 O   0  0  0  0  0  0  0  0  0  0  0  0
  -27.7745  -28.3291   20.9960 O   0  0  0  0  0  0  0  0  0  0  0  0
  -23.4865  -29.2111   20.1074 O   0  0  0  0  0  0  0  0  0  0  0  0
  -22.5009  -24.5702   19.9998 O   0  0  0  0  0  0  0  0  0  0  0  0
  -32.3413  -13.2472   20.3773 O   0  0  0  0  0  0  0  0  0  0  0  0
  -23.1478   -7.7502   24.6389 O   0  0  0  0  0  0  0  0  0  0  0  0
  -29.0423  -22.8785   19.1637 O   0  0  0  0  0  0  0  0  0  1  0  0
  -18.2666   -5.5247   23.3640 F   0  0  0  0  0  0  0  0  0  0  0  0
  -22.9411   -5.0782   23.9604 F   0  0  0  0  0  0  0  0  0  0  0  0
  1  2  1  0  0  0  0
  1  5  2  0  0  0  0
  2  6  2  0  0  0  0
  3  8  2  0  0  0  0
  3 16  1  0  0  0  0
  4  9  1  0  0  0  0
  4 16  2  0  0  0  0
  5 18  1  0  0  0  0
  6 20  1  0  0  0  0
  7 10  2  0  0  0  0
  7 19  1  0  0  0  0
  8 24  1  0  0  0  0
  9 24  2  0  0  0  0
 10 25  1  0  0  0  0
 11 12  2  0  0  0  0
 11 26  1  0  0  0  0
 12 27  1  0  0  0  0
 13 21  1  0  0  0  0
 13 25  2  0  0  0  0
 14 22  2  0  0  0  0
 14 30  1  0  0  0  0
 15 27  2  0  0  0  0
 15 28  1  0  0  0  0
 16 29  1  0  0  0  0
 17 29  1  0  0  0  0
 17 32  2  0  0  0  0
 17 33  1  0  0  0  0
 18 20  2  0  0  0  0
 18 38  1  0  0  0  0
 19 21  2  0  0  0  0
 19 39  1  0  0  0  0
 20 47  1  0  0  0  0
 21 40  1  0  0  0  0
 22 23  1  0  0  0  0
 22 50  1  0  0  0  0
 23 31  2  0  0  0  0
 23 58  1  0  0  0  0
 24 81  1  0  0  0  0
 25 82  1  0  0  0  0
 26 28  2  0  0  0  0
 26 81  1  0  0  0  0
 27 83  1  0  0  0  0
 28 84  1  0  0  0  0
 29 65  2  0  0  0  0
 30 59  1  0  0  0  0
 30 66  2  0  0  0  0
 31 51  1  0  0  0  0
 31 66  1  0  0  0  0
 32 67  1  0  0  0  0
 32 70  1  0  0  0  0
 33 71  1  0  0  0  0
 33 76  2  0  0  0  0
 34 48  1  0  0  0  0
 34 72  1  0  0  0  0
 34 77  2  0  0  0  0
 35 62  1  0  0  0  0
 35 68  1  0  0  0  0
 35 78  2  0  0  0  0
 36 63  1  0  0  0  0
 36 73  1  0  0  0  0
 36 79  2  0  0  0  0
 37 69  1  0  0  0  0
 37 74  1  0  0  0  0
 37 80  2  0  0  0  0
 38 41  1  0  0  0  0
 39 48  1  0  0  0  0
 40 68  1  0  0  0  0
 41 43  1  0  0  0  0
 42 44  1  0  0  0  0
 42 45  1  0  0  0  0
 43 47  1  0  0  0  0
 44 49  1  0  0  0  0
 45 69  1  0  0  0  0
 46 49  1  0  0  0  0
 46 69  1  0  0  0  0
 47 72  1  0  0  0  0
 48 68  1  0  0  0  0
 49 67  1  0  0  0  0
 52 60  1  0  0  0  0
 53 63  1  0  0  0  0
 54 64  1  0  0  0  0
 55 64  1  0  0  0  0
 56 64  1  0  0  0  0
 57 75  1  0  0  0  0
 58 61  1  0  0  0  0
 59 82  1  0  0  0  0
 60 74  1  0  0  0  0
 61 74  1  0  0  0  0
 62 64  1  0  0  0  0
 62 73  1  0  0  0  0
 63 75  1  0  0  0  0
 65 67  1  0  0  0  0
M  CHG  1  75   1
M  ISO  4  37 100  59 101  74 100  82 101
M  END
> <Batch ID>
0116

> <Smiles>
CC[100N:0](CCc1c(C)cc([101CH2:1][101O:1]c2ccc3c(c2)CN(C(=O)C(NC(=O)C(C)NC)C(C)(C)C)C(C(=O)NC2CCCc4ccccc42)C3)nc1C)[100C:0](=O)N1CCCC(n2nc(-c3ccc(Oc4ccc(F)cc4F)cc3)c(C(N)=O)c2N)C1

> <Shape>
0.320

> <Color>
0.131

> <Negative vol penalty>
0.000

$$$$

  -OEChem-04052320133D

 89 97  0     1  0  0  0  0  0999 V2000
  -17.5013  -26.1028   22.8085 C   0  0  0  0  0  0  0  0  0  0  0  0
  -18.8032  -25.6154   22.8636 C   0  0  0  0  0  0  0  0  0  0  0  0
  -26.8136  -14.8080   22.0756 C   0  0  0  0  0  0  0  0  0  0  0  0
  -24.7915  -15.0761   20.7810 C   0  0  0  0  0  0  0  0  0  0  0  0
  -17.2578  -27.3829   22.3125 C   0  0  0  0  0  0  0  0  0  0  0  0
  -19.8623  -26.4075   22.4216 C   0  0  0  0  0  0  0  0  0  0  0  0
  -25.5328  -26.5933   24.7274 C   0  0  0  0  0  0  0  0  0  0  0  0
  -26.8298  -13.4474   21.7687 C   0  0  0  0  0  0  0  0  0  0  0  0
  -24.8076  -13.7155   20.4740 C   0  0  0  0  0  0  0  0  0  0  0  0
  -26.7256  -25.9882   24.3340 C   0  0  0  0  0  0  0  0  0  0  0  0
  -23.9843  -10.8091   21.9925 C   0  0  0  0  0  0  0  0  0  0  0  0
  -22.7833  -10.1072   22.0955 C   0  0  0  0  0  0  0  0  0  0  0  0
  -27.3411  -27.9919   23.1400 C   0  0  0  0  0  0  0  0  0  0  0  0
  -24.1155  -23.7128   18.4141 C   0  0  0  0  0  0  0  0  0  0  0  0
  -22.9131   -9.5412   19.7503 C   0  0  0  0  0  0  0  0  0  0  0  0
  -23.6885  -24.1569   20.5799 C   0  0  0  0  0  0  0  0  0  0  0  0
  -25.7945  -15.6223   21.5818 C   0  0  0  0  0  0  0  0  0  0  0  0
  -26.7680  -17.9802   21.5949 C   0  0  0  0  0  0  0  0  0  0  0  0
  -18.3155  -28.1947   21.8733 C   0  0  0  0  0  0  0  0  0  0  0  0
  -25.2297  -27.9005   24.3204 C   0  0  0  0  0  0  0  0  0  0  0  0
  -19.6326  -27.6992   21.9180 C   0  0  0  0  0  0  0  0  0  0  0  0
  -26.1449  -28.6122   23.5318 C   0  0  0  0  0  0  0  0  0  0  0  0
  -24.6070  -24.3612   19.5739 C   0  0  0  0  0  0  0  0  0  0  0  0
  -25.8268  -12.9012   20.9679 C   0  0  0  0  0  0  0  0  0  0  0  0
  -27.6287  -26.6865   23.5378 C   0  0  0  0  0  0  0  0  0  0  0  0
  -24.6497  -10.8771   20.7684 C   0  0  0  0  0  0  0  0  0  0  0  0
  -22.2477   -9.4733   20.9744 C   0  0  0  0  0  0  0  0  0  0  0  0
  -24.1141  -10.2431   19.6473 C   0  0  0  0  0  0  0  0  0  0  0  0
  -25.7769  -17.0277   21.8990 C   0  0  0  0  0  0  0  0  0  0  0  0
  -22.9115  -23.1322   18.7466 C   0  0  0  0  0  0  0  0  0  0  0  0
  -26.2801  -19.1583   22.1055 C   0  0  0  0  0  0  0  0  0  0  0  0
  -28.0177  -17.8149   20.9120 C   0  0  0  0  0  0  0  0  0  0  0  0
  -22.0470  -22.3706   17.8978 C   0  0  0  0  0  0  0  0  0  0  0  0
  -22.9314  -29.2296   22.5726 C   0  0  0  0  0  0  0  0  0  0  0  0
  -24.3526  -31.9909   23.5096 C   0  0  0  0  0  0  0  0  0  0  0  0
  -27.1683  -33.5692   24.6176 C   0  0  0  0  0  0  0  0  0  0  0  0
  -20.4707  -20.6485   23.3581 C   0  0  0  0  0  0  0  0  0  0  0  0
  -17.9982  -29.5537   21.3011 C   0  0  0  0  0  0  0  0  0  0  0  0
  -23.9509  -28.5486   24.7755 C   0  0  0  0  0  0  0  0  0  0  0  0
  -25.8760  -30.0252   23.0849 C   0  0  0  0  0  0  0  0  0  0  0  0
  -19.2139  -30.4715   21.2015 C   0  0  0  0  0  0  0  0  0  0  0  0
  -23.4451  -20.8708   25.5501 C   0  0  0  0  0  0  0  0  0  0  0  0
  -20.3976  -29.7257   20.5937 C   0  0  0  0  0  0  0  0  0  0  0  0
  -24.4350  -19.9303   24.8648 C   0  0  0  0  0  0  0  0  0  0  0  0
  -21.9990  -20.4618   25.2871 C   0  0  0  0  0  0  0  0  0  0  0  0
  -22.6536  -19.3884   23.1579 C   0  0  0  0  0  0  0  0  0  0  0  0
  -20.8104  -28.5376   21.4710 C   0  0  1  0  0  0  0  0  0  0  0  0
  -23.5116  -29.7001   23.8763 C   0  0  1  0  0  0  0  0  0  0  0  0
  -24.1191  -19.7998   23.3647 C   0  0  2  0  0  0  0  0  0  0  0  0
  -25.6842  -26.5847   20.1111 C   0  0  0  0  0  0  0  0  0  0  0  0
  -28.6003  -35.4349   25.4928 C   0  0  0  0  0  0  0  0  0  0  0  0
  -29.7740  -24.0680   23.9758 C   0  0  0  0  0  0  0  0  0  0  0  0
  -24.5218  -32.7579   20.5613 C   0  0  0  0  0  0  0  0  0  0  0  0
  -26.1958  -34.5118   21.1855 C   0  0  0  0  0  0  0  0  0  0  0  0
  -23.8741  -34.6280   22.0902 C   0  0  0  0  0  0  0  0  0  0  0  0
  -19.1195  -21.5017   21.4804 C   0  0  0  0  0  0  0  0  0  0  0  0
  -26.4943  -32.9244   27.4263 C   0  0  0  0  0  0  0  0  0  0  0  0
  -29.1550  -24.3327   21.5469 C   0  0  0  0  0  0  0  0  0  0  0  0
  -21.5001  -22.9844   20.8149 C   0  0  0  0  0  0  0  0  0  0  0  0
  -21.5762  -21.5256   21.2578 C   0  0  0  0  0  0  0  0  0  0  0  0
  -28.2596  -24.9782   20.4931 C   0  0  0  0  0  0  0  0  0  0  0  0
  -25.9007  -25.1343   19.6869 C   0  0  1  0  0  0  0  0  0  0  0  0
  -25.4583  -32.8625   22.9650 C   0  0  1  0  0  0  0  0  0  0  0  0
  -27.3922  -34.5491   25.7552 C   0  0  2  0  0  0  0  0  0  0  0  0
  -28.7833  -24.6799   22.9932 C   0  0  2  0  0  0  0  0  0  1  0  0
  -25.0170  -33.6628   21.7071 C   0  0  0  0  0  0  0  0  0  0  0  0
  -24.7381  -17.5550   22.5522 N   0  0  0  0  0  0  0  0  0  0  0  0
  -22.6619  -23.4089   20.0654 N   0  0  0  0  0  0  0  0  0  0  0  0
  -25.0736  -18.8516   22.6629 N   0  0  0  0  0  0  0  0  0  0  0  0
  -24.6091  -30.6131   23.5505 N   0  0  0  0  0  0  0  0  0  0  0  0
  -21.7377  -20.3029   23.8561 N   0  0  0  0  0  0  0  0  0  0  0  0
  -26.7697  -20.4161   22.1276 N   0  0  0  0  0  0  0  0  0  0  0  0
  -28.0444  -17.9733   19.5197 N   0  0  0  0  0  0  0  0  0  0  0  0
  -22.4280  -22.1646   16.5635 N   0  0  0  0  0  0  0  0  0  0  0  0
  -21.5704  -28.9941   22.6149 N   0  0  0  0  0  0  0  0  0  0  0  0
  -25.9065  -33.6951   24.0760 N   0  0  0  0  0  0  0  0  0  0  0  0
  -20.4091  -21.1198   22.0379 N   0  0  0  0  0  0  0  0  0  0  0  0
  -27.6154  -33.8164   27.0336 N   0  3  0  0  0  0  0  0  0  0  0  0
  -26.8608  -24.5120   20.6399 N   0  3  0  0  0  0  0  0  0  0  0  0
  -29.0762  -17.5189   21.5166 O   0  0  0  0  0  0  0  0  0  0  0  0
  -20.9562  -21.8969   18.3016 O   0  0  0  0  0  0  0  0  0  0  0  0
  -23.6639  -29.0921   21.5999 O   0  0  0  0  0  0  0  0  0  0  0  0
  -23.3027  -32.5139   23.8916 O   0  0  0  0  0  0  0  0  0  0  0  0
  -28.0280  -32.7743   24.2441 O   0  0  0  0  0  0  0  0  0  0  0  0
  -19.4538  -20.5509   24.0569 O   0  0  0  0  0  0  0  0  0  0  0  0
  -25.8424  -11.5736   20.6680 O   0  0  0  0  0  0  0  0  0  0  0  0
  -28.7934  -26.0981   23.1518 O   0  0  0  0  0  0  0  0  0  1  0  0
  -21.0952   -8.7980   21.0737 F   0  0  0  0  0  0  0  0  0  0  0  0
  -24.7494  -10.3039   18.4690 F   0  0  0  0  0  0  0  0  0  0  0  0
  1  2  1  0  0  0  0
  1  5  2  0  0  0  0
  2  6  2  0  0  0  0
  3  8  2  0  0  0  0
  3 17  1  0  0  0  0
  4  9  1  0  0  0  0
  4 17  2  0  0  0  0
  5 19  1  0  0  0  0
  6 21  1  0  0  0  0
  7 10  2  0  0  0  0
  7 20  1  0  0  0  0
  8 24  1  0  0  0  0
  9 24  2  0  0  0  0
 10 25  1  0  0  0  0
 11 12  2  0  0  0  0
 11 26  1  0  0  0  0
 12 27  1  0  0  0  0
 13 22  1  0  0  0  0
 13 25  2  0  0  0  0
 14 23  1  0  0  0  0
 14 30  2  0  0  0  0
 15 27  2  0  0  0  0
 15 28  1  0  0  0  0
 16 23  2  0  0  0  0
 16 68  1  0  0  0  0
 17 29  1  0  0  0  0
 18 29  1  0  0  0  0
 18 31  2  0  0  0  0
 18 32  1  0  0  0  0
 19 21  2  0  0  0  0
 19 38  1  0  0  0  0
 20 22  2  0  0  0  0
 20 39  1  0  0  0  0
 21 47  1  0  0  0  0
 22 40  1  0  0  0  0
 23 62  1  0  0  0  0
 24 86  1  0  0  0  0
 25 87  1  0  0  0  0
 26 28  2  0  0  0  0
 26 86  1  0  0  0  0
 27 88  1  0  0  0  0
 28 89  1  0  0  0  0
 29 67  2  0  0  0  0
 30 33  1  0  0  0  0
 30 68  1  0  0  0  0
 31 69  1  0  0  0  0
 31 72  1  0  0  0  0
 32 73  1  0  0  0  0
 32 80  2  0  0  0  0
 33 74  1  0  0  0  0
 33 81  2  0  0  0  0
 34 48  1  0  0  0  0
 34 75  1  0  0  0  0
 34 82  2  0  0  0  0
 35 63  1  0  0  0  0
 35 70  1  0  0  0  0
 35 83  2  0  0  0  0
 36 64  1  0  0  0  0
 36 76  1  0  0  0  0
 36 84  2  0  0  0  0
 37 71  1  0  0  0  0
 37 77  1  0  0  0  0
 37 85  2  0  0  0  0
 38 41  1  0  0  0  0
 39 48  1  0  0  0  0
 40 70  1  0  0  0  0
 41 43  1  0  0  0  0
 42 44  1  0  0  0  0
 42 45  1  0  0  0  0
 43 47  1  0  0  0  0
 44 49  1  0  0  0  0
 45 71  1  0  0  0  0
 46 49  1  0  0  0  0
 46 71  1  0  0  0  0
 47 75  1  0  0  0  0
 48 70  1  0  0  0  0
 49 69  1  0  0  0  0
 50 62  1  0  0  0  0
 51 64  1  0  0  0  0
 52 65  1  0  0  0  0
 53 66  1  0  0  0  0
 54 66  1  0  0  0  0
 55 66  1  0  0  0  0
 56 77  1  0  0  0  0
 57 78  1  0  0  0  0
 58 61  1  0  0  0  0
 58 65  1  0  0  0  0
 59 60  1  0  0  0  0
 59 68  1  0  0  0  0
 60 77  1  0  0  0  0
 61 79  1  0  0  0  0
 62 79  1  0  0  0  0
 63 66  1  0  0  0  0
 63 76  1  0  0  0  0
 64 78  1  0  0  0  0
 65 87  1  0  0  0  0
 67 69  1  0  0  0  0
M  CHG  2  78   1  79   1
M  ISO  4  37 100  65 101  77 100  87 101
M  END
> <Batch ID>
0116

> <Smiles>
CNC(C)C(=O)NC(C(=O)N1Cc2cc([101O:1][101CH:1](C)CCNC(C)c3cc(C(N)=O)n(CC[100N:0](C)[100C:0](=O)N4CCCC(n5nc(-c6ccc(Oc7ccc(F)cc7F)cc6)c(C(N)=O)c5N)C4)c3)ccc2CC1C(=O)NC1CCCc2ccccc21)C(C)(C)C

> <Shape>
0.201

> <Color>
0.080

> <Negative vol penalty>
0.000

$$$$

  -OEChem-04052320133D

 87 95  0     1  0  0  0  0  0999 V2000
  -28.1105  -26.9438   12.9760 C   0  0  0  0  0  0  0  0  0  0  0  0
  -27.7702  -25.6313   13.2873 C   0  0  0  0  0  0  0  0  0  0  0  0
  -20.6089  -22.9713   22.8060 C   0  0  0  0  0  0  0  0  0  0  0  0
  -21.4950  -22.8515   20.5615 C   0  0  0  0  0  0  0  0  0  0  0  0
  -28.9584  -27.6615   13.8186 C   0  0  0  0  0  0  0  0  0  0  0  0
  -28.2786  -25.0353   14.4408 C   0  0  0  0  0  0  0  0  0  0  0  0
  -26.5290  -20.2765   19.5015 C   0  0  0  0  0  0  0  0  0  0  0  0
  -20.7576  -24.3581   22.7907 C   0  0  0  0  0  0  0  0  0  0  0  0
  -21.6436  -24.2384   20.5462 C   0  0  0  0  0  0  0  0  0  0  0  0
  -27.0225  -19.1257   20.1146 C   0  0  0  0  0  0  0  0  0  0  0  0
  -19.1152  -27.0255   21.5177 C   0  0  0  0  0  0  0  0  0  0  0  0
  -18.0560  -27.7963   21.9969 C   0  0  0  0  0  0  0  0  0  0  0  0
  -28.4151  -20.4882   21.5371 C   0  0  0  0  0  0  0  0  0  0  0  0
  -19.5047  -28.7368   23.6862 C   0  0  0  0  0  0  0  0  0  0  0  0
  -20.9777  -22.2180   21.6914 C   0  0  0  0  0  0  0  0  0  0  0  0
  -19.6976  -20.0462   21.3010 C   0  0  0  0  0  0  0  0  0  0  0  0
  -29.4696  -27.0771   14.9881 C   0  0  0  0  0  0  0  0  0  0  0  0
  -26.9837  -21.5434   19.8948 C   0  0  0  0  0  0  0  0  0  0  0  0
  -29.1352  -25.7453   15.2992 C   0  0  0  0  0  0  0  0  0  0  0  0
  -27.9239  -21.6536   20.9292 C   0  0  0  0  0  0  0  0  0  0  0  0
  -21.2749  -24.9917   21.6608 C   0  0  0  0  0  0  0  0  0  0  0  0
  -27.9679  -19.2313   21.1306 C   0  0  0  0  0  0  0  0  0  0  0  0
  -20.3691  -27.1102   22.1228 C   0  0  0  0  0  0  0  0  0  0  0  0
  -18.2508  -28.6519   23.0811 C   0  0  0  0  0  0  0  0  0  0  0  0
  -20.5639  -27.9659   23.2071 C   0  0  0  0  0  0  0  0  0  0  0  0
  -20.8249  -20.7853   21.7068 C   0  0  0  0  0  0  0  0  0  0  0  0
  -20.0526  -18.7360   21.5101 C   0  0  0  0  0  0  0  0  0  0  0  0
  -18.4419  -20.5032   20.7814 C   0  0  0  0  0  0  0  0  0  0  0  0
  -28.5254  -23.9203   18.4536 C   0  0  0  0  0  0  0  0  0  0  0  0
  -27.9568  -25.4647   21.2489 C   0  0  0  0  0  0  0  0  0  0  0  0
  -28.0476  -24.6639   24.7657 C   0  0  0  0  0  0  0  0  0  0  0  0
  -23.4913  -14.6099   21.1754 C   0  0  0  0  0  0  0  0  0  0  0  0
  -30.4204  -27.8768   15.8433 C   0  0  0  0  0  0  0  0  0  0  0  0
  -26.4216  -22.7763   19.2418 C   0  0  0  0  0  0  0  0  0  0  0  0
  -28.4294  -22.9912   21.4022 C   0  0  0  0  0  0  0  0  0  0  0  0
  -30.6167  -27.2967   17.2417 C   0  0  0  0  0  0  0  0  0  0  0  0
  -23.9861  -16.7284   23.9573 C   0  0  0  0  0  0  0  0  0  0  0  0
  -30.8544  -25.7918   17.1668 C   0  0  0  0  0  0  0  0  0  0  0  0
  -28.0733  -13.2143   22.4780 C   0  0  0  0  0  0  0  0  0  0  0  0
  -28.0613  -13.5254   19.9700 C   0  0  0  0  0  0  0  0  0  0  0  0
  -23.1166  -17.9278   23.5828 C   0  0  0  0  0  0  0  0  0  0  0  0
  -26.5690  -13.4850   22.5972 C   0  0  0  0  0  0  0  0  0  0  0  0
  -26.5740  -13.1728   20.0881 C   0  0  0  0  0  0  0  0  0  0  0  0
  -24.7363  -16.1632   22.7499 C   0  0  0  0  0  0  0  0  0  0  0  0
  -22.9915  -17.0348   21.2272 C   0  0  0  0  0  0  0  0  0  0  0  0
  -29.6465  -25.0723   16.5544 C   0  0  1  0  0  0  0  0  0  0  0  0
  -27.3367  -23.9903   19.3699 C   0  0  1  0  0  0  0  0  0  0  0  0
  -28.7024  -13.9600   21.2993 C   0  0  0  0  0  0  0  0  0  0  0  0
  -22.1807  -17.5843   22.4110 C   0  0  2  0  0  0  0  0  0  0  0  0
  -25.9128  -13.8801   21.2676 C   0  0  0  0  0  0  0  0  0  0  0  0
  -26.7837  -25.6496   26.6966 C   0  0  0  0  0  0  0  0  0  0  0  0
  -23.0984  -11.8333   22.2570 C   0  0  0  0  0  0  0  0  0  0  0  0
  -23.5209  -11.9531   19.7810 C   0  0  0  0  0  0  0  0  0  0  0  0
  -30.4088  -27.2529   21.5659 C   0  0  0  0  0  0  0  0  0  0  0  0
  -30.1500  -27.0494   24.0478 C   0  0  0  0  0  0  0  0  0  0  0  0
  -28.3436  -28.1054   22.6896 C   0  0  0  0  0  0  0  0  0  0  0  0
  -32.4864  -14.7794   20.9747 C   0  0  0  0  0  0  0  0  0  0  0  0
  -31.0115  -14.5403   18.9827 C   0  0  0  0  0  0  0  0  0  0  0  0
  -27.0041  -22.0179   25.5837 C   0  0  0  0  0  0  0  0  0  0  0  0
  -30.2160  -13.7604   21.2613 C   0  0  0  0  0  0  0  0  0  0  0  0
  -30.4051  -16.7760   22.1458 C   0  0  0  0  0  0  0  0  0  0  0  0
  -30.4568  -16.2803   20.6978 C   0  0  0  0  0  0  0  0  0  0  0  0
  -29.7859  -18.1661   22.2333 C   0  0  0  0  0  0  0  0  0  1  0  0
  -28.6893  -25.6042   22.5615 C   0  0  1  0  0  0  0  0  0  0  0  0
  -26.8561  -24.5089   25.6935 C   0  0  2  0  0  0  0  0  0  0  0  0
  -24.0918  -12.2188   21.1680 C   0  0  0  0  0  0  0  0  0  0  0  0
  -29.4007  -26.9797   22.7000 C   0  0  0  0  0  0  0  0  0  0  0  0
  -31.0205  -14.8460   20.4961 C   0  0  0  0  0  0  0  0  0  0  0  0
  -21.8214  -20.0091   22.1410 N   0  0  0  0  0  0  0  0  0  0  0  0
  -21.3214  -18.7687   22.0094 N   0  0  0  0  0  0  0  0  0  0  0  0
  -27.8543  -24.1670   20.7282 N   0  0  0  0  0  0  0  0  0  0  0  0
  -23.8133  -15.8941   21.6389 N   0  0  0  0  0  0  0  0  0  0  0  0
  -19.4000  -17.5706   21.3139 N   0  0  0  0  0  0  0  0  0  0  0  0
  -18.2434  -21.8823   20.6302 N   0  0  0  0  0  0  0  0  0  0  0  0
  -28.5851  -24.9465   17.5301 N   0  0  0  0  0  0  0  0  0  0  0  0
  -27.7093  -25.3304   23.6070 N   0  0  0  0  0  0  0  0  0  0  0  0
  -24.4753  -13.6175   21.2980 N   0  0  0  0  0  0  0  0  0  0  0  0
  -26.9493  -23.2261   26.4464 N   0  3  0  0  0  0  0  0  0  0  0  0
  -17.5170  -19.7127   20.4760 O   0  0  0  0  0  0  0  0  0  0  0  0
  -29.3299  -23.0041   18.5764 O   0  0  0  0  0  0  0  0  0  0  0  0
  -27.4865  -26.4693   20.7092 O   0  0  0  0  0  0  0  0  0  0  0  0
  -29.1673  -24.2396   25.0429 O   0  0  0  0  0  0  0  0  0  0  0  0
  -22.3877  -14.3640   20.6717 O   0  0  0  0  0  0  0  0  0  0  0  0
  -21.4199  -26.3449   21.6454 O   0  0  0  0  0  0  0  0  0  0  0  0
  -28.4517  -18.1096   21.7302 O   0  0  0  0  0  0  0  0  0  1  0  0
  -17.2339  -29.3932   23.5402 F   0  0  0  0  0  0  0  0  0  0  0  0
  -21.7666  -28.0525   23.7917 F   0  0  0  0  0  0  0  0  0  0  0  0
  1  2  1  0  0  0  0
  1  5  2  0  0  0  0
  2  6  2  0  0  0  0
  3  8  2  0  0  0  0
  3 15  1  0  0  0  0
  4  9  1  0  0  0  0
  4 15  2  0  0  0  0
  5 17  1  0  0  0  0
  6 19  1  0  0  0  0
  7 10  2  0  0  0  0
  7 18  1  0  0  0  0
  8 21  1  0  0  0  0
  9 21  2  0  0  0  0
 10 22  1  0  0  0  0
 11 12  2  0  0  0  0
 11 23  1  0  0  0  0
 12 24  1  0  0  0  0
 13 20  1  0  0  0  0
 13 22  2  0  0  0  0
 14 24  2  0  0  0  0
 14 25  1  0  0  0  0
 15 26  1  0  0  0  0
 16 26  1  0  0  0  0
 16 27  2  0  0  0  0
 16 28  1  0  0  0  0
 17 19  2  0  0  0  0
 17 33  1  0  0  0  0
 18 20  2  0  0  0  0
 18 34  1  0  0  0  0
 19 46  1  0  0  0  0
 20 35  1  0  0  0  0
 21 84  1  0  0  0  0
 22 85  1  0  0  0  0
 23 25  2  0  0  0  0
 23 84  1  0  0  0  0
 24 86  1  0  0  0  0
 25 87  1  0  0  0  0
 26 69  2  0  0  0  0
 27 70  1  0  0  0  0
 27 73  1  0  0  0  0
 28 74  1  0  0  0  0
 28 79  2  0  0  0  0
 29 47  1  0  0  0  0
 29 75  1  0  0  0  0
 29 80  2  0  0  0  0
 30 64  1  0  0  0  0
 30 71  1  0  0  0  0
 30 81  2  0  0  0  0
 31 65  1  0  0  0  0
 31 76  1  0  0  0  0
 31 82  2  0  0  0  0
 32 72  1  0  0  0  0
 32 77  1  0  0  0  0
 32 83  2  0  0  0  0
 33 36  1  0  0  0  0
 34 47  1  0  0  0  0
 35 71  1  0  0  0  0
 36 38  1  0  0  0  0
 37 41  1  0  0  0  0
 37 44  1  0  0  0  0
 38 46  1  0  0  0  0
 39 42  1  0  0  0  0
 39 48  1  0  0  0  0
 40 43  1  0  0  0  0
 40 48  1  0  0  0  0
 41 49  1  0  0  0  0
 42 50  1  0  0  0  0
 43 50  1  0  0  0  0
 44 72  1  0  0  0  0
 45 49  1  0  0  0  0
 45 72  1  0  0  0  0
 46 75  1  0  0  0  0
 47 71  1  0  0  0  0
 48 60  1  0  0  0  0
 49 70  1  0  0  0  0
 50 77  1  0  0  0  0
 51 65  1  0  0  0  0
 52 66  1  0  0  0  0
 53 66  1  0  0  0  0
 54 67  1  0  0  0  0
 55 67  1  0  0  0  0
 56 67  1  0  0  0  0
 57 68  1  0  0  0  0
 58 68  1  0  0  0  0
 59 78  1  0  0  0  0
 60 68  1  0  0  0  0
 61 62  1  0  0  0  0
 61 63  1  0  0  0  0
 62 68  1  0  0  0  0
 63 85  1  0  0  0  0
 64 67  1  0  0  0  0
 64 76  1  0  0  0  0
 65 78  1  0  0  0  0
 66 77  1  0  0  0  0
 69 70  1  0  0  0  0
M  CHG  1  78   1
M  ISO  4  32 100  63 101  77 100  85 101
M  END
> <Batch ID>
0116

> <Smiles>
CNC(C)C(=O)NC(C(=O)N1Cc2cc([101O:1][101CH2:1]CCC(C)(C)CC3CCC([100N:0](C(C)C)[100C:0](=O)N4CCCC(n5nc(-c6ccc(Oc7ccc(F)cc7F)cc6)c(C(N)=O)c5N)C4)CC3)ccc2CC1C(=O)NC1CCCc2ccccc21)C(C)(C)C

> <Shape>
0.205

> <Color>
0.056

> <Negative vol penalty>
0.000

$$$$

  -OEChem-04052320133D

 85 93  0     1  0  0  0  0  0999 V2000
  -29.1719  -23.0622   16.1121 C   0  0  0  0  0  0  0  0  0  0  0  0
  -27.9198  -23.4821   16.5494 C   0  0  0  0  0  0  0  0  0  0  0  0
  -27.6717  -14.5615   21.2460 C   0  0  0  0  0  0  0  0  0  0  0  0
  -25.5429  -15.0406   20.2087 C   0  0  0  0  0  0  0  0  0  0  0  0
  -30.2551  -23.0722   16.9900 C   0  0  0  0  0  0  0  0  0  0  0  0
  -27.7498  -23.9112   17.8652 C   0  0  0  0  0  0  0  0  0  0  0  0
  -25.0082  -28.1570   18.1851 C   0  0  0  0  0  0  0  0  0  0  0  0
  -27.4195  -13.1944   21.1322 C   0  0  0  0  0  0  0  0  0  0  0  0
  -25.2907  -13.6735   20.0948 C   0  0  0  0  0  0  0  0  0  0  0  0
  -23.6257  -28.0335   18.0544 C   0  0  0  0  0  0  0  0  0  0  0  0
  -23.9264  -10.3131   19.8574 C   0  0  0  0  0  0  0  0  0  0  0  0
  -22.6574   -9.8561   20.2131 C   0  0  0  0  0  0  0  0  0  0  0  0
  -20.7830  -21.4382   21.4391 C   0  0  0  0  0  0  0  0  0  0  0  0
  -23.3951  -28.1433   20.4531 C   0  0  0  0  0  0  0  0  0  0  0  0
  -22.9825  -10.6981   22.4542 C   0  0  0  0  0  0  0  0  0  0  0  0
  -20.5056  -22.0535   20.2384 C   0  0  0  0  0  0  0  0  0  0  0  0
  -26.7334  -15.4846   20.7843 C   0  0  0  0  0  0  0  0  0  0  0  0
  -27.6370  -17.7242   19.9625 C   0  0  0  0  0  0  0  0  0  0  0  0
  -30.1004  -23.5108   18.3145 C   0  0  0  0  0  0  0  0  0  0  0  0
  -25.5965  -28.2638   19.4535 C   0  0  0  0  0  0  0  0  0  0  0  0
  -28.8316  -23.9258   18.7620 C   0  0  0  0  0  0  0  0  0  0  0  0
  -24.7851  -28.2706   20.5971 C   0  0  0  0  0  0  0  0  0  0  0  0
  -21.4488  -22.3851   22.2559 C   0  0  0  0  0  0  0  0  0  0  0  0
  -26.2290  -12.7504   20.5566 C   0  0  0  0  0  0  0  0  0  0  0  0
  -22.8191  -28.0238   19.1886 C   0  0  0  0  0  0  0  0  0  0  0  0
  -24.7234  -10.9626   20.8001 C   0  0  0  0  0  0  0  0  0  0  0  0
  -22.1855  -10.0486   21.5115 C   0  0  0  0  0  0  0  0  0  0  0  0
  -24.2515  -11.1551   22.0985 C   0  0  0  0  0  0  0  0  0  0  0  0
  -26.9931  -16.8970   20.9021 C   0  0  0  0  0  0  0  0  0  0  0  0
  -21.5579  -23.5503   21.5295 C   0  0  0  0  0  0  0  0  0  0  0  0
  -27.6338  -18.9694   20.5422 C   0  0  0  0  0  0  0  0  0  0  0  0
  -28.1885  -17.3965   18.6803 C   0  0  0  0  0  0  0  0  0  0  0  0
  -22.1562  -24.7870   21.9342 C   0  0  0  0  0  0  0  0  0  0  0  0
  -27.6619  -26.5167   21.1225 C   0  0  0  0  0  0  0  0  0  0  0  0
  -27.4925  -29.0046   23.1971 C   0  0  0  0  0  0  0  0  0  0  0  0
  -25.7186  -31.6630   24.3943 C   0  0  0  0  0  0  0  0  0  0  0  0
  -24.1159  -21.5487   24.6437 C   0  0  0  0  0  0  0  0  0  0  0  0
  -31.2901  -23.4590   19.2399 C   0  0  0  0  0  0  0  0  0  0  0  0
  -27.0871  -28.4231   19.5762 C   0  0  0  0  0  0  0  0  0  0  0  0
  -25.3657  -28.4028   21.9806 C   0  0  0  0  0  0  0  0  0  0  0  0
  -31.1083  -24.2825   20.5124 C   0  0  0  0  0  0  0  0  0  0  0  0
  -27.6443  -21.1071   24.8225 C   0  0  0  0  0  0  0  0  0  0  0  0
  -29.7401  -24.0141   21.1310 C   0  0  0  0  0  0  0  0  0  0  0  0
  -27.9356  -20.0527   23.7532 C   0  0  0  0  0  0  0  0  0  0  0  0
  -26.3179  -20.8411   25.5309 C   0  0  0  0  0  0  0  0  0  0  0  0
  -25.4478  -19.6357   23.5652 C   0  0  0  0  0  0  0  0  0  0  0  0
  -28.6127  -24.4218   20.1749 C   0  0  1  0  0  0  0  0  0  0  0  0
  -27.6219  -28.0080   20.9433 C   0  0  1  0  0  0  0  0  0  0  0  0
  -26.7482  -19.8932   22.7849 C   0  0  2  0  0  0  0  0  0  0  0  0
  -25.8216  -33.4849   26.1168 C   0  0  0  0  0  0  0  0  0  0  0  0
  -18.6017  -27.4934   18.6806 C   0  0  0  0  0  0  0  0  0  0  0  0
  -26.8179  -26.9787   25.3767 C   0  0  0  0  0  0  0  0  0  0  0  0
  -26.0149  -28.8781   26.7964 C   0  0  0  0  0  0  0  0  0  0  0  0
  -28.4028  -28.7804   26.0814 C   0  0  0  0  0  0  0  0  0  0  0  0
  -25.6111  -33.7805   22.3294 C   0  0  0  0  0  0  0  0  0  0  0  0
  -21.9314  -22.1519   23.6323 C   0  0  0  0  0  0  0  0  0  0  0  0
  -19.7995  -25.4151   19.4107 C   0  0  0  0  0  0  0  0  0  0  0  0
  -20.8786  -24.3464   19.1885 C   0  0  0  0  0  0  0  0  0  0  0  0
  -20.9843  -27.1650   17.9428 C   0  0  0  0  0  0  0  0  0  1  0  0
  -26.6220  -29.3526   24.3804 C   0  0  1  0  0  0  0  0  0  0  0  0
  -26.1229  -33.0986   24.6771 C   0  0  2  0  0  0  0  0  0  0  0  0
  -19.6637  -26.4607   18.2819 C   0  0  2  0  0  0  0  0  0  0  0  0
  -26.9533  -28.4930   25.6329 C   0  0  0  0  0  0  0  0  0  0  0  0
  -26.6090  -17.5607   21.9958 N   0  0  0  0  0  0  0  0  0  0  0  0
  -20.9809  -23.3372   20.3048 N   0  0  0  0  0  0  0  0  0  0  0  0
  -27.0128  -18.8181   21.7470 N   0  0  0  0  0  0  0  0  0  0  0  0
  -26.8290  -28.5498   22.0487 N   0  0  0  0  0  0  0  0  0  0  0  0
  -25.2329  -20.7015   24.5566 N   0  0  0  0  0  0  0  0  0  0  0  0
  -28.1018  -20.1680   20.1338 N   0  0  0  0  0  0  0  0  0  0  0  0
  -28.1065  -16.0693   18.2372 N   0  0  0  0  0  0  0  0  0  0  0  0
  -23.5205  -24.9863   21.6783 N   0  0  0  0  0  0  0  0  0  0  0  0
  -28.4354  -25.8580   20.1858 N   0  0  0  0  0  0  0  0  0  0  0  0
  -26.7681  -30.7895   24.5861 N   0  0  0  0  0  0  0  0  0  0  0  0
  -23.1364  -21.3539   23.6777 N   0  0  0  0  0  0  0  0  0  0  0  0
  -25.3876  -34.0309   23.7766 N   0  3  0  0  0  0  0  0  0  0  0  0
  -28.7523  -18.2517   17.9563 O   0  0  0  0  0  0  0  0  0  0  0  0
  -21.5060  -25.6857   22.5219 O   0  0  0  0  0  0  0  0  0  0  0  0
  -27.0385  -26.0019   22.0434 O   0  0  0  0  0  0  0  0  0  0  0  0
  -28.7155  -29.1385   23.2859 O   0  0  0  0  0  0  0  0  0  0  0  0
  -24.5841  -31.3476   24.0422 O   0  0  0  0  0  0  0  0  0  0  0  0
  -24.0026  -22.4181   25.5145 O   0  0  0  0  0  0  0  0  0  0  0  0
  -25.9827  -11.4164   20.4451 O   0  0  0  0  0  0  0  0  0  0  0  0
  -21.4694  -27.9027   19.0639 O   0  0  0  0  0  0  0  0  0  1  0  0
  -20.9663   -9.6111   21.8526 F   0  0  0  0  0  0  0  0  0  0  0  0
  -25.0122  -11.7794   23.0081 F   0  0  0  0  0  0  0  0  0  0  0  0
  1  2  1  0  0  0  0
  1  5  2  0  0  0  0
  2  6  2  0  0  0  0
  3  8  2  0  0  0  0
  3 17  1  0  0  0  0
  4  9  1  0  0  0  0
  4 17  2  0  0  0  0
  5 19  1  0  0  0  0
  6 21  1  0  0  0  0
  7 10  2  0  0  0  0
  7 20  1  0  0  0  0
  8 24  1  0  0  0  0
  9 24  2  0  0  0  0
 10 25  1  0  0  0  0
 11 12  2  0  0  0  0
 11 26  1  0  0  0  0
 12 27  1  0  0  0  0
 13 16  2  0  0  0  0
 13 23  1  0  0  0  0
 14 22  1  0  0  0  0
 14 25  2  0  0  0  0
 15 27  2  0  0  0  0
 15 28  1  0  0  0  0
 16 65  1  0  0  0  0
 17 29  1  0  0  0  0
 18 29  1  0  0  0  0
 18 31  2  0  0  0  0
 18 32  1  0  0  0  0
 19 21  2  0  0  0  0
 19 38  1  0  0  0  0
 20 22  2  0  0  0  0
 20 39  1  0  0  0  0
 21 47  1  0  0  0  0
 22 40  1  0  0  0  0
 23 30  2  0  0  0  0
 23 56  1  0  0  0  0
 24 82  1  0  0  0  0
 25 83  1  0  0  0  0
 26 28  2  0  0  0  0
 26 82  1  0  0  0  0
 27 84  1  0  0  0  0
 28 85  1  0  0  0  0
 29 64  2  0  0  0  0
 30 33  1  0  0  0  0
 30 65  1  0  0  0  0
 31 66  1  0  0  0  0
 31 69  1  0  0  0  0
 32 70  1  0  0  0  0
 32 76  2  0  0  0  0
 33 71  1  0  0  0  0
 33 77  2  0  0  0  0
 34 48  1  0  0  0  0
 34 72  1  0  0  0  0
 34 78  2  0  0  0  0
 35 60  1  0  0  0  0
 35 67  1  0  0  0  0
 35 79  2  0  0  0  0
 36 61  1  0  0  0  0
 36 73  1  0  0  0  0
 36 80  2  0  0  0  0
 37 68  1  0  0  0  0
 37 74  1  0  0  0  0
 37 81  2  0  0  0  0
 38 41  1  0  0  0  0
 39 48  1  0  0  0  0
 40 67  1  0  0  0  0
 41 43  1  0  0  0  0
 42 44  1  0  0  0  0
 42 45  1  0  0  0  0
 43 47  1  0  0  0  0
 44 49  1  0  0  0  0
 45 68  1  0  0  0  0
 46 49  1  0  0  0  0
 46 68  1  0  0  0  0
 47 72  1  0  0  0  0
 48 67  1  0  0  0  0
 49 66  1  0  0  0  0
 50 61  1  0  0  0  0
 51 62  1  0  0  0  0
 52 63  1  0  0  0  0
 53 63  1  0  0  0  0
 54 63  1  0  0  0  0
 55 75  1  0  0  0  0
 56 74  1  0  0  0  0
 57 58  1  0  0  0  0
 57 62  1  0  0  0  0
 58 65  1  0  0  0  0
 59 62  1  0  0  0  0
 59 83  1  0  0  0  0
 60 63  1  0  0  0  0
 60 73  1  0  0  0  0
 61 75  1  0  0  0  0
 64 66  1  0  0  0  0
M  CHG  1  75   1
M  ISO  4  37 100  59 101  74 100  83 101
M  END
> <Batch ID>
0116

> <Smiles>
CNC(C)C(=O)NC(C(=O)N1Cc2cc([101O:1][101CH2:1]C(C)CCn3ccc(C[100NH:0][100C:0](=O)N4CCCC(n5nc(-c6ccc(Oc7ccc(F)cc7F)cc6)c(C(N)=O)c5N)C4)c3C(N)=O)ccc2CC1C(=O)NC1CCCc2ccccc21)C(C)(C)C

> <Shape>
0.223

> <Color>
0.054

> <Negative vol penalty>
0.000

$$$$

  -OEChem-04052320133D

 84 92  0     1  0  0  0  0  0999 V2000
  -19.5720  -26.4103   18.7590 C   0  0  0  0  0  0  0  0  0  0  0  0
  -20.2410  -25.2077   18.5551 C   0  0  0  0  0  0  0  0  0  0  0  0
  -27.4409  -23.5507   21.1520 C   0  0  0  0  0  0  0  0  0  0  0  0
  -28.9442  -23.2946   19.2781 C   0  0  0  0  0  0  0  0  0  0  0  0
  -19.5335  -26.9782   20.0317 C   0  0  0  0  0  0  0  0  0  0  0  0
  -20.8728  -24.5727   19.6238 C   0  0  0  0  0  0  0  0  0  0  0  0
  -19.9607  -19.5928   19.7391 C   0  0  0  0  0  0  0  0  0  0  0  0
  -27.5198  -24.9376   21.0259 C   0  0  0  0  0  0  0  0  0  0  0  0
  -29.0231  -24.6815   19.1519 C   0  0  0  0  0  0  0  0  0  0  0  0
  -20.6776  -18.7934   18.8497 C   0  0  0  0  0  0  0  0  0  0  0  0
  -26.1889  -27.3390   19.0523 C   0  0  0  0  0  0  0  0  0  0  0  0
  -25.0000  -28.0650   19.1234 C   0  0  0  0  0  0  0  0  0  0  0  0
  -25.9885  -14.3387   20.6341 C   0  0  0  0  0  0  0  0  0  0  0  0
  -22.1901  -18.1829   20.6270 C   0  0  0  0  0  0  0  0  0  0  0  0
  -25.8492  -29.2681   21.0388 C   0  0  0  0  0  0  0  0  0  0  0  0
  -27.3062  -13.9444   20.7092 C   0  0  0  0  0  0  0  0  0  0  0  0
  -26.5004  -13.2146   18.7514 C   0  0  0  0  0  0  0  0  0  0  0  0
  -28.1531  -22.7292   20.2782 C   0  0  0  0  0  0  0  0  0  0  0  0
  -26.9170  -20.4980   20.3136 C   0  0  0  0  0  0  0  0  0  0  0  0
  -20.1570  -26.3450   21.1185 C   0  0  0  0  0  0  0  0  0  0  0  0
  -20.3603  -19.7019   21.0788 C   0  0  0  0  0  0  0  0  0  0  0  0
  -20.8437  -25.1333   20.9120 C   0  0  0  0  0  0  0  0  0  0  0  0
  -21.4751  -18.9823   21.5319 C   0  0  0  0  0  0  0  0  0  0  0  0
  -25.4788  -13.8771   19.3954 C   0  0  0  0  0  0  0  0  0  0  0  0
  -28.3109  -25.5030   20.0258 C   0  0  0  0  0  0  0  0  0  0  0  0
  -21.7941  -18.0906   19.2929 C   0  0  0  0  0  0  0  0  0  0  0  0
  -27.2079  -27.5774   19.9745 C   0  0  0  0  0  0  0  0  0  0  0  0
  -24.8302  -29.0296   20.1166 C   0  0  0  0  0  0  0  0  0  0  0  0
  -27.0381  -28.5420   20.9677 C   0  0  0  0  0  0  0  0  0  0  0  0
  -28.0725  -21.2965   20.4084 C   0  0  0  0  0  0  0  0  0  0  0  0
  -27.3687  -19.2157   20.5090 C   0  0  0  0  0  0  0  0  0  0  0  0
  -25.5568  -20.8811   20.0706 C   0  0  0  0  0  0  0  0  0  0  0  0
  -21.3400  -22.0849   22.9403 C   0  0  0  0  0  0  0  0  0  0  0  0
  -21.2014  -19.8162   25.2546 C   0  0  0  0  0  0  0  0  0  0  0  0
  -21.2662  -16.5034   26.0717 C   0  0  0  0  0  0  0  0  0  0  0  0
  -31.0786  -15.1616   19.5360 C   0  0  0  0  0  0  0  0  0  0  0  0
  -20.1287  -27.0211   22.4663 C   0  0  0  0  0  0  0  0  0  0  0  0
  -19.5606  -20.5473   22.0318 C   0  0  0  0  0  0  0  0  0  0  0  0
  -21.9334  -19.0495   22.9651 C   0  0  0  0  0  0  0  0  0  0  0  0
  -20.5045  -26.0951   23.6203 C   0  0  0  0  0  0  0  0  0  0  0  0
  -31.8610  -17.5132   22.0923 C   0  0  0  0  0  0  0  0  0  0  0  0
  -21.7559  -25.2938   23.2759 C   0  0  0  0  0  0  0  0  0  0  0  0
  -30.8544  -18.6433   21.8702 C   0  0  0  0  0  0  0  0  0  0  0  0
  -32.3294  -16.9069   20.7712 C   0  0  0  0  0  0  0  0  0  0  0  0
  -30.2390  -17.5859   19.6562 C   0  0  0  0  0  0  0  0  0  0  0  0
  -21.5201  -24.4018   22.0510 C   0  0  1  0  0  0  0  0  0  0  0  0
  -20.3602  -20.9897   23.2534 C   0  0  1  0  0  0  0  0  0  0  0  0
  -29.6953  -18.1913   20.9616 C   0  0  2  0  0  0  0  0  0  0  0  0
  -23.3584  -12.7227   18.7264 C   0  0  0  0  0  0  0  0  0  0  0  0
  -21.1696  -14.9596   28.0477 C   0  0  0  0  0  0  0  0  0  0  0  0
  -24.3582  -16.9540   16.2130 C   0  0  0  0  0  0  0  0  0  0  0  0
  -24.0900  -20.5189   25.9417 C   0  0  0  0  0  0  0  0  0  0  0  0
  -24.2365  -18.3690   27.2163 C   0  0  0  0  0  0  0  0  0  0  0  0
  -22.6127  -20.1265   27.9211 C   0  0  0  0  0  0  0  0  0  0  0  0
  -18.8012  -15.2000   25.0797 C   0  0  0  0  0  0  0  0  0  0  0  0
  -24.0141  -14.8500   17.5348 C   0  0  0  0  0  0  0  0  0  0  0  0
  -28.8916  -12.6795   19.2476 C   0  0  0  0  0  0  0  0  0  0  0  0
  -29.7079  -13.5235   18.2723 C   0  0  0  0  0  0  0  0  0  0  0  0
  -23.8925  -17.1561   18.6768 C   0  0  0  0  0  0  0  0  0  1  0  0
  -24.0669  -14.0763   18.8721 C   0  0  2  0  0  0  0  0  0  0  0  0
  -22.1673  -18.8004   25.8151 C   0  0  1  0  0  0  0  0  0  0  0  0
  -20.3683  -15.6691   26.9673 C   0  0  2  0  0  0  0  0  0  0  0  0
  -24.5511  -16.2995   17.5871 C   0  0  2  0  0  0  0  0  0  0  0  0
  -23.2694  -19.4538   26.6960 C   0  0  0  0  0  0  0  0  0  0  0  0
  -29.1753  -20.5814   20.6457 N   0  0  0  0  0  0  0  0  0  0  0  0
  -27.6063  -13.2616   19.5595 N   0  0  0  0  0  0  0  0  0  0  0  0
  -28.7149  -19.3201   20.7017 N   0  0  0  0  0  0  0  0  0  0  0  0
  -21.1223  -19.8947   23.8569 N   0  0  0  0  0  0  0  0  0  0  0  0
  -31.1822  -16.4975   19.9574 N   0  0  0  0  0  0  0  0  0  0  0  0
  -26.7418  -18.0204   20.5330 N   0  0  0  0  0  0  0  0  0  0  0  0
  -24.7403  -21.1800   21.1698 N   0  0  0  0  0  0  0  0  0  0  0  0
  -20.7605  -23.2266   22.4203 N   0  0  0  0  0  0  0  0  0  0  0  0
  -21.3567  -17.8071   26.5113 N   0  0  0  0  0  0  0  0  0  0  0  0
  -29.9575  -14.8565   18.7739 N   0  0  0  0  0  0  0  0  0  0  0  0
  -19.6477  -14.6406   26.1648 N   0  3  0  0  0  0  0  0  0  0  0  0
  -25.0751  -20.9402   18.9139 O   0  0  0  0  0  0  0  0  0  0  0  0
  -22.5333  -21.9079   23.1559 O   0  0  0  0  0  0  0  0  0  0  0  0
  -20.5363  -20.5094   26.0283 O   0  0  0  0  0  0  0  0  0  0  0  0
  -21.8337  -16.0435   25.0833 O   0  0  0  0  0  0  0  0  0  0  0  0
  -31.9198  -14.3030   19.8227 O   0  0  0  0  0  0  0  0  0  0  0  0
  -28.3879  -26.8563   19.9022 O   0  0  0  0  0  0  0  0  0  0  0  0
  -22.4960  -17.3102   18.4268 O   0  0  0  0  0  0  0  0  0  1  0  0
  -23.6891  -29.7279   20.1837 F   0  0  0  0  0  0  0  0  0  0  0  0
  -28.0140  -28.7763   21.8557 F   0  0  0  0  0  0  0  0  0  0  0  0
  1  2  1  0  0  0  0
  1  5  2  0  0  0  0
  2  6  2  0  0  0  0
  3  8  2  0  0  0  0
  3 18  1  0  0  0  0
  4  9  1  0  0  0  0
  4 18  2  0  0  0  0
  5 20  1  0  0  0  0
  6 22  1  0  0  0  0
  7 10  2  0  0  0  0
  7 21  1  0  0  0  0
  8 25  1  0  0  0  0
  9 25  2  0  0  0  0
 10 26  1  0  0  0  0
 11 12  2  0  0  0  0
 11 27  1  0  0  0  0
 12 28  1  0  0  0  0
 13 16  2  0  0  0  0
 13 24  1  0  0  0  0
 14 23  1  0  0  0  0
 14 26  2  0  0  0  0
 15 28  2  0  0  0  0
 15 29  1  0  0  0  0
 16 66  1  0  0  0  0
 17 24  2  0  0  0  0
 17 66  1  0  0  0  0
 18 30  1  0  0  0  0
 19 30  1  0  0  0  0
 19 31  2  0  0  0  0
 19 32  1  0  0  0  0
 20 22  2  0  0  0  0
 20 37  1  0  0  0  0
 21 23  2  0  0  0  0
 21 38  1  0  0  0  0
 22 46  1  0  0  0  0
 23 39  1  0  0  0  0
 24 60  1  0  0  0  0
 25 81  1  0  0  0  0
 26 82  1  0  0  0  0
 27 29  2  0  0  0  0
 27 81  1  0  0  0  0
 28 83  1  0  0  0  0
 29 84  1  0  0  0  0
 30 65  2  0  0  0  0
 31 67  1  0  0  0  0
 31 70  1  0  0  0  0
 32 71  1  0  0  0  0
 32 76  2  0  0  0  0
 33 47  1  0  0  0  0
 33 72  1  0  0  0  0
 33 77  2  0  0  0  0
 34 61  1  0  0  0  0
 34 68  1  0  0  0  0
 34 78  2  0  0  0  0
 35 62  1  0  0  0  0
 35 73  1  0  0  0  0
 35 79  2  0  0  0  0
 36 69  1  0  0  0  0
 36 74  1  0  0  0  0
 36 80  2  0  0  0  0
 37 40  1  0  0  0  0
 38 47  1  0  0  0  0
 39 68  1  0  0  0  0
 40 42  1  0  0  0  0
 41 43  1  0  0  0  0
 41 44  1  0  0  0  0
 42 46  1  0  0  0  0
 43 48  1  0  0  0  0
 44 69  1  0  0  0  0
 45 48  1  0  0  0  0
 45 69  1  0  0  0  0
 46 72  1  0  0  0  0
 47 68  1  0  0  0  0
 48 67  1  0  0  0  0
 49 60  1  0  0  0  0
 50 62  1  0  0  0  0
 51 63  1  0  0  0  0
 52 64  1  0  0  0  0
 53 64  1  0  0  0  0
 54 64  1  0  0  0  0
 55 75  1  0  0  0  0
 56 60  1  0  0  0  0
 56 63  1  0  0  0  0
 57 58  1  0  0  0  0
 57 66  1  0  0  0  0
 58 74  1  0  0  0  0
 59 63  1  0  0  0  0
 59 82  1  0  0  0  0
 61 64  1  0  0  0  0
 61 73  1  0  0  0  0
 62 75  1  0  0  0  0
 65 67  1  0  0  0  0
M  CHG  1  75   1
M  ISO  4  36 100  59 101  74 100  82 101
M  END
> <Batch ID>
0116

> <Smiles>
CNC(C)C(=O)NC(C(=O)N1Cc2cc([101O:1][101CH2:1]C(C)CC(C)c3ccn(CC[100NH:0][100C:0](=O)N4CCCC(n5nc(-c6ccc(Oc7ccc(F)cc7F)cc6)c(C(N)=O)c5N)C4)c3)ccc2CC1C(=O)NC1CCCc2ccccc21)C(C)(C)C

> <Shape>
0.189

> <Color>
0.064

> <Negative vol penalty>
0.000

$$$$

  -OEChem-04052320133D

 83 91  0     1  0  0  0  0  0999 V2000
  -28.4476  -32.9030   24.1222 C   0  0  0  0  0  0  0  0  0  0  0  0
  -29.1295  -31.8449   24.7145 C   0  0  0  0  0  0  0  0  0  0  0  0
  -23.0018   -9.8928   19.9833 C   0  0  0  0  0  0  0  0  0  0  0  0
  -23.7294   -9.9470   22.2865 C   0  0  0  0  0  0  0  0  0  0  0  0
  -27.1172  -32.7447   23.7365 C   0  0  0  0  0  0  0  0  0  0  0  0
  -28.4810  -30.6281   24.9224 C   0  0  0  0  0  0  0  0  0  0  0  0
  -30.9567  -25.0355   24.6062 C   0  0  0  0  0  0  0  0  0  0  0  0
  -22.2372   -8.7575   20.2515 C   0  0  0  0  0  0  0  0  0  0  0  0
  -22.9646   -8.8116   22.5547 C   0  0  0  0  0  0  0  0  0  0  0  0
  -31.4306  -24.1629   25.5848 C   0  0  0  0  0  0  0  0  0  0  0  0
  -23.2131   -5.4726   22.0857 C   0  0  0  0  0  0  0  0  0  0  0  0
  -23.8029   -4.4570   22.8382 C   0  0  0  0  0  0  0  0  0  0  0  0
  -29.3046  -23.0231   25.5894 C   0  0  0  0  0  0  0  0  0  0  0  0
  -22.0804   -4.6990   24.5150 C   0  0  0  0  0  0  0  0  0  0  0  0
  -23.7480  -10.4875   21.0008 C   0  0  0  0  0  0  0  0  0  0  0  0
  -24.1296  -13.0035   20.8220 C   0  0  0  0  0  0  0  0  0  0  0  0
  -26.4549  -31.5223   23.9310 C   0  0  0  0  0  0  0  0  0  0  0  0
  -29.6473  -24.9152   24.1189 C   0  0  0  0  0  0  0  0  0  0  0  0
  -27.1400  -30.4537   24.5401 C   0  0  0  0  0  0  0  0  0  0  0  0
  -28.8173  -23.8939   24.6028 C   0  0  0  0  0  0  0  0  0  0  0  0
  -22.2185   -8.2169   21.5372 C   0  0  0  0  0  0  0  0  0  0  0  0
  -30.6036  -23.1583   26.0786 C   0  0  0  0  0  0  0  0  0  0  0  0
  -22.0571   -6.1016   22.5479 C   0  0  0  0  0  0  0  0  0  0  0  0
  -23.2365   -4.0701   24.0528 C   0  0  0  0  0  0  0  0  0  0  0  0
  -21.4907   -5.7148   23.7625 C   0  0  0  0  0  0  0  0  0  0  0  0
  -24.5385  -11.6600   20.7242 C   0  0  0  0  0  0  0  0  0  0  0  0
  -25.2379  -13.7273   20.4557 C   0  0  0  0  0  0  0  0  0  0  0  0
  -22.8613  -13.5485   21.2093 C   0  0  0  0  0  0  0  0  0  0  0  0
  -27.0764  -26.7844   24.1103 C   0  0  0  0  0  0  0  0  0  0  0  0
  -25.8486  -24.4269   22.2509 C   0  0  0  0  0  0  0  0  0  0  0  0
  -25.9232  -21.1494   21.3028 C   0  0  0  0  0  0  0  0  0  0  0  0
  -30.7333  -14.6698   20.6976 C   0  0  0  0  0  0  0  0  0  0  0  0
  -25.0021  -31.4137   23.5407 C   0  0  0  0  0  0  0  0  0  0  0  0
  -29.1601  -25.8477   23.0440 C   0  0  0  0  0  0  0  0  0  0  0  0
  -27.4103  -23.7095   24.0981 C   0  0  0  0  0  0  0  0  0  0  0  0
  -24.5006  -29.9745   23.4546 C   0  0  0  0  0  0  0  0  0  0  0  0
  -29.5935  -12.2423   18.3556 C   0  0  0  0  0  0  0  0  0  0  0  0
  -24.9486  -29.1790   24.6765 C   0  0  0  0  0  0  0  0  0  0  0  0
  -28.1458  -11.9809   18.7750 C   0  0  0  0  0  0  0  0  0  0  0  0
  -29.8516  -17.9876   22.1493 C   0  0  0  0  0  0  0  0  0  0  0  0
  -30.4969  -12.4801   19.5637 C   0  0  0  0  0  0  0  0  0  0  0  0
  -28.5870  -13.2742   20.9037 C   0  0  0  0  0  0  0  0  0  0  0  0
  -30.6989  -18.9923   22.9143 C   0  0  0  0  0  0  0  0  0  0  0  0
  -31.5639  -16.7204   23.1863 C   0  0  0  0  0  0  0  0  0  0  0  0
  -26.4783  -29.1106   24.7598 C   0  0  1  0  0  0  0  0  0  0  0  0
  -27.6392  -25.9553   22.9907 C   0  0  1  0  0  0  0  0  0  0  0  0
  -27.6270  -13.0841   19.7169 C   0  0  2  0  0  0  0  0  0  0  0  0
  -30.8084  -16.8396   21.8775 C   0  0  1  0  0  0  0  0  0  0  0  0
  -25.3422  -19.0916   19.9893 C   0  0  0  0  0  0  0  0  0  0  0  0
  -33.9360  -19.1171   27.4623 C   0  0  0  0  0  0  0  0  0  0  0  0
  -23.4962  -24.2945   24.1896 C   0  0  0  0  0  0  0  0  0  0  0  0
  -22.8981  -22.0726   23.2029 C   0  0  0  0  0  0  0  0  0  0  0  0
  -22.8693  -24.1178   21.7750 C   0  0  0  0  0  0  0  0  0  0  0  0
  -27.9898  -21.7262   19.2643 C   0  0  0  0  0  0  0  0  0  0  0  0
  -32.7302  -19.6425   25.2994 C   0  0  0  0  0  0  0  0  0  0  0  0
  -31.9119  -18.3808   25.0517 C   0  0  0  0  0  0  0  0  0  0  0  0
  -30.5213  -20.9855   27.0422 C   0  0  0  0  0  0  0  0  0  1  0  0
  -25.0866  -23.1495   22.5086 C   0  0  1  0  0  0  0  0  0  0  0  0
  -25.9205  -20.4970   19.9321 C   0  0  2  0  0  0  0  0  0  0  0  0
  -32.8921  -20.0202   26.7869 C   0  0  1  0  0  0  0  0  0  0  0  0
  -31.5739  -20.0252   27.5934 C   0  0  1  0  0  0  0  0  0  0  0  0
  -23.6134  -23.4130   22.9301 C   0  0  0  0  0  0  0  0  0  0  0  0
  -25.8076  -11.5349   20.3268 N   0  0  0  0  0  0  0  0  0  0  0  0
  -26.2056  -12.8091   20.1716 N   0  0  0  0  0  0  0  0  0  0  0  0
  -26.9778  -24.6503   23.0515 N   0  0  0  0  0  0  0  0  0  0  0  0
  -29.9495  -13.5388   20.4153 N   0  0  0  0  0  0  0  0  0  0  0  0
  -25.4695  -15.0532   20.3522 N   0  0  0  0  0  0  0  0  0  0  0  0
  -21.8311  -12.6632   21.5548 N   0  0  0  0  0  0  0  0  0  0  0  0
  -26.9922  -28.1336   23.8239 N   0  0  0  0  0  0  0  0  0  0  0  0
  -25.2275  -22.3398   21.3032 N   0  0  0  0  0  0  0  0  0  0  0  0
  -30.1364  -15.6285   21.5072 N   0  0  0  0  0  0  0  0  0  0  0  0
  -31.7875  -18.1668   23.5775 N   0  3  2  0  0  0  0  0  0  0  0  0
  -27.3084  -20.4126   19.3958 N   0  3  0  0  0  0  0  0  0  0  0  0
  -22.6429  -14.7835   21.2321 O   0  0  0  0  0  0  0  0  0  0  0  0
  -26.7418  -26.2401   25.1560 O   0  0  0  0  0  0  0  0  0  0  0  0
  -25.4606  -25.1947   21.3669 O   0  0  0  0  0  0  0  0  0  0  0  0
  -26.4831  -20.6508   22.2767 O   0  0  0  0  0  0  0  0  0  0  0  0
  -31.8780  -14.8169   20.2562 O   0  0  0  0  0  0  0  0  0  0  0  0
  -31.8743  -20.4324   28.9340 O   0  0  0  0  0  0  0  0  0  0  0  0
  -21.4723   -7.1092   21.7993 O   0  0  0  0  0  0  0  0  0  0  0  0
  -31.0634  -22.3055   27.0343 O   0  0  0  0  0  0  0  0  0  1  0  0
  -23.8021   -3.0937   24.7745 F   0  0  0  0  0  0  0  0  0  0  0  0
  -20.3794   -6.3145   24.2111 F   0  0  0  0  0  0  0  0  0  0  0  0
  1  2  1  0  0  0  0
  1  5  2  0  0  0  0
  2  6  2  0  0  0  0
  3  8  2  0  0  0  0
  3 15  1  0  0  0  0
  4  9  1  0  0  0  0
  4 15  2  0  0  0  0
  5 17  1  0  0  0  0
  6 19  1  0  0  0  0
  7 10  2  0  0  0  0
  7 18  1  0  0  0  0
  8 21  1  0  0  0  0
  9 21  2  0  0  0  0
 10 22  1  0  0  0  0
 11 12  2  0  0  0  0
 11 23  1  0  0  0  0
 12 24  1  0  0  0  0
 13 20  1  0  0  0  0
 13 22  2  0  0  0  0
 14 24  2  0  0  0  0
 14 25  1  0  0  0  0
 15 26  1  0  0  0  0
 16 26  1  0  0  0  0
 16 27  2  0  0  0  0
 16 28  1  0  0  0  0
 17 19  2  0  0  0  0
 17 33  1  0  0  0  0
 18 20  2  0  0  0  0
 18 34  1  0  0  0  0
 19 45  1  0  0  0  0
 20 35  1  0  0  0  0
 21 80  1  0  0  0  0
 22 81  1  0  0  0  0
 23 25  2  0  0  0  0
 23 80  1  0  0  0  0
 24 82  1  0  0  0  0
 25 83  1  0  0  0  0
 26 63  2  0  0  0  0
 27 64  1  0  0  0  0
 27 67  1  0  0  0  0
 28 68  1  0  0  0  0
 28 74  2  0  0  0  0
 29 46  1  0  0  0  0
 29 69  1  0  0  0  0
 29 75  2  0  0  0  0
 30 58  1  0  0  0  0
 30 65  1  0  0  0  0
 30 76  2  0  0  0  0
 31 59  1  0  0  0  0
 31 70  1  0  0  0  0
 31 77  2  0  0  0  0
 32 66  1  0  0  0  0
 32 71  1  0  0  0  0
 32 78  2  0  0  0  0
 33 36  1  0  0  0  0
 34 46  1  0  0  0  0
 35 65  1  0  0  0  0
 36 38  1  0  0  0  0
 37 39  1  0  0  0  0
 37 41  1  0  0  0  0
 38 45  1  0  0  0  0
 39 47  1  0  0  0  0
 40 43  1  0  0  0  0
 40 48  1  0  0  0  0
 41 66  1  0  0  0  0
 42 47  1  0  0  0  0
 42 66  1  0  0  0  0
 43 72  1  0  0  0  0
 44 48  1  0  0  0  0
 44 72  1  0  0  0  0
 45 69  1  0  0  0  0
 46 65  1  0  0  0  0
 47 64  1  0  0  0  0
 48 71  1  0  0  0  0
 49 59  1  0  0  0  0
 50 60  1  0  0  0  0
 51 62  1  0  0  0  0
 52 62  1  0  0  0  0
 53 62  1  0  0  0  0
 54 73  1  0  0  0  0
 55 56  1  0  0  0  0
 55 60  1  0  0  0  0
 56 72  1  0  0  0  0
 57 61  1  0  0  0  0
 57 81  1  0  0  0  0
 58 62  1  0  0  0  0
 58 70  1  0  0  0  0
 59 73  1  0  0  0  0
 60 61  1  0  0  0  0
 61 79  1  0  0  0  0
 63 64  1  0  0  0  0
M  CHG  2  72   1  73   1
M  ISO  4  32 100  57 101  71 100  81 101
M  END
> <Batch ID>
0116

> <Smiles>
CNC(C)C(=O)NC(C(=O)N1Cc2cc([101O:1][101CH2:1]C(O)C(C)CCN3CCC([100NH:0][100C:0](=O)N4CCCC(n5nc(-c6ccc(Oc7ccc(F)cc7F)cc6)c(C(N)=O)c5N)C4)C3)ccc2CC1C(=O)NC1CCCc2ccccc21)C(C)(C)C

> <Shape>
0.244

> <Color>
0.185

> <Negative vol penalty>
0.000

$$$$

  -OEChem-04052320133D

 81 89  0     1  0  0  0  0  0999 V2000
  -30.0530  -34.6798   24.4448 C   0  0  0  0  0  0  0  0  0  0  0  0
  -29.5908  -33.3786   24.6143 C   0  0  0  0  0  0  0  0  0  0  0  0
  -23.4589   -9.7052   19.8102 C   0  0  0  0  0  0  0  0  0  0  0  0
  -24.3774   -9.6383   22.0438 C   0  0  0  0  0  0  0  0  0  0  0  0
  -29.1752  -35.6822   24.0344 C   0  0  0  0  0  0  0  0  0  0  0  0
  -28.2501  -33.0793   24.3744 C   0  0  0  0  0  0  0  0  0  0  0  0
  -27.6590  -28.8242   21.6931 C   0  0  0  0  0  0  0  0  0  0  0  0
  -22.9429   -8.4210   19.9839 C   0  0  0  0  0  0  0  0  0  0  0  0
  -23.8612   -8.3541   22.2176 C   0  0  0  0  0  0  0  0  0  0  0  0
  -27.7989  -27.6167   22.3760 C   0  0  0  0  0  0  0  0  0  0  0  0
  -22.4769   -5.2000   23.3808 C   0  0  0  0  0  0  0  0  0  0  0  0
  -21.8296   -4.9176   24.5836 C   0  0  0  0  0  0  0  0  0  0  0  0
  -25.3983  -27.4242   22.5150 C   0  0  0  0  0  0  0  0  0  0  0  0
  -20.2223   -6.6630   24.1283 C   0  0  0  0  0  0  0  0  0  0  0  0
  -24.1762  -10.3138   20.8401 C   0  0  0  0  0  0  0  0  0  0  0  0
  -24.0739  -12.8600   20.9594 C   0  0  0  0  0  0  0  0  0  0  0  0
  -27.8252  -35.3931   23.7801 C   0  0  0  0  0  0  0  0  0  0  0  0
  -26.3857  -29.3470   21.4252 C   0  0  0  0  0  0  0  0  0  0  0  0
  -27.3531  -34.0791   23.9615 C   0  0  0  0  0  0  0  0  0  0  0  0
  -25.2449  -28.6371   21.8263 C   0  0  0  0  0  0  0  0  0  0  0  0
  -23.1440   -7.7455   21.1876 C   0  0  0  0  0  0  0  0  0  0  0  0
  -26.6685  -26.9179   22.7895 C   0  0  0  0  0  0  0  0  0  0  0  0
  -21.9970   -6.2139   22.5517 C   0  0  0  0  0  0  0  0  0  0  0  0
  -20.7022   -5.6491   24.9574 C   0  0  0  0  0  0  0  0  0  0  0  0
  -20.8697   -6.9454   22.9255 C   0  0  0  0  0  0  0  0  0  0  0  0
  -24.7101  -11.6401   20.6611 C   0  0  0  0  0  0  0  0  0  0  0  0
  -24.9922  -13.8202   20.6115 C   0  0  0  0  0  0  0  0  0  0  0  0
  -22.7695  -13.1033   21.5026 C   0  0  0  0  0  0  0  0  0  0  0  0
  -24.8311  -31.9962   22.2428 C   0  0  0  0  0  0  0  0  0  0  0  0
  -22.6001  -30.8573   20.1819 C   0  0  0  0  0  0  0  0  0  0  0  0
  -21.2352  -28.1670   18.5862 C   0  0  0  0  0  0  0  0  0  0  0  0
  -30.4349  -15.4321   20.9853 C   0  0  0  0  0  0  0  0  0  0  0  0
  -26.9038  -36.5195   23.3839 C   0  0  0  0  0  0  0  0  0  0  0  0
  -26.2514  -30.6374   20.6642 C   0  0  0  0  0  0  0  0  0  0  0  0
  -23.8552  -29.1453   21.5455 C   0  0  0  0  0  0  0  0  0  0  0  0
  -25.5809  -36.0436   22.7890 C   0  0  0  0  0  0  0  0  0  0  0  0
  -29.3199  -13.4844   18.0351 C   0  0  0  0  0  0  0  0  0  0  0  0
  -24.9824  -34.9293   23.6416 C   0  0  0  0  0  0  0  0  0  0  0  0
  -28.0058  -12.8745   18.5197 C   0  0  0  0  0  0  0  0  0  0  0  0
  -30.7480  -18.0988   23.1825 C   0  0  0  0  0  0  0  0  0  0  0  0
  -28.6298  -18.3384   21.8267 C   0  0  0  0  0  0  0  0  0  0  0  0
  -30.2825  -13.7464   19.1890 C   0  0  0  0  0  0  0  0  0  0  0  0
  -30.5432  -16.5863   23.1743 C   0  0  0  0  0  0  0  0  0  0  0  0
  -28.4809  -16.8141   21.8227 C   0  0  0  0  0  0  0  0  0  0  0  0
  -28.3869  -13.9713   20.7633 C   0  0  0  0  0  0  0  0  0  0  0  0
  -25.9113  -33.7101   23.6873 C   0  0  1  0  0  0  0  0  0  0  0  0
  -24.9135  -31.3323   20.8975 C   0  0  1  0  0  0  0  0  0  0  0  0
  -27.3783  -13.7365   19.6286 C   0  0  2  0  0  0  0  0  0  0  0  0
  -29.4038  -18.8126   23.0549 C   0  0  0  0  0  0  0  0  0  0  0  0
  -19.3982  -27.5445   16.9939 C   0  0  0  0  0  0  0  0  0  0  0  0
  -20.5569  -31.1479   22.4293 C   0  0  0  0  0  0  0  0  0  0  0  0
  -19.0180  -29.6623   21.1282 C   0  0  0  0  0  0  0  0  0  0  0  0
  -19.7353  -31.8530   20.1749 C   0  0  0  0  0  0  0  0  0  0  0  0
  -23.1588  -27.1309   16.5898 C   0  0  0  0  0  0  0  0  0  0  0  0
  -28.8048  -22.5780   23.0496 C   0  0  0  0  0  0  0  0  0  0  0  0
  -27.6161  -23.4800   23.3728 C   0  0  0  0  0  0  0  0  0  0  0  0
  -28.4417  -21.1112   23.2263 C   0  0  0  0  0  0  0  0  0  0  0  0
  -27.9508  -24.9495   23.1592 C   0  0  0  0  0  0  0  0  0  1  0  0
  -21.3976  -29.9523   20.3010 C   0  0  1  0  0  0  0  0  0  0  0  0
  -20.8596  -27.9419   17.1326 C   0  0  2  0  0  0  0  0  0  0  0  0
  -20.2030  -30.6450   21.0155 C   0  0  0  0  0  0  0  0  0  0  0  0
  -25.9376  -11.8073   20.1619 N   0  0  0  0  0  0  0  0  0  0  0  0
  -26.0801  -13.1435   20.1438 N   0  0  0  0  0  0  0  0  0  0  0  0
  -23.7761  -30.4147   20.8038 N   0  0  0  0  0  0  0  0  0  0  0  0
  -29.6493  -14.5270   20.2522 N   0  0  0  0  0  0  0  0  0  0  0  0
  -29.7878  -16.1622   21.9938 N   0  0  0  0  0  0  0  0  0  0  0  0
  -24.9672  -15.1690   20.6630 N   0  0  0  0  0  0  0  0  0  0  0  0
  -21.9552  -12.0031   21.8036 N   0  0  0  0  0  0  0  0  0  0  0  0
  -25.8076  -32.9494   22.4606 N   0  0  0  0  0  0  0  0  0  0  0  0
  -21.0992  -29.4900   18.9499 N   0  0  0  0  0  0  0  0  0  0  0  0
  -29.6397  -20.2755   22.9454 N   0  3  0  0  0  0  0  0  0  0  0  0
  -21.6986  -26.8611   16.5422 N   0  3  0  0  0  0  0  0  0  0  0  0
  -22.3326  -14.2626   21.6993 O   0  0  0  0  0  0  0  0  0  0  0  0
  -23.9462  -31.6692   23.0249 O   0  0  0  0  0  0  0  0  0  0  0  0
  -22.5015  -31.9144   19.5539 O   0  0  0  0  0  0  0  0  0  0  0  0
  -21.6081  -27.2592   19.3260 O   0  0  0  0  0  0  0  0  0  0  0  0
  -31.6407  -15.5795   20.7503 O   0  0  0  0  0  0  0  0  0  0  0  0
  -22.6403   -6.4925   21.3575 O   0  0  0  0  0  0  0  0  0  0  0  0
  -26.8032  -25.7308   23.4617 O   0  0  0  0  0  0  0  0  0  1  0  0
  -20.0798   -5.3768   26.1117 F   0  0  0  0  0  0  0  0  0  0  0  0
  -20.4033   -7.9199   22.1326 F   0  0  0  0  0  0  0  0  0  0  0  0
  1  2  1  0  0  0  0
  1  5  2  0  0  0  0
  2  6  2  0  0  0  0
  3  8  2  0  0  0  0
  3 15  1  0  0  0  0
  4  9  1  0  0  0  0
  4 15  2  0  0  0  0
  5 17  1  0  0  0  0
  6 19  1  0  0  0  0
  7 10  2  0  0  0  0
  7 18  1  0  0  0  0
  8 21  1  0  0  0  0
  9 21  2  0  0  0  0
 10 22  1  0  0  0  0
 11 12  2  0  0  0  0
 11 23  1  0  0  0  0
 12 24  1  0  0  0  0
 13 20  1  0  0  0  0
 13 22  2  0  0  0  0
 14 24  2  0  0  0  0
 14 25  1  0  0  0  0
 15 26  1  0  0  0  0
 16 26  1  0  0  0  0
 16 27  2  0  0  0  0
 16 28  1  0  0  0  0
 17 19  2  0  0  0  0
 17 33  1  0  0  0  0
 18 20  2  0  0  0  0
 18 34  1  0  0  0  0
 19 46  1  0  0  0  0
 20 35  1  0  0  0  0
 21 78  1  0  0  0  0
 22 79  1  0  0  0  0
 23 25  2  0  0  0  0
 23 78  1  0  0  0  0
 24 80  1  0  0  0  0
 25 81  1  0  0  0  0
 26 62  2  0  0  0  0
 27 63  1  0  0  0  0
 27 67  1  0  0  0  0
 28 68  1  0  0  0  0
 28 73  2  0  0  0  0
 29 47  1  0  0  0  0
 29 69  1  0  0  0  0
 29 74  2  0  0  0  0
 30 59  1  0  0  0  0
 30 64  1  0  0  0  0
 30 75  2  0  0  0  0
 31 60  1  0  0  0  0
 31 70  1  0  0  0  0
 31 76  2  0  0  0  0
 32 65  1  0  0  0  0
 32 66  1  0  0  0  0
 32 77  2  0  0  0  0
 33 36  1  0  0  0  0
 34 47  1  0  0  0  0
 35 64  1  0  0  0  0
 36 38  1  0  0  0  0
 37 39  1  0  0  0  0
 37 42  1  0  0  0  0
 38 46  1  0  0  0  0
 39 48  1  0  0  0  0
 40 43  1  0  0  0  0
 40 49  1  0  0  0  0
 41 44  1  0  0  0  0
 41 49  1  0  0  0  0
 42 65  1  0  0  0  0
 43 66  1  0  0  0  0
 44 66  1  0  0  0  0
 45 48  1  0  0  0  0
 45 65  1  0  0  0  0
 46 69  1  0  0  0  0
 47 64  1  0  0  0  0
 48 63  1  0  0  0  0
 49 71  1  0  0  0  0
 50 60  1  0  0  0  0
 51 61  1  0  0  0  0
 52 61  1  0  0  0  0
 53 61  1  0  0  0  0
 54 72  1  0  0  0  0
 55 56  1  0  0  0  0
 55 57  1  0  0  0  0
 56 58  1  0  0  0  0
 57 71  1  0  0  0  0
 58 79  1  0  0  0  0
 59 61  1  0  0  0  0
 59 70  1  0  0  0  0
 60 72  1  0  0  0  0
 62 63  1  0  0  0  0
M  CHG  2  71   1  72   1
M  ISO  4  32 100  58 101  66 100  79 101
M  END
> <Batch ID>
0116

> <Smiles>
CNC(C)C(=O)NC(C(=O)N1Cc2cc([101O:1][101CH2:1]CCCNC3CC[100N:0]([100C:0](=O)N4CCCC(n5nc(-c6ccc(Oc7ccc(F)cc7F)cc6)c(C(N)=O)c5N)C4)CC3)ccc2CC1C(=O)NC1CCCc2ccccc21)C(C)(C)C

> <Shape>
0.303

> <Color>
0.161

> <Negative vol penalty>
0.000

$$$$

  -OEChem-04052320133D

 90 98  0     1  0  0  0  0  0999 V2000
  -35.5927  -31.2597   16.6712 C   0  0  0  0  0  0  0  0  0  0  0  0
  -35.4851  -30.6327   17.9085 C   0  0  0  0  0  0  0  0  0  0  0  0
  -23.1852   -9.8323   19.8833 C   0  0  0  0  0  0  0  0  0  0  0  0
  -23.5245   -9.9133   22.2740 C   0  0  0  0  0  0  0  0  0  0  0  0
  -34.5727  -31.1228   15.7306 C   0  0  0  0  0  0  0  0  0  0  0  0
  -34.3568  -29.8694   18.2062 C   0  0  0  0  0  0  0  0  0  0  0  0
  -34.1478  -24.7788   21.6045 C   0  0  0  0  0  0  0  0  0  0  0  0
  -30.6418  -16.1711   25.5856 C   0  0  0  0  0  0  0  0  0  0  0  0
  -22.4081   -8.6837   20.0325 C   0  0  0  0  0  0  0  0  0  0  0  0
  -22.7474   -8.7647   22.4232 C   0  0  0  0  0  0  0  0  0  0  0  0
  -33.8026  -24.5536   22.9363 C   0  0  0  0  0  0  0  0  0  0  0  0
  -21.1511   -5.6489   23.3998 C   0  0  0  0  0  0  0  0  0  0  0  0
  -21.6264   -4.6506   24.2502 C   0  0  0  0  0  0  0  0  0  0  0  0
  -30.5257  -14.8252   25.2566 C   0  0  0  0  0  0  0  0  0  0  0  0
  -31.5644  -23.9703   22.2513 C   0  0  0  0  0  0  0  0  0  0  0  0
  -23.6064   -4.4291   22.8835 C   0  0  0  0  0  0  0  0  0  0  0  0
  -32.7787  -16.1884   24.5417 C   0  0  0  0  0  0  0  0  0  0  0  0
  -23.7435  -10.4471   21.0040 C   0  0  0  0  0  0  0  0  0  0  0  0
  -24.1026  -12.9691   20.8685 C   0  0  0  0  0  0  0  0  0  0  0  0
  -33.4357  -30.3495   16.0134 C   0  0  0  0  0  0  0  0  0  0  0  0
  -33.1992  -24.6117   20.5853 C   0  0  0  0  0  0  0  0  0  0  0  0
  -33.3200  -29.7232   17.2690 C   0  0  0  0  0  0  0  0  0  0  0  0
  -31.9008  -24.1915   20.9071 C   0  0  0  0  0  0  0  0  0  0  0  0
  -31.7866  -16.8730   25.2249 C   0  0  0  0  0  0  0  0  0  0  0  0
  -22.1891   -8.1498   21.3025 C   0  0  0  0  0  0  0  0  0  0  0  0
  -32.5099  -24.1521   23.2602 C   0  0  0  0  0  0  0  0  0  0  0  0
  -21.9035   -6.0373   22.2913 C   0  0  0  0  0  0  0  0  0  0  0  0
  -22.8540   -4.0407   23.9920 C   0  0  0  0  0  0  0  0  0  0  0  0
  -23.1311   -5.4274   22.0332 C   0  0  0  0  0  0  0  0  0  0  0  0
  -24.5468  -11.6334   20.8505 C   0  0  0  0  0  0  0  0  0  0  0  0
  -31.5742  -14.2323   24.5718 C   0  0  0  0  0  0  0  0  0  0  0  0
  -25.2424  -13.7125   20.6823 C   0  0  0  0  0  0  0  0  0  0  0  0
  -22.7781  -13.4911   21.0383 C   0  0  0  0  0  0  0  0  0  0  0  0
  -31.8738  -26.5233   18.4191 C   0  0  0  0  0  0  0  0  0  0  0  0
  -30.5585  -23.7568   17.3521 C   0  0  0  0  0  0  0  0  0  0  0  0
  -29.5864  -20.5579   18.0368 C   0  0  0  0  0  0  0  0  0  0  0  0
  -31.0325  -12.6400   21.7665 C   0  0  0  0  0  0  0  0  0  0  0  0
  -32.3375  -30.2696   14.9828 C   0  0  0  0  0  0  0  0  0  0  0  0
  -33.5949  -24.8327   19.1510 C   0  0  0  0  0  0  0  0  0  0  0  0
  -30.8511  -23.9782   19.8482 C   0  0  0  0  0  0  0  0  0  0  0  0
  -31.3463  -29.1365   15.2355 C   0  0  0  0  0  0  0  0  0  0  0  0
  -29.5627  -13.4948   18.6383 C   0  0  0  0  0  0  0  0  0  0  0  0
  -30.9214  -29.1158   16.7004 C   0  0  0  0  0  0  0  0  0  0  0  0
  -28.0705  -13.2352   18.8522 C   0  0  0  0  0  0  0  0  0  0  0  0
  -30.4247  -12.4692   19.3711 C   0  0  0  0  0  0  0  0  0  0  0  0
  -28.6407  -12.0704   21.0240 C   0  0  0  0  0  0  0  0  0  0  0  0
  -32.1229  -28.8664   17.6199 C   0  0  1  0  0  0  0  0  0  0  0  0
  -32.4060  -25.1293   18.2422 C   0  0  1  0  0  0  0  0  0  0  0  0
  -27.7317  -13.1124   20.3500 C   0  0  2  0  0  0  0  0  0  0  0  0
  -28.5084  -18.5564   16.9741 C   0  0  0  0  0  0  0  0  0  0  0  0
  -27.8828  -19.1814   26.9770 C   0  0  0  0  0  0  0  0  0  0  0  0
  -27.5268  -20.2931   24.7636 C   0  0  0  0  0  0  0  0  0  0  0  0
  -31.6078  -23.3336   27.3809 C   0  0  0  0  0  0  0  0  0  0  0  0
  -32.7044  -19.7683   27.8728 C   0  0  0  0  0  0  0  0  0  0  0  0
  -27.8362  -25.1204   17.5511 C   0  0  0  0  0  0  0  0  0  0  0  0
  -26.7710  -22.8590   17.4108 C   0  0  0  0  0  0  0  0  0  0  0  0
  -28.1484  -23.7069   15.5117 C   0  0  0  0  0  0  0  0  0  0  0  0
  -31.9820  -18.8808   18.4921 C   0  0  0  0  0  0  0  0  0  0  0  0
  -31.4834  -12.7893   24.2024 C   0  0  0  0  0  0  0  0  0  0  0  0
  -32.0443  -21.2851   25.9279 C   0  0  0  0  0  0  0  0  0  0  0  0
  -29.7744  -19.2907   25.2681 C   0  0  0  0  0  0  0  0  0  0  0  0
  -33.2013  -23.4835   25.4353 C   0  0  0  0  0  0  0  0  0  1  0  0
  -29.2923  -22.9906   17.6495 C   0  0  1  0  0  0  0  0  0  0  0  0
  -29.8209  -19.2535   17.2965 C   0  0  2  0  0  0  0  0  0  0  0  0
  -28.5456  -20.0008   25.8692 C   0  0  0  0  0  0  0  0  0  0  0  0
  -32.6391  -22.5745   26.5409 C   0  0  1  0  0  0  0  0  0  0  0  0
  -31.5687  -20.2122   26.9382 C   0  0  1  0  0  0  0  0  0  0  0  0
  -30.9212  -18.9763   26.2509 C   0  0  2  0  0  0  0  0  0  0  0  0
  -28.0310  -23.6750   17.0512 C   0  0  0  0  0  0  0  0  0  0  0  0
  -32.7018  -14.8815   24.2046 N   0  0  0  0  0  0  0  0  0  0  0  0
  -25.8659  -11.5311   20.6672 N   0  0  0  0  0  0  0  0  0  0  0  0
  -26.2603  -12.8120   20.5683 N   0  0  0  0  0  0  0  0  0  0  0  0
  -31.2848  -24.2133   18.4611 N   0  0  0  0  0  0  0  0  0  0  0  0
  -30.0542  -12.4028   20.7869 N   0  0  0  0  0  0  0  0  0  0  0  0
  -25.4631  -15.0422   20.6066 N   0  0  0  0  0  0  0  0  0  0  0  0
  -21.7218  -12.5877   21.2181 N   0  0  0  0  0  0  0  0  0  0  0  0
  -31.9296  -18.2097   25.5381 N   0  0  0  0  0  0  0  0  0  0  0  0
  -32.4833  -27.4648   17.6118 N   0  0  0  0  0  0  0  0  0  0  0  0
  -29.5168  -21.6302   17.1727 N   0  0  0  0  0  0  0  0  0  0  0  0
  -30.5958  -12.5638   23.0835 N   0  0  0  0  0  0  0  0  0  0  0  0
  -30.6523  -18.3319   18.1215 N   0  3  0  0  0  0  0  0  0  0  0  0
  -22.5361  -14.7217   21.0145 O   0  0  0  0  0  0  0  0  0  0  0  0
  -30.9758  -26.7292   19.2270 O   0  0  0  0  0  0  0  0  0  0  0  0
  -30.8947  -23.9372   16.1790 O   0  0  0  0  0  0  0  0  0  0  0  0
  -29.4724  -20.6189   19.2590 O   0  0  0  0  0  0  0  0  0  0  0  0
  -32.2067  -12.9055   21.4881 O   0  0  0  0  0  0  0  0  0  0  0  0
  -21.4307   -7.0291   21.4485 O   0  0  0  0  0  0  0  0  0  0  0  0
  -32.1676  -23.9307   24.5691 O   0  0  0  0  0  0  0  0  0  1  0  0
  -23.3109   -3.0830   24.8096 F   0  0  0  0  0  0  0  0  0  0  0  0
  -23.8589   -5.7971   20.9704 F   0  0  0  0  0  0  0  0  0  0  0  0
  1  2  1  0  0  0  0
  1  5  2  0  0  0  0
  2  6  2  0  0  0  0
  3  9  2  0  0  0  0
  3 18  1  0  0  0  0
  4 10  1  0  0  0  0
  4 18  2  0  0  0  0
  5 20  1  0  0  0  0
  6 22  1  0  0  0  0
  7 11  2  0  0  0  0
  7 21  1  0  0  0  0
  8 14  2  0  0  0  0
  8 24  1  0  0  0  0
  9 25  1  0  0  0  0
 10 25  2  0  0  0  0
 11 26  1  0  0  0  0
 12 13  2  0  0  0  0
 12 27  1  0  0  0  0
 13 28  1  0  0  0  0
 14 31  1  0  0  0  0
 15 23  1  0  0  0  0
 15 26  2  0  0  0  0
 16 28  2  0  0  0  0
 16 29  1  0  0  0  0
 17 24  2  0  0  0  0
 17 70  1  0  0  0  0
 18 30  1  0  0  0  0
 19 30  1  0  0  0  0
 19 32  2  0  0  0  0
 19 33  1  0  0  0  0
 20 22  2  0  0  0  0
 20 38  1  0  0  0  0
 21 23  2  0  0  0  0
 21 39  1  0  0  0  0
 22 47  1  0  0  0  0
 23 40  1  0  0  0  0
 24 77  1  0  0  0  0
 25 87  1  0  0  0  0
 26 88  1  0  0  0  0
 27 29  2  0  0  0  0
 27 87  1  0  0  0  0
 28 89  1  0  0  0  0
 29 90  1  0  0  0  0
 30 71  2  0  0  0  0
 31 59  1  0  0  0  0
 31 70  2  0  0  0  0
 32 72  1  0  0  0  0
 32 75  1  0  0  0  0
 33 76  1  0  0  0  0
 33 82  2  0  0  0  0
 34 48  1  0  0  0  0
 34 78  1  0  0  0  0
 34 83  2  0  0  0  0
 35 63  1  0  0  0  0
 35 73  1  0  0  0  0
 35 84  2  0  0  0  0
 36 64  1  0  0  0  0
 36 79  1  0  0  0  0
 36 85  2  0  0  0  0
 37 74  1  0  0  0  0
 37 80  1  0  0  0  0
 37 86  2  0  0  0  0
 38 41  1  0  0  0  0
 39 48  1  0  0  0  0
 40 73  1  0  0  0  0
 41 43  1  0  0  0  0
 42 44  1  0  0  0  0
 42 45  1  0  0  0  0
 43 47  1  0  0  0  0
 44 49  1  0  0  0  0
 45 74  1  0  0  0  0
 46 49  1  0  0  0  0
 46 74  1  0  0  0  0
 47 78  1  0  0  0  0
 48 73  1  0  0  0  0
 49 72  1  0  0  0  0
 50 64  1  0  0  0  0
 51 65  1  0  0  0  0
 52 65  1  0  0  0  0
 53 66  1  0  0  0  0
 54 67  1  0  0  0  0
 55 69  1  0  0  0  0
 56 69  1  0  0  0  0
 57 69  1  0  0  0  0
 58 81  1  0  0  0  0
 59 80  1  0  0  0  0
 60 66  1  0  0  0  0
 60 67  1  0  0  0  0
 61 65  1  0  0  0  0
 61 68  1  0  0  0  0
 62 66  1  0  0  0  0
 62 88  1  0  0  0  0
 63 69  1  0  0  0  0
 63 79  1  0  0  0  0
 64 81  1  0  0  0  0
 67 68  1  0  0  0  0
 68 77  1  0  0  0  0
 71 72  1  0  0  0  0
M  CHG  1  81   1
M  ISO  4  37 100  62 101  80 100  88 101
M  END
> <Batch ID>
0116

> <Smiles>
CNC(C)C(=O)NC(C(=O)N1Cc2cc([101O:1][101CH2:1]C(C)CC(C)C(CC(C)C)Nc3ccc(C[100NH:0][100C:0](=O)N4CCCC(n5nc(-c6ccc(Oc7ccc(F)cc7F)cc6)c(C(N)=O)c5N)C4)nc3)ccc2CC1C(=O)NC1CCCc2ccccc21)C(C)(C)C

> <Shape>
0.191

> <Color>
0.183

> <Negative vol penalty>
0.000

$$$$

  -OEChem-04052320133D

 88 96  0     1  0  0  0  0  0999 V2000
  -31.2052  -33.9954   25.0531 C   0  0  0  0  0  0  0  0  0  0  0  0
  -31.0972  -33.1511   23.9527 C   0  0  0  0  0  0  0  0  0  0  0  0
  -24.3772  -12.2305   19.9697 C   0  0  0  0  0  0  0  0  0  0  0  0
  -25.6454  -12.9879   21.8815 C   0  0  0  0  0  0  0  0  0  0  0  0
  -30.3188  -33.8636   26.1212 C   0  0  0  0  0  0  0  0  0  0  0  0
  -30.1033  -32.1736   23.9203 C   0  0  0  0  0  0  0  0  0  0  0  0
  -27.0451  -30.1946   18.9972 C   0  0  0  0  0  0  0  0  0  0  0  0
  -28.0817  -22.7570   22.0578 C   0  0  0  0  0  0  0  0  0  0  0  0
  -24.6240  -10.9060   20.3307 C   0  0  0  0  0  0  0  0  0  0  0  0
  -25.8922  -11.6634   22.2425 C   0  0  0  0  0  0  0  0  0  0  0  0
  -27.2068  -29.0774   18.1790 C   0  0  0  0  0  0  0  0  0  0  0  0
  -23.4334   -8.6717   22.5720 C   0  0  0  0  0  0  0  0  0  0  0  0
  -22.3621   -7.7792   22.5345 C   0  0  0  0  0  0  0  0  0  0  0  0
  -28.2587  -23.8840   21.2630 C   0  0  0  0  0  0  0  0  0  0  0  0
  -25.5366  -27.9027   19.4634 C   0  0  0  0  0  0  0  0  0  0  0  0
  -23.5429   -6.4300   20.9150 C   0  0  0  0  0  0  0  0  0  0  0  0
  -24.8879  -13.2715   20.7451 C   0  0  0  0  0  0  0  0  0  0  0  0
  -23.5494  -15.4429   20.7737 C   0  0  0  0  0  0  0  0  0  0  0  0
  -29.3075  -32.8903   26.0976 C   0  0  0  0  0  0  0  0  0  0  0  0
  -26.1343  -30.1705   20.0631 C   0  0  0  0  0  0  0  0  0  0  0  0
  -29.2034  -32.0277   24.9897 C   0  0  0  0  0  0  0  0  0  0  0  0
  -25.3634  -29.0218   20.2920 C   0  0  0  0  0  0  0  0  0  0  0  0
  -28.6544  -21.5483   21.6779 C   0  0  0  0  0  0  0  0  0  0  0  0
  -25.3815  -10.6224   21.4671 C   0  0  0  0  0  0  0  0  0  0  0  0
  -26.4546  -27.9302   18.4139 C   0  0  0  0  0  0  0  0  0  0  0  0
  -24.5594   -8.4435   21.7809 C   0  0  0  0  0  0  0  0  0  0  0  0
  -22.4169   -6.6583   21.7061 C   0  0  0  0  0  0  0  0  0  0  0  0
  -24.6141   -7.3226   20.9525 C   0  0  0  0  0  0  0  0  0  0  0  0
  -24.6337  -14.6399   20.3723 C   0  0  0  0  0  0  0  0  0  0  0  0
  -29.0111  -23.7508   20.1072 C   0  0  0  0  0  0  0  0  0  0  0  0
  -29.3889  -21.5196   20.5035 C   0  0  0  0  0  0  0  0  0  0  0  0
  -23.7667  -16.6486   20.1529 C   0  0  0  0  0  0  0  0  0  0  0  0
  -22.4445  -15.1272   21.6312 C   0  0  0  0  0  0  0  0  0  0  0  0
  -26.3687  -30.4502   23.2207 C   0  0  0  0  0  0  0  0  0  0  0  0
  -23.1286  -30.3959   23.0752 C   0  0  0  0  0  0  0  0  0  0  0  0
  -20.3202  -29.4794   21.3666 C   0  0  0  0  0  0  0  0  0  0  0  0
  -28.7073  -19.3650   18.1373 C   0  0  0  0  0  0  0  0  0  0  0  0
  -28.4025  -32.7546   27.2964 C   0  0  0  0  0  0  0  0  0  0  0  0
  -25.9524  -31.3932   20.9200 C   0  0  0  0  0  0  0  0  0  0  0  0
  -24.3574  -28.9519   21.4108 C   0  0  0  0  0  0  0  0  0  0  0  0
  -27.1419  -31.9396   27.0188 C   0  0  0  0  0  0  0  0  0  0  0  0
  -25.7983  -18.5417   16.2568 C   0  0  0  0  0  0  0  0  0  0  0  0
  -27.4894  -30.6583   26.2675 C   0  0  0  0  0  0  0  0  0  0  0  0
  -25.0721  -17.5208   17.1345 C   0  0  0  0  0  0  0  0  0  0  0  0
  -27.3146  -18.3808   16.3406 C   0  0  0  0  0  0  0  0  0  0  0  0
  -27.1388  -17.3815   18.5865 C   0  0  0  0  0  0  0  0  0  0  0  0
  -28.1229  -30.9714   24.9066 C   0  0  1  0  0  0  0  0  0  0  0  0
  -25.3673  -31.0787   22.2934 C   0  0  1  0  0  0  0  0  0  0  0  0
  -25.6087  -17.5404   18.5784 C   0  0  2  0  0  0  0  0  0  0  0  0
  -17.8159  -29.5372   21.5172 C   0  0  0  0  0  0  0  0  0  0  0  0
  -26.9655  -24.3869   16.0655 C   0  0  0  0  0  0  0  0  0  0  0  0
  -28.5794  -20.9984   24.8054 C   0  0  0  0  0  0  0  0  0  0  0  0
  -27.2985  -18.9802   24.0101 C   0  0  0  0  0  0  0  0  0  0  0  0
  -23.2005  -28.1175   25.1035 C   0  0  0  0  0  0  0  0  0  0  0  0
  -20.8268  -27.5983   24.5000 C   0  0  0  0  0  0  0  0  0  0  0  0
  -21.4026  -29.8102   25.4993 C   0  0  0  0  0  0  0  0  0  0  0  0
  -20.0938  -31.1081   18.9058 C   0  0  0  0  0  0  0  0  0  0  0  0
  -30.0286  -20.2502   20.0425 C   0  0  0  0  0  0  0  0  0  0  0  0
  -28.7753  -24.7457   17.7626 C   0  0  0  0  0  0  0  0  0  0  0  0
  -26.3788  -25.5617   18.2119 C   0  0  0  0  0  0  0  0  0  1  0  0
  -29.2243  -24.9547   19.2194 C   0  0  2  0  0  0  0  0  0  0  0  0
  -22.0747  -29.3157   23.1127 C   0  0  1  0  0  0  0  0  0  0  0  0
  -19.0609  -30.2493   21.0116 C   0  0  2  0  0  0  0  0  0  0  0  0
  -27.2659  -24.4890   17.5662 C   0  0  1  0  0  0  0  0  0  0  0  0
  -27.7271  -20.4054   23.6928 C   0  0  0  0  0  0  0  0  0  0  0  0
  -21.8964  -28.7108   24.5339 C   0  0  0  0  0  0  0  0  0  0  0  0
  -25.4772  -15.2814   19.5593 N   0  0  0  0  0  0  0  0  0  0  0  0
  -29.5828  -22.5935   19.7055 N   0  0  0  0  0  0  0  0  0  0  0  0
  -24.9228  -16.5002   19.4447 N   0  0  0  0  0  0  0  0  0  0  0  0
  -24.2204  -30.1710   22.2248 N   0  0  0  0  0  0  0  0  0  0  0  0
  -27.7589  -18.4096   17.7362 N   0  0  0  0  0  0  0  0  0  0  0  0
  -23.0797  -17.8107   20.1491 N   0  0  0  0  0  0  0  0  0  0  0  0
  -22.3750  -13.8418   22.1856 N   0  0  0  0  0  0  0  0  0  0  0  0
  -28.4812  -20.4027   22.4750 N   0  0  0  0  0  0  0  0  0  0  0  0
  -27.1060  -31.3608   23.9533 N   0  0  0  0  0  0  0  0  0  0  0  0
  -20.8622  -29.9090   22.5594 N   0  0  0  0  0  0  0  0  0  0  0  0
  -29.0690  -19.3273   19.4784 N   0  0  0  0  0  0  0  0  0  0  0  0
  -18.9469  -30.4028   19.5336 N   0  3  0  0  0  0  0  0  0  0  0  0
  -21.5368  -15.9550   21.8847 O   0  0  0  0  0  0  0  0  0  0  0  0
  -26.4643  -29.2295   23.2691 O   0  0  0  0  0  0  0  0  0  0  0  0
  -22.9848  -31.4054   23.7693 O   0  0  0  0  0  0  0  0  0  0  0  0
  -20.7753  -28.5839   20.6584 O   0  0  0  0  0  0  0  0  0  0  0  0
  -29.1916  -20.1938   17.3592 O   0  0  0  0  0  0  0  0  0  0  0  0
  -30.6211  -25.2621   19.2316 O   0  0  0  0  0  0  0  0  0  0  0  0
  -25.6224   -9.3301   21.8199 O   0  0  0  0  0  0  0  0  0  0  0  0
  -26.6109  -26.8380   17.6172 O   0  0  0  0  0  0  0  0  0  1  0  0
  -21.3887   -5.8005   21.6714 F   0  0  0  0  0  0  0  0  0  0  0  0
  -25.6937   -7.0974   20.1911 F   0  0  0  0  0  0  0  0  0  0  0  0
  1  2  1  0  0  0  0
  1  5  2  0  0  0  0
  2  6  2  0  0  0  0
  3  9  2  0  0  0  0
  3 17  1  0  0  0  0
  4 10  1  0  0  0  0
  4 17  2  0  0  0  0
  5 19  1  0  0  0  0
  6 21  1  0  0  0  0
  7 11  2  0  0  0  0
  7 20  1  0  0  0  0
  8 14  2  0  0  0  0
  8 23  1  0  0  0  0
  9 24  1  0  0  0  0
 10 24  2  0  0  0  0
 11 25  1  0  0  0  0
 12 13  2  0  0  0  0
 12 26  1  0  0  0  0
 13 27  1  0  0  0  0
 14 30  1  0  0  0  0
 15 22  1  0  0  0  0
 15 25  2  0  0  0  0
 16 27  2  0  0  0  0
 16 28  1  0  0  0  0
 17 29  1  0  0  0  0
 18 29  1  0  0  0  0
 18 32  2  0  0  0  0
 18 33  1  0  0  0  0
 19 21  2  0  0  0  0
 19 38  1  0  0  0  0
 20 22  2  0  0  0  0
 20 39  1  0  0  0  0
 21 47  1  0  0  0  0
 22 40  1  0  0  0  0
 23 31  2  0  0  0  0
 23 74  1  0  0  0  0
 24 85  1  0  0  0  0
 25 86  1  0  0  0  0
 26 28  2  0  0  0  0
 26 85  1  0  0  0  0
 27 87  1  0  0  0  0
 28 88  1  0  0  0  0
 29 67  2  0  0  0  0
 30 61  1  0  0  0  0
 30 68  2  0  0  0  0
 31 58  1  0  0  0  0
 31 68  1  0  0  0  0
 32 69  1  0  0  0  0
 32 72  1  0  0  0  0
 33 73  1  0  0  0  0
 33 79  2  0  0  0  0
 34 48  1  0  0  0  0
 34 75  1  0  0  0  0
 34 80  2  0  0  0  0
 35 62  1  0  0  0  0
 35 70  1  0  0  0  0
 35 81  2  0  0  0  0
 36 63  1  0  0  0  0
 36 76  1  0  0  0  0
 36 82  2  0  0  0  0
 37 71  1  0  0  0  0
 37 77  1  0  0  0  0
 37 83  2  0  0  0  0
 38 41  1  0  0  0  0
 39 48  1  0  0  0  0
 40 70  1  0  0  0  0
 41 43  1  0  0  0  0
 42 44  1  0  0  0  0
 42 45  1  0  0  0  0
 43 47  1  0  0  0  0
 44 49  1  0  0  0  0
 45 71  1  0  0  0  0
 46 49  1  0  0  0  0
 46 71  1  0  0  0  0
 47 75  1  0  0  0  0
 48 70  1  0  0  0  0
 49 69  1  0  0  0  0
 50 63  1  0  0  0  0
 51 64  1  0  0  0  0
 52 65  1  0  0  0  0
 53 65  1  0  0  0  0
 54 66  1  0  0  0  0
 55 66  1  0  0  0  0
 56 66  1  0  0  0  0
 57 78  1  0  0  0  0
 58 77  1  0  0  0  0
 59 61  1  0  0  0  0
 59 64  1  0  0  0  0
 60 64  1  0  0  0  0
 60 86  1  0  0  0  0
 61 84  1  0  0  0  0
 62 66  1  0  0  0  0
 62 76  1  0  0  0  0
 63 78  1  0  0  0  0
 65 74  1  0  0  0  0
 67 69  1  0  0  0  0
M  CHG  1  78   1
M  ISO  4  37 100  60 101  77 100  86 101
M  END
> <Batch ID>
0116

> <Smiles>
CNC(C)C(=O)NC(C(=O)N1Cc2cc([101O:1][101CH2:1]C(C)CC(O)c3ccc(NC(C)C)c(C[100NH:0][100C:0](=O)N4CCCC(n5nc(-c6ccc(Oc7ccc(F)cc7F)cc6)c(C(N)=O)c5N)C4)n3)ccc2CC1C(=O)NC1CCCc2ccccc21)C(C)(C)C

> <Shape>
0.264

> <Color>
0.081

> <Negative vol penalty>
0.000

$$$$

  -OEChem-04052320133D

 84 91  0     1  0  0  0  0  0999 V2000
  -26.8061  -21.7947   13.1106 C   0  0  0  0  0  0  0  0  0  0  0  0
  -26.4564  -21.3323   14.3752 C   0  0  0  0  0  0  0  0  0  0  0  0
  -28.7039  -15.8025   19.2839 C   0  0  0  0  0  0  0  0  0  0  0  0
  -27.8405  -16.6320   21.3823 C   0  0  0  0  0  0  0  0  0  0  0  0
  -27.4058  -23.0453   12.9682 C   0  0  0  0  0  0  0  0  0  0  0  0
  -26.7073  -22.1197   15.4983 C   0  0  0  0  0  0  0  0  0  0  0  0
  -23.2826  -22.5101   20.5604 C   0  0  0  0  0  0  0  0  0  0  0  0
  -29.6054  -16.8658   19.2345 C   0  0  0  0  0  0  0  0  0  0  0  0
  -28.7419  -17.6953   21.3330 C   0  0  0  0  0  0  0  0  0  0  0  0
  -23.3878  -21.9068   21.8129 C   0  0  0  0  0  0  0  0  0  0  0  0
  -29.0004  -20.6707   19.7484 C   0  0  0  0  0  0  0  0  0  0  0  0
  -28.5179  -21.9440   20.0506 C   0  0  0  0  0  0  0  0  0  0  0  0
  -24.5266  -23.8608   22.6518 C   0  0  0  0  0  0  0  0  0  0  0  0
  -30.0854  -22.1034   21.8821 C   0  0  0  0  0  0  0  0  0  0  0  0
  -27.8214  -15.6857   20.3578 C   0  0  0  0  0  0  0  0  0  0  0  0
  -27.1952  -13.2138   20.4323 C   0  0  0  0  0  0  0  0  0  0  0  0
  -27.6553  -23.8526   14.0892 C   0  0  0  0  0  0  0  0  0  0  0  0
  -23.8092  -23.7911   20.3410 C   0  0  0  0  0  0  0  0  0  0  0  0
  -27.3121  -23.3817   15.3709 C   0  0  0  0  0  0  0  0  0  0  0  0
  -24.4246  -24.4793   21.3964 C   0  0  0  0  0  0  0  0  0  0  0  0
  -29.6244  -17.8122   20.2590 C   0  0  0  0  0  0  0  0  0  0  0  0
  -24.0124  -22.5810   22.8581 C   0  0  0  0  0  0  0  0  0  0  0  0
  -30.0255  -20.1137   20.5130 C   0  0  0  0  0  0  0  0  0  0  0  0
  -29.0604  -22.6604   21.1174 C   0  0  0  0  0  0  0  0  0  0  0  0
  -30.5680  -20.8300   21.5799 C   0  0  0  0  0  0  0  0  0  0  0  0
  -26.8896  -14.5878   20.4092 C   0  0  0  0  0  0  0  0  0  0  0  0
  -25.9721  -12.5909   20.4810 C   0  0  0  0  0  0  0  0  0  0  0  0
  -28.4706  -12.5592   20.4118 C   0  0  0  0  0  0  0  0  0  0  0  0
  -26.0624  -24.9965   18.4505 C   0  0  0  0  0  0  0  0  0  0  0  0
  -24.9901  -27.8227   19.6272 C   0  0  0  0  0  0  0  0  0  0  0  0
  -23.4006  -29.4990   22.1393 C   0  0  0  0  0  0  0  0  0  0  0  0
  -20.5872  -14.3268   22.4406 C   0  0  0  0  0  0  0  0  0  0  0  0
  -28.3488  -25.1771   13.8900 C   0  0  0  0  0  0  0  0  0  0  0  0
  -23.6639  -24.4389   18.9913 C   0  0  0  0  0  0  0  0  0  0  0  0
  -24.9883  -25.8645   21.2180 C   0  0  0  0  0  0  0  0  0  0  0  0
  -28.2389  -26.1092   15.0939 C   0  0  0  0  0  0  0  0  0  0  0  0
  -21.4102  -13.1894   19.1687 C   0  0  0  0  0  0  0  0  0  0  0  0
  -28.5483  -25.3548   16.3831 C   0  0  0  0  0  0  0  0  0  0  0  0
  -22.9354  -13.2948   19.1177 C   0  0  0  0  0  0  0  0  0  0  0  0
  -20.7921  -14.3316   19.9719 C   0  0  0  0  0  0  0  0  0  0  0  0
  -22.8623  -14.6033   21.2813 C   0  0  0  0  0  0  0  0  0  0  0  0
  -27.5455  -24.2173   16.6109 C   0  0  1  0  0  0  0  0  0  0  0  0
  -24.6917  -25.5385   18.7425 C   0  0  1  0  0  0  0  0  0  0  0  0
  -23.5348  -13.4422   20.5291 C   0  0  2  0  0  0  0  0  0  0  0  0
  -22.2247  -21.7995   30.5046 C   0  0  0  0  0  0  0  0  0  0  0  0
  -22.7082  -31.8080   22.8366 C   0  0  0  0  0  0  0  0  0  0  0  0
  -19.5658  -21.6440   27.6634 C   0  0  0  0  0  0  0  0  0  0  0  0
  -27.8732  -28.4501   20.4041 C   0  0  0  0  0  0  0  0  0  0  0  0
  -27.0031  -30.2595   21.8998 C   0  0  0  0  0  0  0  0  0  0  0  0
  -26.6092  -30.3804   19.4395 C   0  0  0  0  0  0  0  0  0  0  0  0
  -20.5343  -28.7618   22.1503 C   0  0  0  0  0  0  0  0  0  0  0  0
  -20.8715  -21.7619   29.8091 C   0  0  0  0  0  0  0  0  0  0  0  0
  -20.5450  -14.3280   24.9220 C   0  0  0  0  0  0  0  0  0  0  0  0
  -22.2112  -18.8047   26.0401 C   0  0  0  0  0  0  0  0  0  0  0  0
  -22.9425  -21.0921   25.9661 C   0  0  0  0  0  0  0  0  0  0  0  0
  -21.6925  -20.2910   27.8552 C   0  0  0  0  0  0  0  0  0  0  0  0
  -20.0972  -15.6896   25.4198 C   0  0  0  0  0  0  0  0  0  0  0  0
  -20.9461  -17.9692   25.9869 C   0  0  0  0  0  0  0  0  0  0  0  0
  -23.0880  -21.0775   24.4522 C   0  0  0  0  0  0  0  0  0  1  0  0
  -25.3355  -28.6855   20.8169 C   0  0  1  0  0  0  0  0  0  0  0  0
  -22.2922  -30.5359   22.1145 C   0  0  2  0  0  0  0  0  0  0  0  0
  -20.9664  -21.5755   28.2825 C   0  0  1  0  0  0  0  0  0  0  0  0
  -26.6964  -29.4170   20.6432 C   0  0  0  0  0  0  0  0  0  0  0  0
  -25.5755  -14.8244   20.4404 N   0  0  0  0  0  0  0  0  0  0  0  0
  -25.0444  -13.5906   20.4835 N   0  0  0  0  0  0  0  0  0  0  0  0
  -24.8273  -26.4529   19.8781 N   0  0  0  0  0  0  0  0  0  0  0  0
  -21.4030  -14.4161   21.3007 N   0  0  0  0  0  0  0  0  0  0  0  0
  -25.6104  -11.2909   20.5213 N   0  0  0  0  0  0  0  0  0  0  0  0
  -29.0994  -12.2825   21.6334 N   0  0  0  0  0  0  0  0  0  0  0  0
  -26.2928  -24.7406   17.1122 N   0  0  0  0  0  0  0  0  0  0  0  0
  -24.1989  -29.5777   21.0178 N   0  0  0  0  0  0  0  0  0  0  0  0
  -21.2471  -14.4097   23.6606 N   0  0  0  0  0  0  0  0  0  0  0  0
  -21.8917  -20.1860   26.4079 N   0  0  2  0  0  0  0  0  0  0  0  0
  -21.0673  -30.0006   22.7733 N   0  3  0  0  0  0  0  0  0  0  0  0
  -21.2763  -16.5864   25.5621 N   0  3  0  0  0  0  0  0  0  0  0  0
  -29.0435  -12.2441   19.3412 O   0  0  0  0  0  0  0  0  0  0  0  0
  -26.8529  -24.8246   19.3709 O   0  0  0  0  0  0  0  0  0  0  0  0
  -24.8621  -28.3460   18.5175 O   0  0  0  0  0  0  0  0  0  0  0  0
  -23.5461  -28.7015   23.0631 O   0  0  0  0  0  0  0  0  0  0  0  0
  -19.3621  -14.1784   22.3759 O   0  0  0  0  0  0  0  0  0  0  0  0
  -30.5040  -18.8497   20.2112 O   0  0  0  0  0  0  0  0  0  0  0  0
  -24.1170  -21.9941   24.0814 O   0  0  0  0  0  0  0  0  0  1  0  0
  -28.5979  -23.8838   21.4066 F   0  0  0  0  0  0  0  0  0  0  0  0
  -31.5537  -20.3006   22.3174 F   0  0  0  0  0  0  0  0  0  0  0  0
  1  2  1  0  0  0  0
  1  5  2  0  0  0  0
  2  6  2  0  0  0  0
  3  8  2  0  0  0  0
  3 15  1  0  0  0  0
  4  9  1  0  0  0  0
  4 15  2  0  0  0  0
  5 17  1  0  0  0  0
  6 19  1  0  0  0  0
  7 10  2  0  0  0  0
  7 18  1  0  0  0  0
  8 21  1  0  0  0  0
  9 21  2  0  0  0  0
 10 22  1  0  0  0  0
 11 12  2  0  0  0  0
 11 23  1  0  0  0  0
 12 24  1  0  0  0  0
 13 20  1  0  0  0  0
 13 22  2  0  0  0  0
 14 24  2  0  0  0  0
 14 25  1  0  0  0  0
 15 26  1  0  0  0  0
 16 26  1  0  0  0  0
 16 27  2  0  0  0  0
 16 28  1  0  0  0  0
 17 19  2  0  0  0  0
 17 33  1  0  0  0  0
 18 20  2  0  0  0  0
 18 34  1  0  0  0  0
 19 42  1  0  0  0  0
 20 35  1  0  0  0  0
 21 81  1  0  0  0  0
 22 82  1  0  0  0  0
 23 25  2  0  0  0  0
 23 81  1  0  0  0  0
 24 83  1  0  0  0  0
 25 84  1  0  0  0  0
 26 64  2  0  0  0  0
 27 65  1  0  0  0  0
 27 68  1  0  0  0  0
 28 69  1  0  0  0  0
 28 76  2  0  0  0  0
 29 43  1  0  0  0  0
 29 70  1  0  0  0  0
 29 77  2  0  0  0  0
 30 60  1  0  0  0  0
 30 66  1  0  0  0  0
 30 78  2  0  0  0  0
 31 61  1  0  0  0  0
 31 71  1  0  0  0  0
 31 79  2  0  0  0  0
 32 67  1  0  0  0  0
 32 72  1  0  0  0  0
 32 80  2  0  0  0  0
 33 36  1  0  0  0  0
 34 43  1  0  0  0  0
 35 66  1  0  0  0  0
 36 38  1  0  0  0  0
 37 39  1  0  0  0  0
 37 40  1  0  0  0  0
 38 42  1  0  0  0  0
 39 44  1  0  0  0  0
 40 67  1  0  0  0  0
 41 44  1  0  0  0  0
 41 67  1  0  0  0  0
 42 70  1  0  0  0  0
 43 66  1  0  0  0  0
 44 65  1  0  0  0  0
 45 52  1  0  0  0  0
 46 61  1  0  0  0  0
 47 62  1  0  0  0  0
 48 63  1  0  0  0  0
 49 63  1  0  0  0  0
 50 63  1  0  0  0  0
 51 74  1  0  0  0  0
 52 62  1  0  0  0  0
 53 57  1  0  0  0  0
 53 72  1  0  0  0  0
 54 58  1  0  0  0  0
 54 73  1  0  0  0  0
 55 59  1  0  0  0  0
 55 73  1  0  0  0  0
 56 62  1  0  0  0  0
 56 73  1  0  0  0  0
 57 75  1  0  0  0  0
 58 75  1  0  0  0  0
 59 82  1  0  0  0  0
 60 63  1  0  0  0  0
 60 71  1  0  0  0  0
 61 74  1  0  0  0  0
 64 65  1  0  0  0  0
M  CHG  2  74   1  75   1
M  ISO  4  32 100  59 101  72 100  82 101
M  END
> <Batch ID>
0116

> <Smiles>
CCC(C)CN(CCNCC[100NH:0][100C:0](=O)N1CCCC(n2nc(-c3ccc(Oc4ccc(F)cc4F)cc3)c(C(N)=O)c2N)C1)C[101CH2:1][101O:1]c1ccc2c(c1)CN(C(=O)C(NC(=O)C(C)NC)C(C)(C)C)C(C(=O)NC1CCCc3ccccc31)C2

> <Shape>
0.199

> <Color>
0.063

> <Negative vol penalty>
0.000

$$$$

  -OEChem-04052320133D

 86 95  0     1  0  0  0  0  0999 V2000
  -18.9810  -25.1975   19.7844 C   0  0  0  0  0  0  0  0  0  0  0  0
  -20.2890  -25.6054   19.5429 C   0  0  0  0  0  0  0  0  0  0  0  0
  -25.5429  -13.5298   20.0480 C   0  0  0  0  0  0  0  0  0  0  0  0
  -26.7487  -11.4433   19.8762 C   0  0  0  0  0  0  0  0  0  0  0  0
  -18.2760  -25.7247   20.8656 C   0  0  0  0  0  0  0  0  0  0  0  0
  -20.8923  -26.5416   20.3818 C   0  0  0  0  0  0  0  0  0  0  0  0
  -25.6230  -25.2518   21.6477 C   0  0  0  0  0  0  0  0  0  0  0  0
  -31.3333  -25.0238   20.7879 C   0  0  0  0  0  0  0  0  0  0  0  0
  -24.3344  -12.8340   20.0181 C   0  0  0  0  0  0  0  0  0  0  0  0
  -25.5401  -10.7474   19.8464 C   0  0  0  0  0  0  0  0  0  0  0  0
  -26.6190  -25.4723   20.6974 C   0  0  0  0  0  0  0  0  0  0  0  0
  -23.1992   -9.7285   22.0605 C   0  0  0  0  0  0  0  0  0  0  0  0
  -23.0897   -8.5885   22.8568 C   0  0  0  0  0  0  0  0  0  0  0  0
  -31.5817  -23.6575   20.8570 C   0  0  0  0  0  0  0  0  0  0  0  0
  -27.2579  -27.4956   21.8451 C   0  0  0  0  0  0  0  0  0  0  0  0
  -22.6703   -7.2532   20.8875 C   0  0  0  0  0  0  0  0  0  0  0  0
  -31.0954  -24.8086   18.4313 C   0  0  0  0  0  0  0  0  0  0  0  0
  -26.7501  -12.8345   19.9770 C   0  0  0  0  0  0  0  0  0  0  0  0
  -28.7548  -13.8959   21.1441 C   0  0  0  0  0  0  0  0  0  0  0  0
  -18.8744  -26.6606   21.7239 C   0  0  0  0  0  0  0  0  0  0  0  0
  -25.4295  -26.1589   22.6995 C   0  0  0  0  0  0  0  0  0  0  0  0
  -20.1943  -27.0828   21.4748 C   0  0  0  0  0  0  0  0  0  0  0  0
  -26.2604  -27.2830   22.8089 C   0  0  0  0  0  0  0  0  0  0  0  0
  -31.0846  -25.6181   19.5557 C   0  0  0  0  0  0  0  0  0  0  0  0
  -24.3330  -11.4428   19.9173 C   0  0  0  0  0  0  0  0  0  0  0  0
  -27.4347  -26.5957   20.7943 C   0  0  0  0  0  0  0  0  0  0  0  0
  -23.0442   -9.6308   20.6777 C   0  0  0  0  0  0  0  0  0  0  0  0
  -22.8253   -7.3509   22.2703 C   0  0  0  0  0  0  0  0  0  0  0  0
  -22.7798   -8.3932   20.0912 C   0  0  0  0  0  0  0  0  0  0  0  0
  -27.9988  -13.5528   20.0072 C   0  0  0  0  0  0  0  0  0  0  0  0
  -31.5701  -22.9357   19.6744 C   0  0  0  0  0  0  0  0  0  0  0  0
  -29.8441  -14.5656   20.6427 C   0  0  0  0  0  0  0  0  0  0  0  0
  -28.4957  -13.6326   22.5294 C   0  0  0  0  0  0  0  0  0  0  0  0
  -23.0378  -28.0321   23.6348 C   0  0  0  0  0  0  0  0  0  0  0  0
  -24.9848  -28.5944   26.1677 C   0  0  0  0  0  0  0  0  0  0  0  0
  -28.1549  -28.6427   27.4306 C   0  0  0  0  0  0  0  0  0  0  0  0
  -32.1970  -18.1753   17.2582 C   0  0  0  0  0  0  0  0  0  0  0  0
  -18.0565  -27.2379   22.8520 C   0  0  0  0  0  0  0  0  0  0  0  0
  -24.3682  -25.8928   23.7316 C   0  0  0  0  0  0  0  0  0  0  0  0
  -26.1069  -28.2765   23.9305 C   0  0  0  0  0  0  0  0  0  0  0  0
  -18.8958  -27.9449   23.9131 C   0  0  0  0  0  0  0  0  0  0  0  0
  -31.5172  -15.0687   15.9036 C   0  0  0  0  0  0  0  0  0  0  0  0
  -19.9171  -28.8690   23.2576 C   0  0  0  0  0  0  0  0  0  0  0  0
  -30.6026  -14.4134   16.9382 C   0  0  0  0  0  0  0  0  0  0  0  0
  -30.6277  -20.6282   19.2174 C   0  0  0  0  0  0  0  0  0  0  0  0
  -33.1048  -21.0628   18.9262 C   0  0  0  0  0  0  0  0  0  0  0  0
  -31.1621  -16.5390   15.7148 C   0  0  0  0  0  0  0  0  0  0  0  0
  -30.9151  -19.1240   19.2273 C   0  0  0  0  0  0  0  0  0  0  0  0
  -33.3360  -19.5551   18.9693 C   0  0  0  0  0  0  0  0  0  0  0  0
  -30.2876  -16.6924   18.0234 C   0  0  0  0  0  0  0  0  0  0  0  0
  -20.8916  -28.0778   22.3768 C   0  0  1  0  0  0  0  0  0  0  0  0
  -31.8366  -21.4427   19.7119 C   0  0  0  0  0  0  0  0  0  0  0  0
  -23.9238  -27.1516   24.4700 C   0  0  1  0  0  0  0  0  0  0  0  0
  -30.6079  -15.2024   18.2596 C   0  0  1  0  0  0  0  0  0  0  0  0
  -29.4347  -29.1824   29.5207 C   0  0  0  0  0  0  0  0  0  0  0  0
  -30.5523  -27.6082   17.9952 C   0  0  0  0  0  0  0  0  0  0  0  0
  -32.0346  -27.9089   19.9676 C   0  0  0  0  0  0  0  0  0  0  0  0
  -24.6726  -31.5735   25.5867 C   0  0  0  0  0  0  0  0  0  0  0  0
  -26.6635  -31.9954   27.0450 C   0  0  0  0  0  0  0  0  0  0  0  0
  -24.6052  -30.9711   28.0131 C   0  0  0  0  0  0  0  0  0  0  0  0
  -29.1569  -25.8685   27.6722 C   0  0  0  0  0  0  0  0  0  0  0  0
  -29.5733  -27.5128   20.3030 C   0  0  0  0  0  0  0  0  0  1  0  0
  -26.0709  -29.5953   26.4798 C   0  0  1  0  0  0  0  0  0  0  0  0
  -28.7328  -28.0944   28.7229 C   0  0  2  0  0  0  0  0  0  0  0  0
  -30.8159  -27.0771   19.4485 C   0  0  0  0  0  0  0  0  0  0  0  0
  -25.5049  -31.0163   26.7588 C   0  0  0  0  0  0  0  0  0  0  0  0
  -31.3326  -23.4780   18.4589 N   0  0  0  0  0  0  0  0  0  0  0  0
  -28.5601  -13.9702   18.8694 N   0  0  0  0  0  0  0  0  0  0  0  0
  -29.6805  -14.5826   19.2888 N   0  0  0  0  0  0  0  0  0  0  0  0
  -25.0509  -27.9757   24.9113 N   0  0  0  0  0  0  0  0  0  0  0  0
  -31.1744  -17.2524   16.9918 N   0  0  0  0  0  0  0  0  0  0  0  0
  -32.1569  -18.8280   18.4995 N   0  0  0  0  0  0  0  0  0  0  0  0
  -30.9163  -15.1358   21.2323 N   0  0  0  0  0  0  0  0  0  0  0  0
  -27.3304  -12.9321   22.8698 N   0  0  0  0  0  0  0  0  0  0  0  0
  -21.8844  -27.4125   23.1930 N   0  0  0  0  0  0  0  0  0  0  0  0
  -26.8408  -29.0315   27.5833 N   0  0  0  0  0  0  0  0  0  0  0  0
  -29.7181  -27.0147   28.4326 N   0  3  0  0  0  0  0  0  0  0  0  0
  -29.2661  -14.0218   23.4397 O   0  0  0  0  0  0  0  0  0  0  0  0
  -23.3750  -29.1884   23.4092 O   0  0  0  0  0  0  0  0  0  0  0  0
  -24.1139  -28.3645   27.0106 O   0  0  0  0  0  0  0  0  0  0  0  0
  -28.8053  -28.7219   26.3908 O   0  0  0  0  0  0  0  0  0  0  0  0
  -33.0937  -18.4028   16.4364 O   0  0  0  0  0  0  0  0  0  0  0  0
  -23.1540  -10.7634   19.8884 O   0  0  0  0  0  0  0  0  0  0  0  0
  -28.4135  -26.8150   19.8617 O   0  0  0  0  0  0  0  0  0  1  0  0
  -22.7217   -6.2560   23.0349 F   0  0  0  0  0  0  0  0  0  0  0  0
  -22.6311   -8.2930   18.7632 F   0  0  0  0  0  0  0  0  0  0  0  0
  1  2  1  0  0  0  0
  1  5  2  0  0  0  0
  2  6  2  0  0  0  0
  3  9  2  0  0  0  0
  3 18  1  0  0  0  0
  4 10  1  0  0  0  0
  4 18  2  0  0  0  0
  5 20  1  0  0  0  0
  6 22  1  0  0  0  0
  7 11  2  0  0  0  0
  7 21  1  0  0  0  0
  8 14  2  0  0  0  0
  8 24  1  0  0  0  0
  9 25  1  0  0  0  0
 10 25  2  0  0  0  0
 11 26  1  0  0  0  0
 12 13  2  0  0  0  0
 12 27  1  0  0  0  0
 13 28  1  0  0  0  0
 14 31  1  0  0  0  0
 15 23  1  0  0  0  0
 15 26  2  0  0  0  0
 16 28  2  0  0  0  0
 16 29  1  0  0  0  0
 17 24  2  0  0  0  0
 17 67  1  0  0  0  0
 18 30  1  0  0  0  0
 19 30  1  0  0  0  0
 19 32  2  0  0  0  0
 19 33  1  0  0  0  0
 20 22  2  0  0  0  0
 20 38  1  0  0  0  0
 21 23  2  0  0  0  0
 21 39  1  0  0  0  0
 22 51  1  0  0  0  0
 23 40  1  0  0  0  0
 24 65  1  0  0  0  0
 25 83  1  0  0  0  0
 26 84  1  0  0  0  0
 27 29  2  0  0  0  0
 27 83  1  0  0  0  0
 28 85  1  0  0  0  0
 29 86  1  0  0  0  0
 30 68  2  0  0  0  0
 31 52  1  0  0  0  0
 31 67  2  0  0  0  0
 32 69  1  0  0  0  0
 32 73  1  0  0  0  0
 33 74  1  0  0  0  0
 33 78  2  0  0  0  0
 34 53  1  0  0  0  0
 34 75  1  0  0  0  0
 34 79  2  0  0  0  0
 35 63  1  0  0  0  0
 35 70  1  0  0  0  0
 35 80  2  0  0  0  0
 36 64  1  0  0  0  0
 36 76  1  0  0  0  0
 36 81  2  0  0  0  0
 37 71  1  0  0  0  0
 37 72  1  0  0  0  0
 37 82  2  0  0  0  0
 38 41  1  0  0  0  0
 39 53  1  0  0  0  0
 40 70  1  0  0  0  0
 41 43  1  0  0  0  0
 42 44  1  0  0  0  0
 42 47  1  0  0  0  0
 43 51  1  0  0  0  0
 44 54  1  0  0  0  0
 45 48  1  0  0  0  0
 45 52  1  0  0  0  0
 46 49  1  0  0  0  0
 46 52  1  0  0  0  0
 47 71  1  0  0  0  0
 48 72  1  0  0  0  0
 49 72  1  0  0  0  0
 50 54  1  0  0  0  0
 50 71  1  0  0  0  0
 51 75  1  0  0  0  0
 53 70  1  0  0  0  0
 54 69  1  0  0  0  0
 55 64  1  0  0  0  0
 56 65  1  0  0  0  0
 57 65  1  0  0  0  0
 58 66  1  0  0  0  0
 59 66  1  0  0  0  0
 60 66  1  0  0  0  0
 61 77  1  0  0  0  0
 62 65  1  0  0  0  0
 62 84  1  0  0  0  0
 63 66  1  0  0  0  0
 63 76  1  0  0  0  0
 64 77  1  0  0  0  0
 68 69  1  0  0  0  0
M  CHG  1  77   1
M  ISO  4  37 100  62 101  72 100  84 101
M  END
> <Batch ID>
0116

> <Smiles>
CNC(C)C(=O)NC(C(=O)N1Cc2cc([101O:1][101CH2:1]C(C)(C)c3ccc(C4CC[100N:0]([100C:0](=O)N5CCCC(n6nc(-c7ccc(Oc8ccc(F)cc8F)cc7)c(C(N)=O)c6N)C5)CC4)nc3)ccc2CC1C(=O)NC1CCCc2ccccc21)C(C)(C)C

> <Shape>
0.246

> <Color>
0.078

> <Negative vol penalty>
0.000

$$$$

  -OEChem-04052320133D

 85 93  0     1  0  0  0  0  0999 V2000
  -35.6582  -23.7493   21.9637 C   0  0  0  0  0  0  0  0  0  0  0  0
  -34.5769  -23.1148   21.3605 C   0  0  0  0  0  0  0  0  0  0  0  0
  -22.9090  -10.1744   19.7636 C   0  0  0  0  0  0  0  0  0  0  0  0
  -23.8518   -9.6936   21.9354 C   0  0  0  0  0  0  0  0  0  0  0  0
  -35.4481  -24.8687   22.7678 C   0  0  0  0  0  0  0  0  0  0  0  0
  -33.2848  -23.5988   21.5621 C   0  0  0  0  0  0  0  0  0  0  0  0
  -30.5989  -23.8112   17.2743 C   0  0  0  0  0  0  0  0  0  0  0  0
  -22.1207   -9.0270   19.8518 C   0  0  0  0  0  0  0  0  0  0  0  0
  -23.0635   -8.5463   22.0237 C   0  0  0  0  0  0  0  0  0  0  0  0
  -30.0681  -22.6142   16.7955 C   0  0  0  0  0  0  0  0  0  0  0  0
  -19.8533   -7.7818   22.7523 C   0  0  0  0  0  0  0  0  0  0  0  0
  -19.1930   -7.5421   23.9573 C   0  0  0  0  0  0  0  0  0  0  0  0
  -27.9232  -23.1975   17.7328 C   0  0  0  0  0  0  0  0  0  0  0  0
  -29.6801  -17.6798   19.4310 C   0  0  0  0  0  0  0  0  0  0  0  0
  -20.3729   -5.4463   24.1870 C   0  0  0  0  0  0  0  0  0  0  0  0
  -28.8003  -19.5982   20.2156 C   0  0  0  0  0  0  0  0  0  0  0  0
  -23.7746  -10.5077   20.8054 C   0  0  0  0  0  0  0  0  0  0  0  0
  -24.2550  -12.9896   21.1472 C   0  0  0  0  0  0  0  0  0  0  0  0
  -34.1538  -25.3725   22.9716 C   0  0  0  0  0  0  0  0  0  0  0  0
  -29.7973  -24.7068   17.9965 C   0  0  0  0  0  0  0  0  0  0  0  0
  -33.0571  -24.7252   22.3708 C   0  0  0  0  0  0  0  0  0  0  0  0
  -28.4456  -24.4063   18.2175 C   0  0  0  0  0  0  0  0  0  0  0  0
  -28.6805  -18.6601   19.2142 C   0  0  0  0  0  0  0  0  0  0  0  0
  -22.1979   -8.2130   20.9818 C   0  0  0  0  0  0  0  0  0  0  0  0
  -28.7308  -22.3058   17.0273 C   0  0  0  0  0  0  0  0  0  0  0  0
  -20.7734   -6.8537   22.2645 C   0  0  0  0  0  0  0  0  0  0  0  0
  -19.4528   -6.3744   24.6747 C   0  0  0  0  0  0  0  0  0  0  0  0
  -21.0331   -5.6860   22.9819 C   0  0  0  0  0  0  0  0  0  0  0  0
  -24.5896  -11.6924   20.7146 C   0  0  0  0  0  0  0  0  0  0  0  0
  -30.3802  -18.0488   20.5585 C   0  0  0  0  0  0  0  0  0  0  0  0
  -25.3566  -13.7495   20.8381 C   0  0  0  0  0  0  0  0  0  0  0  0
  -23.0556  -13.4651   21.7727 C   0  0  0  0  0  0  0  0  0  0  0  0
  -29.8530  -25.8900   20.9462 C   0  0  0  0  0  0  0  0  0  0  0  0
  -27.4001  -27.7053   19.8460 C   0  0  0  0  0  0  0  0  0  0  0  0
  -24.8573  -28.0865   17.6019 C   0  0  0  0  0  0  0  0  0  0  0  0
  -30.8883  -14.4782   20.7188 C   0  0  0  0  0  0  0  0  0  0  0  0
  -33.9716  -26.5569   23.8873 C   0  0  0  0  0  0  0  0  0  0  0  0
  -30.3781  -26.0061   18.4832 C   0  0  0  0  0  0  0  0  0  0  0  0
  -27.5376  -25.3434   18.9697 C   0  0  0  0  0  0  0  0  0  0  0  0
  -32.6091  -27.2309   23.7476 C   0  0  0  0  0  0  0  0  0  0  0  0
  -29.4208  -12.6655   18.0286 C   0  0  0  0  0  0  0  0  0  0  0  0
  -31.4960  -26.1879   23.7380 C   0  0  0  0  0  0  0  0  0  0  0  0
  -28.0084  -12.3526   18.5258 C   0  0  0  0  0  0  0  0  0  0  0  0
  -30.4440  -12.6044   19.1606 C   0  0  0  0  0  0  0  0  0  0  0  0
  -28.7081  -13.1252   20.8306 C   0  0  0  0  0  0  0  0  0  0  0  0
  -31.6431  -25.2352   22.5455 C   0  0  1  0  0  0  0  0  0  0  0  0
  -29.6016  -26.6078   19.6504 C   0  0  1  0  0  0  0  0  0  0  0  0
  -27.6328  -13.2293   19.7356 C   0  0  2  0  0  0  0  0  0  0  0  0
  -26.7349  -17.4590   18.1835 C   0  0  0  0  0  0  0  0  0  0  0  0
  -23.0015  -29.6551   16.9755 C   0  0  0  0  0  0  0  0  0  0  0  0
  -25.7693  -26.7245   22.2311 C   0  0  0  0  0  0  0  0  0  0  0  0
  -23.7065  -27.5299   21.0630 C   0  0  0  0  0  0  0  0  0  0  0  0
  -25.4891  -29.1530   21.7036 C   0  0  0  0  0  0  0  0  0  0  0  0
  -30.3851  -16.9763   23.4844 C   0  0  0  0  0  0  0  0  0  0  0  0
  -32.4858  -15.7552   22.9121 C   0  0  0  0  0  0  0  0  0  0  0  0
  -30.2760  -19.9468   22.1956 C   0  0  0  0  0  0  0  0  0  0  0  0
  -25.9889  -28.5326   14.9039 C   0  0  0  0  0  0  0  0  0  0  0  0
  -31.5199  -17.3862   21.2258 C   0  0  0  0  0  0  0  0  0  0  0  0
  -28.3117  -18.7431   16.6894 C   0  0  0  0  0  0  0  0  0  0  0  0
  -29.1004  -20.0278   16.4530 C   0  0  0  0  0  0  0  0  0  1  0  0
  -27.6638  -18.6752   18.0858 C   0  0  2  0  0  0  0  0  0  0  0  0
  -25.8992  -27.5532   19.7893 C   0  0  1  0  0  0  0  0  0  0  0  0
  -24.4499  -29.2614   16.7313 C   0  0  2  0  0  0  0  0  0  0  0  0
  -25.2334  -27.7214   21.1842 C   0  0  0  0  0  0  0  0  0  0  0  0
  -31.1821  -16.3355   22.3384 C   0  0  0  0  0  0  0  0  0  0  0  0
  -25.8083  -11.6282   20.1719 N   0  0  0  0  0  0  0  0  0  0  0  0
  -29.8365  -19.2162   21.0271 N   0  0  0  0  0  0  0  0  0  0  0  0
  -26.2491  -12.8946   20.2613 N   0  0  0  0  0  0  0  0  0  0  0  0
  -28.1539  -26.5984   19.4309 N   0  0  0  0  0  0  0  0  0  0  0  0
  -30.0294  -13.4588   20.2759 N   0  0  0  0  0  0  0  0  0  0  0  0
  -25.6391  -15.0588   21.0061 N   0  0  0  0  0  0  0  0  0  0  0  0
  -22.0222  -12.5507   22.0180 N   0  0  0  0  0  0  0  0  0  0  0  0
  -31.1802  -25.8709   21.3305 N   0  0  0  0  0  0  0  0  0  0  0  0
  -25.4305  -28.5021   18.7851 N   0  0  0  0  0  0  0  0  0  0  0  0
  -30.4158  -15.2458   21.7763 N   0  0  0  0  0  0  0  0  0  0  0  0
  -24.6067  -28.9168   15.2898 N   0  3  0  0  0  0  0  0  0  0  0  0
  -22.8984  -14.6687   22.0892 O   0  0  0  0  0  0  0  0  0  0  0  0
  -28.9123  -25.3918   21.5533 O   0  0  0  0  0  0  0  0  0  0  0  0
  -27.8857  -28.7696   20.2373 O   0  0  0  0  0  0  0  0  0  0  0  0
  -24.6812  -26.9170   17.2676 O   0  0  0  0  0  0  0  0  0  0  0  0
  -31.9920  -14.6921   20.2060 O   0  0  0  0  0  0  0  0  0  0  0  0
  -21.4287   -7.0935   21.0684 O   0  0  0  0  0  0  0  0  0  0  0  0
  -28.2103  -21.1379   16.5616 O   0  0  0  0  0  0  0  0  0  1  0  0
  -18.8198   -6.1451   25.8327 F   0  0  0  0  0  0  0  0  0  0  0  0
  -21.9168   -4.7913   22.5189 F   0  0  0  0  0  0  0  0  0  0  0  0
  1  2  1  0  0  0  0
  1  5  2  0  0  0  0
  2  6  2  0  0  0  0
  3  8  2  0  0  0  0
  3 17  1  0  0  0  0
  4  9  1  0  0  0  0
  4 17  2  0  0  0  0
  5 19  1  0  0  0  0
  6 21  1  0  0  0  0
  7 10  2  0  0  0  0
  7 20  1  0  0  0  0
  8 24  1  0  0  0  0
  9 24  2  0  0  0  0
 10 25  1  0  0  0  0
 11 12  2  0  0  0  0
 11 26  1  0  0  0  0
 12 27  1  0  0  0  0
 13 22  1  0  0  0  0
 13 25  2  0  0  0  0
 14 23  1  0  0  0  0
 14 30  2  0  0  0  0
 15 27  2  0  0  0  0
 15 28  1  0  0  0  0
 16 23  2  0  0  0  0
 16 67  1  0  0  0  0
 17 29  1  0  0  0  0
 18 29  1  0  0  0  0
 18 31  2  0  0  0  0
 18 32  1  0  0  0  0
 19 21  2  0  0  0  0
 19 37  1  0  0  0  0
 20 22  2  0  0  0  0
 20 38  1  0  0  0  0
 21 46  1  0  0  0  0
 22 39  1  0  0  0  0
 23 61  1  0  0  0  0
 24 82  1  0  0  0  0
 25 83  1  0  0  0  0
 26 28  2  0  0  0  0
 26 82  1  0  0  0  0
 27 84  1  0  0  0  0
 28 85  1  0  0  0  0
 29 66  2  0  0  0  0
 30 58  1  0  0  0  0
 30 67  1  0  0  0  0
 31 68  1  0  0  0  0
 31 71  1  0  0  0  0
 32 72  1  0  0  0  0
 32 77  2  0  0  0  0
 33 47  1  0  0  0  0
 33 73  1  0  0  0  0
 33 78  2  0  0  0  0
 34 62  1  0  0  0  0
 34 69  1  0  0  0  0
 34 79  2  0  0  0  0
 35 63  1  0  0  0  0
 35 74  1  0  0  0  0
 35 80  2  0  0  0  0
 36 70  1  0  0  0  0
 36 75  1  0  0  0  0
 36 81  2  0  0  0  0
 37 40  1  0  0  0  0
 38 47  1  0  0  0  0
 39 69  1  0  0  0  0
 40 42  1  0  0  0  0
 41 43  1  0  0  0  0
 41 44  1  0  0  0  0
 42 46  1  0  0  0  0
 43 48  1  0  0  0  0
 44 70  1  0  0  0  0
 45 48  1  0  0  0  0
 45 70  1  0  0  0  0
 46 73  1  0  0  0  0
 47 69  1  0  0  0  0
 48 68  1  0  0  0  0
 49 61  1  0  0  0  0
 50 63  1  0  0  0  0
 51 64  1  0  0  0  0
 52 64  1  0  0  0  0
 53 64  1  0  0  0  0
 54 65  1  0  0  0  0
 55 65  1  0  0  0  0
 56 67  1  0  0  0  0
 57 76  1  0  0  0  0
 58 65  1  0  0  0  0
 59 60  1  0  0  0  0
 59 61  1  0  0  0  0
 60 83  1  0  0  0  0
 62 64  1  0  0  0  0
 62 74  1  0  0  0  0
 63 76  1  0  0  0  0
 65 75  1  0  0  0  0
 66 68  1  0  0  0  0
M  CHG  1  76   1
M  ISO  4  36 100  60 101  75 100  83 101
M  END
> <Batch ID>
0116

> <Smiles>
CNC(C)C(=O)NC(C(=O)N1Cc2cc([101O:1][101CH2:1]CC(C)c3cc(CC(C)(C)[100NH:0][100C:0](=O)N4CCCC(n5nc(-c6ccc(Oc7ccc(F)cc7F)cc6)c(C(N)=O)c5N)C4)n(C)c3)ccc2CC1C(=O)NC1CCCc2ccccc21)C(C)(C)C

> <Shape>
0.309

> <Color>
0.161

> <Negative vol penalty>
0.000

$$$$

  -OEChem-04052320133D

 87 95  0     1  0  0  0  0  0999 V2000
  -15.6204  -26.5717   22.4969 C   0  0  0  0  0  0  0  0  0  0  0  0
  -16.8662  -25.9946   22.2728 C   0  0  0  0  0  0  0  0  0  0  0  0
  -22.9602   -9.9756   20.3221 C   0  0  0  0  0  0  0  0  0  0  0  0
  -23.7263  -10.2263   22.5997 C   0  0  0  0  0  0  0  0  0  0  0  0
  -15.5346  -27.8796   22.9721 C   0  0  0  0  0  0  0  0  0  0  0  0
  -18.0271  -26.7255   22.5227 C   0  0  0  0  0  0  0  0  0  0  0  0
  -21.5237  -24.0303   25.0035 C   0  0  0  0  0  0  0  0  0  0  0  0
  -22.1612   -8.8998   20.7093 C   0  0  0  0  0  0  0  0  0  0  0  0
  -22.9274   -9.1505   22.9869 C   0  0  0  0  0  0  0  0  0  0  0  0
  -22.2683  -23.1157   24.2600 C   0  0  0  0  0  0  0  0  0  0  0  0
  -19.6657   -8.5923   23.6728 C   0  0  0  0  0  0  0  0  0  0  0  0
  -18.9112   -8.7335   24.8374 C   0  0  0  0  0  0  0  0  0  0  0  0
  -24.0909  -24.6927   24.1566 C   0  0  0  0  0  0  0  0  0  0  0  0
  -30.0235  -17.7629   22.1404 C   0  0  0  0  0  0  0  0  0  0  0  0
  -20.0580   -6.8423   25.8096 C   0  0  0  0  0  0  0  0  0  0  0  0
  -23.7428  -10.6389   21.2673 C   0  0  0  0  0  0  0  0  0  0  0  0
  -24.2080  -13.1103   20.8396 C   0  0  0  0  0  0  0  0  0  0  0  0
  -16.6951  -28.6237   23.2371 C   0  0  0  0  0  0  0  0  0  0  0  0
  -22.0538  -25.2893   25.3203 C   0  0  0  0  0  0  0  0  0  0  0  0
  -17.9568  -28.0451   23.0006 C   0  0  0  0  0  0  0  0  0  0  0  0
  -23.3519  -25.6205   24.9064 C   0  0  0  0  0  0  0  0  0  0  0  0
  -31.8410  -19.3295   21.9768 C   0  0  0  0  0  0  0  0  0  0  0  0
  -22.1448   -8.4873   22.0416 C   0  0  0  0  0  0  0  0  0  0  0  0
  -23.5510  -23.4479   23.8339 C   0  0  0  0  0  0  0  0  0  0  0  0
  -20.6163   -7.5761   23.5765 C   0  0  0  0  0  0  0  0  0  0  0  0
  -30.5599  -19.0156   22.4166 C   0  0  0  0  0  0  0  0  0  0  0  0
  -19.1074   -7.8585   25.9058 C   0  0  0  0  0  0  0  0  0  0  0  0
  -20.8125   -6.7011   24.6449 C   0  0  0  0  0  0  0  0  0  0  0  0
  -24.5687  -11.7499   20.8679 C   0  0  0  0  0  0  0  0  0  0  0  0
  -32.5390  -18.3634   21.2702 C   0  0  0  0  0  0  0  0  0  0  0  0
  -30.8028  -16.8670   21.4263 C   0  0  0  0  0  0  0  0  0  0  0  0
  -25.3346  -13.7550   20.3906 C   0  0  0  0  0  0  0  0  0  0  0  0
  -22.9657  -13.7355   21.1883 C   0  0  0  0  0  0  0  0  0  0  0  0
  -21.2477  -28.2928   24.6622 C   0  0  0  0  0  0  0  0  0  0  0  0
  -23.6708  -28.9801   26.7064 C   0  0  0  0  0  0  0  0  0  0  0  0
  -26.5766  -27.9850   28.1940 C   0  0  0  0  0  0  0  0  0  0  0  0
  -30.8461  -14.5440   20.4525 C   0  0  0  0  0  0  0  0  0  0  0  0
  -16.5517  -30.0503   23.7050 C   0  0  0  0  0  0  0  0  0  0  0  0
  -21.2480  -26.2545   26.1459 C   0  0  0  0  0  0  0  0  0  0  0  0
  -23.9746  -26.9513   25.2376 C   0  0  0  0  0  0  0  0  0  0  0  0
  -17.8332  -30.6277   24.3005 C   0  0  0  0  0  0  0  0  0  0  0  0
  -29.6073  -11.9158   18.3946 C   0  0  0  0  0  0  0  0  0  0  0  0
  -19.0275  -30.3112   23.4059 C   0  0  0  0  0  0  0  0  0  0  0  0
  -28.1563  -11.7503   18.8523 C   0  0  0  0  0  0  0  0  0  0  0  0
  -30.5361  -12.2449   19.5619 C   0  0  0  0  0  0  0  0  0  0  0  0
  -28.6712  -13.2262   20.8381 C   0  0  0  0  0  0  0  0  0  0  0  0
  -19.2391  -28.7974   23.2833 C   0  0  1  0  0  0  0  0  0  0  0  0
  -21.6906  -27.7040   25.9718 C   0  0  1  0  0  0  0  0  0  0  0  0
  -27.6875  -12.9579   19.6875 C   0  0  2  0  0  0  0  0  0  0  0  0
  -34.3936  -17.6019   19.7644 C   0  0  0  0  0  0  0  0  0  0  0  0
  -32.5998  -20.9316   23.7687 C   0  0  0  0  0  0  0  0  0  0  0  0
  -31.6426  -21.8156   21.6106 C   0  0  0  0  0  0  0  0  0  0  0  0
  -28.3455  -28.7773   29.7880 C   0  0  0  0  0  0  0  0  0  0  0  0
  -24.8532  -30.7428   24.5144 C   0  0  0  0  0  0  0  0  0  0  0  0
  -27.0192  -30.7312   25.7699 C   0  0  0  0  0  0  0  0  0  0  0  0
  -24.9788  -31.7142   26.8154 C   0  0  0  0  0  0  0  0  0  0  0  0
  -26.0026  -25.7958   30.1011 C   0  0  0  0  0  0  0  0  0  0  0  0
  -33.9202  -18.6430   20.7739 C   0  0  0  0  0  0  0  0  0  0  0  0
  -26.2948  -21.2304   23.0093 C   0  0  0  0  0  0  0  0  0  0  0  0
  -27.8110  -21.2369   23.1695 C   0  0  0  0  0  0  0  0  0  0  0  0
  -25.6988  -22.6114   23.2480 C   0  0  0  0  0  0  0  0  0  1  0  0
  -28.4030  -19.8484   22.9733 C   0  0  0  0  0  0  0  0  0  0  0  0
  -32.4374  -20.6668   22.2599 C   0  0  0  0  0  0  0  0  0  0  0  0
  -25.1570  -29.2047   26.5656 C   0  0  1  0  0  0  0  0  0  0  0  0
  -27.0321  -28.0246   29.6415 C   0  0  2  0  0  0  0  0  0  0  0  0
  -25.4899  -30.5738   25.9083 C   0  0  0  0  0  0  0  0  0  0  0  0
  -25.8261  -11.5414   20.4684 N   0  0  0  0  0  0  0  0  0  0  0  0
  -32.0512  -17.1358   20.9826 N   0  0  0  0  0  0  0  0  0  0  0  0
  -26.2653  -12.7794   20.1848 N   0  0  0  0  0  0  0  0  0  0  0  0
  -23.1445  -27.8634   26.0417 N   0  0  0  0  0  0  0  0  0  0  0  0
  -30.0311  -13.4018   20.3046 N   0  0  0  0  0  0  0  0  0  0  0  0
  -25.6101  -15.0555   20.1555 N   0  0  0  0  0  0  0  0  0  0  0  0
  -21.9113  -12.9254   21.6314 N   0  0  0  0  0  0  0  0  0  0  0  0
  -30.2475  -15.5931   21.1493 N   0  0  0  0  0  0  0  0  0  0  0  0
  -19.8790  -28.2785   24.4731 N   0  0  0  0  0  0  0  0  0  0  0  0
  -25.7245  -29.0278   27.8980 N   0  0  0  0  0  0  0  0  0  0  0  0
  -27.2225  -26.6415   30.1627 N   0  3  0  0  0  0  0  0  0  0  0  0
  -22.7905  -14.9740   21.0936 O   0  0  0  0  0  0  0  0  0  0  0  0
  -22.0857  -28.7291   23.8818 O   0  0  0  0  0  0  0  0  0  0  0  0
  -23.0028  -29.7625   27.3870 O   0  0  0  0  0  0  0  0  0  0  0  0
  -26.9432  -27.1179   27.4039 O   0  0  0  0  0  0  0  0  0  0  0  0
  -31.9808  -14.5984   19.9712 O   0  0  0  0  0  0  0  0  0  0  0  0
  -21.3651   -7.4377   22.4199 O   0  0  0  0  0  0  0  0  0  0  0  0
  -24.2797  -22.5573   23.1076 O   0  0  0  0  0  0  0  0  0  1  0  0
  -29.8142  -19.9254   23.1203 O   0  0  0  0  0  0  0  0  0  0  0  0
  -18.3839   -7.9952   27.0248 F   0  0  0  0  0  0  0  0  0  0  0  0
  -21.7251   -5.7236   24.5588 F   0  0  0  0  0  0  0  0  0  0  0  0
  1  2  1  0  0  0  0
  1  5  2  0  0  0  0
  2  6  2  0  0  0  0
  3  8  2  0  0  0  0
  3 16  1  0  0  0  0
  4  9  1  0  0  0  0
  4 16  2  0  0  0  0
  5 18  1  0  0  0  0
  6 20  1  0  0  0  0
  7 10  2  0  0  0  0
  7 19  1  0  0  0  0
  8 23  1  0  0  0  0
  9 23  2  0  0  0  0
 10 24  1  0  0  0  0
 11 12  2  0  0  0  0
 11 25  1  0  0  0  0
 12 27  1  0  0  0  0
 13 21  1  0  0  0  0
 13 24  2  0  0  0  0
 14 26  2  0  0  0  0
 14 31  1  0  0  0  0
 15 27  2  0  0  0  0
 15 28  1  0  0  0  0
 16 29  1  0  0  0  0
 17 29  1  0  0  0  0
 17 32  2  0  0  0  0
 17 33  1  0  0  0  0
 18 20  2  0  0  0  0
 18 38  1  0  0  0  0
 19 21  2  0  0  0  0
 19 39  1  0  0  0  0
 20 47  1  0  0  0  0
 21 40  1  0  0  0  0
 22 26  1  0  0  0  0
 22 30  2  0  0  0  0
 22 63  1  0  0  0  0
 23 83  1  0  0  0  0
 24 84  1  0  0  0  0
 25 28  2  0  0  0  0
 25 83  1  0  0  0  0
 26 85  1  0  0  0  0
 27 86  1  0  0  0  0
 28 87  1  0  0  0  0
 29 67  2  0  0  0  0
 30 58  1  0  0  0  0
 30 68  1  0  0  0  0
 31 68  2  0  0  0  0
 31 74  1  0  0  0  0
 32 69  1  0  0  0  0
 32 72  1  0  0  0  0
 33 73  1  0  0  0  0
 33 78  2  0  0  0  0
 34 48  1  0  0  0  0
 34 75  1  0  0  0  0
 34 79  2  0  0  0  0
 35 64  1  0  0  0  0
 35 70  1  0  0  0  0
 35 80  2  0  0  0  0
 36 65  1  0  0  0  0
 36 76  1  0  0  0  0
 36 81  2  0  0  0  0
 37 71  1  0  0  0  0
 37 74  1  0  0  0  0
 37 82  2  0  0  0  0
 38 41  1  0  0  0  0
 39 48  1  0  0  0  0
 40 70  1  0  0  0  0
 41 43  1  0  0  0  0
 42 44  1  0  0  0  0
 42 45  1  0  0  0  0
 43 47  1  0  0  0  0
 44 49  1  0  0  0  0
 45 71  1  0  0  0  0
 46 49  1  0  0  0  0
 46 71  1  0  0  0  0
 47 75  1  0  0  0  0
 48 70  1  0  0  0  0
 49 69  1  0  0  0  0
 50 58  1  0  0  0  0
 51 63  1  0  0  0  0
 52 63  1  0  0  0  0
 53 65  1  0  0  0  0
 54 66  1  0  0  0  0
 55 66  1  0  0  0  0
 56 66  1  0  0  0  0
 57 77  1  0  0  0  0
 59 60  1  0  0  0  0
 59 61  1  0  0  0  0
 60 62  1  0  0  0  0
 61 84  1  0  0  0  0
 62 85  1  0  0  0  0
 64 66  1  0  0  0  0
 64 76  1  0  0  0  0
 65 77  1  0  0  0  0
 67 69  1  0  0  0  0
M  CHG  1  77   1
M  ISO  4  37 100  61 101  74 100  84 101
M  END
> <Batch ID>
0116

> <Smiles>
CCc1nc([100NH:0][100C:0](=O)N2CCCC(n3nc(-c4ccc(Oc5ccc(F)cc5F)cc4)c(C(N)=O)c3N)C2)cc(OCCC[101CH2:1][101O:1]c2ccc3c(c2)CN(C(=O)C(NC(=O)C(C)NC)C(C)(C)C)C(C(=O)NC2CCCc4ccccc42)C3)c1C(C)C

> <Shape>
0.260

> <Color>
0.193

> <Negative vol penalty>
0.000

$$$$

  -OEChem-04052320133D

 80 88  0     1  0  0  0  0  0999 V2000
  -18.1237  -26.4054   19.7426 C   0  0  0  0  0  0  0  0  0  0  0  0
  -19.2449  -27.0312   19.2073 C   0  0  0  0  0  0  0  0  0  0  0  0
  -25.6131  -16.2121   21.7008 C   0  0  0  0  0  0  0  0  0  0  0  0
  -24.8035  -17.2172   19.6584 C   0  0  0  0  0  0  0  0  0  0  0  0
  -17.8283  -26.5469   21.0979 C   0  0  0  0  0  0  0  0  0  0  0  0
  -20.0709  -27.7997   20.0268 C   0  0  0  0  0  0  0  0  0  0  0  0
  -24.9880  -26.8765   19.2423 C   0  0  0  0  0  0  0  0  0  0  0  0
  -24.5296  -15.3337   21.6980 C   0  0  0  0  0  0  0  0  0  0  0  0
  -23.7200  -16.3388   19.6556 C   0  0  0  0  0  0  0  0  0  0  0  0
  -25.5737  -27.4580   18.1188 C   0  0  0  0  0  0  0  0  0  0  0  0
  -23.6401  -12.4805   20.1165 C   0  0  0  0  0  0  0  0  0  0  0  0
  -23.8951  -11.1357   20.3848 C   0  0  0  0  0  0  0  0  0  0  0  0
  -29.4062  -25.5981   16.7844 C   0  0  0  0  0  0  0  0  0  0  0  0
  -26.5015  -29.1968   19.5099 C   0  0  0  0  0  0  0  0  0  0  0  0
  -22.4273  -11.2397   22.3010 C   0  0  0  0  0  0  0  0  0  0  0  0
  -28.9997  -26.7443   16.1377 C   0  0  0  0  0  0  0  0  0  0  0  0
  -30.1341  -27.3730   17.9631 C   0  0  0  0  0  0  0  0  0  0  0  0
  -25.7501  -17.1539   20.6810 C   0  0  0  0  0  0  0  0  0  0  0  0
  -28.1275  -17.8618   20.0859 C   0  0  0  0  0  0  0  0  0  0  0  0
  -18.6564  -27.3096   21.9363 C   0  0  0  0  0  0  0  0  0  0  0  0
  -25.1458  -27.4577   20.5087 C   0  0  0  0  0  0  0  0  0  0  0  0
  -19.7856  -27.9526   21.3942 C   0  0  0  0  0  0  0  0  0  0  0  0
  -25.9189  -28.6192   20.6483 C   0  0  0  0  0  0  0  0  0  0  0  0
  -30.1240  -25.9958   17.9392 C   0  0  0  0  0  0  0  0  0  0  0  0
  -23.5831  -15.3970   20.6754 C   0  0  0  0  0  0  0  0  0  0  0  0
  -26.3282  -28.6200   18.2520 C   0  0  0  0  0  0  0  0  0  0  0  0
  -22.7787  -13.2050   20.9404 C   0  0  0  0  0  0  0  0  0  0  0  0
  -23.2887  -10.5153   21.4771 C   0  0  0  0  0  0  0  0  0  0  0  0
  -22.1722  -12.5845   22.0327 C   0  0  0  0  0  0  0  0  0  0  0  0
  -26.8688  -18.0620   20.6836 C   0  0  0  0  0  0  0  0  0  0  0  0
  -28.8290  -19.0078   20.3708 C   0  0  0  0  0  0  0  0  0  0  0  0
  -28.6187  -16.7403   19.3398 C   0  0  0  0  0  0  0  0  0  0  0  0
  -23.1723  -28.7019   22.6676 C   0  0  0  0  0  0  0  0  0  0  0  0
  -25.8678  -28.8674   24.4646 C   0  0  0  0  0  0  0  0  0  0  0  0
  -29.3904  -29.4950   24.9278 C   0  0  0  0  0  0  0  0  0  0  0  0
  -29.1256  -24.5688   20.7348 C   0  0  0  0  0  0  0  0  0  0  0  0
  -18.2702  -27.4724   23.3851 C   0  0  0  0  0  0  0  0  0  0  0  0
  -24.5298  -26.8032   21.7147 C   0  0  0  0  0  0  0  0  0  0  0  0
  -26.1356  -29.2712   21.9886 C   0  0  0  0  0  0  0  0  0  0  0  0
  -19.4039  -27.9970   24.2625 C   0  0  0  0  0  0  0  0  0  0  0  0
  -27.7688  -22.8191   23.5230 C   0  0  0  0  0  0  0  0  0  0  0  0
  -20.0913  -29.1832   23.5938 C   0  0  0  0  0  0  0  0  0  0  0  0
  -27.5120  -21.4116   22.9818 C   0  0  0  0  0  0  0  0  0  0  0  0
  -27.4923  -23.8884   22.4684 C   0  0  0  0  0  0  0  0  0  0  0  0
  -27.9463  -22.2888   20.6493 C   0  0  0  0  0  0  0  0  0  0  0  0
  -20.7195  -28.7743   22.2560 C   0  0  1  0  0  0  0  0  0  0  0  0
  -24.3290  -27.7667   22.8803 C   0  0  1  0  0  0  0  0  0  0  0  0
  -28.2652  -21.1732   21.6593 C   0  0  2  0  0  0  0  0  0  0  0  0
  -30.8351  -29.2611   26.9664 C   0  0  0  0  0  0  0  0  0  0  0  0
  -27.8939  -31.3604   16.9603 C   0  0  0  0  0  0  0  0  0  0  0  0
  -25.2587  -31.8282   24.8806 C   0  0  0  0  0  0  0  0  0  0  0  0
  -27.6198  -32.1335   25.6553 C   0  0  0  0  0  0  0  0  0  0  0  0
  -26.0779  -30.6351   26.9201 C   0  0  0  0  0  0  0  0  0  0  0  0
  -31.2850  -27.7076   23.5225 C   0  0  0  0  0  0  0  0  0  0  0  0
  -30.7474  -25.1011   18.9332 C   0  0  0  0  0  0  0  0  0  0  0  0
  -29.2183  -29.2668   16.5063 C   0  0  0  0  0  0  0  0  0  0  0  0
  -26.9558  -29.8940   24.6680 C   0  0  1  0  0  0  0  0  0  0  0  0
  -30.3809  -28.6138   25.6673 C   0  0  2  0  0  0  0  0  0  0  0  0
  -28.1176  -29.9070   17.3589 C   0  0  2  0  0  0  0  0  0  1  0  0
  -26.4725  -31.1117   25.5053 C   0  0  0  0  0  0  0  0  0  0  0  0
  -26.7733  -19.2422   21.3017 N   0  0  0  0  0  0  0  0  0  0  0  0
  -29.4475  -27.8171   16.8634 N   0  0  0  0  0  0  0  0  0  0  0  0
  -27.9810  -19.7939   21.0940 N   0  0  0  0  0  0  0  0  0  0  0  0
  -25.5076  -28.5969   23.1369 N   0  0  0  0  0  0  0  0  0  0  0  0
  -28.2377  -23.6046   21.2397 N   0  0  0  0  0  0  0  0  0  0  0  0
  -30.0824  -19.4095   20.0708 N   0  0  0  0  0  0  0  0  0  0  0  0
  -27.7664  -15.6458   19.1399 N   0  0  0  0  0  0  0  0  0  0  0  0
  -21.9612  -28.0645   22.4767 N   0  0  0  0  0  0  0  0  0  0  0  0
  -28.0872  -29.1800   25.2497 N   0  0  0  0  0  0  0  0  0  0  0  0
  -29.7966  -24.2171   19.5699 N   0  0  0  0  0  0  0  0  0  0  0  0
  -31.5825  -28.3628   24.8222 N   0  3  0  0  0  0  0  0  0  0  0  0
  -29.7846  -16.7028   18.8785 O   0  0  0  0  0  0  0  0  0  0  0  0
  -23.3641  -29.9122   22.6775 O   0  0  0  0  0  0  0  0  0  0  0  0
  -25.3613  -28.3203   25.4473 O   0  0  0  0  0  0  0  0  0  0  0  0
  -29.7381  -30.3771   24.1458 O   0  0  0  0  0  0  0  0  0  0  0  0
  -29.3109  -25.6599   21.2844 O   0  0  0  0  0  0  0  0  0  0  0  0
  -22.5258  -14.5398   20.6723 O   0  0  0  0  0  0  0  0  0  0  0  0
  -26.9004  -29.1901   17.1568 O   0  0  0  0  0  0  0  0  0  1  0  0
  -23.5325   -9.2235   21.7337 F   0  0  0  0  0  0  0  0  0  0  0  0
  -21.3428  -13.2750   22.8271 F   0  0  0  0  0  0  0  0  0  0  0  0
  1  2  1  0  0  0  0
  1  5  2  0  0  0  0
  2  6  2  0  0  0  0
  3  8  2  0  0  0  0
  3 18  1  0  0  0  0
  4  9  1  0  0  0  0
  4 18  2  0  0  0  0
  5 20  1  0  0  0  0
  6 22  1  0  0  0  0
  7 10  2  0  0  0  0
  7 21  1  0  0  0  0
  8 25  1  0  0  0  0
  9 25  2  0  0  0  0
 10 26  1  0  0  0  0
 11 12  2  0  0  0  0
 11 27  1  0  0  0  0
 12 28  1  0  0  0  0
 13 16  2  0  0  0  0
 13 24  1  0  0  0  0
 14 23  1  0  0  0  0
 14 26  2  0  0  0  0
 15 28  2  0  0  0  0
 15 29  1  0  0  0  0
 16 62  1  0  0  0  0
 17 24  2  0  0  0  0
 17 62  1  0  0  0  0
 18 30  1  0  0  0  0
 19 30  1  0  0  0  0
 19 31  2  0  0  0  0
 19 32  1  0  0  0  0
 20 22  2  0  0  0  0
 20 37  1  0  0  0  0
 21 23  2  0  0  0  0
 21 38  1  0  0  0  0
 22 46  1  0  0  0  0
 23 39  1  0  0  0  0
 24 55  1  0  0  0  0
 25 77  1  0  0  0  0
 26 78  1  0  0  0  0
 27 29  2  0  0  0  0
 27 77  1  0  0  0  0
 28 79  1  0  0  0  0
 29 80  1  0  0  0  0
 30 61  2  0  0  0  0
 31 63  1  0  0  0  0
 31 66  1  0  0  0  0
 32 67  1  0  0  0  0
 32 72  2  0  0  0  0
 33 47  1  0  0  0  0
 33 68  1  0  0  0  0
 33 73  2  0  0  0  0
 34 57  1  0  0  0  0
 34 64  1  0  0  0  0
 34 74  2  0  0  0  0
 35 58  1  0  0  0  0
 35 69  1  0  0  0  0
 35 75  2  0  0  0  0
 36 65  1  0  0  0  0
 36 70  1  0  0  0  0
 36 76  2  0  0  0  0
 37 40  1  0  0  0  0
 38 47  1  0  0  0  0
 39 64  1  0  0  0  0
 40 42  1  0  0  0  0
 41 43  1  0  0  0  0
 41 44  1  0  0  0  0
 42 46  1  0  0  0  0
 43 48  1  0  0  0  0
 44 65  1  0  0  0  0
 45 48  1  0  0  0  0
 45 65  1  0  0  0  0
 46 68  1  0  0  0  0
 47 64  1  0  0  0  0
 48 63  1  0  0  0  0
 49 58  1  0  0  0  0
 50 59  1  0  0  0  0
 51 60  1  0  0  0  0
 52 60  1  0  0  0  0
 53 60  1  0  0  0  0
 54 71  1  0  0  0  0
 55 70  1  0  0  0  0
 56 59  1  0  0  0  0
 56 62  1  0  0  0  0
 57 60  1  0  0  0  0
 57 69  1  0  0  0  0
 58 71  1  0  0  0  0
 59 78  1  0  0  0  0
 61 63  1  0  0  0  0
M  CHG  1  71   1
M  ISO  4  36 100  59 101  70 100  78 101
M  END
> <Batch ID>
0116

> <Smiles>
CNC(C)C(=O)NC(C(=O)N1Cc2cc([101O:1][101CH:1](C)Cn3ccc(C[100NH:0][100C:0](=O)N4CCCC(n5nc(-c6ccc(Oc7ccc(F)cc7F)cc6)c(C(N)=O)c5N)C4)c3)ccc2CC1C(=O)NC1CCCc2ccccc21)C(C)(C)C

> <Shape>
0.268

> <Color>
0.076

> <Negative vol penalty>
0.000

$$$$
